@<TRIPOS>MOLECULE
NONAME
36 38 1 0 0 
SMALL
USER_CHARGES


@<TRIPOS>ATOM
  1 S        0.1410    -0.5710     0.9760 S.3   1 <1>   0.1810 
  2 N        1.6790    -0.2840     0.3380 N.2   1 <1>  -0.5100 
  3 C       -0.3620    -1.3710    -0.4800 C.2   1 <1>   0.4340 
  4 C        1.6530    -0.7930    -0.8320 C.2   1 <1>   0.5710 
  5 S       -2.0240    -2.0160    -0.6000 S.3   1 <1>  -0.2860 
  6 N        0.5420    -1.4180    -1.3580 N.2   1 <1>  -0.5650 
  7 S        3.0820    -0.7330    -1.9070 S.3   1 <1>  -0.2850 
  8 C       -2.8860    -1.5030     0.9650 C.3   1 <1>   0.1310 
  9 C        4.3630     0.1490    -0.9100 C.3   1 <1>  -0.0100 
 10 C       -4.3070    -2.0500     1.0110 C.2   1 <1>   0.5690 
 11 O       -4.5470    -2.7660     1.9550 O.2   1 <1>  -0.5700 
 12 N       -5.2590    -1.7180     0.0550 N.am  1 <1>  -0.4770 
 13 C       -6.5370    -2.3280    -0.0450 C.ar  1 <1>   0.1170 
 14 C       -5.0600    -0.5730    -0.8780 C.3   1 <1>   0.1400 
 15 C       -7.6480    -1.5920    -0.4770 C.ar  1 <1>  -0.1430 
 16 C       -6.7260    -3.6750     0.2590 C.ar  1 <1>  -0.1500 
 17 C       -6.1510     0.4610    -0.6090 C.3   1 <1>  -0.1600 
 18 C       -8.8950    -2.1910    -0.5610 C.ar  1 <1>  -0.1500 
 19 C       -7.5330    -0.1310    -0.8990 C.3   1 <1>  -0.0170 
 20 C       -7.9710    -4.2690     0.1720 C.ar  1 <1>  -0.1500 
 21 C       -9.0610    -3.5240    -0.2350 C.ar  1 <1>  -0.1500 
 22 H       -2.8840    -0.4310     1.0160 H     1 <1>   0.0800 
 23 H       -2.3190    -1.9080     1.7820 H     1 <1>   0.0800 
 24 H        5.2540     0.2160    -1.5070 H     1 <1>   0.0800 
 25 H        4.5370    -0.4230    -0.0170 H     1 <1>   0.0800 
 26 H        3.9810     1.1260    -0.6740 H     1 <1>   0.0800 
 27 H       -5.1300    -0.9330    -1.8910 H     1 <1>   0.0800 
 28 H       -4.1000    -0.1100    -0.7560 H     1 <1>   0.0800 
 29 H       -5.8900    -4.2750     0.5690 H     1 <1>   0.1500 
 30 H       -5.9950     1.3300    -1.2230 H     1 <1>   0.0800 
 31 H       -6.0970     0.7660     0.4220 H     1 <1>   0.0800 
 32 H       -9.7470    -1.6210    -0.8870 H     1 <1>   0.1500 
 33 H       -8.2860     0.4540    -0.4000 H     1 <1>   0.0800 
 34 H       -7.7190    -0.0780    -1.9570 H     1 <1>   0.0800 
 35 H       -8.0900    -5.3080     0.4220 H     1 <1>   0.1500 
 36 H      -10.0330    -3.9810    -0.3000 H     1 <1>   0.1500 
@<TRIPOS>BOND
  1   1   2  1   
  2   1   3  1   
  3   2   4  2   
  4   3   5  1   
  5   3   6  2   
  6   4   6  1   
  7   4   7  1   
  8   5   8  1   
  9   7   9  1   
 10   8  10  1   
 11   8  22  1   
 12   8  23  1   
 13   9  24  1   
 14   9  25  1   
 15   9  26  1   
 16  10  11  2   
 17  10  12  am  
 18  12  13  1   
 19  12  14  1   
 20  13  15  ar  
 21  13  16  ar  
 22  14  17  1   
 23  14  27  1   
 24  14  28  1   
 25  15  18  ar  
 26  15  19  1   
 27  16  20  ar  
 28  16  29  1   
 29  17  19  1   
 30  17  30  1   
 31  17  31  1   
 32  18  21  ar  
 33  18  32  1   
 34  19  33  1   
 35  19  34  1   
 36  20  21  ar  
 37  20  35  1   
 38  21  36  1   
@<TRIPOS>SUBSTRUCTURE
  1 ****   8 GROUP 4 **** **** 0

# MOE 2024.06 (io_trps.svl 2023.06)
