@<TRIPOS>MOLECULE
NONAME
47 48 1 0 0 
SMALL
USER_CHARGES


@<TRIPOS>ATOM
  1 S        0.0910    -0.1940     0.0480 S.o2  1 <1>   1.0900 
  2 O        0.2990    -0.5240    -1.3450 O.2   1 <1>  -0.6500 
  3 O       -0.0730    -1.2340     1.0400 O.2   1 <1>  -0.6500 
  4 C        1.4400     0.8760     0.5720 C.3   1 <1>   0.0890 
  5 C       -1.3130     0.9240     0.1650 C.3   1 <1>   0.0890 
  6 C        2.8070     0.2020     0.6030 C.ar  1 <1>  -0.1440 
  7 C       -2.6420     0.3060    -0.2460 C.ar  1 <1>  -0.1440 
  8 C        3.4450    -0.0440     1.8090 C.ar  1 <1>  -0.1500 
  9 C        3.4300    -0.1770    -0.5760 C.ar  1 <1>  -0.1500 
 10 C       -3.2430     0.6620    -1.4450 C.ar  1 <1>  -0.1500 
 11 C       -3.2640    -0.6210     0.5770 C.ar  1 <1>  -0.1500 
 12 C        4.6910    -0.6440     1.8300 C.ar  1 <1>  -0.1500 
 13 C        4.6750    -0.7790    -0.5470 C.ar  1 <1>  -0.1500 
 14 C       -4.4560     0.1050    -1.8100 C.ar  1 <1>  -0.1500 
 15 C       -4.4770    -1.1780     0.2120 C.ar  1 <1>  -0.1500 
 16 C        5.3420    -1.0140     0.6550 C.ar  1 <1>   0.0860 
 17 C       -5.0750    -0.8140    -0.9810 C.ar  1 <1>  -0.1500 
 18 C        6.6590    -1.6250     0.6930 C.2   1 <1>   0.5440 
 19 O        6.8320    -2.6020     1.3980 O.2   1 <1>  -0.5700 
 20 N        7.7250    -1.1230    -0.0320 N.am  1 <1>  -0.6600 
 21 C        7.7790     0.2890    -0.5050 C.3   1 <1>   0.1400 
 22 C        9.0110    -1.8720    -0.0960 C.3   1 <1>   0.1400 
 23 C        7.8930     0.3420    -2.0280 C.3   1 <1>  -0.2400 
 24 C        8.9200    -2.9550    -1.1680 C.3   1 <1>  -0.2400 
 25 H        1.2270     1.2580     1.5510 H     1 <1>   0.0800 
 26 H        1.5040     1.7160    -0.0930 H     1 <1>   0.0800 
 27 H       -1.1350     1.7840    -0.4500 H     1 <1>   0.0800 
 28 H       -1.4110     1.2680     1.1770 H     1 <1>   0.0800 
 29 H        2.9770     0.2220     2.7410 H     1 <1>   0.1500 
 30 H        2.9450    -0.0170    -1.5260 H     1 <1>   0.1500 
 31 H       -2.7730     1.3700    -2.1050 H     1 <1>   0.1500 
 32 H       -2.8060    -0.9220     1.5050 H     1 <1>   0.1500 
 33 H        5.1780    -0.8400     2.7700 H     1 <1>   0.1500 
 34 H        5.1410    -1.0830    -1.4660 H     1 <1>   0.1500 
 35 H       -4.9180     0.3840    -2.7410 H     1 <1>   0.1500 
 36 H       -4.9530    -1.8980     0.8550 H     1 <1>   0.1500 
 37 H       -6.0180    -1.2470    -1.2660 H     1 <1>   0.1500 
 38 H        8.6280     0.7790    -0.0590 H     1 <1>   0.0800 
 39 H        6.9000     0.8240    -0.1930 H     1 <1>   0.0800 
 40 H        9.2140    -2.3250     0.8610 H     1 <1>   0.0800 
 41 H        9.8220    -1.2000    -0.3200 H     1 <1>   0.0800 
 42 H        8.8280    -0.0760    -2.3520 H     1 <1>   0.0800 
 43 H        7.8520     1.3650    -2.3550 H     1 <1>   0.0800 
 44 H        7.0840    -0.1950    -2.4850 H     1 <1>   0.0800 
 45 H        8.1400    -3.6520    -0.9180 H     1 <1>   0.0800 
 46 H        9.8500    -3.4900    -1.2220 H     1 <1>   0.0800 
 47 H        8.7150    -2.5210    -2.1290 H     1 <1>   0.0800 
@<TRIPOS>BOND
  1   1   2  2   
  2   1   3  2   
  3   1   4  1   
  4   1   5  1   
  5   4   6  1   
  6   4  25  1   
  7   4  26  1   
  8   5   7  1   
  9   5  27  1   
 10   5  28  1   
 11   6   8  ar  
 12   6   9  ar  
 13   7  10  ar  
 14   7  11  ar  
 15   8  12  ar  
 16   8  29  1   
 17   9  13  ar  
 18   9  30  1   
 19  10  14  ar  
 20  10  31  1   
 21  11  15  ar  
 22  11  32  1   
 23  12  16  ar  
 24  12  33  1   
 25  13  16  ar  
 26  13  34  1   
 27  14  17  ar  
 28  14  35  1   
 29  15  17  ar  
 30  15  36  1   
 31  16  18  1   
 32  17  37  1   
 33  18  19  2   
 34  18  20  am  
 35  20  21  1   
 36  20  22  1   
 37  21  23  1   
 38  21  38  1   
 39  21  39  1   
 40  22  24  1   
 41  22  40  1   
 42  22  41  1   
 43  23  42  1   
 44  23  43  1   
 45  23  44  1   
 46  24  45  1   
 47  24  46  1   
 48  24  47  1   
@<TRIPOS>SUBSTRUCTURE
  1 ****   6 GROUP 4 **** **** 0

# MOE 2024.06 (io_trps.svl 2023.06)
