@<TRIPOS>MOLECULE
NONAME
56 60 1 0 0 
SMALL
USER_CHARGES


@<TRIPOS>ATOM
  1 O        1.2680     0.1220     0.7350 O.2   1 <1>  -0.5700 
  2 C        0.4510    -0.6270     0.2210 C.2   1 <1>   0.7160 
  3 N       -0.3870    -0.0560    -0.7240 N.am  1 <1>  -0.6600 
  4 C        0.3690    -2.0270     0.6330 C.2   1 <1>   0.2030 
  5 C       -0.0400     1.2350    -1.3910 C.3   1 <1>   0.1400 
  6 C       -1.8150    -0.4730    -0.8930 C.3   1 <1>   0.1400 
  7 N       -0.4830    -2.9440     0.1980 N.2   1 <1>  -0.7070 
  8 C        1.2300    -2.5960     1.5800 C.2   1 <1>  -0.1500 
  9 C       -0.9000     2.3890    -0.8330 C.3   1 <1>   0.3430 
 10 C       -2.7580     0.7480    -0.9880 C.3   1 <1>   0.3430 
 11 N       -0.1640    -4.0750     0.8440 N.pl3 1 <1>   0.3140 
 12 C        0.8650    -3.8860     1.6890 C.2   1 <1>  -0.3020 
 13 N       -2.2050     1.9250    -0.2180 N.4   1 <1>  -0.9590 
 14 C       -0.8800    -5.3480     0.6190 C.3   1 <1>   0.0960 
 15 C       -3.1800     3.0190     0.0820 C.3   1 <1>   0.5030 
 16 C       -0.0780    -6.2820    -0.2970 C.3   1 <1>  -0.2400 
 17 C       -2.4850     4.1290     0.9070 C.3   1 <1>  -0.1600 
 18 C       -4.3450     2.4530     0.9270 C.3   1 <1>  -0.1600 
 19 C       -3.7510     3.6380    -1.2130 C.3   1 <1>  -0.1600 
 20 C       -3.4810     5.2500     1.2560 C.3   1 <1>  -0.0800 
 21 C       -5.3520     3.5640     1.2760 C.3   1 <1>  -0.0800 
 22 C       -4.7550     4.7570    -0.8690 C.3   1 <1>  -0.0800 
 23 C       -4.6380     4.6610     2.0820 C.3   1 <1>  -0.1600 
 24 C       -4.0420     5.8470    -0.0480 C.3   1 <1>  -0.1600 
 25 C       -5.9040     4.1700    -0.0280 C.3   1 <1>  -0.1600 
 26 H       -0.2160     1.1370    -2.4480 H     1 <1>   0.0800 
 27 H        1.0050     1.4670    -1.2650 H     1 <1>   0.0800 
 28 H       -2.1230    -1.0630    -0.0480 H     1 <1>   0.0800 
 29 H       -1.9130    -1.0880    -1.7710 H     1 <1>   0.0800 
 30 H        2.0180    -2.0730     2.0950 H     1 <1>   0.1500 
 31 H       -1.0890     3.0890    -1.6280 H     1 <1>   0.0800 
 32 H       -0.3210     2.9020    -0.0820 H     1 <1>   0.0800 
 33 H       -3.7250     0.4580    -0.6150 H     1 <1>   0.0800 
 34 H       -2.8770     1.0210    -2.0230 H     1 <1>   0.0800 
 35 H        1.2730    -4.6680     2.3040 H     1 <1>   0.1500 
 36 H       -1.9310     1.5380     0.6940 H     1 <1>   0.4500 
 37 H       -1.8320    -5.1250     0.1710 H     1 <1>   0.0800 
 38 H       -1.0510    -5.8160     1.5710 H     1 <1>   0.0800 
 39 H        0.0880    -5.8100    -1.2500 H     1 <1>   0.0800 
 40 H       -0.6250    -7.1940    -0.4570 H     1 <1>   0.0800 
 41 H        0.8690    -6.5250     0.1500 H     1 <1>   0.0800 
 42 H       -1.6800     4.5780     0.3550 H     1 <1>   0.0800 
 43 H       -2.0860     3.7190     1.8180 H     1 <1>   0.0800 
 44 H       -3.9680     2.0240     1.8380 H     1 <1>   0.0800 
 45 H       -4.8820     1.6930     0.3910 H     1 <1>   0.0800 
 46 H       -2.9640     4.0580    -1.8120 H     1 <1>   0.0800 
 47 H       -4.2610     2.8930    -1.7970 H     1 <1>   0.0800 
 48 H       -2.9860     6.0200     1.8250 H     1 <1>   0.0800 
 49 H       -6.1630     3.1570     1.8580 H     1 <1>   0.0800 
 50 H       -5.1510     5.1870    -1.7740 H     1 <1>   0.0800 
 51 H       -4.2630     4.2560     3.0070 H     1 <1>   0.0800 
 52 H       -5.3380     5.4410     2.3340 H     1 <1>   0.0800 
 53 H       -3.2460     6.2850    -0.6260 H     1 <1>   0.0800 
 54 H       -4.7370     6.6360     0.1860 H     1 <1>   0.0800 
 55 H       -6.6140     4.9460     0.2060 H     1 <1>   0.0800 
 56 H       -6.4290     3.4180    -0.5930 H     1 <1>   0.0800 
@<TRIPOS>BOND
  1   1   2  2   
  2   2   3  am  
  3   2   4  1   
  4   3   5  1   
  5   3   6  1   
  6   4   7  2   
  7   4   8  1   
  8   5   9  1   
  9   5  26  1   
 10   5  27  1   
 11   6  10  1   
 12   6  28  1   
 13   6  29  1   
 14   7  11  1   
 15   8  12  2   
 16   8  30  1   
 17   9  13  1   
 18   9  31  1   
 19   9  32  1   
 20  10  13  1   
 21  10  33  1   
 22  10  34  1   
 23  11  12  1   
 24  11  14  1   
 25  12  35  1   
 26  13  15  1   
 27  13  36  1   
 28  14  16  1   
 29  14  37  1   
 30  14  38  1   
 31  15  17  1   
 32  15  18  1   
 33  15  19  1   
 34  16  39  1   
 35  16  40  1   
 36  16  41  1   
 37  17  20  1   
 38  17  42  1   
 39  17  43  1   
 40  18  21  1   
 41  18  44  1   
 42  18  45  1   
 43  19  22  1   
 44  19  46  1   
 45  19  47  1   
 46  20  23  1   
 47  20  24  1   
 48  20  48  1   
 49  21  23  1   
 50  21  25  1   
 51  21  49  1   
 52  22  24  1   
 53  22  25  1   
 54  22  50  1   
 55  23  51  1   
 56  23  52  1   
 57  24  53  1   
 58  24  54  1   
 59  25  55  1   
 60  25  56  1   
@<TRIPOS>SUBSTRUCTURE
  1 ****  13 GROUP 4 **** **** 0

# MOE 2024.06 (io_trps.svl 2023.06)
