@<TRIPOS>MOLECULE
NONAME
32 32 1 0 0 
SMALL
USER_CHARGES


@<TRIPOS>ATOM
  1 O        0.8270    -0.2580     0.2330 O.2   1 <1>  -0.5700 
  2 C        0.6270     0.9310     0.0860 C.2   1 <1>   0.8050 
  3 O       -0.6260     1.3700    -0.0340 O.3   1 <1>  -0.4300 
  4 C        1.7120     1.8760     0.0480 C.2   1 <1>  -0.2370 
  5 C       -1.7250     0.4880     0.0050 C.3   1 <1>   0.1200 
  6 N        2.9810     1.4200     0.2460 N.pl3 1 <1>   0.0330 
  7 C        1.8060     3.2340    -0.1480 C.2   1 <1>  -0.1810 
  8 C       -2.9970     1.3130    -0.1630 C.3   1 <1>  -0.2400 
  9 C        3.8560     2.4440     0.1920 C.2   1 <1>  -0.1320 
 10 C        3.1630     3.6140    -0.0510 C.2   1 <1>  -0.0860 
 11 C        0.6630     4.2000    -0.4360 C.3   1 <1>  -0.0590 
 12 C        5.2560     2.2250     0.3820 C.1   1 <1>   0.5370 
 13 C        3.7430     4.9360    -0.1730 C.2   1 <1>   0.8060 
 14 N        6.3540     1.9700     0.5550 N.1   1 <1>  -0.5570 
 15 O        4.9300     5.1220    -0.3450 O.2   1 <1>  -0.5700 
 16 O        2.9410     6.0000    -0.0820 O.3   1 <1>  -0.4300 
 17 C        3.4390     7.3160    -0.1800 C.3   1 <1>   0.1200 
 18 C        2.2620     8.2760    -0.0460 C.3   1 <1>  -0.2400 
 19 H       -1.7190    -0.0250     0.9520 H     1 <1>   0.0800 
 20 H       -1.6190    -0.2260    -0.7950 H     1 <1>   0.0800 
 21 H        3.2080     0.4300     0.4140 H     1 <1>   0.2700 
 22 H       -3.0840     2.0280     0.6360 H     1 <1>   0.0800 
 23 H       -3.8550     0.6650    -0.1360 H     1 <1>   0.0800 
 24 H       -2.9850     1.8260    -1.1070 H     1 <1>   0.0800 
 25 H        0.9060     4.8170    -1.2820 H     1 <1>   0.0800 
 26 H       -0.2520     3.6890    -0.6620 H     1 <1>   0.0800 
 27 H        0.4960     4.8340     0.4170 H     1 <1>   0.0800 
 28 H        4.1550     7.4700     0.6100 H     1 <1>   0.0800 
 29 H        3.9240     7.4290    -1.1350 H     1 <1>   0.0800 
 30 H        2.6120     9.2900    -0.1150 H     1 <1>   0.0800 
 31 H        1.7810     8.1440     0.9070 H     1 <1>   0.0800 
 32 H        1.5510     8.1060    -0.8350 H     1 <1>   0.0800 
@<TRIPOS>BOND
  1   1   2  2   
  2   2   3  1   
  3   2   4  1   
  4   3   5  1   
  5   4   6  1   
  6   4   7  2   
  7   5   8  1   
  8   5  19  1   
  9   5  20  1   
 10   6   9  1   
 11   6  21  1   
 12   7  10  1   
 13   7  11  1   
 14   8  22  1   
 15   8  23  1   
 16   8  24  1   
 17   9  10  2   
 18   9  12  1   
 19  10  13  1   
 20  11  25  1   
 21  11  26  1   
 22  11  27  1   
 23  12  14  3   
 24  13  15  2   
 25  13  16  1   
 26  16  17  1   
 27  17  18  1   
 28  17  28  1   
 29  17  29  1   
 30  18  30  1   
 31  18  31  1   
 32  18  32  1   
@<TRIPOS>SUBSTRUCTURE
  1 ****   7 GROUP 4 **** **** 0

# MOE 2024.06 (io_trps.svl 2023.06)
