@<TRIPOS>MOLECULE
NONAME
34 35 1 0 0 
SMALL
USER_CHARGES


@<TRIPOS>ATOM
  1 S        0.0860    -0.2200    -0.0430 S.o2  1 <1>   1.0900 
  2 O        0.4910    -0.3960    -1.4180 O.2   1 <1>  -0.6500 
  3 O        0.4440    -1.1800     0.9750 O.2   1 <1>  -0.6500 
  4 C        0.5960     1.4020     0.4980 C.3   1 <1>   0.0830 
  5 C       -1.6710     0.0960     0.0300 C.3   1 <1>   0.0830 
  6 C       -0.6750     2.1970     0.7320 C.2   1 <1>   0.0660 
  7 C       -1.8300     1.5320     0.5000 C.2   1 <1>  -0.0380 
  8 N       -0.5130     3.5350     1.1590 N.pl3 1 <1>   0.8360 
  9 N       -3.1190     2.0330     0.6350 N.pl3 1 <1>  -0.6000 
 10 O       -1.4990     4.2810     1.3100 O.2   1 <1>  -0.5200 
 11 O        0.6270     3.9800     1.3780 O.2   1 <1>  -0.5200 
 12 C       -4.3230     1.3620     0.4150 C.ar  1 <1>   0.1000 
 13 C       -5.1260     1.7090    -0.6620 C.ar  1 <1>  -0.1500 
 14 C       -4.7410     0.3480     1.2690 C.ar  1 <1>  -0.1500 
 15 C       -6.3190     1.0490    -0.8880 C.ar  1 <1>  -0.1500 
 16 C       -5.9340    -0.3160     1.0470 C.ar  1 <1>  -0.1500 
 17 C       -6.7330     0.0340    -0.0390 C.ar  1 <1>   0.0830 
 18 O       -7.9190    -0.5600    -0.3330 O.3   1 <1>  -0.3630 
 19 C       -8.4560    -1.5610     0.5000 C.3   1 <1>   0.1200 
 20 C       -9.7940    -1.9970    -0.0890 C.3   1 <1>  -0.2400 
 21 H        1.1970     1.8770    -0.2540 H     1 <1>   0.0800 
 22 H        1.1630     1.3330     1.4080 H     1 <1>   0.0800 
 23 H       -2.1420    -0.5760     0.7210 H     1 <1>   0.0800 
 24 H       -2.1190    -0.0260    -0.9380 H     1 <1>   0.0800 
 25 H       -3.2160     3.0370     0.8720 H     1 <1>   0.4000 
 26 H       -4.8130     2.4960    -1.3250 H     1 <1>   0.1500 
 27 H       -4.1300     0.0870     2.1140 H     1 <1>   0.1500 
 28 H       -6.9410     1.3150    -1.7230 H     1 <1>   0.1500 
 29 H       -6.2260    -1.0940     1.7270 H     1 <1>   0.1500 
 30 H       -8.5910    -1.1480     1.4850 H     1 <1>   0.0800 
 31 H       -7.7660    -2.3870     0.5300 H     1 <1>   0.0800 
 32 H      -10.4690    -1.1610    -0.1300 H     1 <1>   0.0800 
 33 H      -10.2300    -2.7620     0.5260 H     1 <1>   0.0800 
 34 H       -9.6500    -2.3920    -1.0790 H     1 <1>   0.0800 
@<TRIPOS>BOND
  1   1   2  2   
  2   1   3  2   
  3   1   4  1   
  4   1   5  1   
  5   4   6  1   
  6   4  21  1   
  7   4  22  1   
  8   5   7  1   
  9   5  23  1   
 10   5  24  1   
 11   6   7  2   
 12   6   8  1   
 13   7   9  1   
 14   8  10  2   
 15   8  11  2   
 16   9  12  1   
 17   9  25  1   
 18  12  13  ar  
 19  12  14  ar  
 20  13  15  ar  
 21  13  26  1   
 22  14  16  ar  
 23  14  27  1   
 24  15  17  ar  
 25  15  28  1   
 26  16  17  ar  
 27  16  29  1   
 28  17  18  1   
 29  18  19  1   
 30  19  20  1   
 31  19  30  1   
 32  19  31  1   
 33  20  32  1   
 34  20  33  1   
 35  20  34  1   
@<TRIPOS>SUBSTRUCTURE
  1 ****  12 GROUP 4 **** **** 0

# MOE 2024.06 (io_trps.svl 2023.06)
