@<TRIPOS>MOLECULE
NONAME
36 37 1 0 0 
SMALL
USER_CHARGES


@<TRIPOS>ATOM
  1 S       -0.4160     0.3690    -1.1950 S.o2  1 <1>   1.4470 
  2 O        0.6940    -0.5060    -1.5040 O.2   1 <1>  -0.6500 
  3 O       -0.9320     1.2250    -2.2420 O.2   1 <1>  -0.6500 
  4 N        0.1030     1.3960     0.0470 N.am  1 <1>  -0.8490 
  5 C       -1.7780    -0.5710    -0.4240 C.ar  1 <1>  -0.0090 
  6 C        1.3440     2.0780    -0.2700 C.3   1 <1>   0.1960 
  7 C       -0.8370     2.4460     0.4010 C.3   1 <1>   0.1960 
  8 C       -1.5840    -1.4980     0.6040 C.ar  1 <1>  -0.1440 
  9 C       -3.0810    -0.3490    -0.8550 C.ar  1 <1>  -0.1500 
 10 C        1.4300     3.2110     0.7460 C.3   1 <1>  -0.1600 
 11 C       -0.0080     3.4270     1.2200 C.3   1 <1>  -0.1600 
 12 C       -2.6680    -2.1640     1.1510 C.ar  1 <1>  -0.1500 
 13 C       -0.1960    -1.8110     1.1530 C.3   1 <1>  -0.0970 
 14 C       -4.1920    -1.0010    -0.3190 C.ar  1 <1>   0.0860 
 15 C       -3.9480    -1.9210     0.6980 C.ar  1 <1>  -0.1500 
 16 C       -5.5320    -0.7230    -0.8050 C.2   1 <1>   0.6340 
 17 O       -5.7740     0.1290    -1.6330 O.2   1 <1>  -0.5700 
 18 O       -6.5450    -1.4420    -0.3070 O.3   1 <1>  -0.4300 
 19 C       -7.8800    -1.2370    -0.7240 C.3   1 <1>   0.0400 
 20 H        1.2940     2.4840    -1.2680 H     1 <1>   0.0800 
 21 H        2.1830     1.4040    -0.2000 H     1 <1>   0.0800 
 22 H       -1.6670     2.0530     0.9630 H     1 <1>   0.0800 
 23 H       -1.2010     2.9400    -0.4860 H     1 <1>   0.0800 
 24 H       -3.2490     0.3640    -1.6470 H     1 <1>   0.1500 
 25 H        1.8430     4.0940     0.2920 H     1 <1>   0.0800 
 26 H        2.0560     2.9140     1.5700 H     1 <1>   0.0800 
 27 H       -0.0950     3.1850     2.2650 H     1 <1>   0.0800 
 28 H       -0.3410     4.4370     1.0620 H     1 <1>   0.0800 
 29 H       -2.5210    -2.8830     1.9400 H     1 <1>   0.1500 
 30 H        0.4030    -2.2890     0.3990 H     1 <1>   0.0800 
 31 H       -0.2530    -2.4700     2.0000 H     1 <1>   0.0800 
 32 H        0.2980    -0.9100     1.4700 H     1 <1>   0.0800 
 33 H       -4.7710    -2.4540     1.1440 H     1 <1>   0.1500 
 34 H       -8.5140    -1.9240    -0.1930 H     1 <1>   0.0800 
 35 H       -7.9440    -1.4140    -1.7840 H     1 <1>   0.0800 
 36 H       -8.1620    -0.2220    -0.5000 H     1 <1>   0.0800 
@<TRIPOS>BOND
  1   1   2  2   
  2   1   3  2   
  3   1   4  am  
  4   1   5  1   
  5   4   6  1   
  6   4   7  1   
  7   5   8  ar  
  8   5   9  ar  
  9   6  10  1   
 10   6  20  1   
 11   6  21  1   
 12   7  11  1   
 13   7  22  1   
 14   7  23  1   
 15   8  12  ar  
 16   8  13  1   
 17   9  14  ar  
 18   9  24  1   
 19  10  11  1   
 20  10  25  1   
 21  10  26  1   
 22  11  27  1   
 23  11  28  1   
 24  12  15  ar  
 25  12  29  1   
 26  13  30  1   
 27  13  31  1   
 28  13  32  1   
 29  14  15  ar  
 30  14  16  1   
 31  15  33  1   
 32  16  17  2   
 33  16  18  1   
 34  18  19  1   
 35  19  34  1   
 36  19  35  1   
 37  19  36  1   
@<TRIPOS>SUBSTRUCTURE
  1 ****   5 GROUP 4 **** **** 0

# MOE 2024.06 (io_trps.svl 2023.06)
