@<TRIPOS>MOLECULE
NONAME
47 49 1 0 0 
SMALL
USER_CHARGES


@<TRIPOS>ATOM
  1 CL       1.9410    -0.5510     3.0900 Cl    1 <1>  -0.1770 
  2 C        2.2340    -1.4500     1.6220 C.ar  1 <1>   0.1770 
  3 C        3.5210    -1.5540     1.1380 C.ar  1 <1>  -0.1500 
  4 C        1.1700    -2.0380     0.9690 C.ar  1 <1>  -0.1500 
  5 C        3.7720    -2.2660    -0.0320 C.ar  1 <1>   0.1170 
  6 C        1.4070    -2.7450    -0.1960 C.ar  1 <1>  -0.1500 
  7 N        5.0660    -2.3830    -0.5650 N.am  1 <1>  -0.5470 
  8 C        2.6950    -2.8620    -0.6990 C.ar  1 <1>  -0.1430 
  9 C        6.2970    -2.2830     0.0000 C.2   1 <1>   0.6900 
 10 C        2.9030    -3.6560    -1.9850 C.3   1 <1>  -0.0960 
 11 O        6.4800    -2.0700     1.1840 O.2   1 <1>  -0.5700 
 12 N        7.3830    -2.3950    -0.8140 N.am  1 <1>  -0.6600 
 13 C        7.8760    -1.1300    -1.4230 C.3   1 <1>   0.1400 
 14 C        8.4890    -3.2810    -0.3470 C.3   1 <1>   0.1400 
 15 C        8.7690    -0.3720    -0.4170 C.3   1 <1>   0.3430 
 16 C        9.4000    -2.5370     0.6520 C.3   1 <1>   0.3430 
 17 N        9.9020    -1.2260     0.1030 N.4   1 <1>  -0.9590 
 18 C       10.6900    -0.4940     1.1310 C.3   1 <1>   0.4860 
 19 C       11.3120     0.7310     0.4860 C.ar  1 <1>  -0.1430 
 20 C       12.3840     0.5970    -0.3860 C.ar  1 <1>  -0.1500 
 21 C       10.8100     1.9990     0.7590 C.ar  1 <1>  -0.1500 
 22 C       12.9130     1.7310    -0.9720 C.ar  1 <1>   0.1900 
 23 C       11.3580     3.1250     0.1610 C.ar  1 <1>  -0.1500 
 24 F       13.9120     1.5970    -1.7990 F     1 <1>  -0.1900 
 25 C       12.4200     2.9950    -0.7170 C.ar  1 <1>  -0.1500 
 26 H        4.3140    -1.0760     1.6780 H     1 <1>   0.1500 
 27 H        0.1760    -1.9410     1.3680 H     1 <1>   0.1500 
 28 H        0.5770    -3.2030    -0.7050 H     1 <1>   0.1500 
 29 H        5.1000    -2.7180    -1.5230 H     1 <1>   0.3700 
 30 H        3.2720    -3.0120    -2.7630 H     1 <1>   0.0800 
 31 H        1.9800    -4.0920    -2.3220 H     1 <1>   0.0800 
 32 H        3.6050    -4.4530    -1.8180 H     1 <1>   0.0800 
 33 H        7.0380    -0.5070    -1.6910 H     1 <1>   0.0800 
 34 H        8.4270    -1.3470    -2.3220 H     1 <1>   0.0800 
 35 H        9.0620    -3.6220    -1.1920 H     1 <1>   0.0800 
 36 H        8.0700    -4.1480     0.1370 H     1 <1>   0.0800 
 37 H        8.1500    -0.0570     0.4070 H     1 <1>   0.0800 
 38 H        9.1630     0.5120    -0.8920 H     1 <1>   0.0800 
 39 H       10.2310    -3.1720     0.9140 H     1 <1>   0.0800 
 40 H        8.8290    -2.3560     1.5490 H     1 <1>   0.0800 
 41 H       10.5330    -1.4130    -0.6850 H     1 <1>   0.4500 
 42 H       11.4720    -1.1250     1.5220 H     1 <1>   0.0800 
 43 H       10.0510    -0.1970     1.9480 H     1 <1>   0.0800 
 44 H       12.8220    -0.3570    -0.6210 H     1 <1>   0.1500 
 45 H        9.9880     2.1320     1.4440 H     1 <1>   0.1500 
 46 H       10.9630     4.1030     0.3810 H     1 <1>   0.1500 
 47 H       12.8620     3.8540    -1.1920 H     1 <1>   0.1500 
@<TRIPOS>BOND
  1   1   2  1   
  2   2   3  ar  
  3   2   4  ar  
  4   3   5  ar  
  5   3  26  1   
  6   4   6  ar  
  7   4  27  1   
  8   5   7  1   
  9   5   8  ar  
 10   6   8  ar  
 11   6  28  1   
 12   7   9  am  
 13   7  29  1   
 14   8  10  1   
 15   9  11  2   
 16   9  12  am  
 17  10  30  1   
 18  10  31  1   
 19  10  32  1   
 20  12  13  1   
 21  12  14  1   
 22  13  15  1   
 23  13  33  1   
 24  13  34  1   
 25  14  16  1   
 26  14  35  1   
 27  14  36  1   
 28  15  17  1   
 29  15  37  1   
 30  15  38  1   
 31  16  17  1   
 32  16  39  1   
 33  16  40  1   
 34  17  18  1   
 35  17  41  1   
 36  18  19  1   
 37  18  42  1   
 38  18  43  1   
 39  19  20  ar  
 40  19  21  ar  
 41  20  22  ar  
 42  20  44  1   
 43  21  23  ar  
 44  21  45  1   
 45  22  24  1   
 46  22  25  ar  
 47  23  25  ar  
 48  23  46  1   
 49  25  47  1   
@<TRIPOS>SUBSTRUCTURE
  1 ****  15 GROUP 4 **** **** 0

# MOE 2024.06 (io_trps.svl 2023.06)
