@<TRIPOS>MOLECULE
NONAME
37 37 1 0 0 
SMALL
USER_CHARGES


@<TRIPOS>ATOM
  1 BR      -0.3530     0.7180     2.2120 Br    1 <1>  -0.1110 
  2 C       -1.2070     2.1600     1.2540 C.ar  1 <1>   0.1110 
  3 C       -0.4330     3.1740     0.7120 C.ar  1 <1>   0.0830 
  4 C       -2.5810     2.1250     1.1270 C.ar  1 <1>  -0.1500 
  5 O        0.9140     3.1320     0.8450 O.3   1 <1>  -0.3630 
  6 C       -1.0980     4.2080     0.0450 C.ar  1 <1>   0.0830 
  7 C       -3.2510     3.1320     0.4320 C.ar  1 <1>   0.0860 
  8 C        1.6640     2.9290    -0.3330 C.3   1 <1>   0.0400 
  9 O       -0.4530     5.2740    -0.4860 O.3   1 <1>  -0.3630 
 10 C       -2.4750     4.1700    -0.0960 C.ar  1 <1>  -0.1500 
 11 C       -4.6930     3.0930     0.2760 C.2   1 <1>   0.5440 
 12 C        0.2130     6.1290     0.4170 C.3   1 <1>   0.1200 
 13 O       -5.3850     2.4820     1.0670 O.2   1 <1>  -0.5700 
 14 N       -5.3080     3.7340    -0.7640 N.am  1 <1>  -0.7300 
 15 C        0.6760     7.3610    -0.3540 C.3   1 <1>  -0.2400 
 16 C       -6.7680     3.6960    -1.0430 C.3   1 <1>   0.1400 
 17 C       -7.5320     4.5660    -0.0450 C.3   1 <1>   0.1200 
 18 O       -8.8510     4.6820    -0.4810 O.3   1 <1>  -0.5600 
 19 C       -9.6720     5.3790     0.4000 C.3   1 <1>   0.0400 
 20 H       -3.1380     1.3140     1.5640 H     1 <1>   0.1500 
 21 H        2.7010     2.8510    -0.0600 H     1 <1>   0.0800 
 22 H        1.5210     3.7630    -0.9960 H     1 <1>   0.0800 
 23 H        1.3370     2.0170    -0.7990 H     1 <1>   0.0800 
 24 H       -2.9490     4.9810    -0.6180 H     1 <1>   0.1500 
 25 H        1.0540     5.6080     0.8400 H     1 <1>   0.0800 
 26 H       -0.4750     6.4020     1.1990 H     1 <1>   0.0800 
 27 H       -4.7360     4.1670    -1.4910 H     1 <1>   0.3700 
 28 H        1.3530     7.0730    -1.1380 H     1 <1>   0.0800 
 29 H        1.1860     8.0340     0.3110 H     1 <1>   0.0800 
 30 H       -0.1700     7.8720    -0.7780 H     1 <1>   0.0800 
 31 H       -7.1190     2.6800    -0.9680 H     1 <1>   0.0800 
 32 H       -6.9460     4.0550    -2.0420 H     1 <1>   0.0800 
 33 H       -7.1020     5.5510     0.0010 H     1 <1>   0.0800 
 34 H       -7.5230     4.1050     0.9280 H     1 <1>   0.0800 
 35 H      -10.6590     5.4210    -0.0250 H     1 <1>   0.0800 
 36 H       -9.2890     6.3760     0.5310 H     1 <1>   0.0800 
 37 H       -9.7040     4.8580     1.3420 H     1 <1>   0.0800 
@<TRIPOS>BOND
  1   1   2  1   
  2   2   3  ar  
  3   2   4  ar  
  4   3   5  1   
  5   3   6  ar  
  6   4   7  ar  
  7   4  20  1   
  8   5   8  1   
  9   6   9  1   
 10   6  10  ar  
 11   7  10  ar  
 12   7  11  1   
 13   8  21  1   
 14   8  22  1   
 15   8  23  1   
 16   9  12  1   
 17  10  24  1   
 18  11  13  2   
 19  11  14  am  
 20  12  15  1   
 21  12  25  1   
 22  12  26  1   
 23  14  16  1   
 24  14  27  1   
 25  15  28  1   
 26  15  29  1   
 27  15  30  1   
 28  16  17  1   
 29  16  31  1   
 30  16  32  1   
 31  17  18  1   
 32  17  33  1   
 33  17  34  1   
 34  18  19  1   
 35  19  35  1   
 36  19  36  1   
 37  19  37  1   
@<TRIPOS>SUBSTRUCTURE
  1 ****  10 GROUP 4 **** **** 0

# MOE 2024.06 (io_trps.svl 2023.06)
