@<TRIPOS>MOLECULE
NONAME
42 43 1 0 0 
SMALL
USER_CHARGES


@<TRIPOS>ATOM
  1 BR       1.5920    -0.4480     2.3080 Br    1 <1>  -0.1110 
  2 C        0.6410    -1.9160     1.4890 C.ar  1 <1>   0.1110 
  3 C        1.2510    -2.6640     0.4910 C.ar  1 <1>   0.0820 
  4 C       -0.6400    -2.1730     1.9340 C.ar  1 <1>  -0.1500 
  5 O        2.5150    -2.3310     0.1200 O.3   1 <1>  -0.3630 
  6 C        0.5300    -3.7110    -0.0750 C.ar  1 <1>  -0.1500 
  7 C       -1.3520    -3.2170     1.3630 C.ar  1 <1>  -0.1430 
  8 C        3.2340    -3.0730    -0.8410 C.3   1 <1>   0.0400 
  9 C       -0.7670    -3.9870     0.3580 C.ar  1 <1>   0.0830 
 10 C       -2.7640    -3.5150     1.8350 C.3   1 <1>   0.4870 
 11 O       -1.5210    -4.9920    -0.1670 O.3   1 <1>  -0.3630 
 12 N       -3.6920    -3.3520     0.6890 N.4   1 <1>  -0.9590 
 13 C       -0.9530    -5.9680    -1.0200 C.3   1 <1>   0.0400 
 14 C       -3.7380    -1.9490     0.1890 C.3   1 <1>   0.3430 
 15 C       -5.0400    -3.9100     0.9750 C.3   1 <1>   0.3430 
 16 C       -4.5650    -1.8920    -1.0950 C.3   1 <1>  -0.1600 
 17 C       -5.8860    -3.8810    -0.2980 C.3   1 <1>  -0.1600 
 18 C       -5.9750    -2.4660    -0.8890 C.3   1 <1>  -0.0800 
 19 C       -6.7490    -2.4810    -2.2120 C.3   1 <1>  -0.2400 
 20 H       -1.0530    -1.5580     2.7160 H     1 <1>   0.1500 
 21 H        0.9780    -4.2990    -0.8490 H     1 <1>   0.1500 
 22 H        4.2090    -2.6300    -0.9410 H     1 <1>   0.0800 
 23 H        2.7150    -3.0240    -1.7820 H     1 <1>   0.0800 
 24 H        3.3290    -4.0890    -0.5010 H     1 <1>   0.0800 
 25 H       -3.0390    -2.8520     2.6390 H     1 <1>   0.0800 
 26 H       -2.8000    -4.5300     2.1960 H     1 <1>   0.0800 
 27 H       -3.2600    -3.9240    -0.0570 H     1 <1>   0.4500 
 28 H       -0.6420    -5.4990    -1.9370 H     1 <1>   0.0800 
 29 H       -1.7000    -6.7120    -1.2300 H     1 <1>   0.0800 
 30 H       -0.1160    -6.4270    -0.5220 H     1 <1>   0.0800 
 31 H       -2.7400    -1.5930    -0.0140 H     1 <1>   0.0800 
 32 H       -4.1830    -1.3090     0.9340 H     1 <1>   0.0800 
 33 H       -5.5230    -3.3250     1.7410 H     1 <1>   0.0800 
 34 H       -4.9550    -4.9270     1.3240 H     1 <1>   0.0800 
 35 H       -4.0510    -2.4330    -1.8700 H     1 <1>   0.0800 
 36 H       -4.6390    -0.8660    -1.4140 H     1 <1>   0.0800 
 37 H       -6.8760    -4.2340    -0.0660 H     1 <1>   0.0800 
 38 H       -5.4630    -4.5590    -1.0190 H     1 <1>   0.0800 
 39 H       -6.5080    -1.8340    -0.1960 H     1 <1>   0.0800 
 40 H       -6.2560    -3.1000    -2.9410 H     1 <1>   0.0800 
 41 H       -6.8310    -1.4850    -2.6100 H     1 <1>   0.0800 
 42 H       -7.7440    -2.8620    -2.0600 H     1 <1>   0.0800 
@<TRIPOS>BOND
  1   1   2  1   
  2   2   3  ar  
  3   2   4  ar  
  4   3   5  1   
  5   3   6  ar  
  6   4   7  ar  
  7   4  20  1   
  8   5   8  1   
  9   6   9  ar  
 10   6  21  1   
 11   7   9  ar  
 12   7  10  1   
 13   8  22  1   
 14   8  23  1   
 15   8  24  1   
 16   9  11  1   
 17  10  12  1   
 18  10  25  1   
 19  10  26  1   
 20  11  13  1   
 21  12  14  1   
 22  12  15  1   
 23  12  27  1   
 24  13  28  1   
 25  13  29  1   
 26  13  30  1   
 27  14  16  1   
 28  14  31  1   
 29  14  32  1   
 30  15  17  1   
 31  15  33  1   
 32  15  34  1   
 33  16  18  1   
 34  16  35  1   
 35  16  36  1   
 36  17  18  1   
 37  17  37  1   
 38  17  38  1   
 39  18  19  1   
 40  18  39  1   
 41  19  40  1   
 42  19  41  1   
 43  19  42  1   
@<TRIPOS>SUBSTRUCTURE
  1 ****   7 GROUP 4 **** **** 0

# MOE 2024.06 (io_trps.svl 2023.06)
