@<TRIPOS>MOLECULE
NONAME
39 40 1 0 0 
SMALL
USER_CHARGES


@<TRIPOS>ATOM
  1 S        0.0060     0.4420     0.3600 S.3   1 <1>  -0.3710 
  2 C        1.7870     0.2740     0.3220 C.2   1 <1>   0.6510 
  3 C       -0.6260    -1.2460    -0.0450 C.3   1 <1>   0.0700 
  4 N        2.2490    -0.8880     0.0440 N.2   1 <1>  -0.6290 
  5 N        2.5370     1.4010     0.5900 N.am  1 <1>  -0.4200 
  6 C       -2.1570    -1.1950    -0.0260 C.3   1 <1>  -0.1600 
  7 C        3.6140    -1.0550     0.0000 C.ar  1 <1>   0.1790 
  8 C        3.9110     1.2880     0.5500 C.2   1 <1>   0.5440 
  9 C        1.9200     2.7220     0.9090 C.3   1 <1>   0.1400 
 10 C       -2.8040    -2.5260    -0.4470 C.3   1 <1>  -0.0800 
 11 C        4.4890     0.0090     0.2460 C.ar  1 <1>   0.0860 
 12 C        4.1300    -2.3120    -0.2980 C.ar  1 <1>  -0.1500 
 13 O        4.6130     2.2620     0.7710 O.2   1 <1>  -0.5700 
 14 C        1.6590     3.5030    -0.3800 C.3   1 <1>  -0.2400 
 15 C       -4.3260    -2.3590    -0.5290 C.3   1 <1>  -0.2400 
 16 C       -2.4670    -3.6640     0.5270 C.3   1 <1>  -0.2400 
 17 C        5.8670    -0.2240     0.1840 C.ar  1 <1>  -0.1500 
 18 C        5.4910    -2.5260    -0.3550 C.ar  1 <1>  -0.1500 
 19 C        6.3650    -1.4760    -0.1130 C.ar  1 <1>  -0.1500 
 20 H       -0.2330    -1.9160     0.6990 H     1 <1>   0.0800 
 21 H       -0.2470    -1.5050    -1.0180 H     1 <1>   0.0800 
 22 H       -2.4760    -0.4220    -0.7030 H     1 <1>   0.0800 
 23 H       -2.4870    -0.9270     0.9620 H     1 <1>   0.0800 
 24 H        2.5820     3.2890     1.5400 H     1 <1>   0.0800 
 25 H        1.0060     2.5910     1.4600 H     1 <1>   0.0800 
 26 H       -2.4430    -2.7930    -1.4270 H     1 <1>   0.0800 
 27 H        3.4440    -3.1190    -0.4850 H     1 <1>   0.1500 
 28 H        2.5830     3.6750    -0.9030 H     1 <1>   0.0800 
 29 H        1.2230     4.4560    -0.1410 H     1 <1>   0.0800 
 30 H        0.9790     2.9680    -1.0180 H     1 <1>   0.0800 
 31 H       -4.7310    -2.0920     0.4320 H     1 <1>   0.0800 
 32 H       -4.7860    -3.2750    -0.8530 H     1 <1>   0.0800 
 33 H       -4.5800    -1.5870    -1.2340 H     1 <1>   0.0800 
 34 H       -2.7700    -3.4090     1.5270 H     1 <1>   0.0800 
 35 H       -1.4120    -3.8700     0.5270 H     1 <1>   0.0800 
 36 H       -2.9770    -4.5650     0.2360 H     1 <1>   0.0800 
 37 H        6.5420     0.5940     0.3730 H     1 <1>   0.1500 
 38 H        5.8790    -3.5040    -0.5870 H     1 <1>   0.1500 
 39 H        7.4280    -1.6420    -0.1570 H     1 <1>   0.1500 
@<TRIPOS>BOND
  1   1   2  1   
  2   1   3  1   
  3   2   4  2   
  4   2   5  1   
  5   3   6  1   
  6   3  20  1   
  7   3  21  1   
  8   4   7  1   
  9   5   8  am  
 10   5   9  1   
 11   6  10  1   
 12   6  22  1   
 13   6  23  1   
 14   7  11  ar  
 15   7  12  ar  
 16   8  11  1   
 17   8  13  2   
 18   9  14  1   
 19   9  24  1   
 20   9  25  1   
 21  10  15  1   
 22  10  16  1   
 23  10  26  1   
 24  11  17  ar  
 25  12  18  ar  
 26  12  27  1   
 27  14  28  1   
 28  14  29  1   
 29  14  30  1   
 30  15  31  1   
 31  15  32  1   
 32  15  33  1   
 33  16  34  1   
 34  16  35  1   
 35  16  36  1   
 36  17  19  ar  
 37  17  37  1   
 38  18  19  ar  
 39  18  38  1   
 40  19  39  1   
@<TRIPOS>SUBSTRUCTURE
  1 ****   4 GROUP 4 **** **** 0

# MOE 2024.06 (io_trps.svl 2023.06)
