@<TRIPOS>MOLECULE
NONAME
43 45 1 0 0 
SMALL
USER_CHARGES


@<TRIPOS>ATOM
  1 CL      -2.6080     1.5140     3.4590 Cl    1 <1>  -0.1770 
  2 C       -2.8400     1.6170     1.7310 C.ar  1 <1>   0.1770 
  3 C       -1.9750     2.3510     0.9370 C.ar  1 <1>   0.1770 
  4 C       -3.9140     0.9500     1.1670 C.ar  1 <1>  -0.1500 
  5 CL      -0.6200     3.2020     1.6370 Cl    1 <1>  -0.1770 
  6 C       -2.1770     2.4220    -0.4290 C.ar  1 <1>  -0.1500 
  7 C       -4.1300     1.0220    -0.2050 C.ar  1 <1>  -0.1440 
  8 C       -3.2530     1.7560    -0.9970 C.ar  1 <1>  -0.1500 
  9 C       -5.3120     0.3030    -0.8330 C.3   1 <1>   0.4870 
 10 N       -6.5630     1.0140    -0.4640 N.4   1 <1>  -0.9590 
 11 C       -7.7740     0.2560    -0.8820 C.3   1 <1>   0.4860 
 12 C       -6.6230     2.4110    -0.9920 C.3   1 <1>   0.3430 
 13 C       -9.0240     0.9880    -0.4270 C.ar  1 <1>  -0.1430 
 14 C       -7.7580     3.1810    -0.3090 C.3   1 <1>  -0.0170 
 15 C       -9.0280     2.3520    -0.1700 C.ar  1 <1>  -0.1430 
 16 C      -10.1970     0.2680    -0.2730 C.ar  1 <1>  -0.1500 
 17 C      -10.2000     2.9720     0.2330 C.ar  1 <1>  -0.1500 
 18 C      -11.3750     0.8720     0.1300 C.ar  1 <1>   0.0830 
 19 C      -11.3840     2.2540     0.3900 C.ar  1 <1>   0.0830 
 20 O      -12.4250     0.0050     0.2250 O.3   1 <1>  -0.3620 
 21 O      -12.5320     2.8740     0.7920 O.3   1 <1>  -0.3620 
 22 C      -13.7380     0.3980     0.5570 C.3   1 <1>   0.0400 
 23 C      -12.6070     4.2590     1.0520 C.3   1 <1>   0.0400 
 24 H       -4.5590     0.3820     1.8160 H     1 <1>   0.1500 
 25 H       -1.4940     2.9920    -1.0350 H     1 <1>   0.1500 
 26 H       -3.3890     1.8180    -2.0650 H     1 <1>   0.1500 
 27 H       -5.3410    -0.7130    -0.4700 H     1 <1>   0.0800 
 28 H       -5.1990     0.2770    -1.9050 H     1 <1>   0.0800 
 29 H       -6.6050     1.0810     0.5600 H     1 <1>   0.4500 
 30 H       -7.7630    -0.7290    -0.4460 H     1 <1>   0.0800 
 31 H       -7.7970     0.1550    -1.9550 H     1 <1>   0.0800 
 32 H       -6.7990     2.3890    -2.0550 H     1 <1>   0.0800 
 33 H       -5.6920     2.9260    -0.8120 H     1 <1>   0.0800 
 34 H       -7.9640     4.0710    -0.8770 H     1 <1>   0.0800 
 35 H       -7.4340     3.4910     0.6690 H     1 <1>   0.0800 
 36 H      -10.2250    -0.7900    -0.4670 H     1 <1>   0.1500 
 37 H      -10.1730     4.0270     0.4270 H     1 <1>   0.1500 
 38 H      -14.3660    -0.4730     0.5260 H     1 <1>   0.0800 
 39 H      -14.0790     1.1210    -0.1620 H     1 <1>   0.0800 
 40 H      -13.7380     0.8120     1.5490 H     1 <1>   0.0800 
 41 H      -13.6170     4.4890     1.3410 H     1 <1>   0.0800 
 42 H      -12.3550     4.7980     0.1560 H     1 <1>   0.0800 
 43 H      -11.9360     4.5020     1.8560 H     1 <1>   0.0800 
@<TRIPOS>BOND
  1   1   2  1   
  2   2   3  ar  
  3   2   4  ar  
  4   3   5  1   
  5   3   6  ar  
  6   4   7  ar  
  7   4  24  1   
  8   6   8  ar  
  9   6  25  1   
 10   7   8  ar  
 11   7   9  1   
 12   8  26  1   
 13   9  10  1   
 14   9  27  1   
 15   9  28  1   
 16  10  11  1   
 17  10  12  1   
 18  10  29  1   
 19  11  13  1   
 20  11  30  1   
 21  11  31  1   
 22  12  14  1   
 23  12  32  1   
 24  12  33  1   
 25  13  15  ar  
 26  13  16  ar  
 27  14  15  1   
 28  14  34  1   
 29  14  35  1   
 30  15  17  ar  
 31  16  18  ar  
 32  16  36  1   
 33  17  19  ar  
 34  17  37  1   
 35  18  19  ar  
 36  18  20  1   
 37  19  21  1   
 38  20  22  1   
 39  21  23  1   
 40  22  38  1   
 41  22  39  1   
 42  22  40  1   
 43  23  41  1   
 44  23  42  1   
 45  23  43  1   
@<TRIPOS>SUBSTRUCTURE
  1 ****  10 GROUP 4 **** **** 0

# MOE 2024.06 (io_trps.svl 2023.06)
