@<TRIPOS>MOLECULE
NONAME
44 46 1 0 0 
SMALL
USER_CHARGES


@<TRIPOS>ATOM
  1 O       -0.8570    -0.1660     1.3130 O.3   1 <1>  -0.3630 
  2 C       -1.8800    -0.3940     0.4690 C.ar  1 <1>   0.0830 
  3 C       -0.8010    -1.2690     2.2150 C.3   1 <1>   0.4000 
  4 C       -2.3570     0.3580    -0.6050 C.ar  1 <1>   0.0830 
  5 C       -2.4840    -1.5710     0.8060 C.ar  1 <1>   0.0830 
  6 O       -1.8810    -2.1280     1.8600 O.3   1 <1>  -0.3630 
  7 O       -1.8530     1.5430    -1.0400 O.3   1 <1>  -0.3630 
  8 C       -3.4530    -0.1320    -1.3030 C.ar  1 <1>  -0.1500 
  9 C       -3.5720    -2.0710     0.1210 C.ar  1 <1>  -0.1500 
 10 C       -0.6770     2.0830    -0.4770 C.3   1 <1>   0.0400 
 11 C       -4.0710    -1.3300    -0.9450 C.ar  1 <1>  -0.1430 
 12 C       -5.2900    -1.8120    -1.7020 C.3   1 <1>   0.4870 
 13 N       -6.4870    -1.5310    -0.8450 N.4   1 <1>  -0.9590 
 14 C       -7.6870    -2.3070    -1.3280 C.3   1 <1>   0.3430 
 15 C       -6.6740    -0.0460    -0.7470 C.3   1 <1>   0.3430 
 16 C       -8.6820    -2.7010    -0.1970 C.3   1 <1>   0.3430 
 17 C       -8.0150     0.3860    -0.1490 C.3   1 <1>  -0.1600 
 18 N       -9.3840    -1.5700     0.5230 N.4   1 <1>  -0.9590 
 19 C       -8.5160    -0.4590     1.0210 C.3   1 <1>   0.3430 
 20 C      -10.1870    -2.1240     1.6660 C.3   1 <1>   0.2630 
 21 H       -0.9310    -0.9200     3.2240 H     1 <1>   0.0800 
 22 H        0.1320    -1.7900     2.0910 H     1 <1>   0.0800 
 23 H       -3.8060     0.4510    -2.1370 H     1 <1>   0.1500 
 24 H       -3.9880    -3.0130     0.4310 H     1 <1>   0.1500 
 25 H       -0.4360     2.9880    -1.0050 H     1 <1>   0.0800 
 26 H        0.1230     1.3720    -0.5870 H     1 <1>   0.0800 
 27 H       -0.8540     2.3020     0.5610 H     1 <1>   0.0800 
 28 H       -5.1930    -2.8700    -1.8860 H     1 <1>   0.0800 
 29 H       -5.3680    -1.3040    -2.6500 H     1 <1>   0.0800 
 30 H       -6.1930    -1.8680     0.0820 H     1 <1>   0.4500 
 31 H       -7.3450    -3.2240    -1.7820 H     1 <1>   0.0800 
 32 H       -8.2050    -1.7510    -2.0920 H     1 <1>   0.0800 
 33 H       -6.5800     0.3990    -1.7260 H     1 <1>   0.0800 
 34 H       -5.8780     0.3620    -0.1400 H     1 <1>   0.0800 
 35 H       -8.1470    -3.2980     0.5230 H     1 <1>   0.0800 
 36 H       -9.4330    -3.3430    -0.6310 H     1 <1>   0.0800 
 37 H       -8.7620     0.4540    -0.9190 H     1 <1>   0.0800 
 38 H       -7.8740     1.3900     0.2130 H     1 <1>   0.0800 
 39 H      -10.0720    -1.1460    -0.1220 H     1 <1>   0.4500 
 40 H       -9.1050     0.1770     1.6650 H     1 <1>   0.0800 
 41 H       -7.6930    -0.8420     1.6040 H     1 <1>   0.0800 
 42 H       -9.5410    -2.5730     2.4030 H     1 <1>   0.0800 
 43 H      -10.8800    -2.8720     1.3150 H     1 <1>   0.0800 
 44 H      -10.7540    -1.3390     2.1430 H     1 <1>   0.0800 
@<TRIPOS>BOND
  1   1   2  1   
  2   1   3  1   
  3   2   4  ar  
  4   2   5  ar  
  5   3   6  1   
  6   3  21  1   
  7   3  22  1   
  8   4   7  1   
  9   4   8  ar  
 10   5   6  1   
 11   5   9  ar  
 12   7  10  1   
 13   8  11  ar  
 14   8  23  1   
 15   9  11  ar  
 16   9  24  1   
 17  10  25  1   
 18  10  26  1   
 19  10  27  1   
 20  11  12  1   
 21  12  13  1   
 22  12  28  1   
 23  12  29  1   
 24  13  14  1   
 25  13  15  1   
 26  13  30  1   
 27  14  16  1   
 28  14  31  1   
 29  14  32  1   
 30  15  17  1   
 31  15  33  1   
 32  15  34  1   
 33  16  18  1   
 34  16  35  1   
 35  16  36  1   
 36  17  19  1   
 37  17  37  1   
 38  17  38  1   
 39  18  19  1   
 40  18  20  1   
 41  18  39  1   
 42  19  40  1   
 43  19  41  1   
 44  20  42  1   
 45  20  43  1   
 46  20  44  1   
@<TRIPOS>SUBSTRUCTURE
  1 ****  11 GROUP 4 **** **** 0

# MOE 2024.06 (io_trps.svl 2023.06)
