@<TRIPOS>MOLECULE
NONAME
35 35 1 0 0 
SMALL
USER_CHARGES


@<TRIPOS>ATOM
  1 O        0.2730    -0.2600     0.0520 O.3   1 <1>  -0.3630 
  2 C       -0.9590    -0.8280     0.0440 C.ar  1 <1>   0.0820 
  3 C        1.4400    -1.0410     0.0000 C.3   1 <1>   0.1200 
  4 C       -1.1810    -2.2020    -0.0160 C.ar  1 <1>  -0.1500 
  5 C       -2.0420     0.0350     0.0990 C.ar  1 <1>  -0.1500 
  6 C        2.6320    -0.0810     0.0270 C.3   1 <1>  -0.1600 
  7 C       -2.4750    -2.6950    -0.0200 C.ar  1 <1>  -0.1500 
  8 C       -3.3350    -0.4590     0.0950 C.ar  1 <1>  -0.1500 
  9 C        3.9720    -0.8280    -0.0260 C.3   1 <1>  -0.1600 
 10 C       -3.5510    -1.8250     0.0350 C.ar  1 <1>  -0.1500 
 11 C        5.1330     0.1630     0.0030 C.3   1 <1>   0.3430 
 12 N        6.4120    -0.5830    -0.0490 N.4   1 <1>  -0.9060 
 13 C        7.5880     0.3370    -0.0240 C.3   1 <1>   0.3430 
 14 C        8.9160    -0.4290    -0.0770 C.3   1 <1>   0.1200 
 15 O        9.9320     0.5070    -0.0490 O.3   1 <1>  -0.6800 
 16 H        1.4230    -1.6140    -0.9120 H     1 <1>   0.0800 
 17 H        1.4480    -1.6940     0.8560 H     1 <1>   0.0800 
 18 H       -0.3680    -2.9000    -0.0590 H     1 <1>   0.1500 
 19 H       -1.8660     1.0940     0.1450 H     1 <1>   0.1500 
 20 H        2.5750     0.5040     0.9300 H     1 <1>   0.0800 
 21 H        2.5510     0.5830    -0.8170 H     1 <1>   0.0800 
 22 H       -2.6470    -3.7560    -0.0660 H     1 <1>   0.1500 
 23 H       -4.1700     0.2180     0.1380 H     1 <1>   0.1500 
 24 H        4.0100    -1.4100    -0.9310 H     1 <1>   0.0800 
 25 H        4.0350    -1.4900     0.8210 H     1 <1>   0.0800 
 26 H       -4.5560    -2.2110     0.0320 H     1 <1>   0.1500 
 27 H        5.0840     0.7510     0.9060 H     1 <1>   0.0800 
 28 H        5.0590     0.8310    -0.8420 H     1 <1>   0.0800 
 29 H        6.4360    -1.1530    -0.9050 H     1 <1>   0.4500 
 30 H        6.4590    -1.2280     0.7500 H     1 <1>   0.4500 
 31 H        7.5690     0.9270     0.8790 H     1 <1>   0.0800 
 32 H        7.5450     1.0070    -0.8680 H     1 <1>   0.0800 
 33 H        9.0080    -0.9910    -0.9910 H     1 <1>   0.0800 
 34 H        9.0330    -1.0720     0.7780 H     1 <1>   0.0800 
 35 H       10.8190     0.0870    -0.0800 H     1 <1>   0.4000 
@<TRIPOS>BOND
  1   1   2  1   
  2   1   3  1   
  3   2   4  ar  
  4   2   5  ar  
  5   3   6  1   
  6   3  16  1   
  7   3  17  1   
  8   4   7  ar  
  9   4  18  1   
 10   5   8  ar  
 11   5  19  1   
 12   6   9  1   
 13   6  20  1   
 14   6  21  1   
 15   7  10  ar  
 16   7  22  1   
 17   8  10  ar  
 18   8  23  1   
 19   9  11  1   
 20   9  24  1   
 21   9  25  1   
 22  10  26  1   
 23  11  12  1   
 24  11  27  1   
 25  11  28  1   
 26  12  13  1   
 27  12  29  1   
 28  12  30  1   
 29  13  14  1   
 30  13  31  1   
 31  13  32  1   
 32  14  15  1   
 33  14  33  1   
 34  14  34  1   
 35  15  35  1   
@<TRIPOS>SUBSTRUCTURE
  1 ****   6 GROUP 4 **** **** 0

# MOE 2024.06 (io_trps.svl 2023.06)
