@<TRIPOS>MOLECULE
NONAME
42 43 1 0 0 
SMALL
USER_CHARGES


@<TRIPOS>ATOM
  1 O       -7.3860     2.4770     1.6390 O.2   1 <1>  -0.5750 
  2 C       -8.2530     2.0040     0.9560 C.2   1 <1>   0.4420 
  3 C       -7.9720     1.0570    -0.2330 C.3   1 <1>   0.0520 
  4 C       -9.7070     2.3820     1.2510 C.3   1 <1>   0.4080 
  5 C       -8.5090    -0.3540     0.0630 C.3   1 <1>  -0.2480 
  6 C       -6.4570     0.9400    -0.4940 C.3   1 <1>  -0.2480 
  7 C       -8.6260     1.5820    -1.5250 C.3   1 <1>  -0.2480 
  8 N      -10.0820     3.7360     0.7310 N.pl3 1 <1>  -0.7680 
  9 C       -9.4430     4.8990     0.9210 C.cat 1 <1>   1.0690 
 10 C      -11.2180     4.0100    -0.0300 C.ar  1 <1>   0.3020 
 11 N      -10.1050     5.8800     0.3440 N.pl3 1 <1>  -0.7040 
 12 N       -8.3020     5.0680     1.5780 N.pl3 1 <1>  -0.7190 
 13 C      -11.2210     5.3700    -0.2780 C.ar  1 <1>   0.3020 
 14 C      -12.2360     3.2050    -0.5330 C.ar  1 <1>  -0.1180 
 15 C       -7.6600     6.3430     2.0050 C.3   1 <1>   0.1590 
 16 C      -12.2210     5.9670    -1.0340 C.ar  1 <1>  -0.1180 
 17 C      -13.2370     3.7920    -1.2840 C.ar  1 <1>  -0.1590 
 18 C       -6.9710     7.0910     0.8510 C.3   1 <1>   0.1110 
 19 C      -13.2290     5.1660    -1.5350 C.ar  1 <1>  -0.1590 
 20 O       -7.9110     7.5120    -0.0870 O.3   1 <1>  -0.6850 
 21 H       -9.8440     2.3770     2.3190 H     1 <1>   0.0710 
 22 H      -10.3640     1.6390     0.8420 H     1 <1>   0.0710 
 23 H       -9.5780    -0.3610     0.1710 H     1 <1>   0.0710 
 24 H       -8.0690    -0.7390     0.9670 H     1 <1>   0.0710 
 25 H       -8.2570    -1.0260    -0.7400 H     1 <1>   0.0710 
 26 H       -5.9530     0.5500     0.3740 H     1 <1>   0.0710 
 27 H       -6.0360     1.9040    -0.7200 H     1 <1>   0.0710 
 28 H       -6.2580     0.2820    -1.3210 H     1 <1>   0.0710 
 29 H       -9.6980     1.5930    -1.4510 H     1 <1>   0.0710 
 30 H       -8.3640     0.9530    -2.3590 H     1 <1>   0.0710 
 31 H       -8.2850     2.5800    -1.7410 H     1 <1>   0.0710 
 32 H       -9.6470     6.7910     0.2070 H     1 <1>   0.4440 
 33 H       -7.7720     4.2160     1.8200 H     1 <1>   0.4440 
 34 H      -12.2480     2.1470    -0.3460 H     1 <1>   0.1410 
 35 H       -6.9230     6.1170     2.7570 H     1 <1>   0.0710 
 36 H       -8.3940     6.9880     2.4570 H     1 <1>   0.0710 
 37 H      -12.2040     7.0260    -1.2200 H     1 <1>   0.1410 
 38 H      -14.0360     3.1900    -1.6860 H     1 <1>   0.1410 
 39 H       -6.2510     6.4570     0.3600 H     1 <1>   0.0710 
 40 H       -6.4690     7.9650     1.2290 H     1 <1>   0.0710 
 41 H      -14.0210     5.5990    -2.1250 H     1 <1>   0.1410 
 42 H       -7.4660     8.0380    -0.7880 H     1 <1>   0.3930 
@<TRIPOS>BOND
  1   1   2  2   
  2   2   3  1   
  3   2   4  1   
  4   3   5  1   
  5   3   6  1   
  6   3   7  1   
  7   4   8  1   
  8   4  21  1   
  9   4  22  1   
 10   5  23  1   
 11   5  24  1   
 12   5  25  1   
 13   6  26  1   
 14   6  27  1   
 15   6  28  1   
 16   7  29  1   
 17   7  30  1   
 18   7  31  1   
 19   8   9  ar  
 20   8  10  1   
 21   9  11  ar  
 22   9  12  ar  
 23  10  13  ar  
 24  10  14  ar  
 25  11  13  1   
 26  11  32  1   
 27  12  15  1   
 28  12  33  1   
 29  13  16  ar  
 30  14  17  ar  
 31  14  34  1   
 32  15  18  1   
 33  15  35  1   
 34  15  36  1   
 35  16  19  ar  
 36  16  37  1   
 37  17  19  ar  
 38  17  38  1   
 39  18  20  1   
 40  18  39  1   
 41  18  40  1   
 42  19  41  1   
 43  20  42  1   
@<TRIPOS>SUBSTRUCTURE
  1 ****   8 GROUP 4 **** **** 0

# MOE 2024.06 (io_trps.svl 2023.06)
