@<TRIPOS>MOLECULE
NONAME
34 35 1 0 0 
SMALL
USER_CHARGES


@<TRIPOS>ATOM
  1 CL      -0.4590     1.0190     1.6740 Cl    1 <1>  -0.1770 
  2 C       -1.7800     1.6050     0.6920 C.ar  1 <1>   0.1770 
  3 C       -1.7280     2.8480     0.0560 C.ar  1 <1>   0.0860 
  4 C       -2.8840     0.7820     0.5870 C.ar  1 <1>  -0.1500 
  5 C       -0.6030     3.7610     0.1370 C.2   1 <1>   0.5440 
  6 C       -2.8500     3.2150    -0.6900 C.ar  1 <1>  -0.1500 
  7 C       -3.9760     1.1860    -0.1600 C.ar  1 <1>  -0.1500 
  8 O       -0.7810     4.9590     0.1420 O.2   1 <1>  -0.5700 
  9 N        0.6850     3.3540     0.1790 N.am  1 <1>  -0.8000 
 10 C       -3.9770     2.4120    -0.8140 C.ar  1 <1>  -0.0090 
 11 S       -5.4260     2.9550    -1.7680 S.o2  1 <1>   1.4470 
 12 O       -6.0490     1.7890    -2.3570 O.2   1 <1>  -0.6500 
 13 O       -5.0750     4.0760    -2.6130 O.2   1 <1>  -0.6500 
 14 N       -6.4710     3.5440    -0.5700 N.am  1 <1>  -0.8490 
 15 C       -7.8470     3.6370    -1.0670 C.3   1 <1>   0.1960 
 16 C       -6.0230     4.8340    -0.0300 C.3   1 <1>   0.1960 
 17 C       -8.8010     4.0220     0.0690 C.3   1 <1>  -0.1600 
 18 C       -6.9050     5.2500     1.1520 C.3   1 <1>  -0.1600 
 19 C       -8.3790     5.3330     0.7420 C.3   1 <1>  -0.1600 
 20 H       -2.8920    -0.1690     1.0910 H     1 <1>   0.1500 
 21 H       -2.8370     4.1700    -1.1920 H     1 <1>   0.1500 
 22 H       -4.8410     0.5460    -0.2380 H     1 <1>   0.1500 
 23 H        1.4190     4.0580     0.2630 H     1 <1>   0.3700 
 24 H        0.9630     2.3830     0.3260 H     1 <1>   0.3700 
 25 H       -8.1580     2.6860    -1.4660 H     1 <1>   0.0800 
 26 H       -7.9010     4.3660    -1.8600 H     1 <1>   0.0800 
 27 H       -6.0630     5.5900    -0.7970 H     1 <1>   0.0800 
 28 H       -5.0050     4.7560     0.3110 H     1 <1>   0.0800 
 29 H       -8.8090     3.2270     0.7950 H     1 <1>   0.0800 
 30 H       -9.7990     4.1190    -0.3210 H     1 <1>   0.0800 
 31 H       -6.5780     6.2050     1.5220 H     1 <1>   0.0800 
 32 H       -6.7860     4.5310     1.9440 H     1 <1>   0.0800 
 33 H       -8.9940     5.5190     1.6060 H     1 <1>   0.0800 
 34 H       -8.5140     6.1480     0.0510 H     1 <1>   0.0800 
@<TRIPOS>BOND
  1   1   2  1   
  2   2   3  ar  
  3   2   4  ar  
  4   3   5  1   
  5   3   6  ar  
  6   4   7  ar  
  7   4  20  1   
  8   5   8  2   
  9   5   9  am  
 10   6  10  ar  
 11   6  21  1   
 12   7  10  ar  
 13   7  22  1   
 14   9  23  1   
 15   9  24  1   
 16  10  11  1   
 17  11  12  2   
 18  11  13  2   
 19  11  14  am  
 20  14  15  1   
 21  14  16  1   
 22  15  17  1   
 23  15  25  1   
 24  15  26  1   
 25  16  18  1   
 26  16  27  1   
 27  16  28  1   
 28  17  19  1   
 29  17  29  1   
 30  17  30  1   
 31  18  19  1   
 32  18  31  1   
 33  18  32  1   
 34  19  33  1   
 35  19  34  1   
@<TRIPOS>SUBSTRUCTURE
  1 ****  10 GROUP 4 **** **** 0

# MOE 2024.06 (io_trps.svl 2023.06)
