@<TRIPOS>MOLECULE
NONAME
37 38 1 0 0 
SMALL
USER_CHARGES


@<TRIPOS>ATOM
  1 O       -5.3550     3.2830    -0.1750 O.3   1 <1>  -0.3630 
  2 C       -6.4540     2.4930    -0.2810 C.ar  1 <1>   0.0830 
  3 C       -4.1590     2.6670     0.2670 C.3   1 <1>   0.2000 
  4 C       -6.3380     1.1010    -0.2870 C.ar  1 <1>   0.0830 
  5 C       -7.7010     3.0840    -0.3800 C.ar  1 <1>  -0.1500 
  6 C       -2.9860     3.6460     0.0170 C.3   1 <1>   0.4230 
  7 C       -3.9970     1.3190    -0.4620 C.3   1 <1>   0.1200 
  8 O       -5.1210     0.5040    -0.2160 O.3   1 <1>  -0.3630 
  9 C       -7.4710     0.3130    -0.3710 C.ar  1 <1>  -0.1500 
 10 C       -8.8330     2.2900    -0.4700 C.ar  1 <1>  -0.1500 
 11 N       -1.6840     3.0950     0.4910 N.4   1 <1>  -0.9060 
 12 C       -3.2050     4.9890     0.7230 C.3   1 <1>  -0.2400 
 13 C       -8.7190     0.9080    -0.4630 C.ar  1 <1>  -0.1500 
 14 C       -0.5040     3.7890    -0.0460 C.3   1 <1>   0.4810 
 15 C        0.6650     2.9300     0.3520 C.2   1 <1>  -0.2880 
 16 C        1.3450     2.1340    -0.4780 C.2   1 <1>  -0.2880 
 17 C        2.5280     1.2750    -0.0660 C.3   1 <1>  -0.1020 
 18 H       -4.2680     2.4940     1.3230 H     1 <1>   0.0800 
 19 H       -7.7870     4.1550    -0.3830 H     1 <1>   0.1500 
 20 H       -2.9290     3.8130    -1.0480 H     1 <1>   0.0800 
 21 H       -3.1350     0.7790    -0.1160 H     1 <1>   0.0800 
 22 H       -3.9230     1.4640    -1.5260 H     1 <1>   0.0800 
 23 H       -7.3760    -0.7580    -0.3680 H     1 <1>   0.1500 
 24 H       -9.8050     2.7470    -0.5450 H     1 <1>   0.1500 
 25 H       -1.6380     3.1240     1.5150 H     1 <1>   0.4500 
 26 H       -1.5660     2.1120     0.2210 H     1 <1>   0.4500 
 27 H       -3.2900     4.8590     1.7870 H     1 <1>   0.0800 
 28 H       -4.1210     5.4370     0.3770 H     1 <1>   0.0800 
 29 H       -2.4180     5.6880     0.5060 H     1 <1>   0.0800 
 30 H       -9.6020     0.2960    -0.5310 H     1 <1>   0.1500 
 31 H       -0.5620     3.8490    -1.1210 H     1 <1>   0.0800 
 32 H       -0.4070     4.7840     0.3610 H     1 <1>   0.0800 
 33 H        0.9170     3.0190     1.3970 H     1 <1>   0.1500 
 34 H        1.1210     2.0310    -1.5300 H     1 <1>   0.1500 
 35 H        3.4020     1.5590    -0.6250 H     1 <1>   0.0800 
 36 H        2.3200     0.2370    -0.2600 H     1 <1>   0.0800 
 37 H        2.7440     1.3900     0.9820 H     1 <1>   0.0800 
@<TRIPOS>BOND
  1   1   2  1   
  2   1   3  1   
  3   2   4  ar  
  4   2   5  ar  
  5   3   6  1   
  6   3   7  1   
  7   3  18  1   
  8   4   8  1   
  9   4   9  ar  
 10   5  10  ar  
 11   5  19  1   
 12   6  11  1   
 13   6  12  1   
 14   6  20  1   
 15   7   8  1   
 16   7  21  1   
 17   7  22  1   
 18   9  13  ar  
 19   9  23  1   
 20  10  13  ar  
 21  10  24  1   
 22  11  14  1   
 23  11  25  1   
 24  11  26  1   
 25  12  27  1   
 26  12  28  1   
 27  12  29  1   
 28  13  30  1   
 29  14  15  1   
 30  14  31  1   
 31  14  32  1   
 32  15  16  2   
 33  15  33  1   
 34  16  17  1   
 35  16  34  1   
 36  17  35  1   
 37  17  36  1   
 38  17  37  1   
@<TRIPOS>SUBSTRUCTURE
  1 ****   3 GROUP 4 **** **** 0

# MOE 2024.06 (io_trps.svl 2023.06)
