@<TRIPOS>MOLECULE
NONAME
41 42 1 0 0 
SMALL
USER_CHARGES


@<TRIPOS>ATOM
  1 CL       0.9640    -0.9080    -0.2480 Cl    1 <1>  -0.1770 
  2 C       -0.2780     0.3210    -0.1340 C.ar  1 <1>   0.1770 
  3 C        0.0100     1.6520    -0.4170 C.ar  1 <1>   0.0820 
  4 C       -1.5530    -0.0610     0.2390 C.ar  1 <1>  -0.1500 
  5 O        1.2470     2.0490    -0.7890 O.3   1 <1>  -0.3630 
  6 C       -0.9990     2.5990    -0.3350 C.ar  1 <1>  -0.1500 
  7 C       -2.5540     0.8940     0.3270 C.ar  1 <1>  -0.1500 
  8 C        2.1710     2.2620     0.2570 C.3   1 <1>   0.1200 
  9 C       -2.2810     2.2240     0.0400 C.ar  1 <1>  -0.1440 
 10 C        3.5080     2.6680    -0.3480 C.3   1 <1>   0.1200 
 11 C       -3.3880     3.2590     0.1330 C.3   1 <1>  -0.0960 
 12 O        4.4060     2.9330     0.7030 O.3   1 <1>  -0.3630 
 13 C        5.6650     3.2680     0.3110 C.ar  1 <1>   0.0830 
 14 C        6.0030     4.6130     0.1530 C.ar  1 <1>   0.0830 
 15 C        6.6100     2.2660     0.0870 C.ar  1 <1>   0.0830 
 16 O        5.0360     5.5510     0.3750 O.3   1 <1>  -0.3630 
 17 C        7.3000     4.9470    -0.2290 C.ar  1 <1>  -0.1500 
 18 O        6.2220     0.9670     0.2490 O.3   1 <1>  -0.3630 
 19 C        7.9010     2.6220    -0.2940 C.ar  1 <1>  -0.1500 
 20 C        5.3360     6.9290     0.3890 C.3   1 <1>   0.0400 
 21 C        8.2390     3.9550    -0.4490 C.ar  1 <1>  -0.1500 
 22 C        7.1370    -0.0980     0.1350 C.3   1 <1>   0.0400 
 23 H       -1.7570    -1.0940     0.4550 H     1 <1>   0.1500 
 24 H       -0.7700     3.6230    -0.5680 H     1 <1>   0.1500 
 25 H       -3.5470     0.5970     0.6160 H     1 <1>   0.1500 
 26 H        2.2770     1.3490     0.8160 H     1 <1>   0.0800 
 27 H        1.7910     3.0460     0.8880 H     1 <1>   0.0800 
 28 H        3.4050     3.5640    -0.9350 H     1 <1>   0.0800 
 29 H        3.9110     1.8680    -0.9450 H     1 <1>   0.0800 
 30 H       -2.9780     4.2520     0.1900 H     1 <1>   0.0800 
 31 H       -3.9840     3.0880     1.0110 H     1 <1>   0.0800 
 32 H       -4.0200     3.1950    -0.7340 H     1 <1>   0.0800 
 33 H        7.5970     5.9690    -0.3620 H     1 <1>   0.1500 
 34 H        8.6540     1.8800    -0.4750 H     1 <1>   0.1500 
 35 H        4.4390     7.4610     0.6480 H     1 <1>   0.0800 
 36 H        5.6660     7.2240    -0.5910 H     1 <1>   0.0800 
 37 H        6.0960     7.1130     1.1270 H     1 <1>   0.0800 
 38 H        9.2400     4.2220    -0.7440 H     1 <1>   0.1500 
 39 H        6.6100    -1.0120     0.3420 H     1 <1>   0.0800 
 40 H        7.9250     0.0400     0.8540 H     1 <1>   0.0800 
 41 H        7.5250    -0.1200    -0.8680 H     1 <1>   0.0800 
@<TRIPOS>BOND
  1   1   2  1   
  2   2   3  ar  
  3   2   4  ar  
  4   3   5  1   
  5   3   6  ar  
  6   4   7  ar  
  7   4  23  1   
  8   5   8  1   
  9   6   9  ar  
 10   6  24  1   
 11   7   9  ar  
 12   7  25  1   
 13   8  10  1   
 14   8  26  1   
 15   8  27  1   
 16   9  11  1   
 17  10  12  1   
 18  10  28  1   
 19  10  29  1   
 20  11  30  1   
 21  11  31  1   
 22  11  32  1   
 23  12  13  1   
 24  13  14  ar  
 25  13  15  ar  
 26  14  16  1   
 27  14  17  ar  
 28  15  18  1   
 29  15  19  ar  
 30  16  20  1   
 31  17  21  ar  
 32  17  33  1   
 33  18  22  1   
 34  19  21  ar  
 35  19  34  1   
 36  20  35  1   
 37  20  36  1   
 38  20  37  1   
 39  21  38  1   
 40  22  39  1   
 41  22  40  1   
 42  22  41  1   
@<TRIPOS>SUBSTRUCTURE
  1 ****  10 GROUP 4 **** **** 0

# MOE 2024.06 (io_trps.svl 2023.06)
