@<TRIPOS>MOLECULE
NONAME
38 39 1 0 0 
SMALL
USER_CHARGES


@<TRIPOS>ATOM
  1 O       -8.2610     4.0620     0.1840 O.3   1 <1>  -0.3630 
  2 C       -8.7620     2.8050     0.0360 C.ar  1 <1>   0.0830 
  3 C       -9.0730     5.1080     0.6800 C.3   1 <1>   0.1200 
  4 C       -7.9880     1.8790    -0.6590 C.ar  1 <1>  -0.1440 
  5 C       -9.9940     2.4150     0.5550 C.ar  1 <1>  -0.1500 
  6 C       -8.2650     6.4010     0.6500 C.3   1 <1>  -0.2400 
  7 C       -8.4450     0.5810    -0.8270 C.ar  1 <1>  -0.1500 
  8 C       -6.6510     2.2840    -1.2360 C.3   1 <1>   0.4860 
  9 C      -10.4420     1.1180     0.3830 C.ar  1 <1>  -0.1500 
 10 C       -9.6690     0.2010    -0.3060 C.ar  1 <1>  -0.1500 
 11 N       -5.7940     2.6780    -0.1040 N.4   1 <1>  -0.9060 
 12 C       -4.4040     3.0290    -0.4350 C.3   1 <1>   0.4230 
 13 C       -3.6890     3.3590     0.8680 C.3   1 <1>  -0.1600 
 14 C       -4.3590     4.3550    -1.1890 C.3   1 <1>  -0.1600 
 15 C       -4.0920     4.7990     1.2080 C.3   1 <1>  -0.1600 
 16 C       -4.4790     5.4520    -0.1240 C.3   1 <1>  -0.1600 
 17 H       -9.3640     4.8720     1.6890 H     1 <1>   0.0800 
 18 H       -9.9440     5.1910     0.0520 H     1 <1>   0.0800 
 19 H      -10.6230     3.0960     1.0970 H     1 <1>   0.1500 
 20 H       -7.4160     6.3290     1.3050 H     1 <1>   0.0800 
 21 H       -8.8810     7.2150     0.9890 H     1 <1>   0.0800 
 22 H       -7.9410     6.6180    -0.3520 H     1 <1>   0.0800 
 23 H       -7.8640    -0.1510    -1.3640 H     1 <1>   0.1500 
 24 H       -6.7880     3.1120    -1.9120 H     1 <1>   0.0800 
 25 H       -6.2130     1.4580    -1.7720 H     1 <1>   0.0800 
 26 H      -11.3960     0.8190     0.7850 H     1 <1>   0.1500 
 27 H      -10.0250    -0.8070    -0.4380 H     1 <1>   0.1500 
 28 H       -5.8270     1.9350     0.5980 H     1 <1>   0.4500 
 29 H       -6.2590     3.4910     0.3260 H     1 <1>   0.4500 
 30 H       -3.9180     2.2290    -0.9720 H     1 <1>   0.0800 
 31 H       -2.6270     3.3350     0.6860 H     1 <1>   0.0800 
 32 H       -3.9070     2.6670     1.6630 H     1 <1>   0.0800 
 33 H       -5.1010     4.4480    -1.9610 H     1 <1>   0.0800 
 34 H       -3.3900     4.4410    -1.6520 H     1 <1>   0.0800 
 35 H       -3.2790     5.3250     1.6810 H     1 <1>   0.0800 
 36 H       -4.9360     4.8050     1.8780 H     1 <1>   0.0800 
 37 H       -5.4890     5.8200    -0.0770 H     1 <1>   0.0800 
 38 H       -3.8280     6.2790    -0.3550 H     1 <1>   0.0800 
@<TRIPOS>BOND
  1   1   2  1   
  2   1   3  1   
  3   2   4  ar  
  4   2   5  ar  
  5   3   6  1   
  6   3  17  1   
  7   3  18  1   
  8   4   7  ar  
  9   4   8  1   
 10   5   9  ar  
 11   5  19  1   
 12   6  20  1   
 13   6  21  1   
 14   6  22  1   
 15   7  10  ar  
 16   7  23  1   
 17   8  11  1   
 18   8  24  1   
 19   8  25  1   
 20   9  10  ar  
 21   9  26  1   
 22  10  27  1   
 23  11  12  1   
 24  11  28  1   
 25  11  29  1   
 26  12  13  1   
 27  12  14  1   
 28  12  30  1   
 29  13  15  1   
 30  13  31  1   
 31  13  32  1   
 32  14  16  1   
 33  14  33  1   
 34  14  34  1   
 35  15  16  1   
 36  15  35  1   
 37  15  36  1   
 38  16  37  1   
 39  16  38  1   
@<TRIPOS>SUBSTRUCTURE
  1 ****  11 GROUP 4 **** **** 0

# MOE 2024.06 (io_trps.svl 2023.06)
