@<TRIPOS>MOLECULE
NONAME
38 39 1 0 0 
SMALL
USER_CHARGES


@<TRIPOS>ATOM
  1 O       -0.8000    -1.7150     1.6640 O.3   1 <1>  -0.6800 
  2 C       -0.6330    -1.7070     0.2900 C.3   1 <1>   0.4240 
  3 C        0.8810    -1.5500     0.0280 C.ar  1 <1>  -0.1440 
  4 C       -1.2340    -3.0340    -0.2830 C.3   1 <1>   0.0000 
  5 C       -1.4490    -0.4870    -0.1720 C.3   1 <1>  -0.1600 
  6 C        1.3640    -0.8580    -1.0810 C.ar  1 <1>  -0.1500 
  7 C        1.8170    -2.1090     0.8990 C.ar  1 <1>  -0.1500 
  8 C       -2.7240    -3.0820     0.1090 C.3   1 <1>   0.3430 
  9 C       -1.0900    -3.1380    -1.8220 C.3   1 <1>  -0.2400 
 10 C       -0.5580    -4.2960     0.3040 C.3   1 <1>  -0.2400 
 11 C       -2.9210    -0.6320     0.2050 C.3   1 <1>   0.3430 
 12 C        2.7230    -0.7170    -1.3010 C.ar  1 <1>  -0.1500 
 13 C        3.1750    -1.9680     0.6800 C.ar  1 <1>  -0.1500 
 14 N       -3.4780    -1.8840    -0.3860 N.4   1 <1>  -0.9590 
 15 C        3.6310    -1.2700    -0.4200 C.ar  1 <1>  -0.1500 
 16 C       -4.9310    -2.0140    -0.0700 C.3   1 <1>   0.2630 
 17 H       -0.0240    -1.2620     2.0540 H     1 <1>   0.4000 
 18 H       -1.0490     0.4010     0.2860 H     1 <1>   0.0800 
 19 H       -1.3840    -0.3480    -1.2330 H     1 <1>   0.0800 
 20 H        0.7040    -0.4170    -1.8030 H     1 <1>   0.1500 
 21 H        1.5060    -2.6750     1.7600 H     1 <1>   0.1500 
 22 H       -3.1630    -3.9810    -0.2920 H     1 <1>   0.0800 
 23 H       -2.7940    -3.1280     1.1850 H     1 <1>   0.0800 
 24 H       -1.5460    -2.3160    -2.3390 H     1 <1>   0.0800 
 25 H       -1.5400    -4.0470    -2.1830 H     1 <1>   0.0800 
 26 H       -0.0490    -3.1630    -2.0980 H     1 <1>   0.0800 
 27 H       -1.0360    -5.1910    -0.0550 H     1 <1>   0.0800 
 28 H       -0.6070    -4.3020     1.3790 H     1 <1>   0.0800 
 29 H        0.4780    -4.3440     0.0160 H     1 <1>   0.0800 
 30 H       -3.4710     0.2240    -0.1500 H     1 <1>   0.0800 
 31 H       -3.0070    -0.6690     1.2800 H     1 <1>   0.0800 
 32 H        3.0770    -0.1770    -2.1630 H     1 <1>   0.1500 
 33 H        3.8800    -2.4060     1.3660 H     1 <1>   0.1500 
 34 H       -3.3600    -1.8430    -1.4080 H     1 <1>   0.4500 
 35 H        4.6880    -1.1590    -0.5920 H     1 <1>   0.1500 
 36 H       -5.0780    -2.0670     0.9970 H     1 <1>   0.0800 
 37 H       -5.3330    -2.9090    -0.5180 H     1 <1>   0.0800 
 38 H       -5.4750    -1.1650    -0.4510 H     1 <1>   0.0800 
@<TRIPOS>BOND
  1   1   2  1   
  2   1  17  1   
  3   2   3  1   
  4   2   4  1   
  5   2   5  1   
  6   3   6  ar  
  7   3   7  ar  
  8   4   8  1   
  9   4   9  1   
 10   4  10  1   
 11   5  11  1   
 12   5  18  1   
 13   5  19  1   
 14   6  12  ar  
 15   6  20  1   
 16   7  13  ar  
 17   7  21  1   
 18   8  14  1   
 19   8  22  1   
 20   8  23  1   
 21   9  24  1   
 22   9  25  1   
 23   9  26  1   
 24  10  27  1   
 25  10  28  1   
 26  10  29  1   
 27  11  14  1   
 28  11  30  1   
 29  11  31  1   
 30  12  15  ar  
 31  12  32  1   
 32  13  15  ar  
 33  13  33  1   
 34  14  16  1   
 35  14  34  1   
 36  15  35  1   
 37  16  36  1   
 38  16  37  1   
 39  16  38  1   
@<TRIPOS>SUBSTRUCTURE
  1 ****   2 GROUP 4 **** **** 0

# MOE 2024.06 (io_trps.svl 2023.06)
