@<TRIPOS>MOLECULE
NONAME
52 53 1 0 0 
SMALL
USER_CHARGES


@<TRIPOS>ATOM
  1 O      -10.7730    -5.2560    -1.6380 O.2   1 <1>  -0.5700 
  2 C      -10.8070    -4.1650    -1.1290 C.2   1 <1>   0.5690 
  3 N      -11.9750    -3.4830    -1.0450 N.am  1 <1>  -0.5470 
  4 C       -9.5280    -3.5400    -0.5840 C.3   1 <1>  -0.0990 
  5 C      -12.1850    -2.2140    -0.4910 C.ar  1 <1>   0.1170 
  6 C       -8.3620    -4.5380    -0.4530 C.3   1 <1>  -0.1600 
  7 C      -12.0420    -1.0710    -1.2770 C.ar  1 <1>  -0.1430 
  8 C      -12.5210    -2.0870     0.8580 C.ar  1 <1>  -0.1430 
  9 C       -7.1020    -3.8510     0.0690 C.3   1 <1>   0.3430 
 10 C      -12.2060     0.1790    -0.7060 C.ar  1 <1>  -0.1500 
 11 C      -11.7150    -1.1670    -2.7630 C.3   1 <1>  -0.0970 
 12 C      -12.6810    -0.8270     1.4090 C.ar  1 <1>  -0.1500 
 13 C      -12.7210    -3.3130     1.7420 C.3   1 <1>  -0.0970 
 14 N       -6.0360    -4.8500     0.3410 N.4   1 <1>  -0.9590 
 15 C      -12.5230     0.3090     0.6350 C.ar  1 <1>  -0.1430 
 16 C       -4.8780    -4.2760     1.1040 C.3   1 <1>   0.3430 
 17 C       -5.5430    -5.6060    -0.8630 C.3   1 <1>   0.3430 
 18 C      -12.6990     1.6860     1.2500 C.3   1 <1>  -0.0970 
 19 C       -3.8460    -5.3700     1.4750 C.3   1 <1>   0.1100 
 20 C       -4.5110    -6.6890    -0.4620 C.3   1 <1>   0.1100 
 21 N       -4.2530    -6.7110     0.9960 N.3   1 <1>  -0.8100 
 22 C       -3.2580    -7.7320     1.3500 C.3   1 <1>   0.0300 
 23 H      -12.7860    -3.9650    -1.4330 H     1 <1>   0.3700 
 24 H       -9.7420    -3.1150     0.3800 H     1 <1>   0.0800 
 25 H       -9.2490    -2.7390    -1.2440 H     1 <1>   0.0800 
 26 H       -8.1750    -4.9670    -1.4220 H     1 <1>   0.0800 
 27 H       -8.6590    -5.3240     0.2210 H     1 <1>   0.0800 
 28 H       -7.3430    -3.3300     0.9820 H     1 <1>   0.0800 
 29 H       -6.7550    -3.1270    -0.6510 H     1 <1>   0.0800 
 30 H      -12.0890     1.0640    -1.3060 H     1 <1>   0.1500 
 31 H      -11.7400    -0.1990    -3.2290 H     1 <1>   0.0800 
 32 H      -10.7370    -1.5870    -2.9040 H     1 <1>   0.0800 
 33 H      -12.4360    -1.7940    -3.2580 H     1 <1>   0.0800 
 34 H      -12.9350    -0.7230     2.4490 H     1 <1>   0.1500 
 35 H      -11.8070    -3.8730     1.8150 H     1 <1>   0.0800 
 36 H      -13.4840    -3.9450     1.3230 H     1 <1>   0.0800 
 37 H      -13.0270    -3.0300     2.7330 H     1 <1>   0.0800 
 38 H       -6.3920    -5.5940     0.9620 H     1 <1>   0.4500 
 39 H       -5.2310    -3.8120     2.0110 H     1 <1>   0.0800 
 40 H       -4.3900    -3.5160     0.5170 H     1 <1>   0.0800 
 41 H       -5.0900    -4.9260    -1.5650 H     1 <1>   0.0800 
 42 H       -6.3690    -6.0880    -1.3590 H     1 <1>   0.0800 
 43 H      -11.7580     2.0370     1.6320 H     1 <1>   0.0800 
 44 H      -13.4100     1.6500     2.0560 H     1 <1>   0.0800 
 45 H      -13.0580     2.3840     0.5150 H     1 <1>   0.0800 
 46 H       -3.7350    -5.3950     2.5460 H     1 <1>   0.0800 
 47 H       -2.8880    -5.1070     1.0580 H     1 <1>   0.0800 
 48 H       -3.5920    -6.5150    -0.9960 H     1 <1>   0.0800 
 49 H       -4.8840    -7.6520    -0.7700 H     1 <1>   0.0800 
 50 H       -3.1220    -7.7600     2.4180 H     1 <1>   0.0800 
 51 H       -2.3110    -7.5230     0.8820 H     1 <1>   0.0800 
 52 H       -3.5980    -8.7030     1.0310 H     1 <1>   0.0800 
@<TRIPOS>BOND
  1   1   2  2   
  2   2   3  am  
  3   2   4  1   
  4   3   5  1   
  5   3  23  1   
  6   4   6  1   
  7   4  24  1   
  8   4  25  1   
  9   5   7  ar  
 10   5   8  ar  
 11   6   9  1   
 12   6  26  1   
 13   6  27  1   
 14   7  10  ar  
 15   7  11  1   
 16   8  12  ar  
 17   8  13  1   
 18   9  14  1   
 19   9  28  1   
 20   9  29  1   
 21  10  15  ar  
 22  10  30  1   
 23  11  31  1   
 24  11  32  1   
 25  11  33  1   
 26  12  15  ar  
 27  12  34  1   
 28  13  35  1   
 29  13  36  1   
 30  13  37  1   
 31  14  16  1   
 32  14  17  1   
 33  14  38  1   
 34  15  18  1   
 35  16  19  1   
 36  16  39  1   
 37  16  40  1   
 38  17  20  1   
 39  17  41  1   
 40  17  42  1   
 41  18  43  1   
 42  18  44  1   
 43  18  45  1   
 44  19  21  1   
 45  19  46  1   
 46  19  47  1   
 47  20  21  1   
 48  20  48  1   
 49  20  49  1   
 50  21  22  1   
 51  22  50  1   
 52  22  51  1   
 53  22  52  1   
@<TRIPOS>SUBSTRUCTURE
  1 ****   4 GROUP 4 **** **** 0

# MOE 2024.06 (io_trps.svl 2023.06)
