@<TRIPOS>MOLECULE
NONAME
44 46 1 0 0 
SMALL
USER_CHARGES


@<TRIPOS>ATOM
  1 CL      -1.1880     1.5900    -3.1970 Cl    1 <1>  -0.1770 
  2 C       -1.7920     1.8320    -1.5780 C.ar  1 <1>   0.1770 
  3 C       -3.1210     1.5750    -1.3060 C.ar  1 <1>  -0.1500 
  4 C       -0.9270     2.2760    -0.5960 C.ar  1 <1>  -0.1500 
  5 C       -3.6170     1.7660    -0.0210 C.ar  1 <1>   0.1170 
  6 C       -1.4090     2.4680     0.6870 C.ar  1 <1>  -0.1500 
  7 N       -4.9760     1.5080     0.2730 N.am  1 <1>  -0.2370 
  8 C       -2.7420     2.2140     0.9670 C.ar  1 <1>  -0.1500 
  9 C       -5.8160     2.3490     0.9560 C.2   1 <1>   0.5690 
 10 C       -5.6510     0.3670    -0.0680 C.2   1 <1>   0.5690 
 11 O       -5.4900     3.3720     1.5070 O.2   1 <1>  -0.5700 
 12 C       -7.2450     1.7860     0.9910 C.3   1 <1>   0.2510 
 13 O       -5.2090    -0.5650    -0.6890 O.2   1 <1>  -0.5700 
 14 C       -7.0740     0.3720     0.4290 C.3   1 <1>  -0.0990 
 15 N       -8.2160     2.5500     0.1750 N.3   1 <1>  -0.9000 
 16 C       -9.6150     2.1880     0.4200 C.3   1 <1>   0.1100 
 17 C      -10.5320     3.1200    -0.3730 C.3   1 <1>  -0.0220 
 18 C      -12.0220     2.8160    -0.2100 C.2   1 <1>  -0.2760 
 19 C      -12.5430     1.8220     0.5230 C.2   1 <1>  -0.2880 
 20 C      -12.9000     3.7950    -0.9860 C.3   1 <1>  -0.0220 
 21 C      -14.0330     1.5640     0.6900 C.3   1 <1>  -0.0220 
 22 C      -14.3470     3.3000    -1.1160 C.3   1 <1>  -0.1600 
 23 C      -14.8680     2.7620     0.2200 C.3   1 <1>  -0.1600 
 24 H       -3.7610     1.2250    -2.0950 H     1 <1>   0.1500 
 25 H        0.1040     2.4680    -0.8360 H     1 <1>   0.1500 
 26 H       -0.7510     2.8170     1.4640 H     1 <1>   0.1500 
 27 H       -3.1050     2.3730     1.9680 H     1 <1>   0.1500 
 28 H       -7.5740     1.7590     2.0160 H     1 <1>   0.0800 
 29 H       -7.1730    -0.3620     1.2070 H     1 <1>   0.0800 
 30 H       -7.7480     0.1480    -0.3770 H     1 <1>   0.0800 
 31 H       -7.9990     2.4690    -0.8270 H     1 <1>   0.3600 
 32 H       -9.8370     2.2880     1.4700 H     1 <1>   0.0800 
 33 H       -9.7960     1.1690     0.1200 H     1 <1>   0.0800 
 34 H      -10.2800     3.0480    -1.4150 H     1 <1>   0.0800 
 35 H      -10.3490     4.1300    -0.0480 H     1 <1>   0.0800 
 36 H      -11.9550     1.1060     1.0690 H     1 <1>   0.1500 
 37 H      -12.5010     3.9440    -1.9740 H     1 <1>   0.0800 
 38 H      -12.8890     4.7430    -0.4770 H     1 <1>   0.0800 
 39 H      -14.2530     1.3690     1.7250 H     1 <1>   0.0800 
 40 H      -14.2990     0.6900     0.1210 H     1 <1>   0.0800 
 41 H      -14.3850     2.5140    -1.8500 H     1 <1>   0.0800 
 42 H      -14.9730     4.1060    -1.4590 H     1 <1>   0.0800 
 43 H      -14.8100     3.5420     0.9590 H     1 <1>   0.0800 
 44 H      -15.8990     2.4680     0.1250 H     1 <1>   0.0800 
@<TRIPOS>BOND
  1   1   2  1   
  2   2   3  ar  
  3   2   4  ar  
  4   3   5  ar  
  5   3  24  1   
  6   4   6  ar  
  7   4  25  1   
  8   5   7  1   
  9   5   8  ar  
 10   6   8  ar  
 11   6  26  1   
 12   7   9  am  
 13   7  10  am  
 14   8  27  1   
 15   9  11  2   
 16   9  12  1   
 17  10  13  2   
 18  10  14  1   
 19  12  14  1   
 20  12  15  1   
 21  12  28  1   
 22  14  29  1   
 23  14  30  1   
 24  15  16  1   
 25  15  31  1   
 26  16  17  1   
 27  16  32  1   
 28  16  33  1   
 29  17  18  1   
 30  17  34  1   
 31  17  35  1   
 32  18  19  2   
 33  18  20  1   
 34  19  21  1   
 35  19  36  1   
 36  20  22  1   
 37  20  37  1   
 38  20  38  1   
 39  21  23  1   
 40  21  39  1   
 41  21  40  1   
 42  22  23  1   
 43  22  41  1   
 44  22  42  1   
 45  23  43  1   
 46  23  44  1   
@<TRIPOS>SUBSTRUCTURE
  1 ****  12 GROUP 4 **** **** 0

# MOE 2024.06 (io_trps.svl 2023.06)
