@<TRIPOS>MOLECULE
NONAME
45 47 1 0 0 
SMALL
USER_CHARGES


@<TRIPOS>ATOM
  1 F        0.9770    -0.2140    -0.6400 F     1 <1>  -0.1900 
  2 C        2.0050    -0.9400    -0.2810 C.ar  1 <1>   0.1900 
  3 C        3.2390    -0.6710    -0.8400 C.ar  1 <1>  -0.1500 
  4 C        1.8180    -1.9490     0.6430 C.ar  1 <1>  -0.1500 
  5 C        4.3220    -1.4440    -0.4580 C.ar  1 <1>  -0.1500 
  6 C        2.9110    -2.7130     1.0160 C.ar  1 <1>  -0.1500 
  7 C        4.1700    -2.4730     0.4710 C.ar  1 <1>   0.1000 
  8 N        5.2440    -3.2700     0.8620 N.pl3 1 <1>  -0.8380 
  9 C        5.2510    -4.7060     0.4520 C.3   1 <1>   0.2090 
 10 C        6.5670    -2.6590     1.1990 C.3   1 <1>   0.2090 
 11 C        6.3390    -4.9820    -0.6070 C.3   1 <1>   0.3430 
 12 C        7.6340    -2.9900     0.1340 C.3   1 <1>   0.3430 
 13 N        7.6930    -4.4640    -0.1950 N.4   1 <1>  -0.9590 
 14 C        8.7400    -4.7650    -1.2080 C.3   1 <1>   0.4860 
 15 C       10.0850    -4.3500    -0.6450 C.ar  1 <1>  -0.1430 
 16 C       10.6030    -5.0050     0.4640 C.ar  1 <1>  -0.1500 
 17 C       10.8050    -3.3100    -1.2190 C.ar  1 <1>  -0.1500 
 18 C       11.8120    -4.6040     0.9950 C.ar  1 <1>   0.0830 
 19 C       12.0240    -2.9170    -0.6890 C.ar  1 <1>  -0.1500 
 20 O       12.2880    -5.2360     2.0790 O.3   1 <1>  -0.5330 
 21 C       12.5400    -3.5620     0.4310 C.ar  1 <1>   0.0830 
 22 O       13.7270    -3.2380     1.0180 O.3   1 <1>  -0.3630 
 23 C       14.5760    -2.2600     0.4550 C.3   1 <1>   0.0400 
 24 H        3.3400     0.1260    -1.5550 H     1 <1>   0.1500 
 25 H        0.8430    -2.1260     1.0590 H     1 <1>   0.1500 
 26 H        5.2830    -1.2450    -0.8890 H     1 <1>   0.1500 
 27 H        2.7930    -3.4970     1.7410 H     1 <1>   0.1500 
 28 H        4.2890    -4.9720     0.0480 H     1 <1>   0.0800 
 29 H        5.4210    -5.3190     1.3200 H     1 <1>   0.0800 
 30 H        6.8880    -3.0300     2.1570 H     1 <1>   0.0800 
 31 H        6.4630    -1.5910     1.2890 H     1 <1>   0.0800 
 32 H        6.0360    -4.5070    -1.5250 H     1 <1>   0.0800 
 33 H        6.3890    -6.0440    -0.7860 H     1 <1>   0.0800 
 34 H        8.5940    -2.6530     0.4900 H     1 <1>   0.0800 
 35 H        7.4010    -2.4320    -0.7580 H     1 <1>   0.0800 
 36 H        7.9710    -4.9410     0.6710 H     1 <1>   0.4500 
 37 H        8.5410    -4.2290    -2.1220 H     1 <1>   0.0800 
 38 H        8.7570    -5.8210    -1.4250 H     1 <1>   0.0800 
 39 H       10.0940    -5.8280     0.9330 H     1 <1>   0.1500 
 40 H       10.4310    -2.7930    -2.0880 H     1 <1>   0.1500 
 41 H       12.5570    -2.1110    -1.1580 H     1 <1>   0.1500 
 42 H       13.1590    -4.8580     2.3230 H     1 <1>   0.4500 
 43 H       14.0680    -1.3120     0.4550 H     1 <1>   0.0800 
 44 H       14.8400    -2.5570    -0.5450 H     1 <1>   0.0800 
 45 H       15.4620    -2.1970     1.0610 H     1 <1>   0.0800 
@<TRIPOS>BOND
  1   1   2  1   
  2   2   3  ar  
  3   2   4  ar  
  4   3   5  ar  
  5   3  24  1   
  6   4   6  ar  
  7   4  25  1   
  8   5   7  ar  
  9   5  26  1   
 10   6   7  ar  
 11   6  27  1   
 12   7   8  1   
 13   8   9  1   
 14   8  10  1   
 15   9  11  1   
 16   9  28  1   
 17   9  29  1   
 18  10  12  1   
 19  10  30  1   
 20  10  31  1   
 21  11  13  1   
 22  11  32  1   
 23  11  33  1   
 24  12  13  1   
 25  12  34  1   
 26  12  35  1   
 27  13  14  1   
 28  13  36  1   
 29  14  15  1   
 30  14  37  1   
 31  14  38  1   
 32  15  16  ar  
 33  15  17  ar  
 34  16  18  ar  
 35  16  39  1   
 36  17  19  ar  
 37  17  40  1   
 38  18  20  1   
 39  18  21  ar  
 40  19  21  ar  
 41  19  41  1   
 42  20  42  1   
 43  21  22  1   
 44  22  23  1   
 45  23  43  1   
 46  23  44  1   
 47  23  45  1   
@<TRIPOS>SUBSTRUCTURE
  1 ****  12 GROUP 4 **** **** 0

# MOE 2024.06 (io_trps.svl 2023.06)
