@<TRIPOS>MOLECULE
NONAME
53 56 1 0 0 
SMALL
USER_CHARGES


@<TRIPOS>ATOM
  1 O       -0.0290    -0.4800    -1.2510 O.2   1 <1>  -0.5700 
  2 C        0.0020    -1.4380    -0.5160 C.2   1 <1>   0.4950 
  3 C        1.1950    -2.0910    -0.0420 C.2   1 <1>   0.0140 
  4 C       -1.3450    -2.0000    -0.0960 C.3   1 <1>  -0.0990 
  5 C        1.1120    -3.3610     0.4630 C.2   1 <1>  -0.0380 
  6 C        2.5080    -1.4500    -0.1310 C.2   1 <1>   0.0000 
  7 C       -1.3640    -3.5380    -0.1340 C.3   1 <1>   0.0000 
  8 N        2.2410    -4.0970     0.7250 N.pl3 1 <1>  -0.6000 
  9 C       -0.2080    -4.0760     0.7310 C.3   1 <1>  -0.0220 
 10 C        3.6410    -2.3770    -0.1580 C.2   1 <1>   0.0140 
 11 C        2.6670    -0.0770    -0.0590 C.2   1 <1>   0.1000 
 12 C       -1.2130    -4.0330    -1.5850 C.3   1 <1>  -0.2400 
 13 C       -2.7060    -4.0490     0.4130 C.3   1 <1>  -0.2400 
 14 C        3.4730    -3.6580     0.2980 C.2   1 <1>  -0.0380 
 15 C        4.9340    -1.9240    -0.5910 C.2   1 <1>   0.6160 
 16 N        3.7380     0.6000    -0.6990 N.pl3 1 <1>  -0.6000 
 17 C        1.8080     0.7980     0.6910 C.2   1 <1>  -0.1500 
 18 C        4.5580    -4.7240     0.3710 C.3   1 <1>  -0.1020 
 19 O        5.1610    -1.6970    -1.7650 O.2   1 <1>  -0.5700 
 20 N        5.9050    -1.6920     0.3530 N.am  1 <1>  -0.5470 
 21 C        3.9470     1.9680    -0.6040 C.2   1 <1>  -0.0500 
 22 C        2.0050     2.1370     0.7890 C.2   1 <1>  -0.1500 
 23 C        7.2500    -1.3110     0.2120 C.ar  1 <1>   0.1170 
 24 C        3.1100     2.7380     0.1250 C.2   1 <1>  -0.1500 
 25 C        8.0110    -1.5250    -0.9410 C.ar  1 <1>   0.1600 
 26 C        7.8770    -0.6990     1.2840 C.ar  1 <1>  -0.1500 
 27 N        9.2860    -1.1970    -1.0950 N.ar  1 <1>  -0.6200 
 28 C        9.2010    -0.3470     1.1420 C.ar  1 <1>  -0.1500 
 29 C        9.8510    -0.6140    -0.0510 C.ar  1 <1>   0.1600 
 30 H       -2.1080    -1.6090    -0.7460 H     1 <1>   0.0800 
 31 H       -1.5540    -1.6510     0.8990 H     1 <1>   0.0800 
 32 H        2.1520    -5.0490     1.0980 H     1 <1>   0.4000 
 33 H       -0.4420    -3.9520     1.7740 H     1 <1>   0.0800 
 34 H       -0.0970    -5.1310     0.5480 H     1 <1>   0.0800 
 35 H       -0.2700    -3.7320    -2.0080 H     1 <1>   0.0800 
 36 H       -1.9980    -3.6340    -2.2040 H     1 <1>   0.0800 
 37 H       -1.2670    -5.1060    -1.6270 H     1 <1>   0.0800 
 38 H       -2.8600    -3.7170     1.4250 H     1 <1>   0.0800 
 39 H       -2.7340    -5.1250     0.4030 H     1 <1>   0.0800 
 40 H       -3.5220    -3.6860    -0.1870 H     1 <1>   0.0800 
 41 H        4.3030     0.0520    -1.3720 H     1 <1>   0.4000 
 42 H        0.9760     0.3520     1.2010 H     1 <1>   0.1500 
 43 H        4.2340    -5.6050    -0.1540 H     1 <1>   0.0800 
 44 H        4.7470    -4.9840     1.3970 H     1 <1>   0.0800 
 45 H        5.4820    -4.4040    -0.0740 H     1 <1>   0.0800 
 46 H        5.5420    -1.6730     1.3050 H     1 <1>   0.3700 
 47 H        4.7910     2.3720    -1.1380 H     1 <1>   0.1500 
 48 H        1.3470     2.7710     1.3560 H     1 <1>   0.1500 
 49 H        3.2450     3.8010     0.2170 H     1 <1>   0.1500 
 50 H        7.5410    -2.0010    -1.7830 H     1 <1>   0.1500 
 51 H        7.3480    -0.5000     2.1990 H     1 <1>   0.1500 
 52 H        9.7300     0.1330     1.9450 H     1 <1>   0.1500 
 53 H       10.8860    -0.3340    -0.1520 H     1 <1>   0.1500 
@<TRIPOS>BOND
  1   1   2  2   
  2   2   3  1   
  3   2   4  1   
  4   3   5  2   
  5   3   6  1   
  6   4   7  1   
  7   4  30  1   
  8   4  31  1   
  9   5   8  1   
 10   5   9  1   
 11   6  10  1   
 12   6  11  2   
 13   7   9  1   
 14   7  12  1   
 15   7  13  1   
 16   8  14  1   
 17   8  32  1   
 18   9  33  1   
 19   9  34  1   
 20  10  14  2   
 21  10  15  1   
 22  11  16  1   
 23  11  17  1   
 24  12  35  1   
 25  12  36  1   
 26  12  37  1   
 27  13  38  1   
 28  13  39  1   
 29  13  40  1   
 30  14  18  1   
 31  15  19  2   
 32  15  20  am  
 33  16  21  1   
 34  16  41  1   
 35  17  22  2   
 36  17  42  1   
 37  18  43  1   
 38  18  44  1   
 39  18  45  1   
 40  20  23  1   
 41  20  46  1   
 42  21  24  2   
 43  21  47  1   
 44  22  24  1   
 45  22  48  1   
 46  23  25  ar  
 47  23  26  ar  
 48  24  49  1   
 49  25  27  ar  
 50  25  50  1   
 51  26  28  ar  
 52  26  51  1   
 53  27  29  ar  
 54  28  29  ar  
 55  28  52  1   
 56  29  53  1   
@<TRIPOS>SUBSTRUCTURE
  1 ****   6 GROUP 4 **** **** 0

# MOE 2024.06 (io_trps.svl 2023.06)
