@<TRIPOS>MOLECULE
NONAME
45 46 1 0 0 
SMALL
USER_CHARGES


@<TRIPOS>ATOM
  1 O       -5.9380    -1.9200     0.1250 O.3   1 <1>  -0.3620 
  2 C       -7.2930    -1.8640     0.0880 C.ar  1 <1>   0.0830 
  3 C       -5.2630    -3.1260     0.4120 C.3   1 <1>   0.1200 
  4 C       -7.8610    -0.6250    -0.1580 C.ar  1 <1>  -0.1500 
  5 C       -8.1200    -2.9650     0.2820 C.ar  1 <1>  -0.1500 
  6 C       -3.7550    -2.8530     0.3830 C.3   1 <1>   0.2000 
  7 C       -9.2370    -0.4670    -0.2140 C.ar  1 <1>  -0.1440 
  8 C       -9.4930    -2.8120     0.2270 C.ar  1 <1>  -0.1500 
  9 O       -3.4310    -2.2170    -0.8180 O.3   1 <1>  -0.6800 
 10 C       -2.9150    -4.1420     0.5100 C.3   1 <1>   0.3430 
 11 C      -10.0610    -1.5700    -0.0200 C.ar  1 <1>  -0.1440 
 12 C       -9.8110     0.9160    -0.4870 C.3   1 <1>  -0.0970 
 13 N       -1.5490    -3.9330    -0.0600 N.4   1 <1>  -0.9590 
 14 C      -11.5770    -1.4490    -0.0720 C.3   1 <1>  -0.0970 
 15 C       -0.9400    -5.1900    -0.5750 C.3   1 <1>   0.3430 
 16 C       -0.6470    -3.1830     0.8590 C.3   1 <1>   0.3430 
 17 C        0.3550    -4.8660    -1.3240 C.3   1 <1>  -0.1600 
 18 C        0.6510    -2.8290     0.1300 C.3   1 <1>  -0.1600 
 19 C        1.3360    -4.0730    -0.4510 C.3   1 <1>  -0.1600 
 20 H       -5.5340    -3.8520    -0.3350 H     1 <1>   0.0800 
 21 H       -5.5730    -3.4640     1.3850 H     1 <1>   0.0800 
 22 H       -7.2120     0.2180    -0.3050 H     1 <1>   0.1500 
 23 H       -7.7260    -3.9430     0.4740 H     1 <1>   0.1500 
 24 H       -3.5090    -2.1790     1.1860 H     1 <1>   0.0800 
 25 H      -10.1230    -3.6710     0.3770 H     1 <1>   0.1500 
 26 H       -4.1310    -1.5480    -1.0100 H     1 <1>   0.4000 
 27 H       -3.4150    -4.9170    -0.0460 H     1 <1>   0.0800 
 28 H       -2.8590    -4.4550     1.5390 H     1 <1>   0.0800 
 29 H       -9.0280     1.6430    -0.6080 H     1 <1>   0.0800 
 30 H      -10.4330     1.2250     0.3330 H     1 <1>   0.0800 
 31 H      -10.3970     0.9000    -1.3880 H     1 <1>   0.0800 
 32 H       -1.7260    -3.3030    -0.8670 H     1 <1>   0.4500 
 33 H      -11.9170    -0.7640     0.6840 H     1 <1>   0.0800 
 34 H      -12.0480    -2.4000     0.0980 H     1 <1>   0.0800 
 35 H      -11.8840    -1.0890    -1.0370 H     1 <1>   0.0800 
 36 H       -1.6240    -5.6870    -1.2440 H     1 <1>   0.0800 
 37 H       -0.7220    -5.8530     0.2470 H     1 <1>   0.0800 
 38 H       -0.4210    -3.7870     1.7230 H     1 <1>   0.0800 
 39 H       -1.1270    -2.2750     1.1890 H     1 <1>   0.0800 
 40 H        0.1200    -4.3060    -2.2120 H     1 <1>   0.0800 
 41 H        0.8190    -5.7850    -1.6380 H     1 <1>   0.0800 
 42 H        1.3200    -2.3420     0.8180 H     1 <1>   0.0800 
 43 H        0.4340    -2.1280    -0.6580 H     1 <1>   0.0800 
 44 H        2.1910    -3.7790    -1.0370 H     1 <1>   0.0800 
 45 H        1.6900    -4.6980     0.3530 H     1 <1>   0.0800 
@<TRIPOS>BOND
  1   1   2  1   
  2   1   3  1   
  3   2   4  ar  
  4   2   5  ar  
  5   3   6  1   
  6   3  20  1   
  7   3  21  1   
  8   4   7  ar  
  9   4  22  1   
 10   5   8  ar  
 11   5  23  1   
 12   6   9  1   
 13   6  10  1   
 14   6  24  1   
 15   7  11  ar  
 16   7  12  1   
 17   8  11  ar  
 18   8  25  1   
 19   9  26  1   
 20  10  13  1   
 21  10  27  1   
 22  10  28  1   
 23  11  14  1   
 24  12  29  1   
 25  12  30  1   
 26  12  31  1   
 27  13  15  1   
 28  13  16  1   
 29  13  32  1   
 30  14  33  1   
 31  14  34  1   
 32  14  35  1   
 33  15  17  1   
 34  15  36  1   
 35  15  37  1   
 36  16  18  1   
 37  16  38  1   
 38  16  39  1   
 39  17  19  1   
 40  17  40  1   
 41  17  41  1   
 42  18  19  1   
 43  18  42  1   
 44  18  43  1   
 45  19  44  1   
 46  19  45  1   
@<TRIPOS>SUBSTRUCTURE
  1 ****   3 GROUP 4 **** **** 0

# MOE 2024.06 (io_trps.svl 2023.06)
