@<TRIPOS>MOLECULE
NONAME
42 43 1 0 0 
SMALL
USER_CHARGES


@<TRIPOS>ATOM
  1 CL       1.6970     1.2900    -0.0840 Cl    1 <1>  -0.1770 
  2 C        0.1090     2.0210     0.0240 C.ar  1 <1>   0.1770 
  3 C       -0.0560     3.3920    -0.1700 C.ar  1 <1>   0.0830 
  4 C       -0.9730     1.2050     0.2970 C.ar  1 <1>  -0.1500 
  5 O        0.9900     4.2050    -0.4440 O.3   1 <1>  -0.3630 
  6 C       -1.3270     3.9460    -0.1060 C.ar  1 <1>  -0.1500 
  7 C       -2.2290     1.7790     0.3680 C.ar  1 <1>   0.1770 
  8 C        1.8740     4.5020     0.6190 C.3   1 <1>   0.1200 
  9 C       -2.4180     3.1360     0.1680 C.ar  1 <1>  -0.1500 
 10 CL      -3.6080     0.7680     0.7150 Cl    1 <1>  -0.1770 
 11 C        3.2260     4.9300     0.0330 C.3   1 <1>   0.2000 
 12 O        3.6140     4.0060    -0.9420 O.3   1 <1>  -0.6800 
 13 C        4.3300     5.0130     1.1110 C.3   1 <1>   0.3430 
 14 N        5.6800     4.7800     0.5000 N.4   1 <1>  -0.9590 
 15 C        6.6960     4.1500     1.3910 C.3   1 <1>   0.4230 
 16 C        6.1740     6.0140    -0.1760 C.3   1 <1>   0.3430 
 17 C        7.9630     3.8390     0.5800 C.3   1 <1>  -0.1600 
 18 C        6.1540     2.8540     1.9960 C.3   1 <1>  -0.2400 
 19 C        7.4200     5.7050    -1.0030 C.3   1 <1>  -0.1600 
 20 C        8.5160     5.0710    -0.1430 C.3   1 <1>  -0.1600 
 21 H       -0.8440     0.1500     0.4480 H     1 <1>   0.1500 
 22 H       -1.4600     5.0010    -0.2710 H     1 <1>   0.1500 
 23 H        1.9910     3.6300     1.2380 H     1 <1>   0.0800 
 24 H        1.4370     5.2920     1.2060 H     1 <1>   0.0800 
 25 H       -3.4110     3.5490     0.2240 H     1 <1>   0.1500 
 26 H        3.1140     5.8850    -0.4500 H     1 <1>   0.0800 
 27 H        2.8130     3.7290    -1.4490 H     1 <1>   0.4000 
 28 H        4.1220     4.2510     1.8400 H     1 <1>   0.0800 
 29 H        4.2950     5.9640     1.6150 H     1 <1>   0.0800 
 30 H        5.4750     4.1000    -0.2570 H     1 <1>   0.4500 
 31 H        6.9520     4.8340     2.1840 H     1 <1>   0.0800 
 32 H        6.4110     6.7630     0.5620 H     1 <1>   0.0800 
 33 H        5.4090     6.4070    -0.8280 H     1 <1>   0.0800 
 34 H        7.7480     3.0680    -0.1400 H     1 <1>   0.0800 
 35 H        8.7210     3.4560     1.2410 H     1 <1>   0.0800 
 36 H        5.7530     2.2100     1.2330 H     1 <1>   0.0800 
 37 H        5.4040     3.0500     2.7390 H     1 <1>   0.0800 
 38 H        6.9490     2.3260     2.4920 H     1 <1>   0.0800 
 39 H        7.7890     6.6160    -1.4400 H     1 <1>   0.0800 
 40 H        7.1560     5.0440    -1.8120 H     1 <1>   0.0800 
 41 H        9.3500     4.7880    -0.7640 H     1 <1>   0.0800 
 42 H        8.8710     5.7870     0.5800 H     1 <1>   0.0800 
@<TRIPOS>BOND
  1   1   2  1   
  2   2   3  ar  
  3   2   4  ar  
  4   3   5  1   
  5   3   6  ar  
  6   4   7  ar  
  7   4  21  1   
  8   5   8  1   
  9   6   9  ar  
 10   6  22  1   
 11   7   9  ar  
 12   7  10  1   
 13   8  11  1   
 14   8  23  1   
 15   8  24  1   
 16   9  25  1   
 17  11  12  1   
 18  11  13  1   
 19  11  26  1   
 20  12  27  1   
 21  13  14  1   
 22  13  28  1   
 23  13  29  1   
 24  14  15  1   
 25  14  16  1   
 26  14  30  1   
 27  15  17  1   
 28  15  18  1   
 29  15  31  1   
 30  16  19  1   
 31  16  32  1   
 32  16  33  1   
 33  17  20  1   
 34  17  34  1   
 35  17  35  1   
 36  18  36  1   
 37  18  37  1   
 38  18  38  1   
 39  19  20  1   
 40  19  39  1   
 41  19  40  1   
 42  20  41  1   
 43  20  42  1   
@<TRIPOS>SUBSTRUCTURE
  1 ****   8 GROUP 4 **** **** 0

# MOE 2024.06 (io_trps.svl 2023.06)
