@<TRIPOS>MOLECULE
NONAME
35 37 1 0 0 
SMALL
USER_CHARGES


@<TRIPOS>ATOM
  1 O       -6.6290    -5.2050    -1.3620 O.2   1 <1>  -0.5700 
  2 C       -6.9950    -4.1330    -0.9530 C.2   1 <1>   0.6590 
  3 O       -8.2650    -3.7500    -1.0370 O.3   1 <1>  -0.4300 
  4 C       -6.0230    -3.1080    -0.3350 C.3   1 <1>   0.0610 
  5 C       -9.2600    -4.5970    -1.5780 C.3   1 <1>   0.0400 
  6 C       -5.9540    -1.8420    -1.2250 C.3   1 <1>  -0.1600 
  7 C       -6.4980    -2.6890     1.0800 C.3   1 <1>  -0.1600 
  8 C       -4.5880    -3.6850    -0.2050 C.3   1 <1>  -0.1600 
  9 C       -4.9990    -0.8090    -0.6090 C.3   1 <1>   0.5030 
 10 C       -5.5480    -1.6450     1.6960 C.3   1 <1>  -0.0800 
 11 C       -3.6240    -2.6490     0.4040 C.3   1 <1>  -0.0800 
 12 N       -4.9550     0.3720    -1.4620 N.4   1 <1>  -0.8530 
 13 C       -5.5020    -0.4040     0.7860 C.3   1 <1>  -0.1600 
 14 C       -3.5870    -1.4040    -0.5000 C.3   1 <1>  -0.1600 
 15 C       -4.1360    -2.2500     1.8010 C.3   1 <1>  -0.1600 
 16 H      -10.2050    -4.0850    -1.5390 H     1 <1>   0.0800 
 17 H       -9.3040    -5.5000    -0.9930 H     1 <1>   0.0800 
 18 H       -9.0050    -4.8300    -2.5970 H     1 <1>   0.0800 
 19 H       -5.6160    -2.1290    -2.2060 H     1 <1>   0.0800 
 20 H       -6.9420    -1.4250    -1.3160 H     1 <1>   0.0800 
 21 H       -6.5390    -3.5580     1.7170 H     1 <1>   0.0800 
 22 H       -7.4950    -2.2850     1.0340 H     1 <1>   0.0800 
 23 H       -4.2260    -3.9950    -1.1700 H     1 <1>   0.0800 
 24 H       -4.6090    -4.5640     0.4180 H     1 <1>   0.0800 
 25 H       -5.8980    -1.3710     2.6790 H     1 <1>   0.0800 
 26 H       -2.6380    -3.0770     0.4880 H     1 <1>   0.0800 
 27 H       -5.8890     0.7820    -1.5450 H     1 <1>   0.4500 
 28 H       -4.6180     0.1180    -2.3950 H     1 <1>   0.4500 
 29 H       -4.3220     1.0680    -1.0600 H     1 <1>   0.4500 
 30 H       -6.4900     0.0200     0.7250 H     1 <1>   0.0800 
 31 H       -4.8460     0.3260     1.2270 H     1 <1>   0.0800 
 32 H       -2.9060    -0.6870    -0.0750 H     1 <1>   0.0800 
 33 H       -3.2190    -1.6900    -1.4700 H     1 <1>   0.0800 
 34 H       -3.4620    -1.5410     2.2520 H     1 <1>   0.0800 
 35 H       -4.1590    -3.1170     2.4400 H     1 <1>   0.0800 
@<TRIPOS>BOND
  1   1   2  2   
  2   2   3  1   
  3   2   4  1   
  4   3   5  1   
  5   4   6  1   
  6   4   7  1   
  7   4   8  1   
  8   5  16  1   
  9   5  17  1   
 10   5  18  1   
 11   6   9  1   
 12   6  19  1   
 13   6  20  1   
 14   7  10  1   
 15   7  21  1   
 16   7  22  1   
 17   8  11  1   
 18   8  23  1   
 19   8  24  1   
 20   9  12  1   
 21   9  13  1   
 22   9  14  1   
 23  10  13  1   
 24  10  15  1   
 25  10  25  1   
 26  11  14  1   
 27  11  15  1   
 28  11  26  1   
 29  12  27  1   
 30  12  28  1   
 31  12  29  1   
 32  13  30  1   
 33  13  31  1   
 34  14  32  1   
 35  14  33  1   
 36  15  34  1   
 37  15  35  1   
@<TRIPOS>SUBSTRUCTURE
  1 ****   4 GROUP 4 **** **** 0

# MOE 2024.06 (io_trps.svl 2023.06)
