@<TRIPOS>MOLECULE
NONAME
40 41 1 0 0 
SMALL
USER_CHARGES


@<TRIPOS>ATOM
  1 CL      -1.3310    -1.7180    -0.0050 Cl    1 <1>  -0.1770 
  2 C        0.1860    -2.4580    -0.4600 C.ar  1 <1>   0.1770 
  3 C        0.7610    -2.1940    -1.6930 C.ar  1 <1>   0.1770 
  4 C        0.8010    -3.3130     0.4330 C.ar  1 <1>  -0.1500 
  5 CL      -0.0120    -1.1150    -2.8330 Cl    1 <1>  -0.1770 
  6 C        1.9610    -2.7870    -2.0390 C.ar  1 <1>  -0.1500 
  7 C        2.0060    -3.9210     0.0990 C.ar  1 <1>   0.1990 
  8 C        2.5780    -3.6450    -1.1430 C.ar  1 <1>  -0.1500 
  9 N        2.6080    -4.7790     1.0130 N.am  1 <1>  -0.6930 
 10 S        3.0460    -6.4060     0.6200 S.o2  1 <1>   1.3330 
 11 C        3.4080    -4.1450     2.1130 C.3   1 <1>   0.2570 
 12 O        4.0490    -6.3240    -0.4140 O.2   1 <1>  -0.6500 
 13 O        3.3420    -7.0620     1.8680 O.2   1 <1>  -0.6500 
 14 C        1.5300    -7.0770    -0.0290 C.3   1 <1>  -0.1350 
 15 C        4.7250    -3.4970     1.6650 C.2   1 <1>   0.5690 
 16 O        5.0580    -2.4660     2.2000 O.2   1 <1>  -0.5700 
 17 N        5.4870    -4.0720     0.6960 N.am  1 <1>  -0.7300 
 18 C        6.7700    -3.5630     0.1930 C.3   1 <1>   0.2200 
 19 C        6.6200    -3.2280    -1.2860 C.3   1 <1>  -0.1600 
 20 C        7.7790    -4.7040     0.1940 C.3   1 <1>  -0.1600 
 21 C        6.7530    -4.5620    -2.0300 C.3   1 <1>  -0.1600 
 22 C        7.4930    -5.5110    -1.0780 C.3   1 <1>  -0.1600 
 23 H        0.3460    -3.5080     1.3860 H     1 <1>   0.1500 
 24 H        2.4060    -2.5750    -2.9960 H     1 <1>   0.1500 
 25 H        3.5170    -4.0940    -1.4110 H     1 <1>   0.1500 
 26 H        3.6330    -4.8700     2.8740 H     1 <1>   0.0800 
 27 H        2.8100    -3.3810     2.5740 H     1 <1>   0.0800 
 28 H        0.7520    -7.0100     0.7050 H     1 <1>   0.0800 
 29 H        1.6680    -8.1090    -0.2890 H     1 <1>   0.0800 
 30 H        1.2290    -6.5400    -0.9070 H     1 <1>   0.0800 
 31 H        5.1700    -4.9310     0.2240 H     1 <1>   0.3700 
 32 H        7.1030    -2.7180     0.7750 H     1 <1>   0.0800 
 33 H        7.4350    -2.5870    -1.5720 H     1 <1>   0.0800 
 34 H        5.6960    -2.7200    -1.4960 H     1 <1>   0.0800 
 35 H        7.7180    -5.3010     1.0870 H     1 <1>   0.0800 
 36 H        8.7670    -4.2840     0.1270 H     1 <1>   0.0800 
 37 H        7.2890    -4.4350    -2.9550 H     1 <1>   0.0800 
 38 H        5.7770    -4.9630    -2.2460 H     1 <1>   0.0800 
 39 H        6.8600    -6.3500    -0.8430 H     1 <1>   0.0800 
 40 H        8.4060    -5.8780    -1.5150 H     1 <1>   0.0800 
@<TRIPOS>BOND
  1   1   2  1   
  2   2   3  ar  
  3   2   4  ar  
  4   3   5  1   
  5   3   6  ar  
  6   4   7  ar  
  7   4  23  1   
  8   6   8  ar  
  9   6  24  1   
 10   7   8  ar  
 11   7   9  1   
 12   8  25  1   
 13   9  10  am  
 14   9  11  1   
 15  10  12  2   
 16  10  13  2   
 17  10  14  1   
 18  11  15  1   
 19  11  26  1   
 20  11  27  1   
 21  14  28  1   
 22  14  29  1   
 23  14  30  1   
 24  15  16  2   
 25  15  17  am  
 26  17  18  1   
 27  17  31  1   
 28  18  19  1   
 29  18  20  1   
 30  18  32  1   
 31  19  21  1   
 32  19  33  1   
 33  19  34  1   
 34  20  22  1   
 35  20  35  1   
 36  20  36  1   
 37  21  22  1   
 38  21  37  1   
 39  21  38  1   
 40  22  39  1   
 41  22  40  1   
@<TRIPOS>SUBSTRUCTURE
  1 ****   8 GROUP 4 **** **** 0

# MOE 2024.06 (io_trps.svl 2023.06)
