@<TRIPOS>MOLECULE
NONAME
31 32 1 0 0 
SMALL
USER_CHARGES


@<TRIPOS>ATOM
  1 CL       0.0090    -2.6930    -2.2430 Cl    1 <1>  -0.1770 
  2 C       -0.9840    -2.1260    -0.9220 C.ar  1 <1>   0.1770 
  3 C       -0.8980    -2.6710     0.3590 C.ar  1 <1>  -0.1440 
  4 C       -1.8660    -1.1020    -1.2140 C.ar  1 <1>  -0.1500 
  5 C       -1.7360    -2.1620     1.3470 C.ar  1 <1>  -0.1500 
  6 C        0.0560    -3.8010     0.7500 C.3   1 <1>   0.6640 
  7 C       -2.6780    -0.6150    -0.2110 C.ar  1 <1>   0.1770 
  8 C       -2.6230    -1.1360     1.0670 C.ar  1 <1>  -0.1500 
  9 N        1.4630    -3.5010     0.4470 N.am  1 <1>  -0.3250 
 10 N       -0.2110    -5.0510     0.0000 N.am  1 <1>  -0.6600 
 11 CL      -3.7920     0.6790    -0.5630 Cl    1 <1>  -0.1770 
 12 O        2.1260    -2.5050     1.1790 O.3   1 <1>  -0.3160 
 13 C        2.0380    -4.4180    -0.3630 C.2   1 <1>   0.5690 
 14 C       -1.2470    -5.8520     0.3470 C.2   1 <1>   0.5690 
 15 C        1.0120    -5.4520    -0.7610 C.3   1 <1>   0.2010 
 16 C        2.3860    -1.3610     0.3990 C.3   1 <1>   0.0400 
 17 O        3.1910    -4.4540    -0.7370 O.2   1 <1>  -0.5700 
 18 O       -2.0080    -5.5480     1.2300 O.2   1 <1>  -0.5700 
 19 C       -1.4570    -7.1630    -0.3700 C.3   1 <1>  -0.1790 
 20 H       -1.9200    -0.6910    -2.2050 H     1 <1>   0.1500 
 21 H       -1.7080    -2.5680     2.3450 H     1 <1>   0.1500 
 22 H       -0.0270    -4.0010     1.8050 H     1 <1>   0.0800 
 23 H       -3.2710    -0.7440     1.8320 H     1 <1>   0.1500 
 24 H        0.8340    -5.4080    -1.8200 H     1 <1>   0.0800 
 25 H        1.3460    -6.4320    -0.4730 H     1 <1>   0.0800 
 26 H        2.9140    -0.6520     1.0100 H     1 <1>   0.0800 
 27 H        1.4540    -0.9400     0.0670 H     1 <1>   0.0800 
 28 H        2.9940    -1.6450    -0.4420 H     1 <1>   0.0800 
 29 H       -0.7200    -7.8750    -0.0520 H     1 <1>   0.0800 
 30 H       -1.3890    -7.0180    -1.4320 H     1 <1>   0.0800 
 31 H       -2.4330    -7.5480    -0.1380 H     1 <1>   0.0800 
@<TRIPOS>BOND
  1   1   2  1   
  2   2   3  ar  
  3   2   4  ar  
  4   3   5  ar  
  5   3   6  1   
  6   4   7  ar  
  7   4  20  1   
  8   5   8  ar  
  9   5  21  1   
 10   6   9  1   
 11   6  10  1   
 12   6  22  1   
 13   7   8  ar  
 14   7  11  1   
 15   8  23  1   
 16   9  12  1   
 17   9  13  am  
 18  10  14  am  
 19  10  15  1   
 20  12  16  1   
 21  13  15  1   
 22  13  17  2   
 23  14  18  2   
 24  14  19  1   
 25  15  24  1   
 26  15  25  1   
 27  16  26  1   
 28  16  27  1   
 29  16  28  1   
 30  19  29  1   
 31  19  30  1   
 32  19  31  1   
@<TRIPOS>SUBSTRUCTURE
  1 ****   3 GROUP 4 **** **** 0

# MOE 2024.06 (io_trps.svl 2023.06)
