@<TRIPOS>MOLECULE
NONAME
44 44 1 0 0 
SMALL
USER_CHARGES


@<TRIPOS>ATOM
  1 O        7.9750    -0.9440    -0.5050 O.3   1 <1>  -0.3630 
  2 C        9.1120    -0.2150    -0.3570 C.ar  1 <1>   0.0830 
  3 C        7.9510    -2.3310    -0.2860 C.3   1 <1>   0.1200 
  4 C        9.0180     1.1580    -0.0800 C.ar  1 <1>  -0.1440 
  5 C       10.3560    -0.8330    -0.4800 C.ar  1 <1>  -0.1500 
  6 C        6.4800    -2.7350    -0.1890 C.3   1 <1>   0.3430 
  7 C       10.2170     1.8510     0.0830 C.ar  1 <1>  -0.1500 
  8 C        7.6530     1.8990     0.0460 C.3   1 <1>   0.1440 
  9 C       11.5250    -0.1190    -0.3150 C.ar  1 <1>  -0.1440 
 10 N        6.3220    -4.1950     0.0770 N.4   1 <1>  -0.9060 
 11 C       11.4470     1.2280    -0.0280 C.ar  1 <1>  -0.1500 
 12 C        7.8030     3.4070     0.3340 C.3   1 <1>  -0.2400 
 13 C        6.8560     1.7980    -1.2670 C.3   1 <1>  -0.2400 
 14 C        6.8300     1.3250     1.2120 C.3   1 <1>  -0.2400 
 15 C       12.8790    -0.7950    -0.4450 C.3   1 <1>  -0.0970 
 16 C        4.9130    -4.6040     0.1670 C.3   1 <1>   0.4810 
 17 C        4.9360    -6.1030     0.3160 C.2   1 <1>  -0.2880 
 18 C        4.5780    -6.9780    -0.6300 C.2   1 <1>  -0.3000 
 19 H        8.4710    -2.5310     0.6350 H     1 <1>   0.0800 
 20 H        8.4340    -2.8090    -1.1200 H     1 <1>   0.0800 
 21 H       10.4390    -1.8750    -0.7140 H     1 <1>   0.1500 
 22 H        5.9930    -2.4790    -1.1160 H     1 <1>   0.0800 
 23 H        6.0220    -2.1690     0.6060 H     1 <1>   0.0800 
 24 H       10.2420     2.9010     0.3020 H     1 <1>   0.1500 
 25 H        6.7920    -4.4640     0.9490 H     1 <1>   0.4500 
 26 H        6.7460    -4.7560    -0.6720 H     1 <1>   0.4500 
 27 H       12.3450     1.8040     0.1080 H     1 <1>   0.1500 
 28 H        8.3160     3.5670     1.2650 H     1 <1>   0.0800 
 29 H        6.8400     3.8810     0.4060 H     1 <1>   0.0800 
 30 H        8.3470     3.8910    -0.4570 H     1 <1>   0.0800 
 31 H        7.4520     2.1650    -2.0830 H     1 <1>   0.0800 
 32 H        5.9560     2.3830    -1.2120 H     1 <1>   0.0800 
 33 H        6.5740     0.7880    -1.4880 H     1 <1>   0.0800 
 34 H        7.4080     1.3630     2.1180 H     1 <1>   0.0800 
 35 H        6.5450     0.3090     1.0350 H     1 <1>   0.0800 
 36 H        5.9300     1.8960     1.3580 H     1 <1>   0.0800 
 37 H       12.8200    -1.6410    -1.1050 H     1 <1>   0.0800 
 38 H       13.2140    -1.1270     0.5210 H     1 <1>   0.0800 
 39 H       13.6030    -0.1070    -0.8440 H     1 <1>   0.0800 
 40 H        4.3880    -4.3350    -0.7360 H     1 <1>   0.0800 
 41 H        4.4230    -4.1430     1.0110 H     1 <1>   0.0800 
 42 H        5.2710    -6.4260     1.2890 H     1 <1>   0.1500 
 43 H        4.5980    -8.0480    -0.4940 H     1 <1>   0.1500 
 44 H        4.2280    -6.7210    -1.6170 H     1 <1>   0.1500 
@<TRIPOS>BOND
  1   1   2  1   
  2   1   3  1   
  3   2   4  ar  
  4   2   5  ar  
  5   3   6  1   
  6   3  19  1   
  7   3  20  1   
  8   4   7  ar  
  9   4   8  1   
 10   5   9  ar  
 11   5  21  1   
 12   6  10  1   
 13   6  22  1   
 14   6  23  1   
 15   7  11  ar  
 16   7  24  1   
 17   8  12  1   
 18   8  13  1   
 19   8  14  1   
 20   9  11  ar  
 21   9  15  1   
 22  10  16  1   
 23  10  25  1   
 24  10  26  1   
 25  11  27  1   
 26  12  28  1   
 27  12  29  1   
 28  12  30  1   
 29  13  31  1   
 30  13  32  1   
 31  13  33  1   
 32  14  34  1   
 33  14  35  1   
 34  14  36  1   
 35  15  37  1   
 36  15  38  1   
 37  15  39  1   
 38  16  17  1   
 39  16  40  1   
 40  16  41  1   
 41  17  18  2   
 42  17  42  1   
 43  18  43  1   
 44  18  44  1   
@<TRIPOS>SUBSTRUCTURE
  1 ****   1 GROUP 4 **** **** 0

# MOE 2024.06 (io_trps.svl 2023.06)
