@<TRIPOS>MOLECULE
8-(4-Ethyl-piperazin-1-yl)-3-methyl-7-(2-methyl-benzyl)-3,7-dihydro-purine-2,6-d
56 59 1 0 0 
SMALL
USER_CHARGES


@<TRIPOS>ATOM
  1 O        0.7640     1.8330     2.1770 O.2   1 <1>  -0.5740 
  2 C        1.9070     2.1340     1.9280 C.2   1 <1>   0.6870 
  3 N        2.8340     1.2080     1.4690 N.am  1 <1>  -0.4410 
  4 N        2.2930     3.4290     2.1090 N.am  1 <1>  -0.4950 
  5 C        4.1230     1.6580     1.2220 C.2   1 <1>   0.4210 
  6 C        2.4500    -0.2200     1.2630 C.3   1 <1>   0.0530 
  7 C        3.5570     3.8840     1.8730 C.2   1 <1>   0.7000 
  8 N        5.1870     0.9290     0.7950 N.pl3 1 <1>  -0.7030 
  9 C        4.5230     2.9370     1.3900 C.2   1 <1>   0.2710 
 10 O        3.8140     5.0510     2.0900 O.2   1 <1>  -0.5740 
 11 C        6.2530     1.7290     0.7060 C.cat 1 <1>   1.0690 
 12 N        5.8880     2.9820     1.0270 N.pl3 1 <1>  -0.7670 
 13 N        7.4730     1.2450     0.3530 N.pl3 1 <1>  -0.5960 
 14 C        6.5870     4.3000     0.8920 C.3   1 <1>   0.4930 
 15 C        7.6490     0.0370    -0.5250 C.3   1 <1>   0.1610 
 16 C        8.7800     1.7830     0.8630 C.3   1 <1>   0.1610 
 17 C        7.4520     4.3920    -0.3660 C.ar  1 <1>  -0.1500 
 18 C        8.6740     0.2910    -1.6550 C.3   1 <1>   0.3380 
 19 C        9.8060     2.0040    -0.2710 C.3   1 <1>   0.3380 
 20 C        8.6870     5.0420    -0.3440 C.ar  1 <1>  -0.1500 
 21 C        6.9910     3.8610    -1.5670 C.ar  1 <1>  -0.1570 
 22 N        9.9900     0.7880    -1.1350 N.4   1 <1>  -0.9610 
 23 C        9.4420     5.1180    -1.5050 C.ar  1 <1>  -0.1570 
 24 C        9.2410     5.7150     0.9090 C.3   1 <1>  -0.1030 
 25 C        7.7550     3.9360    -2.7170 C.ar  1 <1>  -0.1570 
 26 C       10.8990     1.0860    -2.2740 C.3   1 <1>   0.3380 
 27 C        8.9850     4.5620    -2.6850 C.ar  1 <1>  -0.1570 
 28 C       12.3290     1.2220    -1.7670 C.3   1 <1>  -0.2460 
 29 H        1.5910     4.0820     2.4550 H     1 <1>   0.3650 
 30 H        1.3820    -0.3430     1.3330 H     1 <1>   0.0730 
 31 H        2.9110    -0.8350     2.0150 H     1 <1>   0.0730 
 32 H        2.7590    -0.5490     0.2860 H     1 <1>   0.0730 
 33 H        5.1850    -0.0780     0.6670 H     1 <1>   0.4450 
 34 H        7.1660     4.4680     1.7820 H     1 <1>   0.0730 
 35 H        5.8660     5.0960     0.8300 H     1 <1>   0.0730 
 36 H        6.7120    -0.2370    -0.9800 H     1 <1>   0.0730 
 37 H        7.9810    -0.7950     0.0730 H     1 <1>   0.0730 
 38 H        9.1950     1.0780     1.5650 H     1 <1>   0.0730 
 39 H        8.6360     2.7020     1.3980 H     1 <1>   0.0730 
 40 H        8.2630     1.0200    -2.3350 H     1 <1>   0.0730 
 41 H        8.8260    -0.6220    -2.2080 H     1 <1>   0.0730 
 42 H       10.7500     2.2970     0.1580 H     1 <1>   0.0730 
 43 H        9.4650     2.8130    -0.8890 H     1 <1>   0.0730 
 44 H        6.0200     3.4030    -1.6330 H     1 <1>   0.1430 
 45 H       10.4430     0.0470    -0.5820 H     1 <1>   0.4450 
 46 H       10.3920     5.6290    -1.5070 H     1 <1>   0.1430 
 47 H        8.5290     6.4210     1.2990 H     1 <1>   0.0730 
 48 H       10.1410     6.2620     0.6850 H     1 <1>   0.0730 
 49 H        9.4740     4.9910     1.6670 H     1 <1>   0.0730 
 50 H        7.3850     3.5320    -3.6450 H     1 <1>   0.1430 
 51 H       10.5930     1.9950    -2.7700 H     1 <1>   0.0730 
 52 H       10.8620     0.2810    -2.9910 H     1 <1>   0.0730 
 53 H        9.5760     4.6410    -3.5820 H     1 <1>   0.1430 
 54 H       12.4450     2.0790    -1.1280 H     1 <1>   0.0730 
 55 H       12.9860     1.3570    -2.6080 H     1 <1>   0.0730 
 56 H       12.6400     0.3330    -1.2470 H     1 <1>   0.0730 
@<TRIPOS>BOND
  1   1   2  2   
  2   2   3  am  
  3   2   4  am  
  4   3   5  1   
  5   3   6  1   
  6   4   7  am  
  7   4  29  1   
  8   5   8  1   
  9   5   9  2   
 10   6  30  1   
 11   6  31  1   
 12   6  32  1   
 13   7   9  1   
 14   7  10  2   
 15   8  11  ar  
 16   8  33  1   
 17   9  12  1   
 18  11  12  ar  
 19  11  13  ar  
 20  12  14  1   
 21  13  15  1   
 22  13  16  1   
 23  14  17  1   
 24  14  34  1   
 25  14  35  1   
 26  15  18  1   
 27  15  36  1   
 28  15  37  1   
 29  16  19  1   
 30  16  38  1   
 31  16  39  1   
 32  17  20  ar  
 33  17  21  ar  
 34  18  22  1   
 35  18  40  1   
 36  18  41  1   
 37  19  22  1   
 38  19  42  1   
 39  19  43  1   
 40  20  23  ar  
 41  20  24  1   
 42  21  25  ar  
 43  21  44  1   
 44  22  26  1   
 45  22  45  1   
 46  23  27  ar  
 47  23  46  1   
 48  24  47  1   
 49  24  48  1   
 50  24  49  1   
 51  25  27  ar  
 52  25  50  1   
 53  26  28  1   
 54  26  51  1   
 55  26  52  1   
 56  27  53  1   
 57  28  54  1   
 58  28  55  1   
 59  28  56  1   
@<TRIPOS>SUBSTRUCTURE
  1 ****  11 GROUP 4 **** **** 0

# MOE 2024.06 (io_trps.svl 2023.06)
