@<TRIPOS>MOLECULE
[4-(2-Ethoxy-phenyl)-piperazin-1-yl]-thiophen-2-yl-methanone
42 44 1 0 0 
SMALL
USER_CHARGES


@<TRIPOS>ATOM
  1 S       -0.3370     1.2210    -0.7270 S.3   1 <1>  -0.0800 
  2 C       -1.7670     0.3460    -0.1670 C.2   1 <1>  -0.0450 
  3 C        0.4050    -0.2370    -1.3480 C.2   1 <1>  -0.1100 
  4 C       -2.8210     1.0870     0.4840 C.2   1 <1>   0.7150 
  5 C       -1.6080    -0.9710    -0.4640 C.2   1 <1>  -0.1500 
  6 C       -0.3910    -1.2990    -1.1300 C.2   1 <1>  -0.1500 
  7 O       -2.5560     2.0680     1.1560 O.2   1 <1>  -0.5700 
  8 N       -4.1410     0.7030     0.3760 N.am  1 <1>  -0.6600 
  9 C       -5.2010     1.2750     1.2600 C.3   1 <1>   0.1400 
 10 C       -4.7120     0.0290    -0.8300 C.3   1 <1>   0.1400 
 11 C       -6.0940     2.2670     0.4980 C.3   1 <1>   0.2090 
 12 C       -5.6350     0.9690    -1.6310 C.3   1 <1>   0.2090 
 13 N       -6.6220     1.7030    -0.7830 N.pl3 1 <1>  -0.8380 
 14 C       -7.9700     1.3220    -0.8400 C.ar  1 <1>   0.1000 
 15 C       -8.4820     0.1270    -0.3050 C.ar  1 <1>   0.0820 
 16 C       -8.8440     2.1970    -1.4690 C.ar  1 <1>  -0.1500 
 17 O       -7.6190    -0.7310     0.3230 O.3   1 <1>  -0.3630 
 18 C       -9.8390    -0.1560    -0.4280 C.ar  1 <1>  -0.1500 
 19 C      -10.1920     1.9120    -1.5820 C.ar  1 <1>  -0.1500 
 20 C       -8.0450    -1.6860     1.2730 C.3   1 <1>   0.1200 
 21 C      -10.6900     0.7320    -1.0620 C.ar  1 <1>  -0.1500 
 22 C       -8.5130    -0.9790     2.5470 C.3   1 <1>  -0.2400 
 23 H        1.3700    -0.1440    -1.8140 H     1 <1>   0.1500 
 24 H       -2.3240    -1.7380    -0.2230 H     1 <1>   0.1500 
 25 H       -0.1660    -2.3120    -1.4130 H     1 <1>   0.1500 
 26 H       -4.7610     1.7730     2.1050 H     1 <1>   0.0800 
 27 H       -5.8100     0.4750     1.6390 H     1 <1>   0.0800 
 28 H       -5.2730    -0.8330    -0.5170 H     1 <1>   0.0800 
 29 H       -3.9330    -0.3110    -1.4860 H     1 <1>   0.0800 
 30 H       -5.5220     3.1510     0.2770 H     1 <1>   0.0800 
 31 H       -6.9190     2.5570     1.1260 H     1 <1>   0.0800 
 32 H       -6.1630     0.3960    -2.3740 H     1 <1>   0.0800 
 33 H       -5.0290     1.6920    -2.1480 H     1 <1>   0.0800 
 34 H       -8.4500     3.1110    -1.8730 H     1 <1>   0.1500 
 35 H      -10.2570    -1.0640    -0.0420 H     1 <1>   0.1500 
 36 H      -10.8490     2.6070    -2.0750 H     1 <1>   0.1500 
 37 H       -7.1950    -2.3070     1.4950 H     1 <1>   0.0800 
 38 H       -8.8100    -2.3050     0.8420 H     1 <1>   0.0800 
 39 H      -11.7390     0.5050    -1.1510 H     1 <1>   0.1500 
 40 H       -7.7190    -0.3740     2.9470 H     1 <1>   0.0800 
 41 H       -8.7890    -1.7100     3.2840 H     1 <1>   0.0800 
 42 H       -9.3680    -0.3590     2.3490 H     1 <1>   0.0800 
@<TRIPOS>BOND
  1   1   2  1   
  2   1   3  1   
  3   2   4  1   
  4   2   5  2   
  5   3   6  2   
  6   3  23  1   
  7   4   7  2   
  8   4   8  am  
  9   5   6  1   
 10   5  24  1   
 11   6  25  1   
 12   8   9  1   
 13   8  10  1   
 14   9  11  1   
 15   9  26  1   
 16   9  27  1   
 17  10  12  1   
 18  10  28  1   
 19  10  29  1   
 20  11  13  1   
 21  11  30  1   
 22  11  31  1   
 23  12  13  1   
 24  12  32  1   
 25  12  33  1   
 26  13  14  1   
 27  14  15  ar  
 28  14  16  ar  
 29  15  17  1   
 30  15  18  ar  
 31  16  19  ar  
 32  16  34  1   
 33  17  20  1   
 34  18  21  ar  
 35  18  35  1   
 36  19  21  ar  
 37  19  36  1   
 38  20  22  1   
 39  20  37  1   
 40  20  38  1   
 41  21  39  1   
 42  22  40  1   
 43  22  41  1   
 44  22  42  1   
@<TRIPOS>SUBSTRUCTURE
  1 ****  10 GROUP 4 **** **** 0

# MOE 2024.06 (io_trps.svl 2023.06)
