@<TRIPOS>MOLECULE
2,3-Dihydro-benzo[1,4]dioxine-6-sulfonic acid [2-(morpholine-4-carbonyl)-phenyl]
48 51 1 0 0 
SMALL
USER_CHARGES


@<TRIPOS>ATOM
  1 S       -0.3060    -1.3420    -0.0490 S.o2  1 <1>   1.4470 
  2 O       -1.1890    -1.5600    -1.1680 O.2   1 <1>  -0.6500 
  3 O       -0.1400    -2.3480     0.9740 O.2   1 <1>  -0.6500 
  4 N        1.2350    -1.0710    -0.7580 N.am  1 <1>  -0.7570 
  5 C       -0.6640     0.2670     0.7050 C.ar  1 <1>  -0.0090 
  6 C        2.4350    -0.8650    -0.0970 C.ar  1 <1>   0.1990 
  7 C       -1.1060     1.3330    -0.0710 C.ar  1 <1>  -0.1500 
  8 C       -0.4940     0.4770     2.0710 C.ar  1 <1>  -0.1500 
  9 C        3.1950     0.2990    -0.3200 C.ar  1 <1>   0.0860 
 10 C        2.9180    -1.8430     0.7670 C.ar  1 <1>  -0.1500 
 11 C       -1.3860     2.5620     0.4980 C.ar  1 <1>   0.0830 
 12 C       -0.7640     1.7060     2.6520 C.ar  1 <1>  -0.1500 
 13 C        2.6980     1.3730    -1.1600 C.2   1 <1>   0.5440 
 14 C        4.4470     0.3920     0.2950 C.ar  1 <1>  -0.1500 
 15 C        4.1410    -1.7090     1.3900 C.ar  1 <1>  -0.1500 
 16 O       -1.8320     3.5660    -0.2970 O.3   1 <1>  -0.3620 
 17 C       -1.2070     2.7540     1.8680 C.ar  1 <1>   0.0830 
 18 O        2.1170     1.1030    -2.1990 O.2   1 <1>  -0.5700 
 19 N        2.8360     2.7060    -0.8210 N.am  1 <1>  -0.6600 
 20 C        4.9150    -0.5890     1.1460 C.ar  1 <1>  -0.1500 
 21 C       -2.4090     4.6870     0.3460 C.3   1 <1>   0.1200 
 22 O       -1.4360     3.9580     2.4460 O.3   1 <1>  -0.3630 
 23 C        3.0780     3.2100     0.5660 C.3   1 <1>   0.1400 
 24 C        2.5300     3.8050    -1.7900 C.3   1 <1>   0.1400 
 25 C       -1.5910     5.0740     1.5860 C.3   1 <1>   0.1200 
 26 C        1.9900     4.2090     0.9920 C.3   1 <1>   0.1200 
 27 C        1.4460     4.7360    -1.2260 C.3   1 <1>   0.1200 
 28 O        1.8190     5.2160     0.0360 O.3   1 <1>  -0.5600 
 29 H        1.1220    -0.5200    -1.6160 H     1 <1>   0.4200 
 30 H       -1.2430     1.2090    -1.1320 H     1 <1>   0.1500 
 31 H       -0.1510    -0.3350     2.6920 H     1 <1>   0.1500 
 32 H        2.3330    -2.7300     0.9400 H     1 <1>   0.1500 
 33 H       -0.6330     1.8560     3.7090 H     1 <1>   0.1500 
 34 H        5.0630     1.2530     0.0980 H     1 <1>   0.1500 
 35 H        4.4970    -2.4780     2.0550 H     1 <1>   0.1500 
 36 H        5.8790    -0.4900     1.6160 H     1 <1>   0.1500 
 37 H       -3.4140     4.4300     0.6280 H     1 <1>   0.0800 
 38 H       -2.4370     5.4970    -0.3610 H     1 <1>   0.0800 
 39 H        4.0370     3.6980     0.6040 H     1 <1>   0.0800 
 40 H        3.0830     2.4000     1.2730 H     1 <1>   0.0800 
 41 H        2.1990     3.4080    -2.7330 H     1 <1>   0.0800 
 42 H        3.4240     4.3740    -1.9710 H     1 <1>   0.0800 
 43 H       -2.0830     5.8530     2.1390 H     1 <1>   0.0800 
 44 H       -0.6130     5.4170     1.2960 H     1 <1>   0.0800 
 45 H        2.2550     4.6780     1.9220 H     1 <1>   0.0800 
 46 H        1.0570     3.6980     1.1190 H     1 <1>   0.0800 
 47 H        0.5110     4.2120    -1.1400 H     1 <1>   0.0800 
 48 H        1.3110     5.5830    -1.8750 H     1 <1>   0.0800 
@<TRIPOS>BOND
  1   1   2  2   
  2   1   3  2   
  3   1   4  am  
  4   1   5  1   
  5   4   6  1   
  6   4  29  1   
  7   5   7  ar  
  8   5   8  ar  
  9   6   9  ar  
 10   6  10  ar  
 11   7  11  ar  
 12   7  30  1   
 13   8  12  ar  
 14   8  31  1   
 15   9  13  1   
 16   9  14  ar  
 17  10  15  ar  
 18  10  32  1   
 19  11  16  1   
 20  11  17  ar  
 21  12  17  ar  
 22  12  33  1   
 23  13  18  2   
 24  13  19  am  
 25  14  20  ar  
 26  14  34  1   
 27  15  20  ar  
 28  15  35  1   
 29  16  21  1   
 30  17  22  1   
 31  19  23  1   
 32  19  24  1   
 33  20  36  1   
 34  21  25  1   
 35  21  37  1   
 36  21  38  1   
 37  22  25  1   
 38  23  26  1   
 39  23  39  1   
 40  23  40  1   
 41  24  27  1   
 42  24  41  1   
 43  24  42  1   
 44  25  43  1   
 45  25  44  1   
 46  26  28  1   
 47  26  45  1   
 48  26  46  1   
 49  27  28  1   
 50  27  47  1   
 51  27  48  1   
@<TRIPOS>SUBSTRUCTURE
  1 ****   5 GROUP 4 **** **** 0

# MOE 2024.06 (io_trps.svl 2023.06)
