@<TRIPOS>MOLECULE
1-(2,4-Dimethyl-phenyl)-5-oxo-pyrrolidine-3-carboxylic acid (2-ethoxy-phenyl)-am
50 52 1 0 0 
SMALL
USER_CHARGES


@<TRIPOS>ATOM
  1 O        1.0570     0.0090     0.9790 O.2   1 <1>  -0.5700 
  2 C        2.0410    -0.5230     0.5300 C.2   1 <1>   0.5690 
  3 N        2.1980    -1.8400     0.2210 N.am  1 <1>  -0.4770 
  4 C        3.2920     0.2540     0.2320 C.3   1 <1>  -0.0990 
  5 C        1.2760    -2.8880     0.3740 C.ar  1 <1>   0.1170 
  6 C        3.5530    -2.1060    -0.2940 C.3   1 <1>   0.1400 
  7 C        4.1070    -0.7160    -0.6420 C.3   1 <1>  -0.0190 
  8 C        0.0980    -2.9610    -0.3730 C.ar  1 <1>  -0.1440 
  9 C        1.5550    -3.8990     1.2860 C.ar  1 <1>  -0.1500 
 10 C        5.6160    -0.6010    -0.4760 C.2   1 <1>   0.5690 
 11 C       -0.7660    -4.0300    -0.1890 C.ar  1 <1>  -0.1500 
 12 C       -0.2680    -1.8890    -1.3910 C.3   1 <1>  -0.0970 
 13 C        0.6900    -4.9620     1.4600 C.ar  1 <1>  -0.1500 
 14 O        6.2710    -1.6100    -0.3940 O.2   1 <1>  -0.5700 
 15 N        6.1500     0.6560    -0.4450 N.am  1 <1>  -0.5470 
 16 C       -0.4780    -5.0330     0.7220 C.ar  1 <1>  -0.1430 
 17 C        7.4580     1.1520    -0.2940 C.ar  1 <1>   0.1170 
 18 C       -1.4370    -6.1950     0.9070 C.3   1 <1>  -0.0970 
 19 C        7.6160     2.5390    -0.1980 C.ar  1 <1>   0.0830 
 20 C        8.5870     0.3420    -0.2390 C.ar  1 <1>  -0.1500 
 21 O        6.4780     3.2960    -0.2570 O.3   1 <1>  -0.3630 
 22 C        8.8860     3.0890    -0.0490 C.ar  1 <1>  -0.1500 
 23 C        9.8470     0.8940    -0.0900 C.ar  1 <1>  -0.1500 
 24 C        6.5230     4.6970    -0.1150 C.3   1 <1>   0.1200 
 25 C        9.9970     2.2650     0.0050 C.ar  1 <1>  -0.1500 
 26 C        5.0940     5.2230    -0.1940 C.3   1 <1>  -0.2400 
 27 H        3.7880     0.4640     1.1620 H     1 <1>   0.0800 
 28 H        3.0600     1.1690    -0.2820 H     1 <1>   0.0800 
 29 H        3.5180    -2.7470    -1.1590 H     1 <1>   0.0800 
 30 H        4.1330    -2.5770     0.4810 H     1 <1>   0.0800 
 31 H        3.8760    -0.5290    -1.6750 H     1 <1>   0.0800 
 32 H        2.4560    -3.8470     1.8690 H     1 <1>   0.1500 
 33 H       -1.6750    -4.0850    -0.7600 H     1 <1>   0.1500 
 34 H        0.5830    -1.6460    -2.0000 H     1 <1>   0.0800 
 35 H       -0.5960    -1.0020    -0.8780 H     1 <1>   0.0800 
 36 H       -1.0600    -2.2230    -2.0350 H     1 <1>   0.0800 
 37 H        0.9290    -5.7310     2.1730 H     1 <1>   0.1500 
 38 H        5.4840     1.4270    -0.5120 H     1 <1>   0.3700 
 39 H       -2.4540    -5.8570     0.8150 H     1 <1>   0.0800 
 40 H       -1.3140    -6.6370     1.8790 H     1 <1>   0.0800 
 41 H       -1.2500    -6.9430     0.1580 H     1 <1>   0.0800 
 42 H        8.4950    -0.7250    -0.3130 H     1 <1>   0.1500 
 43 H        9.0360     4.1480     0.0260 H     1 <1>   0.1500 
 44 H       10.7110     0.2530    -0.0490 H     1 <1>   0.1500 
 45 H        7.1220     5.1030    -0.9130 H     1 <1>   0.0800 
 46 H        6.9630     4.9310     0.8390 H     1 <1>   0.0800 
 47 H       10.9790     2.6910     0.1200 H     1 <1>   0.1500 
 48 H        4.6580     4.9750    -1.1450 H     1 <1>   0.0800 
 49 H        5.0940     6.2930    -0.0880 H     1 <1>   0.0800 
 50 H        4.4990     4.8020     0.5980 H     1 <1>   0.0800 
@<TRIPOS>BOND
  1   1   2  2   
  2   2   3  am  
  3   2   4  1   
  4   3   5  1   
  5   3   6  1   
  6   4   7  1   
  7   4  27  1   
  8   4  28  1   
  9   5   8  ar  
 10   5   9  ar  
 11   6   7  1   
 12   6  29  1   
 13   6  30  1   
 14   7  10  1   
 15   7  31  1   
 16   8  11  ar  
 17   8  12  1   
 18   9  13  ar  
 19   9  32  1   
 20  10  14  2   
 21  10  15  am  
 22  11  16  ar  
 23  11  33  1   
 24  12  34  1   
 25  12  35  1   
 26  12  36  1   
 27  13  16  ar  
 28  13  37  1   
 29  15  17  1   
 30  15  38  1   
 31  16  18  1   
 32  17  19  ar  
 33  17  20  ar  
 34  18  39  1   
 35  18  40  1   
 36  18  41  1   
 37  19  21  1   
 38  19  22  ar  
 39  20  23  ar  
 40  20  42  1   
 41  21  24  1   
 42  22  25  ar  
 43  22  43  1   
 44  23  25  ar  
 45  23  44  1   
 46  24  26  1   
 47  24  45  1   
 48  24  46  1   
 49  25  47  1   
 50  26  48  1   
 51  26  49  1   
 52  26  50  1   
@<TRIPOS>SUBSTRUCTURE
  1 ****   7 GROUP 4 **** **** 0

# MOE 2024.06 (io_trps.svl 2023.06)
