@<TRIPOS>MOLECULE
8-[(Furan-2-ylmethyl)-amino]-7-(2-hydroxy-propyl)-3-methyl-3,7-dihydro-purine-2,
41 43 1 0 0 
SMALL
USER_CHARGES


@<TRIPOS>ATOM
  1 O        2.4700    -0.3250     1.9670 O.2   1 <1>  -0.5760 
  2 C        3.1750     0.4120     1.3170 C.2   1 <1>   0.6850 
  3 N        4.4770     0.0810     0.9740 N.am  1 <1>  -0.4430 
  4 N        2.6630     1.6090     0.9080 N.am  1 <1>  -0.4970 
  5 C        5.1920     0.9940     0.2140 C.2   1 <1>   0.4190 
  6 C        5.0930    -1.2100     1.3950 C.3   1 <1>   0.0500 
  7 C        3.3570     2.5200     0.1630 C.2   1 <1>   0.6980 
  8 N        6.4660     0.8800    -0.2310 N.pl3 1 <1>  -0.7050 
  9 C        4.7010     2.1810    -0.2070 C.2   1 <1>   0.2690 
 10 O        2.8130     3.5620    -0.1450 O.2   1 <1>  -0.5760 
 11 C        6.7830     1.9740    -0.9070 C.cat 1 <1>   1.0680 
 12 N        5.7320     2.7970    -0.9470 N.pl3 1 <1>  -0.7680 
 13 N        7.9620     2.2340    -1.4570 N.pl3 1 <1>  -0.7190 
 14 C        5.5690     4.0830    -1.7020 C.3   1 <1>   0.3460 
 15 C        9.2350     1.4660    -1.5050 C.3   1 <1>   0.3400 
 16 C        6.4200     5.2550    -1.1550 C.3   1 <1>   0.1910 
 17 C        9.2320     0.2330    -0.6150 C.2   1 <1>  -0.0500 
 18 O        7.7720     4.9940    -1.3320 O.3   1 <1>  -0.6850 
 19 C        6.2040     5.5280     0.3340 C.3   1 <1>  -0.2490 
 20 O        8.5550    -0.8350    -0.9950 O.3   1 <1>  -0.2880 
 21 C        9.8290     0.0110     0.5760 C.2   1 <1>  -0.1590 
 22 C        8.7150    -1.7620    -0.0710 C.2   1 <1>  -0.0210 
 23 C        9.4870    -1.2990     0.9340 C.2   1 <1>  -0.1590 
 24 H        1.7060     1.8260     1.1810 H     1 <1>   0.3620 
 25 H        4.4550    -1.7300     2.0890 H     1 <1>   0.0700 
 26 H        6.0380    -1.0260     1.8760 H     1 <1>   0.0700 
 27 H        5.2460    -1.8370     0.5340 H     1 <1>   0.0700 
 28 H        7.1250     0.1020    -0.1270 H     1 <1>   0.4430 
 29 H        8.0700     3.2210    -1.7320 H     1 <1>   0.4430 
 30 H        4.5360     4.3830    -1.6800 H     1 <1>   0.0700 
 31 H        5.8220     3.9240    -2.7360 H     1 <1>   0.0700 
 32 H       10.0350     2.1140    -1.1880 H     1 <1>   0.0700 
 33 H        9.4350     1.1680    -2.5210 H     1 <1>   0.0700 
 34 H        6.1880     6.1430    -1.7200 H     1 <1>   0.0700 
 35 H        8.2890     5.7740    -1.0310 H     1 <1>   0.3930 
 36 H        6.5130     4.6910     0.9340 H     1 <1>   0.0700 
 37 H        5.1610     5.7130     0.5230 H     1 <1>   0.0700 
 38 H        6.7520     6.4020     0.6380 H     1 <1>   0.0700 
 39 H       10.4510     0.6670     1.1620 H     1 <1>   0.1410 
 40 H        8.2530    -2.7260    -0.2070 H     1 <1>   0.1410 
 41 H        9.8050    -1.8060     1.8300 H     1 <1>   0.1410 
@<TRIPOS>BOND
  1   1   2  2   
  2   2   3  am  
  3   2   4  am  
  4   3   5  1   
  5   3   6  1   
  6   4   7  am  
  7   4  24  1   
  8   5   8  1   
  9   5   9  2   
 10   6  25  1   
 11   6  26  1   
 12   6  27  1   
 13   7   9  1   
 14   7  10  2   
 15   8  11  ar  
 16   8  28  1   
 17   9  12  1   
 18  11  12  ar  
 19  11  13  ar  
 20  12  14  1   
 21  13  15  1   
 22  13  29  1   
 23  14  16  1   
 24  14  30  1   
 25  14  31  1   
 26  15  17  1   
 27  15  32  1   
 28  15  33  1   
 29  16  18  1   
 30  16  19  1   
 31  16  34  1   
 32  17  20  1   
 33  17  21  2   
 34  18  35  1   
 35  19  36  1   
 36  19  37  1   
 37  19  38  1   
 38  20  22  1   
 39  21  23  1   
 40  21  39  1   
 41  22  23  2   
 42  22  40  1   
 43  23  41  1   
@<TRIPOS>SUBSTRUCTURE
  1 ****   8 GROUP 4 **** **** 0

# MOE 2024.06 (io_trps.svl 2023.06)
