@<TRIPOS>MOLECULE
3-Methyl-7-(3-phenoxy-propyl)-8-pyrrolidin-1-yl-3,7-dihydro-purine-2,6-dione
51 54 1 0 0 
SMALL
USER_CHARGES


@<TRIPOS>ATOM
  1 O        1.2400     1.8400    -1.5410 O.2   1 <1>  -0.5740 
  2 C        2.2900     1.9430    -0.9510 C.2   1 <1>   0.6860 
  3 N        3.2890     0.9850    -1.0440 N.am  1 <1>  -0.4410 
  4 N        2.4920     3.0420    -0.1700 N.am  1 <1>  -0.4950 
  5 C        4.4650     1.2140    -0.3440 C.2   1 <1>   0.4210 
  6 C        3.1100    -0.2360    -1.8830 C.3   1 <1>   0.0520 
  7 C        3.6370     3.2740     0.5360 C.2   1 <1>   0.6990 
  8 N        5.5690     0.4250    -0.3000 N.pl3 1 <1>  -0.7040 
  9 C        4.6880     2.3020     0.4250 C.2   1 <1>   0.2710 
 10 O        3.7070     4.2720     1.2240 O.2   1 <1>  -0.5740 
 11 C        6.4820     1.0020     0.4850 C.cat 1 <1>   1.0690 
 12 N        5.9930     2.1680     0.9460 N.pl3 1 <1>  -0.7670 
 13 N        7.6860     0.4300     0.7110 N.pl3 1 <1>  -0.5960 
 14 C        6.6110     3.2800     1.7260 C.3   1 <1>   0.3480 
 15 C        8.6830     0.8260     1.7390 C.3   1 <1>   0.1610 
 16 C        8.1750    -0.7740    -0.0150 C.3   1 <1>   0.1610 
 17 C        7.0680     4.4020     0.7900 C.3   1 <1>  -0.1670 
 18 C        9.7050    -0.3010     1.7750 C.3   1 <1>  -0.1670 
 19 C        9.6340    -0.9250     0.3900 C.3   1 <1>  -0.1670 
 20 C        8.1930     3.9810    -0.1650 C.3   1 <1>   0.1130 
 21 O        8.3180     4.9460    -1.1820 O.3   1 <1>  -0.3680 
 22 C        8.8290     6.1830    -0.9570 C.ar  1 <1>   0.0750 
 23 C        9.6080     6.5150     0.1490 C.ar  1 <1>  -0.1570 
 24 C        8.5400     7.1550    -1.9020 C.ar  1 <1>  -0.1570 
 25 C       10.0760     7.8080     0.3040 C.ar  1 <1>  -0.1570 
 26 C        9.0080     8.4480    -1.7450 C.ar  1 <1>  -0.1570 
 27 C        9.7750     8.7750    -0.6400 C.ar  1 <1>  -0.1570 
 28 H        1.7370     3.7240    -0.1150 H     1 <1>   0.3640 
 29 H        2.1040    -0.2960    -2.2640 H     1 <1>   0.0720 
 30 H        3.2990    -1.1170    -1.2950 H     1 <1>   0.0720 
 31 H        3.7880    -0.2070    -2.7190 H     1 <1>   0.0720 
 32 H        5.6930    -0.4660    -0.7680 H     1 <1>   0.4450 
 33 H        7.4400     2.9400     2.3150 H     1 <1>   0.0720 
 34 H        5.8830     3.6740     2.4160 H     1 <1>   0.0720 
 35 H        8.2230     0.9480     2.7050 H     1 <1>   0.0720 
 36 H        9.1690     1.7390     1.4380 H     1 <1>   0.0720 
 37 H        8.0860    -0.6560    -1.0820 H     1 <1>   0.0720 
 38 H        7.6190    -1.6380     0.3090 H     1 <1>   0.0720 
 39 H        7.4120     5.2220     1.3940 H     1 <1>   0.0720 
 40 H        6.2270     4.7560     0.2200 H     1 <1>   0.0720 
 41 H        9.4140    -1.0240     2.5190 H     1 <1>   0.0720 
 42 H       10.6930     0.0580     2.0110 H     1 <1>   0.0720 
 43 H       10.2550    -0.3720    -0.2950 H     1 <1>   0.0720 
 44 H        9.9490    -1.9540     0.3880 H     1 <1>   0.0720 
 45 H        7.9510     3.0610    -0.6620 H     1 <1>   0.0720 
 46 H        9.1390     3.8620     0.3320 H     1 <1>   0.0720 
 47 H        9.8660     5.7880     0.8930 H     1 <1>   0.1430 
 48 H        7.9450     6.8960    -2.7580 H     1 <1>   0.1430 
 49 H       10.6770     8.0670     1.1590 H     1 <1>   0.1430 
 50 H        8.7770     9.1970    -2.4820 H     1 <1>   0.1430 
 51 H       10.1380     9.7800    -0.5170 H     1 <1>   0.1430 
@<TRIPOS>BOND
  1   1   2  2   
  2   2   3  am  
  3   2   4  am  
  4   3   5  1   
  5   3   6  1   
  6   4   7  am  
  7   4  28  1   
  8   5   8  1   
  9   5   9  2   
 10   6  29  1   
 11   6  30  1   
 12   6  31  1   
 13   7   9  1   
 14   7  10  2   
 15   8  11  ar  
 16   8  32  1   
 17   9  12  1   
 18  11  12  ar  
 19  11  13  ar  
 20  12  14  1   
 21  13  15  1   
 22  13  16  1   
 23  14  17  1   
 24  14  33  1   
 25  14  34  1   
 26  15  18  1   
 27  15  35  1   
 28  15  36  1   
 29  16  19  1   
 30  16  37  1   
 31  16  38  1   
 32  17  20  1   
 33  17  39  1   
 34  17  40  1   
 35  18  19  1   
 36  18  41  1   
 37  18  42  1   
 38  19  43  1   
 39  19  44  1   
 40  20  21  1   
 41  20  45  1   
 42  20  46  1   
 43  21  22  1   
 44  22  23  ar  
 45  22  24  ar  
 46  23  25  ar  
 47  23  47  1   
 48  24  26  ar  
 49  24  48  1   
 50  25  27  ar  
 51  25  49  1   
 52  26  27  ar  
 53  26  50  1   
 54  27  51  1   
@<TRIPOS>SUBSTRUCTURE
  1 ****  12 GROUP 4 **** **** 0

# MOE 2024.06 (io_trps.svl 2023.06)
