@<TRIPOS>MOLECULE
3-[3-(4-tert-Butyl-phenyl)-[1,2,4]oxadiazol-5-yl]-N-ethyl-propionamide
45 46 1 0 0 
SMALL
USER_CHARGES


@<TRIPOS>ATOM
  1 O       -0.1810    -0.5050     1.5270 O.2   1 <1>  -0.5700 
  2 C        0.3060    -1.5470     1.1750 C.2   1 <1>   0.5690 
  3 N        1.5720    -1.5680     0.6970 N.am  1 <1>  -0.7300 
  4 C       -0.5340    -2.8030     1.2620 C.3   1 <1>  -0.0990 
  5 C        2.3810    -2.6900     0.1790 C.3   1 <1>   0.1400 
  6 C       -1.2280    -3.0800    -0.0770 C.3   1 <1>   0.0200 
  7 C        2.8250    -2.3480    -1.2370 C.3   1 <1>  -0.2400 
  8 C       -1.9880    -4.3900    -0.0400 C.2   1 <1>   0.2980 
  9 O       -1.3090    -5.5060     0.0210 O.3   1 <1>  -0.0190 
 10 N       -3.2480    -4.5190    -0.0630 N.2   1 <1>  -0.5650 
 11 N       -2.2190    -6.4270     0.0410 N.2   1 <1>  -0.4100 
 12 C       -3.3680    -5.8500    -0.0080 C.2   1 <1>   0.4620 
 13 C       -4.6570    -6.5230    -0.0060 C.ar  1 <1>   0.0540 
 14 C       -4.7520    -7.9130     0.0430 C.ar  1 <1>  -0.1500 
 15 C       -5.8580    -5.8180    -0.0540 C.ar  1 <1>  -0.1500 
 16 C       -5.9730    -8.5620     0.0460 C.ar  1 <1>  -0.1500 
 17 C       -7.0800    -6.4640    -0.0520 C.ar  1 <1>  -0.1500 
 18 C       -7.1680    -7.8500    -0.0020 C.ar  1 <1>  -0.1430 
 19 C       -8.5560    -8.5270    -0.0010 C.3   1 <1>   0.1430 
 20 C       -9.3570    -8.0560     1.2220 C.3   1 <1>  -0.2400 
 21 C       -9.3120    -8.1490    -1.2840 C.3   1 <1>  -0.2400 
 22 C       -8.4810   -10.0630     0.0570 C.3   1 <1>  -0.2400 
 23 H        2.0360    -0.6570     0.6890 H     1 <1>   0.3700 
 24 H       -1.2790    -2.6660     2.0250 H     1 <1>   0.0800 
 25 H        0.0810    -3.6330     1.5550 H     1 <1>   0.0800 
 26 H        1.8120    -3.6040     0.1700 H     1 <1>   0.0800 
 27 H        3.2410    -2.8300     0.8130 H     1 <1>   0.0800 
 28 H       -0.5050    -3.1230    -0.8700 H     1 <1>   0.0800 
 29 H       -1.9140    -2.2800    -0.2940 H     1 <1>   0.0800 
 30 H        1.9710    -2.2020    -1.8730 H     1 <1>   0.0800 
 31 H        3.4140    -3.1540    -1.6360 H     1 <1>   0.0800 
 32 H        3.4280    -1.4570    -1.2370 H     1 <1>   0.0800 
 33 H       -3.8500    -8.4990     0.0810 H     1 <1>   0.1500 
 34 H       -5.8360    -4.7430    -0.0930 H     1 <1>   0.1500 
 35 H       -5.9620    -9.6350     0.0860 H     1 <1>   0.1500 
 36 H       -7.9720    -5.8660    -0.0900 H     1 <1>   0.1500 
 37 H      -10.3140    -8.5440     1.2610 H     1 <1>   0.0800 
 38 H       -9.5240    -6.9950     1.1910 H     1 <1>   0.0800 
 39 H       -8.8180    -8.2850     2.1240 H     1 <1>   0.0800 
 40 H       -9.4790    -7.0890    -1.3370 H     1 <1>   0.0800 
 41 H      -10.2680    -8.6390    -1.3200 H     1 <1>   0.0800 
 42 H       -8.7420    -8.4440    -2.1460 H     1 <1>   0.0800 
 43 H       -7.9810   -10.3820     0.9540 H     1 <1>   0.0800 
 44 H       -7.9500   -10.4470    -0.7960 H     1 <1>   0.0800 
 45 H       -9.4670   -10.4900     0.0550 H     1 <1>   0.0800 
@<TRIPOS>BOND
  1   1   2  2   
  2   2   3  am  
  3   2   4  1   
  4   3   5  1   
  5   3  23  1   
  6   4   6  1   
  7   4  24  1   
  8   4  25  1   
  9   5   7  1   
 10   5  26  1   
 11   5  27  1   
 12   6   8  1   
 13   6  28  1   
 14   6  29  1   
 15   7  30  1   
 16   7  31  1   
 17   7  32  1   
 18   8   9  1   
 19   8  10  2   
 20   9  11  1   
 21  10  12  1   
 22  11  12  2   
 23  12  13  1   
 24  13  14  ar  
 25  13  15  ar  
 26  14  16  ar  
 27  14  33  1   
 28  15  17  ar  
 29  15  34  1   
 30  16  18  ar  
 31  16  35  1   
 32  17  18  ar  
 33  17  36  1   
 34  18  19  1   
 35  19  20  1   
 36  19  21  1   
 37  19  22  1   
 38  20  37  1   
 39  20  38  1   
 40  20  39  1   
 41  21  40  1   
 42  21  41  1   
 43  21  42  1   
 44  22  43  1   
 45  22  44  1   
 46  22  45  1   
@<TRIPOS>SUBSTRUCTURE
  1 ****  12 GROUP 4 **** **** 0

# MOE 2024.06 (io_trps.svl 2023.06)
