@<TRIPOS>MOLECULE
2-Methylamino-cyclohexanol
25 25 1 0 0 
SMALL
USER_CHARGES


@<TRIPOS>ATOM
  1 O       -0.0640    -0.5280     0.7190 O.3   1 <1>  -0.6800 
  2 C       -1.3900    -0.9620     0.7660 C.3   1 <1>   0.2000 
  3 C       -1.4550    -2.4970     0.4950 C.3   1 <1>   0.4230 
  4 C       -2.1900    -0.1510    -0.2580 C.3   1 <1>  -0.1600 
  5 N       -0.2720    -2.9130    -0.3000 N.4   1 <1>  -0.9060 
  6 C       -2.7330    -2.9300    -0.2450 C.3   1 <1>  -0.1600 
  7 C       -3.6750    -0.5620    -0.2710 C.3   1 <1>  -0.1600 
  8 C        0.1380    -4.3330    -0.1200 C.3   1 <1>   0.2630 
  9 C       -3.9230    -2.0320     0.1200 C.3   1 <1>  -0.1600 
 10 H       -0.0120     0.4280     0.9410 H     1 <1>   0.4000 
 11 H       -1.7740    -0.7610     1.7530 H     1 <1>   0.0800 
 12 H       -1.4290    -2.9840     1.4560 H     1 <1>   0.0800 
 13 H       -1.7770    -0.3150    -1.2390 H     1 <1>   0.0800 
 14 H       -2.1220     0.9010    -0.0390 H     1 <1>   0.0800 
 15 H        0.4670    -2.2540     0.0140 H     1 <1>   0.4500 
 16 H       -0.4340    -2.6760    -1.2840 H     1 <1>   0.4500 
 17 H       -2.9660    -3.9490     0.0110 H     1 <1>   0.0800 
 18 H       -2.5920    -2.8740    -1.3110 H     1 <1>   0.0800 
 19 H       -4.0710    -0.3830    -1.2570 H     1 <1>   0.0800 
 20 H       -4.2300     0.0680     0.4060 H     1 <1>   0.0800 
 21 H        0.3480    -4.5320     0.9180 H     1 <1>   0.0800 
 22 H        1.0270    -4.5390    -0.6960 H     1 <1>   0.0800 
 23 H       -0.6470    -4.9940    -0.4490 H     1 <1>   0.0800 
 24 H       -4.1010    -2.0930     1.1810 H     1 <1>   0.0800 
 25 H       -4.8150    -2.3850    -0.3710 H     1 <1>   0.0800 
@<TRIPOS>BOND
  1   1   2  1   
  2   1  10  1   
  3   2   3  1   
  4   2   4  1   
  5   2  11  1   
  6   3   5  1   
  7   3   6  1   
  8   3  12  1   
  9   4   7  1   
 10   4  13  1   
 11   4  14  1   
 12   5   8  1   
 13   5  15  1   
 14   5  16  1   
 15   6   9  1   
 16   6  17  1   
 17   6  18  1   
 18   7   9  1   
 19   7  19  1   
 20   7  20  1   
 21   8  21  1   
 22   8  22  1   
 23   8  23  1   
 24   9  24  1   
 25   9  25  1   
@<TRIPOS>SUBSTRUCTURE
  1 ****   3 GROUP 4 **** **** 0

# MOE 2024.06 (io_trps.svl 2023.06)
