@<TRIPOS>MOLECULE
Cyclohexyl-[3-(3,4-dimethoxy-phenyl)-[1,2,4]oxadiazol-5-ylmethyl]-amine
46 48 1 0 0 
SMALL
USER_CHARGES


@<TRIPOS>ATOM
  1 O       -0.3930    -0.2050     0.7400 O.3   1 <1>  -0.0190 
  2 N       -1.6430     0.0640     0.5270 N.2   1 <1>  -0.4100 
  3 C       -0.3490    -1.5110     0.7780 C.2   1 <1>   0.2980 
  4 C       -2.2790    -1.0510     0.4440 C.2   1 <1>   0.4620 
  5 N       -1.4640    -2.0980     0.6130 N.2   1 <1>  -0.5650 
  6 C        0.9960    -2.1810     1.0300 C.3   1 <1>   0.2900 
  7 C       -3.7040    -1.2010     0.2030 C.ar  1 <1>   0.0540 
  8 N        2.0070    -1.8060     0.0220 N.3   1 <1>  -0.9000 
  9 C       -4.5390    -0.0910     0.0750 C.ar  1 <1>  -0.1500 
 10 C       -4.3040    -2.4550     0.0890 C.ar  1 <1>  -0.1500 
 11 C        3.3560    -2.2360     0.3580 C.3   1 <1>   0.1900 
 12 C       -5.8990    -0.2080    -0.1480 C.ar  1 <1>   0.0830 
 13 C       -5.6590    -2.5970    -0.1450 C.ar  1 <1>  -0.1500 
 14 C        4.3280    -1.4510    -0.5280 C.3   1 <1>  -0.1600 
 15 C        3.5030    -3.7460     0.1210 C.3   1 <1>  -0.1600 
 16 O       -6.5740     0.9720    -0.2340 O.3   1 <1>  -0.3630 
 17 C       -6.4790    -1.4800    -0.2760 C.ar  1 <1>   0.0830 
 18 C        5.7790    -1.9050    -0.3110 C.3   1 <1>  -0.1600 
 19 C        4.9520    -4.2100     0.3330 C.3   1 <1>  -0.1600 
 20 C       -7.8680     1.0980     0.3150 C.3   1 <1>   0.0400 
 21 O       -7.8110    -1.6000    -0.5410 O.3   1 <1>  -0.3630 
 22 C        5.9260    -3.4130    -0.5460 C.3   1 <1>  -0.1600 
 23 C       -8.4050    -2.8390    -0.8570 C.3   1 <1>   0.0400 
 24 H        0.8530    -3.2470     1.0150 H     1 <1>   0.0800 
 25 H        1.3350    -1.8970     2.0100 H     1 <1>   0.0800 
 26 H        2.0110    -0.7810    -0.0520 H     1 <1>   0.3600 
 27 H       -4.1210     0.8960     0.1550 H     1 <1>   0.1500 
 28 H       -3.6950    -3.3380     0.1840 H     1 <1>   0.1500 
 29 H        3.5710    -2.0080     1.3900 H     1 <1>   0.0800 
 30 H       -6.0530    -3.5920    -0.2240 H     1 <1>   0.1500 
 31 H        4.2510    -0.4020    -0.3080 H     1 <1>   0.0800 
 32 H        4.0660    -1.6030    -1.5610 H     1 <1>   0.0800 
 33 H        3.2050    -3.9730    -0.8880 H     1 <1>   0.0800 
 34 H        2.8680    -4.2920     0.7940 H     1 <1>   0.0800 
 35 H        6.0820    -1.6690     0.6950 H     1 <1>   0.0800 
 36 H        6.4270    -1.3710    -0.9840 H     1 <1>   0.0800 
 37 H        5.0330    -5.2570     0.0990 H     1 <1>   0.0800 
 38 H        5.2210    -4.0810     1.3670 H     1 <1>   0.0800 
 39 H       -8.0490     2.1400     0.5090 H     1 <1>   0.0800 
 40 H       -7.9190     0.5360     1.2300 H     1 <1>   0.0800 
 41 H       -8.5840     0.7330    -0.3980 H     1 <1>   0.0800 
 42 H        6.9360    -3.7160    -0.3330 H     1 <1>   0.0800 
 43 H        5.7280    -3.6320    -1.5820 H     1 <1>   0.0800 
 44 H       -9.4380    -2.6620    -1.0970 H     1 <1>   0.0800 
 45 H       -8.3370    -3.4880    -0.0020 H     1 <1>   0.0800 
 46 H       -7.9000    -3.2630    -1.7070 H     1 <1>   0.0800 
@<TRIPOS>BOND
  1   1   2  1   
  2   1   3  1   
  3   2   4  2   
  4   3   5  2   
  5   3   6  1   
  6   4   5  1   
  7   4   7  1   
  8   6   8  1   
  9   6  24  1   
 10   6  25  1   
 11   7   9  ar  
 12   7  10  ar  
 13   8  11  1   
 14   8  26  1   
 15   9  12  ar  
 16   9  27  1   
 17  10  13  ar  
 18  10  28  1   
 19  11  14  1   
 20  11  15  1   
 21  11  29  1   
 22  12  16  1   
 23  12  17  ar  
 24  13  17  ar  
 25  13  30  1   
 26  14  18  1   
 27  14  31  1   
 28  14  32  1   
 29  15  19  1   
 30  15  33  1   
 31  15  34  1   
 32  16  20  1   
 33  17  21  1   
 34  18  22  1   
 35  18  35  1   
 36  18  36  1   
 37  19  22  1   
 38  19  37  1   
 39  19  38  1   
 40  20  39  1   
 41  20  40  1   
 42  20  41  1   
 43  21  23  1   
 44  22  42  1   
 45  22  43  1   
 46  23  44  1   
 47  23  45  1   
 48  23  46  1   
@<TRIPOS>SUBSTRUCTURE
  1 ****   5 GROUP 4 **** **** 0

# MOE 2024.06 (io_trps.svl 2023.06)
