@<TRIPOS>MOLECULE
N-[3-(4-Chloro-phenyl)-[1,2,4]oxadiazol-5-ylmethyl]-isobutyramide
33 34 1 0 0 
SMALL
USER_CHARGES


@<TRIPOS>ATOM
  1 CL       0.0720     1.1970     1.0630 Cl    1 <1>  -0.1770 
  2 C        1.6620     1.7830     0.6480 C.ar  1 <1>   0.1770 
  3 C        1.8000     3.0380     0.0880 C.ar  1 <1>  -0.1500 
  4 C        2.7650     0.9870     0.8850 C.ar  1 <1>  -0.1500 
  5 C        3.0640     3.4980    -0.2390 C.ar  1 <1>  -0.1500 
  6 C        4.0230     1.4570     0.5530 C.ar  1 <1>  -0.1500 
  7 C        4.2070     2.7220    -0.0160 C.ar  1 <1>   0.0540 
  8 C        5.5360     3.2030    -0.3590 C.2   1 <1>   0.4620 
  9 N        6.6330     2.5500    -0.2090 N.2   1 <1>  -0.4100 
 10 N        5.7530     4.4150    -0.8830 N.2   1 <1>  -0.5650 
 11 O        7.6060     3.3010    -0.6160 O.3   1 <1>  -0.0190 
 12 C        7.0170     4.4010    -1.0040 C.2   1 <1>   0.2980 
 13 C        7.8770     5.5290    -1.5570 C.3   1 <1>   0.3200 
 14 N        8.8500     6.0280    -0.5480 N.am  1 <1>  -0.7300 
 15 C        8.8180     7.1500     0.2090 C.2   1 <1>   0.5690 
 16 O        9.6680     7.2920     1.0510 O.2   1 <1>  -0.5700 
 17 C        7.7300     8.2230     0.0290 C.3   1 <1>  -0.0190 
 18 C        8.2040     9.6250     0.4520 C.3   1 <1>  -0.2400 
 19 C        6.4570     7.8570     0.8090 C.3   1 <1>  -0.2400 
 20 H        0.9280     3.6420    -0.0870 H     1 <1>   0.1500 
 21 H        2.6350     0.0130     1.3220 H     1 <1>   0.1500 
 22 H        3.1660     4.4770    -0.6750 H     1 <1>   0.1500 
 23 H        4.8800     0.8320     0.7390 H     1 <1>   0.1500 
 24 H        7.2320     6.3230    -1.8850 H     1 <1>   0.0800 
 25 H        8.4170     5.1670    -2.4130 H     1 <1>   0.0800 
 26 H        9.5850     5.3680    -0.2830 H     1 <1>   0.3700 
 27 H        7.4870     8.2840    -1.0150 H     1 <1>   0.0800 
 28 H        8.4370     9.6410     1.5030 H     1 <1>   0.0800 
 29 H        7.4430    10.3590     0.2560 H     1 <1>   0.0800 
 30 H        9.0920     9.8950    -0.0930 H     1 <1>   0.0800 
 31 H        6.6720     7.8020     1.8620 H     1 <1>   0.0800 
 32 H        6.0770     6.9030     0.4920 H     1 <1>   0.0800 
 33 H        5.6920     8.5970     0.6520 H     1 <1>   0.0800 
@<TRIPOS>BOND
  1   1   2  1   
  2   2   3  ar  
  3   2   4  ar  
  4   3   5  ar  
  5   3  20  1   
  6   4   6  ar  
  7   4  21  1   
  8   5   7  ar  
  9   5  22  1   
 10   6   7  ar  
 11   6  23  1   
 12   7   8  1   
 13   8   9  2   
 14   8  10  1   
 15   9  11  1   
 16  10  12  2   
 17  11  12  1   
 18  12  13  1   
 19  13  14  1   
 20  13  24  1   
 21  13  25  1   
 22  14  15  am  
 23  14  26  1   
 24  15  16  2   
 25  15  17  1   
 26  17  18  1   
 27  17  19  1   
 28  17  27  1   
 29  18  28  1   
 30  18  29  1   
 31  18  30  1   
 32  19  31  1   
 33  19  32  1   
 34  19  33  1   
@<TRIPOS>SUBSTRUCTURE
  1 ****  10 GROUP 4 **** **** 0

# MOE 2024.06 (io_trps.svl 2023.06)
