@<TRIPOS>MOLECULE
N-(3-o-Tolyl-[1,2,4]oxadiazol-5-ylmethyl)-propionamide
33 34 1 0 0 
SMALL
USER_CHARGES


@<TRIPOS>ATOM
  1 O       -0.9600    -1.0760     1.8070 O.2   1 <1>  -0.5700 
  2 C       -1.8700    -0.8490     1.0530 C.2   1 <1>   0.5690 
  3 N       -3.1270    -1.1620     1.4340 N.am  1 <1>  -0.7300 
  4 C       -1.6060    -0.2170    -0.3110 C.3   1 <1>  -0.0990 
  5 C       -4.4020    -1.0040     0.6860 C.3   1 <1>   0.3200 
  6 C       -0.1170    -0.0550    -0.6630 C.3   1 <1>  -0.2400 
  7 C       -4.8550    -2.3150     0.0600 C.2   1 <1>   0.2980 
  8 O       -4.1520    -2.8100    -0.9230 O.3   1 <1>  -0.0190 
  9 N       -5.8740    -2.9910     0.3980 N.2   1 <1>  -0.5650 
 10 N       -4.7740    -3.9020    -1.2370 N.2   1 <1>  -0.4100 
 11 C       -5.7910    -4.0150    -0.4590 C.2   1 <1>   0.4620 
 12 C       -6.7290    -5.1250    -0.4690 C.ar  1 <1>   0.0540 
 13 C       -8.1230    -4.9720    -0.4610 C.ar  1 <1>  -0.1440 
 14 C       -6.2200    -6.4250    -0.4940 C.ar  1 <1>  -0.1500 
 15 C       -8.9490    -6.0860    -0.4590 C.ar  1 <1>  -0.1500 
 16 C       -8.7750    -3.5950    -0.4630 C.3   1 <1>  -0.0970 
 17 C       -7.0470    -7.5310    -0.4960 C.ar  1 <1>  -0.1500 
 18 C       -8.4180    -7.3620    -0.4760 C.ar  1 <1>  -0.1500 
 19 H       -3.1980    -1.6530     2.3290 H     1 <1>   0.3700 
 20 H       -2.0710     0.7510    -0.3290 H     1 <1>   0.0800 
 21 H       -2.0670    -0.8280    -1.0640 H     1 <1>   0.0800 
 22 H       -4.2930    -0.2650    -0.0880 H     1 <1>   0.0800 
 23 H       -5.1620    -0.6610     1.3650 H     1 <1>   0.0800 
 24 H        0.3700     0.5750     0.0610 H     1 <1>   0.0800 
 25 H       -0.0080     0.3880    -1.6370 H     1 <1>   0.0800 
 26 H        0.3700    -1.0140    -0.6620 H     1 <1>   0.0800 
 27 H       -5.1540    -6.5670    -0.5100 H     1 <1>   0.1500 
 28 H      -10.0180    -5.9680    -0.4460 H     1 <1>   0.1500 
 29 H       -8.3140    -2.9650    -1.2020 H     1 <1>   0.0800 
 30 H       -8.6660    -3.1380     0.5040 H     1 <1>   0.0800 
 31 H       -9.8240    -3.6630    -0.6910 H     1 <1>   0.0800 
 32 H       -6.6260    -8.5220    -0.5130 H     1 <1>   0.1500 
 33 H       -9.0690    -8.2190    -0.4750 H     1 <1>   0.1500 
@<TRIPOS>BOND
  1   1   2  2   
  2   2   3  am  
  3   2   4  1   
  4   3   5  1   
  5   3  19  1   
  6   4   6  1   
  7   4  20  1   
  8   4  21  1   
  9   5   7  1   
 10   5  22  1   
 11   5  23  1   
 12   6  24  1   
 13   6  25  1   
 14   6  26  1   
 15   7   8  1   
 16   7   9  2   
 17   8  10  1   
 18   9  11  1   
 19  10  11  2   
 20  11  12  1   
 21  12  13  ar  
 22  12  14  ar  
 23  13  15  ar  
 24  13  16  1   
 25  14  17  ar  
 26  14  27  1   
 27  15  18  ar  
 28  15  28  1   
 29  16  29  1   
 30  16  30  1   
 31  16  31  1   
 32  17  18  ar  
 33  17  32  1   
 34  18  33  1   
@<TRIPOS>SUBSTRUCTURE
  1 ****  11 GROUP 4 **** **** 0

# MOE 2024.06 (io_trps.svl 2023.06)
