@<TRIPOS>MOLECULE
1-(2-Cyano-ethyl)-3-thiophen-2-yl-1H-pyrazole-4-carboxylic acid dimethylamide
33 34 1 0 0 
SMALL
USER_CHARGES


@<TRIPOS>ATOM
  1 S        1.6650    -0.1420     1.3990 S.3   1 <1>  -0.0800 
  2 C        2.6080     0.6350     0.1210 C.2   1 <1>   0.0410 
  3 C        0.2630     0.8600     1.0790 C.2   1 <1>  -0.1100 
  4 C        3.9630     0.1930    -0.1020 C.2   1 <1>   0.2880 
  5 C        1.8330     1.5830    -0.4670 C.2   1 <1>  -0.1500 
  6 C        0.5180     1.7120     0.0710 C.2   1 <1>  -0.1500 
  7 N        4.3900    -1.0080     0.2040 N.2   1 <1>  -0.7070 
  8 C        4.9910     0.9570    -0.6830 C.2   1 <1>  -0.0860 
  9 N        5.6630    -1.0560    -0.2010 N.pl3 1 <1>   0.3140 
 10 C        4.9100     2.3300    -1.1030 C.2   1 <1>   0.7160 
 11 C        6.0490     0.1050    -0.7380 C.2   1 <1>  -0.3020 
 12 C        6.4700    -2.2790    -0.0620 C.3   1 <1>   0.0960 
 13 O        5.1270     2.6040    -2.2690 O.2   1 <1>  -0.5700 
 14 N        4.6050     3.3470    -0.2160 N.am  1 <1>  -0.6600 
 15 C        5.7720    -3.4540    -0.7510 C.3   1 <1>   0.0400 
 16 C        4.5230     3.1560     1.2600 C.3   1 <1>   0.0600 
 17 C        4.3840     4.7490    -0.6680 C.3   1 <1>   0.0600 
 18 C        6.6320    -4.6610    -0.6760 C.1   1 <1>   0.3570 
 19 N        7.3190    -5.5640    -0.6100 N.1   1 <1>  -0.5570 
 20 H       -0.6100     0.7010     1.6860 H     1 <1>   0.1500 
 21 H        2.1480     2.2080    -1.2850 H     1 <1>   0.1500 
 22 H       -0.1740     2.4350    -0.3250 H     1 <1>   0.1500 
 23 H        7.0320     0.2890    -1.1310 H     1 <1>   0.1500 
 24 H        6.5940    -2.4840     0.9860 H     1 <1>   0.0800 
 25 H        7.4360    -2.1080    -0.5010 H     1 <1>   0.0800 
 26 H        5.5890    -3.2230    -1.7850 H     1 <1>   0.0800 
 27 H        4.8350    -3.6670    -0.2670 H     1 <1>   0.0800 
 28 H        5.0420     3.9550     1.7610 H     1 <1>   0.0800 
 29 H        4.9720     2.2250     1.5580 H     1 <1>   0.0800 
 30 H        3.4920     3.1600     1.5700 H     1 <1>   0.0800 
 31 H        4.3010     4.8010    -1.7400 H     1 <1>   0.0800 
 32 H        5.2100     5.3640    -0.3560 H     1 <1>   0.0800 
 33 H        3.4740     5.1320    -0.2380 H     1 <1>   0.0800 
@<TRIPOS>BOND
  1   1   2  1   
  2   1   3  1   
  3   2   4  1   
  4   2   5  2   
  5   3   6  2   
  6   3  20  1   
  7   4   7  2   
  8   4   8  1   
  9   5   6  1   
 10   5  21  1   
 11   6  22  1   
 12   7   9  1   
 13   8  10  1   
 14   8  11  2   
 15   9  11  1   
 16   9  12  1   
 17  10  13  2   
 18  10  14  am  
 19  11  23  1   
 20  12  15  1   
 21  12  24  1   
 22  12  25  1   
 23  14  16  1   
 24  14  17  1   
 25  15  18  1   
 26  15  26  1   
 27  15  27  1   
 28  16  28  1   
 29  16  29  1   
 30  16  30  1   
 31  17  31  1   
 32  17  32  1   
 33  17  33  1   
 34  18  19  3   
@<TRIPOS>SUBSTRUCTURE
  1 ****   4 GROUP 4 **** **** 0

# MOE 2024.06 (io_trps.svl 2023.06)
