@<TRIPOS>MOLECULE
5-(4-Ethoxy-phenoxymethyl)-furan-2-carboxylic acid (tetrahydro-furan-2-ylmethyl)
48 50 1 0 0 
SMALL
USER_CHARGES


@<TRIPOS>ATOM
  1 O       -0.2550    -0.9290    -0.3180 O.2   1 <1>  -0.5700 
  2 C       -0.5430    -1.9090    -0.9790 C.2   1 <1>   0.7150 
  3 N        0.4780    -2.6360    -1.5290 N.am  1 <1>  -0.7300 
  4 C       -1.9140    -2.3260    -1.1830 C.2   1 <1>   0.0550 
  5 C        1.9270    -2.3180    -1.3920 C.3   1 <1>   0.1400 
  6 O       -2.9230    -1.6720    -0.6140 O.3   1 <1>  -0.2800 
  7 C       -2.4350    -3.3560    -1.9100 C.2   1 <1>  -0.1500 
  8 C        2.4470    -2.5960     0.0270 C.3   1 <1>   0.2000 
  9 C       -4.0570    -2.2450    -0.9490 C.2   1 <1>  -0.0400 
 10 C       -3.8200    -3.3010    -1.7570 C.2   1 <1>  -0.1500 
 11 O        3.8350    -2.5300     0.0270 O.3   1 <1>  -0.5600 
 12 C        2.1510    -3.9910     0.5670 C.3   1 <1>  -0.1600 
 13 C       -5.3510    -1.6630    -0.4110 C.3   1 <1>   0.3000 
 14 C        4.3370    -3.1770     1.1500 C.3   1 <1>   0.1200 
 15 C        3.3110    -4.2470     1.5180 C.3   1 <1>  -0.1600 
 16 O       -6.4460    -2.4250    -0.8790 O.3   1 <1>  -0.3630 
 17 C       -7.7190    -2.1010    -0.5340 C.ar  1 <1>   0.0830 
 18 C       -8.7230    -2.9090    -1.0420 C.ar  1 <1>  -0.1500 
 19 C       -8.0540    -1.0250     0.2850 C.ar  1 <1>  -0.1500 
 20 C      -10.0480    -2.6510    -0.7410 C.ar  1 <1>  -0.1500 
 21 C       -9.3810    -0.7680     0.5870 C.ar  1 <1>  -0.1500 
 22 C      -10.3870    -1.5830     0.0730 C.ar  1 <1>   0.0830 
 23 O      -11.7110    -1.4010     0.3190 O.3   1 <1>  -0.3620 
 24 C      -12.1630    -0.3440     1.1330 C.3   1 <1>   0.1200 
 25 C      -13.6840    -0.4220     1.2050 C.3   1 <1>  -0.2400 
 26 H        0.2530    -3.4850    -2.0450 H     1 <1>   0.3700 
 27 H        2.0820    -1.2770    -1.6180 H     1 <1>   0.0800 
 28 H        2.4840    -2.9100    -2.0960 H     1 <1>   0.0800 
 29 H       -1.9150    -4.0880    -2.5010 H     1 <1>   0.1500 
 30 H        2.0870    -1.8430     0.7080 H     1 <1>   0.0800 
 31 H       -4.5370    -3.9710    -2.1990 H     1 <1>   0.1500 
 32 H        2.1680    -4.7050    -0.2370 H     1 <1>   0.0800 
 33 H        1.1950    -4.0270     1.0590 H     1 <1>   0.0800 
 34 H       -5.4680    -0.6510    -0.7540 H     1 <1>   0.0800 
 35 H       -5.3480    -1.6950     0.6640 H     1 <1>   0.0800 
 36 H        4.4410    -2.4490     1.9370 H     1 <1>   0.0800 
 37 H        5.2970    -3.5970     0.9050 H     1 <1>   0.0800 
 38 H        3.7170    -5.2340     1.3870 H     1 <1>   0.0800 
 39 H        3.0090    -4.1230     2.5430 H     1 <1>   0.0800 
 40 H       -8.4620    -3.7380    -1.6740 H     1 <1>   0.1500 
 41 H       -7.3040    -0.3780     0.6980 H     1 <1>   0.1500 
 42 H      -10.8280    -3.2770    -1.1350 H     1 <1>   0.1500 
 43 H       -9.6120     0.0670     1.2200 H     1 <1>   0.1500 
 44 H      -11.8500     0.5860     0.6900 H     1 <1>   0.0800 
 45 H      -11.7300    -0.4590     2.1120 H     1 <1>   0.0800 
 46 H      -14.1050    -0.3240     0.2210 H     1 <1>   0.0800 
 47 H      -14.0620     0.3730     1.8210 H     1 <1>   0.0800 
 48 H      -13.9860    -1.3620     1.6330 H     1 <1>   0.0800 
@<TRIPOS>BOND
  1   1   2  2   
  2   2   3  am  
  3   2   4  1   
  4   3   5  1   
  5   3  26  1   
  6   4   6  1   
  7   4   7  2   
  8   5   8  1   
  9   5  27  1   
 10   5  28  1   
 11   6   9  1   
 12   7  10  1   
 13   7  29  1   
 14   8  11  1   
 15   8  12  1   
 16   8  30  1   
 17   9  10  2   
 18   9  13  1   
 19  10  31  1   
 20  11  14  1   
 21  12  15  1   
 22  12  32  1   
 23  12  33  1   
 24  13  16  1   
 25  13  34  1   
 26  13  35  1   
 27  14  15  1   
 28  14  36  1   
 29  14  37  1   
 30  15  38  1   
 31  15  39  1   
 32  16  17  1   
 33  17  18  ar  
 34  17  19  ar  
 35  18  20  ar  
 36  18  40  1   
 37  19  21  ar  
 38  19  41  1   
 39  20  22  ar  
 40  20  42  1   
 41  21  22  ar  
 42  21  43  1   
 43  22  23  1   
 44  23  24  1   
 45  24  25  1   
 46  24  44  1   
 47  24  45  1   
 48  25  46  1   
 49  25  47  1   
 50  25  48  1   
@<TRIPOS>SUBSTRUCTURE
  1 ****   9 GROUP 4 **** **** 0

# MOE 2024.06 (io_trps.svl 2023.06)
