@<TRIPOS>MOLECULE
1,3-Dimethyl-8-morpholin-4-ylmethyl-7-((E)-3-phenyl-allyl)-3,7-dihydro-purine-2,
55 58 1 0 0 
SMALL
USER_CHARGES


@<TRIPOS>ATOM
  1 O        0.7110    -0.3840     0.1080 O.2   1 <1>  -0.5700 
  2 C        1.5320     0.5090     0.1420 C.2   1 <1>   0.6900 
  3 N        1.1290     1.8310    -0.0160 N.am  1 <1>  -0.4200 
  4 N        2.8720     0.2080     0.3310 N.am  1 <1>  -0.4360 
  5 C        2.0550     2.8650    -0.0520 C.2   1 <1>   0.7030 
  6 C       -0.3290     2.1240    -0.1880 C.3   1 <1>   0.0600 
  7 C        3.7840     1.2450     0.2850 C.2   1 <1>   0.4260 
  8 C        3.3180    -1.2010     0.5440 C.3   1 <1>   0.0600 
  9 O        1.6950     4.0200    -0.2060 O.2   1 <1>  -0.5700 
 10 C        3.4460     2.5420     0.0980 C.2   1 <1>   0.2770 
 11 N        5.1280     1.1800     0.4090 N.pl3 1 <1>  -0.7000 
 12 N        4.6380     3.2800     0.1070 N.pl3 1 <1>  -0.7640 
 13 C        5.6290     2.4040     0.3020 C.cat 1 <1>   0.6560 
 14 C        4.6350     4.7660    -0.0280 C.3   1 <1>   0.4920 
 15 C        7.1530     2.6160     0.4300 C.3   1 <1>   0.2540 
 16 C        5.9930     5.2480    -0.4830 C.2   1 <1>  -0.2880 
 17 N        7.8990     1.3240     0.4400 N.3   1 <1>  -0.8100 
 18 C        6.8780     5.9120     0.2820 C.2   1 <1>  -0.1780 
 19 C        8.1510     0.8330    -0.9390 C.3   1 <1>   0.1100 
 20 C        9.2000     1.4750     1.1310 C.3   1 <1>   0.1100 
 21 C        8.2050     6.3530    -0.0860 C.ar  1 <1>   0.0280 
 22 C        8.9830    -0.4620    -0.9230 C.3   1 <1>   0.1200 
 23 C       10.0150     0.1690     1.0830 C.3   1 <1>   0.1200 
 24 C        9.1080     6.7330     0.9030 C.ar  1 <1>  -0.1500 
 25 C        8.6370     6.4060    -1.4100 C.ar  1 <1>  -0.1500 
 26 O       10.1810    -0.2500    -0.2390 O.3   1 <1>  -0.5600 
 27 C       10.3930     7.1360     0.5890 C.ar  1 <1>  -0.1500 
 28 C        9.9210     6.8070    -1.7310 C.ar  1 <1>  -0.1500 
 29 C       10.8030     7.1710    -0.7310 C.ar  1 <1>  -0.1500 
 30 H       -0.5530     3.1460     0.0670 H     1 <1>   0.0800 
 31 H       -0.9140     1.4840     0.4510 H     1 <1>   0.0800 
 32 H       -0.6140     1.9470    -1.2100 H     1 <1>   0.0800 
 33 H        4.1260    -1.2360     1.2540 H     1 <1>   0.0800 
 34 H        3.6430    -1.6240    -0.3900 H     1 <1>   0.0800 
 35 H        2.5100    -1.8000     0.9300 H     1 <1>   0.0800 
 36 H        5.7440     0.3770     0.5760 H     1 <1>   0.4500 
 37 H        3.8980     5.0760    -0.7500 H     1 <1>   0.0800 
 38 H        4.3800     5.2080     0.9220 H     1 <1>   0.0800 
 39 H        7.3280     3.1390     1.3530 H     1 <1>   0.0800 
 40 H        7.5190     3.2280    -0.3740 H     1 <1>   0.0800 
 41 H        6.1850     4.9850    -1.5080 H     1 <1>   0.1500 
 42 H        6.6230     6.1570     1.3000 H     1 <1>   0.1500 
 43 H        7.2200     0.6410    -1.4420 H     1 <1>   0.0800 
 44 H        8.6910     1.5740    -1.5050 H     1 <1>   0.0800 
 45 H        9.7800     2.2580     0.6700 H     1 <1>   0.0800 
 46 H        9.0360     1.7420     2.1610 H     1 <1>   0.0800 
 47 H        9.2300    -0.7620    -1.9260 H     1 <1>   0.0800 
 48 H        8.4470    -1.2610    -0.4420 H     1 <1>   0.0800 
 49 H        9.5190    -0.6120     1.6340 H     1 <1>   0.0800 
 50 H       10.9930     0.3230     1.5040 H     1 <1>   0.0800 
 51 H        8.8090     6.7150     1.9360 H     1 <1>   0.1500 
 52 H        7.9690     6.1400    -2.2080 H     1 <1>   0.1500 
 53 H       11.0760     7.4240     1.3690 H     1 <1>   0.1500 
 54 H       10.2360     6.8400    -2.7600 H     1 <1>   0.1500 
 55 H       11.8030     7.4840    -0.9790 H     1 <1>   0.1500 
@<TRIPOS>BOND
  1   1   2  2   
  2   2   3  am  
  3   2   4  am  
  4   3   5  am  
  5   3   6  1   
  6   4   7  1   
  7   4   8  1   
  8   5   9  2   
  9   5  10  1   
 10   6  30  1   
 11   6  31  1   
 12   6  32  1   
 13   7  10  2   
 14   7  11  1   
 15   8  33  1   
 16   8  34  1   
 17   8  35  1   
 18  10  12  1   
 19  11  13  ar  
 20  11  36  1   
 21  12  13  ar  
 22  12  14  1   
 23  13  15  1   
 24  14  16  1   
 25  14  37  1   
 26  14  38  1   
 27  15  17  1   
 28  15  39  1   
 29  15  40  1   
 30  16  18  2   
 31  16  41  1   
 32  17  19  1   
 33  17  20  1   
 34  18  21  1   
 35  18  42  1   
 36  19  22  1   
 37  19  43  1   
 38  19  44  1   
 39  20  23  1   
 40  20  45  1   
 41  20  46  1   
 42  21  24  ar  
 43  21  25  ar  
 44  22  26  1   
 45  22  47  1   
 46  22  48  1   
 47  23  26  1   
 48  23  49  1   
 49  23  50  1   
 50  24  27  ar  
 51  24  51  1   
 52  25  28  ar  
 53  25  52  1   
 54  27  29  ar  
 55  27  53  1   
 56  28  29  ar  
 57  28  54  1   
 58  29  55  1   
@<TRIPOS>SUBSTRUCTURE
  1 ****  13 GROUP 4 **** **** 0

# MOE 2024.06 (io_trps.svl 2023.06)
