@<TRIPOS>MOLECULE
N-(2,5-Dimethyl-phenyl)-3-[3-(3,4,5-trimethoxy-phenyl)-[1,2,4]oxadiazol-5-yl]-pr
55 57 1 0 0 
SMALL
USER_CHARGES


@<TRIPOS>ATOM
  1 O       -0.1550    -0.5160    -0.4520 O.2   1 <1>  -0.5700 
  2 C        0.4530    -1.5550    -0.4130 C.2   1 <1>   0.5690 
  3 N        1.7960    -1.5560    -0.6070 N.am  1 <1>  -0.5470 
  4 C       -0.2830    -2.8540    -0.1300 C.3   1 <1>  -0.0990 
  5 C        2.6950    -2.6270    -0.5960 C.ar  1 <1>   0.1170 
  6 C       -1.6310    -2.6340     0.5730 C.3   1 <1>   0.0200 
  7 C        3.7270    -2.6850     0.3400 C.ar  1 <1>  -0.1430 
  8 C        2.5650    -3.6490    -1.5290 C.ar  1 <1>  -0.1500 
  9 C       -2.3060    -3.9550     0.8810 C.2   1 <1>   0.2980 
 10 C        4.5960    -3.7640     0.3300 C.ar  1 <1>  -0.1500 
 11 C        3.9100    -1.5860     1.3790 C.3   1 <1>  -0.0960 
 12 C        3.4320    -4.7260    -1.5360 C.ar  1 <1>  -0.1430 
 13 O       -1.7840    -4.7280     1.7970 O.3   1 <1>  -0.0190 
 14 N       -3.3520    -4.4030     0.3220 N.2   1 <1>  -0.5650 
 15 C        4.4490    -4.7790    -0.5980 C.ar  1 <1>  -0.1500 
 16 C        3.2800    -5.8430    -2.5530 C.3   1 <1>  -0.0970 
 17 N       -2.5670    -5.7600     1.8220 N.2   1 <1>  -0.4100 
 18 C       -3.4970    -5.5730     0.9540 C.2   1 <1>   0.4620 
 19 C       -4.5860    -6.4920     0.6640 C.ar  1 <1>   0.0540 
 20 C       -4.6610    -7.7360     1.2870 C.ar  1 <1>  -0.1500 
 21 C       -5.5940    -6.1700    -0.2460 C.ar  1 <1>  -0.1500 
 22 C       -5.6850    -8.6280     1.0250 C.ar  1 <1>   0.0830 
 23 C       -6.6420    -7.0430    -0.5220 C.ar  1 <1>   0.0830 
 24 O       -5.6320    -9.8130     1.6920 O.3   1 <1>  -0.3630 
 25 C       -6.6970    -8.2780     0.1270 C.ar  1 <1>   0.0830 
 26 O       -7.6350    -6.7360    -1.4080 O.3   1 <1>  -0.3630 
 27 C       -5.8390   -11.0090     0.9720 C.3   1 <1>   0.0400 
 28 O       -7.7360    -9.1210    -0.1160 O.3   1 <1>  -0.3630 
 29 C       -7.5710    -5.5880    -2.2250 C.3   1 <1>   0.0400 
 30 C       -8.9200    -8.8360     0.5910 C.3   1 <1>   0.0400 
 31 H        2.1970    -0.6220    -0.6950 H     1 <1>   0.3700 
 32 H        0.3360    -3.4780     0.4880 H     1 <1>   0.0800 
 33 H       -0.4490    -3.3620    -1.0620 H     1 <1>   0.0800 
 34 H       -2.2790    -2.0510    -0.0590 H     1 <1>   0.0800 
 35 H       -1.4850    -2.0930     1.4900 H     1 <1>   0.0800 
 36 H        1.7770    -3.5920    -2.2580 H     1 <1>   0.1500 
 37 H        5.3950    -3.8240     1.0480 H     1 <1>   0.1500 
 38 H        4.1550    -0.6590     0.8940 H     1 <1>   0.0800 
 39 H        4.7000    -1.8310     2.0650 H     1 <1>   0.0800 
 40 H        3.0030    -1.4570     1.9420 H     1 <1>   0.0800 
 41 H        5.1320    -5.6110    -0.5890 H     1 <1>   0.1500 
 42 H        2.6480    -5.5350    -3.3670 H     1 <1>   0.0800 
 43 H        2.8440    -6.7060    -2.0840 H     1 <1>   0.0800 
 44 H        4.2410    -6.1120    -2.9530 H     1 <1>   0.0800 
 45 H       -3.9040    -8.0250     1.9940 H     1 <1>   0.1500 
 46 H       -5.5430    -5.2150    -0.7310 H     1 <1>   0.1500 
 47 H       -6.8940   -11.2000     0.9070 H     1 <1>   0.0800 
 48 H       -5.4100   -10.9110    -0.0100 H     1 <1>   0.0800 
 49 H       -5.3580   -11.8090     1.5060 H     1 <1>   0.0800 
 50 H       -6.6630    -5.6180    -2.8010 H     1 <1>   0.0800 
 51 H       -7.6050    -4.7120    -1.6010 H     1 <1>   0.0800 
 52 H       -8.4200    -5.6000    -2.8830 H     1 <1>   0.0800 
 53 H       -9.6520    -9.5810     0.3360 H     1 <1>   0.0800 
 54 H       -8.7100    -8.8660     1.6450 H     1 <1>   0.0800 
 55 H       -9.2730    -7.8610     0.3050 H     1 <1>   0.0800 
@<TRIPOS>BOND
  1   1   2  2   
  2   2   3  am  
  3   2   4  1   
  4   3   5  1   
  5   3  31  1   
  6   4   6  1   
  7   4  32  1   
  8   4  33  1   
  9   5   7  ar  
 10   5   8  ar  
 11   6   9  1   
 12   6  34  1   
 13   6  35  1   
 14   7  10  ar  
 15   7  11  1   
 16   8  12  ar  
 17   8  36  1   
 18   9  13  1   
 19   9  14  2   
 20  10  15  ar  
 21  10  37  1   
 22  11  38  1   
 23  11  39  1   
 24  11  40  1   
 25  12  15  ar  
 26  12  16  1   
 27  13  17  1   
 28  14  18  1   
 29  15  41  1   
 30  16  42  1   
 31  16  43  1   
 32  16  44  1   
 33  17  18  2   
 34  18  19  1   
 35  19  20  ar  
 36  19  21  ar  
 37  20  22  ar  
 38  20  45  1   
 39  21  23  ar  
 40  21  46  1   
 41  22  24  1   
 42  22  25  ar  
 43  23  25  ar  
 44  23  26  1   
 45  24  27  1   
 46  25  28  1   
 47  26  29  1   
 48  27  47  1   
 49  27  48  1   
 50  27  49  1   
 51  28  30  1   
 52  29  50  1   
 53  29  51  1   
 54  29  52  1   
 55  30  53  1   
 56  30  54  1   
 57  30  55  1   
@<TRIPOS>SUBSTRUCTURE
  1 ****   9 GROUP 4 **** **** 0

# MOE 2024.06 (io_trps.svl 2023.06)
