@<TRIPOS>MOLECULE
N-[2-(4-Methyl-piperazin-1-yl)-phenyl]-2-o-tolyloxy-acetamide
51 53 1 0 0 
SMALL
USER_CHARGES


@<TRIPOS>ATOM
  1 O        0.0860    -0.0930     0.6880 O.2   1 <1>  -0.5700 
  2 C       -0.6180     0.8840     0.7500 C.2   1 <1>   0.5690 
  3 N       -0.1930     2.1480     0.4930 N.am  1 <1>  -0.5470 
  4 C       -2.0950     0.7370     1.1070 C.3   1 <1>   0.1810 
  5 C        0.9520     2.7580    -0.0220 C.ar  1 <1>   0.1170 
  6 O       -2.7500     2.0110     1.0540 O.3   1 <1>  -0.3630 
  7 C        0.8010     4.0930    -0.4270 C.ar  1 <1>   0.1000 
  8 C        2.1770     2.1230    -0.1480 C.ar  1 <1>  -0.1500 
  9 C       -3.9200     2.1000     0.3920 C.ar  1 <1>   0.0830 
 10 N       -0.4580     4.7190    -0.3080 N.pl3 1 <1>  -0.8380 
 11 C        1.9000     4.7640    -0.9450 C.ar  1 <1>  -0.1500 
 12 C        3.2620     2.8060    -0.6700 C.ar  1 <1>  -0.1500 
 13 C       -3.9840     2.0690    -1.0010 C.ar  1 <1>  -0.1430 
 14 C       -5.0670     2.2810     1.1480 C.ar  1 <1>  -0.1500 
 15 C       -0.7690     5.4170     0.9810 C.3   1 <1>   0.2090 
 16 C       -1.0580     5.3710    -1.5130 C.3   1 <1>   0.2090 
 17 C        3.1230     4.1260    -1.0670 C.ar  1 <1>  -0.1500 
 18 C       -5.2190     2.2210    -1.6120 C.ar  1 <1>  -0.1500 
 19 C       -2.7540     1.8630    -1.8800 C.3   1 <1>  -0.0970 
 20 C       -6.2920     2.4330     0.5240 C.ar  1 <1>  -0.1500 
 21 C       -2.2590     5.8460     1.0650 C.3   1 <1>   0.3430 
 22 C       -2.6000     5.4830    -1.3840 C.3   1 <1>   0.3430 
 23 C       -6.3660     2.4040    -0.8570 C.ar  1 <1>  -0.1500 
 24 N       -3.1090     5.1870     0.0070 N.4   1 <1>  -0.9590 
 25 C       -4.5660     5.4710     0.1530 C.3   1 <1>   0.2630 
 26 H       -0.9410     2.8400     0.5380 H     1 <1>   0.3700 
 27 H       -2.1890     0.3530     2.1060 H     1 <1>   0.0800 
 28 H       -2.5690     0.0570     0.4220 H     1 <1>   0.0800 
 29 H        2.2820     1.0980     0.1620 H     1 <1>   0.1500 
 30 H        1.8060     5.7880    -1.2530 H     1 <1>   0.1500 
 31 H        4.2120     2.3100    -0.7660 H     1 <1>   0.1500 
 32 H       -5.0020     2.2950     2.2220 H     1 <1>   0.1500 
 33 H       -0.1360     6.2810     1.0880 H     1 <1>   0.0800 
 34 H       -0.5460     4.7540     1.8010 H     1 <1>   0.0800 
 35 H       -0.8090     4.8040    -2.3940 H     1 <1>   0.0800 
 36 H       -0.6380     6.3550    -1.6300 H     1 <1>   0.0800 
 37 H        3.9700     4.6540    -1.4700 H     1 <1>   0.1500 
 38 H       -5.3050     2.1860    -2.6860 H     1 <1>   0.1500 
 39 H       -1.9400     2.4820    -1.5570 H     1 <1>   0.0800 
 40 H       -2.9690     2.1040    -2.9060 H     1 <1>   0.0800 
 41 H       -2.4420     0.8350    -1.8420 H     1 <1>   0.0800 
 42 H       -7.1870     2.5620     1.1100 H     1 <1>   0.1500 
 43 H       -2.3150     6.9160     0.9520 H     1 <1>   0.0800 
 44 H       -2.6350     5.6030     2.0450 H     1 <1>   0.0800 
 45 H       -3.0530     4.7930    -2.0770 H     1 <1>   0.0800 
 46 H       -2.8960     6.4760    -1.6800 H     1 <1>   0.0800 
 47 H       -7.3200     2.5110    -1.3460 H     1 <1>   0.1500 
 48 H       -2.9700     4.1670     0.1340 H     1 <1>   0.4500 
 49 H       -4.7640     6.5200     0.0090 H     1 <1>   0.0800 
 50 H       -4.9050     5.1830     1.1350 H     1 <1>   0.0800 
 51 H       -5.1270     4.9060    -0.5750 H     1 <1>   0.0800 
@<TRIPOS>BOND
  1   1   2  2   
  2   2   3  am  
  3   2   4  1   
  4   3   5  1   
  5   3  26  1   
  6   4   6  1   
  7   4  27  1   
  8   4  28  1   
  9   5   7  ar  
 10   5   8  ar  
 11   6   9  1   
 12   7  10  1   
 13   7  11  ar  
 14   8  12  ar  
 15   8  29  1   
 16   9  13  ar  
 17   9  14  ar  
 18  10  15  1   
 19  10  16  1   
 20  11  17  ar  
 21  11  30  1   
 22  12  17  ar  
 23  12  31  1   
 24  13  18  ar  
 25  13  19  1   
 26  14  20  ar  
 27  14  32  1   
 28  15  21  1   
 29  15  33  1   
 30  15  34  1   
 31  16  22  1   
 32  16  35  1   
 33  16  36  1   
 34  17  37  1   
 35  18  23  ar  
 36  18  38  1   
 37  19  39  1   
 38  19  40  1   
 39  19  41  1   
 40  20  23  ar  
 41  20  42  1   
 42  21  24  1   
 43  21  43  1   
 44  21  44  1   
 45  22  24  1   
 46  22  45  1   
 47  22  46  1   
 48  23  47  1   
 49  24  25  1   
 50  24  48  1   
 51  25  49  1   
 52  25  50  1   
 53  25  51  1   
@<TRIPOS>SUBSTRUCTURE
  1 ****   3 GROUP 4 **** **** 0

# MOE 2024.06 (io_trps.svl 2023.06)
