@<TRIPOS>MOLECULE
6-Methyl-8-morpholin-4-yl-[1,2,4]triazolo[4,3-b]pyridazine
29 31 1 0 0 
SMALL
USER_CHARGES


@<TRIPOS>ATOM
  1 O       -0.2930    -0.0910     0.2770 O.3   1 <1>  -0.5600 
  2 C       -1.2920     0.4230    -0.5620 C.3   1 <1>   0.1200 
  3 C       -0.2800    -1.4910     0.3450 C.3   1 <1>   0.1200 
  4 C       -2.6910    -0.0240    -0.1010 C.3   1 <1>   0.2090 
  5 C       -1.6250    -2.0330     0.8630 C.3   1 <1>   0.2090 
  6 N       -2.7570    -1.5130     0.0370 N.pl3 1 <1>  -0.8380 
  7 C       -3.9920    -2.1680     0.0730 C.2   1 <1>   0.1450 
  8 C       -5.2150    -1.5520     0.4780 C.2   1 <1>   0.1410 
  9 C       -4.0820    -3.4800    -0.3050 C.2   1 <1>  -0.1360 
 10 N       -5.5000    -0.3360     0.9010 N.2   1 <1>  -0.3380 
 11 N       -6.3370    -2.3110     0.4560 N.pl3 1 <1>   0.5050 
 12 C       -5.3120    -4.1670    -0.2840 C.2   1 <1>   0.3750 
 13 N       -6.8030    -0.2960     1.1490 N.2   1 <1>  -0.3380 
 14 N       -6.4310    -3.6370     0.0810 N.2   1 <1>  -0.6520 
 15 C       -7.2760    -1.4700     0.8810 C.2   1 <1>   0.0360 
 16 C       -5.3240    -5.6160    -0.7180 C.3   1 <1>  -0.1790 
 17 H       -1.1060     0.0840    -1.5660 H     1 <1>   0.0800 
 18 H       -1.2210     1.4950    -0.5390 H     1 <1>   0.0800 
 19 H        0.5160    -1.7790     1.0080 H     1 <1>   0.0800 
 20 H       -0.0720    -1.8800    -0.6360 H     1 <1>   0.0800 
 21 H       -3.4260     0.3070    -0.8140 H     1 <1>   0.0800 
 22 H       -2.9130     0.4370     0.8470 H     1 <1>   0.0800 
 23 H       -1.7600    -1.7240     1.8850 H     1 <1>   0.0800 
 24 H       -1.6100    -3.1080     0.8380 H     1 <1>   0.0800 
 25 H       -3.2080    -4.0040    -0.6380 H     1 <1>   0.1500 
 26 H       -8.3020    -1.7660     0.9790 H     1 <1>   0.1500 
 27 H       -4.9700    -5.6980    -1.7290 H     1 <1>   0.0800 
 28 H       -6.3220    -6.0140    -0.6700 H     1 <1>   0.0800 
 29 H       -4.6910    -6.1960    -0.0720 H     1 <1>   0.0800 
@<TRIPOS>BOND
  1   1   2  1   
  2   1   3  1   
  3   2   4  1   
  4   2  17  1   
  5   2  18  1   
  6   3   5  1   
  7   3  19  1   
  8   3  20  1   
  9   4   6  1   
 10   4  21  1   
 11   4  22  1   
 12   5   6  1   
 13   5  23  1   
 14   5  24  1   
 15   6   7  1   
 16   7   8  1   
 17   7   9  2   
 18   8  10  2   
 19   8  11  1   
 20   9  12  1   
 21   9  25  1   
 22  10  13  1   
 23  11  14  1   
 24  11  15  1   
 25  12  14  2   
 26  12  16  1   
 27  13  15  2   
 28  15  26  1   
 29  16  27  1   
 30  16  28  1   
 31  16  29  1   
@<TRIPOS>SUBSTRUCTURE
  1 ****   7 GROUP 4 **** **** 0

# MOE 2024.06 (io_trps.svl 2023.06)
