@<TRIPOS>MOLECULE
1,7-Dimethyl-3-(1-methyl-2-oxo-propyl)-8-m-tolyl-1H,8H-imidazo[2,1-f]purine-2,4-
50 53 1 0 0 
SMALL
USER_CHARGES


@<TRIPOS>ATOM
  1 O        0.7250     0.2560    -0.4080 O.2   1 <1>  -0.5750 
  2 C        1.7000     0.9790    -0.3850 C.2   1 <1>   0.6860 
  3 N        1.5580     2.3590    -0.5240 N.am  1 <1>  -0.4260 
  4 N        2.9590     0.4150    -0.2170 N.am  1 <1>  -0.4420 
  5 C        2.6700     3.1880    -0.5430 C.2   1 <1>   0.6990 
  6 C        0.2200     2.9850    -0.2440 C.3   1 <1>   0.2750 
  7 C        4.0470     1.2590    -0.1450 C.2   1 <1>   0.4200 
  8 C        3.1060    -1.0600    -0.0340 C.3   1 <1>   0.0520 
  9 O        2.5630     4.3820    -0.7670 O.2   1 <1>  -0.5750 
 10 C        3.9460     2.6010    -0.3050 C.2   1 <1>   0.2700 
 11 C       -0.2530     2.5820     1.1640 C.2   1 <1>   0.4430 
 12 C       -0.7520     2.7230    -1.4090 C.3   1 <1>  -0.2470 
 13 N        5.3530     0.9280     0.0840 N.pl3 1 <1>  -0.7040 
 14 N        5.2470     3.1110    -0.1760 N.pl3 1 <1>  -0.6330 
 15 O        0.5270     2.5610     2.0730 O.2   1 <1>  -0.5750 
 16 C       -1.7070     2.2200     1.3960 C.3   1 <1>  -0.1860 
 17 C        6.0370     2.0750     0.0610 C.cat 1 <1>   1.0690 
 18 C        6.0500     4.2360    -0.1720 C.2   1 <1>   0.2220 
 19 N        7.3130     2.4440     0.2170 N.pl3 1 <1>  -0.5550 
 20 C        7.3150     3.8250     0.0680 C.2   1 <1>   0.1580 
 21 C        8.3900     1.5830     0.4710 C.ar  1 <1>   0.3050 
 22 C        8.5940     4.6340     0.1770 C.3   1 <1>  -0.1100 
 23 C        9.0190     0.9280    -0.5770 C.ar  1 <1>  -0.1570 
 24 C        8.8140     1.3600     1.7720 C.ar  1 <1>  -0.1570 
 25 C       10.0560     0.0450    -0.3330 C.ar  1 <1>  -0.1510 
 26 C        9.8500     0.4790     2.0230 C.ar  1 <1>  -0.1570 
 27 C       10.4650    -0.1780     0.9710 C.ar  1 <1>  -0.1570 
 28 C       10.7510    -0.6780    -1.4740 C.3   1 <1>  -0.1040 
 29 H        0.3330     4.0530    -0.1980 H     1 <1>   0.0720 
 30 H        2.3390    -1.5830    -0.5810 H     1 <1>   0.0720 
 31 H        3.0100    -1.3050     1.0100 H     1 <1>   0.0720 
 32 H        4.0610    -1.3960    -0.3960 H     1 <1>   0.0720 
 33 H       -1.0270     1.6860    -1.4760 H     1 <1>   0.0720 
 34 H       -0.3050     3.0280    -2.3380 H     1 <1>   0.0720 
 35 H       -1.6510     3.2970    -1.2730 H     1 <1>   0.0720 
 36 H        5.7590     0.0120     0.2660 H     1 <1>   0.4450 
 37 H       -1.9620     1.3420     0.8320 H     1 <1>   0.0720 
 38 H       -2.3460     3.0340     1.1070 H     1 <1>   0.0720 
 39 H       -1.8660     2.0130     2.4390 H     1 <1>   0.0720 
 40 H        5.6580     5.2290    -0.3390 H     1 <1>   0.1430 
 41 H        9.0320     4.5050     1.1510 H     1 <1>   0.0720 
 42 H        8.3940     5.6790     0.0250 H     1 <1>   0.0720 
 43 H        9.3020     4.3080    -0.5650 H     1 <1>   0.0720 
 44 H        8.7000     1.1100    -1.5880 H     1 <1>   0.1430 
 45 H        8.3410     1.8700     2.5910 H     1 <1>   0.1430 
 46 H       10.1840     0.3010     3.0320 H     1 <1>   0.1430 
 47 H       11.2720    -0.8640     1.1730 H     1 <1>   0.1430 
 48 H       10.5000    -0.2390    -2.4220 H     1 <1>   0.0720 
 49 H       10.4590    -1.7130    -1.4840 H     1 <1>   0.0720 
 50 H       11.8180    -0.6230    -1.3490 H     1 <1>   0.0720 
@<TRIPOS>BOND
  1   1   2  2   
  2   2   3  am  
  3   2   4  am  
  4   3   5  am  
  5   3   6  1   
  6   4   7  1   
  7   4   8  1   
  8   5   9  2   
  9   5  10  1   
 10   6  11  1   
 11   6  12  1   
 12   6  29  1   
 13   7  10  2   
 14   7  13  1   
 15   8  30  1   
 16   8  31  1   
 17   8  32  1   
 18  10  14  1   
 19  11  15  2   
 20  11  16  1   
 21  12  33  1   
 22  12  34  1   
 23  12  35  1   
 24  13  17  ar  
 25  13  36  1   
 26  14  17  ar  
 27  14  18  1   
 28  16  37  1   
 29  16  38  1   
 30  16  39  1   
 31  17  19  ar  
 32  18  20  2   
 33  18  40  1   
 34  19  20  1   
 35  19  21  1   
 36  20  22  1   
 37  21  23  ar  
 38  21  24  ar  
 39  22  41  1   
 40  22  42  1   
 41  22  43  1   
 42  23  25  ar  
 43  23  44  1   
 44  24  26  ar  
 45  24  45  1   
 46  25  27  ar  
 47  25  28  1   
 48  26  27  ar  
 49  26  46  1   
 50  27  47  1   
 51  28  48  1   
 52  28  49  1   
 53  28  50  1   
@<TRIPOS>SUBSTRUCTURE
  1 ****   7 GROUP 4 **** **** 0

# MOE 2024.06 (io_trps.svl 2023.06)
