@<TRIPOS>MOLECULE
1,6-Dimethyl-3-(2-morpholin-4-yl-ethyl)-8-p-tolyl-5,6,7,8-tetrahydro-1H-1,3,4b,8
63 67 1 0 0 
SMALL
USER_CHARGES


@<TRIPOS>ATOM
  1 O        0.7850     0.1770    -1.1260 O.2   1 <1>  -0.5730 
  2 C        1.7450     0.8950    -0.9380 C.2   1 <1>   0.6870 
  3 N        1.5890     2.2770    -0.9120 N.am  1 <1>  -0.4240 
  4 N        3.0000     0.3310    -0.7440 N.am  1 <1>  -0.4400 
  5 C        2.6630     3.1190    -0.6610 C.2   1 <1>   0.7000 
  6 C        0.2340     2.8690    -1.1460 C.3   1 <1>   0.1340 
  7 C        4.0690     1.1800    -0.5340 C.2   1 <1>   0.4220 
  8 C        3.1890    -1.1500    -0.7810 C.3   1 <1>   0.0540 
  9 O        2.5140     4.3270    -0.5870 O.2   1 <1>  -0.5730 
 10 C        3.9520     2.5250    -0.4850 C.2   1 <1>   0.2720 
 11 C       -0.5430     2.9680     0.1710 C.3   1 <1>   0.1040 
 12 N        5.3780     0.8500    -0.3430 N.pl3 1 <1>  -0.7030 
 13 N        5.2450     3.0190    -0.2530 N.pl3 1 <1>  -0.7660 
 14 N       -1.8270     3.6480    -0.0360 N.3   1 <1>  -0.8120 
 15 C        6.0620     1.9780    -0.1730 C.cat 1 <1>   1.0690 
 16 C        5.6640     4.4310    -0.1130 C.3   1 <1>   0.3490 
 17 C       -1.6800     5.1190    -0.0930 C.3   1 <1>   0.1040 
 18 C       -2.7830     3.3030     1.0340 C.3   1 <1>   0.1040 
 19 N        7.3820     2.0930     0.0540 N.pl3 1 <1>  -0.5790 
 20 C        7.1720     4.5440    -0.4030 C.3   1 <1>  -0.0860 
 21 C       -3.0480     5.8110    -0.2400 C.3   1 <1>   0.1140 
 22 C       -4.1180     4.0480     0.8530 C.3   1 <1>   0.1140 
 23 C        8.2320     0.9880     0.1260 C.ar  1 <1>   0.3060 
 24 C        7.9730     3.4370     0.3120 C.3   1 <1>   0.1620 
 25 C        7.7030     5.9300    -0.0110 C.3   1 <1>  -0.2450 
 26 O       -3.9060     5.4300     0.7970 O.3   1 <1>  -0.5640 
 27 C        8.5700     0.4390     1.3550 C.ar  1 <1>  -0.1560 
 28 C        8.7270     0.4070    -1.0340 C.ar  1 <1>  -0.1560 
 29 C        9.3750    -0.6830     1.4230 C.ar  1 <1>  -0.1560 
 30 C        9.5320    -0.7150    -0.9660 C.ar  1 <1>  -0.1560 
 31 C        9.8550    -1.2670     0.2620 C.ar  1 <1>  -0.1490 
 32 C       10.7420    -2.4970     0.3380 C.3   1 <1>  -0.1020 
 33 H       -0.3220     2.2550    -1.8350 H     1 <1>   0.0740 
 34 H        0.3370     3.8430    -1.5870 H     1 <1>   0.0740 
 35 H        2.2580    -1.6590    -0.5910 H     1 <1>   0.0740 
 36 H        3.8940    -1.4580    -0.0290 H     1 <1>   0.0740 
 37 H        3.5480    -1.4460    -1.7520 H     1 <1>   0.0740 
 38 H        0.0320     3.4980     0.9120 H     1 <1>   0.0740 
 39 H       -0.7270     1.9670     0.5240 H     1 <1>   0.0740 
 40 H        5.7950    -0.0780    -0.3230 H     1 <1>   0.4460 
 41 H        5.4510     4.7620     0.8900 H     1 <1>   0.0740 
 42 H        5.1110     5.0510    -0.8000 H     1 <1>   0.0740 
 43 H       -1.0650     5.3930    -0.9320 H     1 <1>   0.0740 
 44 H       -1.2050     5.4790     0.8040 H     1 <1>   0.0740 
 45 H       -2.3700     3.5570     1.9960 H     1 <1>   0.0740 
 46 H       -2.9710     2.2430     1.0160 H     1 <1>   0.0740 
 47 H        7.3190     4.4320    -1.4650 H     1 <1>   0.0740 
 48 H       -3.5030     5.5480    -1.1790 H     1 <1>   0.0740 
 49 H       -2.9330     6.8790    -0.1950 H     1 <1>   0.0740 
 50 H       -4.7720     3.8500     1.6830 H     1 <1>   0.0740 
 51 H       -4.6020     3.7360    -0.0560 H     1 <1>   0.0740 
 52 H        8.9940     3.4530    -0.0340 H     1 <1>   0.0740 
 53 H        7.9790     3.6150     1.3740 H     1 <1>   0.0740 
 54 H        7.5910     6.1050     1.0460 H     1 <1>   0.0740 
 55 H        7.1730     6.7020    -0.5420 H     1 <1>   0.0740 
 56 H        8.7480     6.0160    -0.2590 H     1 <1>   0.0740 
 57 H        8.2060     0.8850     2.2640 H     1 <1>   0.1440 
 58 H        8.4900     0.8310    -1.9930 H     1 <1>   0.1440 
 59 H        9.6350    -1.1020     2.3810 H     1 <1>   0.1440 
 60 H        9.9160    -1.1580    -1.8710 H     1 <1>   0.1440 
 61 H       11.7720    -2.1990     0.4230 H     1 <1>   0.0740 
 62 H       10.6290    -3.1010    -0.5450 H     1 <1>   0.0740 
 63 H       10.4840    -3.0970     1.1930 H     1 <1>   0.0740 
@<TRIPOS>BOND
  1   1   2  2   
  2   2   3  am  
  3   2   4  am  
  4   3   5  am  
  5   3   6  1   
  6   4   7  1   
  7   4   8  1   
  8   5   9  2   
  9   5  10  1   
 10   6  11  1   
 11   6  33  1   
 12   6  34  1   
 13   7  10  2   
 14   7  12  1   
 15   8  35  1   
 16   8  36  1   
 17   8  37  1   
 18  10  13  1   
 19  11  14  1   
 20  11  38  1   
 21  11  39  1   
 22  12  15  ar  
 23  12  40  1   
 24  13  15  ar  
 25  13  16  1   
 26  14  17  1   
 27  14  18  1   
 28  15  19  ar  
 29  16  20  1   
 30  16  41  1   
 31  16  42  1   
 32  17  21  1   
 33  17  43  1   
 34  17  44  1   
 35  18  22  1   
 36  18  45  1   
 37  18  46  1   
 38  19  23  1   
 39  19  24  1   
 40  20  24  1   
 41  20  25  1   
 42  20  47  1   
 43  21  26  1   
 44  21  48  1   
 45  21  49  1   
 46  22  26  1   
 47  22  50  1   
 48  22  51  1   
 49  23  27  ar  
 50  23  28  ar  
 51  24  52  1   
 52  24  53  1   
 53  25  54  1   
 54  25  55  1   
 55  25  56  1   
 56  27  29  ar  
 57  27  57  1   
 58  28  30  ar  
 59  28  58  1   
 60  29  31  ar  
 61  29  59  1   
 62  30  31  ar  
 63  30  60  1   
 64  31  32  1   
 65  32  61  1   
 66  32  62  1   
 67  32  63  1   
@<TRIPOS>SUBSTRUCTURE
  1 ****  10 GROUP 4 **** **** 0

# MOE 2024.06 (io_trps.svl 2023.06)
