@<TRIPOS>MOLECULE
N-Methyl-3-(3-o-tolyl-[1,2,4]oxadiazol-5-yl)-propionamide
33 34 1 0 0 
SMALL
USER_CHARGES


@<TRIPOS>ATOM
  1 O        0.2530    -0.4270     0.1870 O.2   1 <1>  -0.5700 
  2 C        0.7200    -1.5040    -0.0800 C.2   1 <1>   0.5690 
  3 N        1.9770    -1.5790    -0.5770 N.am  1 <1>  -0.7300 
  4 C       -0.0980    -2.7630     0.1460 C.3   1 <1>  -0.0990 
  5 C        2.7750    -2.7700    -0.9630 C.3   1 <1>   0.0600 
  6 C       -1.5350    -2.4730     0.6090 C.3   1 <1>   0.0200 
  7 C       -2.3070    -3.7600     0.8180 C.2   1 <1>   0.2980 
  8 O       -2.0050    -4.5150     1.8420 O.3   1 <1>  -0.0190 
  9 N       -3.2370    -4.1940     0.0750 N.2   1 <1>  -0.5650 
 10 N       -2.8130    -5.5220     1.7390 N.2   1 <1>  -0.4100 
 11 C       -3.5480    -5.3340     0.7000 C.2   1 <1>   0.4620 
 12 C       -4.5730    -6.2500     0.2280 C.ar  1 <1>   0.0540 
 13 C       -5.8610    -5.8510    -0.1610 C.ar  1 <1>  -0.1440 
 14 C       -4.2690    -7.6100     0.1570 C.ar  1 <1>  -0.1500 
 15 C       -6.7770    -6.7870    -0.6130 C.ar  1 <1>  -0.1500 
 16 C       -6.2990    -4.3930    -0.0920 C.3   1 <1>  -0.0970 
 17 C       -5.1870    -8.5400    -0.2910 C.ar  1 <1>  -0.1500 
 18 C       -6.4460    -8.1280    -0.6800 C.ar  1 <1>  -0.1500 
 19 H        2.4390    -0.6730    -0.6960 H     1 <1>   0.3700 
 20 H        0.4000    -3.3610     0.8860 H     1 <1>   0.0800 
 21 H       -0.1360    -3.3170    -0.7730 H     1 <1>   0.0800 
 22 H        2.2390    -3.6800    -0.7610 H     1 <1>   0.0800 
 23 H        3.6970    -2.7810    -0.4070 H     1 <1>   0.0800 
 24 H        3.0020    -2.7270    -2.0150 H     1 <1>   0.0800 
 25 H       -2.0390    -1.8790    -0.1330 H     1 <1>   0.0800 
 26 H       -1.5240    -1.9180     1.5300 H     1 <1>   0.0800 
 27 H       -3.2910    -7.9410     0.4580 H     1 <1>   0.1500 
 28 H       -7.7630    -6.4800    -0.9160 H     1 <1>   0.1500 
 29 H       -6.0150    -3.9610     0.8510 H     1 <1>   0.0800 
 30 H       -7.3650    -4.3020    -0.1930 H     1 <1>   0.0800 
 31 H       -5.8330    -3.8340    -0.8840 H     1 <1>   0.0800 
 32 H       -4.9220    -9.5830    -0.3370 H     1 <1>   0.1500 
 33 H       -7.1660    -8.8460    -1.0330 H     1 <1>   0.1500 
@<TRIPOS>BOND
  1   1   2  2   
  2   2   3  am  
  3   2   4  1   
  4   3   5  1   
  5   3  19  1   
  6   4   6  1   
  7   4  20  1   
  8   4  21  1   
  9   5  22  1   
 10   5  23  1   
 11   5  24  1   
 12   6   7  1   
 13   6  25  1   
 14   6  26  1   
 15   7   8  1   
 16   7   9  2   
 17   8  10  1   
 18   9  11  1   
 19  10  11  2   
 20  11  12  1   
 21  12  13  ar  
 22  12  14  ar  
 23  13  15  ar  
 24  13  16  1   
 25  14  17  ar  
 26  14  27  1   
 27  15  18  ar  
 28  15  28  1   
 29  16  29  1   
 30  16  30  1   
 31  16  31  1   
 32  17  18  ar  
 33  17  32  1   
 34  18  33  1   
@<TRIPOS>SUBSTRUCTURE
  1 ****   9 GROUP 4 **** **** 0

# MOE 2024.06 (io_trps.svl 2023.06)
