@<TRIPOS>MOLECULE
(2-Amino-5-methyl-7-oxo-4,7-dihydro-[1,2,4]triazolo[1,5-a]pyrimidin-6-yl)-acetic
28 29 1 0 0 
SMALL
USER_CHARGES


@<TRIPOS>ATOM
  1 O        0.8820    -1.0180    -0.7870 O.2   1 <1>  -0.5700 
  2 C        0.5050    -2.0470    -0.2360 C.2   1 <1>   0.5650 
  3 N       -0.8230    -2.5110    -0.3720 N.pl3 1 <1>   0.5610 
  4 C        1.3970    -2.8230     0.5850 C.2   1 <1>  -0.1240 
  5 N       -1.9050    -2.0370    -1.0450 N.2   1 <1>  -0.7070 
  6 C       -1.2220    -3.6350     0.2690 C.2   1 <1>   0.2700 
  7 C        0.9680    -3.9690     1.1950 C.2   1 <1>  -0.0380 
  8 C        2.8310    -2.2870     0.7030 C.3   1 <1>   0.0390 
  9 C       -2.8000    -2.8930    -0.7290 C.2   1 <1>   0.5990 
 10 N       -2.4550    -3.9110     0.0590 N.2   1 <1>  -0.5650 
 11 N       -0.3420    -4.3610     1.0500 N.pl3 1 <1>  -0.5840 
 12 C        1.8060    -4.9150     2.0410 C.3   1 <1>  -0.1020 
 13 C        3.6680    -2.6200    -0.5180 C.2   1 <1>   0.6590 
 14 N       -4.0590    -2.8000    -1.2020 N.pl3 1 <1>  -0.8830 
 15 O        3.4480    -3.5890    -1.1990 O.2   1 <1>  -0.5700 
 16 O        4.6740    -1.7920    -0.7720 O.3   1 <1>  -0.4300 
 17 C        5.5210    -1.9750    -1.8880 C.3   1 <1>   0.0400 
 18 H        3.3300    -2.6750     1.5680 H     1 <1>   0.0800 
 19 H        2.8110    -1.2190     0.8200 H     1 <1>   0.0800 
 20 H       -0.7170    -5.2110     1.4880 H     1 <1>   0.4000 
 21 H        1.5760    -4.7770     3.0820 H     1 <1>   0.0800 
 22 H        2.8590    -4.7700     1.8930 H     1 <1>   0.0800 
 23 H        1.5890    -5.9330     1.7720 H     1 <1>   0.0800 
 24 H       -4.4350    -3.7360    -1.3420 H     1 <1>   0.4000 
 25 H       -4.0350    -2.2690    -2.0710 H     1 <1>   0.4000 
 26 H        6.2530    -1.1880    -1.8950 H     1 <1>   0.0800 
 27 H        4.9260    -1.9360    -2.7840 H     1 <1>   0.0800 
 28 H        6.0050    -2.9330    -1.8050 H     1 <1>   0.0800 
@<TRIPOS>BOND
  1   1   2  2   
  2   2   3  1   
  3   2   4  1   
  4   3   5  1   
  5   3   6  1   
  6   4   7  2   
  7   4   8  1   
  8   5   9  2   
  9   6  10  2   
 10   6  11  1   
 11   7  11  1   
 12   7  12  1   
 13   8  13  1   
 14   8  18  1   
 15   8  19  1   
 16   9  10  1   
 17   9  14  1   
 18  11  20  1   
 19  12  21  1   
 20  12  22  1   
 21  12  23  1   
 22  13  15  2   
 23  13  16  1   
 24  14  24  1   
 25  14  25  1   
 26  16  17  1   
 27  17  26  1   
 28  17  27  1   
 29  17  28  1   
@<TRIPOS>SUBSTRUCTURE
  1 ****   2 GROUP 4 **** **** 0

# MOE 2024.06 (io_trps.svl 2023.06)
