@<TRIPOS>MOLECULE
5-Ethyl-8-methyl-3-(2-morpholin-4-yl-ethylsulfanyl)-5H-[1,2,4]triazino[5,6-b]ind
49 52 1 0 0 
SMALL
USER_CHARGES


@<TRIPOS>ATOM
  1 S       -0.4000    -0.6620    -0.1770 S.3   1 <1>  -0.3320 
  2 C       -2.0270     0.0820    -0.0980 C.ar  1 <1>   0.7220 
  3 C        0.7600     0.7390     0.1250 C.3   1 <1>   0.0700 
  4 N       -2.0420     1.4150     0.1420 N.ar  1 <1>  -0.3100 
  5 N       -3.0360    -0.7260    -0.2790 N.ar  1 <1>  -0.5670 
  6 C        2.1810     0.1820     0.0310 C.3   1 <1>   0.3430 
  7 N       -3.1800     2.0430     0.2170 N.ar  1 <1>  -0.2560 
  8 C       -4.1960    -0.0690    -0.1980 C.ar  1 <1>   0.1050 
  9 N        3.2200     1.2250     0.3090 N.4   1 <1>  -0.9590 
 10 C       -4.2760     1.2910     0.0450 C.ar  1 <1>   0.2560 
 11 N       -5.4620    -0.5790    -0.3300 N.pl3 1 <1>   0.0480 
 12 C        3.2340     2.3210    -0.7280 C.3   1 <1>   0.3430 
 13 C        4.5850     0.5930     0.4060 C.3   1 <1>   0.3430 
 14 C       -5.6540     1.6350     0.0630 C.ar  1 <1>   0.0000 
 15 C       -6.3630     0.4600    -0.1710 C.ar  1 <1>  -0.1520 
 16 C       -5.7950    -1.9960    -0.5900 C.3   1 <1>   0.0960 
 17 C        4.4000     3.3020    -0.5020 C.3   1 <1>   0.1200 
 18 C        5.6910     1.6520     0.5800 C.3   1 <1>   0.1200 
 19 C       -6.3380     2.8350     0.2570 C.ar  1 <1>  -0.1500 
 20 C       -7.7570     0.4730    -0.2100 C.ar  1 <1>  -0.1500 
 21 C       -6.1040    -2.7250     0.7200 C.3   1 <1>  -0.2400 
 22 O        5.6100     2.6060    -0.4380 O.3   1 <1>  -0.5600 
 23 C       -7.7170     2.8510     0.2180 C.ar  1 <1>  -0.1430 
 24 C       -8.4210     1.6650    -0.0160 C.ar  1 <1>  -0.1500 
 25 C       -8.4890     4.1410     0.4260 C.3   1 <1>  -0.0970 
 26 H        0.5400     1.1220     1.1070 H     1 <1>   0.0800 
 27 H        0.5600     1.4770    -0.6320 H     1 <1>   0.0800 
 28 H        2.3330    -0.2300    -0.9540 H     1 <1>   0.0800 
 29 H        2.2770    -0.6210     0.7440 H     1 <1>   0.0800 
 30 H        3.0220     1.6580     1.2220 H     1 <1>   0.4500 
 31 H        2.3050     2.8680    -0.7040 H     1 <1>   0.0800 
 32 H        3.3400     1.8920    -1.7110 H     1 <1>   0.0800 
 33 H        4.7930     0.0350    -0.4930 H     1 <1>   0.0800 
 34 H        4.6170    -0.0940     1.2360 H     1 <1>   0.0800 
 35 H       -4.9600    -2.4640    -1.0820 H     1 <1>   0.0800 
 36 H       -6.6430    -2.0380    -1.2500 H     1 <1>   0.0800 
 37 H        4.2720     3.8620     0.4080 H     1 <1>   0.0800 
 38 H        4.4660     3.9950    -1.3230 H     1 <1>   0.0800 
 39 H        6.6610     1.1890     0.5180 H     1 <1>   0.0800 
 40 H        5.6110     2.1500     1.5310 H     1 <1>   0.0800 
 41 H       -5.7710     3.7310     0.4360 H     1 <1>   0.1500 
 42 H       -8.3060    -0.4340    -0.3880 H     1 <1>   0.1500 
 43 H       -5.2460    -2.7000     1.3690 H     1 <1>   0.0800 
 44 H       -6.3460    -3.7530     0.5170 H     1 <1>   0.0800 
 45 H       -6.9400    -2.2680     1.2180 H     1 <1>   0.0800 
 46 H       -9.4960     1.6890    -0.0440 H     1 <1>   0.1500 
 47 H       -7.8200     4.9660     0.5940 H     1 <1>   0.0800 
 48 H       -9.1370     4.0460     1.2790 H     1 <1>   0.0800 
 49 H       -9.0850     4.3550    -0.4430 H     1 <1>   0.0800 
@<TRIPOS>BOND
  1   1   2  1   
  2   1   3  1   
  3   2   4  ar  
  4   2   5  ar  
  5   3   6  1   
  6   3  26  1   
  7   3  27  1   
  8   4   7  ar  
  9   5   8  ar  
 10   6   9  1   
 11   6  28  1   
 12   6  29  1   
 13   7  10  ar  
 14   8  10  ar  
 15   8  11  1   
 16   9  12  1   
 17   9  13  1   
 18   9  30  1   
 19  10  14  1   
 20  11  15  1   
 21  11  16  1   
 22  12  17  1   
 23  12  31  1   
 24  12  32  1   
 25  13  18  1   
 26  13  33  1   
 27  13  34  1   
 28  14  15  ar  
 29  14  19  ar  
 30  15  20  ar  
 31  16  21  1   
 32  16  35  1   
 33  16  36  1   
 34  17  22  1   
 35  17  37  1   
 36  17  38  1   
 37  18  22  1   
 38  18  39  1   
 39  18  40  1   
 40  19  23  ar  
 41  19  41  1   
 42  20  24  ar  
 43  20  42  1   
 44  21  43  1   
 45  21  44  1   
 46  21  45  1   
 47  23  24  ar  
 48  23  25  1   
 49  24  46  1   
 50  25  47  1   
 51  25  48  1   
 52  25  49  1   
@<TRIPOS>SUBSTRUCTURE
  1 ****   4 GROUP 4 **** **** 0

# MOE 2024.06 (io_trps.svl 2023.06)
