@<TRIPOS>MOLECULE
3-tert-Butyl-6-phenethyl-[1,2,4]triazolo[3,4-b][1,3,4]thiadiazole
38 40 1 0 0 
SMALL
USER_CHARGES


@<TRIPOS>ATOM
  1 S       -0.5780     0.0370    -1.7370 S.3   1 <1>  -0.1970 
  2 C        0.4280     1.4180    -1.3540 C.2   1 <1>   0.2420 
  3 C       -1.9230     0.8570    -0.9220 C.2   1 <1>   0.5300 
  4 N        1.6500     1.7500    -1.5600 N.2   1 <1>  -0.3380 
  5 N       -0.2940     2.3080    -0.6940 N.pl3 1 <1>   0.5050 
  6 N       -1.6380     1.9990    -0.4410 N.2   1 <1>  -0.6520 
  7 C       -3.2380     0.1040    -0.8980 C.3   1 <1>  -0.0990 
  8 N        1.7640     2.9650    -0.9910 N.2   1 <1>  -0.3380 
  9 C        0.6080     3.2850    -0.4810 C.2   1 <1>   0.0070 
 10 C       -4.3510     0.8770    -0.1780 C.3   1 <1>  -0.0170 
 11 C        0.2780     4.5860     0.2650 C.3   1 <1>   0.1800 
 12 C       -5.6370     0.0690    -0.1910 C.ar  1 <1>  -0.1440 
 13 C       -0.8350     5.3480    -0.4700 C.3   1 <1>  -0.2400 
 14 C        1.5130     5.4990     0.3450 C.3   1 <1>  -0.2400 
 15 C       -0.1780     4.2700     1.6980 C.3   1 <1>  -0.2400 
 16 C       -5.9150    -0.8200     0.8370 C.ar  1 <1>  -0.1500 
 17 C       -6.5400     0.2090    -1.2330 C.ar  1 <1>  -0.1500 
 18 C       -7.0830    -1.5620     0.8220 C.ar  1 <1>  -0.1500 
 19 C       -7.7090    -0.5330    -1.2490 C.ar  1 <1>  -0.1500 
 20 C       -7.9810    -1.4190    -0.2210 C.ar  1 <1>  -0.1500 
 21 H       -3.0850    -0.8390    -0.4070 H     1 <1>   0.0800 
 22 H       -3.5400    -0.0920    -1.9110 H     1 <1>   0.0800 
 23 H       -4.5140     1.8240    -0.6630 H     1 <1>   0.0800 
 24 H       -4.0600     1.0770     0.8390 H     1 <1>   0.0800 
 25 H       -0.5350     5.5530    -1.4830 H     1 <1>   0.0800 
 26 H       -1.0410     6.2820     0.0200 H     1 <1>   0.0800 
 27 H       -1.7440     4.7740    -0.4940 H     1 <1>   0.0800 
 28 H        2.3130     5.0000     0.8620 H     1 <1>   0.0800 
 29 H        1.2850     6.4110     0.8670 H     1 <1>   0.0800 
 30 H        1.8570     5.7480    -0.6430 H     1 <1>   0.0800 
 31 H        0.5850     3.7150     2.2140 H     1 <1>   0.0800 
 32 H       -1.0810     3.6860     1.6950 H     1 <1>   0.0800 
 33 H       -0.3680     5.1780     2.2430 H     1 <1>   0.0800 
 34 H       -5.2250    -0.9390     1.6530 H     1 <1>   0.1500 
 35 H       -6.3400     0.8950    -2.0370 H     1 <1>   0.1500 
 36 H       -7.2950    -2.2500     1.6220 H     1 <1>   0.1500 
 37 H       -8.4070    -0.4210    -2.0600 H     1 <1>   0.1500 
 38 H       -8.8890    -1.9950    -0.2330 H     1 <1>   0.1500 
@<TRIPOS>BOND
  1   1   2  1   
  2   1   3  1   
  3   2   4  2   
  4   2   5  1   
  5   3   6  2   
  6   3   7  1   
  7   4   8  1   
  8   5   6  1   
  9   5   9  1   
 10   7  10  1   
 11   7  21  1   
 12   7  22  1   
 13   8   9  2   
 14   9  11  1   
 15  10  12  1   
 16  10  23  1   
 17  10  24  1   
 18  11  13  1   
 19  11  14  1   
 20  11  15  1   
 21  12  16  ar  
 22  12  17  ar  
 23  13  25  1   
 24  13  26  1   
 25  13  27  1   
 26  14  28  1   
 27  14  29  1   
 28  14  30  1   
 29  15  31  1   
 30  15  32  1   
 31  15  33  1   
 32  16  18  ar  
 33  16  34  1   
 34  17  19  ar  
 35  17  35  1   
 36  18  20  ar  
 37  18  36  1   
 38  19  20  ar  
 39  19  37  1   
 40  20  38  1   
@<TRIPOS>SUBSTRUCTURE
  1 ****   6 GROUP 4 **** **** 0

# MOE 2024.06 (io_trps.svl 2023.06)
