@<TRIPOS>MOLECULE
N-[4-(3-Methoxy-propylsulfamoyl)-phenyl]-2-thiophen-2-yl-acetamide
44 45 1 0 0 
SMALL
USER_CHARGES


@<TRIPOS>ATOM
  1 S       -1.7020     1.2960    -0.3810 S.o2  1 <1>   1.4470 
  2 O       -1.3890     1.3930    -1.7880 O.2   1 <1>  -0.6500 
  3 O       -2.2230     2.4390     0.3350 O.2   1 <1>  -0.6500 
  4 N       -0.2420     0.8710     0.3330 N.am  1 <1>  -0.9140 
  5 C       -2.7480    -0.1520    -0.0740 C.ar  1 <1>  -0.0090 
  6 C        0.5550     1.9760     0.8460 C.3   1 <1>   0.1960 
  7 C       -3.3700    -0.8310    -1.1160 C.ar  1 <1>  -0.1500 
  8 C       -2.9620    -0.6220     1.2160 C.ar  1 <1>  -0.1500 
  9 C        1.2340     2.7370    -0.2930 C.3   1 <1>  -0.1600 
 10 C       -4.1680    -1.9360    -0.8780 C.ar  1 <1>  -0.1500 
 11 C       -3.7580    -1.7260     1.4580 C.ar  1 <1>  -0.1500 
 12 C        2.1060     3.8610     0.2610 C.3   1 <1>   0.1200 
 13 C       -4.3730    -2.4050     0.4120 C.ar  1 <1>   0.1170 
 14 O        2.7760     4.4400    -0.8070 O.3   1 <1>  -0.5600 
 15 N       -5.1940    -3.5250     0.5950 N.am  1 <1>  -0.5470 
 16 C        3.5770     5.5210    -0.4560 C.3   1 <1>   0.0400 
 17 C       -5.3350    -4.4000     1.6390 C.2   1 <1>   0.5690 
 18 O       -4.7000    -4.3280     2.6620 O.2   1 <1>  -0.5700 
 19 C       -6.3490    -5.5280     1.5120 C.3   1 <1>   0.0810 
 20 C       -7.0450    -5.5760     0.1580 C.2   1 <1>  -0.1400 
 21 S       -6.1080    -6.1380    -1.2200 S.3   1 <1>  -0.0800 
 22 C       -8.2960    -5.2580    -0.2230 C.2   1 <1>  -0.1500 
 23 C       -7.4740    -5.9120    -2.2970 C.2   1 <1>  -0.1100 
 24 C       -8.5400    -5.4470    -1.6210 C.2   1 <1>  -0.1500 
 25 H        0.2810     0.4420    -0.4270 H     1 <1>   0.4200 
 26 H        1.3150     1.5700     1.4930 H     1 <1>   0.0800 
 27 H       -0.0560     2.6390     1.4380 H     1 <1>   0.0800 
 28 H       -3.2270    -0.4890    -2.1280 H     1 <1>   0.1500 
 29 H       -2.4950    -0.1140     2.0440 H     1 <1>   0.1500 
 30 H        0.4950     3.1740    -0.9420 H     1 <1>   0.0800 
 31 H        1.8540     2.0650    -0.8590 H     1 <1>   0.0800 
 32 H       -4.6320    -2.4400    -1.7070 H     1 <1>   0.1500 
 33 H       -3.9010    -2.0550     2.4720 H     1 <1>   0.1500 
 34 H        2.8370     3.4760     0.9530 H     1 <1>   0.0800 
 35 H        1.5000     4.6120     0.7400 H     1 <1>   0.0800 
 36 H       -5.7570    -3.7790    -0.2200 H     1 <1>   0.3700 
 37 H        4.0500     5.8900    -1.3490 H     1 <1>   0.0800 
 38 H        4.3280     5.1960     0.2440 H     1 <1>   0.0800 
 39 H        2.9640     6.2940    -0.0260 H     1 <1>   0.0800 
 40 H       -7.0850    -5.3970     2.2840 H     1 <1>   0.0800 
 41 H       -5.8490    -6.4620     1.6910 H     1 <1>   0.0800 
 42 H       -9.0760    -4.8900     0.4220 H     1 <1>   0.1500 
 43 H       -7.3330    -6.1570    -3.3360 H     1 <1>   0.1500 
 44 H       -9.5030    -5.2270    -2.0480 H     1 <1>   0.1500 
@<TRIPOS>BOND
  1   1   2  2   
  2   1   3  2   
  3   1   4  am  
  4   1   5  1   
  5   4   6  1   
  6   4  25  1   
  7   5   7  ar  
  8   5   8  ar  
  9   6   9  1   
 10   6  26  1   
 11   6  27  1   
 12   7  10  ar  
 13   7  28  1   
 14   8  11  ar  
 15   8  29  1   
 16   9  12  1   
 17   9  30  1   
 18   9  31  1   
 19  10  13  ar  
 20  10  32  1   
 21  11  13  ar  
 22  11  33  1   
 23  12  14  1   
 24  12  34  1   
 25  12  35  1   
 26  13  15  1   
 27  14  16  1   
 28  15  17  am  
 29  15  36  1   
 30  16  37  1   
 31  16  38  1   
 32  16  39  1   
 33  17  18  2   
 34  17  19  1   
 35  19  20  1   
 36  19  40  1   
 37  19  41  1   
 38  20  21  1   
 39  20  22  2   
 40  21  23  1   
 41  22  24  1   
 42  22  42  1   
 43  23  24  2   
 44  23  43  1   
 45  24  44  1   
@<TRIPOS>SUBSTRUCTURE
  1 ****   5 GROUP 4 **** **** 0

# MOE 2024.06 (io_trps.svl 2023.06)
