@<TRIPOS>MOLECULE
4-[4-(2,4-Dimethyl-phenyl)-piperazine-1-sulfonyl]-morpholine
48 50 1 0 0 
SMALL
USER_CHARGES


@<TRIPOS>ATOM
  1 S       -0.3390     0.2850    -1.2180 S.o2  1 <1>   1.5760 
  2 O        0.2590    -0.5580    -2.2280 O.2   1 <1>  -0.6500 
  3 O       -0.9090     1.5650    -1.5730 O.2   1 <1>  -0.6500 
  4 N        0.7920     0.5150     0.0080 N.am  1 <1>  -0.8490 
  5 N       -1.5010    -0.6030    -0.3830 N.am  1 <1>  -0.8490 
  6 C        1.3800    -0.7510     0.4920 C.3   1 <1>   0.1960 
  7 C        1.8360     1.4620    -0.3830 C.3   1 <1>   0.1960 
  8 C       -2.1780     0.2200     0.6400 C.3   1 <1>   0.1960 
  9 C       -2.5030    -1.1480    -1.3140 C.3   1 <1>   0.1960 
 10 C        2.7790    -0.5880     1.1260 C.3   1 <1>   0.1200 
 11 C        2.8030     1.7510     0.7890 C.3   1 <1>   0.1200 
 12 C       -3.2360    -0.5720     1.4330 C.3   1 <1>   0.2090 
 13 C       -3.5760    -1.9960    -0.6030 C.3   1 <1>   0.2090 
 14 O        2.9380     0.6810     1.6910 O.3   1 <1>  -0.5600 
 15 N       -4.2070    -1.2780     0.5440 N.pl3 1 <1>  -0.8380 
 16 C       -5.4600    -0.6990     0.3460 C.ar  1 <1>   0.1000 
 17 C       -6.6060    -1.2620     0.9090 C.ar  1 <1>  -0.1440 
 18 C       -5.5900     0.4550    -0.4200 C.ar  1 <1>  -0.1500 
 19 C       -7.8420    -0.6720     0.6990 C.ar  1 <1>  -0.1500 
 20 C       -6.5070    -2.5220     1.7550 C.3   1 <1>  -0.0970 
 21 C       -6.8260     1.0380    -0.6260 C.ar  1 <1>  -0.1500 
 22 C       -7.9620     0.4760    -0.0680 C.ar  1 <1>  -0.1440 
 23 C       -9.3210     1.1140    -0.2890 C.3   1 <1>  -0.0970 
 24 H        1.4640    -1.4650    -0.3100 H     1 <1>   0.0800 
 25 H        0.7130    -1.1760     1.2220 H     1 <1>   0.0800 
 26 H        1.3920     2.3900    -0.7040 H     1 <1>   0.0800 
 27 H        2.3920     1.0630    -1.2150 H     1 <1>   0.0800 
 28 H       -2.6570     1.0660     0.1770 H     1 <1>   0.0800 
 29 H       -1.4490     0.6010     1.3340 H     1 <1>   0.0800 
 30 H       -2.0110    -1.7690    -2.0440 H     1 <1>   0.0800 
 31 H       -2.9870    -0.3450    -1.8430 H     1 <1>   0.0800 
 32 H        3.5460    -0.7220     0.3830 H     1 <1>   0.0800 
 33 H        2.9260    -1.3200     1.9000 H     1 <1>   0.0800 
 34 H        2.4410     2.5920     1.3540 H     1 <1>   0.0800 
 35 H        3.7790     1.9970     0.4100 H     1 <1>   0.0800 
 36 H       -3.7700     0.1000     2.0810 H     1 <1>   0.0800 
 37 H       -2.7390    -1.2990     2.0500 H     1 <1>   0.0800 
 38 H       -3.1220    -2.9000    -0.2370 H     1 <1>   0.0800 
 39 H       -4.3370    -2.2750    -1.3110 H     1 <1>   0.0800 
 40 H       -4.7190     0.8980    -0.8580 H     1 <1>   0.1500 
 41 H       -8.7220    -1.1080     1.1360 H     1 <1>   0.1500 
 42 H       -5.8620    -2.3420     2.5960 H     1 <1>   0.0800 
 43 H       -6.0890    -3.3190     1.1670 H     1 <1>   0.0800 
 44 H       -7.4710    -2.8280     2.1170 H     1 <1>   0.0800 
 45 H       -6.9000     1.9300    -1.2210 H     1 <1>   0.1500 
 46 H      -10.0920     0.3650    -0.2800 H     1 <1>   0.0800 
 47 H       -9.3490     1.6190    -1.2370 H     1 <1>   0.0800 
 48 H       -9.5170     1.8260     0.4920 H     1 <1>   0.0800 
@<TRIPOS>BOND
  1   1   2  2   
  2   1   3  2   
  3   1   4  am  
  4   1   5  am  
  5   4   6  1   
  6   4   7  1   
  7   5   8  1   
  8   5   9  1   
  9   6  10  1   
 10   6  24  1   
 11   6  25  1   
 12   7  11  1   
 13   7  26  1   
 14   7  27  1   
 15   8  12  1   
 16   8  28  1   
 17   8  29  1   
 18   9  13  1   
 19   9  30  1   
 20   9  31  1   
 21  10  14  1   
 22  10  32  1   
 23  10  33  1   
 24  11  14  1   
 25  11  34  1   
 26  11  35  1   
 27  12  15  1   
 28  12  36  1   
 29  12  37  1   
 30  13  15  1   
 31  13  38  1   
 32  13  39  1   
 33  15  16  1   
 34  16  17  ar  
 35  16  18  ar  
 36  17  19  ar  
 37  17  20  1   
 38  18  21  ar  
 39  18  40  1   
 40  19  22  ar  
 41  19  41  1   
 42  20  42  1   
 43  20  43  1   
 44  20  44  1   
 45  21  22  ar  
 46  21  45  1   
 47  22  23  1   
 48  23  46  1   
 49  23  47  1   
 50  23  48  1   
@<TRIPOS>SUBSTRUCTURE
  1 ****   8 GROUP 4 **** **** 0

# MOE 2024.06 (io_trps.svl 2023.06)
