@<TRIPOS>MOLECULE
6-(3,4-Dimethoxy-benzyl)-3-trifluoromethyl-[1,2,4]triazolo[3,4-b][1,3,4]thiadiaz
34 36 1 0 0 
SMALL
USER_CHARGES


@<TRIPOS>ATOM
  1 S       -1.7520    -2.1700     2.0250 S.3   1 <1>  -0.1970 
  2 C       -0.6560    -3.1080     1.0360 C.2   1 <1>   0.2420 
  3 C       -1.8740    -1.0020     0.6910 C.2   1 <1>   0.5300 
  4 N        0.0040    -4.2020     1.1680 N.2   1 <1>  -0.3380 
  5 N       -0.4960    -2.4960    -0.1250 N.pl3 1 <1>   0.5050 
  6 N       -1.1750    -1.2930    -0.3320 N.2   1 <1>  -0.6520 
  7 C       -2.7750     0.1970     0.9140 C.3   1 <1>   0.0450 
  8 N        0.6610    -4.3390     0.0020 N.2   1 <1>  -0.3380 
  9 C        0.3490    -3.3170    -0.7490 C.2   1 <1>   0.0070 
 10 C       -4.2370    -0.2200     0.9450 C.ar  1 <1>  -0.1440 
 11 C        0.8050    -2.9760    -2.1530 C.3   1 <1>   1.2000 
 12 C       -4.9050    -0.4860    -0.2420 C.ar  1 <1>  -0.1500 
 13 C       -4.9150    -0.3440     2.1490 C.ar  1 <1>  -0.1500 
 14 F        1.4490    -1.8160    -2.2030 F     1 <1>  -0.3400 
 15 F       -0.2110    -2.8760    -3.0020 F     1 <1>  -0.3400 
 16 F        1.6300    -3.8780    -2.6710 F     1 <1>  -0.3400 
 17 C       -6.2350    -0.8700    -0.2340 C.ar  1 <1>   0.0830 
 18 C       -6.2400    -0.7440     2.1670 C.ar  1 <1>  -0.1500 
 19 O       -6.8290    -1.0780    -1.4350 O.3   1 <1>  -0.3630 
 20 C       -6.9030    -1.0250     0.9850 C.ar  1 <1>   0.0830 
 21 C       -7.8790    -0.2000    -1.7770 C.3   1 <1>   0.0400 
 22 O       -8.1880    -1.4500     1.0740 O.3   1 <1>  -0.3630 
 23 C       -8.4340    -2.7780     0.6660 C.3   1 <1>   0.0400 
 24 H       -2.6220     0.9010     0.1170 H     1 <1>   0.0800 
 25 H       -2.5010     0.6780     1.8350 H     1 <1>   0.0800 
 26 H       -4.4030    -0.3930    -1.1890 H     1 <1>   0.1500 
 27 H       -4.4180    -0.1380     3.0820 H     1 <1>   0.1500 
 28 H       -6.7660    -0.8460     3.0990 H     1 <1>   0.1500 
 29 H       -8.1700    -0.4010    -2.7910 H     1 <1>   0.0800 
 30 H       -7.5290     0.8130    -1.6870 H     1 <1>   0.0800 
 31 H       -8.7120    -0.3650    -1.1180 H     1 <1>   0.0800 
 32 H       -9.4600    -3.0110     0.8820 H     1 <1>   0.0800 
 33 H       -7.7820    -3.4360     1.2130 H     1 <1>   0.0800 
 34 H       -8.2530    -2.8660    -0.3900 H     1 <1>   0.0800 
@<TRIPOS>BOND
  1   1   2  1   
  2   1   3  1   
  3   2   4  2   
  4   2   5  1   
  5   3   6  2   
  6   3   7  1   
  7   4   8  1   
  8   5   6  1   
  9   5   9  1   
 10   7  10  1   
 11   7  24  1   
 12   7  25  1   
 13   8   9  2   
 14   9  11  1   
 15  10  12  ar  
 16  10  13  ar  
 17  11  14  1   
 18  11  15  1   
 19  11  16  1   
 20  12  17  ar  
 21  12  26  1   
 22  13  18  ar  
 23  13  27  1   
 24  17  19  1   
 25  17  20  ar  
 26  18  20  ar  
 27  18  28  1   
 28  19  21  1   
 29  20  22  1   
 30  21  29  1   
 31  21  30  1   
 32  21  31  1   
 33  22  23  1   
 34  23  32  1   
 35  23  33  1   
 36  23  34  1   
@<TRIPOS>SUBSTRUCTURE
  1 ****   3 GROUP 4 **** **** 0

# MOE 2024.06 (io_trps.svl 2023.06)
