@<TRIPOS>MOLECULE
8-(2,6-Dimethyl-morpholin-4-ylmethyl)-7-ethyl-1,3-dimethyl-3,7-dihydro-purine-2,
50 52 1 0 0 
SMALL
USER_CHARGES


@<TRIPOS>ATOM
  1 O        0.3050     0.4270    -0.5010 O.2   1 <1>  -0.5700 
  2 C        1.4170     0.8670    -0.2890 C.2   1 <1>   0.6900 
  3 N        1.5760     2.0070     0.4920 N.am  1 <1>  -0.4200 
  4 N        2.5250     0.2340    -0.8340 N.am  1 <1>  -0.4360 
  5 C        2.8280     2.5720     0.6950 C.2   1 <1>   0.7030 
  6 C        0.3630     2.6510     1.0870 C.3   1 <1>   0.0600 
  7 C        3.7680     0.8050    -0.6280 C.2   1 <1>   0.4260 
  8 C        2.3730    -1.0080    -1.6510 C.3   1 <1>   0.0600 
  9 O        2.9480     3.5860     1.3610 O.2   1 <1>  -0.5700 
 10 C        3.9660     1.9290     0.1000 C.2   1 <1>   0.2770 
 11 N        4.9700     0.3730    -1.0910 N.pl3 1 <1>  -0.7000 
 12 N        5.3410     2.1770     0.0710 N.pl3 1 <1>  -0.7640 
 13 C        5.9050     1.2160    -0.6550 C.cat 1 <1>   0.6560 
 14 C        6.0060     3.3100     0.7660 C.3   1 <1>   0.3540 
 15 C        7.4070     1.0660    -0.9630 C.3   1 <1>   0.2540 
 16 C        5.9260     4.5480    -0.1200 C.3   1 <1>  -0.2400 
 17 N        8.2840     0.9650     0.2390 N.3   1 <1>  -0.8100 
 18 C        9.7060     0.8350    -0.1550 C.3   1 <1>   0.1100 
 19 C        7.9540    -0.1790     1.1240 C.3   1 <1>   0.1100 
 20 C       10.0820    -0.5620    -0.7290 C.3   1 <1>   0.2000 
 21 C        8.3460    -1.5700     0.5520 C.3   1 <1>   0.2000 
 22 O        9.0060    -1.4610    -0.6770 O.3   1 <1>  -0.5600 
 23 C       11.2940    -1.1910    -0.0360 C.3   1 <1>  -0.2400 
 24 C        7.1310    -2.4630     0.3120 C.3   1 <1>  -0.2400 
 25 H       -0.3500     1.9010     1.3860 H     1 <1>   0.0800 
 26 H       -0.0970     3.2950     0.3580 H     1 <1>   0.0800 
 27 H        0.6200     3.2320     1.9560 H     1 <1>   0.0800 
 28 H        1.4310    -1.4870    -1.4440 H     1 <1>   0.0800 
 29 H        3.1580    -1.7060    -1.4200 H     1 <1>   0.0800 
 30 H        2.4070    -0.7600    -2.6980 H     1 <1>   0.0800 
 31 H        5.1260    -0.4560    -1.6660 H     1 <1>   0.4500 
 32 H        7.0370     3.0760     0.9700 H     1 <1>   0.0800 
 33 H        5.5190     3.4990     1.7090 H     1 <1>   0.0800 
 34 H        7.7070     1.9290    -1.5310 H     1 <1>   0.0800 
 35 H        7.5400     0.2080    -1.5950 H     1 <1>   0.0800 
 36 H        6.4200     4.3760    -1.0590 H     1 <1>   0.0800 
 37 H        6.4130     5.3710     0.3730 H     1 <1>   0.0800 
 38 H        4.9010     4.8230    -0.2940 H     1 <1>   0.0800 
 39 H       10.3140     1.0260     0.7130 H     1 <1>   0.0800 
 40 H        9.9630     1.5960    -0.8720 H     1 <1>   0.0800 
 41 H        6.9110    -0.1640     1.3870 H     1 <1>   0.0800 
 42 H        8.4900    -0.0500     2.0490 H     1 <1>   0.0800 
 43 H       10.3230    -0.4450    -1.7710 H     1 <1>   0.0800 
 44 H        9.0050    -2.0690     1.2430 H     1 <1>   0.0800 
 45 H       11.1400    -1.2750     1.0240 H     1 <1>   0.0800 
 46 H       12.1630    -0.5800    -0.2000 H     1 <1>   0.0800 
 47 H       11.4860    -2.1650    -0.4490 H     1 <1>   0.0800 
 48 H        6.4700    -2.0200    -0.4070 H     1 <1>   0.0800 
 49 H        6.5970    -2.6160     1.2330 H     1 <1>   0.0800 
 50 H        7.4560    -3.4220    -0.0500 H     1 <1>   0.0800 
@<TRIPOS>BOND
  1   1   2  2   
  2   2   3  am  
  3   2   4  am  
  4   3   5  am  
  5   3   6  1   
  6   4   7  1   
  7   4   8  1   
  8   5   9  2   
  9   5  10  1   
 10   6  25  1   
 11   6  26  1   
 12   6  27  1   
 13   7  10  2   
 14   7  11  1   
 15   8  28  1   
 16   8  29  1   
 17   8  30  1   
 18  10  12  1   
 19  11  13  ar  
 20  11  31  1   
 21  12  13  ar  
 22  12  14  1   
 23  13  15  1   
 24  14  16  1   
 25  14  32  1   
 26  14  33  1   
 27  15  17  1   
 28  15  34  1   
 29  15  35  1   
 30  16  36  1   
 31  16  37  1   
 32  16  38  1   
 33  17  18  1   
 34  17  19  1   
 35  18  20  1   
 36  18  39  1   
 37  18  40  1   
 38  19  21  1   
 39  19  41  1   
 40  19  42  1   
 41  20  22  1   
 42  20  23  1   
 43  20  43  1   
 44  21  22  1   
 45  21  24  1   
 46  21  44  1   
 47  23  45  1   
 48  23  46  1   
 49  23  47  1   
 50  24  48  1   
 51  24  49  1   
 52  24  50  1   
@<TRIPOS>SUBSTRUCTURE
  1 ****  13 GROUP 4 **** **** 0

# MOE 2024.06 (io_trps.svl 2023.06)
