@<TRIPOS>MOLECULE
1-Methanesulfonyl-piperidine-3-carboxylic acid [2-(4-methoxy-phenyl)-ethyl]-amid
47 48 1 0 0 
SMALL
USER_CHARGES


@<TRIPOS>ATOM
  1 S        1.4120     0.3680     1.9230 S.o2  1 <1>   1.3330 
  2 O        1.6290    -1.0390     2.1660 O.2   1 <1>  -0.6500 
  3 O        1.6050     1.3340     2.9790 O.2   1 <1>  -0.6500 
  4 N        2.3860     0.8280     0.6160 N.am  1 <1>  -0.8490 
  5 C       -0.2550     0.5560     1.3190 C.3   1 <1>  -0.1350 
  6 C        2.2510     2.2380     0.2270 C.3   1 <1>   0.1960 
  7 C        2.3600    -0.0940    -0.5220 C.3   1 <1>   0.1960 
  8 C        3.3890     2.6440    -0.7170 C.3   1 <1>  -0.0190 
  9 C        3.4900     0.2480    -1.4990 C.3   1 <1>  -0.1600 
 10 C        3.2310     4.1030    -1.1300 C.2   1 <1>   0.5690 
 11 C        3.4340     1.7160    -1.9450 C.3   1 <1>  -0.1600 
 12 O        2.1280     4.5370    -1.3460 O.2   1 <1>  -0.5700 
 13 N        4.2990     4.9250    -1.2640 N.am  1 <1>  -0.7300 
 14 C        5.7410     4.6170    -1.1130 C.3   1 <1>   0.1400 
 15 C        6.2010     4.9560     0.3050 C.3   1 <1>  -0.0170 
 16 C        7.6430     4.5180     0.4940 C.ar  1 <1>  -0.1440 
 17 C        8.6850     5.3730     0.1690 C.ar  1 <1>  -0.1500 
 18 C        7.9270     3.2540     0.9860 C.ar  1 <1>  -0.1500 
 19 C       10.0000     4.9700     0.3300 C.ar  1 <1>  -0.1500 
 20 C        9.2400     2.8490     1.1470 C.ar  1 <1>  -0.1500 
 21 C       10.2830     3.6990     0.8210 C.ar  1 <1>   0.0820 
 22 O       11.5390     3.2230     1.0070 O.3   1 <1>  -0.3620 
 23 C       12.6720     4.0140     0.7220 C.3   1 <1>   0.0400 
 24 H       -0.4200    -0.0710     0.4660 H     1 <1>   0.0800 
 25 H       -0.4460     1.5760     1.0490 H     1 <1>   0.0800 
 26 H       -0.9490     0.2750     2.0860 H     1 <1>   0.0800 
 27 H        2.2930     2.8640     1.1040 H     1 <1>   0.0800 
 28 H        1.3010     2.3960    -0.2560 H     1 <1>   0.0800 
 29 H        1.4110    -0.0330    -1.0250 H     1 <1>   0.0800 
 30 H        2.4990    -1.1050    -0.1740 H     1 <1>   0.0800 
 31 H        4.3000     2.5340    -0.1610 H     1 <1>   0.0800 
 32 H        3.4240    -0.3950    -2.3580 H     1 <1>   0.0800 
 33 H        4.4320     0.0510    -1.0150 H     1 <1>   0.0800 
 34 H        4.2940     1.9480    -2.5500 H     1 <1>   0.0800 
 35 H        2.5530     1.8760    -2.5440 H     1 <1>   0.0800 
 36 H        4.0720     5.8880    -1.5270 H     1 <1>   0.3700 
 37 H        6.3060     5.1920    -1.8270 H     1 <1>   0.0800 
 38 H        5.9210     3.5760    -1.3160 H     1 <1>   0.0800 
 39 H        5.5780     4.4500     1.0220 H     1 <1>   0.0800 
 40 H        6.1160     6.0150     0.4730 H     1 <1>   0.0800 
 41 H        8.4780     6.3580    -0.2120 H     1 <1>   0.1500 
 42 H        7.1310     2.5770     1.2470 H     1 <1>   0.1500 
 43 H       10.7840     5.6540     0.0690 H     1 <1>   0.1500 
 44 H        9.4640     1.8690     1.5290 H     1 <1>   0.1500 
 45 H       13.5480     3.4350     0.9520 H     1 <1>   0.0800 
 46 H       12.6440     4.8960     1.3360 H     1 <1>   0.0800 
 47 H       12.6650     4.2680    -0.3230 H     1 <1>   0.0800 
@<TRIPOS>BOND
  1   1   2  2   
  2   1   3  2   
  3   1   4  am  
  4   1   5  1   
  5   4   6  1   
  6   4   7  1   
  7   5  24  1   
  8   5  25  1   
  9   5  26  1   
 10   6   8  1   
 11   6  27  1   
 12   6  28  1   
 13   7   9  1   
 14   7  29  1   
 15   7  30  1   
 16   8  10  1   
 17   8  11  1   
 18   8  31  1   
 19   9  11  1   
 20   9  32  1   
 21   9  33  1   
 22  10  12  2   
 23  10  13  am  
 24  11  34  1   
 25  11  35  1   
 26  13  14  1   
 27  13  36  1   
 28  14  15  1   
 29  14  37  1   
 30  14  38  1   
 31  15  16  1   
 32  15  39  1   
 33  15  40  1   
 34  16  17  ar  
 35  16  18  ar  
 36  17  19  ar  
 37  17  41  1   
 38  18  20  ar  
 39  18  42  1   
 40  19  21  ar  
 41  19  43  1   
 42  20  21  ar  
 43  20  44  1   
 44  21  22  1   
 45  22  23  1   
 46  23  45  1   
 47  23  46  1   
 48  23  47  1   
@<TRIPOS>SUBSTRUCTURE
  1 ****   8 GROUP 4 **** **** 0

# MOE 2024.06 (io_trps.svl 2023.06)
