@<TRIPOS>MOLECULE
4-Allyl-5-[2-(4-methoxy-benzylsulfanyl)-ethyl]-4H-[1,2,4]triazole-3-thiol
40 41 1 0 0 
SMALL
USER_CHARGES


@<TRIPOS>ATOM
  1 S       -0.0010    -3.2230     1.3680 S.3   1 <1>  -0.4600 
  2 C       -1.6940    -2.6410     1.6940 C.3   1 <1>   0.2140 
  3 C        1.0480    -1.7900     1.7460 C.3   1 <1>   0.0700 
  4 C       -1.9540    -1.4060     0.8470 C.ar  1 <1>  -0.1430 
  5 C        1.4070    -1.0810     0.4380 C.3   1 <1>   0.0080 
  6 C       -2.0350    -0.1510     1.4320 C.ar  1 <1>  -0.1500 
  7 C       -2.1000    -1.5270    -0.5270 C.ar  1 <1>  -0.1500 
  8 C        2.3900     0.0400     0.7100 C.2   1 <1>   0.4850 
  9 C       -2.2460     0.9740     0.6540 C.ar  1 <1>  -0.1500 
 10 C       -2.3120    -0.4050    -1.3060 C.ar  1 <1>  -0.1500 
 11 N        2.0610     1.2740     0.8580 N.2   1 <1>  -0.2600 
 12 N        3.7410    -0.1660     0.8540 N.pl3 1 <1>  -0.7640 
 13 C       -2.3830     0.8510    -0.7260 C.ar  1 <1>   0.0830 
 14 N        3.2490     1.8950     1.1150 N.pl3 1 <1>  -0.3930 
 15 C        4.2350     1.0270     1.1180 C.cat 1 <1>   0.7360 
 16 C        4.5560    -1.3850     0.7160 C.3   1 <1>   0.4920 
 17 O       -2.5870     1.8990    -1.5620 O.3   1 <1>  -0.3630 
 18 S        5.7830     1.3920     1.4330 S.3   1 <1>  -0.9360 
 19 C        4.5690    -1.8850    -0.7250 C.2   1 <1>  -0.2880 
 20 C       -2.7420     3.2110    -1.0700 C.3   1 <1>   0.0400 
 21 C        4.1630    -1.2450    -1.8300 C.2   1 <1>  -0.3000 
 22 H       -1.7680    -2.4330     2.7460 H     1 <1>   0.0800 
 23 H       -2.3630    -3.4420     1.4330 H     1 <1>   0.0800 
 24 H        1.9260    -2.1720     2.2370 H     1 <1>   0.0800 
 25 H        0.5080    -1.1460     2.4170 H     1 <1>   0.0800 
 26 H        0.5260    -0.6610    -0.0070 H     1 <1>   0.0800 
 27 H        1.8300    -1.7800    -0.2580 H     1 <1>   0.0800 
 28 H       -1.9330    -0.0410     2.4980 H     1 <1>   0.1500 
 29 H       -2.0420    -2.4960    -0.9930 H     1 <1>   0.1500 
 30 H       -2.3010     1.9320     1.1340 H     1 <1>   0.1500 
 31 H       -2.4250    -0.4950    -2.3720 H     1 <1>   0.1500 
 32 H        3.4200     2.8840     1.2970 H     1 <1>   0.4500 
 33 H        4.1440    -2.1470     1.3550 H     1 <1>   0.0800 
 34 H        5.5680    -1.2040     1.0380 H     1 <1>   0.0800 
 35 H        4.9820    -2.8770    -0.7790 H     1 <1>   0.1500 
 36 H       -2.9160     3.8630    -1.9070 H     1 <1>   0.0800 
 37 H       -1.8410     3.5020    -0.5610 H     1 <1>   0.0800 
 38 H       -3.5880     3.2370    -0.4060 H     1 <1>   0.0800 
 39 H        4.2100    -1.6670    -2.8200 H     1 <1>   0.1500 
 40 H        3.7620    -0.2460    -1.8470 H     1 <1>   0.1500 
@<TRIPOS>BOND
  1   1   2  1   
  2   1   3  1   
  3   2   4  1   
  4   2  22  1   
  5   2  23  1   
  6   3   5  1   
  7   3  24  1   
  8   3  25  1   
  9   4   6  ar  
 10   4   7  ar  
 11   5   8  1   
 12   5  26  1   
 13   5  27  1   
 14   6   9  ar  
 15   6  28  1   
 16   7  10  ar  
 17   7  29  1   
 18   8  11  2   
 19   8  12  1   
 20   9  13  ar  
 21   9  30  1   
 22  10  13  ar  
 23  10  31  1   
 24  11  14  1   
 25  12  15  ar  
 26  12  16  1   
 27  13  17  1   
 28  14  15  ar  
 29  14  32  1   
 30  15  18  1   
 31  16  19  1   
 32  16  33  1   
 33  16  34  1   
 34  17  20  1   
 35  19  21  2   
 36  19  35  1   
 37  20  36  1   
 38  20  37  1   
 39  20  38  1   
 40  21  39  1   
 41  21  40  1   
@<TRIPOS>SUBSTRUCTURE
  1 ****   5 GROUP 4 **** **** 0

# MOE 2024.06 (io_trps.svl 2023.06)
