@<TRIPOS>MOLECULE
1-Indol-1-yl-3-methylamino-propan-2-ol
32 33 1 0 0 
SMALL
USER_CHARGES


@<TRIPOS>ATOM
  1 O       -0.3370     0.7220    -1.5990 O.3   1 <1>  -0.6800 
  2 C       -1.2110     1.6590    -1.0380 C.3   1 <1>   0.2000 
  3 C       -2.0320     2.3300    -2.1540 C.3   1 <1>   0.0960 
  4 C       -0.3810     2.6720    -0.2120 C.3   1 <1>   0.3430 
  5 N       -2.6480     3.5680    -1.6400 N.pl3 1 <1>   0.0480 
  6 N        0.7540     1.9880     0.4740 N.4   1 <1>  -0.9060 
  7 C       -3.4860     3.6450    -0.5500 C.ar  1 <1>  -0.1520 
  8 C       -2.1670     4.8240    -1.8840 C.2   1 <1>  -0.3020 
  9 C        1.8200     2.9220     0.9330 C.3   1 <1>   0.2630 
 10 C       -3.5110     4.9650    -0.1100 C.ar  1 <1>   0.0000 
 11 C       -4.2360     2.6650     0.1080 C.ar  1 <1>  -0.1500 
 12 C       -2.6760     5.6940    -0.9810 C.2   1 <1>  -0.1500 
 13 C       -4.2710     5.3130     1.0100 C.ar  1 <1>  -0.1500 
 14 C       -4.9800     3.0190     1.2100 C.ar  1 <1>  -0.1500 
 15 C       -4.9950     4.3440     1.6630 C.ar  1 <1>  -0.1500 
 16 H       -0.8240     0.0350    -2.1080 H     1 <1>   0.4000 
 17 H       -1.8750     1.1260    -0.3780 H     1 <1>   0.0800 
 18 H       -2.8110     1.6750    -2.4990 H     1 <1>   0.0800 
 19 H       -1.3940     2.5890    -2.9800 H     1 <1>   0.0800 
 20 H       -1.0170     3.1750     0.5000 H     1 <1>   0.0800 
 21 H        0.0050     3.4190    -0.8870 H     1 <1>   0.0800 
 22 H        1.1150     1.3150    -0.2280 H     1 <1>   0.4500 
 23 H        0.4000     1.4160     1.2500 H     1 <1>   0.4500 
 24 H       -1.4880     5.0350    -2.6930 H     1 <1>   0.1500 
 25 H        2.2130     3.4810     0.0990 H     1 <1>   0.0800 
 26 H        2.6280     2.3720     1.3890 H     1 <1>   0.0800 
 27 H        1.4230     3.6160     1.6580 H     1 <1>   0.0800 
 28 H       -4.2470     1.6500    -0.2470 H     1 <1>   0.1500 
 29 H       -2.5060     6.7540    -0.9030 H     1 <1>   0.1500 
 30 H       -4.2820     6.3360     1.3410 H     1 <1>   0.1500 
 31 H       -5.5670     2.2840     1.7330 H     1 <1>   0.1500 
 32 H       -5.5870     4.5960     2.5250 H     1 <1>   0.1500 
@<TRIPOS>BOND
  1   1   2  1   
  2   1  16  1   
  3   2   3  1   
  4   2   4  1   
  5   2  17  1   
  6   3   5  1   
  7   3  18  1   
  8   3  19  1   
  9   4   6  1   
 10   4  20  1   
 11   4  21  1   
 12   5   7  1   
 13   5   8  1   
 14   6   9  1   
 15   6  22  1   
 16   6  23  1   
 17   7  10  ar  
 18   7  11  ar  
 19   8  12  2   
 20   8  24  1   
 21   9  25  1   
 22   9  26  1   
 23   9  27  1   
 24  10  12  1   
 25  10  13  ar  
 26  11  14  ar  
 27  11  28  1   
 28  12  29  1   
 29  13  15  ar  
 30  13  30  1   
 31  14  15  ar  
 32  14  31  1   
 33  15  32  1   
@<TRIPOS>SUBSTRUCTURE
  1 ****   7 GROUP 4 **** **** 0

# MOE 2024.06 (io_trps.svl 2023.06)
