@<TRIPOS>MOLECULE
2-(Benzo[1,3]dioxol-5-yl-methanesulfonyl-amino)-N,N-diethyl-acetamide
42 43 1 0 0 
SMALL
USER_CHARGES


@<TRIPOS>ATOM
  1 S        0.2590    -0.1610     0.2740 S.o2  1 <1>   1.3330 
  2 O        1.5930    -0.5200     0.6860 O.2   1 <1>  -0.6500 
  3 O       -0.4200    -0.8600    -0.7890 O.2   1 <1>  -0.6500 
  4 N        0.2810     1.5120    -0.1690 N.am  1 <1>  -0.6930 
  5 C       -0.7680    -0.1770     1.7290 C.3   1 <1>  -0.1350 
  6 C       -0.8790     2.2710    -0.0670 C.ar  1 <1>   0.1990 
  7 C        1.1290     1.8140    -1.3680 C.3   1 <1>   0.2570 
  8 C       -2.0010     1.9740    -0.8400 C.ar  1 <1>  -0.1500 
  9 C       -0.9200     3.3480     0.8230 C.ar  1 <1>  -0.1500 
 10 C        2.6310     1.4860    -1.2950 C.2   1 <1>   0.5690 
 11 C       -3.1240     2.7590    -0.6900 C.ar  1 <1>   0.0830 
 12 C       -2.0600     4.1280     0.9600 C.ar  1 <1>  -0.1500 
 13 O        3.0650     0.8200    -2.2100 O.2   1 <1>  -0.5700 
 14 N        3.4660     1.9640    -0.3040 N.am  1 <1>  -0.6600 
 15 O       -4.2990     2.6530    -1.3200 O.3   1 <1>  -0.3630 
 16 C       -3.1550     3.8050     0.1840 C.ar  1 <1>   0.0830 
 17 C        4.8710     1.4720    -0.2210 C.3   1 <1>   0.1400 
 18 C        3.0250     2.7800     0.8580 C.3   1 <1>   0.1400 
 19 C       -5.1300     3.6980    -0.8170 C.3   1 <1>   0.4000 
 20 O       -4.3520     4.4070     0.1460 O.3   1 <1>  -0.3630 
 21 C        5.8360     2.5680    -0.6640 C.3   1 <1>  -0.2400 
 22 C        2.8290     4.2390     0.4460 C.3   1 <1>  -0.2400 
 23 H       -0.8230    -1.1720     2.1240 H     1 <1>   0.0800 
 24 H       -1.7610     0.1500     1.4930 H     1 <1>   0.0800 
 25 H       -0.3560     0.4680     2.4800 H     1 <1>   0.0800 
 26 H        1.0370     2.8550    -1.6120 H     1 <1>   0.0800 
 27 H        0.7250     1.2640    -2.2000 H     1 <1>   0.0800 
 28 H       -1.9990     1.1540    -1.5360 H     1 <1>   0.1500 
 29 H       -0.0490     3.5710     1.4120 H     1 <1>   0.1500 
 30 H       -2.1040     4.9590     1.6420 H     1 <1>   0.1500 
 31 H        5.0010     0.6080    -0.8520 H     1 <1>   0.0800 
 32 H        5.0900     1.1630     0.7870 H     1 <1>   0.0800 
 33 H        3.7700     2.7340     1.6340 H     1 <1>   0.0800 
 34 H        2.1200     2.3770     1.2720 H     1 <1>   0.0800 
 35 H       -5.9960     3.2730    -0.3400 H     1 <1>   0.0800 
 36 H       -5.4030     4.3600    -1.6200 H     1 <1>   0.0800 
 37 H        5.5900     2.8910    -1.6600 H     1 <1>   0.0800 
 38 H        6.8390     2.1820    -0.6690 H     1 <1>   0.0800 
 39 H        5.7980     3.4040     0.0090 H     1 <1>   0.0800 
 40 H        3.7320     4.6320     0.0170 H     1 <1>   0.0800 
 41 H        2.5830     4.8250     1.3120 H     1 <1>   0.0800 
 42 H        2.0290     4.3360    -0.2620 H     1 <1>   0.0800 
@<TRIPOS>BOND
  1   1   2  2   
  2   1   3  2   
  3   1   4  am  
  4   1   5  1   
  5   4   6  1   
  6   4   7  1   
  7   5  23  1   
  8   5  24  1   
  9   5  25  1   
 10   6   8  ar  
 11   6   9  ar  
 12   7  10  1   
 13   7  26  1   
 14   7  27  1   
 15   8  11  ar  
 16   8  28  1   
 17   9  12  ar  
 18   9  29  1   
 19  10  13  2   
 20  10  14  am  
 21  11  15  1   
 22  11  16  ar  
 23  12  16  ar  
 24  12  30  1   
 25  14  17  1   
 26  14  18  1   
 27  15  19  1   
 28  16  20  1   
 29  17  21  1   
 30  17  31  1   
 31  17  32  1   
 32  18  22  1   
 33  18  33  1   
 34  18  34  1   
 35  19  20  1   
 36  19  35  1   
 37  19  36  1   
 38  21  37  1   
 39  21  38  1   
 40  21  39  1   
 41  22  40  1   
 42  22  41  1   
 43  22  42  1   
@<TRIPOS>SUBSTRUCTURE
  1 ****   4 GROUP 4 **** **** 0

# MOE 2024.06 (io_trps.svl 2023.06)
