@<TRIPOS>MOLECULE
2,4-Dichloro-N-[1-(4-ethyl-5-mercapto-4H-[1,2,4]triazol-3-yl)-2-methyl-propyl]-b
41 42 1 0 0 
SMALL
USER_CHARGES


@<TRIPOS>ATOM
  1 CL       2.2870    -0.6510     1.7360 Cl    1 <1>  -0.1770 
  2 C        2.1000    -1.7250     0.3670 C.ar  1 <1>   0.1770 
  3 C        2.6920    -1.4620    -0.8790 C.ar  1 <1>   0.0860 
  4 C        1.3260    -2.8470     0.5980 C.ar  1 <1>  -0.1500 
  5 C        3.5180    -0.3020    -1.1890 C.2   1 <1>   0.5440 
  6 C        2.4520    -2.4070    -1.8870 C.ar  1 <1>  -0.1500 
  7 C        1.1230    -3.7460    -0.4270 C.ar  1 <1>   0.1770 
  8 O        3.7180     0.0130    -2.3440 O.2   1 <1>  -0.5700 
  9 N        4.1190     0.4640    -0.2370 N.am  1 <1>  -0.7300 
 10 C        1.6800    -3.5350    -1.6720 C.ar  1 <1>  -0.1500 
 11 CL       0.1510    -5.1640    -0.1460 Cl    1 <1>  -0.1770 
 12 C        4.9700     1.6510    -0.5380 C.3   1 <1>   0.3880 
 13 C        6.4230     1.2570    -0.8850 C.2   1 <1>   0.4850 
 14 C        4.8860     2.6650     0.6340 C.3   1 <1>  -0.0800 
 15 N        7.0300     1.6910    -1.9360 N.2   1 <1>  -0.2600 
 16 N        7.2390     0.4460    -0.1110 N.pl3 1 <1>  -0.7640 
 17 C        3.4380     3.1080     0.9190 C.3   1 <1>  -0.2400 
 18 C        5.7340     3.9220     0.3670 C.3   1 <1>  -0.2400 
 19 N        8.2800     1.1550    -1.8410 N.pl3 1 <1>  -0.3930 
 20 C        8.3920     0.4280    -0.7530 C.cat 1 <1>   0.7360 
 21 C        6.9880    -0.3200     1.1200 C.3   1 <1>   0.3540 
 22 S        9.7470    -0.3390    -0.2930 S.3   1 <1>  -0.9360 
 23 C        6.6000    -1.7520     0.7600 C.3   1 <1>  -0.2400 
 24 H        0.8840    -3.0220     1.5620 H     1 <1>   0.1500 
 25 H        2.8810    -2.2530    -2.8640 H     1 <1>   0.1500 
 26 H        3.8780     0.3330     0.7460 H     1 <1>   0.3700 
 27 H        1.5080    -4.2470    -2.4610 H     1 <1>   0.1500 
 28 H        4.5650     2.1360    -1.4100 H     1 <1>   0.0800 
 29 H        5.2780     2.1990     1.5210 H     1 <1>   0.0800 
 30 H        3.0030     3.5630     0.0470 H     1 <1>   0.0800 
 31 H        3.4170     3.8250     1.7210 H     1 <1>   0.0800 
 32 H        2.8220     2.2760     1.2110 H     1 <1>   0.0800 
 33 H        5.4170     4.4130    -0.5360 H     1 <1>   0.0800 
 34 H        6.7780     3.6740     0.2760 H     1 <1>   0.0800 
 35 H        5.6380     4.6180     1.1820 H     1 <1>   0.0800 
 36 H        9.0610     1.2560    -2.4870 H     1 <1>   0.4500 
 37 H        6.2030     0.1420     1.6900 H     1 <1>   0.0800 
 38 H        7.8790    -0.3290     1.7270 H     1 <1>   0.0800 
 39 H        5.7380    -1.7680     0.1220 H     1 <1>   0.0800 
 40 H        6.3820    -2.3050     1.6550 H     1 <1>   0.0800 
 41 H        7.4210    -2.2330     0.2580 H     1 <1>   0.0800 
@<TRIPOS>BOND
  1   1   2  1   
  2   2   3  ar  
  3   2   4  ar  
  4   3   5  1   
  5   3   6  ar  
  6   4   7  ar  
  7   4  24  1   
  8   5   8  2   
  9   5   9  am  
 10   6  10  ar  
 11   6  25  1   
 12   7  10  ar  
 13   7  11  1   
 14   9  12  1   
 15   9  26  1   
 16  10  27  1   
 17  12  13  1   
 18  12  14  1   
 19  12  28  1   
 20  13  15  2   
 21  13  16  1   
 22  14  17  1   
 23  14  18  1   
 24  14  29  1   
 25  15  19  1   
 26  16  20  ar  
 27  16  21  1   
 28  17  30  1   
 29  17  31  1   
 30  17  32  1   
 31  18  33  1   
 32  18  34  1   
 33  18  35  1   
 34  19  20  ar  
 35  19  36  1   
 36  20  22  1   
 37  21  23  1   
 38  21  37  1   
 39  21  38  1   
 40  23  39  1   
 41  23  40  1   
 42  23  41  1   
@<TRIPOS>SUBSTRUCTURE
  1 ****   9 GROUP 4 **** **** 0

# MOE 2024.06 (io_trps.svl 2023.06)
