@<TRIPOS>MOLECULE
Pentanoic acid [3-(2-chloro-phenyl)-[1,2,4]oxadiazol-5-ylmethyl]-amide
36 37 1 0 0 
SMALL
USER_CHARGES


@<TRIPOS>ATOM
  1 CL      -0.7400    -0.7130     0.0120 Cl    1 <1>  -0.1770 
  2 C        0.2460    -1.9890    -0.6670 C.ar  1 <1>   0.1770 
  3 C        1.6090    -1.7930    -0.8870 C.ar  1 <1>   0.0540 
  4 C       -0.3860    -3.1760    -0.9870 C.ar  1 <1>  -0.1500 
  5 C        2.2850    -0.5640    -0.5440 C.2   1 <1>   0.4620 
  6 C        2.3150    -2.8470    -1.4690 C.ar  1 <1>  -0.1500 
  7 C        0.3410    -4.2080    -1.5540 C.ar  1 <1>  -0.1500 
  8 N        2.9740     0.1540    -1.3560 N.2   1 <1>  -0.4100 
  9 N        2.2830    -0.0590     0.6920 N.2   1 <1>  -0.5650 
 10 C        1.6930    -4.0390    -1.7960 C.ar  1 <1>  -0.1500 
 11 O        3.4420     1.1630    -0.6910 O.3   1 <1>  -0.0190 
 12 C        2.9940     0.9790     0.5240 C.2   1 <1>   0.2980 
 13 C        3.3500     2.0020     1.5920 C.3   1 <1>   0.3200 
 14 N        4.7960     1.9590     1.9350 N.am  1 <1>  -0.7300 
 15 C        5.7990     2.7510     1.4960 C.2   1 <1>   0.5690 
 16 O        6.9190     2.5350     1.8800 O.2   1 <1>  -0.5700 
 17 C        5.5170     3.8980     0.5320 C.3   1 <1>  -0.0990 
 18 C        6.7810     4.5860    -0.0160 C.3   1 <1>  -0.1600 
 19 C        6.4260     5.7140    -0.9930 C.3   1 <1>  -0.1600 
 20 C        7.6900     6.3890    -1.5320 C.3   1 <1>  -0.2400 
 21 H       -1.4380    -3.2870    -0.7970 H     1 <1>   0.1500 
 22 H        3.3680    -2.7260    -1.6630 H     1 <1>   0.1500 
 23 H       -0.1430    -5.1370    -1.8070 H     1 <1>   0.1500 
 24 H        2.2620    -4.8380    -2.2410 H     1 <1>   0.1500 
 25 H        2.7770     1.7930     2.4780 H     1 <1>   0.0800 
 26 H        3.0760     2.9820     1.2450 H     1 <1>   0.0800 
 27 H        5.0890     1.1710     2.5170 H     1 <1>   0.3700 
 28 H        4.9180     4.6270     1.0460 H     1 <1>   0.0800 
 29 H        4.9520     3.5140    -0.2960 H     1 <1>   0.0800 
 30 H        7.3920     3.8540    -0.5170 H     1 <1>   0.0800 
 31 H        7.3520     4.9850     0.8050 H     1 <1>   0.0800 
 32 H        5.8190     6.4500    -0.4940 H     1 <1>   0.0800 
 33 H        5.8600     5.3160    -1.8190 H     1 <1>   0.0800 
 34 H        8.2630     6.8130    -0.7260 H     1 <1>   0.0800 
 35 H        7.4250     7.1770    -2.2150 H     1 <1>   0.0800 
 36 H        8.3040     5.6760    -2.0540 H     1 <1>   0.0800 
@<TRIPOS>BOND
  1   1   2  1   
  2   2   3  ar  
  3   2   4  ar  
  4   3   5  1   
  5   3   6  ar  
  6   4   7  ar  
  7   4  21  1   
  8   5   8  2   
  9   5   9  1   
 10   6  10  ar  
 11   6  22  1   
 12   7  10  ar  
 13   7  23  1   
 14   8  11  1   
 15   9  12  2   
 16  10  24  1   
 17  11  12  1   
 18  12  13  1   
 19  13  14  1   
 20  13  25  1   
 21  13  26  1   
 22  14  15  am  
 23  14  27  1   
 24  15  16  2   
 25  15  17  1   
 26  17  18  1   
 27  17  28  1   
 28  17  29  1   
 29  18  19  1   
 30  18  30  1   
 31  18  31  1   
 32  19  20  1   
 33  19  32  1   
 34  19  33  1   
 35  20  34  1   
 36  20  35  1   
 37  20  36  1   
@<TRIPOS>SUBSTRUCTURE
  1 ****  11 GROUP 4 **** **** 0

# MOE 2024.06 (io_trps.svl 2023.06)
