@<TRIPOS>MOLECULE
6-Morpholin-4-ylmethyl-2-oxo-4-o-tolyl-1,2,3,4-tetrahydro-pyrimidine-5-carboxyli
48 50 1 0 0 
SMALL
USER_CHARGES


@<TRIPOS>ATOM
  1 O        0.1830     0.7670    -1.7450 O.2   1 <1>  -0.5700 
  2 C        0.1390     1.8240    -1.1590 C.2   1 <1>   0.6900 
  3 N       -0.9390     2.6360    -1.2660 N.am  1 <1>  -0.5390 
  4 N        1.1610     2.2260    -0.3870 N.am  1 <1>  -0.7300 
  5 C       -1.0740     3.8610    -0.6450 C.2   1 <1>  -0.0290 
  6 C        1.2450     3.5590     0.2410 C.3   1 <1>   0.5020 
  7 C       -0.0520     4.3670     0.0990 C.2   1 <1>  -0.1240 
  8 C       -2.4310     4.5390    -0.8810 C.3   1 <1>   0.2480 
  9 C        2.4390     4.2770    -0.3960 C.ar  1 <1>  -0.1430 
 10 C       -0.0250     5.6220     0.7850 C.2   1 <1>   0.7060 
 11 N       -3.5190     3.5440    -1.0000 N.3   1 <1>  -0.8100 
 12 C        3.6400     4.4860     0.2850 C.ar  1 <1>  -0.1440 
 13 C        2.3180     4.7310    -1.7040 C.ar  1 <1>  -0.1500 
 14 O       -0.7770     6.5430     0.5290 O.2   1 <1>  -0.5700 
 15 O        0.8640     5.7920     1.7730 O.3   1 <1>  -0.4300 
 16 C       -3.8060     2.9010     0.3010 C.3   1 <1>   0.1100 
 17 C       -4.7510     4.1740    -1.5110 C.3   1 <1>   0.1100 
 18 C        4.6780     5.1520    -0.3490 C.ar  1 <1>  -0.1500 
 19 C        3.8640     4.0020     1.7120 C.3   1 <1>  -0.0970 
 20 C        3.3590     5.3930    -2.3280 C.ar  1 <1>  -0.1500 
 21 C        0.9940     7.0250     2.4540 C.3   1 <1>   0.0400 
 22 C       -4.9880     1.9220     0.1840 C.3   1 <1>   0.1200 
 23 C       -5.9060     3.1580    -1.5760 C.3   1 <1>   0.1200 
 24 C        4.5410     5.6060    -1.6480 C.ar  1 <1>  -0.1500 
 25 O       -6.1180     2.5760    -0.3210 O.3   1 <1>  -0.5600 
 26 H       -1.7500     2.2550    -1.7620 H     1 <1>   0.3700 
 27 H        2.0430     1.7340    -0.5110 H     1 <1>   0.3700 
 28 H        1.4170     3.4010     1.2890 H     1 <1>   0.0800 
 29 H       -2.3630     5.0950    -1.8010 H     1 <1>   0.0800 
 30 H       -2.6680     5.2310    -0.0920 H     1 <1>   0.0800 
 31 H        1.4050     4.5660    -2.2520 H     1 <1>   0.1500 
 32 H       -4.0450     3.6470     1.0400 H     1 <1>   0.0800 
 33 H       -2.9400     2.3600     0.6400 H     1 <1>   0.0800 
 34 H       -4.5720     4.5630    -2.4980 H     1 <1>   0.0800 
 35 H       -5.0420     4.9920    -0.8740 H     1 <1>   0.0800 
 36 H        5.6080     5.3240     0.1640 H     1 <1>   0.1500 
 37 H        3.2090     4.5220     2.3880 H     1 <1>   0.0800 
 38 H        4.8760     4.1820     2.0260 H     1 <1>   0.0800 
 39 H        3.6800     2.9450     1.7810 H     1 <1>   0.0800 
 40 H        3.2480     5.7400    -3.3400 H     1 <1>   0.1500 
 41 H        1.7710     6.9280     3.1910 H     1 <1>   0.0800 
 42 H        0.0580     7.2630     2.9290 H     1 <1>   0.0800 
 43 H        1.2540     7.7890     1.7410 H     1 <1>   0.0800 
 44 H       -5.2430     1.5260     1.1500 H     1 <1>   0.0800 
 45 H       -4.7390     1.1070    -0.4720 H     1 <1>   0.0800 
 46 H       -5.6830     2.3790    -2.2840 H     1 <1>   0.0800 
 47 H       -6.8180     3.6460    -1.8690 H     1 <1>   0.0800 
 48 H        5.3540     6.1220    -2.1280 H     1 <1>   0.1500 
@<TRIPOS>BOND
  1   1   2  2   
  2   2   3  am  
  3   2   4  am  
  4   3   5  1   
  5   3  26  1   
  6   4   6  1   
  7   4  27  1   
  8   5   7  2   
  9   5   8  1   
 10   6   7  1   
 11   6   9  1   
 12   6  28  1   
 13   7  10  1   
 14   8  11  1   
 15   8  29  1   
 16   8  30  1   
 17   9  12  ar  
 18   9  13  ar  
 19  10  14  2   
 20  10  15  1   
 21  11  16  1   
 22  11  17  1   
 23  12  18  ar  
 24  12  19  1   
 25  13  20  ar  
 26  13  31  1   
 27  15  21  1   
 28  16  22  1   
 29  16  32  1   
 30  16  33  1   
 31  17  23  1   
 32  17  34  1   
 33  17  35  1   
 34  18  24  ar  
 35  18  36  1   
 36  19  37  1   
 37  19  38  1   
 38  19  39  1   
 39  20  24  ar  
 40  20  40  1   
 41  21  41  1   
 42  21  42  1   
 43  21  43  1   
 44  22  25  1   
 45  22  44  1   
 46  22  45  1   
 47  23  25  1   
 48  23  46  1   
 49  23  47  1   
 50  24  48  1   
@<TRIPOS>SUBSTRUCTURE
  1 ****   7 GROUP 4 **** **** 0

# MOE 2024.06 (io_trps.svl 2023.06)
