@<TRIPOS>MOLECULE
3-Ethyl-8-(3-methoxy-propyl)-1,6,7-trimethyl-1H,8H-pyrrolo[2,1-f]purine-2,4-dion
48 50 1 0 0 
SMALL
USER_CHARGES


@<TRIPOS>ATOM
  1 O        0.6720    -0.1520    -0.4770 O.2   1 <1>  -0.5700 
  2 C        1.6490     0.5740    -0.3950 C.2   1 <1>   0.6900 
  3 N        1.5380     1.9220    -0.7220 N.am  1 <1>  -0.4200 
  4 N        2.8620     0.0560     0.0230 N.am  1 <1>  -0.4230 
  5 C        2.6300     2.7670    -0.6320 C.2   1 <1>   0.7150 
  6 C        0.2230     2.4650    -1.1650 C.3   1 <1>   0.1400 
  7 C        3.9580     0.9020     0.1210 C.2   1 <1>   0.2900 
  8 C        3.0390    -1.3750     0.3900 C.3   1 <1>   0.0600 
  9 O        2.5290     3.9460    -0.9220 O.2   1 <1>  -0.5700 
 10 C        3.8520     2.2120    -0.1940 C.2   1 <1>  -0.2370 
 11 C       -0.5720     2.9570     0.0450 C.3   1 <1>  -0.2400 
 12 N        5.1950     0.5620     0.5190 N.2   1 <1>  -0.5650 
 13 N        5.0850     2.7400     0.0110 N.pl3 1 <1>   0.3340 
 14 C        5.8210     1.6950     0.4340 C.2   1 <1>   0.0060 
 15 C        5.8780     3.8990    -0.0110 C.2   1 <1>  -0.1690 
 16 C        7.2560     2.1230     0.7210 C.3   1 <1>   0.2380 
 17 C        7.1270     3.6190     0.3870 C.2   1 <1>  -0.2760 
 18 C        5.2660     5.2210    -0.4450 C.3   1 <1>  -0.1020 
 19 C        8.2410     1.3540    -0.1780 C.3   1 <1>  -0.1600 
 20 C        8.3170     4.5530     0.5480 C.3   1 <1>  -0.1020 
 21 C        9.6970     1.4030     0.3190 C.3   1 <1>  -0.1600 
 22 C       10.6130     0.5700    -0.5830 C.3   1 <1>   0.1200 
 23 O       11.9070     0.5930    -0.0700 O.3   1 <1>  -0.5600 
 24 C       12.7030     1.6480    -0.5090 C.3   1 <1>   0.0400 
 25 H       -0.3340     1.7020    -1.6820 H     1 <1>   0.0800 
 26 H        0.3750     3.2760    -1.8560 H     1 <1>   0.0800 
 27 H        2.1380    -1.9360     0.2140 H     1 <1>   0.0800 
 28 H        3.2980    -1.4450     1.4310 H     1 <1>   0.0800 
 29 H        3.8340    -1.7980    -0.1970 H     1 <1>   0.0800 
 30 H       -0.7530     2.1450     0.7270 H     1 <1>   0.0800 
 31 H       -1.5200     3.3450    -0.2800 H     1 <1>   0.0800 
 32 H       -0.0380     3.7420     0.5510 H     1 <1>   0.0800 
 33 H        7.4710     1.9700     1.7650 H     1 <1>   0.0800 
 34 H        4.8850     5.1390    -1.4470 H     1 <1>   0.0800 
 35 H        5.9910     6.0130    -0.4250 H     1 <1>   0.0800 
 36 H        4.4560     5.4860     0.2110 H     1 <1>   0.0800 
 37 H        8.1740     1.7350    -1.1820 H     1 <1>   0.0800 
 38 H        7.9330     0.3230    -0.2010 H     1 <1>   0.0800 
 39 H        9.0420     4.3680    -0.2240 H     1 <1>   0.0800 
 40 H        8.7770     4.4050     1.5090 H     1 <1>   0.0800 
 41 H        8.0130     5.5800     0.4780 H     1 <1>   0.0800 
 42 H        9.7470     1.0040     1.3170 H     1 <1>   0.0800 
 43 H       10.0480     2.4160     0.3380 H     1 <1>   0.0800 
 44 H       10.6170     0.9330    -1.5970 H     1 <1>   0.0800 
 45 H       10.2910    -0.4570    -0.5830 H     1 <1>   0.0800 
 46 H       13.6690     1.5500    -0.0470 H     1 <1>   0.0800 
 47 H       12.2570     2.5820    -0.2190 H     1 <1>   0.0800 
 48 H       12.8070     1.5920    -1.5790 H     1 <1>   0.0800 
@<TRIPOS>BOND
  1   1   2  2   
  2   2   3  am  
  3   2   4  am  
  4   3   5  am  
  5   3   6  1   
  6   4   7  1   
  7   4   8  1   
  8   5   9  2   
  9   5  10  1   
 10   6  11  1   
 11   6  25  1   
 12   6  26  1   
 13   7  10  2   
 14   7  12  1   
 15   8  27  1   
 16   8  28  1   
 17   8  29  1   
 18  10  13  1   
 19  11  30  1   
 20  11  31  1   
 21  11  32  1   
 22  12  14  2   
 23  13  14  1   
 24  13  15  1   
 25  14  16  1   
 26  15  17  2   
 27  15  18  1   
 28  16  17  1   
 29  16  19  1   
 30  16  33  1   
 31  17  20  1   
 32  18  34  1   
 33  18  35  1   
 34  18  36  1   
 35  19  21  1   
 36  19  37  1   
 37  19  38  1   
 38  20  39  1   
 39  20  40  1   
 40  20  41  1   
 41  21  22  1   
 42  21  42  1   
 43  21  43  1   
 44  22  23  1   
 45  22  44  1   
 46  22  45  1   
 47  23  24  1   
 48  24  46  1   
 49  24  47  1   
 50  24  48  1   
@<TRIPOS>SUBSTRUCTURE
  1 ****  13 GROUP 4 **** **** 0

# MOE 2024.06 (io_trps.svl 2023.06)
