@<TRIPOS>MOLECULE
N-[2-(4-tert-Butyl-benzoylamino)-ethyl]-nicotinamide
47 48 1 0 0 
SMALL
USER_CHARGES


@<TRIPOS>ATOM
  1 O        1.3480    -0.2660     1.1510 O.2   1 <1>  -0.5700 
  2 C        1.9750    -1.0290     0.4440 C.2   1 <1>   0.5440 
  3 N        2.6930    -0.5130    -0.6020 N.am  1 <1>  -0.7300 
  4 C        1.9530    -2.4530     0.7000 C.ar  1 <1>   0.0860 
  5 C        2.6960     0.9220    -0.9870 C.3   1 <1>   0.1400 
  6 C        3.0600    -3.2550     0.4280 C.ar  1 <1>   0.1600 
  7 C        0.8350    -3.0840     1.2290 C.ar  1 <1>  -0.1500 
  8 C        3.4700     1.7550     0.0460 C.3   1 <1>   0.1400 
  9 N        3.1350    -4.5640     0.6070 N.ar  1 <1>  -0.6200 
 10 C        0.8910    -4.4470     1.4300 C.ar  1 <1>  -0.1500 
 11 N        3.5800     3.1800    -0.3620 N.am  1 <1>  -0.7300 
 12 C        2.0480    -5.1320     1.1040 C.ar  1 <1>   0.1600 
 13 C        2.6030     4.0760    -0.6790 C.2   1 <1>   0.5440 
 14 O        2.9910     5.1240    -1.1490 O.2   1 <1>  -0.5700 
 15 C        1.1820     3.8140    -0.5240 C.ar  1 <1>   0.0860 
 16 C        0.2930     4.1240    -1.5490 C.ar  1 <1>  -0.1500 
 17 C        0.6430     3.2390     0.6240 C.ar  1 <1>  -0.1500 
 18 C       -1.0580     3.8450    -1.4510 C.ar  1 <1>  -0.1500 
 19 C       -0.7050     2.9540     0.7230 C.ar  1 <1>  -0.1500 
 20 C       -1.5870     3.2450    -0.3120 C.ar  1 <1>  -0.1430 
 21 C       -3.0830     2.8970    -0.1560 C.3   1 <1>   0.1430 
 22 C       -3.9250     3.2810    -1.3840 C.3   1 <1>  -0.2400 
 23 C       -3.2360     1.3830     0.0560 C.3   1 <1>  -0.2400 
 24 C       -3.6610     3.6440     1.0560 C.3   1 <1>  -0.2400 
 25 H        3.0650    -1.1500    -1.3100 H     1 <1>   0.3700 
 26 H        1.6760     1.2610    -1.0470 H     1 <1>   0.0800 
 27 H        3.1550     1.0290    -1.9540 H     1 <1>   0.0800 
 28 H        3.9450    -2.7810     0.0430 H     1 <1>   0.1500 
 29 H       -0.0470    -2.5150     1.4720 H     1 <1>   0.1500 
 30 H        4.4620     1.3510     0.1460 H     1 <1>   0.0800 
 31 H        2.9870     1.6930     1.0050 H     1 <1>   0.0800 
 32 H        0.0470    -4.9750     1.8360 H     1 <1>   0.1500 
 33 H        4.5280     3.5320    -0.5090 H     1 <1>   0.3700 
 34 H        2.0830    -6.1970     1.2620 H     1 <1>   0.1500 
 35 H        0.6760     4.5920    -2.4390 H     1 <1>   0.1500 
 36 H        1.2850     3.0070     1.4530 H     1 <1>   0.1500 
 37 H       -1.6800     4.1100    -2.2850 H     1 <1>   0.1500 
 38 H       -1.0600     2.4930     1.6270 H     1 <1>   0.1500 
 39 H       -3.5750     2.7620    -2.2590 H     1 <1>   0.0800 
 40 H       -3.8740     4.3410    -1.5600 H     1 <1>   0.0800 
 41 H       -4.9570     3.0190    -1.2320 H     1 <1>   0.0800 
 42 H       -2.7400     1.0650     0.9550 H     1 <1>   0.0800 
 43 H       -2.8040     0.8510    -0.7720 H     1 <1>   0.0800 
 44 H       -4.2740     1.1130     0.1350 H     1 <1>   0.0800 
 45 H       -4.7120     3.4430     1.1600 H     1 <1>   0.0800 
 46 H       -3.1730     3.3450     1.9650 H     1 <1>   0.0800 
 47 H       -3.5240     4.7030     0.9320 H     1 <1>   0.0800 
@<TRIPOS>BOND
  1   1   2  2   
  2   2   3  am  
  3   2   4  1   
  4   3   5  1   
  5   3  25  1   
  6   4   6  ar  
  7   4   7  ar  
  8   5   8  1   
  9   5  26  1   
 10   5  27  1   
 11   6   9  ar  
 12   6  28  1   
 13   7  10  ar  
 14   7  29  1   
 15   8  11  1   
 16   8  30  1   
 17   8  31  1   
 18   9  12  ar  
 19  10  12  ar  
 20  10  32  1   
 21  11  13  am  
 22  11  33  1   
 23  12  34  1   
 24  13  14  2   
 25  13  15  1   
 26  15  16  ar  
 27  15  17  ar  
 28  16  18  ar  
 29  16  35  1   
 30  17  19  ar  
 31  17  36  1   
 32  18  20  ar  
 33  18  37  1   
 34  19  20  ar  
 35  19  38  1   
 36  20  21  1   
 37  21  22  1   
 38  21  23  1   
 39  21  24  1   
 40  22  39  1   
 41  22  40  1   
 42  22  41  1   
 43  23  42  1   
 44  23  43  1   
 45  23  44  1   
 46  24  45  1   
 47  24  46  1   
 48  24  47  1   
@<TRIPOS>SUBSTRUCTURE
  1 ****   1 GROUP 4 **** **** 0

# MOE 2024.06 (io_trps.svl 2023.06)
