@<TRIPOS>MOLECULE
N*1*,N*1*-Diethyl-1-phenyl-ethane-1,2-diamine
36 36 1 0 0 
SMALL
USER_CHARGES


@<TRIPOS>ATOM
  1 N        0.3340    -0.2450     0.1920 N.4   1 <1>  -0.9590 
  2 C       -0.7420     0.8120     0.2240 C.3   1 <1>   0.5660 
  3 C        1.7130     0.2640     0.4780 C.3   1 <1>   0.3430 
  4 C        0.3180    -1.1430    -1.0050 C.3   1 <1>   0.3430 
  5 C       -2.0970     0.1310     0.3560 C.ar  1 <1>  -0.1440 
  6 C       -0.7570     1.8440    -0.9540 C.3   1 <1>   0.3430 
  7 C        1.7900     0.8100     1.9000 C.3   1 <1>  -0.2400 
  8 C        0.9890    -2.4680    -0.6630 C.3   1 <1>  -0.2400 
  9 C       -2.6370    -0.0090     1.6280 C.ar  1 <1>  -0.1500 
 10 C       -2.8200    -0.3370    -0.7390 C.ar  1 <1>  -0.1500 
 11 N       -1.9680     2.7560    -0.9790 N.4   1 <1>  -0.8530 
 12 C       -3.8750    -0.5990     1.8030 C.ar  1 <1>  -0.1500 
 13 C       -4.0580    -0.9260    -0.5590 C.ar  1 <1>  -0.1500 
 14 C       -4.5860    -1.0560     0.7110 C.ar  1 <1>  -0.1500 
 15 H        0.0970    -0.8740     0.9760 H     1 <1>   0.4500 
 16 H       -0.6020     1.3830     1.1270 H     1 <1>   0.0800 
 17 H        1.9970     1.0260    -0.2300 H     1 <1>   0.0800 
 18 H        2.4240    -0.5430     0.3920 H     1 <1>   0.0800 
 19 H        0.8210    -0.6800    -1.8390 H     1 <1>   0.0800 
 20 H       -0.6970    -1.3600    -1.2950 H     1 <1>   0.0800 
 21 H       -0.7320     1.2910    -1.8780 H     1 <1>   0.0800 
 22 H        0.1370     2.4440    -0.9030 H     1 <1>   0.0800 
 23 H        1.2260     1.7150     2.0220 H     1 <1>   0.0800 
 24 H        2.8170     1.0440     2.1240 H     1 <1>   0.0800 
 25 H        1.4660     0.0730     2.6150 H     1 <1>   0.0800 
 26 H        2.0400    -2.3530    -0.4700 H     1 <1>   0.0800 
 27 H        0.8900    -3.1360    -1.5010 H     1 <1>   0.0800 
 28 H        0.5130    -2.9360     0.1810 H     1 <1>   0.0800 
 29 H       -2.1140     0.3330     2.5070 H     1 <1>   0.1500 
 30 H       -2.4520    -0.2680    -1.7490 H     1 <1>   0.1500 
 31 H       -2.8510     2.2210    -0.9220 H     1 <1>   0.4500 
 32 H       -2.0140     3.3080    -1.8500 H     1 <1>   0.4500 
 33 H       -1.9860     3.4350    -0.2050 H     1 <1>   0.4500 
 34 H       -4.2930    -0.7080     2.7920 H     1 <1>   0.1500 
 35 H       -4.6200    -1.2950    -1.4030 H     1 <1>   0.1500 
 36 H       -5.5510    -1.5180     0.8510 H     1 <1>   0.1500 
@<TRIPOS>BOND
  1   1   2  1   
  2   1   3  1   
  3   1   4  1   
  4   1  15  1   
  5   2   5  1   
  6   2   6  1   
  7   2  16  1   
  8   3   7  1   
  9   3  17  1   
 10   3  18  1   
 11   4   8  1   
 12   4  19  1   
 13   4  20  1   
 14   5   9  ar  
 15   5  10  ar  
 16   6  11  1   
 17   6  21  1   
 18   6  22  1   
 19   7  23  1   
 20   7  24  1   
 21   7  25  1   
 22   8  26  1   
 23   8  27  1   
 24   8  28  1   
 25   9  12  ar  
 26   9  29  1   
 27  10  13  ar  
 28  10  30  1   
 29  11  31  1   
 30  11  32  1   
 31  11  33  1   
 32  12  14  ar  
 33  12  34  1   
 34  13  14  ar  
 35  13  35  1   
 36  14  36  1   
@<TRIPOS>SUBSTRUCTURE
  1 ****   5 GROUP 4 **** **** 0

# MOE 2024.06 (io_trps.svl 2023.06)
