@<TRIPOS>MOLECULE
3-Isopropyl-6-(2-methoxy-phenyl)-[1,2,4]triazolo[3,4-b][1,3,4]thiadiazole
33 35 1 0 0 
SMALL
USER_CHARGES


@<TRIPOS>ATOM
  1 S       -0.9720     0.2790     1.6830 S.3   1 <1>  -0.1970 
  2 C        0.0670     1.6700     1.4990 C.2   1 <1>   0.2420 
  3 C       -2.0400     0.9440     0.4140 C.2   1 <1>   0.5050 
  4 N        1.1590     2.0910     2.0280 N.2   1 <1>  -0.3380 
  5 N       -0.4440     2.4520     0.5670 N.pl3 1 <1>   0.5050 
  6 N       -1.6200     2.0600    -0.0680 N.2   1 <1>  -0.6520 
  7 C       -3.2020     0.1600     0.0770 C.ar  1 <1>   0.0860 
  8 N        1.4060     3.2580     1.4000 N.2   1 <1>  -0.3380 
  9 C        0.4490     3.4560     0.5390 C.2   1 <1>   0.0060 
 10 C       -4.4920     0.7060     0.0990 C.ar  1 <1>   0.0830 
 11 C       -3.0650    -1.1830    -0.2830 C.ar  1 <1>  -0.1500 
 12 C        0.2920     4.6470    -0.3990 C.3   1 <1>   0.1000 
 13 O       -4.6200     2.0010     0.4830 O.3   1 <1>  -0.3630 
 14 C       -5.5920    -0.0760    -0.2470 C.ar  1 <1>  -0.1500 
 15 C       -4.1590    -1.9550    -0.6210 C.ar  1 <1>  -0.1500 
 16 C        1.6430     5.2950    -0.7280 C.3   1 <1>  -0.2400 
 17 C       -0.6520     5.6820     0.2220 C.3   1 <1>  -0.2400 
 18 C       -5.8570     2.6780     0.4770 C.3   1 <1>   0.0400 
 19 C       -5.4250    -1.4000    -0.6060 C.ar  1 <1>  -0.1500 
 20 H       -2.0840    -1.6280    -0.3030 H     1 <1>   0.1500 
 21 H       -0.1430     4.2970    -1.3210 H     1 <1>   0.0800 
 22 H       -6.5880     0.3260    -0.2410 H     1 <1>   0.1500 
 23 H       -4.0290    -2.9880    -0.8980 H     1 <1>   0.1500 
 24 H        2.1010     5.6840     0.1650 H     1 <1>   0.0800 
 25 H        1.5150     6.0990    -1.4300 H     1 <1>   0.0800 
 26 H        2.3050     4.5650    -1.1590 H     1 <1>   0.0800 
 27 H       -0.2520     6.0370     1.1550 H     1 <1>   0.0800 
 28 H       -1.6160     5.2410     0.4070 H     1 <1>   0.0800 
 29 H       -0.7820     6.5180    -0.4420 H     1 <1>   0.0800 
 30 H       -5.6840     3.6930     0.7890 H     1 <1>   0.0800 
 31 H       -6.5250     2.1940     1.1680 H     1 <1>   0.0800 
 32 H       -6.2580     2.6670    -0.5210 H     1 <1>   0.0800 
 33 H       -6.2790    -2.0000    -0.8720 H     1 <1>   0.1500 
@<TRIPOS>BOND
  1   1   2  1   
  2   1   3  1   
  3   2   4  2   
  4   2   5  1   
  5   3   6  2   
  6   3   7  1   
  7   4   8  1   
  8   5   6  1   
  9   5   9  1   
 10   7  10  ar  
 11   7  11  ar  
 12   8   9  2   
 13   9  12  1   
 14  10  13  1   
 15  10  14  ar  
 16  11  15  ar  
 17  11  20  1   
 18  12  16  1   
 19  12  17  1   
 20  12  21  1   
 21  13  18  1   
 22  14  19  ar  
 23  14  22  1   
 24  15  19  ar  
 25  15  23  1   
 26  16  24  1   
 27  16  25  1   
 28  16  26  1   
 29  17  27  1   
 30  17  28  1   
 31  17  29  1   
 32  18  30  1   
 33  18  31  1   
 34  18  32  1   
 35  19  33  1   
@<TRIPOS>SUBSTRUCTURE
  1 ****   6 GROUP 4 **** **** 0

# MOE 2024.06 (io_trps.svl 2023.06)
