@<TRIPOS>MOLECULE
[2,4-Dichloro-5-(pyrrolidine-1-sulfonyl)-phenyl]-(2,6-dimethyl-morpholin-4-yl)-m
48 50 1 0 0 
SMALL
USER_CHARGES


@<TRIPOS>ATOM
  1 CL      -0.4730     0.1020     0.7850 Cl    1 <1>  -0.1770 
  2 C       -0.3650    -1.6390     0.7770 C.ar  1 <1>   0.1770 
  3 C       -1.0510    -2.4050    -0.1570 C.ar  1 <1>  -0.0090 
  4 C        0.4350    -2.2180     1.7450 C.ar  1 <1>  -0.1500 
  5 S       -2.0910    -1.6450    -1.4250 S.o2  1 <1>   1.4470 
  6 C       -0.9110    -3.7870    -0.0820 C.ar  1 <1>  -0.1500 
  7 C        0.5550    -3.5920     1.7840 C.ar  1 <1>   0.1770 
  8 O       -1.3330    -0.6360    -2.1300 O.2   1 <1>  -0.6500 
  9 O       -2.7320    -2.6880    -2.1970 O.2   1 <1>  -0.6500 
 10 N       -3.3010    -0.8690    -0.5320 N.am  1 <1>  -0.8490 
 11 C       -0.1100    -4.4100     0.8750 C.ar  1 <1>   0.0860 
 12 CL       1.5740    -4.2880     3.0170 Cl    1 <1>  -0.1770 
 13 C       -3.9400     0.2150    -1.2540 C.3   1 <1>   0.1960 
 14 C       -4.3820    -1.7220    -0.0650 C.3   1 <1>   0.1960 
 15 C        0.0080    -5.8470     0.9070 C.2   1 <1>   0.5440 
 16 C       -5.2040     0.5170    -0.4560 C.3   1 <1>  -0.1600 
 17 C       -5.4600    -0.7410     0.3760 C.3   1 <1>  -0.1600 
 18 O       -0.9420    -6.5070     1.2780 O.2   1 <1>  -0.5700 
 19 N        1.1510    -6.4870     0.4900 N.am  1 <1>  -0.6600 
 20 C        2.3220    -5.7890    -0.1240 C.3   1 <1>   0.1400 
 21 C        1.2930    -7.9700     0.6040 C.3   1 <1>   0.1400 
 22 C        3.1100    -6.7410    -1.0460 C.3   1 <1>   0.2000 
 23 C        2.7770    -8.3870     0.6890 C.3   1 <1>   0.2000 
 24 O        3.5520    -7.8870    -0.3710 O.3   1 <1>  -0.5600 
 25 C        4.3470    -6.0730    -1.6390 C.3   1 <1>  -0.2400 
 26 C        2.9480    -9.9040     0.6820 C.3   1 <1>  -0.2400 
 27 H        0.9550    -1.6040     2.4580 H     1 <1>   0.1500 
 28 H       -1.4390    -4.4130    -0.7850 H     1 <1>   0.1500 
 29 H       -4.2010    -0.1110    -2.2480 H     1 <1>   0.0800 
 30 H       -3.2880     1.0710    -1.3170 H     1 <1>   0.0800 
 31 H       -4.0600    -2.3580     0.7420 H     1 <1>   0.0800 
 32 H       -4.7620    -2.3260    -0.8740 H     1 <1>   0.0800 
 33 H       -6.0230     0.7360    -1.1180 H     1 <1>   0.0800 
 34 H       -5.0360     1.3640     0.1860 H     1 <1>   0.0800 
 35 H       -5.3380    -0.5240     1.4230 H     1 <1>   0.0800 
 36 H       -6.4420    -1.1460     0.2120 H     1 <1>   0.0800 
 37 H        2.9730    -5.4310     0.6540 H     1 <1>   0.0800 
 38 H        1.9840    -4.9460    -0.7000 H     1 <1>   0.0800 
 39 H        0.8350    -8.4360    -0.2500 H     1 <1>   0.0800 
 40 H        0.7790    -8.3150     1.4840 H     1 <1>   0.0800 
 41 H        2.4650    -7.0680    -1.8440 H     1 <1>   0.0800 
 42 H        3.1930    -7.9900     1.6000 H     1 <1>   0.0800 
 43 H        5.0190    -5.7710    -0.8570 H     1 <1>   0.0800 
 44 H        4.0650    -5.2080    -2.2100 H     1 <1>   0.0800 
 45 H        4.8520    -6.7620    -2.2920 H     1 <1>   0.0800 
 46 H        2.5670   -10.3170    -0.2340 H     1 <1>   0.0800 
 47 H        2.4160   -10.3400     1.5080 H     1 <1>   0.0800 
 48 H        3.9900   -10.1530     0.7780 H     1 <1>   0.0800 
@<TRIPOS>BOND
  1   1   2  1   
  2   2   3  ar  
  3   2   4  ar  
  4   3   5  1   
  5   3   6  ar  
  6   4   7  ar  
  7   4  27  1   
  8   5   8  2   
  9   5   9  2   
 10   5  10  am  
 11   6  11  ar  
 12   6  28  1   
 13   7  11  ar  
 14   7  12  1   
 15  10  13  1   
 16  10  14  1   
 17  11  15  1   
 18  13  16  1   
 19  13  29  1   
 20  13  30  1   
 21  14  17  1   
 22  14  31  1   
 23  14  32  1   
 24  15  18  2   
 25  15  19  am  
 26  16  17  1   
 27  16  33  1   
 28  16  34  1   
 29  17  35  1   
 30  17  36  1   
 31  19  20  1   
 32  19  21  1   
 33  20  22  1   
 34  20  37  1   
 35  20  38  1   
 36  21  23  1   
 37  21  39  1   
 38  21  40  1   
 39  22  24  1   
 40  22  25  1   
 41  22  41  1   
 42  23  24  1   
 43  23  26  1   
 44  23  42  1   
 45  25  43  1   
 46  25  44  1   
 47  25  45  1   
 48  26  46  1   
 49  26  47  1   
 50  26  48  1   
@<TRIPOS>SUBSTRUCTURE
  1 ****   6 GROUP 4 **** **** 0

# MOE 2024.06 (io_trps.svl 2023.06)
