@<TRIPOS>MOLECULE
5-Oxo-1-p-tolyl-pyrrolidine-3-carboxylic acid (2-oxo-tetrahydro-thiophen-3-yl)-a
40 42 1 0 0 
SMALL
USER_CHARGES


@<TRIPOS>ATOM
  1 S       -1.7270     1.2840     0.5530 S.3   1 <1>  -0.3710 
  2 C       -2.0320    -0.2380     1.3870 C.2   1 <1>   0.6500 
  3 C       -1.8410     0.6050    -1.1490 C.3   1 <1>   0.0700 
  4 O       -2.1190    -0.3200     2.5790 O.2   1 <1>  -0.5700 
  5 C       -2.2010    -1.3630     0.3630 C.3   1 <1>   0.2810 
  6 C       -2.6040    -0.7160    -0.9750 C.3   1 <1>  -0.1600 
  7 N       -3.2150    -2.3810     0.7640 N.am  1 <1>  -0.7300 
  8 C       -3.2910    -3.6250     0.2330 C.2   1 <1>   0.5690 
  9 O       -2.5830    -3.9540    -0.6860 O.2   1 <1>  -0.5700 
 10 C       -4.2730    -4.6220     0.8290 C.3   1 <1>  -0.0190 
 11 C       -4.4810    -5.8750    -0.0330 C.3   1 <1>   0.1400 
 12 C       -5.6880    -4.0630     1.0400 C.3   1 <1>  -0.0990 
 13 N       -5.8770    -6.2830     0.2280 N.am  1 <1>  -0.4770 
 14 C       -6.5640    -5.2660     0.8270 C.2   1 <1>   0.5690 
 15 C       -6.3270    -7.5800    -0.0940 C.ar  1 <1>   0.1170 
 16 O       -7.7200    -5.2640     1.1700 O.2   1 <1>  -0.5700 
 17 C       -7.2550    -8.2400     0.7060 C.ar  1 <1>  -0.1500 
 18 C       -5.8460    -8.2460    -1.2180 C.ar  1 <1>  -0.1500 
 19 C       -7.6820    -9.5200     0.4000 C.ar  1 <1>  -0.1500 
 20 C       -6.2700    -9.5270    -1.5260 C.ar  1 <1>  -0.1500 
 21 C       -7.1920   -10.1720    -0.7190 C.ar  1 <1>  -0.1440 
 22 C       -7.6600   -11.5760    -1.0540 C.3   1 <1>  -0.0970 
 23 H       -0.8350     0.4500    -1.4990 H     1 <1>   0.0800 
 24 H       -2.3600     1.3140    -1.7710 H     1 <1>   0.0800 
 25 H       -1.2460    -1.8460     0.2490 H     1 <1>   0.0800 
 26 H       -2.4020    -1.3800    -1.7970 H     1 <1>   0.0800 
 27 H       -3.6580    -0.4970    -0.9600 H     1 <1>   0.0800 
 28 H       -3.7280    -2.1480     1.6200 H     1 <1>   0.3700 
 29 H       -3.8830    -4.9440     1.7780 H     1 <1>   0.0800 
 30 H       -3.7920    -6.6570     0.2380 H     1 <1>   0.0800 
 31 H       -4.3780    -5.6470    -1.0810 H     1 <1>   0.0800 
 32 H       -5.9380    -3.3260     0.2980 H     1 <1>   0.0800 
 33 H       -5.8240    -3.6610     2.0260 H     1 <1>   0.0800 
 34 H       -7.6470    -7.7510     1.5790 H     1 <1>   0.1500 
 35 H       -5.1390    -7.7650    -1.8660 H     1 <1>   0.1500 
 36 H       -8.4000   -10.0040     1.0380 H     1 <1>   0.1500 
 37 H       -5.8810   -10.0180    -2.4000 H     1 <1>   0.1500 
 38 H       -8.6780   -11.7170    -0.7370 H     1 <1>   0.0800 
 39 H       -7.0380   -12.2960    -0.5530 H     1 <1>   0.0800 
 40 H       -7.6090   -11.7480    -2.1140 H     1 <1>   0.0800 
@<TRIPOS>BOND
  1   1   2  1   
  2   1   3  1   
  3   2   4  2   
  4   2   5  1   
  5   3   6  1   
  6   3  23  1   
  7   3  24  1   
  8   5   6  1   
  9   5   7  1   
 10   5  25  1   
 11   6  26  1   
 12   6  27  1   
 13   7   8  am  
 14   7  28  1   
 15   8   9  2   
 16   8  10  1   
 17  10  11  1   
 18  10  12  1   
 19  10  29  1   
 20  11  13  1   
 21  11  30  1   
 22  11  31  1   
 23  12  14  1   
 24  12  32  1   
 25  12  33  1   
 26  13  14  am  
 27  13  15  1   
 28  14  16  2   
 29  15  17  ar  
 30  15  18  ar  
 31  17  19  ar  
 32  17  34  1   
 33  18  20  ar  
 34  18  35  1   
 35  19  21  ar  
 36  19  36  1   
 37  20  21  ar  
 38  20  37  1   
 39  21  22  1   
 40  22  38  1   
 41  22  39  1   
 42  22  40  1   
@<TRIPOS>SUBSTRUCTURE
  1 ****  10 GROUP 4 **** **** 0

# MOE 2024.06 (io_trps.svl 2023.06)
