@<TRIPOS>MOLECULE
4-Methoxy-N-[2-(2-methoxy-ethyl)-1,2,3,4-tetrahydro-benzo[4,5]imidazo[1,2-a]pyra
52 55 1 0 0 
SMALL
USER_CHARGES


@<TRIPOS>ATOM
  1 O       -0.0100    -0.4280    -1.5150 O.2   1 <1>  -0.5700 
  2 C        0.1150    -1.3210    -0.7000 C.2   1 <1>   0.5440 
  3 N        1.3050    -1.4960    -0.0300 N.am  1 <1>  -0.5470 
  4 C       -0.9970    -2.2080    -0.4180 C.ar  1 <1>   0.0860 
  5 C        2.5470    -0.8390    -0.1170 C.ar  1 <1>   0.1170 
  6 C       -2.3120    -1.7410    -0.4640 C.ar  1 <1>  -0.1500 
  7 C       -0.8090    -3.5540    -0.0900 C.ar  1 <1>  -0.1500 
  8 C        3.6750    -1.5080     0.3190 C.ar  1 <1>  -0.1500 
  9 C        2.6830     0.4730    -0.6090 C.ar  1 <1>  -0.1500 
 10 C       -3.3880    -2.5620    -0.1800 C.ar  1 <1>  -0.1500 
 11 C       -1.8790    -4.3810     0.1960 C.ar  1 <1>  -0.1500 
 12 C        4.9200    -0.8900     0.2630 C.ar  1 <1>   0.2270 
 13 C        3.9100     1.0960    -0.6720 C.ar  1 <1>  -0.1500 
 14 C       -3.1750    -3.8950     0.1570 C.ar  1 <1>   0.0830 
 15 N        6.1380    -1.3720     0.6370 N.2   1 <1>  -0.5650 
 16 C        5.0330     0.3970    -0.2280 C.ar  1 <1>  -0.1520 
 17 O       -4.1650    -4.7670     0.4520 O.3   1 <1>  -0.3630 
 18 C        6.9520    -0.4060     0.3720 C.2   1 <1>   0.0060 
 19 N        6.3560     0.6950    -0.1480 N.pl3 1 <1>   0.0480 
 20 C       -5.5230    -4.3860     0.4240 C.3   1 <1>   0.0400 
 21 C        8.4560    -0.4240     0.6120 C.3   1 <1>   0.2900 
 22 C        7.0630     1.9130    -0.5780 C.3   1 <1>   0.0960 
 23 N        9.1560     0.6600    -0.1340 N.3   1 <1>  -0.8100 
 24 C        8.4680     1.9530     0.0430 C.3   1 <1>   0.1100 
 25 C       10.5760     0.7600     0.2570 C.3   1 <1>   0.1100 
 26 C       11.3980    -0.4050    -0.3010 C.3   1 <1>   0.1200 
 27 O       12.7270    -0.2210     0.0770 O.3   1 <1>  -0.5600 
 28 C       13.5880    -1.2000    -0.4050 C.3   1 <1>   0.0400 
 29 H        1.2950    -2.2590     0.6420 H     1 <1>   0.3700 
 30 H       -2.4850    -0.7110    -0.7280 H     1 <1>   0.1500 
 31 H        0.1840    -3.9660    -0.0690 H     1 <1>   0.1500 
 32 H        3.6290    -2.5080     0.7030 H     1 <1>   0.1500 
 33 H        1.8110     1.0050    -0.9400 H     1 <1>   0.1500 
 34 H       -4.3790    -2.1520    -0.2280 H     1 <1>   0.1500 
 35 H       -1.7200    -5.4140     0.4480 H     1 <1>   0.1500 
 36 H        4.0050     2.0960    -1.0530 H     1 <1>   0.1500 
 37 H       -6.1160    -5.2440     0.6860 H     1 <1>   0.0800 
 38 H       -5.7730    -4.0590    -0.5700 H     1 <1>   0.0800 
 39 H       -5.6810    -3.6000     1.1410 H     1 <1>   0.0800 
 40 H        8.8360    -1.3820     0.3060 H     1 <1>   0.0800 
 41 H        8.6300    -0.3130     1.6680 H     1 <1>   0.0800 
 42 H        6.4990     2.7770    -0.2790 H     1 <1>   0.0800 
 43 H        7.1420     1.9000    -1.6490 H     1 <1>   0.0800 
 44 H        8.3960     2.1900     1.0910 H     1 <1>   0.0800 
 45 H        9.0320     2.7340    -0.4380 H     1 <1>   0.0800 
 46 H       10.6660     0.7880     1.3300 H     1 <1>   0.0800 
 47 H       10.9920     1.6680    -0.1460 H     1 <1>   0.0800 
 48 H       11.3410    -0.4130    -1.3760 H     1 <1>   0.0800 
 49 H       11.0600    -1.3430     0.1010 H     1 <1>   0.0800 
 50 H       14.5810    -0.9710    -0.0600 H     1 <1>   0.0800 
 51 H       13.5680    -1.1930    -1.4820 H     1 <1>   0.0800 
 52 H       13.2850    -2.1600    -0.0260 H     1 <1>   0.0800 
@<TRIPOS>BOND
  1   1   2  2   
  2   2   3  am  
  3   2   4  1   
  4   3   5  1   
  5   3  29  1   
  6   4   6  ar  
  7   4   7  ar  
  8   5   8  ar  
  9   5   9  ar  
 10   6  10  ar  
 11   6  30  1   
 12   7  11  ar  
 13   7  31  1   
 14   8  12  ar  
 15   8  32  1   
 16   9  13  ar  
 17   9  33  1   
 18  10  14  ar  
 19  10  34  1   
 20  11  14  ar  
 21  11  35  1   
 22  12  15  1   
 23  12  16  ar  
 24  13  16  ar  
 25  13  36  1   
 26  14  17  1   
 27  15  18  2   
 28  16  19  1   
 29  17  20  1   
 30  18  19  1   
 31  18  21  1   
 32  19  22  1   
 33  20  37  1   
 34  20  38  1   
 35  20  39  1   
 36  21  23  1   
 37  21  40  1   
 38  21  41  1   
 39  22  24  1   
 40  22  42  1   
 41  22  43  1   
 42  23  24  1   
 43  23  25  1   
 44  24  44  1   
 45  24  45  1   
 46  25  26  1   
 47  25  46  1   
 48  25  47  1   
 49  26  27  1   
 50  26  48  1   
 51  26  49  1   
 52  27  28  1   
 53  28  50  1   
 54  28  51  1   
 55  28  52  1   
@<TRIPOS>SUBSTRUCTURE
  1 ****   8 GROUP 4 **** **** 0

# MOE 2024.06 (io_trps.svl 2023.06)
