@<TRIPOS>MOLECULE
N-[2-(4-Isobutyryl-piperazin-1-yl)-phenyl]-2-phenoxy-acetamide
55 57 1 0 0 
SMALL
USER_CHARGES


@<TRIPOS>ATOM
  1 O       -2.8600     1.7920    -2.1910 O.2   1 <1>  -0.5700 
  2 C       -3.0440     1.9370    -1.0040 C.2   1 <1>   0.5690 
  3 N       -2.4870     2.9990    -0.3330 N.am  1 <1>  -0.6600 
  4 C       -3.9340     0.9100    -0.2790 C.3   1 <1>  -0.0190 
  5 C       -2.8600     3.4780     1.0340 C.3   1 <1>   0.1400 
  6 C       -1.6130     3.9860    -1.0400 C.3   1 <1>   0.1400 
  7 C       -3.8520    -0.4950    -0.9040 C.3   1 <1>  -0.2400 
  8 C       -5.4030     1.3680    -0.2510 C.3   1 <1>  -0.2400 
  9 C       -3.6100     4.8180     0.9540 C.3   1 <1>   0.2090 
 10 C       -2.3210     5.3440    -1.1820 C.3   1 <1>   0.2090 
 11 N       -2.8870     5.8300     0.1180 N.pl3 1 <1>  -0.8380 
 12 C       -2.3610     6.9720     0.7530 C.ar  1 <1>   0.1000 
 13 C       -3.2170     8.0140     1.1380 C.ar  1 <1>   0.1170 
 14 C       -1.0040     7.0810     1.0240 C.ar  1 <1>  -0.1500 
 15 N       -4.5710     7.8560     0.8170 N.am  1 <1>  -0.5470 
 16 C       -2.7060     9.1270     1.7890 C.ar  1 <1>  -0.1500 
 17 C       -0.4990     8.1980     1.6700 C.ar  1 <1>  -0.1500 
 18 C       -5.7370     8.3630     1.3010 C.2   1 <1>   0.5690 
 19 C       -1.3500     9.2200     2.0550 C.ar  1 <1>  -0.1500 
 20 O       -5.7990     9.2940     2.0690 O.2   1 <1>  -0.5700 
 21 C       -7.0290     7.6870     0.8590 C.3   1 <1>   0.1810 
 22 O       -6.7490     6.4690     0.1740 O.3   1 <1>  -0.3630 
 23 C       -7.7330     5.6660    -0.2950 C.ar  1 <1>   0.0820 
 24 C       -7.3400     4.5920    -1.0780 C.ar  1 <1>  -0.1500 
 25 C       -9.0850     5.8660    -0.0310 C.ar  1 <1>  -0.1500 
 26 C       -8.2810     3.7180    -1.5920 C.ar  1 <1>  -0.1500 
 27 C      -10.0250     4.9900    -0.5470 C.ar  1 <1>  -0.1500 
 28 C       -9.6250     3.9170    -1.3250 C.ar  1 <1>  -0.1500 
 29 H       -3.5810     0.8110     0.7300 H     1 <1>   0.0800 
 30 H       -1.9640     3.6150     1.6140 H     1 <1>   0.0800 
 31 H       -3.4760     2.7670     1.5490 H     1 <1>   0.0800 
 32 H       -1.3410     3.6250    -2.0160 H     1 <1>   0.0800 
 33 H       -0.7060     4.1170    -0.4790 H     1 <1>   0.0800 
 34 H       -4.2250    -0.4800    -1.9140 H     1 <1>   0.0800 
 35 H       -4.4290    -1.1990    -0.3330 H     1 <1>   0.0800 
 36 H       -2.8290    -0.8270    -0.9280 H     1 <1>   0.0800 
 37 H       -5.7800     1.4570    -1.2550 H     1 <1>   0.0800 
 38 H       -5.4960     2.3230     0.2310 H     1 <1>   0.0800 
 39 H       -6.0100     0.6570     0.2830 H     1 <1>   0.0800 
 40 H       -3.7480     5.2060     1.9490 H     1 <1>   0.0800 
 41 H       -4.5840     4.6510     0.5310 H     1 <1>   0.0800 
 42 H       -3.1240     5.2410    -1.8920 H     1 <1>   0.0800 
 43 H       -1.6310     6.0710    -1.5730 H     1 <1>   0.0800 
 44 H       -0.3430     6.2870     0.7360 H     1 <1>   0.1500 
 45 H       -4.6840     7.0410     0.2030 H     1 <1>   0.3700 
 46 H       -3.3660     9.9220     2.0850 H     1 <1>   0.1500 
 47 H        0.5540     8.2710     1.8760 H     1 <1>   0.1500 
 48 H       -0.9620    10.0870     2.5590 H     1 <1>   0.1500 
 49 H       -7.5700     8.3360     0.1960 H     1 <1>   0.0800 
 50 H       -7.6220     7.4630     1.7270 H     1 <1>   0.0800 
 51 H       -6.2960     4.4440    -1.2880 H     1 <1>   0.1500 
 52 H       -9.4250     6.6880     0.5700 H     1 <1>   0.1500 
 53 H       -7.9690     2.8860    -2.2000 H     1 <1>   0.1500 
 54 H      -11.0710     5.1420    -0.3430 H     1 <1>   0.1500 
 55 H      -10.3580     3.2380    -1.7250 H     1 <1>   0.1500 
@<TRIPOS>BOND
  1   1   2  2   
  2   2   3  am  
  3   2   4  1   
  4   3   5  1   
  5   3   6  1   
  6   4   7  1   
  7   4   8  1   
  8   4  29  1   
  9   5   9  1   
 10   5  30  1   
 11   5  31  1   
 12   6  10  1   
 13   6  32  1   
 14   6  33  1   
 15   7  34  1   
 16   7  35  1   
 17   7  36  1   
 18   8  37  1   
 19   8  38  1   
 20   8  39  1   
 21   9  11  1   
 22   9  40  1   
 23   9  41  1   
 24  10  11  1   
 25  10  42  1   
 26  10  43  1   
 27  11  12  1   
 28  12  13  ar  
 29  12  14  ar  
 30  13  15  1   
 31  13  16  ar  
 32  14  17  ar  
 33  14  44  1   
 34  15  18  am  
 35  15  45  1   
 36  16  19  ar  
 37  16  46  1   
 38  17  19  ar  
 39  17  47  1   
 40  18  20  2   
 41  18  21  1   
 42  19  48  1   
 43  21  22  1   
 44  21  49  1   
 45  21  50  1   
 46  22  23  1   
 47  23  24  ar  
 48  23  25  ar  
 49  24  26  ar  
 50  24  51  1   
 51  25  27  ar  
 52  25  52  1   
 53  26  28  ar  
 54  26  53  1   
 55  27  28  ar  
 56  27  54  1   
 57  28  55  1   
@<TRIPOS>SUBSTRUCTURE
  1 ****   9 GROUP 4 **** **** 0

# MOE 2024.06 (io_trps.svl 2023.06)
