@<TRIPOS>MOLECULE
7-Benzyl-6-(2-morpholin-4-yl-ethylsulfanyl)-[1,3]dioxolo[4,5-g]quinoline
54 58 1 0 0 
SMALL
USER_CHARGES


@<TRIPOS>ATOM
  1 S        0.1660    -0.4590     2.4920 S.3   1 <1>  -0.3320 
  2 C       -1.1520     0.0660     1.3910 C.ar  1 <1>   0.4120 
  3 C        0.8410     1.0870     3.2610 C.3   1 <1>   0.0700 
  4 N       -1.5380     1.2970     1.5430 N.ar  1 <1>  -0.6200 
  5 C       -1.6400    -0.8390     0.4290 C.ar  1 <1>  -0.1440 
  6 C        1.8340     1.7680     2.3040 C.3   1 <1>   0.3430 
  7 C       -2.5310     1.7290     0.7270 C.ar  1 <1>   0.3100 
  8 C       -2.6430    -0.4150    -0.3950 C.ar  1 <1>  -0.1500 
  9 C       -1.0450    -2.2340     0.2590 C.3   1 <1>   0.1270 
 10 N        1.2000     2.1440     1.0060 N.4   1 <1>  -0.9590 
 11 C       -3.1200     0.8990    -0.2660 C.ar  1 <1>   0.0000 
 12 C       -2.9810     3.0540     0.8700 C.ar  1 <1>  -0.1500 
 13 C        0.2650    -2.1380    -0.5170 C.ar  1 <1>  -0.1440 
 14 C        1.5360     1.2240    -0.1330 C.3   1 <1>   0.3430 
 15 C        1.3870     3.5800     0.6170 C.3   1 <1>   0.3430 
 16 C       -4.1420     1.4170    -1.0930 C.ar  1 <1>  -0.1500 
 17 C       -3.9650     3.5160     0.0450 C.ar  1 <1>   0.0820 
 18 C        0.2530    -1.7790    -1.8570 C.ar  1 <1>  -0.1500 
 19 C        1.4810    -2.3990     0.1000 C.ar  1 <1>  -0.1500 
 20 C        0.6980     1.5760    -1.3850 C.3   1 <1>   0.1200 
 21 C        0.9130     3.8590    -0.8270 C.3   1 <1>   0.1200 
 22 C       -4.5360     2.7120    -0.9180 C.ar  1 <1>   0.0820 
 23 O       -4.5230     4.7270     0.0100 O.3   1 <1>  -0.3630 
 24 C        1.4370    -1.6620    -2.5650 C.ar  1 <1>  -0.1500 
 25 C        2.6660    -2.2810    -0.6060 C.ar  1 <1>  -0.1500 
 26 O        0.0800     2.8340    -1.2850 O.3   1 <1>  -0.5600 
 27 O       -5.4690     3.3980    -1.5820 O.3   1 <1>  -0.3620 
 28 C       -5.5070     4.7080    -1.0220 C.3   1 <1>   0.4000 
 29 C        2.6450    -1.9090    -1.9380 C.ar  1 <1>  -0.1500 
 30 H        1.3400     0.7840     4.1640 H     1 <1>   0.0800 
 31 H        0.0170     1.7290     3.5170 H     1 <1>   0.0800 
 32 H        2.6650     1.1050     2.1270 H     1 <1>   0.0800 
 33 H        2.2160     2.6520     2.7870 H     1 <1>   0.0800 
 34 H       -3.0710    -1.0510    -1.1510 H     1 <1>   0.1500 
 35 H       -1.7270    -2.8600    -0.2900 H     1 <1>   0.0800 
 36 H       -0.8950    -2.7030     1.2150 H     1 <1>   0.0800 
 37 H        0.1700     2.0240     1.1190 H     1 <1>   0.4500 
 38 H       -2.5520     3.6850     1.6230 H     1 <1>   0.1500 
 39 H        1.3480     0.1980     0.1370 H     1 <1>   0.0800 
 40 H        2.5820     1.3080    -0.3760 H     1 <1>   0.0800 
 41 H        2.4240     3.8580     0.7000 H     1 <1>   0.0800 
 42 H        0.8270     4.2080     1.2920 H     1 <1>   0.0800 
 43 H       -4.5990     0.8030    -1.8470 H     1 <1>   0.1500 
 44 H       -0.6810    -1.5900    -2.3590 H     1 <1>   0.1500 
 45 H        1.5120    -2.7000     1.1330 H     1 <1>   0.1500 
 46 H       -0.0850     0.8520    -1.5130 H     1 <1>   0.0800 
 47 H        1.3140     1.5610    -2.2680 H     1 <1>   0.0800 
 48 H        1.7520     3.9420    -1.4960 H     1 <1>   0.0800 
 49 H        0.3580     4.7810    -0.8660 H     1 <1>   0.0800 
 50 H        1.4170    -1.3890    -3.6060 H     1 <1>   0.1500 
 51 H        3.6040    -2.4920    -0.1210 H     1 <1>   0.1500 
 52 H       -5.2560     5.4320    -1.7760 H     1 <1>   0.0800 
 53 H       -6.4780     4.8920    -0.5980 H     1 <1>   0.0800 
 54 H        3.5660    -1.8280    -2.4900 H     1 <1>   0.1500 
@<TRIPOS>BOND
  1   1   2  1   
  2   1   3  1   
  3   2   4  ar  
  4   2   5  ar  
  5   3   6  1   
  6   3  30  1   
  7   3  31  1   
  8   4   7  ar  
  9   5   8  ar  
 10   5   9  1   
 11   6  10  1   
 12   6  32  1   
 13   6  33  1   
 14   7  11  ar  
 15   7  12  ar  
 16   8  11  ar  
 17   8  34  1   
 18   9  13  1   
 19   9  35  1   
 20   9  36  1   
 21  10  14  1   
 22  10  15  1   
 23  10  37  1   
 24  11  16  ar  
 25  12  17  ar  
 26  12  38  1   
 27  13  18  ar  
 28  13  19  ar  
 29  14  20  1   
 30  14  39  1   
 31  14  40  1   
 32  15  21  1   
 33  15  41  1   
 34  15  42  1   
 35  16  22  ar  
 36  16  43  1   
 37  17  22  ar  
 38  17  23  1   
 39  18  24  ar  
 40  18  44  1   
 41  19  25  ar  
 42  19  45  1   
 43  20  26  1   
 44  20  46  1   
 45  20  47  1   
 46  21  26  1   
 47  21  48  1   
 48  21  49  1   
 49  22  27  1   
 50  23  28  1   
 51  24  29  ar  
 52  24  50  1   
 53  25  29  ar  
 54  25  51  1   
 55  27  28  1   
 56  28  52  1   
 57  28  53  1   
 58  29  54  1   
@<TRIPOS>SUBSTRUCTURE
  1 ****   4 GROUP 4 **** **** 0

# MOE 2024.06 (io_trps.svl 2023.06)
