@<TRIPOS>MOLECULE
N-Methyl-4-(3-phenyl-[1,2,4]oxadiazol-5-yl)-butyramide
33 34 1 0 0 
SMALL
USER_CHARGES


@<TRIPOS>ATOM
  1 O       -1.0260    -0.5590     1.4120 O.2   1 <1>  -0.5700 
  2 C       -1.2160    -1.5890     0.8180 C.2   1 <1>   0.5690 
  3 N       -0.3720    -2.6300     1.0130 N.am  1 <1>  -0.7300 
  4 C       -2.3870    -1.7130    -0.1480 C.3   1 <1>  -0.0990 
  5 C       -0.3660    -3.9760     0.3850 C.3   1 <1>   0.0600 
  6 C       -3.4280    -0.5790    -0.0240 C.3   1 <1>  -0.1600 
  7 C       -4.5470    -0.6550    -1.0780 C.3   1 <1>   0.0200 
  8 C       -5.3340    -1.9520    -1.0190 C.2   1 <1>   0.2980 
  9 O       -4.8870    -2.9900    -1.6760 O.3   1 <1>  -0.0190 
 10 N       -6.4130    -2.1350    -0.3800 N.2   1 <1>  -0.5650 
 11 N       -5.7530    -3.9190    -1.4240 N.2   1 <1>  -0.4100 
 12 C       -6.6600    -3.4190    -0.6600 C.2   1 <1>   0.4620 
 13 C       -7.8190    -4.1280    -0.1420 C.ar  1 <1>   0.0540 
 14 C       -8.7320    -3.5140     0.7190 C.ar  1 <1>  -0.1500 
 15 C       -8.0680    -5.4580    -0.4860 C.ar  1 <1>  -0.1500 
 16 C       -9.8330    -4.1900     1.2120 C.ar  1 <1>  -0.1500 
 17 C       -9.1670    -6.1410     0.0030 C.ar  1 <1>  -0.1500 
 18 C      -10.0530    -5.5080     0.8540 C.ar  1 <1>  -0.1500 
 19 H        0.3700    -2.4490     1.6950 H     1 <1>   0.3700 
 20 H       -2.8710    -2.6520     0.0440 H     1 <1>   0.0800 
 21 H       -1.9910    -1.7300    -1.1460 H     1 <1>   0.0800 
 22 H       -1.0570    -4.0220    -0.4380 H     1 <1>   0.0800 
 23 H       -0.6420    -4.7160     1.1160 H     1 <1>   0.0800 
 24 H        0.6210    -4.1970     0.0170 H     1 <1>   0.0800 
 25 H       -2.9290     0.3700    -0.1250 H     1 <1>   0.0800 
 26 H       -3.8650    -0.6120     0.9600 H     1 <1>   0.0800 
 27 H       -4.1320    -0.5400    -2.0630 H     1 <1>   0.0800 
 28 H       -5.2280     0.1610    -0.9150 H     1 <1>   0.0800 
 29 H       -8.5760    -2.4890     1.0080 H     1 <1>   0.1500 
 30 H       -7.3880    -5.9670    -1.1470 H     1 <1>   0.1500 
 31 H      -10.5190    -3.6910     1.8740 H     1 <1>   0.1500 
 32 H       -9.3330    -7.1670    -0.2790 H     1 <1>   0.1500 
 33 H      -10.9090    -6.0360     1.2360 H     1 <1>   0.1500 
@<TRIPOS>BOND
  1   1   2  2   
  2   2   3  am  
  3   2   4  1   
  4   3   5  1   
  5   3  19  1   
  6   4   6  1   
  7   4  20  1   
  8   4  21  1   
  9   5  22  1   
 10   5  23  1   
 11   5  24  1   
 12   6   7  1   
 13   6  25  1   
 14   6  26  1   
 15   7   8  1   
 16   7  27  1   
 17   7  28  1   
 18   8   9  1   
 19   8  10  2   
 20   9  11  1   
 21  10  12  1   
 22  11  12  2   
 23  12  13  1   
 24  13  14  ar  
 25  13  15  ar  
 26  14  16  ar  
 27  14  29  1   
 28  15  17  ar  
 29  15  30  1   
 30  16  18  ar  
 31  16  31  1   
 32  17  18  ar  
 33  17  32  1   
 34  18  33  1   
@<TRIPOS>SUBSTRUCTURE
  1 ****  10 GROUP 4 **** **** 0

# MOE 2024.06 (io_trps.svl 2023.06)
