@<TRIPOS>MOLECULE
3-(2-Ethoxy-ethyl)-1-methyl-8-phenethyl-5,6,7,8-tetrahydro-1H-1,3,4b,8,9-pentaaz
57 60 1 0 0 
SMALL
USER_CHARGES


@<TRIPOS>ATOM
  1 O        1.7530     0.1170    -0.8090 O.2   1 <1>  -0.5740 
  2 C        2.7170     0.8450    -0.9350 C.2   1 <1>   0.6870 
  3 N        2.5490     2.2220    -1.0130 N.am  1 <1>  -0.4250 
  4 N        3.9890     0.2940    -0.9880 N.am  1 <1>  -0.4410 
  5 C        3.6400     3.0770    -1.0710 C.2   1 <1>   0.7000 
  6 C        1.1620     2.7880    -1.0330 C.3   1 <1>   0.1340 
  7 C        5.0710     1.1520    -1.0480 C.2   1 <1>   0.4210 
  8 C        4.1590    -1.1870    -1.0000 C.3   1 <1>   0.0530 
  9 O        3.4930     4.2870    -1.0880 O.2   1 <1>  -0.5740 
 10 C        4.9470     2.4950    -1.0940 C.2   1 <1>   0.2710 
 11 C        0.6260     2.9580     0.3880 C.3   1 <1>   0.1140 
 12 N        6.3960     0.8390    -1.0570 N.pl3 1 <1>  -0.7030 
 13 N        6.2540     3.0060    -1.1380 N.pl3 1 <1>  -0.7670 
 14 O       -0.6290     3.5450     0.3030 O.3   1 <1>  -0.5640 
 15 C        7.0910     1.9740    -1.1150 C.cat 1 <1>   1.0690 
 16 C        6.6660     4.4230    -1.1550 C.3   1 <1>   0.3490 
 17 C       -1.2540     3.7210     1.5290 C.3   1 <1>   0.1140 
 18 N        8.4320     2.1250    -1.1410 N.pl3 1 <1>  -0.5960 
 19 C        8.0660     4.5220    -0.5430 C.3   1 <1>  -0.1660 
 20 C       -2.6060     4.3710     1.2660 C.3   1 <1>  -0.2460 
 21 C        9.0360     3.4890    -1.1340 C.3   1 <1>   0.1610 
 22 C        9.3970     1.0050    -1.3520 C.3   1 <1>   0.1610 
 23 C        9.7790     0.3230    -0.0330 C.3   1 <1>  -0.0240 
 24 C        8.5810    -0.3840     0.5780 C.ar  1 <1>  -0.1500 
 25 C        7.8940     0.1870     1.6380 C.ar  1 <1>  -0.1560 
 26 C        8.1580    -1.6000     0.0640 C.ar  1 <1>  -0.1560 
 27 C        6.7820    -0.4430     2.1670 C.ar  1 <1>  -0.1560 
 28 C        7.0490    -2.2330     0.5970 C.ar  1 <1>  -0.1560 
 29 C        6.3590    -1.6530     1.6460 C.ar  1 <1>  -0.1560 
 30 H        0.5090     2.1280    -1.5790 H     1 <1>   0.0730 
 31 H        1.1580     3.7430    -1.5290 H     1 <1>   0.0730 
 32 H        3.3990    -1.6380    -1.6160 H     1 <1>   0.0730 
 33 H        4.0570    -1.5690     0.0010 H     1 <1>   0.0730 
 34 H        5.1210    -1.4620    -1.3940 H     1 <1>   0.0730 
 35 H        1.2660     3.6090     0.9590 H     1 <1>   0.0730 
 36 H        0.5260     2.0000     0.8700 H     1 <1>   0.0730 
 37 H        6.8180    -0.0510    -0.7770 H     1 <1>   0.4450 
 38 H        5.9720     5.0210    -0.5860 H     1 <1>   0.0730 
 39 H        6.6730     4.7790    -2.1720 H     1 <1>   0.0730 
 40 H       -0.6410     4.3580     2.1450 H     1 <1>   0.0730 
 41 H       -1.3800     2.7600     1.9980 H     1 <1>   0.0730 
 42 H        7.9980     4.3780     0.5210 H     1 <1>   0.0730 
 43 H        8.4550     5.5120    -0.7030 H     1 <1>   0.0730 
 44 H       -2.4710     5.3230     0.7850 H     1 <1>   0.0730 
 45 H       -3.1230     4.5260     2.1960 H     1 <1>   0.0730 
 46 H       -3.2060     3.7340     0.6410 H     1 <1>   0.0730 
 47 H        9.2890     3.7630    -2.1450 H     1 <1>   0.0730 
 48 H        9.9430     3.4810    -0.5510 H     1 <1>   0.0730 
 49 H       10.2880     1.3830    -1.8250 H     1 <1>   0.0730 
 50 H        8.9670     0.2770    -2.0200 H     1 <1>   0.0730 
 51 H       10.1870     1.0460     0.6520 H     1 <1>   0.0730 
 52 H       10.5500    -0.4030    -0.2240 H     1 <1>   0.0730 
 53 H        8.2210     1.1210     2.0630 H     1 <1>   0.1440 
 54 H        8.6950    -2.0720    -0.7430 H     1 <1>   0.1440 
 55 H        6.2530    -0.0020     2.9950 H     1 <1>   0.1440 
 56 H        6.7300    -3.1860     0.2070 H     1 <1>   0.1440 
 57 H        5.5020    -2.1500     2.0700 H     1 <1>   0.1440 
@<TRIPOS>BOND
  1   1   2  2   
  2   2   3  am  
  3   2   4  am  
  4   3   5  am  
  5   3   6  1   
  6   4   7  1   
  7   4   8  1   
  8   5   9  2   
  9   5  10  1   
 10   6  11  1   
 11   6  30  1   
 12   6  31  1   
 13   7  10  2   
 14   7  12  1   
 15   8  32  1   
 16   8  33  1   
 17   8  34  1   
 18  10  13  1   
 19  11  14  1   
 20  11  35  1   
 21  11  36  1   
 22  12  15  ar  
 23  12  37  1   
 24  13  15  ar  
 25  13  16  1   
 26  14  17  1   
 27  15  18  ar  
 28  16  19  1   
 29  16  38  1   
 30  16  39  1   
 31  17  20  1   
 32  17  40  1   
 33  17  41  1   
 34  18  21  1   
 35  18  22  1   
 36  19  21  1   
 37  19  42  1   
 38  19  43  1   
 39  20  44  1   
 40  20  45  1   
 41  20  46  1   
 42  21  47  1   
 43  21  48  1   
 44  22  23  1   
 45  22  49  1   
 46  22  50  1   
 47  23  24  1   
 48  23  51  1   
 49  23  52  1   
 50  24  25  ar  
 51  24  26  ar  
 52  25  27  ar  
 53  25  53  1   
 54  26  28  ar  
 55  26  54  1   
 56  27  29  ar  
 57  27  55  1   
 58  28  29  ar  
 59  28  56  1   
 60  29  57  1   
@<TRIPOS>SUBSTRUCTURE
  1 ****   7 GROUP 4 **** **** 0

# MOE 2024.06 (io_trps.svl 2023.06)
