@<TRIPOS>MOLECULE
4-(2-Morpholin-4-yl-thiazol-4-yl)-phenylamine
33 35 1 0 0 
SMALL
USER_CHARGES


@<TRIPOS>ATOM
  1 S       -0.0320     0.4830     0.0430 S.3   1 <1>  -0.0800 
  2 C        0.6960    -1.0910     0.3370 C.2   1 <1>   0.4620 
  3 C       -1.5870    -0.2800    -0.0930 C.2   1 <1>  -0.1100 
  4 N       -0.1570    -2.0490     0.3270 N.2   1 <1>  -0.5650 
  5 N        2.0550    -1.1920     0.5520 N.pl3 1 <1>  -0.8220 
  6 C       -1.4580    -1.6110     0.0870 C.2   1 <1>   0.1730 
  7 C        2.6810    -2.5020     0.8970 C.3   1 <1>   0.2090 
  8 C        3.0250    -0.0570     0.5040 C.3   1 <1>   0.2090 
  9 C       -2.5390    -2.5810     0.0490 C.ar  1 <1>   0.0540 
 10 C        3.9530    -2.7370     0.0630 C.3   1 <1>   0.1200 
 11 C        4.2780    -0.4450    -0.3040 C.3   1 <1>   0.1200 
 12 C       -3.8580    -2.2090     0.3150 C.ar  1 <1>  -0.1500 
 13 C       -2.3090    -3.9220    -0.2610 C.ar  1 <1>  -0.1500 
 14 O        4.8300    -1.6470     0.1590 O.3   1 <1>  -0.5600 
 15 C       -4.8910    -3.1260     0.2690 C.ar  1 <1>  -0.1500 
 16 C       -3.3400    -4.8420    -0.3070 C.ar  1 <1>  -0.1500 
 17 C       -4.6450    -4.4550    -0.0400 C.ar  1 <1>   0.1000 
 18 N       -5.6750    -5.3740    -0.0780 N.pl3 1 <1>  -0.9000 
 19 H       -2.4350     0.3450    -0.2970 H     1 <1>   0.1500 
 20 H        1.9910    -3.3090     0.7220 H     1 <1>   0.0800 
 21 H        2.9370    -2.5070     1.9420 H     1 <1>   0.0800 
 22 H        3.3190     0.1970     1.5080 H     1 <1>   0.0800 
 23 H        2.5840     0.8130     0.0560 H     1 <1>   0.0800 
 24 H        3.6970    -2.8840    -0.9720 H     1 <1>   0.0800 
 25 H        4.4720    -3.6090     0.4180 H     1 <1>   0.0800 
 26 H        5.0290     0.3180    -0.2100 H     1 <1>   0.0800 
 27 H        4.0300    -0.5600    -1.3440 H     1 <1>   0.0800 
 28 H       -4.0810    -1.1880     0.5650 H     1 <1>   0.1500 
 29 H       -1.3050    -4.2430    -0.4720 H     1 <1>   0.1500 
 30 H       -5.8980    -2.8120     0.4730 H     1 <1>   0.1500 
 31 H       -3.1330    -5.8660    -0.5550 H     1 <1>   0.1500 
 32 H       -5.4180    -6.3600     0.0150 H     1 <1>   0.4000 
 33 H       -6.5240    -5.1420     0.4460 H     1 <1>   0.4000 
@<TRIPOS>BOND
  1   1   2  1   
  2   1   3  1   
  3   2   4  2   
  4   2   5  1   
  5   3   6  2   
  6   3  19  1   
  7   4   6  1   
  8   5   7  1   
  9   5   8  1   
 10   6   9  1   
 11   7  10  1   
 12   7  20  1   
 13   7  21  1   
 14   8  11  1   
 15   8  22  1   
 16   8  23  1   
 17   9  12  ar  
 18   9  13  ar  
 19  10  14  1   
 20  10  24  1   
 21  10  25  1   
 22  11  14  1   
 23  11  26  1   
 24  11  27  1   
 25  12  15  ar  
 26  12  28  1   
 27  13  16  ar  
 28  13  29  1   
 29  15  17  ar  
 30  15  30  1   
 31  16  17  ar  
 32  16  31  1   
 33  17  18  1   
 34  18  32  1   
 35  18  33  1   
@<TRIPOS>SUBSTRUCTURE
  1 ****   4 GROUP 4 **** **** 0

# MOE 2024.06 (io_trps.svl 2023.06)
