@<TRIPOS>MOLECULE
2-(3,5-Dimethyl-pyrazol-1-yl)-4-oxo-4-p-tolyl-butyric acid methyl ester
42 43 1 0 0 
SMALL
USER_CHARGES


@<TRIPOS>ATOM
  1 O        0.3380    -0.7650    -0.7950 O.2   1 <1>  -0.5700 
  2 C        0.1940    -1.7400    -0.0980 C.2   1 <1>   0.6590 
  3 O        1.1790    -2.6180     0.0780 O.3   1 <1>  -0.4300 
  4 C       -1.0800    -2.0080     0.6820 C.3   1 <1>   0.2370 
  5 C        2.4120    -2.4990    -0.6000 C.3   1 <1>   0.0400 
  6 N       -1.6630    -3.2870     0.2220 N.pl3 1 <1>   0.3140 
  7 C       -2.1190    -0.8770     0.5740 C.3   1 <1>  -0.0990 
  8 N       -2.0160    -3.4780    -1.0660 N.2   1 <1>  -0.7070 
  9 C       -1.9750    -4.3700     0.9750 C.2   1 <1>  -0.3320 
 10 C       -3.2860    -1.1520     1.5030 C.2   1 <1>   0.4230 
 11 C       -2.5260    -4.6670    -1.1040 C.2   1 <1>   0.1080 
 12 C       -2.5290    -5.2760     0.1430 C.2   1 <1>  -0.1500 
 13 C       -1.7410    -4.5030     2.4710 C.3   1 <1>  -0.0600 
 14 O       -3.0150    -1.1460     2.6770 O.2   1 <1>  -0.5700 
 15 C       -4.6310    -1.3820     1.0080 C.ar  1 <1>   0.0860 
 16 C       -3.0510    -5.2820    -2.3790 C.3   1 <1>  -0.0590 
 17 C       -5.7210    -1.1940     1.8610 C.ar  1 <1>  -0.1500 
 18 C       -4.9240    -1.7970    -0.2950 C.ar  1 <1>  -0.1500 
 19 C       -7.0240    -1.3910     1.4420 C.ar  1 <1>  -0.1500 
 20 C       -6.2240    -1.9940    -0.7210 C.ar  1 <1>  -0.1500 
 21 C       -7.2850    -1.7890     0.1430 C.ar  1 <1>  -0.1440 
 22 C       -8.7130    -2.0080    -0.3230 C.3   1 <1>  -0.0970 
 23 H       -0.7990    -2.1170     1.7110 H     1 <1>   0.0800 
 24 H        3.0420    -3.3210    -0.3100 H     1 <1>   0.0800 
 25 H        2.8710    -1.5630    -0.3290 H     1 <1>   0.0800 
 26 H        2.2280    -2.5290    -1.6600 H     1 <1>   0.0800 
 27 H       -2.4260    -0.7430    -0.4460 H     1 <1>   0.0800 
 28 H       -1.6610     0.0440     0.8880 H     1 <1>   0.0800 
 29 H       -2.9040    -6.2580     0.3680 H     1 <1>   0.1500 
 30 H       -2.0750    -5.4670     2.8120 H     1 <1>   0.0800 
 31 H       -0.6940    -4.4060     2.6960 H     1 <1>   0.0800 
 32 H       -2.2890    -3.7480     3.0060 H     1 <1>   0.0800 
 33 H       -2.2670    -5.3050    -3.1130 H     1 <1>   0.0800 
 34 H       -3.8640    -4.6890    -2.7540 H     1 <1>   0.0800 
 35 H       -3.3960    -6.2830    -2.1980 H     1 <1>   0.0800 
 36 H       -5.5400    -0.8870     2.8770 H     1 <1>   0.1500 
 37 H       -4.1340    -1.9840    -0.9990 H     1 <1>   0.1500 
 38 H       -7.8340    -1.2330     2.1320 H     1 <1>   0.1500 
 39 H       -6.4070    -2.3140    -1.7320 H     1 <1>   0.1500 
 40 H       -9.0030    -3.0270    -0.1410 H     1 <1>   0.0800 
 41 H       -8.8010    -1.8040    -1.3750 H     1 <1>   0.0800 
 42 H       -9.3850    -1.3560     0.2050 H     1 <1>   0.0800 
@<TRIPOS>BOND
  1   1   2  2   
  2   2   3  1   
  3   2   4  1   
  4   3   5  1   
  5   4   6  1   
  6   4   7  1   
  7   4  23  1   
  8   5  24  1   
  9   5  25  1   
 10   5  26  1   
 11   6   8  1   
 12   6   9  1   
 13   7  10  1   
 14   7  27  1   
 15   7  28  1   
 16   8  11  2   
 17   9  12  2   
 18   9  13  1   
 19  10  14  2   
 20  10  15  1   
 21  11  12  1   
 22  11  16  1   
 23  12  29  1   
 24  13  30  1   
 25  13  31  1   
 26  13  32  1   
 27  15  17  ar  
 28  15  18  ar  
 29  16  33  1   
 30  16  34  1   
 31  16  35  1   
 32  17  19  ar  
 33  17  36  1   
 34  18  20  ar  
 35  18  37  1   
 36  19  21  ar  
 37  19  38  1   
 38  20  21  ar  
 39  20  39  1   
 40  21  22  1   
 41  22  40  1   
 42  22  41  1   
 43  22  42  1   
@<TRIPOS>SUBSTRUCTURE
  1 ****   6 GROUP 4 **** **** 0

# MOE 2024.06 (io_trps.svl 2023.06)
