@<TRIPOS>MOLECULE
Adamantane-1-carboxylic acid isopropyl-(3-p-tolyl-[1,2,4]oxadiazol-5-ylmethyl)-a
60 64 1 0 0 
SMALL
USER_CHARGES


@<TRIPOS>ATOM
  1 O        0.5700     1.2130    -0.4750 O.2   1 <1>  -0.5700 
  2 C        0.2850     2.3810    -0.6230 C.2   1 <1>   0.5690 
  3 N        1.2180     3.2210    -1.2140 N.am  1 <1>  -0.6600 
  4 C       -1.1400     2.8080    -0.1360 C.3   1 <1>   0.0610 
  5 C        2.4580     2.5990    -1.7970 C.3   1 <1>   0.2200 
  6 C        1.1490     4.7270    -1.2380 C.3   1 <1>   0.3200 
  7 C       -1.9430     1.5590     0.3490 C.3   1 <1>  -0.1600 
  8 C       -1.9840     3.4250    -1.2890 C.3   1 <1>  -0.1600 
  9 C       -1.0870     3.7730     1.0830 C.3   1 <1>  -0.1600 
 10 C        3.5740     2.5330    -0.7540 C.3   1 <1>  -0.2400 
 11 C        2.9370     3.2920    -3.0760 C.3   1 <1>  -0.2400 
 12 C        2.1350     5.3970    -0.2920 C.2   1 <1>   0.2980 
 13 C       -3.3600     1.9210     0.8310 C.3   1 <1>  -0.0800 
 14 C       -3.3860     3.8330    -0.8010 C.3   1 <1>  -0.0800 
 15 C       -2.5000     4.1730     1.5440 C.3   1 <1>  -0.0800 
 16 O        2.0880     5.0970     0.9800 O.3   1 <1>  -0.0190 
 17 N        3.0160     6.2520    -0.6180 N.2   1 <1>  -0.5650 
 18 C       -4.1340     2.5780    -0.3230 C.3   1 <1>  -0.1600 
 19 C       -3.2560     2.9140     2.0000 C.3   1 <1>  -0.1600 
 20 C       -3.2540     4.8260     0.3700 C.3   1 <1>  -0.1600 
 21 N        3.0230     5.8210     1.5090 N.2   1 <1>  -0.4100 
 22 C        3.5780     6.5020     0.5700 C.2   1 <1>   0.4620 
 23 C        4.6800     7.4360     0.7370 C.ar  1 <1>   0.0540 
 24 C        5.2460     7.6730     1.9910 C.ar  1 <1>  -0.1500 
 25 C        5.2210     8.1370    -0.3430 C.ar  1 <1>  -0.1500 
 26 C        6.2940     8.5590     2.1590 C.ar  1 <1>  -0.1500 
 27 C        6.2690     9.0250    -0.1800 C.ar  1 <1>  -0.1500 
 28 C        6.8140     9.2410     1.0730 C.ar  1 <1>  -0.1440 
 29 C        7.9630    10.2160     1.2540 C.3   1 <1>  -0.0970 
 30 H        2.2260     1.5840    -2.0790 H     1 <1>   0.0800 
 31 H        0.1790     5.0800    -0.9770 H     1 <1>   0.0800 
 32 H        1.3280     5.0830    -2.2340 H     1 <1>   0.0800 
 33 H       -1.4140     1.0790     1.1550 H     1 <1>   0.0800 
 34 H       -2.0160     0.8430    -0.4510 H     1 <1>   0.0800 
 35 H       -2.0800     2.7010    -2.0800 H     1 <1>   0.0800 
 36 H       -1.5190     4.2860    -1.7200 H     1 <1>   0.0800 
 37 H       -0.5510     4.6720     0.8690 H     1 <1>   0.0800 
 38 H       -0.5680     3.2900     1.8930 H     1 <1>   0.0800 
 39 H        3.9790     3.5040    -0.5410 H     1 <1>   0.0800 
 40 H        4.3730     1.9170    -1.1230 H     1 <1>   0.0800 
 41 H        3.2040     2.0920     0.1540 H     1 <1>   0.0800 
 42 H        3.3420     4.2660    -2.8690 H     1 <1>   0.0800 
 43 H        2.1310     3.3690    -3.7830 H     1 <1>   0.0800 
 44 H        3.7170     2.7050    -3.5250 H     1 <1>   0.0800 
 45 H       -3.8730     1.0320     1.1540 H     1 <1>   0.0800 
 46 H       -3.9330     4.2920    -1.6070 H     1 <1>   0.0800 
 47 H       -2.4310     4.8670     2.3650 H     1 <1>   0.0800 
 48 H       -5.1240     2.8440     0.0060 H     1 <1>   0.0800 
 49 H       -4.2370     1.8810    -1.1360 H     1 <1>   0.0800 
 50 H       -2.7370     2.4540     2.8240 H     1 <1>   0.0800 
 51 H       -4.2400     3.1810     2.3420 H     1 <1>   0.0800 
 52 H       -4.2340     5.1300     0.6970 H     1 <1>   0.0800 
 53 H       -2.7320     5.7090     0.0460 H     1 <1>   0.0800 
 54 H        4.8580     7.1540     2.8500 H     1 <1>   0.1500 
 55 H        4.8150     7.9860    -1.3280 H     1 <1>   0.1500 
 56 H        6.7030     8.7170     3.1420 H     1 <1>   0.1500 
 57 H        6.6580     9.5480    -1.0360 H     1 <1>   0.1500 
 58 H        8.5840     9.9160     2.0790 H     1 <1>   0.0800 
 59 H        7.5770    11.2000     1.4500 H     1 <1>   0.0800 
 60 H        8.5710    10.2500     0.3680 H     1 <1>   0.0800 
@<TRIPOS>BOND
  1   1   2  2   
  2   2   3  am  
  3   2   4  1   
  4   3   5  1   
  5   3   6  1   
  6   4   7  1   
  7   4   8  1   
  8   4   9  1   
  9   5  10  1   
 10   5  11  1   
 11   5  30  1   
 12   6  12  1   
 13   6  31  1   
 14   6  32  1   
 15   7  13  1   
 16   7  33  1   
 17   7  34  1   
 18   8  14  1   
 19   8  35  1   
 20   8  36  1   
 21   9  15  1   
 22   9  37  1   
 23   9  38  1   
 24  10  39  1   
 25  10  40  1   
 26  10  41  1   
 27  11  42  1   
 28  11  43  1   
 29  11  44  1   
 30  12  16  1   
 31  12  17  2   
 32  13  18  1   
 33  13  19  1   
 34  13  45  1   
 35  14  18  1   
 36  14  20  1   
 37  14  46  1   
 38  15  19  1   
 39  15  20  1   
 40  15  47  1   
 41  16  21  1   
 42  17  22  1   
 43  18  48  1   
 44  18  49  1   
 45  19  50  1   
 46  19  51  1   
 47  20  52  1   
 48  20  53  1   
 49  21  22  2   
 50  22  23  1   
 51  23  24  ar  
 52  23  25  ar  
 53  24  26  ar  
 54  24  54  1   
 55  25  27  ar  
 56  25  55  1   
 57  26  28  ar  
 58  26  56  1   
 59  27  28  ar  
 60  27  57  1   
 61  28  29  1   
 62  29  58  1   
 63  29  59  1   
 64  29  60  1   
@<TRIPOS>SUBSTRUCTURE
  1 ****  12 GROUP 4 **** **** 0

# MOE 2024.06 (io_trps.svl 2023.06)
