@<TRIPOS>MOLECULE
N-[2-(4-Isobutyryl-piperazin-1-yl)-phenyl]-4-methoxy-benzamide
55 57 1 0 0 
SMALL
USER_CHARGES


@<TRIPOS>ATOM
  1 O       -0.3160     0.0870    -0.5780 O.2   1 <1>  -0.5700 
  2 C       -0.2680    -1.0660    -0.1970 C.2   1 <1>   0.5440 
  3 N        0.9200    -1.7500    -0.2160 N.am  1 <1>  -0.5470 
  4 C       -1.4690    -1.7430     0.2610 C.ar  1 <1>   0.0860 
  5 C        2.2490    -1.4330    -0.5350 C.ar  1 <1>   0.1170 
  6 C       -2.7330    -1.3220    -0.1580 C.ar  1 <1>  -0.1500 
  7 C       -1.4200    -2.8370     1.1300 C.ar  1 <1>  -0.1500 
  8 C        3.1670    -2.4920    -0.4670 C.ar  1 <1>   0.1000 
  9 C        2.6890    -0.1670    -0.8980 C.ar  1 <1>  -0.1500 
 10 C       -3.8890    -1.9610     0.2500 C.ar  1 <1>  -0.1500 
 11 C       -2.5710    -3.4830     1.5420 C.ar  1 <1>  -0.1500 
 12 N        2.7270    -3.7780    -0.0980 N.pl3 1 <1>  -0.8380 
 13 C        4.5010    -2.2510    -0.7680 C.ar  1 <1>  -0.1500 
 14 C        4.0220     0.0570    -1.1950 C.ar  1 <1>  -0.1500 
 15 C       -3.8140    -3.0560     1.1060 C.ar  1 <1>   0.0830 
 16 C        2.6090    -4.8020    -1.1850 C.3   1 <1>   0.2090 
 17 C        3.1520    -4.3060     1.2400 C.3   1 <1>   0.2090 
 18 C        4.9290    -0.9860    -1.1300 C.ar  1 <1>  -0.1500 
 19 O       -4.8890    -3.7420     1.5510 O.3   1 <1>  -0.3630 
 20 C        3.8000    -5.7790    -1.2230 C.3   1 <1>   0.1400 
 21 C        4.3330    -5.2870     1.1470 C.3   1 <1>   0.1400 
 22 C       -6.2030    -3.3850     1.1820 C.3   1 <1>   0.0400 
 23 N        4.0670    -6.3530     0.1320 N.am  1 <1>  -0.6600 
 24 C        3.8950    -7.6630     0.5110 C.2   1 <1>   0.5690 
 25 O        3.8840    -7.9690     1.6820 O.2   1 <1>  -0.5700 
 26 C        3.6910    -8.7760    -0.5320 C.3   1 <1>  -0.0190 
 27 C        2.2030    -8.9430    -0.8840 C.3   1 <1>  -0.2400 
 28 C        4.2610   -10.1320    -0.0730 C.3   1 <1>  -0.2400 
 29 H        0.8730    -2.7440     0.0180 H     1 <1>   0.3700 
 30 H       -2.8020    -0.4740    -0.8190 H     1 <1>   0.1500 
 31 H       -0.4740    -3.1890     1.4990 H     1 <1>   0.1500 
 32 H        1.9950     0.6510    -0.9510 H     1 <1>   0.1500 
 33 H       -4.8350    -1.5970    -0.1040 H     1 <1>   0.1500 
 34 H       -2.5170    -4.3250     2.2090 H     1 <1>   0.1500 
 35 H        5.2080    -3.0560    -0.7200 H     1 <1>   0.1500 
 36 H        4.3490     1.0430    -1.4760 H     1 <1>   0.1500 
 37 H        2.5280    -4.3050    -2.1360 H     1 <1>   0.0800 
 38 H        1.7040    -5.3630    -1.0320 H     1 <1>   0.0800 
 39 H        2.3200    -4.8130     1.6960 H     1 <1>   0.0800 
 40 H        3.4240    -3.4840     1.8800 H     1 <1>   0.0800 
 41 H        5.9650    -0.8120    -1.3610 H     1 <1>   0.1500 
 42 H        4.6750    -5.2520    -1.5600 H     1 <1>   0.0800 
 43 H        3.5880    -6.5470    -1.9410 H     1 <1>   0.0800 
 44 H        4.5080    -5.7180     2.1170 H     1 <1>   0.0800 
 45 H        5.2210    -4.7500     0.8710 H     1 <1>   0.0800 
 46 H       -6.8820    -4.0690     1.6590 H     1 <1>   0.0800 
 47 H       -6.2980    -3.4610     0.1130 H     1 <1>   0.0800 
 48 H       -6.3990    -2.3820     1.5170 H     1 <1>   0.0800 
 49 H        4.2320    -8.5090    -1.4200 H     1 <1>   0.0800 
 50 H        1.6500    -9.2420    -0.0100 H     1 <1>   0.0800 
 51 H        2.0770    -9.6920    -1.6450 H     1 <1>   0.0800 
 52 H        1.7920    -8.0170    -1.2430 H     1 <1>   0.0800 
 53 H        3.7410   -10.4830     0.8020 H     1 <1>   0.0800 
 54 H        5.3030   -10.0290     0.1740 H     1 <1>   0.0800 
 55 H        4.1630   -10.8680    -0.8510 H     1 <1>   0.0800 
@<TRIPOS>BOND
  1   1   2  2   
  2   2   3  am  
  3   2   4  1   
  4   3   5  1   
  5   3  29  1   
  6   4   6  ar  
  7   4   7  ar  
  8   5   8  ar  
  9   5   9  ar  
 10   6  10  ar  
 11   6  30  1   
 12   7  11  ar  
 13   7  31  1   
 14   8  12  1   
 15   8  13  ar  
 16   9  14  ar  
 17   9  32  1   
 18  10  15  ar  
 19  10  33  1   
 20  11  15  ar  
 21  11  34  1   
 22  12  16  1   
 23  12  17  1   
 24  13  18  ar  
 25  13  35  1   
 26  14  18  ar  
 27  14  36  1   
 28  15  19  1   
 29  16  20  1   
 30  16  37  1   
 31  16  38  1   
 32  17  21  1   
 33  17  39  1   
 34  17  40  1   
 35  18  41  1   
 36  19  22  1   
 37  20  23  1   
 38  20  42  1   
 39  20  43  1   
 40  21  23  1   
 41  21  44  1   
 42  21  45  1   
 43  22  46  1   
 44  22  47  1   
 45  22  48  1   
 46  23  24  am  
 47  24  25  2   
 48  24  26  1   
 49  26  27  1   
 50  26  28  1   
 51  26  49  1   
 52  27  50  1   
 53  27  51  1   
 54  27  52  1   
 55  28  53  1   
 56  28  54  1   
 57  28  55  1   
@<TRIPOS>SUBSTRUCTURE
  1 ****  12 GROUP 4 **** **** 0

# MOE 2024.06 (io_trps.svl 2023.06)
