@<TRIPOS>MOLECULE
5,7-Dimethyl-2-pyridin-2-yl-1,3-diaza-tricyclo[3.3.1.1*3,7*]decan-6-one
39 42 1 0 0 
SMALL
USER_CHARGES


@<TRIPOS>ATOM
  1 O        0.5730     0.2330    -0.0600 O.2   1 <1>  -0.5700 
  2 C        1.0610    -0.8530     0.0310 C.2   1 <1>   0.4480 
  3 C        0.6660    -2.0200    -0.8760 C.3   1 <1>   0.0610 
  4 C        2.1870    -1.1820     1.0120 C.3   1 <1>   0.0610 
  5 C        1.9250    -2.3680    -1.6830 C.3   1 <1>   0.3430 
  6 C        0.3370    -3.2250     0.0230 C.3   1 <1>   0.1100 
  7 C       -0.5180    -1.7000    -1.8120 C.3   1 <1>  -0.2400 
  8 C        3.3930    -1.5730     0.1530 C.3   1 <1>   0.3430 
  9 C        1.7800    -2.4300     1.8060 C.3   1 <1>   0.1100 
 10 C        2.5390    -0.0200     1.9630 C.3   1 <1>  -0.2400 
 11 N        3.0310    -2.7240    -0.7410 N.4   1 <1>  -0.9590 
 12 N        1.5050    -3.5430     0.8700 N.3   1 <1>  -0.8100 
 13 C        2.6750    -3.9310     0.0530 C.3   1 <1>   0.8360 
 14 C        3.8940    -4.4660     0.8440 C.ar  1 <1>   0.1670 
 15 N        5.1010    -4.1990     0.3370 N.ar  1 <1>  -0.6200 
 16 C        3.7000    -5.2000     2.0080 C.ar  1 <1>  -0.1500 
 17 C        6.1340    -4.6780     1.0170 C.ar  1 <1>   0.1600 
 18 C        4.7860    -5.6850     2.7040 C.ar  1 <1>  -0.1500 
 19 C        6.0320    -5.4110     2.1850 C.ar  1 <1>  -0.1500 
 20 H        1.7160    -3.1960    -2.3400 H     1 <1>   0.0800 
 21 H        2.2110    -1.5200    -2.2850 H     1 <1>   0.0800 
 22 H        0.0770    -4.0830    -0.5760 H     1 <1>   0.0800 
 23 H       -0.5120    -2.9970     0.6490 H     1 <1>   0.0800 
 24 H       -0.2840    -0.8600    -2.4440 H     1 <1>   0.0800 
 25 H       -1.3890    -1.4420    -1.2330 H     1 <1>   0.0800 
 26 H       -0.7620    -2.5420    -2.4350 H     1 <1>   0.0800 
 27 H        4.2150    -1.8520     0.7940 H     1 <1>   0.0800 
 28 H        3.7020    -0.7280    -0.4400 H     1 <1>   0.0800 
 29 H        2.5630    -2.7080     2.4930 H     1 <1>   0.0800 
 30 H        0.8970    -2.2230     2.3910 H     1 <1>   0.0800 
 31 H        3.3400    -0.2920     2.6280 H     1 <1>   0.0800 
 32 H        1.6800     0.2480     2.5550 H     1 <1>   0.0800 
 33 H        2.8370     0.8500     1.4030 H     1 <1>   0.0800 
 34 H        3.8930    -3.0180    -1.2250 H     1 <1>   0.4500 
 35 H        2.3740    -4.7180    -0.6190 H     1 <1>   0.0800 
 36 H        2.7070    -5.3970     2.3760 H     1 <1>   0.1500 
 37 H        7.1180    -4.4790     0.6240 H     1 <1>   0.1500 
 38 H        4.6680    -6.2560     3.6110 H     1 <1>   0.1500 
 39 H        6.9190    -5.7660     2.6810 H     1 <1>   0.1500 
@<TRIPOS>BOND
  1   1   2  2   
  2   2   3  1   
  3   2   4  1   
  4   3   5  1   
  5   3   6  1   
  6   3   7  1   
  7   4   8  1   
  8   4   9  1   
  9   4  10  1   
 10   5  11  1   
 11   5  20  1   
 12   5  21  1   
 13   6  12  1   
 14   6  22  1   
 15   6  23  1   
 16   7  24  1   
 17   7  25  1   
 18   7  26  1   
 19   8  11  1   
 20   8  27  1   
 21   8  28  1   
 22   9  12  1   
 23   9  29  1   
 24   9  30  1   
 25  10  31  1   
 26  10  32  1   
 27  10  33  1   
 28  11  13  1   
 29  11  34  1   
 30  12  13  1   
 31  13  14  1   
 32  13  35  1   
 33  14  15  ar  
 34  14  16  ar  
 35  15  17  ar  
 36  16  18  ar  
 37  16  36  1   
 38  17  19  ar  
 39  17  37  1   
 40  18  19  ar  
 41  18  38  1   
 42  19  39  1   
@<TRIPOS>SUBSTRUCTURE
  1 ****  13 GROUP 4 **** **** 0

# MOE 2024.06 (io_trps.svl 2023.06)
