@<TRIPOS>MOLECULE
4-Benzyloxymethyl-piperidine
35 36 1 0 0 
SMALL
USER_CHARGES


@<TRIPOS>ATOM
  1 O       -0.1450     0.1970    -0.2930 O.3   1 <1>  -0.5600 
  2 C       -1.2800     0.6080    -0.9920 C.3   1 <1>   0.2640 
  3 C        1.0460     0.7400    -0.7480 C.3   1 <1>   0.1200 
  4 C       -2.4870    -0.1360    -0.4430 C.ar  1 <1>  -0.1440 
  5 C        2.1780     0.1950     0.1360 C.3   1 <1>  -0.0800 
  6 C       -3.2580    -0.9390    -1.2700 C.ar  1 <1>  -0.1500 
  7 C       -2.8320    -0.0120     0.8950 C.ar  1 <1>  -0.1500 
  8 C        3.5450     0.7360    -0.3160 C.3   1 <1>  -0.1600 
  9 C        2.2030    -1.3460     0.1470 C.3   1 <1>  -0.1600 
 10 C       -4.3620    -1.6060    -0.7680 C.ar  1 <1>  -0.1500 
 11 C       -3.9360    -0.6790     1.3990 C.ar  1 <1>  -0.1500 
 12 C        4.6860     0.1580     0.5250 C.3   1 <1>   0.3430 
 13 C        3.3620    -1.8890     0.9800 C.3   1 <1>   0.3430 
 14 C       -4.7020    -1.4760     0.5670 C.ar  1 <1>  -0.1500 
 15 N        4.6440    -1.3290     0.4710 N.4   1 <1>  -0.9060 
 16 H       -1.1430     0.3900    -2.0360 H     1 <1>   0.0800 
 17 H       -1.4050     1.6690    -0.8550 H     1 <1>   0.0800 
 18 H        0.9860     1.8130    -0.6750 H     1 <1>   0.0800 
 19 H        1.1860     0.4500    -1.7770 H     1 <1>   0.0800 
 20 H        1.9930     0.5430     1.1390 H     1 <1>   0.0800 
 21 H       -3.0050    -1.0510    -2.3100 H     1 <1>   0.1500 
 22 H       -2.2370     0.6020     1.5460 H     1 <1>   0.1500 
 23 H        3.5540     1.8090    -0.2190 H     1 <1>   0.0800 
 24 H        3.7130     0.5050    -1.3540 H     1 <1>   0.0800 
 25 H        2.2680    -1.7270    -0.8580 H     1 <1>   0.0800 
 26 H        1.2830    -1.7170     0.5670 H     1 <1>   0.0800 
 27 H       -4.9560    -2.2270    -1.4150 H     1 <1>   0.1500 
 28 H       -4.1960    -0.5770     2.4380 H     1 <1>   0.1500 
 29 H        4.5800     0.4880     1.5470 H     1 <1>   0.0800 
 30 H        5.6310     0.5170     0.1500 H     1 <1>   0.0800 
 31 H        3.3750    -2.9660     0.9230 H     1 <1>   0.0800 
 32 H        3.2220    -1.6060     2.0120 H     1 <1>   0.0800 
 33 H       -5.5600    -1.9940     0.9580 H     1 <1>   0.1500 
 34 H        5.4280    -1.7200     1.0080 H     1 <1>   0.4500 
 35 H        4.7650    -1.6300    -0.5030 H     1 <1>   0.4500 
@<TRIPOS>BOND
  1   1   2  1   
  2   1   3  1   
  3   2   4  1   
  4   2  16  1   
  5   2  17  1   
  6   3   5  1   
  7   3  18  1   
  8   3  19  1   
  9   4   6  ar  
 10   4   7  ar  
 11   5   8  1   
 12   5   9  1   
 13   5  20  1   
 14   6  10  ar  
 15   6  21  1   
 16   7  11  ar  
 17   7  22  1   
 18   8  12  1   
 19   8  23  1   
 20   8  24  1   
 21   9  13  1   
 22   9  25  1   
 23   9  26  1   
 24  10  14  ar  
 25  10  27  1   
 26  11  14  ar  
 27  11  28  1   
 28  12  15  1   
 29  12  29  1   
 30  12  30  1   
 31  13  15  1   
 32  13  31  1   
 33  13  32  1   
 34  14  33  1   
 35  15  34  1   
 36  15  35  1   
@<TRIPOS>SUBSTRUCTURE
  1 ****   1 GROUP 4 **** **** 0

# MOE 2024.06 (io_trps.svl 2023.06)
