@<TRIPOS>MOLECULE
6-(3,4-Dihydro-2H-quinolin-1-ylmethyl)-2-oxo-4-p-tolyl-1,2,3,4-tetrahydro-pyrimi
57 60 1 0 0 
SMALL
USER_CHARGES


@<TRIPOS>ATOM
  1 O       -2.4540     1.1640     3.5590 O.2   1 <1>  -0.5700 
  2 C       -3.2190     1.6260     2.7430 C.2   1 <1>   0.6900 
  3 N       -3.8090     0.8430     1.8110 N.am  1 <1>  -0.5390 
  4 N       -3.4860     2.9420     2.7220 N.am  1 <1>  -0.7300 
  5 C       -4.6400     1.2900     0.8020 C.2   1 <1>  -0.0290 
  6 C       -4.2050     3.6090     1.6190 C.3   1 <1>   0.5020 
  7 C       -4.8940     2.6210     0.6690 C.2   1 <1>  -0.1240 
  8 C       -5.2190     0.1800    -0.0880 C.3   1 <1>   0.3470 
  9 C       -3.1920     4.4760     0.8750 C.ar  1 <1>  -0.1430 
 10 C       -5.7630     3.2390    -0.2870 C.2   1 <1>   0.7060 
 11 N       -4.4260    -1.0880     0.0610 N.pl3 1 <1>  -0.8380 
 12 C       -2.1110     3.8990     0.2230 C.ar  1 <1>  -0.1500 
 13 C       -3.3400     5.8550     0.8390 C.ar  1 <1>  -0.1500 
 14 O       -6.2780     2.6380    -1.2100 O.2   1 <1>  -0.5700 
 15 O       -6.0490     4.5380    -0.1490 O.3   1 <1>  -0.4300 
 16 C       -5.1180    -2.2180     0.5120 C.ar  1 <1>   0.1000 
 17 C       -3.3900    -1.2790    -0.9860 C.3   1 <1>   0.2090 
 18 C       -1.1970     4.6870    -0.4550 C.ar  1 <1>  -0.1500 
 19 C       -2.4260     6.6420     0.1600 C.ar  1 <1>  -0.1500 
 20 C       -6.8570     5.2250    -1.0780 C.3   1 <1>   0.1200 
 21 C       -5.1150    -3.4160    -0.2080 C.ar  1 <1>  -0.1440 
 22 C       -5.8330    -2.1600     1.7050 C.ar  1 <1>  -0.1500 
 23 C       -3.9440    -2.1860    -2.0830 C.3   1 <1>  -0.1600 
 24 C       -1.3510     6.0620    -0.4920 C.ar  1 <1>  -0.1430 
 25 C       -6.9060     6.6920    -0.6650 C.3   1 <1>  -0.2400 
 26 C       -5.8280    -4.5080     0.2580 C.ar  1 <1>  -0.1500 
 27 C       -4.3230    -3.5510    -1.5020 C.3   1 <1>  -0.0170 
 28 C       -6.5430    -3.2520     2.1670 C.ar  1 <1>  -0.1500 
 29 C       -0.3480     6.9260    -1.2350 C.3   1 <1>  -0.0970 
 30 C       -6.5440    -4.4290     1.4410 C.ar  1 <1>  -0.1500 
 31 H       -3.5910    -0.1620     1.8290 H     1 <1>   0.3700 
 32 H       -2.8690     3.5320     3.2750 H     1 <1>   0.3700 
 33 H       -4.9560     4.2390     2.0660 H     1 <1>   0.0800 
 34 H       -5.2120     0.4810    -1.1210 H     1 <1>   0.0800 
 35 H       -6.2430     0.0030     0.1900 H     1 <1>   0.0800 
 36 H       -1.9740     2.8310     0.2440 H     1 <1>   0.1500 
 37 H       -4.1700     6.3280     1.3350 H     1 <1>   0.1500 
 38 H       -2.5230    -1.7350    -0.5370 H     1 <1>   0.0800 
 39 H       -3.0940    -0.3290    -1.3980 H     1 <1>   0.0800 
 40 H       -0.3640     4.2220    -0.9520 H     1 <1>   0.1500 
 41 H       -2.5550     7.7100     0.1410 H     1 <1>   0.1500 
 42 H       -7.8400     4.7840    -1.0680 H     1 <1>   0.0800 
 43 H       -6.4200     5.1160    -2.0570 H     1 <1>   0.0800 
 44 H       -5.8260    -1.2520     2.2770 H     1 <1>   0.1500 
 45 H       -3.2090    -2.3120    -2.8580 H     1 <1>   0.0800 
 46 H       -4.8120    -1.7210    -2.5160 H     1 <1>   0.0800 
 47 H       -7.3270     6.7880     0.3200 H     1 <1>   0.0800 
 48 H       -7.5200     7.2420    -1.3550 H     1 <1>   0.0800 
 49 H       -5.9160     7.1130    -0.6800 H     1 <1>   0.0800 
 50 H       -5.8280    -5.4290    -0.2960 H     1 <1>   0.1500 
 51 H       -4.8940    -4.1030    -2.2270 H     1 <1>   0.0800 
 52 H       -3.4260    -4.1060    -1.2880 H     1 <1>   0.0800 
 53 H       -7.0910    -3.1870     3.0900 H     1 <1>   0.1500 
 54 H        0.0760     6.3840    -2.0610 H     1 <1>   0.0800 
 55 H        0.4430     7.2190    -0.5690 H     1 <1>   0.0800 
 56 H       -0.8240     7.8100    -1.6190 H     1 <1>   0.0800 
 57 H       -7.0960    -5.2810     1.7960 H     1 <1>   0.1500 
@<TRIPOS>BOND
  1   1   2  2   
  2   2   3  am  
  3   2   4  am  
  4   3   5  1   
  5   3  31  1   
  6   4   6  1   
  7   4  32  1   
  8   5   7  2   
  9   5   8  1   
 10   6   7  1   
 11   6   9  1   
 12   6  33  1   
 13   7  10  1   
 14   8  11  1   
 15   8  34  1   
 16   8  35  1   
 17   9  12  ar  
 18   9  13  ar  
 19  10  14  2   
 20  10  15  1   
 21  11  16  1   
 22  11  17  1   
 23  12  18  ar  
 24  12  36  1   
 25  13  19  ar  
 26  13  37  1   
 27  15  20  1   
 28  16  21  ar  
 29  16  22  ar  
 30  17  23  1   
 31  17  38  1   
 32  17  39  1   
 33  18  24  ar  
 34  18  40  1   
 35  19  24  ar  
 36  19  41  1   
 37  20  25  1   
 38  20  42  1   
 39  20  43  1   
 40  21  26  ar  
 41  21  27  1   
 42  22  28  ar  
 43  22  44  1   
 44  23  27  1   
 45  23  45  1   
 46  23  46  1   
 47  24  29  1   
 48  25  47  1   
 49  25  48  1   
 50  25  49  1   
 51  26  30  ar  
 52  26  50  1   
 53  27  51  1   
 54  27  52  1   
 55  28  30  ar  
 56  28  53  1   
 57  29  54  1   
 58  29  55  1   
 59  29  56  1   
 60  30  57  1   
@<TRIPOS>SUBSTRUCTURE
  1 ****   5 GROUP 4 **** **** 0

# MOE 2024.06 (io_trps.svl 2023.06)
