@<TRIPOS>MOLECULE
1-(3-Chloro-4-methoxy-benzenesulfonyl)-piperidine-4-carboxylic acid (3-ethoxy-pr
54 55 1 0 0 
SMALL
USER_CHARGES


@<TRIPOS>ATOM
  1 CL       3.0950     2.2660     2.9280 Cl    1 <1>  -0.1770 
  2 C        2.9680     1.4660     1.3760 C.ar  1 <1>   0.1770 
  3 C        1.8960     1.7330     0.5330 C.ar  1 <1>   0.0830 
  4 C        3.9600     0.5720     1.0220 C.ar  1 <1>  -0.1500 
  5 O        0.9550     2.6240     0.9420 O.3   1 <1>  -0.3630 
  6 C        1.8400     1.0710    -0.6900 C.ar  1 <1>  -0.1500 
  7 C        3.9150    -0.0880    -0.2010 C.ar  1 <1>  -0.0090 
  8 C       -0.1770     2.9260     0.1560 C.3   1 <1>   0.0400 
  9 C        2.8380     0.1760    -1.0420 C.ar  1 <1>  -0.1500 
 10 S        5.2130    -1.2640    -0.6720 S.o2  1 <1>   1.4470 
 11 O        5.1060    -2.4390     0.1650 O.2   1 <1>  -0.6500 
 12 O        5.2410    -1.4190    -2.1110 O.2   1 <1>  -0.6500 
 13 N        6.6410    -0.4570    -0.2410 N.am  1 <1>  -0.8490 
 14 C        6.9410     0.6550    -1.1500 C.3   1 <1>   0.1960 
 15 C        7.7700    -1.3840    -0.1310 C.3   1 <1>   0.1960 
 16 C        8.1370     1.4530    -0.6290 C.3   1 <1>  -0.1600 
 17 C        9.0040    -0.6570     0.4100 C.3   1 <1>  -0.1600 
 18 C        9.3740     0.5540    -0.4600 C.3   1 <1>  -0.0190 
 19 C       10.5630     1.3130     0.1240 C.2   1 <1>   0.5690 
 20 O       10.4160     1.9800     1.1200 O.2   1 <1>  -0.5700 
 21 N       11.7680     1.2090    -0.4960 N.am  1 <1>  -0.7300 
 22 C       13.0180     1.8380    -0.0230 C.3   1 <1>   0.1400 
 23 C       14.1350     0.7980    -0.0440 C.3   1 <1>  -0.1600 
 24 C       15.4390     1.3900     0.4830 C.3   1 <1>   0.1200 
 25 O       16.4130     0.4070     0.3860 O.3   1 <1>  -0.5600 
 26 C       17.6580     0.7940     0.8590 C.3   1 <1>   0.1200 
 27 C       18.6040    -0.3860     0.6770 C.3   1 <1>  -0.2400 
 28 H        4.7740     0.3900     1.7020 H     1 <1>   0.1500 
 29 H        1.0330     1.2380    -1.3790 H     1 <1>   0.1500 
 30 H       -0.7720     3.6430     0.6930 H     1 <1>   0.0800 
 31 H       -0.7440     2.0260    -0.0020 H     1 <1>   0.0800 
 32 H        0.1480     3.3490    -0.7780 H     1 <1>   0.0800 
 33 H        2.7810    -0.3300    -1.9930 H     1 <1>   0.1500 
 34 H        6.0890     1.3110    -1.2180 H     1 <1>   0.0800 
 35 H        7.1540     0.2770    -2.1370 H     1 <1>   0.0800 
 36 H        7.9820    -1.8180    -1.0950 H     1 <1>   0.0800 
 37 H        7.5210    -2.1830     0.5480 H     1 <1>   0.0800 
 38 H        7.8740     1.8960     0.3170 H     1 <1>   0.0800 
 39 H        8.3620     2.2530    -1.3130 H     1 <1>   0.0800 
 40 H        9.8320    -1.3420     0.4520 H     1 <1>   0.0800 
 41 H        8.8000    -0.3310     1.4160 H     1 <1>   0.0800 
 42 H        9.6540     0.1930    -1.4340 H     1 <1>   0.0800 
 43 H       11.8590     0.6350    -1.3350 H     1 <1>   0.3700 
 44 H       12.8830     2.2140     0.9780 H     1 <1>   0.0800 
 45 H       13.2650     2.6640    -0.6680 H     1 <1>   0.0800 
 46 H       14.2920     0.4570    -1.0520 H     1 <1>   0.0800 
 47 H       13.8590    -0.0350     0.5780 H     1 <1>   0.0800 
 48 H       15.3360     1.6780     1.5160 H     1 <1>   0.0800 
 49 H       15.7440     2.2360    -0.1090 H     1 <1>   0.0800 
 50 H       17.5710     1.0540     1.9000 H     1 <1>   0.0800 
 51 H       17.9980     1.6440     0.2910 H     1 <1>   0.0800 
 52 H       18.2470    -1.2330     1.2350 H     1 <1>   0.0800 
 53 H       19.5840    -0.1270     1.0330 H     1 <1>   0.0800 
 54 H       18.6730    -0.6460    -0.3640 H     1 <1>   0.0800 
@<TRIPOS>BOND
  1   1   2  1   
  2   2   3  ar  
  3   2   4  ar  
  4   3   5  1   
  5   3   6  ar  
  6   4   7  ar  
  7   4  28  1   
  8   5   8  1   
  9   6   9  ar  
 10   6  29  1   
 11   7   9  ar  
 12   7  10  1   
 13   8  30  1   
 14   8  31  1   
 15   8  32  1   
 16   9  33  1   
 17  10  11  2   
 18  10  12  2   
 19  10  13  am  
 20  13  14  1   
 21  13  15  1   
 22  14  16  1   
 23  14  34  1   
 24  14  35  1   
 25  15  17  1   
 26  15  36  1   
 27  15  37  1   
 28  16  18  1   
 29  16  38  1   
 30  16  39  1   
 31  17  18  1   
 32  17  40  1   
 33  17  41  1   
 34  18  19  1   
 35  18  42  1   
 36  19  20  2   
 37  19  21  am  
 38  21  22  1   
 39  21  43  1   
 40  22  23  1   
 41  22  44  1   
 42  22  45  1   
 43  23  24  1   
 44  23  46  1   
 45  23  47  1   
 46  24  25  1   
 47  24  48  1   
 48  24  49  1   
 49  25  26  1   
 50  26  27  1   
 51  26  50  1   
 52  26  51  1   
 53  27  52  1   
 54  27  53  1   
 55  27  54  1   
@<TRIPOS>SUBSTRUCTURE
  1 ****  16 GROUP 4 **** **** 0

# MOE 2024.06 (io_trps.svl 2023.06)
