@<TRIPOS>MOLECULE
N-[2-(4-Acetyl-piperazin-1-ylmethyl)-1-methyl-1H-benzoimidazol-5-yl]-2-phenoxy-a
58 61 1 0 0 
SMALL
USER_CHARGES


@<TRIPOS>ATOM
  1 O       -0.6490    -1.0060    -1.0850 O.2   1 <1>  -0.5700 
  2 C       -0.4720     0.0950    -0.6200 C.2   1 <1>   0.5690 
  3 N        0.6540     0.4640     0.0640 N.am  1 <1>  -0.5470 
  4 C       -1.5670     1.1340    -0.8180 C.3   1 <1>   0.1810 
  5 C        1.8310    -0.2270     0.4080 C.ar  1 <1>   0.1170 
  6 O       -1.1930     2.3930    -0.2690 O.3   1 <1>  -0.3630 
  7 C        2.9340     0.5060     0.7980 C.ar  1 <1>  -0.1500 
  8 C        1.9210    -1.6310     0.3810 C.ar  1 <1>  -0.1500 
  9 C       -2.0250     3.4610    -0.3340 C.ar  1 <1>   0.0830 
 10 C        4.1130    -0.1440     1.1490 C.ar  1 <1>   0.2270 
 11 C        3.0840    -2.2840     0.7240 C.ar  1 <1>  -0.1500 
 12 C       -3.2840     3.4270    -0.9300 C.ar  1 <1>  -0.1500 
 13 C       -1.5710     4.6410     0.2330 C.ar  1 <1>  -0.1500 
 14 N        5.2960     0.3870     1.5560 N.2   1 <1>  -0.5650 
 15 C        4.1880    -1.5210     1.1080 C.ar  1 <1>  -0.1520 
 16 C       -4.0700     4.5670    -0.9510 C.ar  1 <1>  -0.1500 
 17 C       -2.3580     5.7790     0.2100 C.ar  1 <1>  -0.1500 
 18 C        6.0640    -0.6340     1.7410 C.2   1 <1>   0.0060 
 19 N        5.4550    -1.8320     1.4950 N.pl3 1 <1>   0.0480 
 20 C       -3.6080     5.7420    -0.3820 C.ar  1 <1>  -0.1500 
 21 C        7.5140    -0.5150     2.2120 C.3   1 <1>   0.2900 
 22 C        5.9690    -3.2090     1.6340 C.3   1 <1>   0.0160 
 23 N        8.4800    -0.2670     1.1170 N.3   1 <1>  -0.8100 
 24 C        9.8640    -0.2150     1.6340 C.3   1 <1>   0.1100 
 25 C        8.3670    -1.1990    -0.0240 C.3   1 <1>   0.1100 
 26 C       10.8740     0.1530     0.5350 C.3   1 <1>   0.1400 
 27 C        9.3500    -0.8380    -1.1510 C.3   1 <1>   0.1400 
 28 N       10.7470    -0.7740    -0.6290 N.am  1 <1>  -0.6600 
 29 C       11.8150    -1.4960    -1.0900 C.2   1 <1>   0.5690 
 30 O       12.8990    -1.4500    -0.5620 O.2   1 <1>  -0.5700 
 31 C       11.6690    -2.3950    -2.2950 C.3   1 <1>  -0.1790 
 32 H        0.6420     1.4490     0.3380 H     1 <1>   0.3700 
 33 H       -2.4630     0.8010    -0.3260 H     1 <1>   0.0800 
 34 H       -1.7480     1.2610    -1.8690 H     1 <1>   0.0800 
 35 H        2.9200     1.5770     0.8390 H     1 <1>   0.1500 
 36 H        1.0640    -2.2090     0.0890 H     1 <1>   0.1500 
 37 H        3.1420    -3.3570     0.6980 H     1 <1>   0.1500 
 38 H       -3.6730     2.5340    -1.3800 H     1 <1>   0.1500 
 39 H       -0.5990     4.6660     0.6920 H     1 <1>   0.1500 
 40 H       -5.0430     4.5430    -1.4110 H     1 <1>   0.1500 
 41 H       -1.9990     6.6920     0.6530 H     1 <1>   0.1500 
 42 H       -4.2210     6.6270    -0.4000 H     1 <1>   0.1500 
 43 H        7.7970    -1.3970     2.7560 H     1 <1>   0.0800 
 44 H        7.5640     0.3150     2.8960 H     1 <1>   0.0800 
 45 H        7.0320    -3.2020     1.7740 H     1 <1>   0.0800 
 46 H        5.4980    -3.6750     2.4790 H     1 <1>   0.0800 
 47 H        5.7340    -3.7630     0.7440 H     1 <1>   0.0800 
 48 H       10.1380    -1.1690     2.0500 H     1 <1>   0.0800 
 49 H        9.9250     0.5230     2.4150 H     1 <1>   0.0800 
 50 H        7.3710    -1.1550    -0.4280 H     1 <1>   0.0800 
 51 H        8.5620    -2.2050     0.3030 H     1 <1>   0.0800 
 52 H       11.8690     0.1200     0.9410 H     1 <1>   0.0800 
 53 H       10.6850     1.1600     0.2050 H     1 <1>   0.0800 
 54 H        9.0800     0.1240    -1.5510 H     1 <1>   0.0800 
 55 H        9.2610    -1.5610    -1.9400 H     1 <1>   0.0800 
 56 H       10.9850    -3.1920    -2.0740 H     1 <1>   0.0800 
 57 H       12.6230    -2.8200    -2.5470 H     1 <1>   0.0800 
 58 H       11.3140    -1.8270    -3.1330 H     1 <1>   0.0800 
@<TRIPOS>BOND
  1   1   2  2   
  2   2   3  am  
  3   2   4  1   
  4   3   5  1   
  5   3  32  1   
  6   4   6  1   
  7   4  33  1   
  8   4  34  1   
  9   5   7  ar  
 10   5   8  ar  
 11   6   9  1   
 12   7  10  ar  
 13   7  35  1   
 14   8  11  ar  
 15   8  36  1   
 16   9  12  ar  
 17   9  13  ar  
 18  10  14  1   
 19  10  15  ar  
 20  11  15  ar  
 21  11  37  1   
 22  12  16  ar  
 23  12  38  1   
 24  13  17  ar  
 25  13  39  1   
 26  14  18  2   
 27  15  19  1   
 28  16  20  ar  
 29  16  40  1   
 30  17  20  ar  
 31  17  41  1   
 32  18  19  1   
 33  18  21  1   
 34  19  22  1   
 35  20  42  1   
 36  21  23  1   
 37  21  43  1   
 38  21  44  1   
 39  22  45  1   
 40  22  46  1   
 41  22  47  1   
 42  23  24  1   
 43  23  25  1   
 44  24  26  1   
 45  24  48  1   
 46  24  49  1   
 47  25  27  1   
 48  25  50  1   
 49  25  51  1   
 50  26  28  1   
 51  26  52  1   
 52  26  53  1   
 53  27  28  1   
 54  27  54  1   
 55  27  55  1   
 56  28  29  am  
 57  29  30  2   
 58  29  31  1   
 59  31  56  1   
 60  31  57  1   
 61  31  58  1   
@<TRIPOS>SUBSTRUCTURE
  1 ****  10 GROUP 4 **** **** 0

# MOE 2024.06 (io_trps.svl 2023.06)
