@<TRIPOS>MOLECULE
N-(5-Isopropyl-[1,3,4]thiadiazol-2-yl)-2-phenylmethanesulfonyl-acetamide
39 40 1 0 0 
SMALL
USER_CHARGES


@<TRIPOS>ATOM
  1 S        0.1360    -0.1880    -1.6400 S.o2  1 <1>   1.0900 
  2 O       -0.7240    -1.0810    -2.3810 O.2   1 <1>  -0.6500 
  3 O        1.1190     0.5720    -2.3820 O.2   1 <1>  -0.6500 
  4 C       -0.8610     0.9400    -0.6550 C.3   1 <1>   0.0890 
  5 C        1.0330    -1.1600    -0.4570 C.3   1 <1>   0.0060 
  6 C       -1.7720     0.2350     0.3410 C.ar  1 <1>  -0.1440 
  7 C        1.9570    -0.2590     0.3060 C.2   1 <1>   0.5690 
  8 C       -2.8650    -0.4930    -0.1070 C.ar  1 <1>  -0.1500 
  9 C       -1.5160     0.3050     1.7020 C.ar  1 <1>  -0.1500 
 10 O        1.6900    -0.0380     1.4570 O.2   1 <1>  -0.5700 
 11 N        3.0280     0.2920    -0.3390 N.am  1 <1>  -0.4940 
 12 C       -3.6890    -1.1440     0.7940 C.ar  1 <1>  -0.1500 
 13 C       -2.3390    -0.3470     2.6030 C.ar  1 <1>  -0.1500 
 14 C        4.0770     1.0200     0.1820 C.2   1 <1>   0.4420 
 15 C       -3.4270    -1.0720     2.1500 C.ar  1 <1>  -0.1500 
 16 S        5.1490     1.7660    -0.9560 S.3   1 <1>  -0.0800 
 17 N        4.4220     1.2480     1.3950 N.2   1 <1>  -0.3380 
 18 C        6.0470     2.3730     0.3940 C.2   1 <1>   0.1980 
 19 N        5.5450     2.0200     1.5090 N.2   1 <1>  -0.3380 
 20 C        7.2820     3.2220     0.1000 C.3   1 <1>   0.1000 
 21 C        8.4510     2.3360    -0.3480 C.3   1 <1>  -0.2400 
 22 C        7.6990     4.0600     1.3170 C.3   1 <1>  -0.2400 
 23 H       -1.4710     1.5330    -1.3100 H     1 <1>   0.0800 
 24 H       -0.2200     1.6170    -0.1230 H     1 <1>   0.0800 
 25 H        1.6090    -1.9140    -0.9540 H     1 <1>   0.0800 
 26 H        0.3590    -1.6430     0.2240 H     1 <1>   0.0800 
 27 H       -3.0810    -0.5630    -1.1610 H     1 <1>   0.1500 
 28 H       -0.6740     0.8640     2.0790 H     1 <1>   0.1500 
 29 H        2.9870     0.2790    -1.3620 H     1 <1>   0.3700 
 30 H       -4.5340    -1.7080     0.4380 H     1 <1>   0.1500 
 31 H       -2.1320    -0.2890     3.6580 H     1 <1>   0.1500 
 32 H       -4.0670    -1.5780     2.8510 H     1 <1>   0.1500 
 33 H        7.0360     3.8990    -0.7010 H     1 <1>   0.0800 
 34 H        8.7050     1.6360     0.4290 H     1 <1>   0.0800 
 35 H        9.3150     2.9370    -0.5680 H     1 <1>   0.0800 
 36 H        8.1880     1.7840    -1.2320 H     1 <1>   0.0800 
 37 H        7.9640     3.4200     2.1400 H     1 <1>   0.0800 
 38 H        6.8840     4.6910     1.6260 H     1 <1>   0.0800 
 39 H        8.5420     4.6830     1.0760 H     1 <1>   0.0800 
@<TRIPOS>BOND
  1   1   2  2   
  2   1   3  2   
  3   1   4  1   
  4   1   5  1   
  5   4   6  1   
  6   4  23  1   
  7   4  24  1   
  8   5   7  1   
  9   5  25  1   
 10   5  26  1   
 11   6   8  ar  
 12   6   9  ar  
 13   7  10  2   
 14   7  11  am  
 15   8  12  ar  
 16   8  27  1   
 17   9  13  ar  
 18   9  28  1   
 19  11  14  1   
 20  11  29  1   
 21  12  15  ar  
 22  12  30  1   
 23  13  15  ar  
 24  13  31  1   
 25  14  16  1   
 26  14  17  2   
 27  15  32  1   
 28  16  18  1   
 29  17  19  1   
 30  18  19  2   
 31  18  20  1   
 32  20  21  1   
 33  20  22  1   
 34  20  33  1   
 35  21  34  1   
 36  21  35  1   
 37  21  36  1   
 38  22  37  1   
 39  22  38  1   
 40  22  39  1   
@<TRIPOS>SUBSTRUCTURE
  1 ****   7 GROUP 4 **** **** 0

# MOE 2024.06 (io_trps.svl 2023.06)
