@<TRIPOS>MOLECULE
2-Amino-4-(2-ethoxycarbonylmethoxy-phenyl)-7,7-dimethyl-5-oxo-5,6,7,8-tetrahydro
58 60 1 0 0 
SMALL
USER_CHARGES


@<TRIPOS>ATOM
  1 O        0.0290    -0.7320    -1.6290 O.2   1 <1>  -0.5700 
  2 C        0.1830    -1.1740    -0.5190 C.2   1 <1>   0.4950 
  3 C        1.4060    -1.7270    -0.0280 C.2   1 <1>  -0.1240 
  4 C       -1.0050    -1.1700     0.4290 C.3   1 <1>  -0.0990 
  5 C        1.4870    -2.4050     1.1350 C.2   1 <1>  -0.0620 
  6 C        2.6540    -1.5140    -0.8700 C.3   1 <1>   0.3400 
  7 C       -1.0560    -2.4360     1.3140 C.3   1 <1>   0.0000 
  8 O        2.6260    -2.9360     1.5910 O.3   1 <1>  -0.1530 
  9 C        0.2920    -2.6290     2.0500 C.3   1 <1>  -0.0220 
 10 C        3.8310    -2.3560    -0.3750 C.2   1 <1>  -0.1240 
 11 C        3.0200    -0.0220    -0.9050 C.ar  1 <1>  -0.1440 
 12 C       -1.3550    -3.6690     0.4400 C.3   1 <1>  -0.2400 
 13 C       -2.1890    -2.2940     2.3430 C.3   1 <1>  -0.2400 
 14 C        3.7410    -2.9720     0.8440 C.2   1 <1>   0.1770 
 15 C        4.9300    -2.4100    -1.2780 C.2   1 <1>   0.7060 
 16 C        3.3750     0.6930     0.2390 C.ar  1 <1>   0.0830 
 17 C        2.9980     0.6420    -2.1240 C.ar  1 <1>  -0.1500 
 18 N        4.7310    -3.6870     1.4470 N.pl3 1 <1>  -0.9000 
 19 O        4.8780    -1.9960    -2.4270 O.2   1 <1>  -0.5700 
 20 O        6.0860    -2.9750    -0.8870 O.3   1 <1>  -0.4300 
 21 O        3.4130     0.0520     1.4330 O.3   1 <1>  -0.3630 
 22 C        3.6800     2.0470     0.1520 C.ar  1 <1>  -0.1500 
 23 C        3.3150     1.9860    -2.2100 C.ar  1 <1>  -0.1500 
 24 C        7.1650    -3.1570    -1.7850 C.3   1 <1>   0.0400 
 25 C        4.5000     0.2420     2.3350 C.3   1 <1>   0.1810 
 26 C        3.6550     2.6900    -1.0710 C.ar  1 <1>  -0.1500 
 27 C        5.8400    -0.2330     1.7790 C.2   1 <1>   0.6590 
 28 O        6.4710    -1.1130     2.3090 O.2   1 <1>  -0.5700 
 29 O        6.2970     0.4060     0.7090 O.3   1 <1>  -0.4300 
 30 C        7.5140     0.0760     0.0890 C.3   1 <1>   0.1200 
 31 C        7.5010     0.6960    -1.3040 C.3   1 <1>  -0.2400 
 32 H       -1.9100    -1.0830    -0.1450 H     1 <1>   0.0800 
 33 H       -0.9240    -0.2940     1.0460 H     1 <1>   0.0800 
 34 H        2.4110    -1.8450    -1.8660 H     1 <1>   0.0800 
 35 H        0.3720    -1.9320     2.8660 H     1 <1>   0.0800 
 36 H        0.3380    -3.6210     2.4650 H     1 <1>   0.0800 
 37 H       -0.5750    -3.8370    -0.2820 H     1 <1>   0.0800 
 38 H       -2.2810    -3.5410    -0.0920 H     1 <1>   0.0800 
 39 H       -1.4380    -4.5530     1.0480 H     1 <1>   0.0800 
 40 H       -2.0270    -1.4360     2.9720 H     1 <1>   0.0800 
 41 H       -2.2440    -3.1670     2.9700 H     1 <1>   0.0800 
 42 H       -3.1370    -2.1740     1.8480 H     1 <1>   0.0800 
 43 H        2.7300     0.1130    -3.0230 H     1 <1>   0.1500 
 44 H        5.6960    -3.6430     1.0940 H     1 <1>   0.4000 
 45 H        4.6490    -4.0020     2.4170 H     1 <1>   0.4000 
 46 H        3.9330     2.6110     1.0280 H     1 <1>   0.1500 
 47 H        3.2930     2.4810    -3.1650 H     1 <1>   0.1500 
 48 H        7.4590    -2.2000    -2.1780 H     1 <1>   0.0800 
 49 H        7.9820    -3.6060    -1.2500 H     1 <1>   0.0800 
 50 H        6.8450    -3.8030    -2.5850 H     1 <1>   0.0800 
 51 H        4.2750    -0.3290     3.2160 H     1 <1>   0.0800 
 52 H        4.5580     1.2770     2.6050 H     1 <1>   0.0800 
 53 H        3.8960     3.7370    -1.1380 H     1 <1>   0.1500 
 54 H        7.5940    -0.9960     0.0310 H     1 <1>   0.0800 
 55 H        8.3170     0.4670     0.6880 H     1 <1>   0.0800 
 56 H        6.6730     0.3080    -1.8730 H     1 <1>   0.0800 
 57 H        8.4130     0.4580    -1.8190 H     1 <1>   0.0800 
 58 H        7.4130     1.7650    -1.2330 H     1 <1>   0.0800 
@<TRIPOS>BOND
  1   1   2  2   
  2   2   3  1   
  3   2   4  1   
  4   3   5  2   
  5   3   6  1   
  6   4   7  1   
  7   4  32  1   
  8   4  33  1   
  9   5   8  1   
 10   5   9  1   
 11   6  10  1   
 12   6  11  1   
 13   6  34  1   
 14   7   9  1   
 15   7  12  1   
 16   7  13  1   
 17   8  14  1   
 18   9  35  1   
 19   9  36  1   
 20  10  14  2   
 21  10  15  1   
 22  11  16  ar  
 23  11  17  ar  
 24  12  37  1   
 25  12  38  1   
 26  12  39  1   
 27  13  40  1   
 28  13  41  1   
 29  13  42  1   
 30  14  18  1   
 31  15  19  2   
 32  15  20  1   
 33  16  21  1   
 34  16  22  ar  
 35  17  23  ar  
 36  17  43  1   
 37  18  44  1   
 38  18  45  1   
 39  20  24  1   
 40  21  25  1   
 41  22  26  ar  
 42  22  46  1   
 43  23  26  ar  
 44  23  47  1   
 45  24  48  1   
 46  24  49  1   
 47  24  50  1   
 48  25  27  1   
 49  25  51  1   
 50  25  52  1   
 51  26  53  1   
 52  27  28  2   
 53  27  29  1   
 54  29  30  1   
 55  30  31  1   
 56  30  54  1   
 57  30  55  1   
 58  31  56  1   
 59  31  57  1   
 60  31  58  1   
@<TRIPOS>SUBSTRUCTURE
  1 ****   6 GROUP 4 **** **** 0

# MOE 2024.06 (io_trps.svl 2023.06)
