@<TRIPOS>MOLECULE
1-(2,5-Dimethoxy-benzenesulfonyl)-piperidine-4-carboxylic acid
40 41 1 0 0 
SMALL
USER_CHARGES


@<TRIPOS>ATOM
  1 S       -0.1400     0.1330     1.4090 S.o2  1 <1>   1.4470 
  2 O       -0.6770     1.3450     1.9940 O.2   1 <1>  -0.6500 
  3 O        0.3150    -0.8950     2.3250 O.2   1 <1>  -0.6500 
  4 N        1.1990     0.5670     0.4650 N.am  1 <1>  -0.8490 
  5 C       -1.2820    -0.6560     0.2390 C.ar  1 <1>  -0.0090 
  6 C        2.3620     0.8740     1.3070 C.3   1 <1>   0.1960 
  7 C        0.9000     1.6830    -0.4430 C.3   1 <1>   0.1960 
  8 C       -2.2640     0.0520    -0.4520 C.ar  1 <1>   0.0820 
  9 C       -1.1770    -2.0210    -0.0070 C.ar  1 <1>  -0.1500 
 10 C        3.6020     1.1550     0.4540 C.3   1 <1>  -0.1600 
 11 C        2.0940     1.9880    -1.3520 C.3   1 <1>  -0.1600 
 12 O       -2.3950     1.3850    -0.2950 O.3   1 <1>  -0.3620 
 13 C       -3.1150    -0.5830    -1.3440 C.ar  1 <1>  -0.1500 
 14 C       -2.0300    -2.6700    -0.8950 C.ar  1 <1>   0.0820 
 15 C        3.3530     2.3090    -0.5310 C.3   1 <1>  -0.1860 
 16 C       -3.4550     1.8180     0.5280 C.3   1 <1>   0.0400 
 17 C       -3.0000    -1.9420    -1.5610 C.ar  1 <1>  -0.1500 
 18 O       -1.9740    -4.0000    -1.1630 O.3   1 <1>  -0.3630 
 19 C        4.5640     2.5950    -1.4140 C.2   1 <1>   0.9060 
 20 C       -1.0040    -4.8250    -0.5550 C.3   1 <1>   0.0400 
 21 O        5.0260     1.6950    -2.1240 O.co2 1 <1>  -0.9000 
 22 O        5.0460     3.7320    -1.3890 O.co2 1 <1>  -0.9000 
 23 H        2.5770     0.0370     1.9500 H     1 <1>   0.0800 
 24 H        2.1470     1.7280     1.9270 H     1 <1>   0.0800 
 25 H        0.6470     2.5630     0.1260 H     1 <1>   0.0800 
 26 H        0.0600     1.4320    -1.0660 H     1 <1>   0.0800 
 27 H       -0.4120    -2.5670     0.5130 H     1 <1>   0.1500 
 28 H        3.8670     0.2660    -0.0930 H     1 <1>   0.0800 
 29 H        4.4320     1.4060     1.0910 H     1 <1>   0.0800 
 30 H        1.8620     2.8250    -1.9870 H     1 <1>   0.0800 
 31 H        2.2850     1.1390    -1.9870 H     1 <1>   0.0800 
 32 H       -3.8600    -0.0120    -1.8700 H     1 <1>   0.1500 
 33 H        3.1690     3.2040     0.0350 H     1 <1>   0.0800 
 34 H       -3.4040     2.8900     0.6050 H     1 <1>   0.0800 
 35 H       -3.3420     1.3790     1.5040 H     1 <1>   0.0800 
 36 H       -4.3900     1.5220     0.0880 H     1 <1>   0.0800 
 37 H       -3.6560    -2.4460    -2.2490 H     1 <1>   0.1500 
 38 H       -1.1460    -5.8280    -0.9160 H     1 <1>   0.0800 
 39 H       -1.1390    -4.7980     0.5110 H     1 <1>   0.0800 
 40 H       -0.0250    -4.4740    -0.8290 H     1 <1>   0.0800 
@<TRIPOS>BOND
  1   1   2  2   
  2   1   3  2   
  3   1   4  am  
  4   1   5  1   
  5   4   6  1   
  6   4   7  1   
  7   5   8  ar  
  8   5   9  ar  
  9   6  10  1   
 10   6  23  1   
 11   6  24  1   
 12   7  11  1   
 13   7  25  1   
 14   7  26  1   
 15   8  12  1   
 16   8  13  ar  
 17   9  14  ar  
 18   9  27  1   
 19  10  15  1   
 20  10  28  1   
 21  10  29  1   
 22  11  15  1   
 23  11  30  1   
 24  11  31  1   
 25  12  16  1   
 26  13  17  ar  
 27  13  32  1   
 28  14  17  ar  
 29  14  18  1   
 30  15  19  1   
 31  15  33  1   
 32  16  34  1   
 33  16  35  1   
 34  16  36  1   
 35  17  37  1   
 36  18  20  1   
 37  19  21  ar  
 38  19  22  ar  
 39  20  38  1   
 40  20  39  1   
 41  20  40  1   
@<TRIPOS>SUBSTRUCTURE
  1 ****   4 GROUP 4 **** **** 0

# MOE 2024.06 (io_trps.svl 2023.06)
