@<TRIPOS>MOLECULE
2-Morpholin-4-yl-6-oxo-3,4,5,6-tetrahydro-pyrimidine-4-carboxylic acid (3,4-dich
41 43 1 0 0 
SMALL
USER_CHARGES


@<TRIPOS>ATOM
  1 CL      -0.5740     0.1420    -1.4990 Cl    1 <1>  -0.1770 
  2 C       -1.9050    -0.7950    -0.8600 C.ar  1 <1>   0.1770 
  3 C       -1.7820    -2.1610    -0.6680 C.ar  1 <1>   0.1770 
  4 C       -3.0840    -0.1440    -0.5480 C.ar  1 <1>  -0.1500 
  5 CL      -0.2950    -2.9950    -1.0590 Cl    1 <1>  -0.1770 
  6 C       -2.8440    -2.8850    -0.1590 C.ar  1 <1>  -0.1500 
  7 C       -4.1650    -0.8560    -0.0380 C.ar  1 <1>   0.1170 
  8 C       -4.0260    -2.2320     0.1550 C.ar  1 <1>  -0.1500 
  9 N       -5.3410    -0.1540     0.2760 N.am  1 <1>  -0.5470 
 10 C       -6.6430    -0.5910     0.3070 C.2   1 <1>   0.5690 
 11 O       -6.9680    -1.7280     0.0570 O.2   1 <1>  -0.5700 
 12 C       -7.7790     0.3870     0.6800 C.3   1 <1>   0.3090 
 13 N       -9.1030    -0.3030     0.7070 N.pl3 1 <1>  -0.8440 
 14 C       -7.8800     1.5630    -0.2890 C.3   1 <1>  -0.0990 
 15 C      -10.2800     0.2320     0.4890 C.cat 1 <1>   1.2000 
 16 C       -9.2090     2.2490    -0.0940 C.2   1 <1>   0.8520 
 17 N      -10.2930     1.5140     0.2130 N.pl3 1 <1>  -0.8600 
 18 N      -11.4060    -0.4770     0.5430 N.pl3 1 <1>  -0.7220 
 19 O       -9.3140     3.4300    -0.2160 O.2   1 <1>  -0.5700 
 20 C      -12.7780     0.0620     0.2300 C.3   1 <1>   0.1680 
 21 C      -11.4760    -1.9340     0.9230 C.3   1 <1>   0.1680 
 22 C      -13.5240    -0.8530    -0.7580 C.3   1 <1>   0.1200 
 23 C      -12.2900    -2.7400    -0.1040 C.3   1 <1>   0.1200 
 24 O      -13.5480    -2.1610    -0.2760 O.3   1 <1>  -0.5600 
 25 H       -3.1480     0.9160    -0.7100 H     1 <1>   0.1500 
 26 H       -2.7430    -3.9460    -0.0110 H     1 <1>   0.1500 
 27 H       -4.8400    -2.8080     0.5560 H     1 <1>   0.1500 
 28 H       -5.1770     0.8330     0.4770 H     1 <1>   0.3700 
 29 H       -7.5780     0.7590     1.6710 H     1 <1>   0.0800 
 30 H       -9.0110    -1.3190     0.7960 H     1 <1>   0.4500 
 31 H       -7.8150     1.2180    -1.3050 H     1 <1>   0.0800 
 32 H       -7.0840     2.2650    -0.1190 H     1 <1>   0.0800 
 33 H      -11.1580     2.0320     0.2560 H     1 <1>   0.4500 
 34 H      -12.7340     1.0490    -0.1960 H     1 <1>   0.0800 
 35 H      -13.3530     0.1220     1.1390 H     1 <1>   0.0800 
 36 H      -11.9560    -2.0260     1.8830 H     1 <1>   0.0800 
 37 H      -10.5000    -2.3770     1.0060 H     1 <1>   0.0800 
 38 H      -13.0550    -0.8480    -1.7270 H     1 <1>   0.0800 
 39 H      -14.5450    -0.5290    -0.8690 H     1 <1>   0.0800 
 40 H      -12.4400    -3.7470     0.2450 H     1 <1>   0.0800 
 41 H      -11.7910    -2.7770    -1.0570 H     1 <1>   0.0800 
@<TRIPOS>BOND
  1   1   2  1   
  2   2   3  ar  
  3   2   4  ar  
  4   3   5  1   
  5   3   6  ar  
  6   4   7  ar  
  7   4  25  1   
  8   6   8  ar  
  9   6  26  1   
 10   7   8  ar  
 11   7   9  1   
 12   8  27  1   
 13   9  10  am  
 14   9  28  1   
 15  10  11  2   
 16  10  12  1   
 17  12  13  1   
 18  12  14  1   
 19  12  29  1   
 20  13  15  ar  
 21  13  30  1   
 22  14  16  1   
 23  14  31  1   
 24  14  32  1   
 25  15  17  ar  
 26  15  18  ar  
 27  16  17  1   
 28  16  19  2   
 29  17  33  1   
 30  18  20  1   
 31  18  21  1   
 32  20  22  1   
 33  20  34  1   
 34  20  35  1   
 35  21  23  1   
 36  21  36  1   
 37  21  37  1   
 38  22  24  1   
 39  22  38  1   
 40  22  39  1   
 41  23  24  1   
 42  23  40  1   
 43  23  41  1   
@<TRIPOS>SUBSTRUCTURE
  1 ****  10 GROUP 4 **** **** 0

# MOE 2024.06 (io_trps.svl 2023.06)
