@<TRIPOS>MOLECULE
3-Dimethylaminomethyl-benzoic acid
26 26 1 0 0 
SMALL
USER_CHARGES


@<TRIPOS>ATOM
  1 O        0.8510    -0.9860    -2.4630 O.co2 1 <1>  -0.9000 
  2 C        1.6820    -1.8500    -2.1410 C.2   1 <1>   0.9790 
  3 O        2.7160    -1.9920    -2.8200 O.co2 1 <1>  -0.9000 
  4 C        1.4560    -2.7220    -0.9970 C.ar  1 <1>  -0.1790 
  5 C        2.4720    -3.5620    -0.5500 C.ar  1 <1>  -0.1500 
  6 C        0.2380    -2.7800    -0.3210 C.ar  1 <1>  -0.1500 
  7 C        2.2790    -4.4640     0.4820 C.ar  1 <1>  -0.1440 
  8 C        0.0400    -3.6530     0.7330 C.ar  1 <1>  -0.1500 
  9 C        1.0560    -4.5030     1.1340 C.ar  1 <1>  -0.1500 
 10 C        3.4050    -5.4070     0.8420 C.3   1 <1>   0.4870 
 11 N        3.7880    -6.1520    -0.3950 N.4   1 <1>  -0.9590 
 12 C        2.6530    -6.9810    -0.9110 C.3   1 <1>   0.2630 
 13 C        5.0370    -6.9450    -0.2180 C.3   1 <1>   0.2630 
 14 H        3.4220    -3.4860    -1.0520 H     1 <1>   0.1500 
 15 H       -0.5550    -2.1230    -0.6420 H     1 <1>   0.1500 
 16 H       -0.9120    -3.6690     1.2350 H     1 <1>   0.1500 
 17 H        0.8780    -5.1840     1.9480 H     1 <1>   0.1500 
 18 H        3.0860    -6.0910     1.6110 H     1 <1>   0.0800 
 19 H        4.2410    -4.8340     1.2070 H     1 <1>   0.0800 
 20 H        3.9470    -5.4140    -1.1030 H     1 <1>   0.4500 
 21 H        2.3820    -7.7390    -0.1940 H     1 <1>   0.0800 
 22 H        2.9290    -7.4580    -1.8370 H     1 <1>   0.0800 
 23 H        1.7910    -6.3570    -1.0960 H     1 <1>   0.0800 
 24 H        4.8920    -7.7130     0.5250 H     1 <1>   0.0800 
 25 H        5.8450    -6.3040     0.0960 H     1 <1>   0.0800 
 26 H        5.3150    -7.4130    -1.1490 H     1 <1>   0.0800 
@<TRIPOS>BOND
  1   1   2  ar  
  2   2   3  ar  
  3   2   4  1   
  4   4   5  ar  
  5   4   6  ar  
  6   5   7  ar  
  7   5  14  1   
  8   6   8  ar  
  9   6  15  1   
 10   7   9  ar  
 11   7  10  1   
 12   8   9  ar  
 13   8  16  1   
 14   9  17  1   
 15  10  11  1   
 16  10  18  1   
 17  10  19  1   
 18  11  12  1   
 19  11  13  1   
 20  11  20  1   
 21  12  21  1   
 22  12  22  1   
 23  12  23  1   
 24  13  24  1   
 25  13  25  1   
 26  13  26  1   
@<TRIPOS>SUBSTRUCTURE
  1 ****   5 GROUP 4 **** **** 0

# MOE 2024.06 (io_trps.svl 2023.06)
