@<TRIPOS>MOLECULE
N-(2-Hydroxy-8-methyl-quinolin-3-ylmethyl)-N-(2-methoxy-ethyl)-acetamide
41 42 1 0 0 
SMALL
USER_CHARGES


@<TRIPOS>ATOM
  1 O        0.8930    -1.7090     1.8840 O.2   1 <1>  -0.5700 
  2 C        1.6840    -1.4740     1.0020 C.2   1 <1>   0.5690 
  3 N        2.1600    -0.2100     0.7700 N.am  1 <1>  -0.6600 
  4 C        2.1370    -2.6410     0.1560 C.3   1 <1>  -0.1790 
  5 C        1.7300     0.9200     1.6450 C.3   1 <1>   0.2780 
  6 C        3.0550     0.1600    -0.3750 C.3   1 <1>   0.1400 
  7 C        0.7510     1.8130     0.9050 C.2   1 <1>  -0.1240 
  8 C        4.4560     0.5300     0.1130 C.3   1 <1>   0.1200 
  9 C        1.2380     3.0550     0.3890 C.2   1 <1>   0.6160 
 10 C       -0.5460     1.4580     0.7320 C.2   1 <1>  -0.1780 
 11 O        5.3100     0.5550    -0.9870 O.3   1 <1>  -0.5600 
 12 O        2.3910     3.4340     0.5060 O.2   1 <1>  -0.5700 
 13 N        0.3610     3.8580    -0.2730 N.am  1 <1>  -0.5470 
 14 C       -1.4560     2.3140     0.0320 C.ar  1 <1>   0.0280 
 15 C        6.5980     0.9870    -0.6880 C.3   1 <1>   0.0400 
 16 C       -0.9800     3.5360    -0.4760 C.ar  1 <1>   0.1170 
 17 C       -2.7950     1.9780    -0.1640 C.ar  1 <1>  -0.1500 
 18 C       -1.8460     4.3930    -1.1640 C.ar  1 <1>  -0.1440 
 19 C       -3.6410     2.8260    -0.8430 C.ar  1 <1>  -0.1500 
 20 C       -3.1670     4.0320    -1.3410 C.ar  1 <1>  -0.1500 
 21 C       -1.3500     5.7220    -1.7210 C.3   1 <1>  -0.0970 
 22 H        3.2090    -2.6910     0.1400 H     1 <1>   0.0800 
 23 H        1.7610    -2.5320    -0.8440 H     1 <1>   0.0800 
 24 H        1.7560    -3.5570     0.5680 H     1 <1>   0.0800 
 25 H        2.5900     1.4760     1.9740 H     1 <1>   0.0800 
 26 H        1.2490     0.5430     2.5310 H     1 <1>   0.0800 
 27 H        2.6350     0.9960    -0.9070 H     1 <1>   0.0800 
 28 H        3.1380    -0.6560    -1.0680 H     1 <1>   0.0800 
 29 H        4.8200    -0.2090     0.8060 H     1 <1>   0.0800 
 30 H        4.4470     1.5060     0.5680 H     1 <1>   0.0800 
 31 H       -0.9260     0.5230     1.1100 H     1 <1>   0.1500 
 32 H        0.7440     4.7300    -0.6270 H     1 <1>   0.3700 
 33 H        7.1780     0.9610    -1.5930 H     1 <1>   0.0800 
 34 H        7.0340     0.3290     0.0430 H     1 <1>   0.0800 
 35 H        6.5550     1.9960    -0.3150 H     1 <1>   0.0800 
 36 H       -3.1640     1.0440     0.2210 H     1 <1>   0.1500 
 37 H       -4.6740     2.5590    -0.9900 H     1 <1>   0.1500 
 38 H       -3.8460     4.6790    -1.8680 H     1 <1>   0.1500 
 39 H       -0.5640     5.5510    -2.4350 H     1 <1>   0.0800 
 40 H       -0.9760     6.3390    -0.9240 H     1 <1>   0.0800 
 41 H       -2.1440     6.2530    -2.2140 H     1 <1>   0.0800 
@<TRIPOS>BOND
  1   1   2  2   
  2   2   3  am  
  3   2   4  1   
  4   3   5  1   
  5   3   6  1   
  6   4  22  1   
  7   4  23  1   
  8   4  24  1   
  9   5   7  1   
 10   5  25  1   
 11   5  26  1   
 12   6   8  1   
 13   6  27  1   
 14   6  28  1   
 15   7   9  1   
 16   7  10  2   
 17   8  11  1   
 18   8  29  1   
 19   8  30  1   
 20   9  12  2   
 21   9  13  am  
 22  10  14  1   
 23  10  31  1   
 24  11  15  1   
 25  13  16  1   
 26  13  32  1   
 27  14  16  ar  
 28  14  17  ar  
 29  15  33  1   
 30  15  34  1   
 31  15  35  1   
 32  16  18  ar  
 33  17  19  ar  
 34  17  36  1   
 35  18  20  ar  
 36  18  21  1   
 37  19  20  ar  
 38  19  37  1   
 39  20  38  1   
 40  21  39  1   
 41  21  40  1   
 42  21  41  1   
@<TRIPOS>SUBSTRUCTURE
  1 ****   7 GROUP 4 **** **** 0

# MOE 2024.06 (io_trps.svl 2023.06)
