@<TRIPOS>MOLECULE
3-(3-Chloro-phenyl)-1-(2-cyano-ethyl)-1H-pyrazole-4-carboxylic acid diethylamide
42 43 1 0 0 
SMALL
USER_CHARGES


@<TRIPOS>ATOM
  1 CL      -0.0900    -0.5840     2.3920 Cl    1 <1>  -0.1770 
  2 C       -0.6970    -1.9250     1.4540 C.ar  1 <1>   0.1770 
  3 C        0.1730    -2.9220     1.0630 C.ar  1 <1>  -0.1500 
  4 C       -2.0370    -1.9650     1.1230 C.ar  1 <1>  -0.1500 
  5 C       -0.2840    -4.0040     0.3120 C.ar  1 <1>   0.0540 
  6 C       -2.5110    -3.0340     0.3840 C.ar  1 <1>  -0.1500 
  7 C        0.5980    -5.0710    -0.1180 C.2   1 <1>   0.2350 
  8 C       -1.6410    -4.0370    -0.0100 C.ar  1 <1>  -0.1500 
  9 N        0.2660    -6.3360    -0.0480 N.2   1 <1>  -0.7070 
 10 C        1.8940    -4.9170    -0.6400 C.2   1 <1>  -0.0860 
 11 N        1.3190    -7.0150    -0.5140 N.pl3 1 <1>   0.3140 
 12 C        2.5700    -3.6680    -0.8790 C.2   1 <1>   0.7160 
 13 C        2.3110    -6.1920    -0.8700 C.2   1 <1>  -0.3020 
 14 C        1.3150    -8.4850    -0.6080 C.3   1 <1>   0.0960 
 15 O        2.0470    -2.8380    -1.5990 O.2   1 <1>  -0.5700 
 16 N        3.7930    -3.3860    -0.2990 N.am  1 <1>  -0.6600 
 17 C        0.8640    -9.1090     0.7160 C.3   1 <1>   0.0400 
 18 C        4.5130    -2.1240    -0.6290 C.3   1 <1>   0.1400 
 19 C        4.3350    -4.1590     0.8520 C.3   1 <1>   0.1400 
 20 C        0.9660   -10.5870     0.6320 C.1   1 <1>   0.3570 
 21 C        5.2700    -2.2880    -1.9450 C.3   1 <1>  -0.2400 
 22 C        5.5700    -4.9480     0.4230 C.3   1 <1>  -0.2400 
 23 N        1.0670   -11.7150     0.5380 N.1   1 <1>  -0.5570 
 24 H        1.2060    -2.8520     1.3480 H     1 <1>   0.1500 
 25 H       -2.6930    -1.1740     1.4390 H     1 <1>   0.1500 
 26 H       -3.5530    -3.0870     0.1170 H     1 <1>   0.1500 
 27 H       -2.0120    -4.8700    -0.5830 H     1 <1>   0.1500 
 28 H        3.2480    -6.5260    -1.2760 H     1 <1>   0.1500 
 29 H        2.3070    -8.8170    -0.8570 H     1 <1>   0.0800 
 30 H        0.6450    -8.7700    -1.3990 H     1 <1>   0.0800 
 31 H       -0.1580    -8.8450     0.9230 H     1 <1>   0.0800 
 32 H        1.4870    -8.7650     1.5210 H     1 <1>   0.0800 
 33 H        5.2010    -1.8720     0.1600 H     1 <1>   0.0800 
 34 H        3.8040    -1.3170    -0.7180 H     1 <1>   0.0800 
 35 H        3.5910    -4.8370     1.2340 H     1 <1>   0.0800 
 36 H        4.5920    -3.4820     1.6490 H     1 <1>   0.0800 
 37 H        5.9830    -3.0880    -1.8790 H     1 <1>   0.0800 
 38 H        5.7950    -1.3790    -2.1740 H     1 <1>   0.0800 
 39 H        4.5800    -2.4900    -2.7450 H     1 <1>   0.0800 
 40 H        5.3410    -5.5760    -0.4180 H     1 <1>   0.0800 
 41 H        5.9000    -5.5700     1.2360 H     1 <1>   0.0800 
 42 H        6.3710    -4.2810     0.1650 H     1 <1>   0.0800 
@<TRIPOS>BOND
  1   1   2  1   
  2   2   3  ar  
  3   2   4  ar  
  4   3   5  ar  
  5   3  24  1   
  6   4   6  ar  
  7   4  25  1   
  8   5   7  1   
  9   5   8  ar  
 10   6   8  ar  
 11   6  26  1   
 12   7   9  2   
 13   7  10  1   
 14   8  27  1   
 15   9  11  1   
 16  10  12  1   
 17  10  13  2   
 18  11  13  1   
 19  11  14  1   
 20  12  15  2   
 21  12  16  am  
 22  13  28  1   
 23  14  17  1   
 24  14  29  1   
 25  14  30  1   
 26  16  18  1   
 27  16  19  1   
 28  17  20  1   
 29  17  31  1   
 30  17  32  1   
 31  18  21  1   
 32  18  33  1   
 33  18  34  1   
 34  19  22  1   
 35  19  35  1   
 36  19  36  1   
 37  20  23  3   
 38  21  37  1   
 39  21  38  1   
 40  21  39  1   
 41  22  40  1   
 42  22  41  1   
 43  22  42  1   
@<TRIPOS>SUBSTRUCTURE
  1 ****   7 GROUP 4 **** **** 0

# MOE 2024.06 (io_trps.svl 2023.06)
