@<TRIPOS>MOLECULE
4-(Naphthalene-2-sulfonyl)-piperazine-1-sulfonic acid dimethylamide
46 48 1 0 0 
SMALL
USER_CHARGES


@<TRIPOS>ATOM
  1 S        0.2270    -0.3610     0.9560 S.o2  1 <1>   1.5760 
  2 O       -0.2320     0.2520     2.1810 O.2   1 <1>  -0.6500 
  3 O        1.3190    -1.3090     0.9660 O.2   1 <1>  -0.6500 
  4 N       -1.1010    -1.0790     0.2050 N.am  1 <1>  -0.8490 
  5 N        0.5830     0.8500    -0.1710 N.am  1 <1>  -0.8490 
  6 C       -2.2770    -0.1950     0.2150 C.3   1 <1>   0.1960 
  7 C       -1.4380    -2.3560     0.8480 C.3   1 <1>   0.1960 
  8 C        1.5050     1.8420     0.3830 C.3   1 <1>   0.1160 
  9 C        1.1200     0.3070    -1.4220 C.3   1 <1>   0.1160 
 10 C       -3.4820    -0.8620    -0.4740 C.3   1 <1>   0.1960 
 11 C       -2.6520    -3.0280     0.1760 C.3   1 <1>   0.1960 
 12 N       -3.8320    -2.1460     0.1650 N.am  1 <1>  -0.8490 
 13 S       -5.1520    -2.9030    -0.5800 S.o2  1 <1>   1.4470 
 14 O       -5.3000    -4.1950     0.0540 O.2   1 <1>  -0.6500 
 15 O       -4.9170    -2.8320    -2.0060 O.2   1 <1>  -0.6500 
 16 C       -6.5480    -1.8400    -0.1190 C.ar  1 <1>  -0.0090 
 17 C       -7.2270    -1.0870    -1.0440 C.ar  1 <1>  -0.1500 
 18 C       -6.9520    -1.7530     1.2250 C.ar  1 <1>  -0.1500 
 19 C       -8.2970    -0.2400    -0.6920 C.ar  1 <1>   0.0000 
 20 C       -7.9870    -0.9430     1.6030 C.ar  1 <1>  -0.1500 
 21 C       -8.6850    -0.1640     0.6610 C.ar  1 <1>   0.0000 
 22 C       -8.9920     0.5360    -1.6420 C.ar  1 <1>  -0.1500 
 23 C       -9.7530     0.6850     1.0140 C.ar  1 <1>  -0.1500 
 24 C      -10.0250     1.3530    -1.2710 C.ar  1 <1>  -0.1500 
 25 C      -10.4100     1.4280     0.0720 C.ar  1 <1>  -0.1500 
 26 H       -2.0430     0.7200    -0.3000 H     1 <1>   0.0800 
 27 H       -2.5500     0.0540     1.2280 H     1 <1>   0.0800 
 28 H       -1.6560    -2.1970     1.8920 H     1 <1>   0.0800 
 29 H       -0.5950    -3.0240     0.7840 H     1 <1>   0.0800 
 30 H        1.0750     2.2930     1.2620 H     1 <1>   0.0800 
 31 H        1.6910     2.6190    -0.3380 H     1 <1>   0.0800 
 32 H        2.4390     1.3780     0.6530 H     1 <1>   0.0800 
 33 H        0.4250    -0.3980    -1.8460 H     1 <1>   0.0800 
 34 H        2.0560    -0.1960    -1.2460 H     1 <1>   0.0800 
 35 H        1.2730     1.0990    -2.1330 H     1 <1>   0.0800 
 36 H       -3.2410    -1.0150    -1.5130 H     1 <1>   0.0800 
 37 H       -4.3230    -0.1910    -0.4220 H     1 <1>   0.0800 
 38 H       -2.8830    -3.9320     0.7140 H     1 <1>   0.0800 
 39 H       -2.3880    -3.3010    -0.8320 H     1 <1>   0.0800 
 40 H       -6.9450    -1.1340    -2.0820 H     1 <1>   0.1500 
 41 H       -6.4240    -2.3430     1.9550 H     1 <1>   0.1500 
 42 H       -8.2870    -0.8880     2.6350 H     1 <1>   0.1500 
 43 H       -8.6950     0.4740    -2.6730 H     1 <1>   0.1500 
 44 H      -10.0470     0.7380     2.0470 H     1 <1>   0.1500 
 45 H      -10.5530     1.9430    -2.0000 H     1 <1>   0.1500 
 46 H      -11.2250     2.0750     0.3470 H     1 <1>   0.1500 
@<TRIPOS>BOND
  1   1   2  2   
  2   1   3  2   
  3   1   4  am  
  4   1   5  am  
  5   4   6  1   
  6   4   7  1   
  7   5   8  1   
  8   5   9  1   
  9   6  10  1   
 10   6  26  1   
 11   6  27  1   
 12   7  11  1   
 13   7  28  1   
 14   7  29  1   
 15   8  30  1   
 16   8  31  1   
 17   8  32  1   
 18   9  33  1   
 19   9  34  1   
 20   9  35  1   
 21  10  12  1   
 22  10  36  1   
 23  10  37  1   
 24  11  12  1   
 25  11  38  1   
 26  11  39  1   
 27  12  13  am  
 28  13  14  2   
 29  13  15  2   
 30  13  16  1   
 31  16  17  ar  
 32  16  18  ar  
 33  17  19  ar  
 34  17  40  1   
 35  18  20  ar  
 36  18  41  1   
 37  19  21  ar  
 38  19  22  ar  
 39  20  21  ar  
 40  20  42  1   
 41  21  23  ar  
 42  22  24  ar  
 43  22  43  1   
 44  23  25  ar  
 45  23  44  1   
 46  24  25  ar  
 47  24  45  1   
 48  25  46  1   
@<TRIPOS>SUBSTRUCTURE
  1 ****  10 GROUP 4 **** **** 0

# MOE 2024.06 (io_trps.svl 2023.06)
