@<TRIPOS>MOLECULE
3-Methyl-5,6-dihydro-imidazo[2,1-b]thiazole-2-carboxylic acid
20 21 1 0 0 
SMALL
USER_CHARGES


@<TRIPOS>ATOM
  1 S       -0.0340    -0.2570     0.0780 S.3   1 <1>  -0.2320 
  2 C       -1.5280     0.5860     0.0280 C.cat 1 <1>   0.8400 
  3 C        0.8720     1.2960     0.0910 C.2   1 <1>  -0.1490 
  4 N       -2.7650     0.1730    -0.0040 N.pl3 1 <1>  -0.7940 
  5 N       -1.3590     1.8810     0.0220 N.pl3 1 <1>  -0.6850 
  6 C       -0.0270     2.3100     0.0560 C.2   1 <1>   0.2030 
  7 C        2.3130     1.2730     0.1320 C.2   1 <1>   1.0500 
  8 C       -3.6680     1.3510    -0.0400 C.3   1 <1>   0.3300 
  9 C       -2.6780     2.5520    -0.0220 C.3   1 <1>   0.3300 
 10 C        0.2180     3.8090     0.0500 C.3   1 <1>  -0.1020 
 11 O        2.9490     2.3380     0.1410 O.co2 1 <1>  -0.9000 
 12 O        2.9350     0.2000     0.1590 O.co2 1 <1>  -0.9000 
 13 H       -3.0650    -0.8050    -0.0040 H     1 <1>   0.4500 
 14 H       -4.3110     1.3690     0.8240 H     1 <1>   0.0800 
 15 H       -4.2600     1.3540    -0.9390 H     1 <1>   0.0800 
 16 H       -2.7700     3.1500    -0.9130 H     1 <1>   0.0800 
 17 H       -2.8200     3.1650     0.8520 H     1 <1>   0.0800 
 18 H       -0.2410     4.2590     0.9100 H     1 <1>   0.0800 
 19 H       -0.1910     4.2440    -0.8420 H     1 <1>   0.0800 
 20 H        1.2660     4.0390     0.0780 H     1 <1>   0.0800 
@<TRIPOS>BOND
  1   1   2  1   
  2   1   3  1   
  3   2   4  ar  
  4   2   5  ar  
  5   3   6  2   
  6   3   7  1   
  7   4   8  1   
  8   4  13  1   
  9   5   6  1   
 10   5   9  1   
 11   6  10  1   
 12   7  11  ar  
 13   7  12  ar  
 14   8   9  1   
 15   8  14  1   
 16   8  15  1   
 17   9  16  1   
 18   9  17  1   
 19  10  18  1   
 20  10  19  1   
 21  10  20  1   
@<TRIPOS>SUBSTRUCTURE
  1 ****   6 GROUP 4 **** **** 0

# MOE 2024.06 (io_trps.svl 2023.06)
