@<TRIPOS>MOLECULE
8-(3,5-Dimethyl-piperidin-1-ylmethyl)-7-(2-fluoro-benzyl)-1,3-dimethyl-3,7-dihyd
59 62 1 0 0 
SMALL
USER_CHARGES


@<TRIPOS>ATOM
  1 F        1.0080    -2.6940    -0.0330 F     1 <1>  -0.1900 
  2 C       -0.1020    -2.0310    -0.2100 C.ar  1 <1>   0.1900 
  3 C       -1.2930    -2.5430     0.2850 C.ar  1 <1>  -0.1440 
  4 C       -0.0290    -0.8310    -0.8920 C.ar  1 <1>  -0.1500 
  5 C       -2.4440    -1.7900     0.0890 C.ar  1 <1>  -0.1500 
  6 C       -1.3370    -3.8750     1.0240 C.3   1 <1>   0.4980 
  7 C       -1.1890    -0.1030    -1.0850 C.ar  1 <1>  -0.1500 
  8 C       -2.3920    -0.5830    -0.5930 C.ar  1 <1>  -0.1500 
  9 N       -1.9990    -4.8980     0.1600 N.pl3 1 <1>  -0.7640 
 10 C       -3.3520    -5.2440     0.2030 C.2   1 <1>   0.2770 
 11 C       -1.4230    -5.6500    -0.7720 C.cat 1 <1>   0.6560 
 12 C       -4.4850    -4.8400     0.9860 C.2   1 <1>   0.7030 
 13 C       -3.5290    -6.1980    -0.7420 C.2   1 <1>   0.4260 
 14 N       -2.3330    -6.4430    -1.3380 N.pl3 1 <1>  -0.7000 
 15 C        0.0710    -5.6480    -1.1460 C.3   1 <1>   0.2540 
 16 O       -4.3810    -4.0020     1.8640 O.2   1 <1>  -0.5700 
 17 N       -5.7130    -5.4320     0.7210 N.am  1 <1>  -0.4200 
 18 N       -4.7460    -6.7970    -1.0120 N.am  1 <1>  -0.4360 
 19 N        0.9480    -6.0300    -0.0120 N.3   1 <1>  -0.8100 
 20 C       -5.8530    -6.3800    -0.2870 C.2   1 <1>   0.6900 
 21 C       -6.9230    -5.0270     1.5030 C.3   1 <1>   0.0600 
 22 C       -4.8760    -7.8320    -2.0810 C.3   1 <1>   0.0600 
 23 C        0.7110    -7.4220     0.4440 C.3   1 <1>   0.1100 
 24 C        2.3730    -5.6960    -0.2650 C.3   1 <1>   0.1100 
 25 O       -6.9480    -6.8400    -0.5380 O.2   1 <1>  -0.5700 
 26 C        1.9070    -7.9750     1.2290 C.3   1 <1>  -0.0800 
 27 C        3.1740    -6.9200    -0.7360 C.3   1 <1>  -0.0800 
 28 C        3.1680    -8.0240     0.3420 C.3   1 <1>  -0.1600 
 29 C        1.5990    -9.3610     1.8100 C.3   1 <1>  -0.2400 
 30 C        4.6110    -6.5320    -1.1050 C.3   1 <1>  -0.2400 
 31 H        0.9170    -0.4730    -1.2590 H     1 <1>   0.1500 
 32 H       -3.3930    -2.1240     0.4680 H     1 <1>   0.1500 
 33 H       -1.8860    -3.7560     1.9430 H     1 <1>   0.0800 
 34 H       -0.3470    -4.2010     1.2900 H     1 <1>   0.0800 
 35 H       -1.1570     0.8360    -1.6130 H     1 <1>   0.1500 
 36 H       -3.2920    -0.0090    -0.7380 H     1 <1>   0.1500 
 37 H       -2.1700    -7.1250    -2.0790 H     1 <1>   0.4500 
 38 H        0.3230    -4.6570    -1.4770 H     1 <1>   0.0800 
 39 H        0.2420    -6.3190    -1.9690 H     1 <1>   0.0800 
 40 H       -6.6480    -4.6210     2.4620 H     1 <1>   0.0800 
 41 H       -7.5610    -5.8780     1.6710 H     1 <1>   0.0800 
 42 H       -7.4750    -4.2840     0.9540 H     1 <1>   0.0800 
 43 H       -4.0500    -8.5190    -2.0390 H     1 <1>   0.0800 
 44 H       -4.9000    -7.3560    -3.0460 H     1 <1>   0.0800 
 45 H       -5.7850    -8.3980    -1.9570 H     1 <1>   0.0800 
 46 H        0.5410    -8.0650    -0.4040 H     1 <1>   0.0800 
 47 H       -0.1670    -7.4450     1.0680 H     1 <1>   0.0800 
 48 H        2.8060    -5.3370     0.6540 H     1 <1>   0.0800 
 49 H        2.4550    -4.8990    -0.9850 H     1 <1>   0.0800 
 50 H        2.0900    -7.3070     2.0550 H     1 <1>   0.0800 
 51 H        2.7010    -7.3000    -1.6250 H     1 <1>   0.0800 
 52 H        3.2440    -8.9770    -0.1530 H     1 <1>   0.0800 
 53 H        4.0280    -7.9260     0.9820 H     1 <1>   0.0800 
 54 H        1.3810   -10.0650     1.0260 H     1 <1>   0.0800 
 55 H        0.7530    -9.3100     2.4730 H     1 <1>   0.0800 
 56 H        2.4430    -9.7230     2.3700 H     1 <1>   0.0800 
 57 H        5.1230    -6.1160    -0.2550 H     1 <1>   0.0800 
 58 H        4.6110    -5.8020    -1.8960 H     1 <1>   0.0800 
 59 H        5.1550    -7.3970    -1.4440 H     1 <1>   0.0800 
@<TRIPOS>BOND
  1   1   2  1   
  2   2   3  ar  
  3   2   4  ar  
  4   3   5  ar  
  5   3   6  1   
  6   4   7  ar  
  7   4  31  1   
  8   5   8  ar  
  9   5  32  1   
 10   6   9  1   
 11   6  33  1   
 12   6  34  1   
 13   7   8  ar  
 14   7  35  1   
 15   8  36  1   
 16   9  10  1   
 17   9  11  ar  
 18  10  12  1   
 19  10  13  2   
 20  11  14  ar  
 21  11  15  1   
 22  12  16  2   
 23  12  17  am  
 24  13  14  1   
 25  13  18  1   
 26  14  37  1   
 27  15  19  1   
 28  15  38  1   
 29  15  39  1   
 30  17  20  am  
 31  17  21  1   
 32  18  20  am  
 33  18  22  1   
 34  19  23  1   
 35  19  24  1   
 36  20  25  2   
 37  21  40  1   
 38  21  41  1   
 39  21  42  1   
 40  22  43  1   
 41  22  44  1   
 42  22  45  1   
 43  23  26  1   
 44  23  46  1   
 45  23  47  1   
 46  24  27  1   
 47  24  48  1   
 48  24  49  1   
 49  26  28  1   
 50  26  29  1   
 51  26  50  1   
 52  27  28  1   
 53  27  30  1   
 54  27  51  1   
 55  28  52  1   
 56  28  53  1   
 57  29  54  1   
 58  29  55  1   
 59  29  56  1   
 60  30  57  1   
 61  30  58  1   
 62  30  59  1   
@<TRIPOS>SUBSTRUCTURE
  1 ****   9 GROUP 4 **** **** 0

# MOE 2024.06 (io_trps.svl 2023.06)
