@<TRIPOS>MOLECULE
N-(3-Chloro-2-morpholin-4-yl-phenyl)-2,4-dimethoxy-benzamide
47 49 1 0 0 
SMALL
USER_CHARGES


@<TRIPOS>ATOM
  1 CL       0.2810     0.1850    -0.4800 Cl    1 <1>  -0.1770 
  2 C        1.2400    -1.2440    -0.1320 C.ar  1 <1>   0.1770 
  3 C        2.6330    -1.1780    -0.0110 C.ar  1 <1>   0.1000 
  4 C        0.5430    -2.4290     0.0130 C.ar  1 <1>  -0.1500 
  5 N        3.3780     0.0190    -0.1470 N.pl3 1 <1>  -0.8380 
  6 C        3.3190    -2.3730     0.2650 C.ar  1 <1>   0.1170 
  7 C        1.2310    -3.5960     0.2820 C.ar  1 <1>  -0.1500 
  8 C        3.1800     1.0430     0.9210 C.3   1 <1>   0.2090 
  9 C        3.4250     0.6450    -1.4990 C.3   1 <1>   0.2090 
 10 N        4.7250    -2.3300     0.3610 N.am  1 <1>  -0.5470 
 11 C        2.6090    -3.5610     0.4030 C.ar  1 <1>  -0.1500 
 12 C        4.2170     2.1710     0.7900 C.3   1 <1>   0.1200 
 13 C        4.4670     1.7760    -1.5250 C.3   1 <1>   0.1200 
 14 C        5.6440    -3.2020     0.8900 C.2   1 <1>   0.5440 
 15 O        4.2330     2.7130    -0.5060 O.3   1 <1>  -0.5600 
 16 O        5.2610    -4.0560     1.6710 O.2   1 <1>  -0.5700 
 17 C        7.0450    -3.1550     0.5130 C.ar  1 <1>   0.0860 
 18 C        7.7350    -1.9860     0.1420 C.ar  1 <1>   0.0830 
 19 C        7.7710    -4.3510     0.5080 C.ar  1 <1>  -0.1500 
 20 O        7.0760    -0.7970     0.1700 O.3   1 <1>  -0.3630 
 21 C        9.0750    -2.0520    -0.2340 C.ar  1 <1>  -0.1500 
 22 C        9.1010    -4.4110     0.1440 C.ar  1 <1>  -0.1500 
 23 C        7.7600     0.4330     0.0320 C.3   1 <1>   0.0400 
 24 C        9.7630    -3.2510    -0.2370 C.ar  1 <1>   0.0830 
 25 O       11.0610    -3.2140    -0.6150 O.3   1 <1>  -0.3620 
 26 C       11.8600    -4.3760    -0.6440 C.3   1 <1>   0.0400 
 27 H       -0.5280    -2.4340    -0.0860 H     1 <1>   0.1500 
 28 H        0.7030    -4.5270     0.3970 H     1 <1>   0.1500 
 29 H        3.2750     0.5760     1.8850 H     1 <1>   0.0800 
 30 H        2.1950     1.4680     0.8500 H     1 <1>   0.0800 
 31 H        2.4630     1.0510    -1.7560 H     1 <1>   0.0800 
 32 H        3.6820    -0.1010    -2.2300 H     1 <1>   0.0800 
 33 H        5.1040    -1.4240     0.0620 H     1 <1>   0.3700 
 34 H        3.1320    -4.4770     0.6050 H     1 <1>   0.1500 
 35 H        5.1960     1.7960     1.0210 H     1 <1>   0.0800 
 36 H        3.9840     2.9660     1.4740 H     1 <1>   0.0800 
 37 H        4.4230     2.2970    -2.4640 H     1 <1>   0.0800 
 38 H        5.4540     1.3710    -1.4010 H     1 <1>   0.0800 
 39 H        7.2710    -5.2600     0.7990 H     1 <1>   0.1500 
 40 H        9.6250    -1.1830    -0.5350 H     1 <1>   0.1500 
 41 H        9.6010    -5.3610     0.1600 H     1 <1>   0.1500 
 42 H        7.0650     1.2330     0.1970 H     1 <1>   0.0800 
 43 H        8.1600     0.5010    -0.9640 H     1 <1>   0.0800 
 44 H        8.5450     0.4810     0.7660 H     1 <1>   0.0800 
 45 H       12.8450    -4.0960    -0.9710 H     1 <1>   0.0800 
 46 H       11.4310    -5.0780    -1.3370 H     1 <1>   0.0800 
 47 H       11.9080    -4.7920     0.3470 H     1 <1>   0.0800 
@<TRIPOS>BOND
  1   1   2  1   
  2   2   3  ar  
  3   2   4  ar  
  4   3   5  1   
  5   3   6  ar  
  6   4   7  ar  
  7   4  27  1   
  8   5   8  1   
  9   5   9  1   
 10   6  10  1   
 11   6  11  ar  
 12   7  11  ar  
 13   7  28  1   
 14   8  12  1   
 15   8  29  1   
 16   8  30  1   
 17   9  13  1   
 18   9  31  1   
 19   9  32  1   
 20  10  14  am  
 21  10  33  1   
 22  11  34  1   
 23  12  15  1   
 24  12  35  1   
 25  12  36  1   
 26  13  15  1   
 27  13  37  1   
 28  13  38  1   
 29  14  16  2   
 30  14  17  1   
 31  17  18  ar  
 32  17  19  ar  
 33  18  20  1   
 34  18  21  ar  
 35  19  22  ar  
 36  19  39  1   
 37  20  23  1   
 38  21  24  ar  
 39  21  40  1   
 40  22  24  ar  
 41  22  41  1   
 42  23  42  1   
 43  23  43  1   
 44  23  44  1   
 45  24  25  1   
 46  25  26  1   
 47  26  45  1   
 48  26  46  1   
 49  26  47  1   
@<TRIPOS>SUBSTRUCTURE
  1 ****  10 GROUP 4 **** **** 0

# MOE 2024.06 (io_trps.svl 2023.06)
