@<TRIPOS>MOLECULE
1,7-Dimethyl-3-(2-methyl-allyl)-8-propyl-1H,8H-imidazo[2,1-f]purine-2,4-dione
45 47 1 0 0 
SMALL
USER_CHARGES


@<TRIPOS>ATOM
  1 O        0.7380    -0.2150    -1.3950 O.2   1 <1>  -0.5750 
  2 C        1.6340     0.5570    -1.1210 C.2   1 <1>   0.6860 
  3 N        1.3940     1.9230    -1.0720 N.am  1 <1>  -0.4260 
  4 N        2.9100     0.0650    -0.8620 N.am  1 <1>  -0.4420 
  5 C        2.4240     2.8340    -0.9010 C.2   1 <1>   0.6990 
  6 C       -0.0040     2.4230    -1.0550 C.3   1 <1>   0.2710 
  7 C        3.9220     0.9750    -0.6290 C.2   1 <1>   0.4200 
  8 C        3.1730    -1.4050    -0.8680 C.3   1 <1>   0.0510 
  9 O        2.2370     4.0370    -0.9950 O.2   1 <1>  -0.5750 
 10 C        3.7250     2.3150    -0.6410 C.2   1 <1>   0.2700 
 11 C       -0.4390     2.6360     0.3900 C.2   1 <1>  -0.2840 
 12 N        5.2390     0.7160    -0.3690 N.pl3 1 <1>  -0.7040 
 13 N        4.9740     2.8960    -0.3770 N.pl3 1 <1>  -0.6340 
 14 C       -0.5180     3.8460     0.9510 C.2   1 <1>  -0.3070 
 15 C       -0.7940     1.3640     1.1480 C.3   1 <1>  -0.1100 
 16 C        5.8420     1.9040    -0.2210 C.cat 1 <1>   1.0690 
 17 C        5.6660     4.0760    -0.2120 C.2   1 <1>   0.2210 
 18 N        7.0770     2.3680     0.0390 N.pl3 1 <1>  -0.5720 
 19 C        6.9540     3.7530     0.0420 C.2   1 <1>   0.1570 
 20 C        8.3590     1.6480     0.2850 C.3   1 <1>   0.1600 
 21 C        8.1300     4.6770     0.3000 C.3   1 <1>  -0.1100 
 22 C        8.2220     0.1220     0.2430 C.3   1 <1>  -0.1680 
 23 C        9.5700    -0.5520     0.5100 C.3   1 <1>  -0.2480 
 24 H       -0.6700     1.7340    -1.5480 H     1 <1>   0.0710 
 25 H       -0.0570     3.3550    -1.5920 H     1 <1>   0.0710 
 26 H        2.2720    -1.9490    -0.6360 H     1 <1>   0.0710 
 27 H        3.9130    -1.6590    -0.1310 H     1 <1>   0.0710 
 28 H        3.5150    -1.7080    -1.8420 H     1 <1>   0.0710 
 29 H        5.7070    -0.1840    -0.3000 H     1 <1>   0.4440 
 30 H       -0.8300     4.0250     1.9660 H     1 <1>   0.1420 
 31 H       -0.2770     4.7650     0.4430 H     1 <1>   0.1420 
 32 H        0.0660     0.7290     1.2530 H     1 <1>   0.0710 
 33 H       -1.5620     0.8220     0.6240 H     1 <1>   0.0710 
 34 H       -1.1600     1.6000     2.1320 H     1 <1>   0.0710 
 35 H        5.1910     5.0430    -0.2890 H     1 <1>   0.1420 
 36 H        8.7390     1.9390     1.2510 H     1 <1>   0.0710 
 37 H        9.0770     1.9570    -0.4580 H     1 <1>   0.0710 
 38 H        8.8950     4.5240    -0.4410 H     1 <1>   0.0710 
 39 H        8.5460     4.4900     1.2740 H     1 <1>   0.0710 
 40 H        7.8160     5.7050     0.2560 H     1 <1>   0.0710 
 41 H        7.8810    -0.1890    -0.7290 H     1 <1>   0.0710 
 42 H        7.5300    -0.2050     0.9990 H     1 <1>   0.0710 
 43 H       10.2950    -0.2640    -0.2320 H     1 <1>   0.0710 
 44 H        9.4630    -1.6220     0.4780 H     1 <1>   0.0710 
 45 H        9.9470    -0.2800     1.4820 H     1 <1>   0.0710 
@<TRIPOS>BOND
  1   1   2  2   
  2   2   3  am  
  3   2   4  am  
  4   3   5  am  
  5   3   6  1   
  6   4   7  1   
  7   4   8  1   
  8   5   9  2   
  9   5  10  1   
 10   6  11  1   
 11   6  24  1   
 12   6  25  1   
 13   7  10  2   
 14   7  12  1   
 15   8  26  1   
 16   8  27  1   
 17   8  28  1   
 18  10  13  1   
 19  11  14  2   
 20  11  15  1   
 21  12  16  ar  
 22  12  29  1   
 23  13  16  ar  
 24  13  17  1   
 25  14  30  1   
 26  14  31  1   
 27  15  32  1   
 28  15  33  1   
 29  15  34  1   
 30  16  18  ar  
 31  17  19  2   
 32  17  35  1   
 33  18  19  1   
 34  18  20  1   
 35  19  21  1   
 36  20  22  1   
 37  20  36  1   
 38  20  37  1   
 39  21  38  1   
 40  21  39  1   
 41  21  40  1   
 42  22  23  1   
 43  22  41  1   
 44  22  42  1   
 45  23  43  1   
 46  23  44  1   
 47  23  45  1   
@<TRIPOS>SUBSTRUCTURE
  1 ****  10 GROUP 4 **** **** 0

# MOE 2024.06 (io_trps.svl 2023.06)
