@<TRIPOS>MOLECULE
N-Ethyl-N-(2-hydroxy-6-methoxy-quinolin-3-ylmethyl)-propionamide
41 42 1 0 0 
SMALL
USER_CHARGES


@<TRIPOS>ATOM
  1 O       -2.0000     0.4140     1.5630 O.2   1 <1>  -0.5700 
  2 C       -2.3050    -0.0180     0.4760 C.2   1 <1>   0.5690 
  3 N       -2.4960    -1.3630     0.2670 N.am  1 <1>  -0.6600 
  4 C       -2.4540     1.0060    -0.6440 C.3   1 <1>  -0.0990 
  5 C       -2.9510    -1.9710    -1.0180 C.3   1 <1>   0.2780 
  6 C       -2.2790    -2.3370     1.3710 C.3   1 <1>   0.1400 
  7 C       -3.9150     1.3710    -0.9540 C.3   1 <1>  -0.2400 
  8 C       -4.4440    -2.2820    -1.0260 C.2   1 <1>  -0.1240 
  9 C       -0.8530    -2.8770     1.3030 C.3   1 <1>  -0.2400 
 10 C       -4.9010    -3.0100    -2.1700 C.2   1 <1>   0.6160 
 11 C       -5.3260    -1.9140    -0.0580 C.2   1 <1>  -0.1780 
 12 O       -4.1680    -3.3600    -3.0780 O.2   1 <1>  -0.5700 
 13 N       -6.2220    -3.3260    -2.2520 N.am  1 <1>  -0.5470 
 14 C       -6.7150    -2.2500    -0.1570 C.ar  1 <1>   0.0280 
 15 C       -7.1520    -2.9690    -1.2810 C.ar  1 <1>   0.1170 
 16 C       -7.6500    -1.8920     0.8130 C.ar  1 <1>  -0.1500 
 17 C       -8.4960    -3.3110    -1.4060 C.ar  1 <1>  -0.1500 
 18 C       -8.9810    -2.2320     0.6850 C.ar  1 <1>   0.0820 
 19 C       -9.4070    -2.9490    -0.4360 C.ar  1 <1>  -0.1500 
 20 O       -9.8140    -1.8370     1.6850 O.3   1 <1>  -0.3630 
 21 C      -11.1940    -2.1260     1.6440 C.3   1 <1>   0.0400 
 22 H       -1.9570     0.6570    -1.5290 H     1 <1>   0.0800 
 23 H       -1.9420     1.9000    -0.3370 H     1 <1>   0.0800 
 24 H       -2.4030    -2.8840    -1.1810 H     1 <1>   0.0800 
 25 H       -2.7260    -1.3250    -1.8460 H     1 <1>   0.0800 
 26 H       -2.9870    -3.1450     1.2930 H     1 <1>   0.0800 
 27 H       -2.4360    -1.8550     2.3220 H     1 <1>   0.0800 
 28 H       -4.4520     0.5260    -1.3410 H     1 <1>   0.0800 
 29 H       -3.9510     2.1600    -1.6840 H     1 <1>   0.0800 
 30 H       -4.4060     1.7110    -0.0580 H     1 <1>   0.0800 
 31 H       -0.6830    -3.3940     0.3760 H     1 <1>   0.0800 
 32 H       -0.6890    -3.5640     2.1120 H     1 <1>   0.0800 
 33 H       -0.1510    -2.0680     1.3980 H     1 <1>   0.0800 
 34 H       -5.0250    -1.3580     0.8130 H     1 <1>   0.1500 
 35 H       -6.4980    -3.8450    -3.0840 H     1 <1>   0.3700 
 36 H       -7.3340    -1.3400     1.6790 H     1 <1>   0.1500 
 37 H       -8.8220    -3.8620    -2.2690 H     1 <1>   0.1500 
 38 H      -10.4360    -3.2260    -0.5600 H     1 <1>   0.1500 
 39 H      -11.6470    -1.7160     2.5290 H     1 <1>   0.0800 
 40 H      -11.3270    -3.1930     1.6260 H     1 <1>   0.0800 
 41 H      -11.6210    -1.6670     0.7700 H     1 <1>   0.0800 
@<TRIPOS>BOND
  1   1   2  2   
  2   2   3  am  
  3   2   4  1   
  4   3   5  1   
  5   3   6  1   
  6   4   7  1   
  7   4  22  1   
  8   4  23  1   
  9   5   8  1   
 10   5  24  1   
 11   5  25  1   
 12   6   9  1   
 13   6  26  1   
 14   6  27  1   
 15   7  28  1   
 16   7  29  1   
 17   7  30  1   
 18   8  10  1   
 19   8  11  2   
 20   9  31  1   
 21   9  32  1   
 22   9  33  1   
 23  10  12  2   
 24  10  13  am  
 25  11  14  1   
 26  11  34  1   
 27  13  15  1   
 28  13  35  1   
 29  14  15  ar  
 30  14  16  ar  
 31  15  17  ar  
 32  16  18  ar  
 33  16  36  1   
 34  17  19  ar  
 35  17  37  1   
 36  18  19  ar  
 37  18  20  1   
 38  19  38  1   
 39  20  21  1   
 40  21  39  1   
 41  21  40  1   
 42  21  41  1   
@<TRIPOS>SUBSTRUCTURE
  1 ****  11 GROUP 4 **** **** 0

# MOE 2024.06 (io_trps.svl 2023.06)
