@<TRIPOS>MOLECULE
4-Benzenesulfonyl-piperazine-1-sulfonic acid dimethylamide
40 41 1 0 0 
SMALL
USER_CHARGES


@<TRIPOS>ATOM
  1 S        0.4290     0.0920    -1.1630 S.o2  1 <1>   1.5760 
  2 O        0.2170    -1.0910    -1.9660 O.2   1 <1>  -0.6500 
  3 O        0.5830     1.3880    -1.7840 O.2   1 <1>  -0.6500 
  4 N        1.7620    -0.1690    -0.1650 N.am  1 <1>  -0.8490 
  5 N       -0.7980     0.1750    -0.0020 N.am  1 <1>  -0.8490 
  6 C        2.0740     1.0160     0.6510 C.3   1 <1>   0.1960 
  7 C        2.9400    -0.5460    -0.9570 C.3   1 <1>   0.1960 
  8 C       -2.0330     0.7220    -0.5650 C.3   1 <1>   0.1160 
  9 C       -1.0610    -1.1230     0.6250 C.3   1 <1>   0.1160 
 10 C        3.3000     0.7760     1.5510 C.3   1 <1>   0.1960 
 11 C        4.1640    -0.7960    -0.0560 C.3   1 <1>   0.1960 
 12 N        4.4850     0.3850     0.7670 N.am  1 <1>  -0.8490 
 13 S        5.8260     0.1310     1.7710 S.o2  1 <1>   1.4470 
 14 O        5.6340    -1.1610     2.3950 O.2   1 <1>  -0.6500 
 15 O        5.9490     1.3100     2.6010 O.2   1 <1>  -0.6500 
 16 C        7.2070     0.0690     0.5960 C.ar  1 <1>  -0.0090 
 17 C        7.9520    -1.0910     0.4160 C.ar  1 <1>  -0.1500 
 18 C        7.5400     1.1810    -0.1700 C.ar  1 <1>  -0.1500 
 19 C        8.9910    -1.1430    -0.4970 C.ar  1 <1>  -0.1500 
 20 C        8.5780     1.1390    -1.0840 C.ar  1 <1>  -0.1500 
 21 C        9.3050    -0.0260    -1.2490 C.ar  1 <1>  -0.1500 
 22 H        1.2280     1.2570     1.2730 H     1 <1>   0.0800 
 23 H        2.2710     1.8650     0.0180 H     1 <1>   0.0800 
 24 H        3.1740     0.2320    -1.6650 H     1 <1>   0.0800 
 25 H        2.7270    -1.4460    -1.5090 H     1 <1>   0.0800 
 26 H       -1.8510     1.7080    -0.9580 H     1 <1>   0.0800 
 27 H       -2.7880     0.7960     0.1980 H     1 <1>   0.0800 
 28 H       -2.3940     0.0920    -1.3620 H     1 <1>   0.0800 
 29 H       -0.1590    -1.5080     1.0690 H     1 <1>   0.0800 
 30 H       -1.4160    -1.8320    -0.1040 H     1 <1>   0.0800 
 31 H       -1.8000    -1.0160     1.4010 H     1 <1>   0.0800 
 32 H        3.0640     0.0080     2.2700 H     1 <1>   0.0800 
 33 H        3.5100     1.6830     2.0920 H     1 <1>   0.0800 
 34 H        5.0070    -1.0420    -0.6800 H     1 <1>   0.0800 
 35 H        3.9570    -1.6450     0.5750 H     1 <1>   0.0800 
 36 H        7.7180    -1.9670     0.9990 H     1 <1>   0.1500 
 37 H        6.9760     2.0910    -0.0450 H     1 <1>   0.1500 
 38 H        9.5570    -2.0500    -0.6200 H     1 <1>   0.1500 
 39 H        8.8210     2.0120    -1.6660 H     1 <1>   0.1500 
 40 H       10.1130    -0.0620    -1.9590 H     1 <1>   0.1500 
@<TRIPOS>BOND
  1   1   2  2   
  2   1   3  2   
  3   1   4  am  
  4   1   5  am  
  5   4   6  1   
  6   4   7  1   
  7   5   8  1   
  8   5   9  1   
  9   6  10  1   
 10   6  22  1   
 11   6  23  1   
 12   7  11  1   
 13   7  24  1   
 14   7  25  1   
 15   8  26  1   
 16   8  27  1   
 17   8  28  1   
 18   9  29  1   
 19   9  30  1   
 20   9  31  1   
 21  10  12  1   
 22  10  32  1   
 23  10  33  1   
 24  11  12  1   
 25  11  34  1   
 26  11  35  1   
 27  12  13  am  
 28  13  14  2   
 29  13  15  2   
 30  13  16  1   
 31  16  17  ar  
 32  16  18  ar  
 33  17  19  ar  
 34  17  36  1   
 35  18  20  ar  
 36  18  37  1   
 37  19  21  ar  
 38  19  38  1   
 39  20  21  ar  
 40  20  39  1   
 41  21  40  1   
@<TRIPOS>SUBSTRUCTURE
  1 ****  11 GROUP 4 **** **** 0

# MOE 2024.06 (io_trps.svl 2023.06)
