@<TRIPOS>MOLECULE
6-Methoxy-indan-5-carbaldehyde
25 26 1 0 0 
SMALL
USER_CHARGES


@<TRIPOS>ATOM
  1 O       -0.3310    -0.1810     0.1560 O.2   1 <1>  -0.5700 
  2 C       -1.3280    -0.8600     0.1270 C.2   1 <1>   0.4240 
  3 C       -1.3500    -2.2990     0.0580 C.ar  1 <1>   0.0860 
  4 C       -2.5600    -3.0140     0.0270 C.ar  1 <1>   0.0820 
  5 C       -0.1540    -3.0230     0.0210 C.ar  1 <1>  -0.1500 
  6 O       -3.7120    -2.3000     0.0640 O.3   1 <1>  -0.3630 
  7 C       -2.5590    -4.4080    -0.0390 C.ar  1 <1>  -0.1500 
  8 C       -0.1700    -4.4000    -0.0450 C.ar  1 <1>  -0.1430 
  9 C       -4.9860    -2.9060     0.0400 C.3   1 <1>   0.0400 
 10 C       -1.3580    -5.0850    -0.0750 C.ar  1 <1>  -0.1430 
 11 C        1.0070    -5.3410    -0.0930 C.3   1 <1>  -0.0160 
 12 C       -1.1300    -6.5740    -0.1460 C.3   1 <1>  -0.0160 
 13 C        0.3720    -6.7200     0.1570 C.3   1 <1>  -0.1600 
 14 H       -2.2720    -0.3480     0.1550 H     1 <1>   0.0600 
 15 H        0.7840    -2.4960     0.0430 H     1 <1>   0.1500 
 16 H       -3.4690    -4.9750    -0.0640 H     1 <1>   0.1500 
 17 H       -5.7280    -2.1290     0.0790 H     1 <1>   0.0800 
 18 H       -5.0850    -3.5480     0.8980 H     1 <1>   0.0800 
 19 H       -5.0910    -3.4640    -0.8740 H     1 <1>   0.0800 
 20 H        1.7380    -5.1000     0.6590 H     1 <1>   0.0800 
 21 H        1.4580    -5.3010    -1.0690 H     1 <1>   0.0800 
 22 H       -1.3520    -6.9240    -1.1390 H     1 <1>   0.0800 
 23 H       -1.7310    -7.1040     0.5720 H     1 <1>   0.0800 
 24 H        0.4920    -6.9720     1.1960 H     1 <1>   0.0800 
 25 H        0.8290    -7.4860    -0.4440 H     1 <1>   0.0800 
@<TRIPOS>BOND
  1   1   2  2   
  2   2   3  1   
  3   2  14  1   
  4   3   4  ar  
  5   3   5  ar  
  6   4   6  1   
  7   4   7  ar  
  8   5   8  ar  
  9   5  15  1   
 10   6   9  1   
 11   7  10  ar  
 12   7  16  1   
 13   8  10  ar  
 14   8  11  1   
 15   9  17  1   
 16   9  18  1   
 17   9  19  1   
 18  10  12  1   
 19  11  13  1   
 20  11  20  1   
 21  11  21  1   
 22  12  13  1   
 23  12  22  1   
 24  12  23  1   
 25  13  24  1   
 26  13  25  1   
@<TRIPOS>SUBSTRUCTURE
  1 ****   4 GROUP 4 **** **** 0

# MOE 2024.06 (io_trps.svl 2023.06)
