@<TRIPOS>MOLECULE
2-[8-(4-Ethyl-phenyl)-1,6,7-trimethyl-2,4-dioxo-1,2,4,8-tetrahydro-imidazo[2,1-f
52 55 1 0 0 
SMALL
USER_CHARGES


@<TRIPOS>ATOM
  1 O        0.8570    -0.0150    -0.8380 O.2   1 <1>  -0.5750 
  2 C        1.8320     0.7060    -0.7640 C.2   1 <1>   0.6860 
  3 N        1.6680     2.0830    -0.7390 N.am  1 <1>  -0.4260 
  4 N        3.1040     0.1520    -0.6970 N.am  1 <1>  -0.4410 
  5 C        2.7570     2.9380    -0.7000 C.2   1 <1>   0.6990 
  6 C        0.3640     2.6130    -0.2260 C.3   1 <1>   0.1940 
  7 C        4.1760     1.0080    -0.5410 C.2   1 <1>   0.4210 
  8 C        3.2870    -1.3300    -0.7020 C.3   1 <1>   0.0520 
  9 O        2.5950     4.1430    -0.8050 O.2   1 <1>  -0.5750 
 10 C        4.0520     2.3590    -0.5440 C.2   1 <1>   0.2710 
 11 C        0.3320     2.5860     1.3050 C.2   1 <1>   0.5640 
 12 N        5.4880     0.6750    -0.3640 N.pl3 1 <1>  -0.7040 
 13 N        5.3470     2.8730    -0.3670 N.pl3 1 <1>  -0.6330 
 14 O        1.3630     2.4620     1.9240 O.2   1 <1>  -0.5750 
 15 N       -0.8360     2.6960     1.9680 N.am  1 <1>  -0.8030 
 16 C        6.1530     1.8280    -0.2560 C.cat 1 <1>   1.0690 
 17 C        6.1330     3.9970    -0.2180 C.2   1 <1>   0.2340 
 18 N        7.4240     2.1880    -0.0580 N.pl3 1 <1>  -0.5550 
 19 C        7.4070     3.5770    -0.0310 C.2   1 <1>   0.1580 
 20 C        5.5190     5.3820    -0.2770 C.3   1 <1>  -0.1090 
 21 C        8.5110     1.3180     0.1020 C.ar  1 <1>   0.3050 
 22 C        8.6870     4.3650     0.1860 C.3   1 <1>  -0.1090 
 23 C        9.2230     0.8790    -1.0040 C.ar  1 <1>  -0.1570 
 24 C        8.8670     0.8690     1.3650 C.ar  1 <1>  -0.1570 
 25 C       10.2710    -0.0100    -0.8500 C.ar  1 <1>  -0.1570 
 26 C        9.9150    -0.0190     1.5190 C.ar  1 <1>  -0.1570 
 27 C       10.6210    -0.4640     0.4120 C.ar  1 <1>  -0.1510 
 28 C       11.7730    -1.4420     0.5810 C.3   1 <1>  -0.0250 
 29 C       11.2710    -2.8850     0.5010 C.3   1 <1>  -0.2470 
 30 H       -0.4500     2.0230    -0.6090 H     1 <1>   0.0720 
 31 H        0.2180     3.6240    -0.5610 H     1 <1>   0.0720 
 32 H        2.4730    -1.8080    -1.2200 H     1 <1>   0.0720 
 33 H        3.3100    -1.6940     0.3110 H     1 <1>   0.0720 
 34 H        4.2020    -1.5950    -1.2010 H     1 <1>   0.0720 
 35 H        5.9100    -0.2480    -0.2880 H     1 <1>   0.4450 
 36 H       -0.8320     2.6660     2.9900 H     1 <1>   0.3640 
 37 H       -1.7550     2.7760     1.5310 H     1 <1>   0.3640 
 38 H        4.7750     5.4860     0.4940 H     1 <1>   0.0720 
 39 H        5.0460     5.5340    -1.2310 H     1 <1>   0.0720 
 40 H        6.2650     6.1410    -0.1380 H     1 <1>   0.0720 
 41 H        9.1240     4.1060     1.1330 H     1 <1>   0.0720 
 42 H        8.4950     5.4230     0.1760 H     1 <1>   0.0720 
 43 H        9.3950     4.1400    -0.5930 H     1 <1>   0.0720 
 44 H        8.9630     1.2290    -1.9860 H     1 <1>   0.1430 
 45 H        8.3300     1.2110     2.2310 H     1 <1>   0.1430 
 46 H       10.8200    -0.3500    -1.7120 H     1 <1>   0.1430 
 47 H       10.1870    -0.3670     2.5020 H     1 <1>   0.1430 
 48 H       12.2520    -1.2810     1.5310 H     1 <1>   0.0720 
 49 H       12.5090    -1.2750    -0.1860 H     1 <1>   0.0720 
 50 H       10.5500    -3.0720     1.2770 H     1 <1>   0.0720 
 51 H       12.0930    -3.5680     0.6210 H     1 <1>   0.0720 
 52 H       10.8090    -3.0660    -0.4530 H     1 <1>   0.0720 
@<TRIPOS>BOND
  1   1   2  2   
  2   2   3  am  
  3   2   4  am  
  4   3   5  am  
  5   3   6  1   
  6   4   7  1   
  7   4   8  1   
  8   5   9  2   
  9   5  10  1   
 10   6  11  1   
 11   6  30  1   
 12   6  31  1   
 13   7  10  2   
 14   7  12  1   
 15   8  32  1   
 16   8  33  1   
 17   8  34  1   
 18  10  13  1   
 19  11  14  2   
 20  11  15  am  
 21  12  16  ar  
 22  12  35  1   
 23  13  16  ar  
 24  13  17  1   
 25  15  36  1   
 26  15  37  1   
 27  16  18  ar  
 28  17  19  2   
 29  17  20  1   
 30  18  19  1   
 31  18  21  1   
 32  19  22  1   
 33  20  38  1   
 34  20  39  1   
 35  20  40  1   
 36  21  23  ar  
 37  21  24  ar  
 38  22  41  1   
 39  22  42  1   
 40  22  43  1   
 41  23  25  ar  
 42  23  44  1   
 43  24  26  ar  
 44  24  45  1   
 45  25  27  ar  
 46  25  46  1   
 47  26  27  ar  
 48  26  47  1   
 49  27  28  1   
 50  28  29  1   
 51  28  48  1   
 52  28  49  1   
 53  29  50  1   
 54  29  51  1   
 55  29  52  1   
@<TRIPOS>SUBSTRUCTURE
  1 ****  16 GROUP 4 **** **** 0

# MOE 2024.06 (io_trps.svl 2023.06)
