@<TRIPOS>MOLECULE
5-(Piperidine-1-carbonyl)-1-(toluene-4-sulfonyl)-pyrrolidin-2-one
46 48 1 0 0 
SMALL
USER_CHARGES


@<TRIPOS>ATOM
  1 S        0.3150     0.7700    -1.5440 S.o2  1 <1>   1.4470 
  2 O        1.6600     0.7070    -2.0720 O.2   1 <1>  -0.6500 
  3 O       -0.7370     1.2660    -2.3980 O.2   1 <1>  -0.6500 
  4 N        0.4240     1.8590    -0.2200 N.am  1 <1>  -0.7300 
  5 C       -0.1320    -0.8180    -0.7890 C.ar  1 <1>  -0.0090 
  6 C       -0.5760     2.0990     0.6280 C.2   1 <1>   0.7450 
  7 C        1.7340     2.2870     0.3030 C.3   1 <1>   0.3370 
  8 C       -1.4610    -1.1890    -0.6250 C.ar  1 <1>  -0.1500 
  9 C        0.8440    -1.6960    -0.3340 C.ar  1 <1>  -0.1500 
 10 O       -1.7120     1.7210     0.5210 O.2   1 <1>  -0.5700 
 11 C       -0.1000     2.9370     1.7850 C.3   1 <1>  -0.0990 
 12 C        2.5470     1.1170     0.9160 C.2   1 <1>   0.5690 
 13 C        1.3330     3.3180     1.3760 C.3   1 <1>  -0.1600 
 14 C       -1.8040    -2.3950    -0.0370 C.ar  1 <1>  -0.1500 
 15 C        0.5090    -2.9030     0.2560 C.ar  1 <1>  -0.1500 
 16 O        2.0340     0.5220     1.8390 O.2   1 <1>  -0.5700 
 17 N        3.7930     0.7550     0.4540 N.am  1 <1>  -0.6600 
 18 C       -0.8190    -3.2600     0.4050 C.ar  1 <1>  -0.1430 
 19 C        4.5040     1.4570    -0.6630 C.3   1 <1>   0.1400 
 20 C        4.4700    -0.4580     1.0140 C.3   1 <1>   0.1400 
 21 C       -1.1910    -4.5800     1.0550 C.3   1 <1>  -0.0970 
 22 C        6.0070     1.1570    -0.6410 C.3   1 <1>  -0.1600 
 23 C        5.2140    -1.2100    -0.0930 C.3   1 <1>  -0.1600 
 24 C        6.3010    -0.3470    -0.7580 C.3   1 <1>  -0.1600 
 25 H        2.2830     2.7710    -0.4820 H     1 <1>   0.0800 
 26 H       -2.2390    -0.5210    -0.9570 H     1 <1>   0.1500 
 27 H        1.8830    -1.4330    -0.4390 H     1 <1>   0.1500 
 28 H       -0.1020     2.3290     2.6720 H     1 <1>   0.0800 
 29 H       -0.7290     3.7970     1.9210 H     1 <1>   0.0800 
 30 H        1.3350     4.2980     0.9330 H     1 <1>   0.0800 
 31 H        2.0090     3.3160     2.2140 H     1 <1>   0.0800 
 32 H       -2.8430    -2.6500     0.0770 H     1 <1>   0.1500 
 33 H        1.2880    -3.5590     0.6010 H     1 <1>   0.1500 
 34 H        4.3690     2.5200    -0.5780 H     1 <1>   0.0800 
 35 H        4.0930     1.1300    -1.6040 H     1 <1>   0.0800 
 36 H        3.7460    -1.1180     1.4620 H     1 <1>   0.0800 
 37 H        5.1610    -0.1530     1.7800 H     1 <1>   0.0800 
 38 H       -1.2910    -4.4450     2.1170 H     1 <1>   0.0800 
 39 H       -0.4330    -5.3190     0.8680 H     1 <1>   0.0800 
 40 H       -2.1240    -4.9430     0.6620 H     1 <1>   0.0800 
 41 H        6.4150     1.5360     0.2800 H     1 <1>   0.0800 
 42 H        6.4920     1.6800    -1.4470 H     1 <1>   0.0800 
 43 H        4.4950    -1.5160    -0.8330 H     1 <1>   0.0800 
 44 H        5.6590    -2.1020     0.3120 H     1 <1>   0.0800 
 45 H        7.2550    -0.5490    -0.3020 H     1 <1>   0.0800 
 46 H        6.3710    -0.6240    -1.7960 H     1 <1>   0.0800 
@<TRIPOS>BOND
  1   1   2  2   
  2   1   3  2   
  3   1   4  am  
  4   1   5  1   
  5   4   6  am  
  6   4   7  1   
  7   5   8  ar  
  8   5   9  ar  
  9   6  10  2   
 10   6  11  1   
 11   7  12  1   
 12   7  13  1   
 13   7  25  1   
 14   8  14  ar  
 15   8  26  1   
 16   9  15  ar  
 17   9  27  1   
 18  11  13  1   
 19  11  28  1   
 20  11  29  1   
 21  12  16  2   
 22  12  17  am  
 23  13  30  1   
 24  13  31  1   
 25  14  18  ar  
 26  14  32  1   
 27  15  18  ar  
 28  15  33  1   
 29  17  19  1   
 30  17  20  1   
 31  18  21  1   
 32  19  22  1   
 33  19  34  1   
 34  19  35  1   
 35  20  23  1   
 36  20  36  1   
 37  20  37  1   
 38  21  38  1   
 39  21  39  1   
 40  21  40  1   
 41  22  24  1   
 42  22  41  1   
 43  22  42  1   
 44  23  24  1   
 45  23  43  1   
 46  23  44  1   
 47  24  45  1   
 48  24  46  1   
@<TRIPOS>SUBSTRUCTURE
  1 ****  12 GROUP 4 **** **** 0

# MOE 2024.06 (io_trps.svl 2023.06)
