@<TRIPOS>MOLECULE
3-(3,4-Dimethoxy-phenyl)-2-methyl-5-propyl-4H-pyrazolo[1,5-a]pyrimidin-7-one
45 47 1 0 0 
SMALL
USER_CHARGES


@<TRIPOS>ATOM
  1 O       -0.2390     0.4370    -0.6060 O.2   1 <1>  -0.5700 
  2 C        0.1550     1.5750    -0.3830 C.2   1 <1>   0.5650 
  3 N       -0.7160     2.6970    -0.3220 N.pl3 1 <1>   0.5610 
  4 C        1.5430     1.8260    -0.1710 C.2   1 <1>  -0.1360 
  5 N       -2.0800     2.7800    -0.4790 N.2   1 <1>  -0.7070 
  6 C       -0.2100     3.9440    -0.0730 C.2   1 <1>  -0.0680 
  7 C        2.0340     3.0710     0.0820 C.2   1 <1>  -0.0380 
  8 C       -2.3650     4.0320    -0.3320 C.2   1 <1>   0.1080 
  9 N        1.1620     4.1330     0.1350 N.pl3 1 <1>  -0.5840 
 10 C       -1.2440     4.8290    -0.0690 C.2   1 <1>  -0.0540 
 11 C        3.5000     3.4210     0.3230 C.3   1 <1>  -0.0220 
 12 C       -3.7850     4.5420    -0.4520 C.3   1 <1>  -0.0590 
 13 C       -1.1890     6.2520     0.1500 C.ar  1 <1>   0.0540 
 14 C        4.4620     2.2250     0.2620 C.3   1 <1>  -0.1600 
 15 C       -0.3770     7.0590    -0.6410 C.ar  1 <1>  -0.1500 
 16 C       -1.9310     6.8560     1.1610 C.ar  1 <1>  -0.1500 
 17 C        5.9100     2.6600     0.5130 C.3   1 <1>  -0.2400 
 18 C       -0.3010     8.4250    -0.4370 C.ar  1 <1>   0.0830 
 19 C       -1.8810     8.2240     1.3640 C.ar  1 <1>  -0.1500 
 20 O        0.5460     9.1250    -1.2330 O.3   1 <1>  -0.3620 
 21 C       -1.0830     9.0190     0.5600 C.ar  1 <1>   0.0830 
 22 C        1.6060     9.8050    -0.5940 C.3   1 <1>   0.0400 
 23 O       -1.1070    10.3560     0.7820 O.3   1 <1>  -0.3630 
 24 C       -1.6890    11.1420    -0.2350 C.3   1 <1>   0.0400 
 25 H        2.1680     0.9570    -0.2250 H     1 <1>   0.1500 
 26 H        1.4960     5.0840     0.3450 H     1 <1>   0.4000 
 27 H        3.5830     3.8830     1.2910 H     1 <1>   0.0800 
 28 H        3.8000     4.1460    -0.4140 H     1 <1>   0.0800 
 29 H       -4.3550     3.8820    -1.0800 H     1 <1>   0.0800 
 30 H       -3.7940     5.5250    -0.8850 H     1 <1>   0.0800 
 31 H       -4.2400     4.5750     0.5200 H     1 <1>   0.0800 
 32 H        4.4000     1.7620    -0.7080 H     1 <1>   0.0800 
 33 H        4.1820     1.4980     1.0050 H     1 <1>   0.0800 
 34 H        0.2060     6.6150    -1.4280 H     1 <1>   0.1500 
 35 H       -2.5510     6.2460     1.7930 H     1 <1>   0.1500 
 36 H        6.2260     3.3710    -0.2300 H     1 <1>   0.0800 
 37 H        6.5630     1.8060     0.4660 H     1 <1>   0.0800 
 38 H        6.0070     3.1080     1.4860 H     1 <1>   0.0800 
 39 H       -2.4620     8.6820     2.1440 H     1 <1>   0.1500 
 40 H        2.2830    10.1570    -1.3510 H     1 <1>   0.0800 
 41 H        2.1120     9.1220     0.0650 H     1 <1>   0.0800 
 42 H        1.2160    10.6380    -0.0400 H     1 <1>   0.0800 
 43 H       -1.6990    12.1650     0.0940 H     1 <1>   0.0800 
 44 H       -2.6950    10.7990    -0.4050 H     1 <1>   0.0800 
 45 H       -1.1070    11.0510    -1.1340 H     1 <1>   0.0800 
@<TRIPOS>BOND
  1   1   2  2   
  2   2   3  1   
  3   2   4  1   
  4   3   5  1   
  5   3   6  1   
  6   4   7  2   
  7   4  25  1   
  8   5   8  2   
  9   6   9  1   
 10   6  10  2   
 11   7   9  1   
 12   7  11  1   
 13   8  10  1   
 14   8  12  1   
 15   9  26  1   
 16  10  13  1   
 17  11  14  1   
 18  11  27  1   
 19  11  28  1   
 20  12  29  1   
 21  12  30  1   
 22  12  31  1   
 23  13  15  ar  
 24  13  16  ar  
 25  14  17  1   
 26  14  32  1   
 27  14  33  1   
 28  15  18  ar  
 29  15  34  1   
 30  16  19  ar  
 31  16  35  1   
 32  17  36  1   
 33  17  37  1   
 34  17  38  1   
 35  18  20  1   
 36  18  21  ar  
 37  19  21  ar  
 38  19  39  1   
 39  20  22  1   
 40  21  23  1   
 41  22  40  1   
 42  22  41  1   
 43  22  42  1   
 44  23  24  1   
 45  24  43  1   
 46  24  44  1   
 47  24  45  1   
@<TRIPOS>SUBSTRUCTURE
  1 ****  10 GROUP 4 **** **** 0

# MOE 2024.06 (io_trps.svl 2023.06)
