@<TRIPOS>MOLECULE
1,3-Dimethyl-8-(4-methyl-piperidin-1-ylmethyl)-7-((E)-3-phenyl-allyl)-3,7-dihydr
60 63 1 0 0 
SMALL
USER_CHARGES


@<TRIPOS>ATOM
  1 O        0.6890    -0.6950    -0.0020 O.2   1 <1>  -0.5700 
  2 C        1.4960     0.2090    -0.0780 C.2   1 <1>   0.6900 
  3 N        1.0930     1.5210     0.1440 N.am  1 <1>  -0.4200 
  4 N        2.8200    -0.0710    -0.3780 N.am  1 <1>  -0.4360 
  5 C        2.0070     2.5670     0.1290 C.2   1 <1>   0.7030 
  6 C       -0.3500     1.7920     0.4370 C.3   1 <1>   0.0600 
  7 C        3.7210     0.9770    -0.3830 C.2   1 <1>   0.4260 
  8 C        3.2700    -1.4680    -0.6520 C.3   1 <1>   0.0600 
  9 O        1.6460     3.7120     0.3380 O.2   1 <1>  -0.5700 
 10 C        3.3850     2.2660    -0.1400 C.2   1 <1>   0.2770 
 11 N        5.0490     0.9330    -0.6250 N.pl3 1 <1>  -0.7000 
 12 N        4.5650     3.0180    -0.2330 N.pl3 1 <1>  -0.7640 
 13 C        5.5430     2.1610    -0.5340 C.cat 1 <1>   0.6560 
 14 C        4.5750     4.5000    -0.0610 C.3   1 <1>   0.4920 
 15 C        7.0460     2.3940    -0.7960 C.3   1 <1>   0.2540 
 16 C        5.9430     4.9530     0.3910 C.2   1 <1>  -0.2880 
 17 N        7.7720     1.1060    -0.9830 N.3   1 <1>  -0.8100 
 18 C        6.8140     5.6600    -0.3510 C.2   1 <1>  -0.1780 
 19 C        8.2120     0.5460     0.3100 C.3   1 <1>   0.1100 
 20 C        8.9240     1.2690    -1.8880 C.3   1 <1>   0.1100 
 21 C        8.1480     6.0770     0.0180 C.ar  1 <1>   0.0280 
 22 C        8.8040    -0.8490     0.0960 C.3   1 <1>  -0.1600 
 23 C        9.5500    -0.0970    -2.1800 C.3   1 <1>  -0.1600 
 24 C        8.5920     6.0830     1.3390 C.ar  1 <1>  -0.1500 
 25 C        9.0450     6.4810    -0.9680 C.ar  1 <1>  -0.1500 
 26 C        9.9820    -0.8040    -0.8870 C.3   1 <1>  -0.0800 
 27 C        9.8820     6.4630     1.6610 C.ar  1 <1>  -0.1500 
 28 C       10.3370     6.8620    -0.6520 C.ar  1 <1>  -0.1500 
 29 C       10.5010    -2.2150    -1.1830 C.3   1 <1>  -0.2400 
 30 C       10.7590     6.8520     0.6640 C.ar  1 <1>  -0.1500 
 31 H       -0.6050     2.8160     0.2270 H     1 <1>   0.0800 
 32 H       -0.5520     1.5860     1.4740 H     1 <1>   0.0800 
 33 H       -0.9770     1.1590    -0.1690 H     1 <1>   0.0800 
 34 H        3.9960    -1.4780    -1.4460 H     1 <1>   0.0800 
 35 H        2.4390    -2.0830    -0.9530 H     1 <1>   0.0800 
 36 H        3.7050    -1.8910     0.2370 H     1 <1>   0.0800 
 37 H        5.6680     0.1480    -0.8650 H     1 <1>   0.4500 
 38 H        4.3120     4.9680    -0.9950 H     1 <1>   0.0800 
 39 H        3.8510     4.7970     0.6790 H     1 <1>   0.0800 
 40 H        7.4910     2.9420     0.0140 H     1 <1>   0.0800 
 41 H        7.1270     2.9910    -1.6880 H     1 <1>   0.0800 
 42 H        6.1580     4.6290     1.3950 H     1 <1>   0.1500 
 43 H        6.5410     5.9640    -1.3480 H     1 <1>   0.1500 
 44 H        8.9540     1.1870     0.7570 H     1 <1>   0.0800 
 45 H        7.3780     0.4710     0.9880 H     1 <1>   0.0800 
 46 H        8.6010     1.7060    -2.8180 H     1 <1>   0.0800 
 47 H        9.6580     1.9210    -1.4420 H     1 <1>   0.0800 
 48 H        9.1390    -1.2410     1.0400 H     1 <1>   0.0800 
 49 H        8.0370    -1.5040    -0.2790 H     1 <1>   0.0800 
 50 H        8.8330    -0.7010    -2.7090 H     1 <1>   0.0800 
 51 H       10.4030     0.0350    -2.8210 H     1 <1>   0.0800 
 52 H        7.9290     5.7970     2.1330 H     1 <1>   0.1500 
 53 H        8.7370     6.4980    -1.9970 H     1 <1>   0.1500 
 54 H       10.7800    -0.2350    -0.4380 H     1 <1>   0.0800 
 55 H       10.2070     6.4610     2.6870 H     1 <1>   0.1500 
 56 H       11.0150     7.1700    -1.4290 H     1 <1>   0.1500 
 57 H        9.7340    -2.8160    -1.6380 H     1 <1>   0.0800 
 58 H       10.8190    -2.6930    -0.2740 H     1 <1>   0.0800 
 59 H       11.3420    -2.1690    -1.8530 H     1 <1>   0.0800 
 60 H       11.7630     7.1490     0.9130 H     1 <1>   0.1500 
@<TRIPOS>BOND
  1   1   2  2   
  2   2   3  am  
  3   2   4  am  
  4   3   5  am  
  5   3   6  1   
  6   4   7  1   
  7   4   8  1   
  8   5   9  2   
  9   5  10  1   
 10   6  31  1   
 11   6  32  1   
 12   6  33  1   
 13   7  10  2   
 14   7  11  1   
 15   8  34  1   
 16   8  35  1   
 17   8  36  1   
 18  10  12  1   
 19  11  13  ar  
 20  11  37  1   
 21  12  13  ar  
 22  12  14  1   
 23  13  15  1   
 24  14  16  1   
 25  14  38  1   
 26  14  39  1   
 27  15  17  1   
 28  15  40  1   
 29  15  41  1   
 30  16  18  2   
 31  16  42  1   
 32  17  19  1   
 33  17  20  1   
 34  18  21  1   
 35  18  43  1   
 36  19  22  1   
 37  19  44  1   
 38  19  45  1   
 39  20  23  1   
 40  20  46  1   
 41  20  47  1   
 42  21  24  ar  
 43  21  25  ar  
 44  22  26  1   
 45  22  48  1   
 46  22  49  1   
 47  23  26  1   
 48  23  50  1   
 49  23  51  1   
 50  24  27  ar  
 51  24  52  1   
 52  25  28  ar  
 53  25  53  1   
 54  26  29  1   
 55  26  54  1   
 56  27  30  ar  
 57  27  55  1   
 58  28  30  ar  
 59  28  56  1   
 60  29  57  1   
 61  29  58  1   
 62  29  59  1   
 63  30  60  1   
@<TRIPOS>SUBSTRUCTURE
  1 ****  13 GROUP 4 **** **** 0

# MOE 2024.06 (io_trps.svl 2023.06)
