@<TRIPOS>MOLECULE
5-Oxo-1-p-tolyl-pyrrolidine-3-carboxylic acid [4-(3-methoxy-propylsulfamoyl)-phe
58 60 1 0 0 
SMALL
USER_CHARGES


@<TRIPOS>ATOM
  1 S        0.5210    -0.0540     0.1130 S.o2  1 <1>   1.4470 
  2 O        1.3120     0.1870     1.2970 O.2   1 <1>  -0.6500 
  3 O        1.1570    -0.1240    -1.1830 O.2   1 <1>  -0.6500 
  4 N       -0.5310     1.2510     0.0750 N.am  1 <1>  -0.9140 
  5 C       -0.5760    -1.4770     0.3610 C.ar  1 <1>  -0.0090 
  6 C        0.0410     2.4130    -0.5750 C.3   1 <1>   0.1960 
  7 C       -1.6720    -1.6910    -0.4670 C.ar  1 <1>  -0.1500 
  8 C       -0.3520    -2.3960     1.3790 C.ar  1 <1>  -0.1500 
  9 C       -0.9120     3.5920    -0.4070 C.3   1 <1>  -0.1600 
 10 C       -2.5120    -2.7750    -0.2850 C.ar  1 <1>  -0.1500 
 11 C       -1.1880    -3.4830     1.5630 C.ar  1 <1>  -0.1500 
 12 C       -0.3670     4.8320    -1.1110 C.3   1 <1>   0.1200 
 13 C       -2.2830    -3.6940     0.7340 C.ar  1 <1>   0.1170 
 14 O       -1.2590     5.8700    -0.8820 O.3   1 <1>  -0.5600 
 15 N       -3.1050    -4.8070     0.9710 N.am  1 <1>  -0.5470 
 16 C       -0.8960     7.0720    -1.4810 C.3   1 <1>   0.0400 
 17 C       -3.9890    -5.4600     0.1540 C.2   1 <1>   0.5690 
 18 O       -4.1740    -5.1600    -0.9990 O.2   1 <1>  -0.5700 
 19 C       -4.7480    -6.6450     0.7370 C.3   1 <1>  -0.0190 
 20 C       -5.8350    -7.2080    -0.1910 C.3   1 <1>   0.1400 
 21 C       -5.4910    -6.3350     2.0460 C.3   1 <1>  -0.0990 
 22 N       -6.8650    -7.7430     0.7230 N.am  1 <1>  -0.4770 
 23 C       -6.6810    -7.2520     1.9840 C.2   1 <1>   0.5690 
 24 C       -7.8370    -8.6570     0.2670 C.ar  1 <1>   0.1170 
 25 O       -7.3390    -7.4870     2.9670 O.2   1 <1>  -0.5700 
 26 C       -8.3510    -8.5690    -1.0240 C.ar  1 <1>  -0.1500 
 27 C       -8.3030    -9.6820     1.0840 C.ar  1 <1>  -0.1500 
 28 C       -9.2890    -9.4760    -1.4840 C.ar  1 <1>  -0.1500 
 29 C       -9.2430   -10.5890     0.6280 C.ar  1 <1>  -0.1500 
 30 C       -9.7400   -10.4940    -0.6610 C.ar  1 <1>  -0.1430 
 31 C      -10.7710   -11.4890    -1.1600 C.3   1 <1>  -0.0970 
 32 H       -0.6490     1.4890     1.0580 H     1 <1>   0.4200 
 33 H        0.1840     2.2050    -1.6240 H     1 <1>   0.0800 
 34 H        0.9990     2.6470    -0.1370 H     1 <1>   0.0800 
 35 H       -1.8690    -0.9960    -1.2670 H     1 <1>   0.1500 
 36 H        0.4920    -2.2580     2.0350 H     1 <1>   0.1500 
 37 H       -1.0340     3.8110     0.6380 H     1 <1>   0.0800 
 38 H       -1.8670     3.3410    -0.8340 H     1 <1>   0.0800 
 39 H       -3.3510    -2.8960    -0.9460 H     1 <1>   0.1500 
 40 H       -0.9810    -4.1740     2.3610 H     1 <1>   0.1500 
 41 H       -0.2930     4.6670    -2.1730 H     1 <1>   0.0800 
 42 H        0.5930     5.1090    -0.7100 H     1 <1>   0.0800 
 43 H       -2.9910    -5.2150     1.8960 H     1 <1>   0.3700 
 44 H       -1.6470     7.8040    -1.2430 H     1 <1>   0.0800 
 45 H       -0.8470     6.9370    -2.5480 H     1 <1>   0.0800 
 46 H        0.0560     7.3900    -1.0930 H     1 <1>   0.0800 
 47 H       -4.0430    -7.4360     0.9170 H     1 <1>   0.0800 
 48 H       -5.4450    -7.9810    -0.8300 H     1 <1>   0.0800 
 49 H       -6.2780    -6.4300    -0.7900 H     1 <1>   0.0800 
 50 H       -5.8460    -5.3210     2.0700 H     1 <1>   0.0800 
 51 H       -4.8950    -6.5430     2.9140 H     1 <1>   0.0800 
 52 H       -8.0250    -7.7830    -1.6790 H     1 <1>   0.1500 
 53 H       -7.9300    -9.7730     2.0880 H     1 <1>   0.1500 
 54 H       -9.6710    -9.3840    -2.4850 H     1 <1>   0.1500 
 55 H       -9.5860   -11.3690     1.2850 H     1 <1>   0.1500 
 56 H      -10.6910   -11.6130    -2.2250 H     1 <1>   0.0800 
 57 H      -11.7590   -11.1360    -0.9240 H     1 <1>   0.0800 
 58 H      -10.6240   -12.4470    -0.6950 H     1 <1>   0.0800 
@<TRIPOS>BOND
  1   1   2  2   
  2   1   3  2   
  3   1   4  am  
  4   1   5  1   
  5   4   6  1   
  6   4  32  1   
  7   5   7  ar  
  8   5   8  ar  
  9   6   9  1   
 10   6  33  1   
 11   6  34  1   
 12   7  10  ar  
 13   7  35  1   
 14   8  11  ar  
 15   8  36  1   
 16   9  12  1   
 17   9  37  1   
 18   9  38  1   
 19  10  13  ar  
 20  10  39  1   
 21  11  13  ar  
 22  11  40  1   
 23  12  14  1   
 24  12  41  1   
 25  12  42  1   
 26  13  15  1   
 27  14  16  1   
 28  15  17  am  
 29  15  43  1   
 30  16  44  1   
 31  16  45  1   
 32  16  46  1   
 33  17  18  2   
 34  17  19  1   
 35  19  20  1   
 36  19  21  1   
 37  19  47  1   
 38  20  22  1   
 39  20  48  1   
 40  20  49  1   
 41  21  23  1   
 42  21  50  1   
 43  21  51  1   
 44  22  23  am  
 45  22  24  1   
 46  23  25  2   
 47  24  26  ar  
 48  24  27  ar  
 49  26  28  ar  
 50  26  52  1   
 51  27  29  ar  
 52  27  53  1   
 53  28  30  ar  
 54  28  54  1   
 55  29  30  ar  
 56  29  55  1   
 57  30  31  1   
 58  31  56  1   
 59  31  57  1   
 60  31  58  1   
@<TRIPOS>SUBSTRUCTURE
  1 ****  15 GROUP 4 **** **** 0

# MOE 2024.06 (io_trps.svl 2023.06)
