@<TRIPOS>MOLECULE
NONAME
41 44 1 0 0 
SMALL
USER_CHARGES


@<TRIPOS>ATOM
  1 O        0.6940     0.1270    -0.0190 O.3   1 <1>  -0.5600 
  2 C       -0.0830    -0.6400     0.8690 C.3   1 <1>   0.6240 
  3 C        1.9920     0.4000     0.4130 C.3   1 <1>   0.1200 
  4 O        0.7470    -1.5530     1.5510 O.3   1 <1>  -0.5600 
  5 C       -1.1720    -1.3950     0.1110 C.ar  1 <1>  -0.1440 
  6 C        2.7710    -0.9320     0.4790 C.3   1 <1>   0.0000 
  7 C        1.7810    -2.0750     0.7780 C.3   1 <1>   0.1200 
  8 C       -1.7920    -2.4800     0.7140 C.ar  1 <1>   0.1600 
  9 C       -1.5760    -1.0330    -1.1620 C.ar  1 <1>  -0.1500 
 10 C        3.4880    -1.1970    -0.8530 C.3   1 <1>   0.1200 
 11 C        3.8430    -0.8480     1.5750 C.3   1 <1>   0.1200 
 12 N       -2.7500    -3.2140     0.1680 N.ar  1 <1>  -0.6200 
 13 C       -2.5720    -1.7850    -1.7470 C.ar  1 <1>  -0.1500 
 14 O        4.5150    -0.2670    -1.0180 O.3   1 <1>  -0.5600 
 15 O        4.8210     0.0650     1.1840 O.3   1 <1>  -0.5600 
 16 C       -3.1160    -2.8490    -1.0490 C.ar  1 <1>   0.1600 
 17 C        5.4730    -0.2730    -0.0030 C.3   1 <1>   0.6240 
 18 C        6.5360     0.7660    -0.3050 C.ar  1 <1>  -0.1440 
 19 C        6.1630     2.0850    -0.5160 C.ar  1 <1>   0.1600 
 20 C        7.8760     0.4340    -0.3750 C.ar  1 <1>  -0.1500 
 21 N        6.9990     3.0780    -0.7860 N.ar  1 <1>  -0.6200 
 22 C        8.7590     1.4550    -0.6550 C.ar  1 <1>  -0.1500 
 23 C        8.2750     2.7380    -0.8490 C.ar  1 <1>   0.1600 
 24 H       -0.5220     0.0210     1.5970 H     1 <1>   0.0800 
 25 H        1.9300     0.8690     1.3810 H     1 <1>   0.0800 
 26 H        2.4460     1.0910    -0.2760 H     1 <1>   0.0800 
 27 H        1.3540    -2.4730    -0.1280 H     1 <1>   0.0800 
 28 H        2.2450    -2.8760     1.3260 H     1 <1>   0.0800 
 29 H       -1.4820    -2.7660     1.7050 H     1 <1>   0.1500 
 30 H       -1.1360    -0.1990    -1.6820 H     1 <1>   0.1500 
 31 H        2.8060    -1.0870    -1.6800 H     1 <1>   0.0800 
 32 H        3.9170    -2.1840    -0.8810 H     1 <1>   0.0800 
 33 H        4.3150    -1.8010     1.7400 H     1 <1>   0.0800 
 34 H        3.4180    -0.5070     2.5040 H     1 <1>   0.0800 
 35 H       -2.9250    -1.5500    -2.7350 H     1 <1>   0.1500 
 36 H       -3.8940    -3.4290    -1.5160 H     1 <1>   0.1500 
 37 H        5.9010    -1.2570     0.0850 H     1 <1>   0.0800 
 38 H        5.1170     2.3330    -0.4590 H     1 <1>   0.1500 
 39 H        8.2230    -0.5720    -0.2190 H     1 <1>   0.1500 
 40 H        9.8140     1.2630    -0.7240 H     1 <1>   0.1500 
 41 H        8.9750     3.5260    -1.0670 H     1 <1>   0.1500 
@<TRIPOS>BOND
  1   1   2  1   
  2   1   3  1   
  3   2   4  1   
  4   2   5  1   
  5   2  24  1   
  6   3   6  1   
  7   3  25  1   
  8   3  26  1   
  9   4   7  1   
 10   5   8  ar  
 11   5   9  ar  
 12   6   7  1   
 13   6  10  1   
 14   6  11  1   
 15   7  27  1   
 16   7  28  1   
 17   8  12  ar  
 18   8  29  1   
 19   9  13  ar  
 20   9  30  1   
 21  10  14  1   
 22  10  31  1   
 23  10  32  1   
 24  11  15  1   
 25  11  33  1   
 26  11  34  1   
 27  12  16  ar  
 28  13  16  ar  
 29  13  35  1   
 30  14  17  1   
 31  15  17  1   
 32  16  36  1   
 33  17  18  1   
 34  17  37  1   
 35  18  19  ar  
 36  18  20  ar  
 37  19  21  ar  
 38  19  38  1   
 39  20  22  ar  
 40  20  39  1   
 41  21  23  ar  
 42  22  23  ar  
 43  22  40  1   
 44  23  41  1   
@<TRIPOS>SUBSTRUCTURE
  1 ****   6 GROUP 4 **** **** 0

# MOE 2024.06 (io_trps.svl 2023.06)
