@<TRIPOS>MOLECULE
3,4,6,7-Tetrahydro-imidazo[4,5-c]pyridine-5,6-dicarboxylic acid 5-tert-butyl est
35 36 1 0 0 
SMALL
USER_CHARGES


@<TRIPOS>ATOM
  1 O       -1.7870    -0.9040    -1.4300 O.2   1 <1>  -0.5700 
  2 C       -2.5250    -0.8850    -0.4630 C.2   1 <1>   0.7800 
  3 O       -2.9260    -2.0260     0.1080 O.3   1 <1>  -0.4300 
  4 N       -2.9980     0.2750     0.0710 N.am  1 <1>  -0.6600 
  5 C       -2.5600    -3.3400    -0.2470 C.3   1 <1>   0.2800 
  6 C       -2.4490     1.6420    -0.3320 C.3   1 <1>   0.1140 
  7 C       -3.9880     0.2990     1.1970 C.3   1 <1>   0.3210 
  8 C       -3.2920    -4.2380     0.7510 C.3   1 <1>  -0.2400 
  9 C       -3.0460    -3.6610    -1.6660 C.3   1 <1>  -0.2400 
 10 C       -1.0480    -3.5320    -0.0850 C.3   1 <1>  -0.2400 
 11 C       -1.5970     2.3780     0.7290 C.2   1 <1>   0.9060 
 12 C       -3.6040     2.5500    -0.8200 C.3   1 <1>   0.0200 
 13 C       -5.0180     1.3940     0.9460 C.2   1 <1>   0.0460 
 14 O       -1.0410     3.4340     0.3890 O.co2 1 <1>  -0.9000 
 15 O       -1.4650     1.9290     1.8780 O.co2 1 <1>  -0.9000 
 16 C       -4.8370     2.3880     0.0560 C.2   1 <1>  -0.3320 
 17 N       -6.2120     1.5070     1.5660 N.2   1 <1>  -0.5650 
 18 N       -5.9280     3.1640     0.1130 N.pl3 1 <1>   0.0330 
 19 C       -6.7180     2.5790     1.0420 C.2   1 <1>   0.0360 
 20 H       -1.7810     1.5110    -1.1610 H     1 <1>   0.0800 
 21 H       -3.4780     0.4910     2.1240 H     1 <1>   0.0800 
 22 H       -4.5000    -0.6420     1.2740 H     1 <1>   0.0800 
 23 H       -4.3540    -4.0930     0.6710 H     1 <1>   0.0800 
 24 H       -2.9820    -4.0050     1.7540 H     1 <1>   0.0800 
 25 H       -3.0720    -5.2720     0.5580 H     1 <1>   0.0800 
 26 H       -2.5000    -3.0970    -2.3980 H     1 <1>   0.0800 
 27 H       -4.0940    -3.4400    -1.7590 H     1 <1>   0.0800 
 28 H       -2.8950    -4.7030    -1.8790 H     1 <1>   0.0800 
 29 H       -0.5050    -2.9680    -0.8220 H     1 <1>   0.0800 
 30 H       -0.7920    -4.5670    -0.2130 H     1 <1>   0.0800 
 31 H       -0.7370    -3.2180     0.8950 H     1 <1>   0.0800 
 32 H       -3.8510     2.2760    -1.8280 H     1 <1>   0.0800 
 33 H       -3.2810     3.5770    -0.8280 H     1 <1>   0.0800 
 34 H       -6.1100     4.0190    -0.4180 H     1 <1>   0.2700 
 35 H       -7.6770     2.9840     1.3100 H     1 <1>   0.1500 
@<TRIPOS>BOND
  1   1   2  2   
  2   2   3  1   
  3   2   4  am  
  4   3   5  1   
  5   4   6  1   
  6   4   7  1   
  7   5   8  1   
  8   5   9  1   
  9   5  10  1   
 10   6  11  1   
 11   6  12  1   
 12   6  20  1   
 13   7  13  1   
 14   7  21  1   
 15   7  22  1   
 16   8  23  1   
 17   8  24  1   
 18   8  25  1   
 19   9  26  1   
 20   9  27  1   
 21   9  28  1   
 22  10  29  1   
 23  10  30  1   
 24  10  31  1   
 25  11  14  ar  
 26  11  15  ar  
 27  12  16  1   
 28  12  32  1   
 29  12  33  1   
 30  13  16  2   
 31  13  17  1   
 32  16  18  1   
 33  17  19  2   
 34  18  19  1   
 35  18  34  1   
 36  19  35  1   
@<TRIPOS>SUBSTRUCTURE
  1 ****   4 GROUP 4 **** **** 0

# MOE 2024.06 (io_trps.svl 2023.06)
