@<TRIPOS>MOLECULE
1-(4-Ethoxy-3-methyl-benzenesulfonyl)-piperidine-4-carboxylic acid (pyridin-2-yl
56 58 1 0 0 
SMALL
USER_CHARGES


@<TRIPOS>ATOM
  1 S        0.0010     0.4270    -2.7550 S.o2  1 <1>   1.4470 
  2 O        0.5590    -0.3990    -3.8040 O.2   1 <1>  -0.6500 
  3 O       -0.8380     1.5530    -3.1090 O.2   1 <1>  -0.6500 
  4 N        1.3060     1.0600    -1.8750 N.am  1 <1>  -0.8490 
  5 C       -0.8320    -0.6320    -1.5400 C.ar  1 <1>  -0.0090 
  6 C        0.8630     2.0090    -0.8490 C.3   1 <1>   0.1960 
  7 C        2.3000     1.6660    -2.7630 C.3   1 <1>   0.1960 
  8 C       -2.1350    -0.3760    -1.1280 C.ar  1 <1>  -0.1500 
  9 C       -0.1760    -1.7190    -0.9770 C.ar  1 <1>  -0.1500 
 10 C        2.0460     2.4140     0.0320 C.3   1 <1>  -0.1600 
 11 C        3.5410     2.0720    -1.9630 C.3   1 <1>  -0.1600 
 12 C       -2.7690    -1.1680    -0.1840 C.ar  1 <1>  -0.1430 
 13 C       -0.7920    -2.5230    -0.0350 C.ar  1 <1>  -0.1500 
 14 C        3.1770     3.0260    -0.8120 C.3   1 <1>  -0.0190 
 15 C       -2.0960    -2.2510     0.3710 C.ar  1 <1>   0.0820 
 16 C       -4.1960    -0.8470     0.2360 C.3   1 <1>  -0.0970 
 17 C        4.3900     3.3920     0.0370 C.2   1 <1>   0.5690 
 18 O       -2.7540    -2.9990     1.2930 O.3   1 <1>  -0.3630 
 19 O        4.7320     4.5470     0.1030 O.2   1 <1>  -0.5700 
 20 N        5.0550     2.4170     0.6990 N.am  1 <1>  -0.7300 
 21 C       -2.1750    -4.1410     1.8790 C.3   1 <1>   0.1200 
 22 C        6.2860     2.6070     1.4950 C.3   1 <1>   0.2840 
 23 C       -3.1930    -4.7440     2.8430 C.3   1 <1>  -0.2400 
 24 C        7.2780     1.4930     1.1810 C.ar  1 <1>   0.1670 
 25 N        6.8800     0.2490     1.4280 N.ar  1 <1>  -0.6200 
 26 C        8.5230     1.8160     0.6600 C.ar  1 <1>  -0.1500 
 27 C        7.7610    -0.7010     1.1510 C.ar  1 <1>   0.1600 
 28 C        9.4280     0.8160     0.3760 C.ar  1 <1>  -0.1500 
 29 C        9.0250    -0.4760     0.6340 C.ar  1 <1>  -0.1500 
 30 H        0.1090     1.5530    -0.2280 H     1 <1>   0.0800 
 31 H        0.4330     2.8830    -1.3130 H     1 <1>   0.0800 
 32 H        1.8750     2.5250    -3.2580 H     1 <1>   0.0800 
 33 H        2.5980     0.9580    -3.5190 H     1 <1>   0.0800 
 34 H       -2.6580     0.4620    -1.5580 H     1 <1>   0.1500 
 35 H        0.8340    -1.9350    -1.2840 H     1 <1>   0.1500 
 36 H        2.3970     1.5440     0.5570 H     1 <1>   0.0800 
 37 H        1.7160     3.1300     0.7640 H     1 <1>   0.0800 
 38 H        4.2460     2.5510    -2.6180 H     1 <1>   0.0800 
 39 H        4.0040     1.1800    -1.5780 H     1 <1>   0.0800 
 40 H       -0.2430    -3.3510     0.3700 H     1 <1>   0.1500 
 41 H        2.8070     3.9390    -1.2460 H     1 <1>   0.0800 
 42 H       -4.2300    -0.6550     1.2940 H     1 <1>   0.0800 
 43 H       -4.8350    -1.6850     0.0190 H     1 <1>   0.0800 
 44 H       -4.5740     0.0150    -0.2830 H     1 <1>   0.0800 
 45 H        4.8010     1.4310     0.5930 H     1 <1>   0.3700 
 46 H       -1.2850    -3.8400     2.4050 H     1 <1>   0.0800 
 47 H       -1.9320    -4.8390     1.0970 H     1 <1>   0.0800 
 48 H        6.0370     2.5690     2.5410 H     1 <1>   0.0800 
 49 H        6.7180     3.5690     1.2830 H     1 <1>   0.0800 
 50 H       -3.4420    -4.0330     3.6100 H     1 <1>   0.0800 
 51 H       -2.7800    -5.6210     3.3080 H     1 <1>   0.0800 
 52 H       -4.0840    -5.0250     2.3110 H     1 <1>   0.0800 
 53 H        8.7850     2.8430     0.4750 H     1 <1>   0.1500 
 54 H        7.4590    -1.7150     1.3480 H     1 <1>   0.1500 
 55 H       10.4020     1.0330    -0.0280 H     1 <1>   0.1500 
 56 H        9.6820    -1.3040     0.4370 H     1 <1>   0.1500 
@<TRIPOS>BOND
  1   1   2  2   
  2   1   3  2   
  3   1   4  am  
  4   1   5  1   
  5   4   6  1   
  6   4   7  1   
  7   5   8  ar  
  8   5   9  ar  
  9   6  10  1   
 10   6  30  1   
 11   6  31  1   
 12   7  11  1   
 13   7  32  1   
 14   7  33  1   
 15   8  12  ar  
 16   8  34  1   
 17   9  13  ar  
 18   9  35  1   
 19  10  14  1   
 20  10  36  1   
 21  10  37  1   
 22  11  14  1   
 23  11  38  1   
 24  11  39  1   
 25  12  15  ar  
 26  12  16  1   
 27  13  15  ar  
 28  13  40  1   
 29  14  17  1   
 30  14  41  1   
 31  15  18  1   
 32  16  42  1   
 33  16  43  1   
 34  16  44  1   
 35  17  19  2   
 36  17  20  am  
 37  18  21  1   
 38  20  22  1   
 39  20  45  1   
 40  21  23  1   
 41  21  46  1   
 42  21  47  1   
 43  22  24  1   
 44  22  48  1   
 45  22  49  1   
 46  23  50  1   
 47  23  51  1   
 48  23  52  1   
 49  24  25  ar  
 50  24  26  ar  
 51  25  27  ar  
 52  26  28  ar  
 53  26  53  1   
 54  27  29  ar  
 55  27  54  1   
 56  28  29  ar  
 57  28  55  1   
 58  29  56  1   
@<TRIPOS>SUBSTRUCTURE
  1 ****   4 GROUP 4 **** **** 0

# MOE 2024.06 (io_trps.svl 2023.06)
