@<TRIPOS>MOLECULE
4-{2-[(3-Acetyl-phenyl)-methanesulfonyl-amino]-acetyl}-piperazine-1-carboxylic a
53 54 1 0 0 
SMALL
USER_CHARGES


@<TRIPOS>ATOM
  1 S        0.2690     1.7040    -3.4430 S.o2  1 <1>   1.3330 
  2 O        1.4830     1.1410    -2.9050 O.2   1 <1>  -0.6500 
  3 O        0.2890     2.3740    -4.7200 O.2   1 <1>  -0.6500 
  4 N       -0.2890     2.8780    -2.3000 N.am  1 <1>  -0.6930 
  5 C       -1.0380     0.4960    -3.4580 C.3   1 <1>  -0.1350 
  6 C       -0.8020     2.5620    -1.0390 C.ar  1 <1>   0.1990 
  7 C        0.1380     4.2900    -2.5890 C.3   1 <1>   0.2570 
  8 C       -0.2650     1.5530    -0.2490 C.ar  1 <1>  -0.1500 
  9 C       -1.8810     3.2810    -0.5390 C.ar  1 <1>  -0.1500 
 10 C        0.6030     5.0920    -1.3650 C.2   1 <1>   0.5690 
 11 C       -0.7640     1.2390     1.0150 C.ar  1 <1>   0.0860 
 12 C       -2.4010     2.9980     0.7080 C.ar  1 <1>  -0.1500 
 13 O       -0.0620     6.0560    -1.0570 O.2   1 <1>  -0.5700 
 14 N        1.7160     4.7310    -0.6390 N.am  1 <1>  -0.6600 
 15 C       -0.1560     0.1760     1.7920 C.2   1 <1>   0.4230 
 16 C       -1.8500     1.9890     1.4750 C.ar  1 <1>  -0.1500 
 17 C        2.6040     3.5650    -0.9720 C.3   1 <1>   0.1400 
 18 C        2.0180     5.3850     0.6760 C.3   1 <1>   0.1400 
 19 O        0.6160    -0.6170     1.3220 O.2   1 <1>  -0.5700 
 20 C       -0.4780     0.0210     3.2660 C.3   1 <1>  -0.1790 
 21 C        4.0920     3.8980    -0.7840 C.3   1 <1>   0.1400 
 22 C        3.5120     5.7060     0.8250 C.3   1 <1>   0.1400 
 23 N        4.3270     4.4880     0.5630 N.am  1 <1>  -0.6600 
 24 C        4.9940     3.8370     1.5650 C.2   1 <1>   0.7800 
 25 O        5.0530     4.2680     2.7000 O.2   1 <1>  -0.5700 
 26 O        5.5770     2.6760     1.2670 O.3   1 <1>  -0.4300 
 27 C        6.2410     1.9220     2.2550 C.3   1 <1>   0.1200 
 28 C        6.7400     0.6350     1.6080 C.3   1 <1>  -0.2400 
 29 H       -0.8210    -0.2680    -4.1790 H     1 <1>   0.0800 
 30 H       -1.9680     0.9610    -3.7190 H     1 <1>   0.0800 
 31 H       -1.1370     0.0360    -2.4950 H     1 <1>   0.0800 
 32 H       -0.6870     4.8090    -3.0430 H     1 <1>   0.0800 
 33 H        0.9440     4.2940    -3.3000 H     1 <1>   0.0800 
 34 H        0.5780     0.9920    -0.6080 H     1 <1>   0.1500 
 35 H       -2.3120     4.0710    -1.1280 H     1 <1>   0.1500 
 36 H       -3.2360     3.5680     1.0810 H     1 <1>   0.1500 
 37 H       -2.2800     1.7900     2.4400 H     1 <1>   0.1500 
 38 H        2.4620     3.2570    -1.9900 H     1 <1>   0.0800 
 39 H        2.3510     2.7350    -0.3370 H     1 <1>   0.0800 
 40 H        1.7230     4.7220     1.4700 H     1 <1>   0.0800 
 41 H        1.4550     6.2960     0.7840 H     1 <1>   0.0800 
 42 H       -0.3720     0.9640     3.7700 H     1 <1>   0.0800 
 43 H        0.2010    -0.6820     3.7140 H     1 <1>   0.0800 
 44 H       -1.4790    -0.3470     3.3860 H     1 <1>   0.0800 
 45 H        4.3960     4.6050    -1.5360 H     1 <1>   0.0800 
 46 H        4.6740     3.0040    -0.9220 H     1 <1>   0.0800 
 47 H        3.7000     6.0830     1.8160 H     1 <1>   0.0800 
 48 H        3.7850     6.4750     0.1240 H     1 <1>   0.0800 
 49 H        5.5430     1.7100     3.0480 H     1 <1>   0.0800 
 50 H        7.0590     2.5090     2.6390 H     1 <1>   0.0800 
 51 H        5.9110     0.0740     1.2140 H     1 <1>   0.0800 
 52 H        7.2440     0.0320     2.3420 H     1 <1>   0.0800 
 53 H        7.4320     0.8620     0.8160 H     1 <1>   0.0800 
@<TRIPOS>BOND
  1   1   2  2   
  2   1   3  2   
  3   1   4  am  
  4   1   5  1   
  5   4   6  1   
  6   4   7  1   
  7   5  29  1   
  8   5  30  1   
  9   5  31  1   
 10   6   8  ar  
 11   6   9  ar  
 12   7  10  1   
 13   7  32  1   
 14   7  33  1   
 15   8  11  ar  
 16   8  34  1   
 17   9  12  ar  
 18   9  35  1   
 19  10  13  2   
 20  10  14  am  
 21  11  15  1   
 22  11  16  ar  
 23  12  16  ar  
 24  12  36  1   
 25  14  17  1   
 26  14  18  1   
 27  15  19  2   
 28  15  20  1   
 29  16  37  1   
 30  17  21  1   
 31  17  38  1   
 32  17  39  1   
 33  18  22  1   
 34  18  40  1   
 35  18  41  1   
 36  20  42  1   
 37  20  43  1   
 38  20  44  1   
 39  21  23  1   
 40  21  45  1   
 41  21  46  1   
 42  22  23  1   
 43  22  47  1   
 44  22  48  1   
 45  23  24  am  
 46  24  25  2   
 47  24  26  1   
 48  26  27  1   
 49  27  28  1   
 50  27  49  1   
 51  27  50  1   
 52  28  51  1   
 53  28  52  1   
 54  28  53  1   
@<TRIPOS>SUBSTRUCTURE
  1 ****  17 GROUP 4 **** **** 0

# MOE 2024.06 (io_trps.svl 2023.06)
