@<TRIPOS>MOLECULE
N-(1-Methyl-2-pyrrolidin-1-ylmethyl-1H-benzoimidazol-5-yl)-butyramide
47 49 1 0 0 
SMALL
USER_CHARGES


@<TRIPOS>ATOM
  1 O        0.0280     1.0150    -1.2790 O.2   1 <1>  -0.5700 
  2 C        0.4650     1.6900    -0.3810 C.2   1 <1>   0.5690 
  3 N        1.7320     1.5730     0.1160 N.am  1 <1>  -0.5470 
  4 C       -0.4350     2.7460     0.2340 C.3   1 <1>  -0.0990 
  5 C        2.7770     0.7000    -0.2360 C.ar  1 <1>   0.1170 
  6 C       -0.9510     2.3340     1.6220 C.3   1 <1>  -0.1600 
  7 C        4.0820     1.0910    -0.0060 C.ar  1 <1>  -0.1500 
  8 C        2.5340    -0.5660    -0.7990 C.ar  1 <1>  -0.1500 
  9 C       -1.8620     3.4110     2.2200 C.3   1 <1>  -0.2400 
 10 C        5.1300     0.2400    -0.3410 C.ar  1 <1>   0.2270 
 11 C        3.5640    -1.4150    -1.1350 C.ar  1 <1>  -0.1500 
 12 N        6.4710     0.4290    -0.2040 N.2   1 <1>  -0.5650 
 13 C        4.8750    -0.9960    -0.9000 C.ar  1 <1>  -0.1520 
 14 C        7.0000    -0.6560    -0.6700 C.2   1 <1>   0.0060 
 15 N        6.0890    -1.5700    -1.1150 N.pl3 1 <1>   0.0480 
 16 C        8.5070    -0.8800    -0.7260 C.3   1 <1>   0.5230 
 17 C        6.2810    -2.9010    -1.7290 C.3   1 <1>   0.0160 
 18 N        9.1470     0.1570     0.1220 N.4   1 <1>  -0.9590 
 19 C       10.5130     0.5720    -0.2550 C.3   1 <1>   0.3430 
 20 C        9.1550    -0.1640     1.5640 C.3   1 <1>   0.3430 
 21 C       11.0650     1.2430     0.9980 C.3   1 <1>  -0.1600 
 22 C       10.1390     0.8360     2.1510 C.3   1 <1>  -0.1600 
 23 H        1.9730     2.2570     0.8300 H     1 <1>   0.3700 
 24 H       -1.2700     2.9030    -0.4250 H     1 <1>   0.0800 
 25 H        0.1080     3.6710     0.2990 H     1 <1>   0.0800 
 26 H       -0.1220     2.1620     2.2870 H     1 <1>   0.0800 
 27 H       -1.5010     1.4120     1.5350 H     1 <1>   0.0800 
 28 H        4.3150     2.0460     0.4210 H     1 <1>   0.1500 
 29 H        1.5190    -0.8770    -0.9700 H     1 <1>   0.1500 
 30 H       -1.3280     4.3380     2.3360 H     1 <1>   0.0800 
 31 H       -2.2160     3.0980     3.1860 H     1 <1>   0.0800 
 32 H       -2.7140     3.5790     1.5840 H     1 <1>   0.0800 
 33 H        3.3620    -2.3780    -1.5690 H     1 <1>   0.1500 
 34 H        8.8340    -0.7760    -1.7470 H     1 <1>   0.0800 
 35 H        8.7590    -1.8650    -0.3710 H     1 <1>   0.0800 
 36 H        5.7890    -2.9210    -2.6850 H     1 <1>   0.0800 
 37 H        5.8420    -3.6500    -1.0940 H     1 <1>   0.0800 
 38 H        7.3250    -3.1130    -1.8640 H     1 <1>   0.0800 
 39 H        8.4970     0.9600     0.0280 H     1 <1>   0.4500 
 40 H       10.5050     1.2460    -1.0970 H     1 <1>   0.0800 
 41 H       11.1100    -0.2940    -0.4910 H     1 <1>   0.0800 
 42 H        9.5200    -1.1670     1.7180 H     1 <1>   0.0800 
 43 H        8.1710    -0.0640     1.9970 H     1 <1>   0.0800 
 44 H       11.0640     2.3130     0.8730 H     1 <1>   0.0800 
 45 H       12.0770     0.9230     1.1720 H     1 <1>   0.0800 
 46 H       10.6830     0.4020     2.9720 H     1 <1>   0.0800 
 47 H        9.5990     1.6940     2.5150 H     1 <1>   0.0800 
@<TRIPOS>BOND
  1   1   2  2   
  2   2   3  am  
  3   2   4  1   
  4   3   5  1   
  5   3  23  1   
  6   4   6  1   
  7   4  24  1   
  8   4  25  1   
  9   5   7  ar  
 10   5   8  ar  
 11   6   9  1   
 12   6  26  1   
 13   6  27  1   
 14   7  10  ar  
 15   7  28  1   
 16   8  11  ar  
 17   8  29  1   
 18   9  30  1   
 19   9  31  1   
 20   9  32  1   
 21  10  12  1   
 22  10  13  ar  
 23  11  13  ar  
 24  11  33  1   
 25  12  14  2   
 26  13  15  1   
 27  14  15  1   
 28  14  16  1   
 29  15  17  1   
 30  16  18  1   
 31  16  34  1   
 32  16  35  1   
 33  17  36  1   
 34  17  37  1   
 35  17  38  1   
 36  18  19  1   
 37  18  20  1   
 38  18  39  1   
 39  19  21  1   
 40  19  40  1   
 41  19  41  1   
 42  20  22  1   
 43  20  42  1   
 44  20  43  1   
 45  21  22  1   
 46  21  44  1   
 47  21  45  1   
 48  22  46  1   
 49  22  47  1   
@<TRIPOS>SUBSTRUCTURE
  1 ****  10 GROUP 4 **** **** 0

# MOE 2024.06 (io_trps.svl 2023.06)
