@<TRIPOS>MOLECULE
2-Chloro-N-(3-ethoxy-propyl)-acetamide
25 24 1 0 0 
SMALL
USER_CHARGES


@<TRIPOS>ATOM
  1 CL      -0.4690     0.3480     1.0690 Cl    1 <1>  -0.2900 
  2 C       -0.8700    -0.9150    -0.1020 C.3   1 <1>   0.1910 
  3 C       -2.3750    -1.0950    -0.2400 C.2   1 <1>   0.5690 
  4 O       -2.7800    -1.9650    -0.9740 O.2   1 <1>  -0.5700 
  5 N       -3.2250    -0.2900     0.4530 N.am  1 <1>  -0.7300 
  6 C       -4.6990    -0.3390     0.3930 C.3   1 <1>   0.1400 
  7 C       -5.2390     1.0780     0.2160 C.3   1 <1>  -0.1600 
  8 C       -6.7620     1.0670     0.1100 C.3   1 <1>   0.1200 
  9 O       -7.1850     2.3840     0.0000 O.3   1 <1>  -0.5600 
 10 C       -8.5590     2.5290    -0.1260 C.3   1 <1>   0.1200 
 11 C       -8.8540     4.0200    -0.2300 C.3   1 <1>  -0.2400 
 12 H       -0.4200    -1.8280     0.2370 H     1 <1>   0.0800 
 13 H       -0.4460    -0.6290    -1.0460 H     1 <1>   0.0800 
 14 H       -2.8230     0.4250     1.0690 H     1 <1>   0.3700 
 15 H       -5.0760    -0.7710     1.3040 H     1 <1>   0.0800 
 16 H       -5.0090    -0.9580    -0.4330 H     1 <1>   0.0800 
 17 H       -4.8330     1.5050    -0.6840 H     1 <1>   0.0800 
 18 H       -4.9530     1.6800     1.0600 H     1 <1>   0.0800 
 19 H       -7.2040     0.6360     0.9930 H     1 <1>   0.0800 
 20 H       -7.0790     0.5250    -0.7650 H     1 <1>   0.0800 
 21 H       -9.0360     2.1080     0.7430 H     1 <1>   0.0800 
 22 H       -8.8840     2.0140    -1.0140 H     1 <1>   0.0800 
 23 H       -8.5120     4.5260     0.6550 H     1 <1>   0.0800 
 24 H       -9.9120     4.1770    -0.3300 H     1 <1>   0.0800 
 25 H       -8.3600     4.4320    -1.0920 H     1 <1>   0.0800 
@<TRIPOS>BOND
  1   1   2  1   
  2   2   3  1   
  3   2  12  1   
  4   2  13  1   
  5   3   4  2   
  6   3   5  am  
  7   5   6  1   
  8   5  14  1   
  9   6   7  1   
 10   6  15  1   
 11   6  16  1   
 12   7   8  1   
 13   7  17  1   
 14   7  18  1   
 15   8   9  1   
 16   8  19  1   
 17   8  20  1   
 18   9  10  1   
 19  10  11  1   
 20  10  21  1   
 21  10  22  1   
 22  11  23  1   
 23  11  24  1   
 24  11  25  1   
@<TRIPOS>SUBSTRUCTURE
  1 ****   7 GROUP 4 **** **** 0

# MOE 2024.06 (io_trps.svl 2023.06)
