@<TRIPOS>MOLECULE
2-[4-(Azepane-1-sulfonyl)-piperazin-1-yl]-N-(4-fluoro-phenyl)-acetamide
54 56 1 0 0 
SMALL
USER_CHARGES


@<TRIPOS>ATOM
  1 S        0.1940    -0.3830     1.4780 S.o2  1 <1>   1.5760 
  2 O        0.3600    -1.7270     1.9840 O.2   1 <1>  -0.6500 
  3 O        0.4100     0.7580     2.3400 O.2   1 <1>  -0.6500 
  4 N        1.1160    -0.2180     0.0730 N.am  1 <1>  -0.8490 
  5 N       -1.3600    -0.2400     0.8470 N.am  1 <1>  -0.8490 
  6 C        2.5260     0.0110     0.4010 C.3   1 <1>   0.1960 
  7 C        0.9130    -1.3690    -0.8140 C.3   1 <1>   0.1960 
  8 C       -1.6420     1.1090     0.3390 C.3   1 <1>   0.1960 
  9 C       -2.3760    -0.6520     1.8300 C.3   1 <1>   0.1960 
 10 C        3.2190     0.7750    -0.7300 C.3   1 <1>  -0.1600 
 11 C        1.5360    -1.1860    -2.2040 C.3   1 <1>  -0.1600 
 12 C       -3.0190     1.1900    -0.3650 C.3   1 <1>   0.1100 
 13 C       -3.8100    -0.1720     1.4920 C.3   1 <1>   0.1100 
 14 C        3.8430    -0.0980    -1.8310 C.3   1 <1>  -0.1600 
 15 C        3.0610    -1.3630    -2.2100 C.3   1 <1>  -0.1600 
 16 N       -3.9730     0.1340     0.0540 N.3   1 <1>  -0.8100 
 17 C       -5.3840     0.4530    -0.3130 C.3   1 <1>   0.1710 
 18 C       -6.2730    -0.7900    -0.3960 C.2   1 <1>   0.5690 
 19 O       -7.4710    -0.6690    -0.3000 O.2   1 <1>  -0.5700 
 20 N       -5.6200    -1.9770    -0.5670 N.am  1 <1>  -0.5470 
 21 C       -6.0420    -3.3100    -0.6610 C.ar  1 <1>   0.1170 
 22 C       -7.3810    -3.6750    -0.7980 C.ar  1 <1>  -0.1500 
 23 C       -5.0720    -4.3100    -0.6170 C.ar  1 <1>  -0.1500 
 24 C       -7.7480    -5.0080    -0.8850 C.ar  1 <1>  -0.1500 
 25 C       -5.4220    -5.6460    -0.7030 C.ar  1 <1>  -0.1500 
 26 C       -6.7580    -5.9700    -0.8350 C.ar  1 <1>   0.1900 
 27 F       -7.0970    -7.2310    -0.9170 F     1 <1>  -0.1900 
 28 H        3.0290    -0.9160     0.6230 H     1 <1>   0.0800 
 29 H        2.5910     0.6320     1.2790 H     1 <1>   0.0800 
 30 H       -0.1450    -1.5140    -0.9570 H     1 <1>   0.0800 
 31 H        1.2970    -2.2640    -0.3530 H     1 <1>   0.0800 
 32 H       -0.8780     1.4080    -0.3590 H     1 <1>   0.0800 
 33 H       -1.6220     1.8110     1.1560 H     1 <1>   0.0800 
 34 H       -2.1180    -0.2790     2.8070 H     1 <1>   0.0800 
 35 H       -2.3720    -1.7270     1.8880 H     1 <1>   0.0800 
 36 H        4.0060     1.3700    -0.3020 H     1 <1>   0.0800 
 37 H        2.5130     1.4630    -1.1640 H     1 <1>   0.0800 
 38 H        1.2480    -0.2360    -2.6210 H     1 <1>   0.0800 
 39 H        1.1190    -1.9490    -2.8370 H     1 <1>   0.0800 
 40 H       -2.8650     1.1050    -1.4260 H     1 <1>   0.0800 
 41 H       -3.4380     2.1630    -0.1750 H     1 <1>   0.0800 
 42 H       -4.0230     0.7120     2.0690 H     1 <1>   0.0800 
 43 H       -4.5090    -0.9320     1.7960 H     1 <1>   0.0800 
 44 H        4.8300    -0.3970    -1.5230 H     1 <1>   0.0800 
 45 H        3.9600     0.5130    -2.7100 H     1 <1>   0.0800 
 46 H        3.3730    -1.6620    -3.1960 H     1 <1>   0.0800 
 47 H        3.3280    -2.1640    -1.5420 H     1 <1>   0.0800 
 48 H       -5.4030     0.9170    -1.2830 H     1 <1>   0.0800 
 49 H       -5.8060     1.1440     0.3950 H     1 <1>   0.0800 
 50 H       -4.6040    -1.8230    -0.5590 H     1 <1>   0.3700 
 51 H       -8.1450    -2.9210    -0.8400 H     1 <1>   0.1500 
 52 H       -4.0360    -4.0400    -0.5130 H     1 <1>   0.1500 
 53 H       -8.7780    -5.2950    -0.9900 H     1 <1>   0.1500 
 54 H       -4.6800    -6.4230    -0.6690 H     1 <1>   0.1500 
@<TRIPOS>BOND
  1   1   2  2   
  2   1   3  2   
  3   1   4  am  
  4   1   5  am  
  5   4   6  1   
  6   4   7  1   
  7   5   8  1   
  8   5   9  1   
  9   6  10  1   
 10   6  28  1   
 11   6  29  1   
 12   7  11  1   
 13   7  30  1   
 14   7  31  1   
 15   8  12  1   
 16   8  32  1   
 17   8  33  1   
 18   9  13  1   
 19   9  34  1   
 20   9  35  1   
 21  10  14  1   
 22  10  36  1   
 23  10  37  1   
 24  11  15  1   
 25  11  38  1   
 26  11  39  1   
 27  12  16  1   
 28  12  40  1   
 29  12  41  1   
 30  13  16  1   
 31  13  42  1   
 32  13  43  1   
 33  14  15  1   
 34  14  44  1   
 35  14  45  1   
 36  15  46  1   
 37  15  47  1   
 38  16  17  1   
 39  17  18  1   
 40  17  48  1   
 41  17  49  1   
 42  18  19  2   
 43  18  20  am  
 44  20  21  1   
 45  20  50  1   
 46  21  22  ar  
 47  21  23  ar  
 48  22  24  ar  
 49  22  51  1   
 50  23  25  ar  
 51  23  52  1   
 52  24  26  ar  
 53  24  53  1   
 54  25  26  ar  
 55  25  54  1   
 56  26  27  1   
@<TRIPOS>SUBSTRUCTURE
  1 ****   5 GROUP 4 **** **** 0

# MOE 2024.06 (io_trps.svl 2023.06)
