@<TRIPOS>MOLECULE
N-(2-Methoxy-phenyl)-3-(1-methyl-1H-tetrazol-5-ylsulfanyl)-propionamide
35 36 1 0 0 
SMALL
USER_CHARGES


@<TRIPOS>ATOM
  1 S        0.0740     0.0600    -0.5920 S.3   1 <1>  -0.2860 
  2 C       -1.6840    -0.1830    -0.2520 C.2   1 <1>   0.2420 
  3 C        0.9200    -1.4780    -0.0310 C.3   1 <1>   0.0700 
  4 N       -2.4500     0.7880     0.0580 N.2   1 <1>  -0.3380 
  5 N       -2.3510    -1.3280    -0.2890 N.pl3 1 <1>   0.3140 
  6 C        2.4230    -1.2240     0.0570 C.3   1 <1>  -0.0990 
  7 N       -3.6440     0.2290     0.2380 N.2   1 <1>   0.0000 
  8 N       -3.5970    -1.0420     0.0300 N.2   1 <1>  -0.4180 
  9 C       -1.9520    -2.6940    -0.6660 C.3   1 <1>   0.0160 
 10 C        3.0780    -2.5380     0.3980 C.2   1 <1>   0.5690 
 11 O        3.3050    -2.7910     1.5540 O.2   1 <1>  -0.5700 
 12 N        3.3030    -3.4110    -0.6230 N.am  1 <1>  -0.5470 
 13 C        3.2790    -4.8110    -0.5330 C.ar  1 <1>   0.1170 
 14 C        2.1630    -5.5010    -0.0390 C.ar  1 <1>   0.0820 
 15 C        4.3760    -5.5400    -0.9700 C.ar  1 <1>  -0.1500 
 16 O        1.0670    -4.8180     0.3870 O.3   1 <1>  -0.3620 
 17 C        2.1590    -6.8870     0.0000 C.ar  1 <1>  -0.1500 
 18 C        4.3710    -6.9240    -0.9230 C.ar  1 <1>  -0.1500 
 19 C        0.7930    -4.9170     1.7690 C.3   1 <1>   0.0400 
 20 C        3.2630    -7.5980    -0.4390 C.ar  1 <1>  -0.1500 
 21 H        0.7060    -2.2460    -0.7510 H     1 <1>   0.0800 
 22 H        0.5160    -1.7410     0.9320 H     1 <1>   0.0800 
 23 H        2.6320    -0.5060     0.8290 H     1 <1>   0.0800 
 24 H        2.8010    -0.8540    -0.8780 H     1 <1>   0.0800 
 25 H       -1.3680    -2.6620    -1.5670 H     1 <1>   0.0800 
 26 H       -2.8330    -3.2840    -0.8400 H     1 <1>   0.0800 
 27 H       -1.3840    -3.1360     0.1310 H     1 <1>   0.0800 
 28 H        3.2670    -3.0400    -1.5700 H     1 <1>   0.3700 
 29 H        5.2410    -5.0230    -1.3430 H     1 <1>   0.1500 
 30 H        1.2970    -7.4120     0.3670 H     1 <1>   0.1500 
 31 H        5.2300    -7.4770    -1.2620 H     1 <1>   0.1500 
 32 H        0.4720    -5.9170     1.9960 H     1 <1>   0.0800 
 33 H        0.0160    -4.2170     2.0150 H     1 <1>   0.0800 
 34 H        1.6870    -4.6780     2.3200 H     1 <1>   0.0800 
 35 H        3.2600    -8.6740    -0.4060 H     1 <1>   0.1500 
@<TRIPOS>BOND
  1   1   2  1   
  2   1   3  1   
  3   2   4  2   
  4   2   5  1   
  5   3   6  1   
  6   3  21  1   
  7   3  22  1   
  8   4   7  1   
  9   5   8  1   
 10   5   9  1   
 11   6  10  1   
 12   6  23  1   
 13   6  24  1   
 14   7   8  2   
 15   9  25  1   
 16   9  26  1   
 17   9  27  1   
 18  10  11  2   
 19  10  12  am  
 20  12  13  1   
 21  12  28  1   
 22  13  14  ar  
 23  13  15  ar  
 24  14  16  1   
 25  14  17  ar  
 26  15  18  ar  
 27  15  29  1   
 28  16  19  1   
 29  17  20  ar  
 30  17  30  1   
 31  18  20  ar  
 32  18  31  1   
 33  19  32  1   
 34  19  33  1   
 35  19  34  1   
 36  20  35  1   
@<TRIPOS>SUBSTRUCTURE
  1 ****   3 GROUP 4 **** **** 0

# MOE 2024.06 (io_trps.svl 2023.06)
