@<TRIPOS>MOLECULE
5-Ethyl-4-methoxymethyl-furan-2-carboxylic acid
24 24 1 0 0 
SMALL
USER_CHARGES


@<TRIPOS>ATOM
  1 O       -0.4150     0.5300    -0.8460 O.co2 1 <1>  -0.9000 
  2 C       -0.7100     1.7320    -0.6880 C.2   1 <1>   1.0320 
  3 O        0.2110     2.5730    -0.7600 O.co2 1 <1>  -0.9000 
  4 C       -2.0700     2.1760    -0.4160 C.2   1 <1>  -0.0920 
  5 O       -3.1020     1.3430    -0.2920 O.3   1 <1>  -0.2800 
  6 C       -2.5360     3.4410    -0.2410 C.2   1 <1>  -0.1500 
  7 C       -4.1970     2.0290    -0.0400 C.2   1 <1>  -0.0400 
  8 C       -3.9080     3.3530     0.0120 C.2   1 <1>  -0.1810 
  9 C       -5.4590     1.1950     0.1200 C.3   1 <1>   0.0200 
 10 C       -4.7630     4.5740     0.2930 C.3   1 <1>   0.3010 
 11 C       -6.7230     1.9820     0.4790 C.3   1 <1>  -0.2400 
 12 O       -5.4940     4.9100    -0.8470 O.3   1 <1>  -0.5600 
 13 C       -6.2760     6.0490    -0.7050 C.3   1 <1>   0.0400 
 14 H       -1.9450     4.3390    -0.2890 H     1 <1>   0.1500 
 15 H       -5.2760     0.4580     0.8810 H     1 <1>   0.0800 
 16 H       -5.6240     0.6710    -0.8050 H     1 <1>   0.0800 
 17 H       -4.1330     5.4060     0.5550 H     1 <1>   0.0800 
 18 H       -5.4470     4.3780     1.0980 H     1 <1>   0.0800 
 19 H       -6.6010     2.4660     1.4300 H     1 <1>   0.0800 
 20 H       -7.5630     1.3140     0.5400 H     1 <1>   0.0800 
 21 H       -6.9260     2.7180    -0.2780 H     1 <1>   0.0800 
 22 H       -6.7950     6.2140    -1.6330 H     1 <1>   0.0800 
 23 H       -5.6410     6.8920    -0.4920 H     1 <1>   0.0800 
 24 H       -6.9880     5.8960     0.0870 H     1 <1>   0.0800 
@<TRIPOS>BOND
  1   1   2  ar  
  2   2   3  ar  
  3   2   4  1   
  4   4   5  1   
  5   4   6  2   
  6   5   7  1   
  7   6   8  1   
  8   6  14  1   
  9   7   8  2   
 10   7   9  1   
 11   8  10  1   
 12   9  11  1   
 13   9  15  1   
 14   9  16  1   
 15  10  12  1   
 16  10  17  1   
 17  10  18  1   
 18  11  19  1   
 19  11  20  1   
 20  11  21  1   
 21  12  13  1   
 22  13  22  1   
 23  13  23  1   
 24  13  24  1   
@<TRIPOS>SUBSTRUCTURE
  1 ****   8 GROUP 4 **** **** 0

# MOE 2024.06 (io_trps.svl 2023.06)
