@<TRIPOS>MOLECULE
4-(4-Chloro-phenyl)-piperazine-1-sulfonic acid dimethylamide
37 38 1 0 0 
SMALL
USER_CHARGES


@<TRIPOS>ATOM
  1 CL      -0.3230    -0.1760     0.6460 Cl    1 <1>  -0.1770 
  2 C       -2.0490    -0.0450     0.4050 C.ar  1 <1>   0.1770 
  3 C       -2.9030    -0.3150     1.4590 C.ar  1 <1>  -0.1500 
  4 C       -2.5350     0.3270    -0.8350 C.ar  1 <1>  -0.1500 
  5 C       -4.2700    -0.2100     1.2640 C.ar  1 <1>  -0.1500 
  6 C       -3.9030     0.4280    -1.0190 C.ar  1 <1>  -0.1500 
  7 C       -4.7820     0.1630     0.0240 C.ar  1 <1>   0.1000 
  8 N       -6.1490     0.2750    -0.1960 N.pl3 1 <1>  -0.8380 
  9 C       -6.9330    -0.9980    -0.1760 C.3   1 <1>   0.2090 
 10 C       -6.8540     1.3760     0.5290 C.3   1 <1>   0.2090 
 11 C       -8.3830    -0.7720    -0.6480 C.3   1 <1>   0.1960 
 12 C       -8.3080     1.5320     0.0410 C.3   1 <1>   0.1960 
 13 N       -9.0660     0.2730     0.1400 N.am  1 <1>  -0.8490 
 14 S      -10.6570     0.4940    -0.3710 S.o2  1 <1>   1.5760 
 15 O      -10.6670     0.5290    -1.8160 O.2   1 <1>  -0.6500 
 16 O      -11.2450     1.5690     0.3970 O.2   1 <1>  -0.6500 
 17 N      -11.3430    -0.9630     0.1500 N.am  1 <1>  -0.8490 
 18 C      -12.6590    -1.1800    -0.4510 C.3   1 <1>   0.1160 
 19 C      -11.4350    -1.0440     1.6100 C.3   1 <1>   0.1160 
 20 H       -2.4990    -0.6010     2.4130 H     1 <1>   0.1500 
 21 H       -1.8510     0.5310    -1.6390 H     1 <1>   0.1500 
 22 H       -4.9470    -0.4160     2.0720 H     1 <1>   0.1500 
 23 H       -4.3070     0.7150    -1.9730 H     1 <1>   0.1500 
 24 H       -6.9470    -1.3980     0.8230 H     1 <1>   0.0800 
 25 H       -6.4570    -1.7160    -0.8190 H     1 <1>   0.0800 
 26 H       -6.3230     2.2980     0.3700 H     1 <1>   0.0800 
 27 H       -6.8580     1.1680     1.5840 H     1 <1>   0.0800 
 28 H       -8.9220    -1.6990    -0.5600 H     1 <1>   0.0800 
 29 H       -8.3640    -0.4980    -1.6890 H     1 <1>   0.0800 
 30 H       -8.2980     1.8730    -0.9810 H     1 <1>   0.0800 
 31 H       -8.7890     2.2880     0.6380 H     1 <1>   0.0800 
 32 H      -12.5730    -1.1950    -1.5250 H     1 <1>   0.0800 
 33 H      -13.3360    -0.3910    -0.1670 H     1 <1>   0.0800 
 34 H      -13.0610    -2.1260    -0.1310 H     1 <1>   0.0800 
 35 H      -10.4600    -0.9170     2.0490 H     1 <1>   0.0800 
 36 H      -11.8140    -2.0080     1.9030 H     1 <1>   0.0800 
 37 H      -12.0880    -0.2770     1.9930 H     1 <1>   0.0800 
@<TRIPOS>BOND
  1   1   2  1   
  2   2   3  ar  
  3   2   4  ar  
  4   3   5  ar  
  5   3  20  1   
  6   4   6  ar  
  7   4  21  1   
  8   5   7  ar  
  9   5  22  1   
 10   6   7  ar  
 11   6  23  1   
 12   7   8  1   
 13   8   9  1   
 14   8  10  1   
 15   9  11  1   
 16   9  24  1   
 17   9  25  1   
 18  10  12  1   
 19  10  26  1   
 20  10  27  1   
 21  11  13  1   
 22  11  28  1   
 23  11  29  1   
 24  12  13  1   
 25  12  30  1   
 26  12  31  1   
 27  13  14  am  
 28  14  15  2   
 29  14  16  2   
 30  14  17  am  
 31  17  18  1   
 32  17  19  1   
 33  18  32  1   
 34  18  33  1   
 35  18  34  1   
 36  19  35  1   
 37  19  36  1   
 38  19  37  1   
@<TRIPOS>SUBSTRUCTURE
  1 ****   8 GROUP 4 **** **** 0

# MOE 2024.06 (io_trps.svl 2023.06)
