@<TRIPOS>MOLECULE
1-(2-Cyano-ethyl)-3-(4-fluoro-phenyl)-1H-pyrazole-4-carboxylic acid isopropyl es
38 39 1 0 0 
SMALL
USER_CHARGES


@<TRIPOS>ATOM
  1 F       -0.2250    -1.0640     0.1150 F     1 <1>  -0.1900 
  2 C        0.6970    -1.9850     0.0400 C.ar  1 <1>   0.1900 
  3 C        1.6240    -2.0900     1.0590 C.ar  1 <1>  -0.1500 
  4 C        0.7130    -2.8260    -1.0560 C.ar  1 <1>  -0.1500 
  5 C        2.5970    -3.0700     0.9700 C.ar  1 <1>  -0.1500 
  6 C        1.6950    -3.7990    -1.1270 C.ar  1 <1>  -0.1500 
  7 C        2.6560    -3.9370    -0.1240 C.ar  1 <1>   0.0540 
  8 C        3.6640    -4.9710    -0.2210 C.2   1 <1>   0.2350 
  9 N        3.3410    -6.2330    -0.3390 N.2   1 <1>  -0.7070 
 10 C        5.0630    -4.8040    -0.2050 C.2   1 <1>  -0.0860 
 11 N        4.4950    -6.9040    -0.3840 N.pl3 1 <1>   0.3140 
 12 C        5.8140    -3.5780    -0.1250 C.2   1 <1>   0.8060 
 13 C        5.5390    -6.0760    -0.3040 C.2   1 <1>  -0.3020 
 14 C        4.5300    -8.3730    -0.4990 C.3   1 <1>   0.0960 
 15 O        5.3200    -2.4710    -0.0950 O.2   1 <1>  -0.5700 
 16 O        7.1450    -3.6960    -0.0840 O.3   1 <1>  -0.4300 
 17 C        3.6740    -9.0150     0.5960 C.3   1 <1>   0.0400 
 18 C        8.0120    -2.5860    -0.0390 C.3   1 <1>   0.2000 
 19 C        3.7890   -10.4930     0.5210 C.1   1 <1>   0.3570 
 20 C        8.2470    -2.0970    -1.4680 C.3   1 <1>  -0.2400 
 21 C        9.3110    -3.0550     0.6090 C.3   1 <1>  -0.2400 
 22 N        3.9080   -11.6200     0.4430 N.1   1 <1>  -0.5570 
 23 H        1.5810    -1.4180     1.8970 H     1 <1>   0.1500 
 24 H       -0.0250    -2.7190    -1.8290 H     1 <1>   0.1500 
 25 H        3.3260    -3.1650     1.7550 H     1 <1>   0.1500 
 26 H        1.7250    -4.4720    -1.9660 H     1 <1>   0.1500 
 27 H        6.5630    -6.4050    -0.3260 H     1 <1>   0.1500 
 28 H        5.5500    -8.7010    -0.4160 H     1 <1>   0.0800 
 29 H        4.1550    -8.6440    -1.4690 H     1 <1>   0.0800 
 30 H        2.6410    -8.7440     0.4680 H     1 <1>   0.0800 
 31 H        4.0050    -8.6910     1.5650 H     1 <1>   0.0800 
 32 H        7.5650    -1.8120     0.5640 H     1 <1>   0.0800 
 33 H        8.6600    -2.8830    -2.0740 H     1 <1>   0.0800 
 34 H        8.9350    -1.2710    -1.4620 H     1 <1>   0.0800 
 35 H        7.3230    -1.7570    -1.9020 H     1 <1>   0.0800 
 36 H        9.7570    -3.8450     0.0320 H     1 <1>   0.0800 
 37 H        9.1190    -3.4060     1.6070 H     1 <1>   0.0800 
 38 H       10.0070    -2.2380     0.6670 H     1 <1>   0.0800 
@<TRIPOS>BOND
  1   1   2  1   
  2   2   3  ar  
  3   2   4  ar  
  4   3   5  ar  
  5   3  23  1   
  6   4   6  ar  
  7   4  24  1   
  8   5   7  ar  
  9   5  25  1   
 10   6   7  ar  
 11   6  26  1   
 12   7   8  1   
 13   8   9  2   
 14   8  10  1   
 15   9  11  1   
 16  10  12  1   
 17  10  13  2   
 18  11  13  1   
 19  11  14  1   
 20  12  15  2   
 21  12  16  1   
 22  13  27  1   
 23  14  17  1   
 24  14  28  1   
 25  14  29  1   
 26  16  18  1   
 27  17  19  1   
 28  17  30  1   
 29  17  31  1   
 30  18  20  1   
 31  18  21  1   
 32  18  32  1   
 33  19  22  3   
 34  20  33  1   
 35  20  34  1   
 36  20  35  1   
 37  21  36  1   
 38  21  37  1   
 39  21  38  1   
@<TRIPOS>SUBSTRUCTURE
  1 ****   8 GROUP 4 **** **** 0

# MOE 2024.06 (io_trps.svl 2023.06)
