@<TRIPOS>MOLECULE
7-(2-Hydroxy-3-isopropoxy-propyl)-1,3-dimethyl-8-pyrrolidin-1-yl-3,7-dihydro-pur
54 56 1 0 0 
SMALL
USER_CHARGES


@<TRIPOS>ATOM
  1 O        1.4380     2.5060     2.0060 O.2   1 <1>  -0.5740 
  2 C        2.4690     2.4710     1.3650 C.2   1 <1>   0.6870 
  3 N        2.7190     3.4370     0.3960 N.am  1 <1>  -0.4250 
  4 N        3.3930     1.4610     1.5950 N.am  1 <1>  -0.4410 
  5 C        3.8570     3.3790    -0.3980 C.2   1 <1>   0.7000 
  6 C        1.7180     4.5310     0.1930 C.3   1 <1>   0.0530 
  7 C        4.5150     1.4130     0.7900 C.2   1 <1>   0.4210 
  8 C        3.1620     0.4410     2.6610 C.3   1 <1>   0.0530 
  9 O        4.0660     4.2320    -1.2460 O.2   1 <1>  -0.5740 
 10 C        4.7820     2.3050    -0.1850 C.2   1 <1>   0.2710 
 11 N        5.5170     0.4990     0.8250 N.pl3 1 <1>  -0.7030 
 12 N        6.0050     1.9090    -0.7660 N.pl3 1 <1>  -0.7670 
 13 C        6.4140     0.8020    -0.1170 C.cat 1 <1>   1.0690 
 14 C        6.7690     2.7870    -1.7140 C.3   1 <1>   0.3480 
 15 N        7.5010     0.0210    -0.3200 N.pl3 1 <1>  -0.5960 
 16 C        7.7510     3.7450    -0.9990 C.3   1 <1>   0.1940 
 17 C        7.9250    -1.0610     0.6080 C.3   1 <1>   0.1610 
 18 C        8.4620     0.1090    -1.4490 C.3   1 <1>   0.1610 
 19 O        8.4570     3.0720    -0.0080 O.3   1 <1>  -0.6840 
 20 C        7.0760     4.9590    -0.3440 C.3   1 <1>   0.1130 
 21 C        9.3180    -1.4700     0.1490 C.3   1 <1>  -0.1670 
 22 C        9.3400    -1.1290    -1.3340 C.3   1 <1>  -0.1670 
 23 O        7.9840     5.5540     0.5370 O.3   1 <1>  -0.5640 
 24 C        7.5440     6.7170     1.1580 C.3   1 <1>   0.1940 
 25 C        8.7920     7.4590     1.6210 C.3   1 <1>  -0.2460 
 26 C        6.6520     6.3460     2.3440 C.3   1 <1>  -0.2460 
 27 H        1.3040     4.8370     1.1390 H     1 <1>   0.0730 
 28 H        0.9200     4.1770    -0.4360 H     1 <1>   0.0730 
 29 H        2.1720     5.3920    -0.2670 H     1 <1>   0.0730 
 30 H        2.4560     0.8050     3.3890 H     1 <1>   0.0730 
 31 H        4.0820     0.2210     3.1730 H     1 <1>   0.0730 
 32 H        2.7680    -0.4590     2.2220 H     1 <1>   0.0730 
 33 H        5.5960    -0.2970     1.4460 H     1 <1>   0.4450 
 34 H        6.0860     3.3660    -2.3110 H     1 <1>   0.0730 
 35 H        7.3210     2.1870    -2.4090 H     1 <1>   0.0730 
 36 H        8.4680     4.1100    -1.7130 H     1 <1>   0.0730 
 37 H        7.2520    -1.8980     0.5130 H     1 <1>   0.0730 
 38 H        7.9470    -0.7170     1.6280 H     1 <1>   0.0730 
 39 H        9.0710     0.9900    -1.3380 H     1 <1>   0.0730 
 40 H        7.9530     0.1230    -2.3980 H     1 <1>   0.0730 
 41 H        8.8150     3.7760     0.5880 H     1 <1>   0.3950 
 42 H        6.2140     4.6550     0.2170 H     1 <1>   0.0730 
 43 H        6.7820     5.6770    -1.0920 H     1 <1>   0.0730 
 44 H        9.5150    -2.5110     0.3330 H     1 <1>   0.0730 
 45 H       10.0510    -0.8780     0.6710 H     1 <1>   0.0730 
 46 H       10.3380    -0.9480    -1.6960 H     1 <1>   0.0730 
 47 H        8.9040    -1.9320    -1.9040 H     1 <1>   0.0730 
 48 H        7.0090     7.3230     0.4440 H     1 <1>   0.0730 
 49 H        9.3500     6.8580     2.3160 H     1 <1>   0.0730 
 50 H        8.5160     8.3770     2.1060 H     1 <1>   0.0730 
 51 H        9.4130     7.6950     0.7760 H     1 <1>   0.0730 
 52 H        7.1700     5.6750     3.0050 H     1 <1>   0.0730 
 53 H        5.7360     5.8950     2.0120 H     1 <1>   0.0730 
 54 H        6.3970     7.2340     2.8940 H     1 <1>   0.0730 
@<TRIPOS>BOND
  1   1   2  2   
  2   2   3  am  
  3   2   4  am  
  4   3   5  am  
  5   3   6  1   
  6   4   7  1   
  7   4   8  1   
  8   5   9  2   
  9   5  10  1   
 10   6  27  1   
 11   6  28  1   
 12   6  29  1   
 13   7  10  2   
 14   7  11  1   
 15   8  30  1   
 16   8  31  1   
 17   8  32  1   
 18  10  12  1   
 19  11  13  ar  
 20  11  33  1   
 21  12  13  ar  
 22  12  14  1   
 23  13  15  ar  
 24  14  16  1   
 25  14  34  1   
 26  14  35  1   
 27  15  17  1   
 28  15  18  1   
 29  16  19  1   
 30  16  20  1   
 31  16  36  1   
 32  17  21  1   
 33  17  37  1   
 34  17  38  1   
 35  18  22  1   
 36  18  39  1   
 37  18  40  1   
 38  19  41  1   
 39  20  23  1   
 40  20  42  1   
 41  20  43  1   
 42  21  22  1   
 43  21  44  1   
 44  21  45  1   
 45  22  46  1   
 46  22  47  1   
 47  23  24  1   
 48  24  25  1   
 49  24  26  1   
 50  24  48  1   
 51  25  49  1   
 52  25  50  1   
 53  25  51  1   
 54  26  52  1   
 55  26  53  1   
 56  26  54  1   
@<TRIPOS>SUBSTRUCTURE
  1 ****  12 GROUP 4 **** **** 0

# MOE 2024.06 (io_trps.svl 2023.06)
