@<TRIPOS>MOLECULE
5-(2,4-Dichloro-phenyl)-isoxazole-3-carboxylic acid (tetrahydro-furan-2-ylmethyl
36 38 1 0 0 
SMALL
USER_CHARGES


@<TRIPOS>ATOM
  1 CL       0.9270    -0.0150    -0.0820 Cl    1 <1>  -0.1770 
  2 C        0.1260     1.5050     0.2360 C.ar  1 <1>   0.1770 
  3 C        0.8310     2.7100     0.1450 C.ar  1 <1>   0.0530 
  4 C       -1.2070     1.4570     0.5940 C.ar  1 <1>  -0.1500 
  5 C        2.2190     2.7800    -0.2360 C.2   1 <1>   0.0870 
  6 C        0.1350     3.8830     0.4470 C.ar  1 <1>  -0.1500 
  7 C       -1.8600     2.6390     0.8780 C.ar  1 <1>   0.1770 
  8 O        2.6450     2.1700    -1.3310 O.3   1 <1>  -0.0190 
  9 C        3.2420     3.4220     0.3540 C.2   1 <1>  -0.1500 
 10 C       -1.2010     3.8520     0.8100 C.ar  1 <1>  -0.1500 
 11 CL      -3.5420     2.6010     1.3340 Cl    1 <1>  -0.1770 
 12 N        3.9280     2.4110    -1.4440 N.2   1 <1>  -0.4100 
 13 C        4.3290     3.1550    -0.4550 C.2   1 <1>   0.2030 
 14 C        5.6840     3.6250    -0.2320 C.2   1 <1>   0.7160 
 15 O        5.9620     4.3070     0.7370 O.2   1 <1>  -0.5700 
 16 N        6.6800     3.2930    -1.1080 N.am  1 <1>  -0.7300 
 17 C        8.1120     3.6800    -0.9870 C.3   1 <1>   0.1400 
 18 C        8.8420     2.8340     0.0660 C.3   1 <1>   0.2000 
 19 O       10.2050     3.0870    -0.0070 O.3   1 <1>  -0.5600 
 20 C        8.7410     1.3260    -0.1320 C.3   1 <1>  -0.1600 
 21 C       10.9140     2.0530     0.5960 C.3   1 <1>   0.1200 
 22 C       10.0320     0.8110     0.4840 C.3   1 <1>  -0.1600 
 23 H       -1.7260     0.5180     0.6540 H     1 <1>   0.1500 
 24 H        0.6450     4.8290     0.3890 H     1 <1>   0.1500 
 25 H        3.2580     4.0140     1.2510 H     1 <1>   0.1500 
 26 H       -1.7330     4.7590     1.0380 H     1 <1>   0.1500 
 27 H        6.4260     2.6880    -1.8930 H     1 <1>   0.3700 
 28 H        8.1770     4.7170    -0.7040 H     1 <1>   0.0800 
 29 H        8.5910     3.5530    -1.9420 H     1 <1>   0.0800 
 30 H        8.5150     3.1100     1.0540 H     1 <1>   0.0800 
 31 H        8.7150     1.0960    -1.1830 H     1 <1>   0.0800 
 32 H        7.8640     0.9220     0.3430 H     1 <1>   0.0800 
 33 H       11.0850     2.3200     1.6250 H     1 <1>   0.0800 
 34 H       11.8520     1.9360     0.0830 H     1 <1>   0.0800 
 35 H       10.4940     0.0620    -0.1340 H     1 <1>   0.0800 
 36 H        9.8600     0.4000     1.4640 H     1 <1>   0.0800 
@<TRIPOS>BOND
  1   1   2  1   
  2   2   3  ar  
  3   2   4  ar  
  4   3   5  1   
  5   3   6  ar  
  6   4   7  ar  
  7   4  23  1   
  8   5   8  1   
  9   5   9  2   
 10   6  10  ar  
 11   6  24  1   
 12   7  10  ar  
 13   7  11  1   
 14   8  12  1   
 15   9  13  1   
 16   9  25  1   
 17  10  26  1   
 18  12  13  2   
 19  13  14  1   
 20  14  15  2   
 21  14  16  am  
 22  16  17  1   
 23  16  27  1   
 24  17  18  1   
 25  17  28  1   
 26  17  29  1   
 27  18  19  1   
 28  18  20  1   
 29  18  30  1   
 30  19  21  1   
 31  20  22  1   
 32  20  31  1   
 33  20  32  1   
 34  21  22  1   
 35  21  33  1   
 36  21  34  1   
 37  22  35  1   
 38  22  36  1   
@<TRIPOS>SUBSTRUCTURE
  1 ****  13 GROUP 4 **** **** 0

# MOE 2024.06 (io_trps.svl 2023.06)
