@<TRIPOS>MOLECULE
1-Amino-5-morpholin-4-yl-6,7,8,9-tetrahydro-thieno[2,3-c]isoquinoline-2-carboxyl
55 58 1 0 0 
SMALL
USER_CHARGES


@<TRIPOS>ATOM
  1 S       -0.2170    -0.5650     0.1110 S.3   1 <1>  -0.0800 
  2 C       -1.5330     0.5670    -0.1700 C.ar  1 <1>   0.2970 
  3 C        1.0270     0.6690    -0.2090 C.2   1 <1>  -0.0450 
  4 N       -2.7790     0.1620    -0.0620 N.ar  1 <1>  -0.5670 
  5 C       -1.0370     1.8270    -0.4800 C.ar  1 <1>   0.0000 
  6 C        0.4120     1.8440    -0.5390 C.2   1 <1>   0.0830 
  7 C        2.3960     0.2690    -0.1100 C.2   1 <1>   0.7150 
  8 C       -3.6680     1.1160    -0.2840 C.ar  1 <1>   0.4100 
  9 C       -1.9970     2.8300    -0.6740 C.ar  1 <1>  -0.1430 
 10 N        1.1250     2.9550    -0.9550 N.pl3 1 <1>  -0.8830 
 11 O        2.7260    -0.8670    -0.4170 O.2   1 <1>  -0.5700 
 12 N        3.3860     1.1400     0.3180 N.am  1 <1>  -0.6600 
 13 N       -4.9890     0.7350    -0.1650 N.pl3 1 <1>  -0.8380 
 14 C       -3.3270     2.4480    -0.5940 C.ar  1 <1>  -0.1430 
 15 C       -1.5940     4.2770    -0.9580 C.3   1 <1>  -0.0170 
 16 C        3.1430     2.0770     1.4490 C.3   1 <1>   0.1400 
 17 C        4.8110     0.9380    -0.0600 C.3   1 <1>   0.1400 
 18 C       -5.5810     0.7760     1.2030 C.3   1 <1>   0.2090 
 19 C       -5.4590    -0.4380    -0.9650 C.3   1 <1>   0.2090 
 20 C       -4.4610     3.4520    -0.8260 C.3   1 <1>  -0.0170 
 21 C       -2.7440     5.2750    -0.7980 C.3   1 <1>  -0.1600 
 22 C        3.3340     1.3440     2.7760 C.3   1 <1>  -0.2400 
 23 C        5.2120     1.9990    -1.0810 C.3   1 <1>  -0.2400 
 24 C       -5.5280    -0.6040     1.8860 C.3   1 <1>   0.1200 
 25 C       -5.4360    -1.7430    -0.1450 C.3   1 <1>   0.1200 
 26 C       -3.9980     4.7500    -1.4940 C.3   1 <1>  -0.1600 
 27 O       -6.1090    -1.5860     1.0740 O.3   1 <1>  -0.5600 
 28 H        0.6630     3.6350    -1.5650 H     1 <1>   0.4000 
 29 H        2.1290     2.8400    -1.1490 H     1 <1>   0.4000 
 30 H       -1.2220     4.3330    -1.9660 H     1 <1>   0.0800 
 31 H       -0.8090     4.5710    -0.2850 H     1 <1>   0.0800 
 32 H        2.1410     2.4670     1.4070 H     1 <1>   0.0800 
 33 H        3.8230     2.9090     1.3850 H     1 <1>   0.0800 
 34 H        4.9550    -0.0400    -0.4890 H     1 <1>   0.0800 
 35 H        5.4370     1.0070     0.8120 H     1 <1>   0.0800 
 36 H       -6.6050     1.0990     1.1360 H     1 <1>   0.0800 
 37 H       -5.0460     1.4890     1.8060 H     1 <1>   0.0800 
 38 H       -4.8330    -0.5550    -1.8330 H     1 <1>   0.0800 
 39 H       -6.4620    -0.2530    -1.3050 H     1 <1>   0.0800 
 40 H       -4.9050     3.6820     0.1260 H     1 <1>   0.0800 
 41 H       -5.2220     3.0060    -1.4420 H     1 <1>   0.0800 
 42 H       -2.4600     6.2250    -1.2160 H     1 <1>   0.0800 
 43 H       -2.9500     5.4180     0.2490 H     1 <1>   0.0800 
 44 H        2.6480     0.5190     2.8470 H     1 <1>   0.0800 
 45 H        3.1400     2.0180     3.5900 H     1 <1>   0.0800 
 46 H        4.3400     0.9790     2.8700 H     1 <1>   0.0800 
 47 H        4.6040     1.9100    -1.9630 H     1 <1>   0.0800 
 48 H        6.2400     1.8550    -1.3630 H     1 <1>   0.0800 
 49 H        5.1080     2.9850    -0.6660 H     1 <1>   0.0800 
 50 H       -6.0700    -0.5800     2.8130 H     1 <1>   0.0800 
 51 H       -4.5070    -0.8800     2.0860 H     1 <1>   0.0800 
 52 H       -4.4200    -2.0380     0.0560 H     1 <1>   0.0800 
 53 H       -5.9210    -2.5320    -0.6910 H     1 <1>   0.0800 
 54 H       -4.7850     5.4820    -1.4420 H     1 <1>   0.0800 
 55 H       -3.7830     4.5610    -2.5310 H     1 <1>   0.0800 
@<TRIPOS>BOND
  1   1   2  1   
  2   1   3  1   
  3   2   4  ar  
  4   2   5  ar  
  5   3   6  2   
  6   3   7  1   
  7   4   8  ar  
  8   5   6  1   
  9   5   9  ar  
 10   6  10  1   
 11   7  11  2   
 12   7  12  am  
 13   8  13  1   
 14   8  14  ar  
 15   9  14  ar  
 16   9  15  1   
 17  10  28  1   
 18  10  29  1   
 19  12  16  1   
 20  12  17  1   
 21  13  18  1   
 22  13  19  1   
 23  14  20  1   
 24  15  21  1   
 25  15  30  1   
 26  15  31  1   
 27  16  22  1   
 28  16  32  1   
 29  16  33  1   
 30  17  23  1   
 31  17  34  1   
 32  17  35  1   
 33  18  24  1   
 34  18  36  1   
 35  18  37  1   
 36  19  25  1   
 37  19  38  1   
 38  19  39  1   
 39  20  26  1   
 40  20  40  1   
 41  20  41  1   
 42  21  26  1   
 43  21  42  1   
 44  21  43  1   
 45  22  44  1   
 46  22  45  1   
 47  22  46  1   
 48  23  47  1   
 49  23  48  1   
 50  23  49  1   
 51  24  27  1   
 52  24  50  1   
 53  24  51  1   
 54  25  27  1   
 55  25  52  1   
 56  25  53  1   
 57  26  54  1   
 58  26  55  1   
@<TRIPOS>SUBSTRUCTURE
  1 ****   5 GROUP 4 **** **** 0

# MOE 2024.06 (io_trps.svl 2023.06)
