@<TRIPOS>MOLECULE
1-Benzo[1,3]dioxol-5-ylmethyl-4-(4-chloro-3-methoxy-benzenesulfonyl)-piperazine
50 53 1 0 0 
SMALL
USER_CHARGES


@<TRIPOS>ATOM
  1 CL      -0.3540    -1.7280     1.9940 Cl    1 <1>  -0.1770 
  2 C       -1.7960    -1.9460     1.0270 C.ar  1 <1>   0.1770 
  3 C       -1.8470    -2.9280     0.0450 C.ar  1 <1>   0.0820 
  4 C       -2.8760    -1.1190     1.2650 C.ar  1 <1>  -0.1500 
  5 O       -0.7500    -3.7070    -0.1470 O.3   1 <1>  -0.3630 
  6 C       -3.0180    -3.0680    -0.6970 C.ar  1 <1>  -0.1500 
  7 C       -4.0300    -1.2740     0.5160 C.ar  1 <1>  -0.1500 
  8 C       -0.6490    -4.6030    -1.2330 C.3   1 <1>   0.0400 
  9 C       -4.1220    -2.2510    -0.4710 C.ar  1 <1>  -0.0090 
 10 S       -5.6480    -2.4580    -1.4300 S.o2  1 <1>   1.4470 
 11 O       -6.0660    -1.1880    -1.9750 O.2   1 <1>  -0.6500 
 12 O       -5.5630    -3.6200    -2.2860 O.2   1 <1>  -0.6500 
 13 N       -6.8100    -2.8630    -0.2560 N.am  1 <1>  -0.8490 
 14 C       -6.6290    -4.2330     0.2650 C.3   1 <1>   0.1960 
 15 C       -8.1730    -2.6750    -0.7950 C.3   1 <1>   0.1960 
 16 C       -7.6840    -4.5840     1.3390 C.3   1 <1>   0.3430 
 17 C       -9.2610    -3.0050     0.2480 C.3   1 <1>   0.3430 
 18 N       -9.0890    -4.3820     0.8390 N.4   1 <1>  -0.9590 
 19 C      -10.1020    -4.6570     1.8960 C.3   1 <1>   0.4860 
 20 C      -11.4800    -4.5970     1.2680 C.ar  1 <1>  -0.1440 
 21 C      -11.9020    -5.6180     0.4190 C.ar  1 <1>  -0.1500 
 22 C      -12.3250    -3.5160     1.5330 C.ar  1 <1>  -0.1500 
 23 C      -13.1540    -5.5140    -0.1510 C.ar  1 <1>   0.0820 
 24 C      -13.5830    -3.4350     0.9510 C.ar  1 <1>  -0.1500 
 25 O      -13.7500    -6.3640    -0.9910 O.3   1 <1>  -0.3620 
 26 C      -13.9720    -4.4540     0.1060 C.ar  1 <1>   0.0820 
 27 C      -15.0400    -5.8210    -1.2760 C.3   1 <1>   0.4000 
 28 O      -15.1210    -4.5880    -0.5620 O.3   1 <1>  -0.3620 
 29 H       -2.8060    -0.3610     2.0260 H     1 <1>   0.1500 
 30 H       -3.0870    -3.8170    -1.4650 H     1 <1>   0.1500 
 31 H       -4.8700    -0.6230     0.6970 H     1 <1>   0.1500 
 32 H        0.3330    -5.0420    -1.2110 H     1 <1>   0.0800 
 33 H       -0.7830    -4.0590    -2.1510 H     1 <1>   0.0800 
 34 H       -1.3930    -5.3720    -1.1250 H     1 <1>   0.0800 
 35 H       -5.6490    -4.3220     0.7030 H     1 <1>   0.0800 
 36 H       -6.6950    -4.9510    -0.5370 H     1 <1>   0.0800 
 37 H       -8.3120    -3.2890    -1.6700 H     1 <1>   0.0800 
 38 H       -8.3030    -1.6480    -1.0960 H     1 <1>   0.0800 
 39 H       -7.5110    -3.9550     2.1970 H     1 <1>   0.0800 
 40 H       -7.5460    -5.6080     1.6460 H     1 <1>   0.0800 
 41 H      -10.2300    -2.9230    -0.2190 H     1 <1>   0.0800 
 42 H       -9.2110    -2.2660     1.0310 H     1 <1>   0.0800 
 43 H       -9.2710    -5.0530     0.0810 H     1 <1>   0.4500 
 44 H      -10.0260    -3.9300     2.6880 H     1 <1>   0.0800 
 45 H       -9.9470    -5.6380     2.3170 H     1 <1>   0.0800 
 46 H      -11.3000    -6.4800     0.1930 H     1 <1>   0.1500 
 47 H      -12.0190    -2.7260     2.1990 H     1 <1>   0.1500 
 48 H      -14.2500    -2.6120     1.1430 H     1 <1>   0.1500 
 49 H      -15.8010    -6.4940    -0.9230 H     1 <1>   0.0800 
 50 H      -15.1310    -5.6350    -2.3310 H     1 <1>   0.0800 
@<TRIPOS>BOND
  1   1   2  1   
  2   2   3  ar  
  3   2   4  ar  
  4   3   5  1   
  5   3   6  ar  
  6   4   7  ar  
  7   4  29  1   
  8   5   8  1   
  9   6   9  ar  
 10   6  30  1   
 11   7   9  ar  
 12   7  31  1   
 13   8  32  1   
 14   8  33  1   
 15   8  34  1   
 16   9  10  1   
 17  10  11  2   
 18  10  12  2   
 19  10  13  am  
 20  13  14  1   
 21  13  15  1   
 22  14  16  1   
 23  14  35  1   
 24  14  36  1   
 25  15  17  1   
 26  15  37  1   
 27  15  38  1   
 28  16  18  1   
 29  16  39  1   
 30  16  40  1   
 31  17  18  1   
 32  17  41  1   
 33  17  42  1   
 34  18  19  1   
 35  18  43  1   
 36  19  20  1   
 37  19  44  1   
 38  19  45  1   
 39  20  21  ar  
 40  20  22  ar  
 41  21  23  ar  
 42  21  46  1   
 43  22  24  ar  
 44  22  47  1   
 45  23  25  1   
 46  23  26  ar  
 47  24  26  ar  
 48  24  48  1   
 49  25  27  1   
 50  26  28  1   
 51  27  28  1   
 52  27  49  1   
 53  27  50  1   
@<TRIPOS>SUBSTRUCTURE
  1 ****  13 GROUP 4 **** **** 0

# MOE 2024.06 (io_trps.svl 2023.06)
