@<TRIPOS>MOLECULE
4-(4-Bromo-3,5-dimethyl-pyrazole-1-sulfonyl)-morpholine
31 32 1 0 0 
SMALL
USER_CHARGES


@<TRIPOS>ATOM
  1 BR       0.3380    -0.9350     0.6290 Br    1 <1>  -0.0570 
  2 C       -1.5700    -1.2350     0.4500 C.2   1 <1>   0.0570 
  3 C       -2.2680    -2.2590     1.0620 C.2   1 <1>   0.1080 
  4 C       -2.4420    -0.5120    -0.2740 C.2   1 <1>  -0.3320 
  5 N       -3.5230    -2.2010     0.7470 N.2   1 <1>  -0.7070 
  6 C       -1.6820    -3.3150     1.9710 C.3   1 <1>  -0.0590 
  7 N       -3.6700    -1.1020    -0.0900 N.pl3 1 <1>   0.5840 
  8 C       -2.1840     0.7130    -1.1420 C.3   1 <1>  -0.0600 
  9 S       -5.2130    -0.5860    -0.8880 S.o2  1 <1>   1.4240 
 10 O       -5.3450     0.8560    -0.7890 O.2   1 <1>  -0.6500 
 11 O       -5.3080    -1.1630    -2.2160 O.2   1 <1>  -0.6500 
 12 N       -6.5130    -1.2340     0.0060 N.am  1 <1>  -0.8490 
 13 C       -6.6670    -2.6880    -0.1860 C.3   1 <1>   0.1960 
 14 C       -7.7820    -0.5690    -0.3310 C.3   1 <1>   0.1960 
 15 C       -7.8590    -3.2280     0.6250 C.3   1 <1>   0.1200 
 16 C       -8.9540    -1.1650     0.4720 C.3   1 <1>   0.1200 
 17 O       -9.0340    -2.5490     0.2800 O.3   1 <1>  -0.5600 
 18 H       -1.0580    -3.9790     1.4020 H     1 <1>   0.0800 
 19 H       -2.4710    -3.8840     2.4290 H     1 <1>   0.0800 
 20 H       -1.0960    -2.8510     2.7420 H     1 <1>   0.0800 
 21 H       -1.1350     0.9500    -1.1570 H     1 <1>   0.0800 
 22 H       -2.7150     1.5660    -0.7560 H     1 <1>   0.0800 
 23 H       -2.5040     0.5330    -2.1540 H     1 <1>   0.0800 
 24 H       -5.7770    -3.2010     0.1320 H     1 <1>   0.0800 
 25 H       -6.8290    -2.9150    -1.2270 H     1 <1>   0.0800 
 26 H       -7.9850    -0.6720    -1.3840 H     1 <1>   0.0800 
 27 H       -7.7120     0.4820    -0.1070 H     1 <1>   0.0800 
 28 H       -7.6840    -3.1040     1.6800 H     1 <1>   0.0800 
 29 H       -8.0090    -4.2720     0.4170 H     1 <1>   0.0800 
 30 H       -9.8840    -0.7340     0.1480 H     1 <1>   0.0800 
 31 H       -8.8260    -0.9690     1.5220 H     1 <1>   0.0800 
@<TRIPOS>BOND
  1   1   2  1   
  2   2   3  1   
  3   2   4  2   
  4   3   5  2   
  5   3   6  1   
  6   4   7  1   
  7   4   8  1   
  8   5   7  1   
  9   6  18  1   
 10   6  19  1   
 11   6  20  1   
 12   7   9  1   
 13   8  21  1   
 14   8  22  1   
 15   8  23  1   
 16   9  10  2   
 17   9  11  2   
 18   9  12  am  
 19  12  13  1   
 20  12  14  1   
 21  13  15  1   
 22  13  24  1   
 23  13  25  1   
 24  14  16  1   
 25  14  26  1   
 26  14  27  1   
 27  15  17  1   
 28  15  28  1   
 29  15  29  1   
 30  16  17  1   
 31  16  30  1   
 32  16  31  1   
@<TRIPOS>SUBSTRUCTURE
  1 ****   7 GROUP 4 **** **** 0

# MOE 2024.06 (io_trps.svl 2023.06)
