@<TRIPOS>MOLECULE
N-(2,4-Difluoro-phenyl)-2-(4-ethyl-piperazin-1-yl)-acetamide
40 41 1 0 0 
SMALL
USER_CHARGES


@<TRIPOS>ATOM
  1 F       -3.2750     2.9040    -2.2100 F     1 <1>  -0.1900 
  2 C       -2.1670     2.9520    -1.5090 C.ar  1 <1>   0.1900 
  3 C       -2.1940     2.5180    -0.1810 C.ar  1 <1>   0.1170 
  4 C       -1.0320     3.4380    -2.1260 C.ar  1 <1>  -0.1500 
  5 N       -3.3930     2.0290     0.3710 N.am  1 <1>  -0.5470 
  6 C       -1.0020     2.5850     0.5410 C.ar  1 <1>  -0.1500 
  7 C        0.1200     3.4860    -1.3660 C.ar  1 <1>   0.1900 
  8 C       -3.8380     1.9360     1.6580 C.2   1 <1>   0.5690 
  9 C        0.1570     3.0690    -0.0470 C.ar  1 <1>  -0.1500 
 10 F        1.2160     3.9410    -1.9140 F     1 <1>  -0.1900 
 11 O       -3.1860     2.2440     2.6240 O.2   1 <1>  -0.5700 
 12 C       -5.2760     1.4480     1.8520 C.3   1 <1>   0.1710 
 13 N       -6.2110     1.8670     0.7580 N.3   1 <1>  -0.8100 
 14 C       -6.4310     3.3330     0.7700 C.3   1 <1>   0.1100 
 15 C       -7.4940     1.1410     0.8470 C.3   1 <1>   0.1100 
 16 C       -7.3750     3.7730    -0.3680 C.3   1 <1>   0.3430 
 17 C       -8.4570     1.5520    -0.2880 C.3   1 <1>   0.3430 
 18 N       -8.6890     3.0410    -0.3200 N.4   1 <1>  -0.9590 
 19 C       -9.5580     3.4550    -1.4510 C.3   1 <1>   0.3430 
 20 C      -10.9910     3.0070    -1.1900 C.3   1 <1>  -0.2400 
 21 H       -1.0390     3.7660    -3.1480 H     1 <1>   0.1500 
 22 H       -4.1230     1.8120    -0.3130 H     1 <1>   0.3700 
 23 H       -0.9740     2.2560     1.5650 H     1 <1>   0.1500 
 24 H        1.0770     3.1230     0.5080 H     1 <1>   0.1500 
 25 H       -5.6340     1.8070     2.8020 H     1 <1>   0.0800 
 26 H       -5.2390     0.3740     1.9010 H     1 <1>   0.0800 
 27 H       -5.4900     3.8430     0.6460 H     1 <1>   0.0800 
 28 H       -6.8430     3.6370     1.7180 H     1 <1>   0.0800 
 29 H       -7.9600     1.3270     1.8000 H     1 <1>   0.0800 
 30 H       -7.3080     0.0820     0.7720 H     1 <1>   0.0800 
 31 H       -6.8850     3.5790    -1.3080 H     1 <1>   0.0800 
 32 H       -7.5440     4.8350    -0.2950 H     1 <1>   0.0800 
 33 H       -9.3940     1.0360    -0.1560 H     1 <1>   0.0800 
 34 H       -8.0330     1.2310    -1.2250 H     1 <1>   0.0800 
 35 H       -9.1560     3.3030     0.5560 H     1 <1>   0.4500 
 36 H       -9.1980     3.0290    -2.3750 H     1 <1>   0.0800 
 37 H       -9.5420     4.5290    -1.5470 H     1 <1>   0.0800 
 38 H      -11.0760     1.9360    -1.1830 H     1 <1>   0.0800 
 39 H      -11.6230     3.3760    -1.9790 H     1 <1>   0.0800 
 40 H      -11.3560     3.4090    -0.2610 H     1 <1>   0.0800 
@<TRIPOS>BOND
  1   1   2  1   
  2   2   3  ar  
  3   2   4  ar  
  4   3   5  1   
  5   3   6  ar  
  6   4   7  ar  
  7   4  21  1   
  8   5   8  am  
  9   5  22  1   
 10   6   9  ar  
 11   6  23  1   
 12   7   9  ar  
 13   7  10  1   
 14   8  11  2   
 15   8  12  1   
 16   9  24  1   
 17  12  13  1   
 18  12  25  1   
 19  12  26  1   
 20  13  14  1   
 21  13  15  1   
 22  14  16  1   
 23  14  27  1   
 24  14  28  1   
 25  15  17  1   
 26  15  29  1   
 27  15  30  1   
 28  16  18  1   
 29  16  31  1   
 30  16  32  1   
 31  17  18  1   
 32  17  33  1   
 33  17  34  1   
 34  18  19  1   
 35  18  35  1   
 36  19  20  1   
 37  19  36  1   
 38  19  37  1   
 39  20  38  1   
 40  20  39  1   
 41  20  40  1   
@<TRIPOS>SUBSTRUCTURE
  1 ****   5 GROUP 4 **** **** 0

# MOE 2024.06 (io_trps.svl 2023.06)
