@<TRIPOS>MOLECULE
1-Methanesulfonyl-piperidine-3-carboxylic acid (2-fluoro-phenyl)-amide
37 38 1 0 0 
SMALL
USER_CHARGES


@<TRIPOS>ATOM
  1 S        0.1870     0.1100     0.6890 S.o2  1 <1>   1.3330 
  2 O       -0.1460    -0.6900     1.8450 O.2   1 <1>  -0.6500 
  3 O        0.5250     1.5060     0.8490 O.2   1 <1>  -0.6500 
  4 N        1.4640    -0.6570    -0.1150 N.am  1 <1>  -0.8490 
  5 C       -1.1310     0.0000    -0.5010 C.3   1 <1>  -0.1350 
  6 C        2.7660    -0.0130     0.1620 C.3   1 <1>   0.1960 
  7 C        1.4900    -2.1070     0.0790 C.3   1 <1>   0.1960 
  8 C        3.9800    -0.9100    -0.1630 C.3   1 <1>  -0.0190 
  9 C        2.4360    -2.7580    -0.9450 C.3   1 <1>  -0.1600 
 10 C        5.2110    -0.0660    -0.4680 C.2   1 <1>   0.5690 
 11 C        3.6540    -1.8860    -1.3060 C.3   1 <1>  -0.1600 
 12 O        5.1380     0.7870    -1.3170 O.2   1 <1>  -0.5700 
 13 N        6.3550    -0.3340     0.2350 N.am  1 <1>  -0.5470 
 14 C        7.6450     0.2390     0.2060 C.ar  1 <1>   0.1170 
 15 C        8.6820    -0.3700     0.9130 C.ar  1 <1>   0.1900 
 16 C        7.9650     1.4030    -0.4890 C.ar  1 <1>  -0.1500 
 17 F        8.4260    -1.4650     1.5890 F     1 <1>  -0.1900 
 18 C        9.9730     0.1200     0.9420 C.ar  1 <1>  -0.1500 
 19 C        9.2540     1.9130    -0.4750 C.ar  1 <1>  -0.1500 
 20 C       10.2600     1.2770     0.2370 C.ar  1 <1>  -0.1500 
 21 H       -1.3530    -1.0250    -0.7170 H     1 <1>   0.0800 
 22 H       -0.8450     0.4930    -1.4090 H     1 <1>   0.0800 
 23 H       -2.0120     0.4720    -0.1150 H     1 <1>   0.0800 
 24 H        2.8200     0.2730     1.2000 H     1 <1>   0.0800 
 25 H        2.8110     0.8910    -0.4230 H     1 <1>   0.0800 
 26 H        0.5020    -2.5190    -0.0390 H     1 <1>   0.0800 
 27 H        1.8200    -2.3240     1.0830 H     1 <1>   0.0800 
 28 H        4.1900    -1.4910     0.7170 H     1 <1>   0.0800 
 29 H        1.8840    -2.9750    -1.8430 H     1 <1>   0.0800 
 30 H        2.7680    -3.6980    -0.5420 H     1 <1>   0.0800 
 31 H        4.5030    -2.5080    -1.5330 H     1 <1>   0.0800 
 32 H        3.4230    -1.3090    -2.1870 H     1 <1>   0.0800 
 33 H        6.2960    -1.1270     0.8740 H     1 <1>   0.3700 
 34 H        7.2120     1.9260    -1.0490 H     1 <1>   0.1500 
 35 H       10.7350    -0.3910     1.5020 H     1 <1>   0.1500 
 36 H        9.4740     2.8130    -1.0230 H     1 <1>   0.1500 
 37 H       11.2580     1.6810     0.2410 H     1 <1>   0.1500 
@<TRIPOS>BOND
  1   1   2  2   
  2   1   3  2   
  3   1   4  am  
  4   1   5  1   
  5   4   6  1   
  6   4   7  1   
  7   5  21  1   
  8   5  22  1   
  9   5  23  1   
 10   6   8  1   
 11   6  24  1   
 12   6  25  1   
 13   7   9  1   
 14   7  26  1   
 15   7  27  1   
 16   8  10  1   
 17   8  11  1   
 18   8  28  1   
 19   9  11  1   
 20   9  29  1   
 21   9  30  1   
 22  10  12  2   
 23  10  13  am  
 24  11  31  1   
 25  11  32  1   
 26  13  14  1   
 27  13  33  1   
 28  14  15  ar  
 29  14  16  ar  
 30  15  17  1   
 31  15  18  ar  
 32  16  19  ar  
 33  16  34  1   
 34  18  20  ar  
 35  18  35  1   
 36  19  20  ar  
 37  19  36  1   
 38  20  37  1   
@<TRIPOS>SUBSTRUCTURE
  1 ****  10 GROUP 4 **** **** 0

# MOE 2024.06 (io_trps.svl 2023.06)
