@<TRIPOS>MOLECULE
(1-Methyl-piperidin-4-ylamino)-acetic acid
29 29 1 0 0 
SMALL
USER_CHARGES


@<TRIPOS>ATOM
  1 O       -1.2410    -3.3100     2.7670 O.co2 1 <1>  -0.9000 
  2 C       -1.4920    -2.3530     2.0270 C.2   1 <1>   0.9060 
  3 O       -2.5810    -1.7830     2.0190 O.co2 1 <1>  -0.9000 
  4 C       -0.6190    -2.1810     0.7810 C.3   1 <1>   0.2370 
  5 N       -1.2240    -2.8820    -0.4410 N.4   1 <1>  -0.9060 
  6 C       -1.8610    -4.1600    -0.0230 C.3   1 <1>   0.4230 
  7 C       -0.8350    -5.2220     0.3610 C.3   1 <1>  -0.1600 
  8 C       -2.8110    -4.7210    -1.0680 C.3   1 <1>  -0.1600 
  9 C       -1.5990    -6.3300     1.0700 C.3   1 <1>   0.3430 
 10 C       -3.5740    -5.8790    -0.4170 C.3   1 <1>   0.3430 
 11 N       -2.6290    -6.9020     0.1400 N.4   1 <1>  -0.9590 
 12 C       -3.3980    -7.9700     0.8540 C.3   1 <1>   0.2630 
 13 H        0.3450    -2.5980     1.0110 H     1 <1>   0.0800 
 14 H       -0.5060    -1.1290     0.5940 H     1 <1>   0.0800 
 15 H       -0.5430    -2.9870    -1.1980 H     1 <1>   0.4500 
 16 H       -1.9810    -2.2540    -0.7470 H     1 <1>   0.4500 
 17 H       -2.4730    -3.9660     0.8450 H     1 <1>   0.0800 
 18 H       -0.1120    -4.8330     1.0550 H     1 <1>   0.0800 
 19 H       -0.3130    -5.6070    -0.4970 H     1 <1>   0.0800 
 20 H       -2.2840    -5.0620    -1.9420 H     1 <1>   0.0800 
 21 H       -3.5220    -3.9680    -1.3580 H     1 <1>   0.0800 
 22 H       -2.0760    -5.9210     1.9500 H     1 <1>   0.0800 
 23 H       -0.9140    -7.1000     1.3880 H     1 <1>   0.0800 
 24 H       -4.2270    -6.3370    -1.1440 H     1 <1>   0.0800 
 25 H       -4.1870    -5.4890     0.3810 H     1 <1>   0.0800 
 26 H       -2.1320    -7.3500    -0.6450 H     1 <1>   0.4500 
 27 H       -3.9280    -7.5510     1.6950 H     1 <1>   0.0800 
 28 H       -2.7310    -8.7350     1.2170 H     1 <1>   0.0800 
 29 H       -4.1130    -8.4280     0.1890 H     1 <1>   0.0800 
@<TRIPOS>BOND
  1   1   2  ar  
  2   2   3  ar  
  3   2   4  1   
  4   4   5  1   
  5   4  13  1   
  6   4  14  1   
  7   5   6  1   
  8   5  15  1   
  9   5  16  1   
 10   6   7  1   
 11   6   8  1   
 12   6  17  1   
 13   7   9  1   
 14   7  18  1   
 15   7  19  1   
 16   8  10  1   
 17   8  20  1   
 18   8  21  1   
 19   9  11  1   
 20   9  22  1   
 21   9  23  1   
 22  10  11  1   
 23  10  24  1   
 24  10  25  1   
 25  11  12  1   
 26  11  26  1   
 27  12  27  1   
 28  12  28  1   
 29  12  29  1   
@<TRIPOS>SUBSTRUCTURE
  1 ****   6 GROUP 4 **** **** 0

# MOE 2024.06 (io_trps.svl 2023.06)
