@<TRIPOS>MOLECULE
5-Amino-2-methyl-3-oxo-7-p-tolyl-2,3-dihydro-7H-thiazolo[3,2-a]pyridine-6,8-dica
50 52 1 0 0 
SMALL
USER_CHARGES


@<TRIPOS>ATOM
  1 S        0.1800    -0.0580    -0.4490 S.3   1 <1>  -0.3310 
  2 C        1.5570     1.0340    -0.2190 C.2   1 <1>   0.2100 
  3 C        0.5870    -1.1450     0.9640 C.3   1 <1>   0.2110 
  4 N        2.3260     0.6140     0.8580 N.am  1 <1>  -0.2780 
  5 C        1.7980     2.1040    -1.0030 C.2   1 <1>  -0.1240 
  6 C        1.8120    -0.4720     1.5780 C.2   1 <1>   0.5690 
  7 C        0.8370    -2.5540     0.4130 C.3   1 <1>  -0.2400 
  8 C        3.5590     1.2540     1.0630 C.2   1 <1>   0.2090 
  9 C        1.0360     2.5500    -2.1220 C.2   1 <1>   0.7060 
 10 C        3.0030     2.9700    -0.6910 C.3   1 <1>   0.3400 
 11 O        2.2400    -0.8890     2.6300 O.2   1 <1>  -0.5700 
 12 N        4.3640     0.6980     2.0060 N.pl3 1 <1>  -0.9000 
 13 C        3.9500     2.3630     0.3520 C.2   1 <1>  -0.1240 
 14 O        1.5560     2.8120    -3.1860 O.2   1 <1>  -0.5700 
 15 O       -0.2790     2.7450    -2.0300 O.3   1 <1>  -0.4300 
 16 C        2.4630     4.3140    -0.1990 C.ar  1 <1>  -0.1430 
 17 C        5.1890     3.0490     0.5000 C.2   1 <1>   0.7060 
 18 C       -0.8530     3.3270    -0.8810 C.3   1 <1>   0.1200 
 19 C        1.9940     4.4660     1.0990 C.ar  1 <1>  -0.1500 
 20 C        2.4090     5.3980    -1.0640 C.ar  1 <1>  -0.1500 
 21 O        6.0130     2.8150     1.3750 O.2   1 <1>  -0.5700 
 22 O        5.4960     4.0210    -0.3770 O.3   1 <1>  -0.4300 
 23 C       -2.3500     3.4670    -1.1270 C.3   1 <1>  -0.2400 
 24 C        1.4810     5.6800     1.5220 C.ar  1 <1>  -0.1500 
 25 C        1.8950     6.6100    -0.6400 C.ar  1 <1>  -0.1500 
 26 C        6.6830     4.7820    -0.2640 C.3   1 <1>   0.0400 
 27 C        1.4260     6.7570     0.6550 C.ar  1 <1>  -0.1430 
 28 C        0.8650     8.0890     1.1180 C.3   1 <1>  -0.0970 
 29 H       -0.2430    -1.1210     1.6470 H     1 <1>   0.0800 
 30 H        1.6400    -2.5390    -0.3030 H     1 <1>   0.0800 
 31 H       -0.0510    -2.9290    -0.0620 H     1 <1>   0.0800 
 32 H        1.1060    -3.2160     1.2170 H     1 <1>   0.0800 
 33 H        3.5530     3.1080    -1.6070 H     1 <1>   0.0800 
 34 H        5.2550     1.1430     2.2810 H     1 <1>   0.4000 
 35 H        4.0140    -0.0450     2.6320 H     1 <1>   0.4000 
 36 H       -0.4010     4.2930    -0.7260 H     1 <1>   0.0800 
 37 H       -0.6690     2.6960    -0.0300 H     1 <1>   0.0800 
 38 H        2.0210     3.6460     1.7960 H     1 <1>   0.1500 
 39 H        2.7620     5.3050    -2.0780 H     1 <1>   0.1500 
 40 H       -2.5260     4.0930    -1.9840 H     1 <1>   0.0800 
 41 H       -2.8190     3.9180    -0.2720 H     1 <1>   0.0800 
 42 H       -2.7900     2.5000    -1.2920 H     1 <1>   0.0800 
 43 H        1.1260     5.7820     2.5330 H     1 <1>   0.1500 
 44 H        1.8610     7.4390    -1.3250 H     1 <1>   0.1500 
 45 H        6.7050     5.4990    -1.0650 H     1 <1>   0.0800 
 46 H        7.5300     4.1210    -0.3340 H     1 <1>   0.0800 
 47 H        6.6830     5.2880     0.6860 H     1 <1>   0.0800 
 48 H        0.1370     7.9420     1.8960 H     1 <1>   0.0800 
 49 H        0.3890     8.6000     0.3010 H     1 <1>   0.0800 
 50 H        1.6600     8.7050     1.4970 H     1 <1>   0.0800 
@<TRIPOS>BOND
  1   1   2  1   
  2   1   3  1   
  3   2   4  1   
  4   2   5  2   
  5   3   6  1   
  6   3   7  1   
  7   3  29  1   
  8   4   6  am  
  9   4   8  1   
 10   5   9  1   
 11   5  10  1   
 12   6  11  2   
 13   7  30  1   
 14   7  31  1   
 15   7  32  1   
 16   8  12  1   
 17   8  13  2   
 18   9  14  2   
 19   9  15  1   
 20  10  13  1   
 21  10  16  1   
 22  10  33  1   
 23  12  34  1   
 24  12  35  1   
 25  13  17  1   
 26  15  18  1   
 27  16  19  ar  
 28  16  20  ar  
 29  17  21  2   
 30  17  22  1   
 31  18  23  1   
 32  18  36  1   
 33  18  37  1   
 34  19  24  ar  
 35  19  38  1   
 36  20  25  ar  
 37  20  39  1   
 38  22  26  1   
 39  23  40  1   
 40  23  41  1   
 41  23  42  1   
 42  24  27  ar  
 43  24  43  1   
 44  25  27  ar  
 45  25  44  1   
 46  26  45  1   
 47  26  46  1   
 48  26  47  1   
 49  27  28  1   
 50  28  48  1   
 51  28  49  1   
 52  28  50  1   
@<TRIPOS>SUBSTRUCTURE
  1 ****  10 GROUP 4 **** **** 0

# MOE 2024.06 (io_trps.svl 2023.06)
