@<TRIPOS>MOLECULE
4-(Naphthalene-2-carbonyl)-piperazine-1-carboxylic acid ethyl ester
43 45 1 0 0 
SMALL
USER_CHARGES


@<TRIPOS>ATOM
  1 O       -0.5170    -0.4990     0.8180 O.2   1 <1>  -0.5700 
  2 C       -0.5180    -1.6940     0.5890 C.2   1 <1>   0.7800 
  3 O        0.6370    -2.3250     0.3680 O.3   1 <1>  -0.4300 
  4 N       -1.6690    -2.4320     0.5400 N.am  1 <1>  -0.6600 
  5 C        1.8600    -1.6280     0.4080 C.3   1 <1>   0.1200 
  6 C       -1.7090    -3.8840     0.1890 C.3   1 <1>   0.1400 
  7 C       -3.0120    -1.8170     0.7470 C.3   1 <1>   0.1400 
  8 C        2.9810    -2.6210     0.1160 C.3   1 <1>  -0.2400 
  9 C       -2.6090    -4.1170    -1.0330 C.3   1 <1>   0.1400 
 10 C       -3.9230    -2.0620    -0.4680 C.3   1 <1>   0.1400 
 11 N       -3.9640    -3.5160    -0.8210 N.am  1 <1>  -0.6600 
 12 C       -5.0870    -4.3030    -0.6710 C.2   1 <1>   0.5440 
 13 O       -4.9440    -5.4980    -0.4960 O.2   1 <1>  -0.5700 
 14 C       -6.4260    -3.7440    -0.6970 C.ar  1 <1>   0.0860 
 15 C       -7.3580    -4.0590     0.2660 C.ar  1 <1>  -0.1500 
 16 C       -6.8220    -2.8570    -1.7210 C.ar  1 <1>  -0.1500 
 17 C       -8.6560    -3.5150     0.2750 C.ar  1 <1>   0.0000 
 18 C       -8.0740    -2.3120    -1.7440 C.ar  1 <1>  -0.1500 
 19 C       -9.0230    -2.6170    -0.7490 C.ar  1 <1>   0.0000 
 20 C       -9.6040    -3.8310     1.2690 C.ar  1 <1>  -0.1500 
 21 C      -10.3200    -2.0680    -0.7380 C.ar  1 <1>  -0.1500 
 22 C      -10.8570    -3.2830     1.2560 C.ar  1 <1>  -0.1500 
 23 C      -11.2190    -2.3900     0.2410 C.ar  1 <1>  -0.1500 
 24 H        1.9730    -1.1940     1.3880 H     1 <1>   0.0800 
 25 H        1.8320    -0.8460    -0.3320 H     1 <1>   0.0800 
 26 H       -2.1000    -4.4400     1.0240 H     1 <1>   0.0800 
 27 H       -0.7230    -4.2580    -0.0220 H     1 <1>   0.0800 
 28 H       -2.9220    -0.7570     0.9140 H     1 <1>   0.0800 
 29 H       -3.4640    -2.2490     1.6220 H     1 <1>   0.0800 
 30 H        2.9880    -3.4000     0.8570 H     1 <1>   0.0800 
 31 H        3.9290    -2.1150     0.1410 H     1 <1>   0.0800 
 32 H        2.8480    -3.0520    -0.8600 H     1 <1>   0.0800 
 33 H       -2.6880    -5.1740    -1.2210 H     1 <1>   0.0800 
 34 H       -2.1560    -3.6660    -1.8980 H     1 <1>   0.0800 
 35 H       -3.5480    -1.5040    -1.3080 H     1 <1>   0.0800 
 36 H       -4.9070    -1.6940    -0.2380 H     1 <1>   0.0800 
 37 H       -7.0890    -4.7490     1.0460 H     1 <1>   0.1500 
 38 H       -6.1080    -2.6230    -2.4910 H     1 <1>   0.1500 
 39 H       -8.3610    -1.6370    -2.5320 H     1 <1>   0.1500 
 40 H       -9.3220    -4.5190     2.0460 H     1 <1>   0.1500 
 41 H      -10.5950    -1.3840    -1.5210 H     1 <1>   0.1500 
 42 H      -11.5760    -3.5280     2.0180 H     1 <1>   0.1500 
 43 H      -12.2090    -1.9670     0.2450 H     1 <1>   0.1500 
@<TRIPOS>BOND
  1   1   2  2   
  2   2   3  1   
  3   2   4  am  
  4   3   5  1   
  5   4   6  1   
  6   4   7  1   
  7   5   8  1   
  8   5  24  1   
  9   5  25  1   
 10   6   9  1   
 11   6  26  1   
 12   6  27  1   
 13   7  10  1   
 14   7  28  1   
 15   7  29  1   
 16   8  30  1   
 17   8  31  1   
 18   8  32  1   
 19   9  11  1   
 20   9  33  1   
 21   9  34  1   
 22  10  11  1   
 23  10  35  1   
 24  10  36  1   
 25  11  12  am  
 26  12  13  2   
 27  12  14  1   
 28  14  15  ar  
 29  14  16  ar  
 30  15  17  ar  
 31  15  37  1   
 32  16  18  ar  
 33  16  38  1   
 34  17  19  ar  
 35  17  20  ar  
 36  18  19  ar  
 37  18  39  1   
 38  19  21  ar  
 39  20  22  ar  
 40  20  40  1   
 41  21  23  ar  
 42  21  41  1   
 43  22  23  ar  
 44  22  42  1   
 45  23  43  1   
@<TRIPOS>SUBSTRUCTURE
  1 ****  11 GROUP 4 **** **** 0

# MOE 2024.06 (io_trps.svl 2023.06)
