@<TRIPOS>MOLECULE
1-Ethyl-5-methoxy-2-methyl-1H-indole-3-carboxylic acid
31 32 1 0 0 
SMALL
USER_CHARGES


@<TRIPOS>ATOM
  1 O       -0.3050    -0.2890     0.6600 O.co2 1 <1>  -0.9000 
  2 C        0.6320    -1.0390     0.3170 C.2   1 <1>   1.0330 
  3 O        1.7070    -0.4960    -0.0050 O.co2 1 <1>  -0.9000 
  4 C        0.4760    -2.4910     0.2900 C.2   1 <1>  -0.2330 
  5 C       -0.7840    -3.1430     0.1580 C.ar  1 <1>   0.0000 
  6 C        1.4040    -3.5040     0.3640 C.2   1 <1>  -0.3320 
  7 C       -0.5550    -4.5140     0.1490 C.ar  1 <1>  -0.1520 
  8 C       -2.0950    -2.6700     0.0400 C.ar  1 <1>  -0.1500 
  9 N        0.7960    -4.7230     0.2780 N.pl3 1 <1>   0.0480 
 10 C        2.9120    -3.3570     0.5190 C.3   1 <1>  -0.0600 
 11 C       -1.6130    -5.4200     0.0200 C.ar  1 <1>  -0.1500 
 12 C       -3.1460    -3.5610    -0.0830 C.ar  1 <1>   0.0820 
 13 C        1.4450    -6.0520     0.3080 C.3   1 <1>   0.0960 
 14 C       -2.8960    -4.9370    -0.0950 C.ar  1 <1>  -0.1500 
 15 O       -4.4520    -3.1850    -0.1970 O.3   1 <1>  -0.3620 
 16 C        1.7220    -6.5480    -1.1140 C.3   1 <1>  -0.2400 
 17 C       -4.7880    -1.8160    -0.1290 C.3   1 <1>   0.0400 
 18 H       -2.2350    -1.6070     0.0520 H     1 <1>   0.1500 
 19 H        3.1910    -2.3240     0.6120 H     1 <1>   0.0800 
 20 H        3.4110    -3.7610    -0.3410 H     1 <1>   0.0800 
 21 H        3.2460    -3.8670     1.4030 H     1 <1>   0.0800 
 22 H       -1.4210    -6.4760     0.0100 H     1 <1>   0.1500 
 23 H        0.7970    -6.7370     0.8230 H     1 <1>   0.0800 
 24 H        2.3630    -5.9810     0.8610 H     1 <1>   0.0800 
 25 H       -3.7300    -5.6060    -0.1940 H     1 <1>   0.1500 
 26 H        0.8010    -6.6310    -1.6630 H     1 <1>   0.0800 
 27 H        2.1940    -7.5130    -1.0820 H     1 <1>   0.0800 
 28 H        2.3730    -5.8600    -1.6230 H     1 <1>   0.0800 
 29 H       -5.8550    -1.7270    -0.2090 H     1 <1>   0.0800 
 30 H       -4.3130    -1.3000    -0.9450 H     1 <1>   0.0800 
 31 H       -4.4540    -1.4220     0.8150 H     1 <1>   0.0800 
@<TRIPOS>BOND
  1   1   2  ar  
  2   2   3  ar  
  3   2   4  1   
  4   4   5  1   
  5   4   6  2   
  6   5   7  ar  
  7   5   8  ar  
  8   6   9  1   
  9   6  10  1   
 10   7   9  1   
 11   7  11  ar  
 12   8  12  ar  
 13   8  18  1   
 14   9  13  1   
 15  10  19  1   
 16  10  20  1   
 17  10  21  1   
 18  11  14  ar  
 19  11  22  1   
 20  12  14  ar  
 21  12  15  1   
 22  13  16  1   
 23  13  23  1   
 24  13  24  1   
 25  14  25  1   
 26  15  17  1   
 27  16  26  1   
 28  16  27  1   
 29  16  28  1   
 30  17  29  1   
 31  17  30  1   
 32  17  31  1   
@<TRIPOS>SUBSTRUCTURE
  1 ****   5 GROUP 4 **** **** 0

# MOE 2024.06 (io_trps.svl 2023.06)
