@<TRIPOS>MOLECULE
8-(4-Ethyl-piperazin-1-yl)-3-methyl-7-(2-oxo-2-phenyl-ethyl)-3,7-dihydro-purine-
55 58 1 0 0 
SMALL
USER_CHARGES


@<TRIPOS>ATOM
  1 O        0.7790     1.7310    -2.3310 O.2   1 <1>  -0.5740 
  2 C        1.9260     2.0670    -2.1500 C.2   1 <1>   0.6860 
  3 N        2.8680     1.2160    -1.5890 N.am  1 <1>  -0.4410 
  4 N        2.2980     3.3290    -2.5090 N.am  1 <1>  -0.4950 
  5 C        4.1510     1.7090    -1.4060 C.2   1 <1>   0.4210 
  6 C        2.4960    -0.1720    -1.1830 C.3   1 <1>   0.0530 
  7 C        3.5580     3.8240    -2.3410 C.2   1 <1>   0.6990 
  8 N        5.2150     1.0680    -0.8540 N.pl3 1 <1>  -0.7040 
  9 C        4.5400     2.9550    -1.7590 C.2   1 <1>   0.2710 
 10 O        3.7950     4.9670    -2.6760 O.2   1 <1>  -0.5740 
 11 C        6.2660     1.8900    -0.8680 C.cat 1 <1>   1.0690 
 12 N        5.9040     3.0650    -1.4120 N.pl3 1 <1>  -0.7670 
 13 N        7.4820     1.5140    -0.3950 N.pl3 1 <1>  -0.5960 
 14 C        6.5920     4.4060    -1.3010 C.3   1 <1>   0.4100 
 15 C        7.6050     0.8040     0.9260 C.3   1 <1>   0.1610 
 16 C        8.7780     2.0720    -0.9110 C.3   1 <1>   0.1610 
 17 C        6.6910     4.8900     0.1540 C.2   1 <1>   0.4180 
 18 C        8.7990    -0.1750     0.9840 C.3   1 <1>   0.3370 
 19 C        9.9420     1.0590    -0.8330 C.3   1 <1>   0.3370 
 20 O        7.2340     4.1300     0.9210 O.2   1 <1>  -0.5740 
 21 C        6.1740     6.1820     0.5690 C.ar  1 <1>   0.0790 
 22 N       10.0800     0.4670     0.5370 N.4   1 <1>  -0.9610 
 23 C        6.5550     6.7010     1.8100 C.ar  1 <1>  -0.1570 
 24 C        5.2970     6.9640    -0.1940 C.ar  1 <1>  -0.1570 
 25 C       11.2250    -0.4850     0.5780 C.3   1 <1>   0.3370 
 26 C        6.1010     7.9250     2.2640 C.ar  1 <1>  -0.1570 
 27 C        4.8410     8.1900     0.2550 C.ar  1 <1>  -0.1570 
 28 C       11.6020    -0.7660     2.0260 C.3   1 <1>  -0.2460 
 29 C        5.2420     8.6750     1.4840 C.ar  1 <1>  -0.1570 
 30 H        1.5810     3.9270    -2.9170 H     1 <1>   0.3640 
 31 H        1.5290    -0.4390    -1.5740 H     1 <1>   0.0730 
 32 H        2.4570    -0.2400    -0.1090 H     1 <1>   0.0730 
 33 H        3.2150    -0.8760    -1.5640 H     1 <1>   0.0730 
 34 H        5.2120     0.1070    -0.5260 H     1 <1>   0.4450 
 35 H        6.0970     5.1270    -1.9190 H     1 <1>   0.0730 
 36 H        7.5890     4.3290    -1.6910 H     1 <1>   0.0730 
 37 H        6.7030     0.2630     1.1540 H     1 <1>   0.0730 
 38 H        7.7330     1.5430     1.7000 H     1 <1>   0.0730 
 39 H        9.0490     2.9410    -0.3360 H     1 <1>   0.0730 
 40 H        8.6610     2.3740    -1.9380 H     1 <1>   0.0730 
 41 H        8.5870    -1.0250     0.3570 H     1 <1>   0.0730 
 42 H        8.9050    -0.5340     1.9950 H     1 <1>   0.0730 
 43 H       10.8590     1.5560    -1.1060 H     1 <1>   0.0730 
 44 H        9.7700     0.2730    -1.5490 H     1 <1>   0.0730 
 45 H       10.3100     1.2260     1.1980 H     1 <1>   0.4450 
 46 H        7.2220     6.1400     2.4410 H     1 <1>   0.1430 
 47 H        4.9370     6.6460    -1.1520 H     1 <1>   0.1430 
 48 H       12.0760    -0.0500     0.0770 H     1 <1>   0.0730 
 49 H       10.9690    -1.4030     0.0740 H     1 <1>   0.0730 
 50 H        6.4150     8.2970     3.2240 H     1 <1>   0.1430 
 51 H        4.1690     8.7730    -0.3520 H     1 <1>   0.1430 
 52 H       11.8380     0.1450     2.5470 H     1 <1>   0.0730 
 53 H       12.4790    -1.3890     2.0420 H     1 <1>   0.0730 
 54 H       10.8240    -1.2930     2.5460 H     1 <1>   0.0730 
 55 H        4.8880     9.6300     1.8340 H     1 <1>   0.1430 
@<TRIPOS>BOND
  1   1   2  2   
  2   2   3  am  
  3   2   4  am  
  4   3   5  1   
  5   3   6  1   
  6   4   7  am  
  7   4  30  1   
  8   5   8  1   
  9   5   9  2   
 10   6  31  1   
 11   6  32  1   
 12   6  33  1   
 13   7   9  1   
 14   7  10  2   
 15   8  11  ar  
 16   8  34  1   
 17   9  12  1   
 18  11  12  ar  
 19  11  13  ar  
 20  12  14  1   
 21  13  15  1   
 22  13  16  1   
 23  14  17  1   
 24  14  35  1   
 25  14  36  1   
 26  15  18  1   
 27  15  37  1   
 28  15  38  1   
 29  16  19  1   
 30  16  39  1   
 31  16  40  1   
 32  17  20  2   
 33  17  21  1   
 34  18  22  1   
 35  18  41  1   
 36  18  42  1   
 37  19  22  1   
 38  19  43  1   
 39  19  44  1   
 40  21  23  ar  
 41  21  24  ar  
 42  22  25  1   
 43  22  45  1   
 44  23  26  ar  
 45  23  46  1   
 46  24  27  ar  
 47  24  47  1   
 48  25  28  1   
 49  25  48  1   
 50  25  49  1   
 51  26  29  ar  
 52  26  50  1   
 53  27  29  ar  
 54  27  51  1   
 55  28  52  1   
 56  28  53  1   
 57  28  54  1   
 58  29  55  1   
@<TRIPOS>SUBSTRUCTURE
  1 ****  12 GROUP 4 **** **** 0

# MOE 2024.06 (io_trps.svl 2023.06)
