@<TRIPOS>MOLECULE
4-(Morpholine-4-sulfonyl)-piperazine-1-sulfonic acid dimethylamide
43 44 1 0 0 
SMALL
USER_CHARGES


@<TRIPOS>ATOM
  1 S       -0.1740    -0.1790     1.6190 S.o2  1 <1>   1.5760 
  2 O       -0.4030    -1.4490     2.2690 O.2   1 <1>  -0.6500 
  3 O        0.1660     0.9950     2.3900 O.2   1 <1>  -0.6500 
  4 N        0.9930    -0.3870     0.4210 N.am  1 <1>  -0.8490 
  5 N       -1.5130     0.1740     0.6600 N.am  1 <1>  -0.8490 
  6 C        2.2160    -0.9790     0.9780 C.3   1 <1>   0.1960 
  7 C        1.3280     0.8810    -0.2450 C.3   1 <1>   0.1960 
  8 C       -1.9720    -1.0050    -0.0960 C.3   1 <1>   0.1960 
  9 C       -2.6200     0.6960     1.4760 C.3   1 <1>   0.1960 
 10 C        3.2940    -1.1450    -0.1090 C.3   1 <1>   0.1200 
 11 C        2.4220     0.6710    -1.3070 C.3   1 <1>   0.1200 
 12 C       -3.2050    -0.6780    -0.9590 C.3   1 <1>   0.1960 
 13 C       -3.8540     1.0220     0.6150 C.3   1 <1>   0.1960 
 14 O        3.5560     0.0790    -0.7370 O.3   1 <1>  -0.5600 
 15 N       -4.3110    -0.1550    -0.1440 N.am  1 <1>  -0.8490 
 16 S       -5.6470     0.2020    -1.1070 S.o2  1 <1>   1.5760 
 17 O       -5.9960    -0.9800    -1.8630 O.2   1 <1>  -0.6500 
 18 O       -5.3920     1.4570    -1.7770 O.2   1 <1>  -0.6500 
 19 N       -6.8210     0.4380     0.0880 N.am  1 <1>  -0.8490 
 20 C       -7.1740    -0.8070     0.7750 C.3   1 <1>   0.1160 
 21 C       -8.0220     1.0690    -0.4600 C.3   1 <1>   0.1160 
 22 H        1.9900    -1.9460     1.3960 H     1 <1>   0.0800 
 23 H        2.6040    -0.3560     1.7670 H     1 <1>   0.0800 
 24 H        1.6780     1.6030     0.4750 H     1 <1>   0.0800 
 25 H        0.4500     1.2850    -0.7190 H     1 <1>   0.0800 
 26 H       -2.2270    -1.8050     0.5790 H     1 <1>   0.0800 
 27 H       -1.1800    -1.3520    -0.7370 H     1 <1>   0.0800 
 28 H       -2.3020     1.5940     1.9780 H     1 <1>   0.0800 
 29 H       -2.8960    -0.0260     2.2280 H     1 <1>   0.0800 
 30 H        2.9730    -1.8520    -0.8540 H     1 <1>   0.0800 
 31 H        4.2130    -1.4930     0.3280 H     1 <1>   0.0800 
 32 H        2.7210     1.6150    -1.7260 H     1 <1>   0.0800 
 33 H        2.0630     0.0370    -2.0980 H     1 <1>   0.0800 
 34 H       -3.5240    -1.5770    -1.4590 H     1 <1>   0.0800 
 35 H       -2.9280     0.0420    -1.7120 H     1 <1>   0.0800 
 36 H       -3.6020     1.8260    -0.0570 H     1 <1>   0.0800 
 37 H       -4.6470     1.3640     1.2580 H     1 <1>   0.0800 
 38 H       -6.2940    -1.2520     1.2090 H     1 <1>   0.0800 
 39 H       -7.6100    -1.5110     0.0840 H     1 <1>   0.0800 
 40 H       -7.8760    -0.6070     1.5650 H     1 <1>   0.0800 
 41 H       -7.7680     2.0200    -0.8990 H     1 <1>   0.0800 
 42 H       -8.7410     1.2410     0.3230 H     1 <1>   0.0800 
 43 H       -8.4640     0.4430    -1.2170 H     1 <1>   0.0800 
@<TRIPOS>BOND
  1   1   2  2   
  2   1   3  2   
  3   1   4  am  
  4   1   5  am  
  5   4   6  1   
  6   4   7  1   
  7   5   8  1   
  8   5   9  1   
  9   6  10  1   
 10   6  22  1   
 11   6  23  1   
 12   7  11  1   
 13   7  24  1   
 14   7  25  1   
 15   8  12  1   
 16   8  26  1   
 17   8  27  1   
 18   9  13  1   
 19   9  28  1   
 20   9  29  1   
 21  10  14  1   
 22  10  30  1   
 23  10  31  1   
 24  11  14  1   
 25  11  32  1   
 26  11  33  1   
 27  12  15  1   
 28  12  34  1   
 29  12  35  1   
 30  13  15  1   
 31  13  36  1   
 32  13  37  1   
 33  15  16  am  
 34  16  17  2   
 35  16  18  2   
 36  16  19  am  
 37  19  20  1   
 38  19  21  1   
 39  20  38  1   
 40  20  39  1   
 41  20  40  1   
 42  21  41  1   
 43  21  42  1   
 44  21  43  1   
@<TRIPOS>SUBSTRUCTURE
  1 ****   5 GROUP 4 **** **** 0

# MOE 2024.06 (io_trps.svl 2023.06)
