@<TRIPOS>MOLECULE
4-Chloro-N-(3-methoxy-propyl)-3-(morpholine-4-sulfonyl)-benzamide
45 46 1 0 0 
SMALL
USER_CHARGES


@<TRIPOS>ATOM
  1 CL       0.3210     0.1170     2.5800 Cl    1 <1>  -0.1770 
  2 C        1.5790    -0.8200     1.8170 C.ar  1 <1>   0.1770 
  3 C        1.3420    -2.0720     1.2610 C.ar  1 <1>  -0.0090 
  4 C        2.8330    -0.2370     1.7800 C.ar  1 <1>  -0.1500 
  5 S       -0.2810    -2.8780     1.2610 S.o2  1 <1>   1.4470 
  6 C        2.4190    -2.7020     0.6470 C.ar  1 <1>  -0.1500 
  7 C        3.8820    -0.8950     1.1690 C.ar  1 <1>  -0.1500 
  8 O       -0.0630    -4.3040     1.1510 O.2   1 <1>  -0.6500 
  9 O       -1.1540    -2.4080     2.3120 O.2   1 <1>  -0.6500 
 10 N       -0.9550    -2.3830    -0.2130 N.am  1 <1>  -0.8490 
 11 C        3.6990    -2.1480     0.5850 C.ar  1 <1>   0.0860 
 12 C       -1.4990    -1.0140    -0.1710 C.3   1 <1>   0.1960 
 13 C       -2.0090    -3.3070    -0.6630 C.3   1 <1>   0.1960 
 14 C        4.7830    -2.8550    -0.0720 C.2   1 <1>   0.5440 
 15 C       -2.1130    -0.6180    -1.5260 C.3   1 <1>   0.1200 
 16 C       -2.6170    -2.8530    -2.0030 C.3   1 <1>   0.1200 
 17 O        4.5590    -3.5800    -1.0210 O.2   1 <1>  -0.5700 
 18 N        6.0700    -2.7290     0.3690 N.am  1 <1>  -0.7300 
 19 O       -3.0920    -1.5400    -1.9100 O.3   1 <1>  -0.5600 
 20 C        7.2390    -3.3840    -0.2530 C.3   1 <1>   0.1400 
 21 C        8.4650    -2.4920    -0.0780 C.3   1 <1>  -0.1600 
 22 C        9.6880    -3.1190    -0.7420 C.3   1 <1>   0.1200 
 23 O       10.7690    -2.2800    -0.5070 O.3   1 <1>  -0.5600 
 24 C       11.9600    -2.7190    -1.0760 C.3   1 <1>   0.0400 
 25 H        2.9800     0.7320     2.2240 H     1 <1>   0.1500 
 26 H        2.2660    -3.6670     0.1900 H     1 <1>   0.1500 
 27 H        4.8510    -0.4270     1.1330 H     1 <1>   0.1500 
 28 H       -0.7140    -0.3190     0.0640 H     1 <1>   0.0800 
 29 H       -2.2580    -0.9340     0.5900 H     1 <1>   0.0800 
 30 H       -2.7890    -3.3680     0.0790 H     1 <1>   0.0800 
 31 H       -1.5960    -4.2940    -0.7930 H     1 <1>   0.0800 
 32 H       -1.3540    -0.5830    -2.2890 H     1 <1>   0.0800 
 33 H       -2.5810     0.3480    -1.4550 H     1 <1>   0.0800 
 34 H       -3.4450    -3.4850    -2.2690 H     1 <1>   0.0800 
 35 H       -1.8790    -2.8990    -2.7850 H     1 <1>   0.0800 
 36 H        6.2590    -2.2370     1.2420 H     1 <1>   0.3700 
 37 H        7.0480    -3.5480    -1.3010 H     1 <1>   0.0800 
 38 H        7.4000    -4.3390     0.2180 H     1 <1>   0.0800 
 39 H        8.6690    -2.3600     0.9700 H     1 <1>   0.0800 
 40 H        8.2790    -1.5350    -0.5320 H     1 <1>   0.0800 
 41 H        9.5410    -3.2070    -1.8050 H     1 <1>   0.0800 
 42 H        9.9030    -4.0840    -0.3160 H     1 <1>   0.0800 
 43 H       12.7270    -2.0050    -0.8360 H     1 <1>   0.0800 
 44 H       11.8430    -2.7790    -2.1440 H     1 <1>   0.0800 
 45 H       12.2180    -3.6800    -0.6660 H     1 <1>   0.0800 
@<TRIPOS>BOND
  1   1   2  1   
  2   2   3  ar  
  3   2   4  ar  
  4   3   5  1   
  5   3   6  ar  
  6   4   7  ar  
  7   4  25  1   
  8   5   8  2   
  9   5   9  2   
 10   5  10  am  
 11   6  11  ar  
 12   6  26  1   
 13   7  11  ar  
 14   7  27  1   
 15  10  12  1   
 16  10  13  1   
 17  11  14  1   
 18  12  15  1   
 19  12  28  1   
 20  12  29  1   
 21  13  16  1   
 22  13  30  1   
 23  13  31  1   
 24  14  17  2   
 25  14  18  am  
 26  15  19  1   
 27  15  32  1   
 28  15  33  1   
 29  16  19  1   
 30  16  34  1   
 31  16  35  1   
 32  18  20  1   
 33  18  36  1   
 34  20  21  1   
 35  20  37  1   
 36  20  38  1   
 37  21  22  1   
 38  21  39  1   
 39  21  40  1   
 40  22  23  1   
 41  22  41  1   
 42  22  42  1   
 43  23  24  1   
 44  24  43  1   
 45  24  44  1   
 46  24  45  1   
@<TRIPOS>SUBSTRUCTURE
  1 ****   6 GROUP 4 **** **** 0

# MOE 2024.06 (io_trps.svl 2023.06)
