@<TRIPOS>MOLECULE
2-(4-Benzyl-piperazin-1-yl)-N-(5-fluoro-2-methyl-phenyl)-acetamide
50 52 1 0 0 
SMALL
USER_CHARGES


@<TRIPOS>ATOM
  1 F        2.3290    -0.4300    -2.4340 F     1 <1>  -0.1900 
  2 C        2.8440     0.4870    -1.6590 C.ar  1 <1>   0.1900 
  3 C        4.0840     0.2660    -1.1020 C.ar  1 <1>  -0.1500 
  4 C        2.1250     1.6410    -1.4290 C.ar  1 <1>  -0.1500 
  5 C        4.6450     1.2320    -0.2760 C.ar  1 <1>   0.1170 
  6 C        2.6830     2.6070    -0.6100 C.ar  1 <1>  -0.1500 
  7 N        5.9150     0.9670     0.2550 N.am  1 <1>  -0.5470 
  8 C        3.9340     2.4170    -0.0370 C.ar  1 <1>  -0.1430 
  9 C        6.3280     0.9050     1.5560 C.2   1 <1>   0.5690 
 10 C        4.4850     3.5340     0.8400 C.3   1 <1>  -0.0960 
 11 O        5.6320     1.1850     2.4990 O.2   1 <1>  -0.5700 
 12 C        7.7680     0.4520     1.8130 C.3   1 <1>   0.1710 
 13 N        8.7620     0.9240     0.7960 N.3   1 <1>  -0.8100 
 14 C       10.0590     0.2400     0.9830 C.3   1 <1>   0.1100 
 15 C        8.9230     2.3960     0.8580 C.3   1 <1>   0.1100 
 16 C       11.1080     0.7130    -0.0450 C.3   1 <1>   0.3430 
 17 C        9.9530     2.9040    -0.1730 C.3   1 <1>   0.3430 
 18 N       11.2750     2.2090    -0.0200 N.4   1 <1>  -0.9590 
 19 C       12.2690     2.6680    -1.0260 C.3   1 <1>   0.4860 
 20 C       13.6150     2.0690    -0.6700 C.ar  1 <1>  -0.1430 
 21 C       14.1320     1.0200    -1.4170 C.ar  1 <1>  -0.1500 
 22 C       14.3350     2.5580     0.4120 C.ar  1 <1>  -0.1500 
 23 C       15.3490     0.4560    -1.0760 C.ar  1 <1>  -0.1500 
 24 C       15.5510     1.9920     0.7510 C.ar  1 <1>  -0.1500 
 25 C       16.0570     0.9400     0.0090 C.ar  1 <1>  -0.1500 
 26 H        4.6000    -0.6530    -1.3060 H     1 <1>   0.1500 
 27 H        1.1580     1.7770    -1.8780 H     1 <1>   0.1500 
 28 H        2.1320     3.5130    -0.4200 H     1 <1>   0.1500 
 29 H        6.6210     0.6530    -0.4110 H     1 <1>   0.3700 
 30 H        5.5490     3.6220     0.7230 H     1 <1>   0.0800 
 31 H        4.2630     3.3260     1.8710 H     1 <1>   0.0800 
 32 H        4.0410     4.4780     0.5810 H     1 <1>   0.0800 
 33 H        7.7580    -0.6230     1.8290 H     1 <1>   0.0800 
 34 H        8.0580     0.7880     2.7940 H     1 <1>   0.0800 
 35 H        9.9200    -0.8220     0.8660 H     1 <1>   0.0800 
 36 H       10.4300     0.4150     1.9790 H     1 <1>   0.0800 
 37 H        9.2290     2.6930     1.8470 H     1 <1>   0.0800 
 38 H        7.9780     2.8710     0.6540 H     1 <1>   0.0800 
 39 H       10.7900     0.3990    -1.0250 H     1 <1>   0.0800 
 40 H       12.0500     0.2340     0.1680 H     1 <1>   0.0800 
 41 H       10.0790     3.9670    -0.0520 H     1 <1>   0.0800 
 42 H        9.5600     2.7240    -1.1600 H     1 <1>   0.0800 
 43 H       11.6630     2.4420     0.9020 H     1 <1>   0.4500 
 44 H       12.3450     3.7430    -1.0150 H     1 <1>   0.0800 
 45 H       11.9750     2.3540    -2.0150 H     1 <1>   0.0800 
 46 H       13.6040     0.6290    -2.2700 H     1 <1>   0.1500 
 47 H       13.9690     3.3820     1.0000 H     1 <1>   0.1500 
 48 H       15.7520    -0.3590    -1.6550 H     1 <1>   0.1500 
 49 H       16.1120     2.3710     1.5900 H     1 <1>   0.1500 
 50 H       17.0040     0.5010     0.2730 H     1 <1>   0.1500 
@<TRIPOS>BOND
  1   1   2  1   
  2   2   3  ar  
  3   2   4  ar  
  4   3   5  ar  
  5   3  26  1   
  6   4   6  ar  
  7   4  27  1   
  8   5   7  1   
  9   5   8  ar  
 10   6   8  ar  
 11   6  28  1   
 12   7   9  am  
 13   7  29  1   
 14   8  10  1   
 15   9  11  2   
 16   9  12  1   
 17  10  30  1   
 18  10  31  1   
 19  10  32  1   
 20  12  13  1   
 21  12  33  1   
 22  12  34  1   
 23  13  14  1   
 24  13  15  1   
 25  14  16  1   
 26  14  35  1   
 27  14  36  1   
 28  15  17  1   
 29  15  37  1   
 30  15  38  1   
 31  16  18  1   
 32  16  39  1   
 33  16  40  1   
 34  17  18  1   
 35  17  41  1   
 36  17  42  1   
 37  18  19  1   
 38  18  43  1   
 39  19  20  1   
 40  19  44  1   
 41  19  45  1   
 42  20  21  ar  
 43  20  22  ar  
 44  21  23  ar  
 45  21  46  1   
 46  22  24  ar  
 47  22  47  1   
 48  23  25  ar  
 49  23  48  1   
 50  24  25  ar  
 51  24  49  1   
 52  25  50  1   
@<TRIPOS>SUBSTRUCTURE
  1 ****  13 GROUP 4 **** **** 0

# MOE 2024.06 (io_trps.svl 2023.06)
