@<TRIPOS>MOLECULE
8-(3-Methoxy-propyl)-1,6,7-trimethyl-3-(2-piperidin-1-yl-ethyl)-1H,8H-imidazo[2,
64 67 1 0 0 
SMALL
USER_CHARGES


@<TRIPOS>ATOM
  1 O        0.5860    -0.0360    -0.8520 O.2   1 <1>  -0.5730 
  2 C        1.5870     0.6480    -0.7920 C.2   1 <1>   0.6870 
  3 N        1.4520     2.0300    -0.7770 N.am  1 <1>  -0.4240 
  4 N        2.8440     0.0690    -0.7000 N.am  1 <1>  -0.4400 
  5 C        2.5360     2.8530    -0.5060 C.2   1 <1>   0.7000 
  6 C        0.1080     2.6230    -1.0680 C.3   1 <1>   0.1340 
  7 C        3.9300     0.9000    -0.4920 C.2   1 <1>   0.4220 
  8 C        3.0150    -1.4140    -0.7840 C.3   1 <1>   0.0540 
  9 O        2.3530     4.0480    -0.3490 O.2   1 <1>  -0.5730 
 10 C        3.8250     2.2480    -0.3900 C.2   1 <1>   0.2720 
 11 C       -0.8030     2.5210     0.1670 C.3   1 <1>   0.3380 
 12 N        5.2350     0.5380    -0.3420 N.pl3 1 <1>  -0.7030 
 13 N        5.1270     2.7270    -0.1670 N.pl3 1 <1>  -0.6320 
 14 N       -2.1890     3.0190    -0.0890 N.4   1 <1>  -0.9600 
 15 C        5.9300     1.6680    -0.1470 C.cat 1 <1>   1.0690 
 16 C        5.9210     3.8350     0.0410 C.2   1 <1>   0.2360 
 17 C       -2.2420     4.4960    -0.3110 C.3   1 <1>   0.3380 
 18 C       -3.0840     2.6140     1.0320 C.3   1 <1>   0.3380 
 19 N        7.2110     2.0160     0.0620 N.pl3 1 <1>  -0.5710 
 20 C        7.1970     3.4000     0.1810 C.2   1 <1>   0.1590 
 21 C        5.3150     5.2250     0.0770 C.3   1 <1>  -0.1080 
 22 C       -3.6670     4.9090    -0.6800 C.3   1 <1>  -0.1660 
 23 C       -4.5300     2.9820     0.6950 C.3   1 <1>  -0.1660 
 24 C        8.4410     1.1750     0.1600 C.3   1 <1>   0.1620 
 25 C        8.4710     4.1920     0.4280 C.3   1 <1>  -0.1080 
 26 C       -4.6780     4.4780     0.3900 C.3   1 <1>  -0.1660 
 27 C        8.1440    -0.3140    -0.0140 C.3   1 <1>  -0.1660 
 28 C        9.4020    -1.1670     0.0850 C.3   1 <1>   0.1140 
 29 O        8.9830    -2.4750    -0.0890 O.3   1 <1>  -0.5630 
 30 C       10.0110    -3.4100    -0.0300 C.3   1 <1>   0.0340 
 31 H       -0.3380     2.0840    -1.8860 H     1 <1>   0.0740 
 32 H        0.2160     3.6510    -1.3670 H     1 <1>   0.0740 
 33 H        2.1440    -1.8740    -1.2190 H     1 <1>   0.0740 
 34 H        3.1600    -1.8210     0.2010 H     1 <1>   0.0740 
 35 H        3.8620    -1.6580    -1.4010 H     1 <1>   0.0740 
 36 H       -0.3670     3.0820     0.9780 H     1 <1>   0.0740 
 37 H       -0.8560     1.4840     0.4600 H     1 <1>   0.0740 
 38 H        5.6450    -0.3950    -0.3580 H     1 <1>   0.4460 
 39 H       -2.5660     2.5640    -0.9320 H     1 <1>   0.4460 
 40 H       -1.5740     4.7810    -1.1070 H     1 <1>   0.0740 
 41 H       -1.9400     5.0100     0.5880 H     1 <1>   0.0740 
 42 H       -2.7860     3.1180     1.9380 H     1 <1>   0.0740 
 43 H       -3.0150     1.5500     1.1950 H     1 <1>   0.0740 
 44 H        4.5920     5.2910     0.8710 H     1 <1>   0.0740 
 45 H        4.8230     5.4370    -0.8550 H     1 <1>   0.0740 
 46 H        6.0690     5.9720     0.2420 H     1 <1>   0.0740 
 47 H       -3.9310     4.4770    -1.6290 H     1 <1>   0.0740 
 48 H       -3.7050     5.9790    -0.7920 H     1 <1>   0.0740 
 49 H       -5.1610     2.7260     1.5280 H     1 <1>   0.0740 
 50 H       -4.8600     2.4000    -0.1480 H     1 <1>   0.0740 
 51 H        8.8980     1.3360     1.1230 H     1 <1>   0.0740 
 52 H        9.1390     1.4880    -0.5990 H     1 <1>   0.0740 
 53 H        9.1680     4.0350    -0.3750 H     1 <1>   0.0740 
 54 H        8.9270     3.8840     1.3520 H     1 <1>   0.0740 
 55 H        8.2640     5.2450     0.4920 H     1 <1>   0.0740 
 56 H       -5.6800     4.6870     0.0540 H     1 <1>   0.0740 
 57 H       -4.5090     5.0450     1.2910 H     1 <1>   0.0740 
 58 H        7.7170    -0.4860    -0.9860 H     1 <1>   0.0740 
 59 H        7.4750    -0.6410     0.7620 H     1 <1>   0.0740 
 60 H        9.8660    -1.0760     1.0540 H     1 <1>   0.0740 
 61 H       10.1070    -0.9210    -0.6920 H     1 <1>   0.0740 
 62 H        9.5850    -4.3870    -0.1760 H     1 <1>   0.0740 
 63 H       10.4830    -3.3620     0.9370 H     1 <1>   0.0740 
 64 H       10.7240    -3.2070    -0.8110 H     1 <1>   0.0740 
@<TRIPOS>BOND
  1   1   2  2   
  2   2   3  am  
  3   2   4  am  
  4   3   5  am  
  5   3   6  1   
  6   4   7  1   
  7   4   8  1   
  8   5   9  2   
  9   5  10  1   
 10   6  11  1   
 11   6  31  1   
 12   6  32  1   
 13   7  10  2   
 14   7  12  1   
 15   8  33  1   
 16   8  34  1   
 17   8  35  1   
 18  10  13  1   
 19  11  14  1   
 20  11  36  1   
 21  11  37  1   
 22  12  15  ar  
 23  12  38  1   
 24  13  15  ar  
 25  13  16  1   
 26  14  17  1   
 27  14  18  1   
 28  14  39  1   
 29  15  19  ar  
 30  16  20  2   
 31  16  21  1   
 32  17  22  1   
 33  17  40  1   
 34  17  41  1   
 35  18  23  1   
 36  18  42  1   
 37  18  43  1   
 38  19  20  1   
 39  19  24  1   
 40  20  25  1   
 41  21  44  1   
 42  21  45  1   
 43  21  46  1   
 44  22  26  1   
 45  22  47  1   
 46  22  48  1   
 47  23  26  1   
 48  23  49  1   
 49  23  50  1   
 50  24  27  1   
 51  24  51  1   
 52  24  52  1   
 53  25  53  1   
 54  25  54  1   
 55  25  55  1   
 56  26  56  1   
 57  26  57  1   
 58  27  28  1   
 59  27  58  1   
 60  27  59  1   
 61  28  29  1   
 62  28  60  1   
 63  28  61  1   
 64  29  30  1   
 65  30  62  1   
 66  30  63  1   
 67  30  64  1   
@<TRIPOS>SUBSTRUCTURE
  1 ****  10 GROUP 4 **** **** 0

# MOE 2024.06 (io_trps.svl 2023.06)
