@<TRIPOS>MOLECULE
N-(Morpholine-4-carbonyl)-benzamide
31 32 1 0 0 
SMALL
USER_CHARGES


@<TRIPOS>ATOM
  1 O       -0.7370    -1.2620    -2.5120 O.2   1 <1>  -0.5700 
  2 C       -0.9750    -1.9110    -1.5150 C.2   1 <1>   0.6900 
  3 N       -2.1930    -1.8010    -0.8960 N.am  1 <1>  -0.6600 
  4 N        0.0090    -2.7640    -1.1270 N.am  1 <1>  -0.4900 
  5 C       -3.0530    -0.5970    -1.0870 C.3   1 <1>   0.1400 
  6 C       -2.7970    -2.7970     0.0370 C.3   1 <1>   0.1400 
  7 C        0.4910    -3.0970     0.1120 C.2   1 <1>   0.5440 
  8 C       -3.4910    -0.0330     0.2760 C.3   1 <1>   0.1200 
  9 C       -3.2300    -2.1060     1.3400 C.3   1 <1>   0.1200 
 10 O        0.0150    -2.5910     1.1060 O.2   1 <1>  -0.5700 
 11 C        1.5970    -4.0320     0.2160 C.ar  1 <1>   0.0860 
 12 O       -4.0840    -1.0300     1.0620 O.3   1 <1>  -0.5600 
 13 C        1.8150    -5.0330    -0.7360 C.ar  1 <1>  -0.1500 
 14 C        2.4930    -3.9610     1.2840 C.ar  1 <1>  -0.1500 
 15 C        2.8820    -5.9070    -0.6320 C.ar  1 <1>  -0.1500 
 16 C        3.5600    -4.8330     1.3940 C.ar  1 <1>  -0.1500 
 17 C        3.7580    -5.8080     0.4330 C.ar  1 <1>  -0.1500 
 18 H        0.6650    -2.8930    -1.8880 H     1 <1>   0.3700 
 19 H       -3.9220    -0.8680    -1.6590 H     1 <1>   0.0800 
 20 H       -2.5190     0.1640    -1.6300 H     1 <1>   0.0800 
 21 H       -2.1110    -3.5930     0.2550 H     1 <1>   0.0800 
 22 H       -3.6630    -3.2320    -0.4290 H     1 <1>   0.0800 
 23 H       -4.2130     0.7510     0.1390 H     1 <1>   0.0800 
 24 H       -2.6430     0.3650     0.8070 H     1 <1>   0.0800 
 25 H       -2.3710    -1.7400     1.8780 H     1 <1>   0.0800 
 26 H       -3.7630    -2.7960     1.9690 H     1 <1>   0.0800 
 27 H        1.1410    -5.1420    -1.5670 H     1 <1>   0.1500 
 28 H        2.3460    -3.2070     2.0390 H     1 <1>   0.1500 
 29 H        3.0320    -6.6700    -1.3770 H     1 <1>   0.1500 
 30 H        4.2380    -4.7550     2.2270 H     1 <1>   0.1500 
 31 H        4.5890    -6.4880     0.5160 H     1 <1>   0.1500 
@<TRIPOS>BOND
  1   1   2  2   
  2   2   3  am  
  3   2   4  am  
  4   3   5  1   
  5   3   6  1   
  6   4   7  am  
  7   4  18  1   
  8   5   8  1   
  9   5  19  1   
 10   5  20  1   
 11   6   9  1   
 12   6  21  1   
 13   6  22  1   
 14   7  10  2   
 15   7  11  1   
 16   8  12  1   
 17   8  23  1   
 18   8  24  1   
 19   9  12  1   
 20   9  25  1   
 21   9  26  1   
 22  11  13  ar  
 23  11  14  ar  
 24  13  15  ar  
 25  13  27  1   
 26  14  16  ar  
 27  14  28  1   
 28  15  17  ar  
 29  15  29  1   
 30  16  17  ar  
 31  16  30  1   
 32  17  31  1   
@<TRIPOS>SUBSTRUCTURE
  1 ****   7 GROUP 4 **** **** 0

# MOE 2024.06 (io_trps.svl 2023.06)
