@<TRIPOS>MOLECULE
4-Hydroxy-6-methyl-2-oxo-1-propyl-1,2,5,6,7,8-hexahydro-quinoline-3-carboxylic a
43 45 1 0 0 
SMALL
USER_CHARGES


@<TRIPOS>ATOM
  1 S       -0.4050     0.0360     0.9880 S.3   1 <1>  -0.0800 
  2 C       -1.5670     1.0630     0.2100 C.2   1 <1>   0.4420 
  3 C        0.7890     1.2240     0.6070 C.2   1 <1>   0.2280 
  4 N       -1.0280     2.1420    -0.2450 N.2   1 <1>  -0.3380 
  5 N       -2.8580     0.6070     0.1920 N.am  1 <1>  -0.4940 
  6 N        0.3190     2.2260    -0.0150 N.2   1 <1>  -0.3380 
  7 C       -4.0210     1.0350    -0.3990 C.2   1 <1>   0.6160 
  8 O       -3.9260     2.0010    -1.1550 O.2   1 <1>  -0.5700 
  9 C       -5.2300     0.3250    -0.1400 C.2   1 <1>   0.0290 
 10 C       -5.2200    -0.9930     0.4060 C.2   1 <1>  -0.0500 
 11 C       -6.4910     0.9020    -0.4070 C.2   1 <1>   0.5410 
 12 O       -4.1930    -1.5140     0.8530 O.3   1 <1>  -0.8500 
 13 N       -6.3880    -1.7520     0.4590 N.pl3 1 <1>  -0.5690 
 14 O       -6.6340     2.0790    -0.7830 O.2   1 <1>  -0.5700 
 15 C       -7.6870     0.1300    -0.2150 C.2   1 <1>  -0.1240 
 16 C       -7.6240    -1.1660     0.1840 C.2   1 <1>  -0.0380 
 17 C       -6.2580    -3.1980     0.8480 C.3   1 <1>   0.2090 
 18 C       -9.0210     0.8380    -0.4820 C.3   1 <1>  -0.0220 
 19 C       -8.8910    -2.0080     0.3730 C.3   1 <1>  -0.0220 
 20 C       -6.1590    -4.1240    -0.3800 C.3   1 <1>  -0.1600 
 21 C      -10.2310     0.1020     0.1100 C.3   1 <1>  -0.0800 
 22 C      -10.1460    -1.3820    -0.2440 C.3   1 <1>  -0.1600 
 23 C       -4.8830    -3.9080    -1.2050 C.3   1 <1>  -0.2400 
 24 C      -11.5450     0.7120    -0.3950 C.3   1 <1>  -0.2400 
 25 H        1.8010     1.0340     0.9110 H     1 <1>   0.1500 
 26 H       -3.0550    -0.3110     0.6370 H     1 <1>   0.3700 
 27 H       -7.0960    -3.4820     1.4530 H     1 <1>   0.0800 
 28 H       -5.3910    -3.3410     1.4680 H     1 <1>   0.0800 
 29 H       -9.1340     0.9390    -1.5470 H     1 <1>   0.0800 
 30 H       -8.9970     1.8270    -0.0600 H     1 <1>   0.0800 
 31 H       -9.0440    -2.1410     1.4290 H     1 <1>   0.0800 
 32 H       -8.7690    -2.9760    -0.0710 H     1 <1>   0.0800 
 33 H       -7.0130    -3.9800    -1.0140 H     1 <1>   0.0800 
 34 H       -6.1720    -5.1400    -0.0330 H     1 <1>   0.0800 
 35 H      -10.1960     0.2020     1.1820 H     1 <1>   0.0800 
 36 H      -11.0160    -1.9040     0.1150 H     1 <1>   0.0800 
 37 H      -10.1050    -1.4930    -1.3140 H     1 <1>   0.0800 
 38 H       -4.8800    -2.9150    -1.6200 H     1 <1>   0.0800 
 39 H       -4.8210    -4.6210    -2.0060 H     1 <1>   0.0800 
 40 H       -4.0160    -4.0030    -0.5740 H     1 <1>   0.0800 
 41 H      -11.6200     0.6190    -1.4650 H     1 <1>   0.0800 
 42 H      -11.5930     1.7550    -0.1360 H     1 <1>   0.0800 
 43 H      -12.3850     0.2120     0.0540 H     1 <1>   0.0800 
@<TRIPOS>BOND
  1   1   2  1   
  2   1   3  1   
  3   2   4  2   
  4   2   5  1   
  5   3   6  2   
  6   3  25  1   
  7   4   6  1   
  8   5   7  am  
  9   5  26  1   
 10   7   8  2   
 11   7   9  1   
 12   9  10  2   
 13   9  11  1   
 14  10  12  1   
 15  10  13  1   
 16  11  14  2   
 17  11  15  1   
 18  13  16  1   
 19  13  17  1   
 20  15  16  2   
 21  15  18  1   
 22  16  19  1   
 23  17  20  1   
 24  17  27  1   
 25  17  28  1   
 26  18  21  1   
 27  18  29  1   
 28  18  30  1   
 29  19  22  1   
 30  19  31  1   
 31  19  32  1   
 32  20  23  1   
 33  20  33  1   
 34  20  34  1   
 35  21  22  1   
 36  21  24  1   
 37  21  35  1   
 38  22  36  1   
 39  22  37  1   
 40  23  38  1   
 41  23  39  1   
 42  23  40  1   
 43  24  41  1   
 44  24  42  1   
 45  24  43  1   
@<TRIPOS>SUBSTRUCTURE
  1 ****   9 GROUP 4 **** **** 0

# MOE 2024.06 (io_trps.svl 2023.06)
