@<TRIPOS>MOLECULE
7-(2-Hydroxy-3-p-tolyloxy-propyl)-3-methyl-8-propylamino-3,7-dihydro-purine-2,6-
54 56 1 0 0 
SMALL
USER_CHARGES


@<TRIPOS>ATOM
  1 O        1.6770     1.7080    -2.0190 O.2   1 <1>  -0.5740 
  2 C        2.8610     1.7490    -1.7760 C.2   1 <1>   0.6860 
  3 N        3.5200     0.7150    -1.1280 N.am  1 <1>  -0.4410 
  4 N        3.5640     2.8540    -2.1580 N.am  1 <1>  -0.4950 
  5 C        4.8750     0.8740    -0.8780 C.2   1 <1>   0.4210 
  6 C        2.7870    -0.5070    -0.6860 C.3   1 <1>   0.0530 
  7 C        4.9010     3.0200    -1.9360 C.2   1 <1>   0.7000 
  8 N        5.7080     0.0150    -0.2310 N.pl3 1 <1>  -0.7030 
  9 C        5.5890     1.9620    -1.2510 C.2   1 <1>   0.2710 
 10 O        5.4360     4.0360    -2.3340 O.2   1 <1>  -0.5740 
 11 C        6.9160     0.5670    -0.1870 C.cat 1 <1>   1.0690 
 12 N        6.9090     1.7440    -0.8070 N.pl3 1 <1>  -0.7670 
 13 N        7.9770     0.0150     0.3970 N.pl3 1 <1>  -0.7180 
 14 C        7.9470     2.8220    -0.8360 C.3   1 <1>   0.3480 
 15 C        8.0410    -1.2650     1.1370 C.3   1 <1>   0.1610 
 16 C        7.8390     3.7630     0.3910 C.3   1 <1>   0.1930 
 17 C        8.5740    -2.3530     0.2070 C.3   1 <1>  -0.1670 
 18 O        6.5170     4.1540     0.5870 O.3   1 <1>  -0.6840 
 19 C        8.6940     5.0210     0.2180 C.3   1 <1>   0.1130 
 20 C        8.6230    -3.7070     0.9190 C.3   1 <1>  -0.2460 
 21 O        8.2320     5.7170    -0.9180 O.3   1 <1>  -0.3680 
 22 C        8.8970     6.7920    -1.4040 C.ar  1 <1>   0.0750 
 23 C        9.9640     7.4020    -0.7520 C.ar  1 <1>  -0.1570 
 24 C        8.4710     7.2870    -2.6250 C.ar  1 <1>  -0.1570 
 25 C       10.5960     8.4900    -1.3300 C.ar  1 <1>  -0.1570 
 26 C        9.1050     8.3740    -3.1990 C.ar  1 <1>  -0.1570 
 27 C       10.1700     8.9810    -2.5540 C.ar  1 <1>  -0.1500 
 28 C       10.8660    10.1730    -3.1860 C.3   1 <1>  -0.1040 
 29 H        3.0530     3.5960    -2.6310 H     1 <1>   0.3640 
 30 H        1.8010    -0.5390    -1.1180 H     1 <1>   0.0730 
 31 H        2.6900    -0.5060     0.3850 H     1 <1>   0.0730 
 32 H        3.3180    -1.3890    -1.0000 H     1 <1>   0.0730 
 33 H        5.4660    -0.8850     0.1710 H     1 <1>   0.4450 
 34 H        8.8770     0.4760     0.2870 H     1 <1>   0.4450 
 35 H        7.8370     3.3940    -1.7420 H     1 <1>   0.0730 
 36 H        8.9300     2.3860    -0.8610 H     1 <1>   0.0730 
 37 H        7.0660    -1.5390     1.5040 H     1 <1>   0.0730 
 38 H        8.6960    -1.1550     1.9870 H     1 <1>   0.0730 
 39 H        8.1500     3.2370     1.2760 H     1 <1>   0.0730 
 40 H        9.5690    -2.1000    -0.1180 H     1 <1>   0.0730 
 41 H        7.9420    -2.4420    -0.6590 H     1 <1>   0.0730 
 42 H        6.3320     4.9260     0.0000 H     1 <1>   0.3950 
 43 H        9.7270     4.7620     0.0620 H     1 <1>   0.0730 
 44 H        8.6060     5.6640     1.0770 H     1 <1>   0.0730 
 45 H        9.2680    -3.6630     1.7800 H     1 <1>   0.0730 
 46 H        9.0070    -4.4600     0.2520 H     1 <1>   0.0730 
 47 H        7.6400    -4.0090     1.2380 H     1 <1>   0.0730 
 48 H       10.3160     7.0540     0.2000 H     1 <1>   0.1430 
 49 H        7.6420     6.8190    -3.1250 H     1 <1>   0.1430 
 50 H       11.4210     8.9560    -0.8220 H     1 <1>   0.1430 
 51 H        8.7650     8.7460    -4.1490 H     1 <1>   0.1430 
 52 H       11.2880    10.8080    -2.4280 H     1 <1>   0.0730 
 53 H       10.1670    10.7520    -3.7620 H     1 <1>   0.0730 
 54 H       11.6530     9.8330    -3.8330 H     1 <1>   0.0730 
@<TRIPOS>BOND
  1   1   2  2   
  2   2   3  am  
  3   2   4  am  
  4   3   5  1   
  5   3   6  1   
  6   4   7  am  
  7   4  29  1   
  8   5   8  1   
  9   5   9  2   
 10   6  30  1   
 11   6  31  1   
 12   6  32  1   
 13   7   9  1   
 14   7  10  2   
 15   8  11  ar  
 16   8  33  1   
 17   9  12  1   
 18  11  12  ar  
 19  11  13  ar  
 20  12  14  1   
 21  13  15  1   
 22  13  34  1   
 23  14  16  1   
 24  14  35  1   
 25  14  36  1   
 26  15  17  1   
 27  15  37  1   
 28  15  38  1   
 29  16  18  1   
 30  16  19  1   
 31  16  39  1   
 32  17  20  1   
 33  17  40  1   
 34  17  41  1   
 35  18  42  1   
 36  19  21  1   
 37  19  43  1   
 38  19  44  1   
 39  20  45  1   
 40  20  46  1   
 41  20  47  1   
 42  21  22  1   
 43  22  23  ar  
 44  22  24  ar  
 45  23  25  ar  
 46  23  48  1   
 47  24  26  ar  
 48  24  49  1   
 49  25  27  ar  
 50  25  50  1   
 51  26  27  ar  
 52  26  51  1   
 53  27  28  1   
 54  28  52  1   
 55  28  53  1   
 56  28  54  1   
@<TRIPOS>SUBSTRUCTURE
  1 ****  14 GROUP 4 **** **** 0

# MOE 2024.06 (io_trps.svl 2023.06)
