@<TRIPOS>MOLECULE
2-(2-Methoxy-benzylamino)-4,5,6,7-tetrahydro-cyclopenta[d][1,2,4]triazolo[1,5-a]
40 43 1 0 0 
SMALL
USER_CHARGES


@<TRIPOS>ATOM
  1 O       -0.0350    -1.3600     2.3760 O.2   1 <1>  -0.5700 
  2 C       -0.2460    -2.0320     1.3730 C.2   1 <1>   0.5650 
  3 N       -1.5390    -2.4720     0.9960 N.pl3 1 <1>   0.5610 
  4 C        0.8170    -2.4200     0.5000 C.2   1 <1>  -0.1240 
  5 N       -2.7640    -2.3030     1.5560 N.2   1 <1>  -0.7070 
  6 C       -1.7230    -3.2070    -0.1370 C.2   1 <1>   0.2700 
  7 C        0.6040    -3.1480    -0.6100 C.2   1 <1>  -0.0380 
  8 C        2.2800    -2.0850     0.6680 C.3   1 <1>  -0.0220 
  9 C       -3.5210    -2.9390     0.7350 C.2   1 <1>   0.5990 
 10 N       -2.9510    -3.5100    -0.3300 N.2   1 <1>  -0.5650 
 11 N       -0.6580    -3.5570    -0.9590 N.pl3 1 <1>  -0.5840 
 12 C        1.8610    -3.4390    -1.3840 C.3   1 <1>  -0.0220 
 13 C        2.9670    -2.8450    -0.4870 C.3   1 <1>  -0.1600 
 14 N       -4.8690    -3.0550     0.8890 N.pl3 1 <1>  -0.8520 
 15 C       -5.5600    -1.8240     1.3180 C.3   1 <1>   0.3530 
 16 C       -6.9900    -1.8650     0.7990 C.ar  1 <1>  -0.1440 
 17 C       -7.4630    -0.9230    -0.1120 C.ar  1 <1>   0.0820 
 18 C       -7.8390    -2.8650     1.2500 C.ar  1 <1>  -0.1500 
 19 O       -6.6030     0.0420    -0.5340 O.3   1 <1>  -0.3630 
 20 C       -8.7810    -0.9990    -0.5580 C.ar  1 <1>  -0.1500 
 21 C       -9.1470    -2.9360     0.8040 C.ar  1 <1>  -0.1500 
 22 C       -6.9740     1.0000    -1.5000 C.3   1 <1>   0.0400 
 23 C       -9.6170    -2.0010    -0.1000 C.ar  1 <1>  -0.1500 
 24 H        2.6420    -2.4160     1.6270 H     1 <1>   0.0800 
 25 H        2.4270    -1.0220     0.5760 H     1 <1>   0.0800 
 26 H       -0.8680    -4.1150    -1.7950 H     1 <1>   0.4000 
 27 H        1.8300    -2.9460    -2.3400 H     1 <1>   0.0800 
 28 H        1.9950    -4.4980    -1.5200 H     1 <1>   0.0800 
 29 H        3.5660    -3.6430    -0.0830 H     1 <1>   0.0800 
 30 H        3.6060    -2.1880    -1.0510 H     1 <1>   0.0800 
 31 H       -5.2580    -3.3570    -0.0050 H     1 <1>   0.4000 
 32 H       -5.0330    -0.9580     0.9550 H     1 <1>   0.0800 
 33 H       -5.5650    -1.7820     2.3930 H     1 <1>   0.0800 
 34 H       -7.4740    -3.5970     1.9510 H     1 <1>   0.1500 
 35 H       -9.1770    -0.2890    -1.2580 H     1 <1>   0.1500 
 36 H       -9.7950    -3.7170     1.1610 H     1 <1>   0.1500 
 37 H       -6.1250     1.6330    -1.6850 H     1 <1>   0.0800 
 38 H       -7.7900     1.5860    -1.1160 H     1 <1>   0.0800 
 39 H       -7.2550     0.4920    -2.4060 H     1 <1>   0.0800 
 40 H      -10.6350    -2.0560    -0.4460 H     1 <1>   0.1500 
@<TRIPOS>BOND
  1   1   2  2   
  2   2   3  1   
  3   2   4  1   
  4   3   5  1   
  5   3   6  1   
  6   4   7  2   
  7   4   8  1   
  8   5   9  2   
  9   6  10  2   
 10   6  11  1   
 11   7  11  1   
 12   7  12  1   
 13   8  13  1   
 14   8  24  1   
 15   8  25  1   
 16   9  10  1   
 17   9  14  1   
 18  11  26  1   
 19  12  13  1   
 20  12  27  1   
 21  12  28  1   
 22  13  29  1   
 23  13  30  1   
 24  14  15  1   
 25  14  31  1   
 26  15  16  1   
 27  15  32  1   
 28  15  33  1   
 29  16  17  ar  
 30  16  18  ar  
 31  17  19  1   
 32  17  20  ar  
 33  18  21  ar  
 34  18  34  1   
 35  19  22  1   
 36  20  23  ar  
 37  20  35  1   
 38  21  23  ar  
 39  21  36  1   
 40  22  37  1   
 41  22  38  1   
 42  22  39  1   
 43  23  40  1   
@<TRIPOS>SUBSTRUCTURE
  1 ****   9 GROUP 4 **** **** 0

# MOE 2024.06 (io_trps.svl 2023.06)
