@<TRIPOS>MOLECULE
5-Cyclohexyl-3-(3,4-dimethoxy-phenyl)-[1,2,4]oxadiazole
41 43 1 0 0 
SMALL
USER_CHARGES


@<TRIPOS>ATOM
  1 O       -0.3040     0.2640     0.8580 O.3   1 <1>  -0.0190 
  2 N       -1.5690    -0.0060     0.7720 N.2   1 <1>  -0.4100 
  3 C       -0.2230     1.5320     0.5480 C.2   1 <1>   0.2980 
  4 C       -2.1800     1.0710     0.4270 C.2   1 <1>   0.4620 
  5 N       -1.3310     2.0910     0.2750 N.2   1 <1>  -0.5650 
  6 C        1.1600     2.1810     0.5510 C.3   1 <1>   0.1000 
  7 C       -3.6130     1.2030     0.2180 C.ar  1 <1>   0.0540 
  8 C        1.0890     3.7200     0.5070 C.3   1 <1>  -0.1600 
  9 C        2.0080     1.6500    -0.6200 C.3   1 <1>  -0.1600 
 10 C       -4.1900     2.4080    -0.1820 C.ar  1 <1>  -0.1500 
 11 C       -4.4760     0.1250     0.4130 C.ar  1 <1>  -0.1500 
 12 C        2.4880     4.3540     0.4890 C.3   1 <1>  -0.1600 
 13 C        3.4070     2.2840    -0.6450 C.3   1 <1>  -0.1600 
 14 C       -5.5520     2.5480    -0.3780 C.ar  1 <1>   0.0830 
 15 C       -5.8390     0.2380     0.2120 C.ar  1 <1>  -0.1500 
 16 C        3.3220     3.8150    -0.6800 C.3   1 <1>  -0.1600 
 17 O       -5.9590     3.7920    -0.7560 O.3   1 <1>  -0.3630 
 18 C       -6.4010     1.4450    -0.1940 C.ar  1 <1>   0.0830 
 19 C       -7.1610     4.3340    -0.2540 C.3   1 <1>   0.0400 
 20 O       -7.7390     1.5670    -0.4300 O.3   1 <1>  -0.3630 
 21 C       -8.6030     0.4520    -0.4430 C.3   1 <1>   0.0400 
 22 H        1.6410     1.8990     1.4720 H     1 <1>   0.0800 
 23 H        0.5430     4.0790     1.3620 H     1 <1>   0.0800 
 24 H        0.5530     4.0260    -0.3750 H     1 <1>   0.0800 
 25 H        1.5030     1.8670    -1.5460 H     1 <1>   0.0800 
 26 H        2.1040     0.5800    -0.5420 H     1 <1>   0.0800 
 27 H       -3.5640     3.2670    -0.3430 H     1 <1>   0.1500 
 28 H       -4.0700    -0.8210     0.7260 H     1 <1>   0.1500 
 29 H        2.9910     4.1400     1.4170 H     1 <1>   0.0800 
 30 H        2.3970     5.4230     0.4030 H     1 <1>   0.0800 
 31 H        3.9450     1.9340    -1.5090 H     1 <1>   0.0800 
 32 H        3.9550     1.9770     0.2300 H     1 <1>   0.0800 
 33 H       -6.4450    -0.6320     0.3780 H     1 <1>   0.1500 
 34 H        4.3140     4.2320    -0.6370 H     1 <1>   0.0800 
 35 H        2.8750     4.1260    -1.6090 H     1 <1>   0.0800 
 36 H       -7.0990     5.4050    -0.3220 H     1 <1>   0.0800 
 37 H       -7.2820     4.0350     0.7720 H     1 <1>   0.0800 
 38 H       -7.9790     3.9790    -0.8550 H     1 <1>   0.0800 
 39 H       -9.5820     0.7920    -0.7280 H     1 <1>   0.0800 
 40 H       -8.6390     0.0250     0.5430 H     1 <1>   0.0800 
 41 H       -8.2410    -0.2620    -1.1620 H     1 <1>   0.0800 
@<TRIPOS>BOND
  1   1   2  1   
  2   1   3  1   
  3   2   4  2   
  4   3   5  2   
  5   3   6  1   
  6   4   5  1   
  7   4   7  1   
  8   6   8  1   
  9   6   9  1   
 10   6  22  1   
 11   7  10  ar  
 12   7  11  ar  
 13   8  12  1   
 14   8  23  1   
 15   8  24  1   
 16   9  13  1   
 17   9  25  1   
 18   9  26  1   
 19  10  14  ar  
 20  10  27  1   
 21  11  15  ar  
 22  11  28  1   
 23  12  16  1   
 24  12  29  1   
 25  12  30  1   
 26  13  16  1   
 27  13  31  1   
 28  13  32  1   
 29  14  17  1   
 30  14  18  ar  
 31  15  18  ar  
 32  15  33  1   
 33  16  34  1   
 34  16  35  1   
 35  17  19  1   
 36  18  20  1   
 37  19  36  1   
 38  19  37  1   
 39  19  38  1   
 40  20  21  1   
 41  21  39  1   
 42  21  40  1   
 43  21  41  1   
@<TRIPOS>SUBSTRUCTURE
  1 ****   4 GROUP 4 **** **** 0

# MOE 2024.06 (io_trps.svl 2023.06)
