@<TRIPOS>MOLECULE
N-Cyclopentyl-3-[3-(4-ethoxy-3-methoxy-phenyl)-[1,2,4]oxadiazol-5-yl]-propionami
51 53 1 0 0 
SMALL
USER_CHARGES


@<TRIPOS>ATOM
  1 O        0.4550    -1.4300    -2.5450 O.2   1 <1>  -0.5700 
  2 C        0.7890    -2.3240    -1.8130 C.2   1 <1>   0.5690 
  3 N        1.9650    -2.2480    -1.1520 N.am  1 <1>  -0.7300 
  4 C       -0.1410    -3.5050    -1.6390 C.3   1 <1>  -0.0990 
  5 C        2.5880    -3.1760    -0.1910 C.3   1 <1>   0.2200 
  6 C       -1.0170    -3.3200    -0.3950 C.3   1 <1>   0.0200 
  7 C        2.8480    -2.4280     1.1100 C.3   1 <1>  -0.1600 
  8 C        3.9870    -3.5220    -0.6830 C.3   1 <1>  -0.1600 
  9 C       -1.8670    -4.5470    -0.1350 C.2   1 <1>   0.2980 
 10 C        4.1480    -1.6470     0.8890 C.3   1 <1>  -0.1600 
 11 C        4.8790    -2.3490    -0.2630 C.3   1 <1>  -0.1600 
 12 O       -1.2750    -5.6470     0.2500 O.3   1 <1>  -0.0190 
 13 N       -3.1260    -4.6180    -0.2540 N.2   1 <1>  -0.5650 
 14 N       -2.2450    -6.4960     0.3840 N.2   1 <1>  -0.4100 
 15 C       -3.3430    -5.8930     0.0880 C.2   1 <1>   0.4620 
 16 C       -4.6710    -6.4860     0.1090 C.ar  1 <1>   0.0540 
 17 C       -4.8610    -7.8190     0.4790 C.ar  1 <1>  -0.1500 
 18 C       -5.8070    -5.7540    -0.2380 C.ar  1 <1>  -0.1500 
 19 C       -6.1220    -8.4030     0.5040 C.ar  1 <1>   0.0820 
 20 C       -7.0690    -6.3160    -0.2190 C.ar  1 <1>  -0.1500 
 21 O       -6.3190    -9.7050     0.8640 O.3   1 <1>  -0.3620 
 22 C       -7.2420    -7.6450     0.1520 C.ar  1 <1>   0.0820 
 23 C       -5.2510   -10.5450     1.2370 C.3   1 <1>   0.0400 
 24 O       -8.4650    -8.2460     0.1870 O.3   1 <1>  -0.3630 
 25 C       -9.6450    -7.5570    -0.1520 C.3   1 <1>   0.1200 
 26 C      -10.8140    -8.5260    -0.0020 C.3   1 <1>  -0.2400 
 27 H        2.5200    -1.4110    -1.3410 H     1 <1>   0.3700 
 28 H        0.4310    -4.4110    -1.5770 H     1 <1>   0.0800 
 29 H       -0.7710    -3.5780    -2.5080 H     1 <1>   0.0800 
 30 H        1.9840    -4.0530    -0.0370 H     1 <1>   0.0800 
 31 H       -1.6590    -2.4680    -0.5340 H     1 <1>   0.0800 
 32 H       -0.4050    -3.1370     0.4690 H     1 <1>   0.0800 
 33 H        3.0060    -3.1490     1.8930 H     1 <1>   0.0800 
 34 H        2.0260    -1.7910     1.3890 H     1 <1>   0.0800 
 35 H        4.0140    -3.7040    -1.7440 H     1 <1>   0.0800 
 36 H        4.3180    -4.4100    -0.1740 H     1 <1>   0.0800 
 37 H        4.7460    -1.6330     1.7850 H     1 <1>   0.0800 
 38 H        3.9230    -0.6320     0.6080 H     1 <1>   0.0800 
 39 H        4.9980    -1.6660    -1.0870 H     1 <1>   0.0800 
 40 H        5.8520    -2.6960     0.0410 H     1 <1>   0.0800 
 41 H       -3.9930    -8.3900     0.7470 H     1 <1>   0.1500 
 42 H       -5.7000    -4.7230    -0.5290 H     1 <1>   0.1500 
 43 H       -7.9040    -5.7010    -0.4960 H     1 <1>   0.1500 
 44 H       -5.6570   -11.5120     1.4740 H     1 <1>   0.0800 
 45 H       -4.7660   -10.1310     2.1020 H     1 <1>   0.0800 
 46 H       -4.5680   -10.6290     0.4110 H     1 <1>   0.0800 
 47 H       -9.5610    -7.2170    -1.1690 H     1 <1>   0.0800 
 48 H       -9.7560    -6.7220     0.5170 H     1 <1>   0.0800 
 49 H      -10.6820    -9.3660    -0.6610 H     1 <1>   0.0800 
 50 H      -11.7340    -8.0310    -0.2540 H     1 <1>   0.0800 
 51 H      -10.8750    -8.8740     1.0130 H     1 <1>   0.0800 
@<TRIPOS>BOND
  1   1   2  2   
  2   2   3  am  
  3   2   4  1   
  4   3   5  1   
  5   3  27  1   
  6   4   6  1   
  7   4  28  1   
  8   4  29  1   
  9   5   7  1   
 10   5   8  1   
 11   5  30  1   
 12   6   9  1   
 13   6  31  1   
 14   6  32  1   
 15   7  10  1   
 16   7  33  1   
 17   7  34  1   
 18   8  11  1   
 19   8  35  1   
 20   8  36  1   
 21   9  12  1   
 22   9  13  2   
 23  10  11  1   
 24  10  37  1   
 25  10  38  1   
 26  11  39  1   
 27  11  40  1   
 28  12  14  1   
 29  13  15  1   
 30  14  15  2   
 31  15  16  1   
 32  16  17  ar  
 33  16  18  ar  
 34  17  19  ar  
 35  17  41  1   
 36  18  20  ar  
 37  18  42  1   
 38  19  21  1   
 39  19  22  ar  
 40  20  22  ar  
 41  20  43  1   
 42  21  23  1   
 43  22  24  1   
 44  23  44  1   
 45  23  45  1   
 46  23  46  1   
 47  24  25  1   
 48  25  26  1   
 49  25  47  1   
 50  25  48  1   
 51  26  49  1   
 52  26  50  1   
 53  26  51  1   
@<TRIPOS>SUBSTRUCTURE
  1 ****  15 GROUP 4 **** **** 0

# MOE 2024.06 (io_trps.svl 2023.06)
