@<TRIPOS>MOLECULE
[8-(3-Chloro-phenyl)-1-methyl-2,4-dioxo-1,4,5,6,7,8-hexahydro-2H-1,3,4b,8,9-pent
47 50 1 0 0 
SMALL
USER_CHARGES


@<TRIPOS>ATOM
  1 CL      -3.1350    -2.0110    -2.5310 Cl    1 <1>  -0.1850 
  2 C       -3.6500    -1.4160    -0.9770 C.ar  1 <1>   0.1690 
  3 C       -4.4250    -0.2760    -0.9220 C.ar  1 <1>  -0.1580 
  4 C       -3.2830    -2.0950     0.1700 C.ar  1 <1>  -0.1580 
  5 C       -4.8590     0.1980     0.3080 C.ar  1 <1>   0.3040 
  6 C       -3.7030    -1.6180     1.4000 C.ar  1 <1>  -0.1580 
  7 N       -5.6780     1.3310     0.3760 N.pl3 1 <1>  -0.5800 
  8 C       -4.4870    -0.4780     1.4650 C.ar  1 <1>  -0.1580 
  9 C       -6.9320     1.3660    -0.1200 C.cat 1 <1>   1.0680 
 10 C       -5.1340     2.5410     1.0560 C.3   1 <1>   0.1600 
 11 N       -7.6090     0.3490    -0.6480 N.pl3 1 <1>  -0.7040 
 12 N       -7.6770     2.4630    -0.1380 N.pl3 1 <1>  -0.7680 
 13 C       -5.7310     3.8180     0.4460 C.3   1 <1>  -0.1680 
 14 C       -8.8390     0.8110    -1.0100 C.2   1 <1>   0.4200 
 15 C       -8.9150     2.1240    -0.7010 C.2   1 <1>   0.2700 
 16 C       -7.2620     3.7780     0.3890 C.3   1 <1>   0.3470 
 17 N       -9.8740     0.1050    -1.5940 N.am  1 <1>  -0.4420 
 18 C      -10.1260     2.8320    -0.9780 C.2   1 <1>   0.6990 
 19 C      -11.0750     0.7690    -1.8070 C.2   1 <1>   0.6860 
 20 C       -9.7370    -1.3460    -1.9160 C.3   1 <1>   0.0510 
 21 O      -10.2250     4.0290    -0.7680 O.2   1 <1>  -0.5750 
 22 N      -11.1910     2.1180    -1.5000 N.am  1 <1>  -0.4260 
 23 O      -12.0290     0.1700    -2.2580 O.2   1 <1>  -0.5750 
 24 C      -12.5690     2.6910    -1.3260 C.3   1 <1>   0.1930 
 25 C      -13.0800     2.4860     0.0970 C.2   1 <1>   0.6550 
 26 O      -12.3780     2.0200     0.9640 O.2   1 <1>  -0.5750 
 27 O      -14.3350     2.8540     0.3210 O.3   1 <1>  -0.4360 
 28 C      -14.9370     2.7190     1.5920 C.3   1 <1>   0.0310 
 29 H       -4.6760     0.2330    -1.8340 H     1 <1>   0.1420 
 30 H       -2.6750    -2.9810     0.0980 H     1 <1>   0.1420 
 31 H       -3.4180    -2.1370     2.3020 H     1 <1>   0.1420 
 32 H       -4.8110    -0.1170     2.4250 H     1 <1>   0.1420 
 33 H       -4.0610     2.5630     0.9560 H     1 <1>   0.0710 
 34 H       -5.3730     2.4900     2.1050 H     1 <1>   0.0710 
 35 H       -7.2600    -0.6030    -0.7240 H     1 <1>   0.4440 
 36 H       -5.3420     3.9540    -0.5490 H     1 <1>   0.0710 
 37 H       -5.4200     4.6710     1.0240 H     1 <1>   0.0710 
 38 H       -7.6760     3.9110     1.3750 H     1 <1>   0.0710 
 39 H       -7.6300     4.5670    -0.2460 H     1 <1>   0.0710 
 40 H       -9.9380    -1.9320    -1.0360 H     1 <1>   0.0710 
 41 H       -8.7460    -1.5600    -2.2740 H     1 <1>   0.0710 
 42 H      -10.4370    -1.6290    -2.6840 H     1 <1>   0.0710 
 43 H      -13.2560     2.2300    -2.0110 H     1 <1>   0.0710 
 44 H      -12.5580     3.7450    -1.5400 H     1 <1>   0.0710 
 45 H      -15.9460     3.0850     1.5320 H     1 <1>   0.0710 
 46 H      -14.3750     3.2940     2.3070 H     1 <1>   0.0710 
 47 H      -14.9360     1.6780     1.8690 H     1 <1>   0.0710 
@<TRIPOS>BOND
  1   1   2  1   
  2   2   3  ar  
  3   2   4  ar  
  4   3   5  ar  
  5   3  29  1   
  6   4   6  ar  
  7   4  30  1   
  8   5   7  1   
  9   5   8  ar  
 10   6   8  ar  
 11   6  31  1   
 12   7   9  ar  
 13   7  10  1   
 14   8  32  1   
 15   9  11  ar  
 16   9  12  ar  
 17  10  13  1   
 18  10  33  1   
 19  10  34  1   
 20  11  14  1   
 21  11  35  1   
 22  12  15  1   
 23  12  16  1   
 24  13  16  1   
 25  13  36  1   
 26  13  37  1   
 27  14  15  2   
 28  14  17  1   
 29  15  18  1   
 30  16  38  1   
 31  16  39  1   
 32  17  19  am  
 33  17  20  1   
 34  18  21  2   
 35  18  22  am  
 36  19  22  am  
 37  19  23  2   
 38  20  40  1   
 39  20  41  1   
 40  20  42  1   
 41  22  24  1   
 42  24  25  1   
 43  24  43  1   
 44  24  44  1   
 45  25  26  2   
 46  25  27  1   
 47  27  28  1   
 48  28  45  1   
 49  28  46  1   
 50  28  47  1   
@<TRIPOS>SUBSTRUCTURE
  1 ****  14 GROUP 4 **** **** 0

# MOE 2024.06 (io_trps.svl 2023.06)
