@<TRIPOS>MOLECULE
1-(4-Methoxy-3-methyl-benzenesulfonyl)-piperidine-4-carboxylic acid sec-butylami
53 54 1 0 0 
SMALL
USER_CHARGES


@<TRIPOS>ATOM
  1 S       -0.1220    -0.1780    -2.1810 S.o2  1 <1>   1.4470 
  2 O        0.2450    -1.3230    -2.9860 O.2   1 <1>  -0.6500 
  3 O       -0.5410     1.0420    -2.8400 O.2   1 <1>  -0.6500 
  4 N        1.2280     0.2270    -1.2390 N.am  1 <1>  -0.8490 
  5 C       -1.3480    -0.6860    -0.9450 C.ar  1 <1>  -0.0090 
  6 C        1.0100     1.4570    -0.4710 C.3   1 <1>   0.1960 
  7 C        2.4420     0.3070    -2.0540 C.3   1 <1>   0.1960 
  8 C       -2.6340    -0.1560    -0.9410 C.ar  1 <1>  -0.1500 
  9 C       -1.0290    -1.6190     0.0330 C.ar  1 <1>  -0.1500 
 10 C        2.1820     1.6980     0.4810 C.3   1 <1>  -0.1600 
 11 C        3.6670     0.5240    -1.1630 C.3   1 <1>  -0.1600 
 12 C       -3.5730    -0.5320     0.0050 C.ar  1 <1>  -0.1430 
 13 C       -1.9530    -2.0070     0.9860 C.ar  1 <1>  -0.1500 
 14 C        3.5140     1.7760    -0.2860 C.3   1 <1>  -0.0190 
 15 C       -3.2340    -1.4640     0.9800 C.ar  1 <1>   0.0830 
 16 C       -4.9680     0.0770    -0.0300 C.3   1 <1>  -0.0970 
 17 C        4.7130     1.9450     0.6440 C.2   1 <1>   0.5690 
 18 O       -4.1830    -1.8030     1.8900 O.3   1 <1>  -0.3630 
 19 O        4.7890     1.2640     1.6380 O.2   1 <1>  -0.5700 
 20 N        5.6640     2.8560     0.2960 N.am  1 <1>  -0.7300 
 21 C       -3.9380    -2.7550     2.9020 C.3   1 <1>   0.0400 
 22 C        6.9430     3.1390     0.9820 C.3   1 <1>   0.2200 
 23 C        7.8420     1.8930     1.0300 C.3   1 <1>  -0.1600 
 24 C        6.6680     3.7030     2.3740 C.3   1 <1>  -0.2400 
 25 C        8.1660     1.3210    -0.3590 C.3   1 <1>  -0.2400 
 26 H        0.1060     1.3710     0.1080 H     1 <1>   0.0800 
 27 H        0.9020     2.2970    -1.1400 H     1 <1>   0.0800 
 28 H        2.3500     1.1100    -2.7680 H     1 <1>   0.0800 
 29 H        2.5750    -0.6130    -2.6000 H     1 <1>   0.0800 
 30 H       -2.8970     0.5650    -1.6970 H     1 <1>   0.1500 
 31 H       -0.0380    -2.0440     0.0460 H     1 <1>   0.1500 
 32 H        2.2160     0.8940     1.1970 H     1 <1>   0.0800 
 33 H        2.0230     2.6120     1.0250 H     1 <1>   0.0800 
 34 H        4.5450     0.6150    -1.7780 H     1 <1>   0.0800 
 35 H        3.7960    -0.3430    -0.5360 H     1 <1>   0.0800 
 36 H       -1.6560    -2.7310     1.7210 H     1 <1>   0.1500 
 37 H        3.4690     2.6340    -0.9320 H     1 <1>   0.0800 
 38 H       -5.0690     0.7770    -0.8400 H     1 <1>   0.0800 
 39 H       -5.1650     0.5900     0.8940 H     1 <1>   0.0800 
 40 H       -5.7000    -0.7000    -0.1550 H     1 <1>   0.0800 
 41 H        5.5410     3.3770    -0.5710 H     1 <1>   0.3700 
 42 H       -4.8340    -2.8560     3.4880 H     1 <1>   0.0800 
 43 H       -3.1330    -2.4050     3.5230 H     1 <1>   0.0800 
 44 H       -3.6930    -3.6960     2.4440 H     1 <1>   0.0800 
 45 H        7.4580     3.8970     0.4150 H     1 <1>   0.0800 
 46 H        7.3780     1.1330     1.6340 H     1 <1>   0.0800 
 47 H        8.7660     2.1590     1.5130 H     1 <1>   0.0800 
 48 H        6.2020     2.9630     3.0000 H     1 <1>   0.0800 
 49 H        6.0290     4.5640     2.3080 H     1 <1>   0.0800 
 50 H        7.5920     3.9990     2.8370 H     1 <1>   0.0800 
 51 H        7.2710     0.9670    -0.8400 H     1 <1>   0.0800 
 52 H        8.8450     0.4920    -0.2620 H     1 <1>   0.0800 
 53 H        8.6250     2.0700    -0.9790 H     1 <1>   0.0800 
@<TRIPOS>BOND
  1   1   2  2   
  2   1   3  2   
  3   1   4  am  
  4   1   5  1   
  5   4   6  1   
  6   4   7  1   
  7   5   8  ar  
  8   5   9  ar  
  9   6  10  1   
 10   6  26  1   
 11   6  27  1   
 12   7  11  1   
 13   7  28  1   
 14   7  29  1   
 15   8  12  ar  
 16   8  30  1   
 17   9  13  ar  
 18   9  31  1   
 19  10  14  1   
 20  10  32  1   
 21  10  33  1   
 22  11  14  1   
 23  11  34  1   
 24  11  35  1   
 25  12  15  ar  
 26  12  16  1   
 27  13  15  ar  
 28  13  36  1   
 29  14  17  1   
 30  14  37  1   
 31  15  18  1   
 32  16  38  1   
 33  16  39  1   
 34  16  40  1   
 35  17  19  2   
 36  17  20  am  
 37  18  21  1   
 38  20  22  1   
 39  20  41  1   
 40  21  42  1   
 41  21  43  1   
 42  21  44  1   
 43  22  23  1   
 44  22  24  1   
 45  22  45  1   
 46  23  25  1   
 47  23  46  1   
 48  23  47  1   
 49  24  48  1   
 50  24  49  1   
 51  24  50  1   
 52  25  51  1   
 53  25  52  1   
 54  25  53  1   
@<TRIPOS>SUBSTRUCTURE
  1 ****   6 GROUP 4 **** **** 0

# MOE 2024.06 (io_trps.svl 2023.06)
