@<TRIPOS>MOLECULE
1-{2-[Methyl-(naphthalene-2-sulfonyl)-amino]-acetyl}-piperidine-4-carboxylic aci
50 52 1 0 0 
SMALL
USER_CHARGES


@<TRIPOS>ATOM
  1 S       -0.8020    -1.3980    -1.3350 S.o2  1 <1>   1.4470 
  2 O        0.0990    -2.3520    -1.9470 O.2   1 <1>  -0.6500 
  3 O       -2.0860    -1.1830    -1.9640 O.2   1 <1>  -0.6500 
  4 N       -1.1120    -1.9700     0.2370 N.am  1 <1>  -0.8490 
  5 C        0.0200     0.2130    -1.1620 C.ar  1 <1>  -0.0090 
  6 C        0.0850    -2.5300     0.9260 C.3   1 <1>   0.2570 
  7 C       -2.2120    -2.9390     0.2650 C.3   1 <1>   0.1160 
  8 C       -0.1510     1.0220    -0.0660 C.ar  1 <1>  -0.1500 
  9 C        0.8550     0.6770    -2.1930 C.ar  1 <1>  -0.1500 
 10 C        1.1660    -1.5030     1.3170 C.2   1 <1>   0.5690 
 11 C        0.5040     2.2610     0.0700 C.ar  1 <1>   0.0000 
 12 C        1.4940     1.8830    -2.1040 C.ar  1 <1>  -0.1500 
 13 O        0.9510    -0.8670     2.3240 O.2   1 <1>  -0.5700 
 14 N        2.3070    -1.2870     0.5720 N.am  1 <1>  -0.6600 
 15 C        1.3430     2.7050    -0.9720 C.ar  1 <1>   0.0000 
 16 C        0.3600     3.0700     1.2150 C.ar  1 <1>  -0.1500 
 17 C        3.1650    -0.0950     0.8450 C.3   1 <1>   0.1400 
 18 C        2.7780    -2.1180    -0.5750 C.3   1 <1>   0.1400 
 19 C        1.9950     3.9470    -0.8360 C.ar  1 <1>  -0.1500 
 20 C        1.0070     4.2690     1.3230 C.ar  1 <1>  -0.1500 
 21 C        4.6090    -0.5340     1.0970 C.3   1 <1>  -0.1600 
 22 C        4.2230    -2.5640    -0.3400 C.3   1 <1>  -0.1600 
 23 C        1.8330     4.7140     0.2840 C.ar  1 <1>  -0.1500 
 24 C        5.1540    -1.3670    -0.0750 C.3   1 <1>  -0.0190 
 25 C        6.5890    -1.8190     0.1850 C.2   1 <1>   0.5690 
 26 O        6.8240    -2.6900     0.9820 O.2   1 <1>  -0.5700 
 27 N        7.6010    -1.2370    -0.4820 N.am  1 <1>  -0.8000 
 28 H        0.5030    -3.3300     0.3480 H     1 <1>   0.0800 
 29 H       -0.2380    -2.9660     1.8540 H     1 <1>   0.0800 
 30 H       -3.1130    -2.4870    -0.1170 H     1 <1>   0.0800 
 31 H       -2.4050    -3.2570     1.2750 H     1 <1>   0.0800 
 32 H       -1.9720    -3.7980    -0.3400 H     1 <1>   0.0800 
 33 H       -0.7930     0.7060     0.7380 H     1 <1>   0.1500 
 34 H        0.9800     0.0590    -3.0660 H     1 <1>   0.1500 
 35 H        2.1260     2.2260    -2.9040 H     1 <1>   0.1500 
 36 H       -0.2740     2.7190     2.0110 H     1 <1>   0.1500 
 37 H        2.8050     0.4550     1.6980 H     1 <1>   0.0800 
 38 H        3.1250     0.5640    -0.0050 H     1 <1>   0.0800 
 39 H        2.7190    -1.5340    -1.4770 H     1 <1>   0.0800 
 40 H        2.1740    -2.9940    -0.7080 H     1 <1>   0.0800 
 41 H        2.6270     4.2850    -1.6370 H     1 <1>   0.1500 
 42 H        0.8920     4.8820     2.2000 H     1 <1>   0.1500 
 43 H        4.6440    -1.1120     2.0050 H     1 <1>   0.0800 
 44 H        5.2230     0.3370     1.2410 H     1 <1>   0.0800 
 45 H        4.5700    -3.1080    -1.2010 H     1 <1>   0.0800 
 46 H        4.2460    -3.2360     0.5000 H     1 <1>   0.0800 
 47 H        2.3330     5.6620     0.3840 H     1 <1>   0.1500 
 48 H        5.1550    -0.7480    -0.9540 H     1 <1>   0.0800 
 49 H        8.5550    -1.5490    -0.2940 H     1 <1>   0.3700 
 50 H        7.4940    -0.4820    -1.1580 H     1 <1>   0.3700 
@<TRIPOS>BOND
  1   1   2  2   
  2   1   3  2   
  3   1   4  am  
  4   1   5  1   
  5   4   6  1   
  6   4   7  1   
  7   5   8  ar  
  8   5   9  ar  
  9   6  10  1   
 10   6  28  1   
 11   6  29  1   
 12   7  30  1   
 13   7  31  1   
 14   7  32  1   
 15   8  11  ar  
 16   8  33  1   
 17   9  12  ar  
 18   9  34  1   
 19  10  13  2   
 20  10  14  am  
 21  11  15  ar  
 22  11  16  ar  
 23  12  15  ar  
 24  12  35  1   
 25  14  17  1   
 26  14  18  1   
 27  15  19  ar  
 28  16  20  ar  
 29  16  36  1   
 30  17  21  1   
 31  17  37  1   
 32  17  38  1   
 33  18  22  1   
 34  18  39  1   
 35  18  40  1   
 36  19  23  ar  
 37  19  41  1   
 38  20  23  ar  
 39  20  42  1   
 40  21  24  1   
 41  21  43  1   
 42  21  44  1   
 43  22  24  1   
 44  22  45  1   
 45  22  46  1   
 46  23  47  1   
 47  24  25  1   
 48  24  48  1   
 49  25  26  2   
 50  25  27  am  
 51  27  49  1   
 52  27  50  1   
@<TRIPOS>SUBSTRUCTURE
  1 ****  14 GROUP 4 **** **** 0

# MOE 2024.06 (io_trps.svl 2023.06)
