@<TRIPOS>MOLECULE
4-Chloro-N-[1-(4-ethyl-5-mercapto-4H-[1,2,4]triazol-3-yl)-ethyl]-benzamide
35 36 1 0 0 
SMALL
USER_CHARGES


@<TRIPOS>ATOM
  1 CL       0.6830     1.2010    -2.3330 Cl    1 <1>  -0.1770 
  2 C        1.8130     0.2300    -1.4310 C.ar  1 <1>   0.1770 
  3 C        2.9910     0.7950    -0.9820 C.ar  1 <1>  -0.1500 
  4 C        1.5180    -1.0940    -1.1710 C.ar  1 <1>  -0.1500 
  5 C        3.8860     0.0160    -0.2690 C.ar  1 <1>  -0.1500 
  6 C        2.4190    -1.8630    -0.4560 C.ar  1 <1>  -0.1500 
  7 C        3.6280    -1.3300     0.0050 C.ar  1 <1>   0.0860 
  8 C        4.5890    -2.1330     0.7400 C.2   1 <1>   0.5440 
  9 O        5.3510    -1.6260     1.5370 O.2   1 <1>  -0.5700 
 10 N        4.6790    -3.4790     0.5380 N.am  1 <1>  -0.7300 
 11 C        5.7280    -4.3370     1.1460 C.3   1 <1>   0.3880 
 12 C        6.1110    -5.5120     0.2250 C.2   1 <1>   0.4850 
 13 C        5.2430    -4.8100     2.5190 C.3   1 <1>  -0.2400 
 14 N        7.3300    -5.8100    -0.0600 N.2   1 <1>  -0.2600 
 15 N        5.2050    -6.3630    -0.3890 N.pl3 1 <1>  -0.7640 
 16 N        7.2200    -6.8970    -0.8770 N.pl3 1 <1>  -0.3930 
 17 C        5.9600    -7.2190    -1.0550 C.cat 1 <1>   0.7360 
 18 C        3.7340    -6.4740    -0.3320 C.3   1 <1>   0.3540 
 19 S        5.4470    -8.4800    -1.9360 S.3   1 <1>  -0.9360 
 20 C        3.1220    -5.8160    -1.5670 C.3   1 <1>  -0.2400 
 21 H        3.2010     1.8290    -1.1900 H     1 <1>   0.1500 
 22 H        0.5900    -1.5090    -1.5250 H     1 <1>   0.1500 
 23 H        4.8040     0.4550     0.0860 H     1 <1>   0.1500 
 24 H        2.1730    -2.8880    -0.2450 H     1 <1>   0.1500 
 25 H        4.2380    -3.8830    -0.2880 H     1 <1>   0.3700 
 26 H        6.6150    -3.7430     1.2930 H     1 <1>   0.0800 
 27 H        4.3440    -5.3900     2.4420 H     1 <1>   0.0800 
 28 H        5.0620    -3.9590     3.1530 H     1 <1>   0.0800 
 29 H        6.0010    -5.4150     2.9820 H     1 <1>   0.0800 
 30 H        7.9660    -7.4410    -1.3120 H     1 <1>   0.4500 
 31 H        3.3600    -6.0040     0.5590 H     1 <1>   0.0800 
 32 H        3.4520    -7.5150    -0.3000 H     1 <1>   0.0800 
 33 H        2.0500    -5.8600    -1.5040 H     1 <1>   0.0800 
 34 H        3.4240    -6.3550    -2.4480 H     1 <1>   0.0800 
 35 H        3.4250    -4.7920    -1.6630 H     1 <1>   0.0800 
@<TRIPOS>BOND
  1   1   2  1   
  2   2   3  ar  
  3   2   4  ar  
  4   3   5  ar  
  5   3  21  1   
  6   4   6  ar  
  7   4  22  1   
  8   5   7  ar  
  9   5  23  1   
 10   6   7  ar  
 11   6  24  1   
 12   7   8  1   
 13   8   9  2   
 14   8  10  am  
 15  10  11  1   
 16  10  25  1   
 17  11  12  1   
 18  11  13  1   
 19  11  26  1   
 20  12  14  2   
 21  12  15  1   
 22  13  27  1   
 23  13  28  1   
 24  13  29  1   
 25  14  16  1   
 26  15  17  ar  
 27  15  18  1   
 28  16  17  ar  
 29  16  30  1   
 30  17  19  1   
 31  18  20  1   
 32  18  31  1   
 33  18  32  1   
 34  20  33  1   
 35  20  34  1   
 36  20  35  1   
@<TRIPOS>SUBSTRUCTURE
  1 ****  10 GROUP 4 **** **** 0

# MOE 2024.06 (io_trps.svl 2023.06)
