@<TRIPOS>MOLECULE
N-(3-m-Tolyl-[1,2,4]oxadiazol-5-ylmethyl)-butyramide
36 37 1 0 0 
SMALL
USER_CHARGES


@<TRIPOS>ATOM
  1 O       -1.1260    -1.1100    -2.1250 O.2   1 <1>  -0.5700 
  2 C       -1.9470    -0.8460    -1.2870 C.2   1 <1>   0.5690 
  3 N       -3.2550    -1.0500    -1.5560 N.am  1 <1>  -0.7300 
  4 C       -1.4810    -0.2930     0.0500 C.3   1 <1>  -0.0990 
  5 C       -4.4380    -0.8360    -0.6820 C.3   1 <1>   0.3200 
  6 C       -1.5570     1.2410     0.1030 C.3   1 <1>  -0.1600 
  7 C       -4.9150    -2.1350    -0.0490 C.2   1 <1>   0.2980 
  8 C       -1.1100     1.7740     1.4680 C.3   1 <1>  -0.2400 
  9 O       -4.1520    -2.7080     0.8430 O.3   1 <1>  -0.0190 
 10 N       -6.0080    -2.7310    -0.2970 N.2   1 <1>  -0.5650 
 11 N       -4.8160    -3.7630     1.1950 N.2   1 <1>  -0.4100 
 12 C       -5.9130    -3.7860     0.5220 C.2   1 <1>   0.4620 
 13 C       -6.9420    -4.8090     0.6130 C.ar  1 <1>   0.0540 
 14 C       -8.1140    -4.7450    -0.1440 C.ar  1 <1>  -0.1500 
 15 C       -6.7980    -5.9030     1.4690 C.ar  1 <1>  -0.1500 
 16 C       -9.0960    -5.7180    -0.0590 C.ar  1 <1>  -0.1440 
 17 C       -7.7720    -6.8800     1.5630 C.ar  1 <1>  -0.1500 
 18 C       -8.9210    -6.7880     0.8000 C.ar  1 <1>  -0.1500 
 19 C      -10.3590    -5.6180    -0.8950 C.3   1 <1>  -0.0970 
 20 H       -3.4470    -1.4990    -2.4550 H     1 <1>   0.3700 
 21 H       -0.4610    -0.6000     0.1980 H     1 <1>   0.0800 
 22 H       -2.0620    -0.7270     0.8420 H     1 <1>   0.0800 
 23 H       -5.2360    -0.4230    -1.2730 H     1 <1>   0.0800 
 24 H       -4.2080    -0.1330     0.0970 H     1 <1>   0.0800 
 25 H       -2.5620     1.5690    -0.0950 H     1 <1>   0.0800 
 26 H       -0.9210     1.6510    -0.6650 H     1 <1>   0.0800 
 27 H       -1.7430     1.3940     2.2500 H     1 <1>   0.0800 
 28 H       -1.1610     2.8490     1.4780 H     1 <1>   0.0800 
 29 H       -0.0940     1.4810     1.6710 H     1 <1>   0.0800 
 30 H       -8.2560    -3.9140    -0.8120 H     1 <1>   0.1500 
 31 H       -5.9100    -5.9910     2.0700 H     1 <1>   0.1500 
 32 H       -7.6360    -7.7130     2.2310 H     1 <1>   0.1500 
 33 H       -9.6760    -7.5500     0.8790 H     1 <1>   0.1500 
 34 H      -10.2230    -4.9360    -1.7150 H     1 <1>   0.0800 
 35 H      -11.1720    -5.2680    -0.2850 H     1 <1>   0.0800 
 36 H      -10.6160    -6.5830    -1.2960 H     1 <1>   0.0800 
@<TRIPOS>BOND
  1   1   2  2   
  2   2   3  am  
  3   2   4  1   
  4   3   5  1   
  5   3  20  1   
  6   4   6  1   
  7   4  21  1   
  8   4  22  1   
  9   5   7  1   
 10   5  23  1   
 11   5  24  1   
 12   6   8  1   
 13   6  25  1   
 14   6  26  1   
 15   7   9  1   
 16   7  10  2   
 17   8  27  1   
 18   8  28  1   
 19   8  29  1   
 20   9  11  1   
 21  10  12  1   
 22  11  12  2   
 23  12  13  1   
 24  13  14  ar  
 25  13  15  ar  
 26  14  16  ar  
 27  14  30  1   
 28  15  17  ar  
 29  15  31  1   
 30  16  18  ar  
 31  16  19  1   
 32  17  18  ar  
 33  17  32  1   
 34  18  33  1   
 35  19  34  1   
 36  19  35  1   
 37  19  36  1   
@<TRIPOS>SUBSTRUCTURE
  1 ****   7 GROUP 4 **** **** 0

# MOE 2024.06 (io_trps.svl 2023.06)
