@<TRIPOS>MOLECULE
5,5-Diethyl-2-morpholin-4-ylmethyl-5,6-dihydro-3H-benzo[h]quinazolin-4-one
53 56 1 0 0 
SMALL
USER_CHARGES


@<TRIPOS>ATOM
  1 O        0.0050     0.2220     1.7230 O.2   1 <1>  -0.5700 
  2 C        0.1390     1.4030     1.4360 C.2   1 <1>   0.7670 
  3 N        1.4140     1.8930     1.5470 N.2   1 <1>  -0.6610 
  4 C       -0.9430     2.2230     0.9720 C.2   1 <1>  -0.1240 
  5 C        1.6310     3.0850     1.1440 C.2   1 <1>   0.4390 
  6 C       -0.6400     3.4640     0.4880 C.2   1 <1>   0.0720 
  7 C       -2.4160     1.7310     0.9350 C.3   1 <1>   0.1380 
  8 N        0.6620     3.8700     0.6160 N.pl3 1 <1>  -0.5500 
  9 C        3.0230     3.7120     1.2270 C.3   1 <1>   0.1710 
 10 C       -1.5960     4.3330    -0.1600 C.ar  1 <1>   0.0280 
 11 C       -3.3520     2.9710     0.9850 C.3   1 <1>  -0.0170 
 12 C       -2.5610     0.9730    -0.4150 C.3   1 <1>  -0.1600 
 13 C       -2.7530     0.8140     2.1550 C.3   1 <1>  -0.1600 
 14 N        3.2670     4.7260     0.1610 N.3   1 <1>  -0.8100 
 15 C       -2.9520     4.0920     0.0400 C.ar  1 <1>  -0.1430 
 16 C       -1.2350     5.3820    -1.0070 C.ar  1 <1>  -0.1500 
 17 C       -3.9120     0.3120    -0.7290 C.3   1 <1>  -0.2400 
 18 C       -4.2170     0.7210     2.6340 C.3   1 <1>  -0.2400 
 19 C        3.4590     4.0710    -1.1540 C.3   1 <1>   0.1100 
 20 C        4.4630     5.5340     0.4720 C.3   1 <1>   0.1100 
 21 C       -3.9130     4.8700    -0.5840 C.ar  1 <1>  -0.1500 
 22 C       -2.1920     6.1620    -1.6280 C.ar  1 <1>  -0.1500 
 23 C        3.7980     5.1030    -2.2440 C.3   1 <1>   0.1200 
 24 C        4.7720     6.5270    -0.6630 C.3   1 <1>   0.1200 
 25 C       -3.5350     5.9060    -1.4180 C.ar  1 <1>  -0.1500 
 26 O        4.9220     5.8510    -1.8790 O.3   1 <1>  -0.5600 
 27 H        0.9880     4.7850     0.2820 H     1 <1>   0.4000 
 28 H        3.7670     2.9350     1.1810 H     1 <1>   0.0800 
 29 H        3.1000     4.1870     2.1890 H     1 <1>   0.0800 
 30 H       -3.3220     3.3820     1.9790 H     1 <1>   0.0800 
 31 H       -4.3680     2.6870     0.7880 H     1 <1>   0.0800 
 32 H       -1.8100     0.2020    -0.4520 H     1 <1>   0.0800 
 33 H       -2.3360     1.6560    -1.2160 H     1 <1>   0.0800 
 34 H       -2.1770     1.1500     3.0010 H     1 <1>   0.0800 
 35 H       -2.4220    -0.1880     1.9370 H     1 <1>   0.0800 
 36 H       -0.1980     5.5900    -1.1950 H     1 <1>   0.1500 
 37 H       -4.1080    -0.4960    -0.0480 H     1 <1>   0.0800 
 38 H       -3.8840    -0.1000    -1.7220 H     1 <1>   0.0800 
 39 H       -4.7190     1.0210    -0.6880 H     1 <1>   0.0800 
 40 H       -4.5420     1.6490     3.0690 H     1 <1>   0.0800 
 41 H       -4.2930    -0.0380     3.3930 H     1 <1>   0.0800 
 42 H       -4.8860     0.4580     1.8370 H     1 <1>   0.0800 
 43 H        2.5620     3.5460    -1.4360 H     1 <1>   0.0800 
 44 H        4.2600     3.3530    -1.0970 H     1 <1>   0.0800 
 45 H        5.3170     4.8930     0.6150 H     1 <1>   0.0800 
 46 H        4.2980     6.0830     1.3830 H     1 <1>   0.0800 
 47 H       -4.9590     4.6780    -0.4210 H     1 <1>   0.1500 
 48 H       -1.8960     6.9670    -2.2780 H     1 <1>   0.1500 
 49 H        2.9720     5.7740    -2.4000 H     1 <1>   0.0800 
 50 H        4.0220     4.6060    -3.1710 H     1 <1>   0.0800 
 51 H        5.6900     7.0500    -0.4630 H     1 <1>   0.0800 
 52 H        3.9770     7.2450    -0.7640 H     1 <1>   0.0800 
 53 H       -4.2830     6.5100    -1.9020 H     1 <1>   0.1500 
@<TRIPOS>BOND
  1   1   2  2   
  2   2   3  1   
  3   2   4  1   
  4   3   5  2   
  5   4   6  2   
  6   4   7  1   
  7   5   8  1   
  8   5   9  1   
  9   6   8  1   
 10   6  10  1   
 11   7  11  1   
 12   7  12  1   
 13   7  13  1   
 14   8  27  1   
 15   9  14  1   
 16   9  28  1   
 17   9  29  1   
 18  10  15  ar  
 19  10  16  ar  
 20  11  15  1   
 21  11  30  1   
 22  11  31  1   
 23  12  17  1   
 24  12  32  1   
 25  12  33  1   
 26  13  18  1   
 27  13  34  1   
 28  13  35  1   
 29  14  19  1   
 30  14  20  1   
 31  15  21  ar  
 32  16  22  ar  
 33  16  36  1   
 34  17  37  1   
 35  17  38  1   
 36  17  39  1   
 37  18  40  1   
 38  18  41  1   
 39  18  42  1   
 40  19  23  1   
 41  19  43  1   
 42  19  44  1   
 43  20  24  1   
 44  20  45  1   
 45  20  46  1   
 46  21  25  ar  
 47  21  47  1   
 48  22  25  ar  
 49  22  48  1   
 50  23  26  1   
 51  23  49  1   
 52  23  50  1   
 53  24  26  1   
 54  24  51  1   
 55  24  52  1   
 56  25  53  1   
@<TRIPOS>SUBSTRUCTURE
  1 ****   6 GROUP 4 **** **** 0

# MOE 2024.06 (io_trps.svl 2023.06)
