@<TRIPOS>MOLECULE
N-[1-(3-Phenyl-[1,2,4]oxadiazol-5-yl)-ethyl]-isobutyramide
36 37 1 0 0 
SMALL
USER_CHARGES


@<TRIPOS>ATOM
  1 O       -1.0740    -1.2810     0.7390 O.2   1 <1>  -0.5700 
  2 C       -2.0200    -0.7930     0.1720 C.2   1 <1>   0.5690 
  3 N       -3.2840    -1.2080     0.4190 N.am  1 <1>  -0.7300 
  4 C       -1.7890     0.3190    -0.8540 C.3   1 <1>  -0.0190 
  5 C       -3.6380    -2.3310     1.3110 C.3   1 <1>   0.4000 
  6 C       -2.4600     1.6370    -0.4340 C.3   1 <1>  -0.2400 
  7 C       -2.2600    -0.0920    -2.2590 C.3   1 <1>  -0.2400 
  8 C       -4.3900    -3.4090     0.5240 C.2   1 <1>   0.2980 
  9 C       -4.4540    -1.7560     2.4700 C.3   1 <1>  -0.2400 
 10 O       -3.6810    -4.2290    -0.2070 O.3   1 <1>  -0.0190 
 11 N       -5.6480    -3.6020     0.4870 N.2   1 <1>  -0.5650 
 12 N       -4.5590    -5.0090    -0.7530 N.2   1 <1>  -0.4100 
 13 C       -5.7230    -4.6450    -0.3470 C.2   1 <1>   0.4620 
 14 C       -6.9860    -5.2610    -0.7240 C.ar  1 <1>   0.0540 
 15 C       -8.2050    -4.8120    -0.2120 C.ar  1 <1>  -0.1500 
 16 C       -7.0290    -6.3320    -1.6180 C.ar  1 <1>  -0.1500 
 17 C       -9.4040    -5.3990    -0.5730 C.ar  1 <1>  -0.1500 
 18 C       -8.2240    -6.9250    -1.9840 C.ar  1 <1>  -0.1500 
 19 C       -9.4160    -6.4590    -1.4610 C.ar  1 <1>  -0.1500 
 20 H       -4.0630    -0.8020    -0.0970 H     1 <1>   0.3700 
 21 H       -0.7270     0.4900    -0.9000 H     1 <1>   0.0800 
 22 H       -2.7420    -2.7750     1.7110 H     1 <1>   0.0800 
 23 H       -3.5300     1.5320    -0.4000 H     1 <1>   0.0800 
 24 H       -2.2130     2.4200    -1.1290 H     1 <1>   0.0800 
 25 H       -2.1130     1.9290     0.5420 H     1 <1>   0.0800 
 26 H       -3.3240    -0.2460    -2.2800 H     1 <1>   0.0800 
 27 H       -1.7760    -1.0080    -2.5540 H     1 <1>   0.0800 
 28 H       -2.0080     0.6700    -2.9750 H     1 <1>   0.0800 
 29 H       -5.3550    -1.2950     2.1080 H     1 <1>   0.0800 
 30 H       -3.8690    -1.0330     3.0080 H     1 <1>   0.0800 
 31 H       -4.7250    -2.5470     3.1470 H     1 <1>   0.0800 
 32 H       -8.2160    -3.9890     0.4810 H     1 <1>   0.1500 
 33 H       -6.1110    -6.7090    -2.0350 H     1 <1>   0.1500 
 34 H      -10.3290    -5.0330    -0.1630 H     1 <1>   0.1500 
 35 H       -8.2270    -7.7500    -2.6760 H     1 <1>   0.1500 
 36 H      -10.3480    -6.9180    -1.7440 H     1 <1>   0.1500 
@<TRIPOS>BOND
  1   1   2  2   
  2   2   3  am  
  3   2   4  1   
  4   3   5  1   
  5   3  20  1   
  6   4   6  1   
  7   4   7  1   
  8   4  21  1   
  9   5   8  1   
 10   5   9  1   
 11   5  22  1   
 12   6  23  1   
 13   6  24  1   
 14   6  25  1   
 15   7  26  1   
 16   7  27  1   
 17   7  28  1   
 18   8  10  1   
 19   8  11  2   
 20   9  29  1   
 21   9  30  1   
 22   9  31  1   
 23  10  12  1   
 24  11  13  1   
 25  12  13  2   
 26  13  14  1   
 27  14  15  ar  
 28  14  16  ar  
 29  15  17  ar  
 30  15  32  1   
 31  16  18  ar  
 32  16  33  1   
 33  17  19  ar  
 34  17  34  1   
 35  18  19  ar  
 36  18  35  1   
 37  19  36  1   
@<TRIPOS>SUBSTRUCTURE
  1 ****   8 GROUP 4 **** **** 0

# MOE 2024.06 (io_trps.svl 2023.06)
