@<TRIPOS>MOLECULE
8-(3-Chloro-phenyl)-1,3,6-trimethyl-5,6,7,8-tetrahydro-1H-1,3,4b,8,9-pentaaza-fl
44 47 1 0 0 
SMALL
USER_CHARGES


@<TRIPOS>ATOM
  1 CL      -2.9610    -2.2030    -2.7440 Cl    1 <1>  -0.1850 
  2 C       -3.2040    -1.3330    -1.2550 C.ar  1 <1>   0.1690 
  3 C       -4.0910    -0.2770    -1.2360 C.ar  1 <1>  -0.1580 
  4 C       -2.5150    -1.7170    -0.1200 C.ar  1 <1>  -0.1580 
  5 C       -4.3090     0.4120    -0.0510 C.ar  1 <1>   0.3040 
  6 C       -2.7200    -1.0250     1.0620 C.ar  1 <1>  -0.1580 
  7 N       -5.2340     1.4580    -0.0040 N.pl3 1 <1>  -0.5800 
  8 C       -3.6130     0.0330     1.0920 C.ar  1 <1>  -0.1580 
  9 C       -6.5640     1.2660    -0.1000 C.cat 1 <1>   1.0690 
 10 C       -4.6980     2.8490     0.0410 C.3   1 <1>   0.1590 
 11 N       -7.1950     0.0980    -0.2000 N.pl3 1 <1>  -0.7040 
 12 N       -7.4450     2.2570    -0.1100 N.pl3 1 <1>  -0.7680 
 13 C       -5.7170     3.8260     0.6600 C.3   1 <1>  -0.0890 
 14 C       -8.5310     0.3520    -0.2880 C.2   1 <1>   0.4200 
 15 C       -8.7210     1.6890    -0.2350 C.2   1 <1>   0.2700 
 16 C       -7.1020     3.6900     0.0020 C.3   1 <1>   0.3470 
 17 C       -5.2050     5.2700     0.5630 C.3   1 <1>  -0.2480 
 18 N       -9.5620    -0.5590    -0.4080 N.am  1 <1>  -0.4420 
 19 C      -10.0520     2.2060    -0.3080 C.2   1 <1>   0.6990 
 20 C      -10.8620    -0.0730    -0.4510 C.2   1 <1>   0.6860 
 21 C       -9.2920    -2.0270    -0.4550 C.3   1 <1>   0.0510 
 22 O      -10.2610     3.4070    -0.2610 O.2   1 <1>  -0.5750 
 23 N      -11.0970     1.2990    -0.4310 N.am  1 <1>  -0.4260 
 24 O      -11.7950    -0.8480    -0.4980 O.2   1 <1>  -0.5750 
 25 C      -12.5080     1.7940    -0.5020 C.3   1 <1>   0.0510 
 26 H       -4.5980     0.0010    -2.1420 H     1 <1>   0.1420 
 27 H       -1.8270    -2.5440    -0.1640 H     1 <1>   0.1420 
 28 H       -2.1830    -1.3120     1.9520 H     1 <1>   0.1420 
 29 H       -3.7690     0.5670     2.0140 H     1 <1>   0.1420 
 30 H       -4.4590     3.1590    -0.9630 H     1 <1>   0.0710 
 31 H       -3.7890     2.8690     0.6190 H     1 <1>   0.0710 
 32 H       -6.7370    -0.8100    -0.1950 H     1 <1>   0.4440 
 33 H       -5.8180     3.5900     1.7060 H     1 <1>   0.0710 
 34 H       -7.8420     4.2030     0.5950 H     1 <1>   0.0710 
 35 H       -7.0940     4.1280    -0.9830 H     1 <1>   0.0710 
 36 H       -5.0780     5.5690    -0.4640 H     1 <1>   0.0710 
 37 H       -4.2570     5.3670     1.0650 H     1 <1>   0.0710 
 38 H       -5.8980     5.9480     1.0310 H     1 <1>   0.0710 
 39 H       -8.4100    -2.2290    -1.0370 H     1 <1>   0.0710 
 40 H      -10.1170    -2.5500    -0.9100 H     1 <1>   0.0710 
 41 H       -9.1580    -2.4040     0.5440 H     1 <1>   0.0710 
 42 H      -12.5450     2.8070    -0.8640 H     1 <1>   0.0710 
 43 H      -12.9530     1.7540     0.4770 H     1 <1>   0.0710 
 44 H      -13.0850     1.1780    -1.1710 H     1 <1>   0.0710 
@<TRIPOS>BOND
  1   1   2  1   
  2   2   3  ar  
  3   2   4  ar  
  4   3   5  ar  
  5   3  26  1   
  6   4   6  ar  
  7   4  27  1   
  8   5   7  1   
  9   5   8  ar  
 10   6   8  ar  
 11   6  28  1   
 12   7   9  ar  
 13   7  10  1   
 14   8  29  1   
 15   9  11  ar  
 16   9  12  ar  
 17  10  13  1   
 18  10  30  1   
 19  10  31  1   
 20  11  14  1   
 21  11  32  1   
 22  12  15  1   
 23  12  16  1   
 24  13  16  1   
 25  13  17  1   
 26  13  33  1   
 27  14  15  2   
 28  14  18  1   
 29  15  19  1   
 30  16  34  1   
 31  16  35  1   
 32  17  36  1   
 33  17  37  1   
 34  17  38  1   
 35  18  20  am  
 36  18  21  1   
 37  19  22  2   
 38  19  23  am  
 39  20  23  am  
 40  20  24  2   
 41  21  39  1   
 42  21  40  1   
 43  21  41  1   
 44  23  25  1   
 45  25  42  1   
 46  25  43  1   
 47  25  44  1   
@<TRIPOS>SUBSTRUCTURE
  1 ****   9 GROUP 4 **** **** 0

# MOE 2024.06 (io_trps.svl 2023.06)
