@<TRIPOS>MOLECULE
6-(3,4-Dimethoxy-phenyl)-3-ethyl-[1,2,4]triazolo[3,4-b][1,3,4]thiadiazole
34 36 1 0 0 
SMALL
USER_CHARGES


@<TRIPOS>ATOM
  1 S       -0.3330    -0.1770     0.0140 S.3   1 <1>  -0.1970 
  2 C        0.5580     1.3230     0.0100 C.2   1 <1>   0.2420 
  3 C       -1.8620     0.7540     0.0080 C.2   1 <1>   0.5050 
  4 N        1.7940     1.6720     0.0110 N.2   1 <1>  -0.3380 
  5 N       -0.3060     2.3190     0.0060 N.pl3 1 <1>   0.5050 
  6 N       -1.6700     2.0270     0.0040 N.2   1 <1>  -0.6520 
  7 C       -3.1200     0.0320     0.0080 C.ar  1 <1>   0.0860 
  8 N        1.7610     3.0190     0.0060 N.2   1 <1>  -0.3380 
  9 C        0.5120     3.3850     0.0030 C.2   1 <1>   0.0060 
 10 C       -4.3270     0.7360     0.0040 C.ar  1 <1>  -0.1500 
 11 C       -3.2030    -1.3610     0.0140 C.ar  1 <1>  -0.1500 
 12 C       -0.0240     4.8110    -0.0020 C.3   1 <1>   0.0200 
 13 C       -5.5670     0.1040     0.0040 C.ar  1 <1>   0.0830 
 14 C       -4.4230    -2.0070     0.0140 C.ar  1 <1>  -0.1500 
 15 C        1.0850     5.8710    -0.0080 C.3   1 <1>  -0.2400 
 16 O       -6.7240     0.8310    -0.0010 O.3   1 <1>  -0.3620 
 17 C       -5.6140    -1.3010     0.0090 C.ar  1 <1>   0.0830 
 18 C       -6.7430     2.2430    -0.0060 C.3   1 <1>   0.0400 
 19 O       -6.7240    -2.0920     0.0090 O.3   1 <1>  -0.3630 
 20 C       -8.0450    -1.5980     0.0040 C.3   1 <1>   0.0400 
 21 H       -4.2650     1.8070     0.0000 H     1 <1>   0.1500 
 22 H       -2.3150    -1.9680     0.0170 H     1 <1>   0.1500 
 23 H       -0.6400     4.9530     0.8680 H     1 <1>   0.0800 
 24 H       -0.6430     4.9450    -0.8720 H     1 <1>   0.0800 
 25 H       -4.4640    -3.0820     0.0180 H     1 <1>   0.1500 
 26 H        1.7050     5.7650     0.8650 H     1 <1>   0.0800 
 27 H        0.6580     6.8580    -0.0120 H     1 <1>   0.0800 
 28 H        1.7020     5.7570    -0.8820 H     1 <1>   0.0800 
 29 H       -7.7690     2.5620    -0.0090 H     1 <1>   0.0800 
 30 H       -6.2490     2.5970    -0.8940 H     1 <1>   0.0800 
 31 H       -6.2530     2.6030     0.8810 H     1 <1>   0.0800 
 32 H       -8.7160    -2.4380     0.0060 H     1 <1>   0.0800 
 33 H       -8.1940    -1.0120    -0.8850 H     1 <1>   0.0800 
 34 H       -8.1990    -1.0050     0.8880 H     1 <1>   0.0800 
@<TRIPOS>BOND
  1   1   2  1   
  2   1   3  1   
  3   2   4  2   
  4   2   5  1   
  5   3   6  2   
  6   3   7  1   
  7   4   8  1   
  8   5   6  1   
  9   5   9  1   
 10   7  10  ar  
 11   7  11  ar  
 12   8   9  2   
 13   9  12  1   
 14  10  13  ar  
 15  10  21  1   
 16  11  14  ar  
 17  11  22  1   
 18  12  15  1   
 19  12  23  1   
 20  12  24  1   
 21  13  16  1   
 22  13  17  ar  
 23  14  17  ar  
 24  14  25  1   
 25  15  26  1   
 26  15  27  1   
 27  15  28  1   
 28  16  18  1   
 29  17  19  1   
 30  18  29  1   
 31  18  30  1   
 32  18  31  1   
 33  19  20  1   
 34  20  32  1   
 35  20  33  1   
 36  20  34  1   
@<TRIPOS>SUBSTRUCTURE
  1 ****   3 GROUP 4 **** **** 0

# MOE 2024.06 (io_trps.svl 2023.06)
