@<TRIPOS>MOLECULE
N-(5-Chloro-2-methoxy-phenyl)-N-(1-methyl-2-oxo-2-pyrrolidin-1-yl-ethyl)-methane
44 45 1 0 0 
SMALL
USER_CHARGES


@<TRIPOS>ATOM
  1 CL       0.5780    -0.8950    -1.0370 Cl    1 <1>  -0.1770 
  2 C        1.6960     0.2880    -0.4070 C.ar  1 <1>   0.1770 
  3 C        3.0140    -0.0730    -0.2090 C.ar  1 <1>  -0.1500 
  4 C        1.2450     1.5600    -0.1230 C.ar  1 <1>  -0.1500 
  5 C        3.9310     0.8380     0.3030 C.ar  1 <1>   0.1990 
  6 C        2.1470     2.4900     0.3660 C.ar  1 <1>  -0.1500 
  7 N        5.2550     0.4020     0.4880 N.am  1 <1>  -0.6930 
  8 C        3.4710     2.1410     0.5770 C.ar  1 <1>   0.0830 
  9 S        5.7070    -0.5210     1.8830 S.o2  1 <1>   1.3330 
 10 C        6.3440     0.6750    -0.5180 C.3   1 <1>   0.3370 
 11 O        4.2800     3.1390     1.0090 O.3   1 <1>  -0.3630 
 12 O        5.1230     0.0830     3.0540 O.2   1 <1>  -0.6500 
 13 O        7.1200    -0.7940     1.7970 O.2   1 <1>  -0.6500 
 14 C        4.8900    -2.0790     1.6150 C.3   1 <1>  -0.1350 
 15 C        7.5200     1.5610    -0.0140 C.2   1 <1>   0.5690 
 16 C        5.7720     1.2510    -1.8230 C.3   1 <1>  -0.2400 
 17 C        4.7890     3.0500     2.3210 C.3   1 <1>   0.0400 
 18 O        7.2820     2.6620     0.4290 O.2   1 <1>  -0.5700 
 19 N        8.8240     1.1380    -0.1220 N.am  1 <1>  -0.6600 
 20 C        9.3050    -0.1790    -0.5960 C.3   1 <1>   0.1400 
 21 C        9.9440     1.9410     0.4190 C.3   1 <1>   0.1400 
 22 C       10.8250    -0.0660    -0.5880 C.3   1 <1>  -0.1600 
 23 C       11.1240     0.9780     0.4830 C.3   1 <1>  -0.1600 
 24 H        3.3210    -1.0670    -0.4680 H     1 <1>   0.1500 
 25 H        0.2150     1.8200    -0.2860 H     1 <1>   0.1500 
 26 H        1.8290     3.4950     0.5820 H     1 <1>   0.1500 
 27 H        6.7570    -0.2820    -0.7710 H     1 <1>   0.0800 
 28 H        5.1630    -2.4860     0.6620 H     1 <1>   0.0800 
 29 H        3.8270    -1.9560     1.6590 H     1 <1>   0.0800 
 30 H        5.1790    -2.7730     2.3800 H     1 <1>   0.0800 
 31 H        5.3500     2.2250    -1.6430 H     1 <1>   0.0800 
 32 H        5.0260     0.6000    -2.2380 H     1 <1>   0.0800 
 33 H        6.5630     1.3630    -2.5420 H     1 <1>   0.0800 
 34 H        5.0640     4.0370     2.6410 H     1 <1>   0.0800 
 35 H        5.6600     2.4230     2.3170 H     1 <1>   0.0800 
 36 H        4.0350     2.6420     2.9720 H     1 <1>   0.0800 
 37 H        8.9360    -0.3970    -1.5830 H     1 <1>   0.0800 
 38 H        8.9910    -0.9410     0.0960 H     1 <1>   0.0800 
 39 H        9.6990     2.3350     1.3910 H     1 <1>   0.0800 
 40 H       10.1500     2.7530    -0.2570 H     1 <1>   0.0800 
 41 H       11.1560     0.2910    -1.5480 H     1 <1>   0.0800 
 42 H       11.2950    -1.0110    -0.3810 H     1 <1>   0.0800 
 43 H       11.1370     0.5130     1.4540 H     1 <1>   0.0800 
 44 H       12.0600     1.4810     0.3210 H     1 <1>   0.0800 
@<TRIPOS>BOND
  1   1   2  1   
  2   2   3  ar  
  3   2   4  ar  
  4   3   5  ar  
  5   3  24  1   
  6   4   6  ar  
  7   4  25  1   
  8   5   7  1   
  9   5   8  ar  
 10   6   8  ar  
 11   6  26  1   
 12   7   9  am  
 13   7  10  1   
 14   8  11  1   
 15   9  12  2   
 16   9  13  2   
 17   9  14  1   
 18  10  15  1   
 19  10  16  1   
 20  10  27  1   
 21  11  17  1   
 22  14  28  1   
 23  14  29  1   
 24  14  30  1   
 25  15  18  2   
 26  15  19  am  
 27  16  31  1   
 28  16  32  1   
 29  16  33  1   
 30  17  34  1   
 31  17  35  1   
 32  17  36  1   
 33  19  20  1   
 34  19  21  1   
 35  20  22  1   
 36  20  37  1   
 37  20  38  1   
 38  21  23  1   
 39  21  39  1   
 40  21  40  1   
 41  22  23  1   
 42  22  41  1   
 43  22  42  1   
 44  23  43  1   
 45  23  44  1   
@<TRIPOS>SUBSTRUCTURE
  1 ****   7 GROUP 4 **** **** 0

# MOE 2024.06 (io_trps.svl 2023.06)
