@<TRIPOS>MOLECULE
N-(5-Mercapto-4-methyl-4H-[1,2,4]triazol-3-ylmethyl)-2-(4-methoxy-phenyl)-acetam
36 37 1 0 0 
SMALL
USER_CHARGES


@<TRIPOS>ATOM
  1 S       -2.5180     2.4870     3.6780 S.3   1 <1>  -0.9360 
  2 C       -2.0790     3.3660     2.3890 C.cat 1 <1>   0.7360 
  3 N       -1.0300     3.1400     1.6300 N.pl3 1 <1>  -0.3930 
  4 N       -2.7090     4.4310     1.9310 N.pl3 1 <1>  -0.7640 
  5 N       -0.9450     4.0750     0.6370 N.2   1 <1>  -0.2600 
  6 C       -1.9650     4.8340     0.8440 C.2   1 <1>   0.4850 
  7 C       -3.9160     4.9970     2.5780 C.3   1 <1>   0.2740 
  8 C       -2.3490     6.0540     0.0060 C.3   1 <1>   0.3080 
  9 N       -1.2590     6.5740    -0.8720 N.am  1 <1>  -0.7300 
 10 C       -1.3010     7.5730    -1.7900 C.2   1 <1>   0.5690 
 11 O       -0.2670     7.9290    -2.2920 O.2   1 <1>  -0.5700 
 12 C       -2.5890     8.2590    -2.2440 C.3   1 <1>   0.0440 
 13 C       -3.6140     8.5020    -1.1400 C.ar  1 <1>  -0.1430 
 14 C       -4.8730     7.9220    -1.2060 C.ar  1 <1>  -0.1500 
 15 C       -3.2840     9.2880    -0.0460 C.ar  1 <1>  -0.1500 
 16 C       -5.7830     8.0980    -0.1780 C.ar  1 <1>  -0.1500 
 17 C       -4.1900     9.4610     0.9850 C.ar  1 <1>  -0.1500 
 18 C       -5.4390     8.8640     0.9310 C.ar  1 <1>   0.0830 
 19 O       -6.2620     9.0690     1.9880 O.3   1 <1>  -0.3630 
 20 C       -7.6360     8.7570     1.9150 C.3   1 <1>   0.0400 
 21 H       -0.4050     2.3560     1.8180 H     1 <1>   0.4500 
 22 H       -4.3630     5.7590     1.9650 H     1 <1>   0.0800 
 23 H       -3.6470     5.4190     3.5320 H     1 <1>   0.0800 
 24 H       -4.6360     4.2130     2.7460 H     1 <1>   0.0800 
 25 H       -2.6370     6.8320     0.6880 H     1 <1>   0.0800 
 26 H       -3.1990     5.7950    -0.5970 H     1 <1>   0.0800 
 27 H       -0.3270     6.1920    -0.6850 H     1 <1>   0.3700 
 28 H       -3.0190     7.6620    -3.0260 H     1 <1>   0.0800 
 29 H       -2.3290     9.2070    -2.6790 H     1 <1>   0.0800 
 30 H       -5.1550     7.3260    -2.0580 H     1 <1>   0.1500 
 31 H       -2.3180     9.7620     0.0120 H     1 <1>   0.1500 
 32 H       -6.7490     7.6350    -0.2550 H     1 <1>   0.1500 
 33 H       -3.9360    10.0660     1.8370 H     1 <1>   0.1500 
 34 H       -8.1050     9.1000     2.8200 H     1 <1>   0.0800 
 35 H       -7.7510     7.6910     1.8270 H     1 <1>   0.0800 
 36 H       -8.0660     9.2630     1.0680 H     1 <1>   0.0800 
@<TRIPOS>BOND
  1   1   2  1   
  2   2   3  ar  
  3   2   4  ar  
  4   3   5  1   
  5   3  21  1   
  6   4   6  1   
  7   4   7  1   
  8   5   6  2   
  9   6   8  1   
 10   7  22  1   
 11   7  23  1   
 12   7  24  1   
 13   8   9  1   
 14   8  25  1   
 15   8  26  1   
 16   9  10  am  
 17   9  27  1   
 18  10  11  2   
 19  10  12  1   
 20  12  13  1   
 21  12  28  1   
 22  12  29  1   
 23  13  14  ar  
 24  13  15  ar  
 25  14  16  ar  
 26  14  30  1   
 27  15  17  ar  
 28  15  31  1   
 29  16  18  ar  
 30  16  32  1   
 31  17  18  ar  
 32  17  33  1   
 33  18  19  1   
 34  19  20  1   
 35  20  34  1   
 36  20  35  1   
 37  20  36  1   
@<TRIPOS>SUBSTRUCTURE
  1 ****   8 GROUP 4 **** **** 0

# MOE 2024.06 (io_trps.svl 2023.06)
