@<TRIPOS>MOLECULE
1,7-Dimethyl-3-(2-oxo-propyl)-8-phenethyl-1H,8H-imidazo[2,1-f]purine-2,4-dione
50 53 1 0 0 
SMALL
USER_CHARGES


@<TRIPOS>ATOM
  1 O        0.8490    -0.1760    -0.4150 O.2   1 <1>  -0.5750 
  2 C        1.7740     0.5890    -0.5970 C.2   1 <1>   0.6860 
  3 N        1.5180     1.9170    -0.9080 N.am  1 <1>  -0.4260 
  4 N        3.0840     0.1370    -0.4790 N.am  1 <1>  -0.4420 
  5 C        2.5480     2.8050    -1.1700 C.2   1 <1>   0.6990 
  6 C        0.2330     2.5040    -0.4150 C.3   1 <1>   0.1940 
  7 C        4.1020     1.0610    -0.6160 C.2   1 <1>   0.4200 
  8 C        3.3660    -1.2840    -0.1220 C.3   1 <1>   0.0520 
  9 O        2.3080     3.9370    -1.5570 O.2   1 <1>  -0.5750 
 10 C        3.8820     2.3520    -0.9600 C.2   1 <1>   0.2700 
 11 C        0.3780     2.9340     1.0450 C.2   1 <1>   0.4430 
 12 N        5.4420     0.8650    -0.4340 N.pl3 1 <1>  -0.7040 
 13 N        5.1420     2.9660    -1.0000 N.pl3 1 <1>  -0.6330 
 14 O        1.4340     2.9050     1.6100 O.2   1 <1>  -0.5750 
 15 C       -0.8760     3.4040     1.7500 C.3   1 <1>  -0.1860 
 16 C        6.0350     2.0460    -0.6630 C.cat 1 <1>   1.0690 
 17 C        5.8230     4.1480    -1.1980 C.2   1 <1>   0.2220 
 18 N        7.2790     2.5570    -0.6340 N.pl3 1 <1>  -0.5720 
 19 C        7.1320     3.8960    -0.9770 C.2   1 <1>   0.1580 
 20 C        8.5930     1.9250    -0.3050 C.3   1 <1>   0.1600 
 21 C        8.3090     4.8520    -1.0620 C.3   1 <1>  -0.1090 
 22 C        8.4910     0.4660     0.1440 C.3   1 <1>  -0.0250 
 23 C        9.8710    -0.0490     0.4970 C.ar  1 <1>  -0.1510 
 24 C       10.6720    -0.6290    -0.4740 C.ar  1 <1>  -0.1570 
 25 C       10.3460     0.0630     1.7950 C.ar  1 <1>  -0.1570 
 26 C       11.9360    -1.0920    -0.1510 C.ar  1 <1>  -0.1570 
 27 C       11.6100    -0.3990     2.1180 C.ar  1 <1>  -0.1570 
 28 C       12.4060    -0.9770     1.1450 C.ar  1 <1>  -0.1570 
 29 H       -0.5610     1.7830    -0.4990 H     1 <1>   0.0720 
 30 H       -0.0340     3.3570    -1.0130 H     1 <1>   0.0720 
 31 H        2.5660    -1.9220    -0.4620 H     1 <1>   0.0720 
 32 H        3.4480    -1.3800     0.9470 H     1 <1>   0.0720 
 33 H        4.2770    -1.6170    -0.5850 H     1 <1>   0.0720 
 34 H        5.9090     0.0150    -0.1290 H     1 <1>   0.4450 
 35 H       -1.6040     2.6140     1.7710 H     1 <1>   0.0720 
 36 H       -1.2870     4.2570     1.2420 H     1 <1>   0.0720 
 37 H       -0.6400     3.6840     2.7610 H     1 <1>   0.0720 
 38 H        5.3260     5.0650    -1.4770 H     1 <1>   0.1430 
 39 H        9.0620     2.4920     0.4820 H     1 <1>   0.0720 
 40 H        9.2330     1.9790    -1.1700 H     1 <1>   0.0720 
 41 H        9.0180     4.5060    -1.7930 H     1 <1>   0.0720 
 42 H        8.8000     4.9260    -0.1070 H     1 <1>   0.0720 
 43 H        7.9750     5.8330    -1.3490 H     1 <1>   0.0720 
 44 H        8.0910    -0.1410    -0.6490 H     1 <1>   0.0720 
 45 H        7.8620     0.3860     1.0130 H     1 <1>   0.0720 
 46 H       10.3270    -0.7290    -1.4880 H     1 <1>   0.1430 
 47 H        9.7440     0.5090     2.5670 H     1 <1>   0.1430 
 48 H       12.5560    -1.5420    -0.9070 H     1 <1>   0.1430 
 49 H       11.9760    -0.3110     3.1260 H     1 <1>   0.1430 
 50 H       13.3880    -1.3370     1.3960 H     1 <1>   0.1430 
@<TRIPOS>BOND
  1   1   2  2   
  2   2   3  am  
  3   2   4  am  
  4   3   5  am  
  5   3   6  1   
  6   4   7  1   
  7   4   8  1   
  8   5   9  2   
  9   5  10  1   
 10   6  11  1   
 11   6  29  1   
 12   6  30  1   
 13   7  10  2   
 14   7  12  1   
 15   8  31  1   
 16   8  32  1   
 17   8  33  1   
 18  10  13  1   
 19  11  14  2   
 20  11  15  1   
 21  12  16  ar  
 22  12  34  1   
 23  13  16  ar  
 24  13  17  1   
 25  15  35  1   
 26  15  36  1   
 27  15  37  1   
 28  16  18  ar  
 29  17  19  2   
 30  17  38  1   
 31  18  19  1   
 32  18  20  1   
 33  19  21  1   
 34  20  22  1   
 35  20  39  1   
 36  20  40  1   
 37  21  41  1   
 38  21  42  1   
 39  21  43  1   
 40  22  23  1   
 41  22  44  1   
 42  22  45  1   
 43  23  24  ar  
 44  23  25  ar  
 45  24  26  ar  
 46  24  46  1   
 47  25  27  ar  
 48  25  47  1   
 49  26  28  ar  
 50  26  48  1   
 51  27  28  ar  
 52  27  49  1   
 53  28  50  1   
@<TRIPOS>SUBSTRUCTURE
  1 ****  12 GROUP 4 **** **** 0

# MOE 2024.06 (io_trps.svl 2023.06)
