@<TRIPOS>MOLECULE
4-Hydroxy-6-methyl-2-oxo-1-propyl-1,2,5,6,7,8-hexahydro-quinoline-3-carboxylic a
46 48 1 0 0 
SMALL
USER_CHARGES


@<TRIPOS>ATOM
  1 S       -0.1920     0.0560     0.3670 S.3   1 <1>  -0.0800 
  2 C       -1.4390     1.2130     0.0270 C.2   1 <1>   0.4420 
  3 C        0.9550     1.3210     0.0990 C.2   1 <1>   0.1980 
  4 N       -0.9550     2.3750    -0.2460 N.2   1 <1>  -0.3380 
  5 N       -2.7270     0.7480     0.0810 N.am  1 <1>  -0.4940 
  6 N        0.4130     2.4290    -0.2020 N.2   1 <1>  -0.3380 
  7 C        2.4220     0.9890     0.2470 C.3   1 <1>  -0.0600 
  8 C       -3.9640     1.3390     0.0170 C.2   1 <1>   0.6160 
  9 O       -3.9890     2.5690     0.0190 O.2   1 <1>  -0.5700 
 10 C       -5.1220     0.5100     0.0000 C.2   1 <1>   0.0290 
 11 C       -5.0700    -0.8570     0.4060 C.2   1 <1>  -0.0500 
 12 C       -6.3700     1.0100    -0.4280 C.2   1 <1>   0.5410 
 13 O       -4.0210    -1.3940     0.7780 O.3   1 <1>  -0.8500 
 14 N       -6.2170    -1.6490     0.4040 N.pl3 1 <1>  -0.5690 
 15 O       -6.5080     2.1110    -0.9890 O.2   1 <1>  -0.5700 
 16 C       -7.5510     0.2130    -0.2550 C.2   1 <1>  -0.1240 
 17 C       -7.4650    -1.0860     0.1300 C.2   1 <1>  -0.0380 
 18 C       -6.0330    -3.0960     0.7640 C.3   1 <1>   0.2090 
 19 C       -8.8930     0.8990    -0.5310 C.3   1 <1>  -0.0220 
 20 C       -8.7160    -1.9540     0.2940 C.3   1 <1>  -0.0220 
 21 C       -5.4830    -3.9120    -0.4200 C.3   1 <1>  -0.1600 
 22 C      -10.0880     0.1440     0.0670 C.3   1 <1>  -0.0800 
 23 C       -9.9860    -1.3360    -0.3010 C.3   1 <1>  -0.1600 
 24 C       -6.4300    -4.0080    -1.6250 C.3   1 <1>  -0.2400 
 25 C      -11.4130     0.7410    -0.4230 C.3   1 <1>  -0.2400 
 26 H       -2.8730    -0.2520     0.3230 H     1 <1>   0.3700 
 27 H        2.6930     0.2190    -0.4520 H     1 <1>   0.0800 
 28 H        2.6190     0.6470     1.2460 H     1 <1>   0.0800 
 29 H        3.0140     1.8640     0.0520 H     1 <1>   0.0800 
 30 H       -6.9440    -3.5290     1.1210 H     1 <1>   0.0800 
 31 H       -5.3340    -3.1560     1.5800 H     1 <1>   0.0800 
 32 H       -9.0070     0.9910    -1.5960 H     1 <1>   0.0800 
 33 H       -8.8790     1.8920    -0.1150 H     1 <1>   0.0800 
 34 H       -8.8630    -2.1250     1.3450 H     1 <1>   0.0800 
 35 H       -8.5730    -2.9030    -0.1830 H     1 <1>   0.0800 
 36 H       -5.2570    -4.9020    -0.0710 H     1 <1>   0.0800 
 37 H       -4.5560    -3.4620    -0.7300 H     1 <1>   0.0800 
 38 H      -10.0450     0.2360     1.1400 H     1 <1>   0.0800 
 39 H      -10.8450    -1.8730     0.0610 H     1 <1>   0.0800 
 40 H       -9.9550    -1.4350    -1.3730 H     1 <1>   0.0800 
 41 H       -7.3390    -4.5130    -1.3540 H     1 <1>   0.0800 
 42 H       -5.9540    -4.5540    -2.4200 H     1 <1>   0.0800 
 43 H       -6.6650    -3.0210    -1.9840 H     1 <1>   0.0800 
 44 H      -11.4960     0.6570    -1.4920 H     1 <1>   0.0800 
 45 H      -11.4730     1.7810    -0.1540 H     1 <1>   0.0800 
 46 H      -12.2430     0.2260     0.0290 H     1 <1>   0.0800 
@<TRIPOS>BOND
  1   1   2  1   
  2   1   3  1   
  3   2   4  2   
  4   2   5  1   
  5   3   6  2   
  6   3   7  1   
  7   4   6  1   
  8   5   8  am  
  9   5  26  1   
 10   7  27  1   
 11   7  28  1   
 12   7  29  1   
 13   8   9  2   
 14   8  10  1   
 15  10  11  2   
 16  10  12  1   
 17  11  13  1   
 18  11  14  1   
 19  12  15  2   
 20  12  16  1   
 21  14  17  1   
 22  14  18  1   
 23  16  17  2   
 24  16  19  1   
 25  17  20  1   
 26  18  21  1   
 27  18  30  1   
 28  18  31  1   
 29  19  22  1   
 30  19  32  1   
 31  19  33  1   
 32  20  23  1   
 33  20  34  1   
 34  20  35  1   
 35  21  24  1   
 36  21  36  1   
 37  21  37  1   
 38  22  23  1   
 39  22  25  1   
 40  22  38  1   
 41  23  39  1   
 42  23  40  1   
 43  24  41  1   
 44  24  42  1   
 45  24  43  1   
 46  25  44  1   
 47  25  45  1   
 48  25  46  1   
@<TRIPOS>SUBSTRUCTURE
  1 ****  10 GROUP 4 **** **** 0

# MOE 2024.06 (io_trps.svl 2023.06)
