@<TRIPOS>MOLECULE
N-Cyclohexyl-4-(3-m-tolyl-[1,2,4]oxadiazol-5-yl)-butyramide
49 51 1 0 0 
SMALL
USER_CHARGES


@<TRIPOS>ATOM
  1 O        0.0990    -1.3360    -0.5610 O.2   1 <1>  -0.5700 
  2 C       -0.9610    -1.8320    -0.2820 C.2   1 <1>   0.5690 
  3 N       -1.3290    -3.0060    -0.8460 N.am  1 <1>  -0.7300 
  4 C       -1.8690    -1.1210     0.7050 C.3   1 <1>  -0.0990 
  5 C       -2.5890    -3.7550    -0.6920 C.3   1 <1>   0.2200 
  6 C       -2.9620    -0.3020    -0.0110 C.3   1 <1>  -0.1600 
  7 C       -2.3250    -5.0300     0.1120 C.3   1 <1>  -0.1600 
  8 C       -3.1510    -4.0820    -2.0770 C.3   1 <1>  -0.1600 
  9 C       -4.1630     0.0240     0.8930 C.3   1 <1>   0.0200 
 10 C       -3.6060    -5.8660     0.2450 C.3   1 <1>  -0.1600 
 11 C       -4.4390    -4.9090    -1.9590 C.3   1 <1>  -0.1600 
 12 C       -4.9190    -1.2370     1.2740 C.2   1 <1>   0.2980 
 13 C       -4.2160    -6.1810    -1.1280 C.3   1 <1>  -0.1600 
 14 O       -4.7090    -1.7720     2.4470 O.3   1 <1>  -0.0190 
 15 N       -5.7360    -1.8580     0.5290 N.2   1 <1>  -0.5650 
 16 N       -5.4450    -2.8380     2.4430 N.2   1 <1>  -0.4100 
 17 C       -6.0570    -2.8930     1.3130 C.2   1 <1>   0.4620 
 18 C       -6.9620    -3.9480     0.8880 C.ar  1 <1>   0.0540 
 19 C       -7.6900    -3.8570    -0.3000 C.ar  1 <1>  -0.1500 
 20 C       -7.1240    -5.1080     1.6460 C.ar  1 <1>  -0.1500 
 21 C       -8.5290    -4.8730    -0.7240 C.ar  1 <1>  -0.1440 
 22 C       -7.9580    -6.1300     1.2340 C.ar  1 <1>  -0.1500 
 23 C       -8.6590    -6.0140     0.0470 C.ar  1 <1>  -0.1500 
 24 C       -9.3000    -4.7470    -2.0260 C.3   1 <1>  -0.0970 
 25 H       -0.6470    -3.4220    -1.4800 H     1 <1>   0.3700 
 26 H       -1.2710    -0.4660     1.3130 H     1 <1>   0.0800 
 27 H       -2.2890    -1.8610     1.3580 H     1 <1>   0.0800 
 28 H       -3.3150    -3.1610    -0.1650 H     1 <1>   0.0800 
 29 H       -3.3220    -0.8480    -0.8660 H     1 <1>   0.0800 
 30 H       -2.5260     0.6120    -0.3780 H     1 <1>   0.0800 
 31 H       -1.9700    -4.7670     1.0930 H     1 <1>   0.0800 
 32 H       -1.5690    -5.6170    -0.3800 H     1 <1>   0.0800 
 33 H       -2.4250    -4.6410    -2.6410 H     1 <1>   0.0800 
 34 H       -3.3640    -3.1680    -2.6020 H     1 <1>   0.0800 
 35 H       -4.8360     0.6720     0.3610 H     1 <1>   0.0800 
 36 H       -3.8380     0.5380     1.7800 H     1 <1>   0.0800 
 37 H       -4.3220    -5.3210     0.8350 H     1 <1>   0.0800 
 38 H       -3.3880    -6.7840     0.7620 H     1 <1>   0.0800 
 39 H       -4.7920    -5.1750    -2.9400 H     1 <1>   0.0800 
 40 H       -5.1990    -4.3090    -1.4900 H     1 <1>   0.0800 
 41 H       -5.1560    -6.6890    -0.9940 H     1 <1>   0.0800 
 42 H       -3.5580    -6.8430    -1.6650 H     1 <1>   0.0800 
 43 H       -7.5910    -2.9710    -0.9030 H     1 <1>   0.1500 
 44 H       -6.5860    -5.2140     2.5720 H     1 <1>   0.1500 
 45 H       -8.0640    -7.0160     1.8350 H     1 <1>   0.1500 
 46 H       -9.3050    -6.8140    -0.2710 H     1 <1>   0.1500 
 47 H       -9.3390    -3.7230    -2.3500 H     1 <1>   0.0800 
 48 H      -10.3080    -5.0990    -1.8940 H     1 <1>   0.0800 
 49 H       -8.8230    -5.3340    -2.7900 H     1 <1>   0.0800 
@<TRIPOS>BOND
  1   1   2  2   
  2   2   3  am  
  3   2   4  1   
  4   3   5  1   
  5   3  25  1   
  6   4   6  1   
  7   4  26  1   
  8   4  27  1   
  9   5   7  1   
 10   5   8  1   
 11   5  28  1   
 12   6   9  1   
 13   6  29  1   
 14   6  30  1   
 15   7  10  1   
 16   7  31  1   
 17   7  32  1   
 18   8  11  1   
 19   8  33  1   
 20   8  34  1   
 21   9  12  1   
 22   9  35  1   
 23   9  36  1   
 24  10  13  1   
 25  10  37  1   
 26  10  38  1   
 27  11  13  1   
 28  11  39  1   
 29  11  40  1   
 30  12  14  1   
 31  12  15  2   
 32  13  41  1   
 33  13  42  1   
 34  14  16  1   
 35  15  17  1   
 36  16  17  2   
 37  17  18  1   
 38  18  19  ar  
 39  18  20  ar  
 40  19  21  ar  
 41  19  43  1   
 42  20  22  ar  
 43  20  44  1   
 44  21  23  ar  
 45  21  24  1   
 46  22  23  ar  
 47  22  45  1   
 48  23  46  1   
 49  24  47  1   
 50  24  48  1   
 51  24  49  1   
@<TRIPOS>SUBSTRUCTURE
  1 ****  17 GROUP 4 **** **** 0

# MOE 2024.06 (io_trps.svl 2023.06)
