@<TRIPOS>MOLECULE
2-(4-Chloro-benzenesulfonylamino)-3-methyl-butyric acid
31 31 1 0 0 
SMALL
USER_CHARGES


@<TRIPOS>ATOM
  1 CL      -0.2120    -0.9150    -1.9050 Cl    1 <1>  -0.1770 
  2 C        1.0800    -1.7580    -1.0890 C.ar  1 <1>   0.1770 
  3 C        0.8230    -2.4050     0.1040 C.ar  1 <1>  -0.1500 
  4 C        2.3450    -1.7640    -1.6420 C.ar  1 <1>  -0.1500 
  5 C        1.8550    -3.0630     0.7520 C.ar  1 <1>  -0.1500 
  6 C        3.3680    -2.4230    -0.9820 C.ar  1 <1>  -0.1500 
  7 C        3.1440    -3.0810     0.2250 C.ar  1 <1>  -0.0090 
  8 S        4.5010    -3.9090     1.1080 S.o2  1 <1>   1.4470 
  9 O        5.3530    -2.8760     1.6550 O.2   1 <1>  -0.6500 
 10 O        4.0560    -4.9140     2.0470 O.2   1 <1>  -0.6500 
 11 N        5.5020    -4.6460    -0.0260 N.am  1 <1>  -0.9140 
 12 C        4.9770    -5.8540    -0.7380 C.3   1 <1>   0.1700 
 13 C        3.5730    -5.7370    -1.3960 C.2   1 <1>   0.9060 
 14 C        5.1240    -7.1340     0.1320 C.3   1 <1>  -0.0800 
 15 O        3.5040    -5.5210    -2.6130 O.co2 1 <1>  -0.9000 
 16 O        2.5550    -5.8540    -0.7020 O.co2 1 <1>  -0.9000 
 17 C        6.4670    -7.2170     0.8830 C.3   1 <1>  -0.2400 
 18 C        4.9680    -8.3980    -0.7320 C.3   1 <1>  -0.2400 
 19 H       -0.1700    -2.4030     0.5130 H     1 <1>   0.1500 
 20 H        2.5260    -1.2710    -2.5790 H     1 <1>   0.1500 
 21 H        1.6620    -3.5870     1.6720 H     1 <1>   0.1500 
 22 H        4.3550    -2.4450    -1.4130 H     1 <1>   0.1500 
 23 H        6.2910    -4.9590     0.5250 H     1 <1>   0.4200 
 24 H        5.6380    -5.9940    -1.5730 H     1 <1>   0.0800 
 25 H        4.3240    -7.1460     0.8540 H     1 <1>   0.0800 
 26 H        7.2910    -7.1070     0.2000 H     1 <1>   0.0800 
 27 H        6.5550    -8.1680     1.3780 H     1 <1>   0.0800 
 28 H        6.5280    -6.4570     1.6410 H     1 <1>   0.0800 
 29 H        5.7280    -8.4370    -1.4910 H     1 <1>   0.0800 
 30 H        4.0040    -8.4050    -1.2120 H     1 <1>   0.0800 
 31 H        5.0370    -9.2810    -0.1220 H     1 <1>   0.0800 
@<TRIPOS>BOND
  1   1   2  1   
  2   2   3  ar  
  3   2   4  ar  
  4   3   5  ar  
  5   3  19  1   
  6   4   6  ar  
  7   4  20  1   
  8   5   7  ar  
  9   5  21  1   
 10   6   7  ar  
 11   6  22  1   
 12   7   8  1   
 13   8   9  2   
 14   8  10  2   
 15   8  11  am  
 16  11  12  1   
 17  11  23  1   
 18  12  13  1   
 19  12  14  1   
 20  12  24  1   
 21  13  15  ar  
 22  13  16  ar  
 23  14  17  1   
 24  14  18  1   
 25  14  25  1   
 26  17  26  1   
 27  17  27  1   
 28  17  28  1   
 29  18  29  1   
 30  18  30  1   
 31  18  31  1   
@<TRIPOS>SUBSTRUCTURE
  1 ****   7 GROUP 4 **** **** 0

# MOE 2024.06 (io_trps.svl 2023.06)
