@<TRIPOS>MOLECULE
N-[2-(4-Acetyl-piperazin-1-yl)-phenyl]-3-isopropoxy-benzamide
55 57 1 0 0 
SMALL
USER_CHARGES


@<TRIPOS>ATOM
  1 O       -0.1780     0.3030     0.5690 O.2   1 <1>  -0.5700 
  2 C        0.3900     1.3700     0.7000 C.2   1 <1>   0.5440 
  3 N        1.7380     1.4670     0.4740 N.am  1 <1>  -0.5470 
  4 C       -0.3570     2.5600     1.0700 C.ar  1 <1>   0.0860 
  5 C        2.7500     0.5600     0.1240 C.ar  1 <1>   0.1170 
  6 C       -1.7130     2.6700     0.7640 C.ar  1 <1>  -0.1500 
  7 C        0.2430     3.6330     1.7360 C.ar  1 <1>  -0.1500 
  8 C        3.9880     1.1200    -0.2230 C.ar  1 <1>   0.1000 
  9 C        2.5930    -0.8190     0.1110 C.ar  1 <1>  -0.1500 
 10 C       -2.4450     3.8050     1.0940 C.ar  1 <1>   0.0830 
 11 C       -0.4750     4.7670     2.0670 C.ar  1 <1>  -0.1500 
 12 N        4.1560     2.5180    -0.2060 N.pl3 1 <1>  -0.8380 
 13 C        5.0320     0.2790    -0.5910 C.ar  1 <1>  -0.1500 
 14 C        3.6450    -1.6440    -0.2510 C.ar  1 <1>  -0.1500 
 15 O       -3.7650     3.9700     0.8240 O.3   1 <1>  -0.3630 
 16 C       -1.8160     4.8520     1.7450 C.ar  1 <1>  -0.1500 
 17 C        5.2250     3.0420     0.7020 C.3   1 <1>   0.2090 
 18 C        4.0710     3.1860    -1.5510 C.3   1 <1>   0.2090 
 19 C        4.8640    -1.0940    -0.6040 C.ar  1 <1>  -0.1500 
 20 C       -4.5570     2.9840     0.1990 C.3   1 <1>   0.2000 
 21 C        5.3210     4.5780     0.6450 C.3   1 <1>   0.1400 
 22 C        5.2620     4.1130    -1.8520 C.3   1 <1>   0.1400 
 23 C       -4.3570     3.0730    -1.3150 C.3   1 <1>  -0.2400 
 24 C       -6.0080     3.2710     0.5780 C.3   1 <1>  -0.2400 
 25 N        5.4910     5.1030    -0.7490 N.am  1 <1>  -0.6600 
 26 C        5.7820     6.4090    -1.0360 C.2   1 <1>   0.5690 
 27 O        5.9060     6.8060    -2.1690 O.2   1 <1>  -0.5700 
 28 C        5.9590     7.4120     0.0800 C.3   1 <1>  -0.1790 
 29 H        2.1260     2.4130     0.4470 H     1 <1>   0.3700 
 30 H       -2.1750     1.8430     0.2600 H     1 <1>   0.1500 
 31 H        1.2820     3.5800     2.0080 H     1 <1>   0.1500 
 32 H        1.6520    -1.2580     0.3830 H     1 <1>   0.1500 
 33 H        0.0040     5.5840     2.5790 H     1 <1>   0.1500 
 34 H        5.9780     0.7000    -0.8720 H     1 <1>   0.1500 
 35 H        3.5090    -2.7120    -0.2580 H     1 <1>   0.1500 
 36 H       -2.3860     5.7290     1.9970 H     1 <1>   0.1500 
 37 H        6.1770     2.6220     0.4270 H     1 <1>   0.0800 
 38 H        5.0090     2.7340     1.7100 H     1 <1>   0.0800 
 39 H        3.1670     3.7690    -1.5890 H     1 <1>   0.0800 
 40 H        4.0040     2.4390    -2.3240 H     1 <1>   0.0800 
 41 H        5.6800    -1.7350    -0.8890 H     1 <1>   0.1500 
 42 H       -4.2800     2.0160     0.5810 H     1 <1>   0.0800 
 43 H        6.1510     4.8940     1.2510 H     1 <1>   0.0800 
 44 H        4.4200     4.9910     1.0640 H     1 <1>   0.0800 
 45 H        5.0760     4.6240    -2.7800 H     1 <1>   0.0800 
 46 H        6.1490     3.5190    -1.9810 H     1 <1>   0.0800 
 47 H       -4.6310     4.0510    -1.6690 H     1 <1>   0.0800 
 48 H       -4.9730     2.3440    -1.8090 H     1 <1>   0.0800 
 49 H       -3.3330     2.8790    -1.5760 H     1 <1>   0.0800 
 50 H       -6.2980     4.2480     0.2370 H     1 <1>   0.0800 
 51 H       -6.1240     3.2180     1.6450 H     1 <1>   0.0800 
 52 H       -6.6570     2.5410     0.1290 H     1 <1>   0.0800 
 53 H        6.8180     7.1540     0.6700 H     1 <1>   0.0800 
 54 H        5.0820     7.4340     0.6980 H     1 <1>   0.0800 
 55 H        6.1110     8.3910    -0.3360 H     1 <1>   0.0800 
@<TRIPOS>BOND
  1   1   2  2   
  2   2   3  am  
  3   2   4  1   
  4   3   5  1   
  5   3  29  1   
  6   4   6  ar  
  7   4   7  ar  
  8   5   8  ar  
  9   5   9  ar  
 10   6  10  ar  
 11   6  30  1   
 12   7  11  ar  
 13   7  31  1   
 14   8  12  1   
 15   8  13  ar  
 16   9  14  ar  
 17   9  32  1   
 18  10  15  1   
 19  10  16  ar  
 20  11  16  ar  
 21  11  33  1   
 22  12  17  1   
 23  12  18  1   
 24  13  19  ar  
 25  13  34  1   
 26  14  19  ar  
 27  14  35  1   
 28  15  20  1   
 29  16  36  1   
 30  17  21  1   
 31  17  37  1   
 32  17  38  1   
 33  18  22  1   
 34  18  39  1   
 35  18  40  1   
 36  19  41  1   
 37  20  23  1   
 38  20  24  1   
 39  20  42  1   
 40  21  25  1   
 41  21  43  1   
 42  21  44  1   
 43  22  25  1   
 44  22  45  1   
 45  22  46  1   
 46  23  47  1   
 47  23  48  1   
 48  23  49  1   
 49  24  50  1   
 50  24  51  1   
 51  24  52  1   
 52  25  26  am  
 53  26  27  2   
 54  26  28  1   
 55  28  53  1   
 56  28  54  1   
 57  28  55  1   
@<TRIPOS>SUBSTRUCTURE
  1 ****   3 GROUP 4 **** **** 0

# MOE 2024.06 (io_trps.svl 2023.06)
