@<TRIPOS>MOLECULE
N-[3-(4-tert-Butyl-phenyl)-[1,2,4]oxadiazol-5-ylmethyl]-4-methoxy-benzenesulfona
51 53 1 0 0 
SMALL
USER_CHARGES


@<TRIPOS>ATOM
  1 S       -2.1620    -0.0020    -0.4830 S.o2  1 <1>   1.4470 
  2 O       -2.0670    -1.2250     0.2760 O.2   1 <1>  -0.6500 
  3 O       -3.4100     0.7150    -0.5980 O.2   1 <1>  -0.6500 
  4 N       -1.7230    -0.4600    -2.0340 N.am  1 <1>  -0.9140 
  5 C       -0.8330     1.1370    -0.0110 C.ar  1 <1>  -0.0090 
  6 C       -2.8540    -1.0050    -2.7910 C.3   1 <1>   0.3760 
  7 C       -0.7860     2.4290    -0.5240 C.ar  1 <1>  -0.1500 
  8 C        0.1830     0.7450     0.8540 C.ar  1 <1>  -0.1500 
  9 C       -3.3360    -2.3580    -2.2760 C.2   1 <1>   0.2980 
 10 C        0.2340     3.3040    -0.1880 C.ar  1 <1>  -0.1500 
 11 C        1.2070     1.6110     1.1950 C.ar  1 <1>  -0.1500 
 12 O       -2.4930    -3.3570    -2.2910 O.3   1 <1>  -0.0190 
 13 N       -4.4930    -2.6280    -1.8310 N.2   1 <1>  -0.5650 
 14 C        1.2420     2.8940     0.6780 C.ar  1 <1>   0.0830 
 15 N       -3.1700    -4.3470    -1.8050 N.2   1 <1>  -0.4100 
 16 C       -4.3500    -3.9200    -1.5190 C.2   1 <1>   0.4620 
 17 O        2.2770     3.6800     1.0590 O.3   1 <1>  -0.3630 
 18 C       -5.4210    -4.7100    -0.9340 C.ar  1 <1>   0.0540 
 19 C        2.4010     5.0080     0.6010 C.3   1 <1>   0.0400 
 20 C       -5.2850    -6.0810    -0.7260 C.ar  1 <1>  -0.1500 
 21 C       -6.6330    -4.1380    -0.5510 C.ar  1 <1>  -0.1500 
 22 C       -6.3000    -6.8390    -0.1700 C.ar  1 <1>  -0.1500 
 23 C       -7.6480    -4.8930     0.0040 C.ar  1 <1>  -0.1500 
 24 C       -7.5070    -6.2610     0.2080 C.ar  1 <1>  -0.1430 
 25 C       -8.6690    -7.0620     0.8350 C.3   1 <1>   0.1440 
 26 C       -8.3560    -8.5590     0.9930 C.3   1 <1>  -0.2400 
 27 C       -8.9810    -6.5040     2.2320 C.3   1 <1>  -0.2400 
 28 C       -9.9160    -6.9400    -0.0540 C.3   1 <1>  -0.2400 
 29 H       -1.0840    -1.2380    -1.8720 H     1 <1>   0.4200 
 30 H       -2.5480    -1.1340    -3.8140 H     1 <1>   0.0800 
 31 H       -3.6760    -0.3090    -2.7910 H     1 <1>   0.0800 
 32 H       -1.5630     2.7550    -1.1950 H     1 <1>   0.1500 
 33 H        0.1750    -0.2500     1.2690 H     1 <1>   0.1500 
 34 H        0.2270     4.2920    -0.6080 H     1 <1>   0.1500 
 35 H        1.9870     1.2970     1.8660 H     1 <1>   0.1500 
 36 H        3.2890     5.4290     1.0380 H     1 <1>   0.0800 
 37 H        1.5380     5.5680     0.9160 H     1 <1>   0.0800 
 38 H        2.4890     5.0010    -0.4710 H     1 <1>   0.0800 
 39 H       -4.3650    -6.5650    -1.0050 H     1 <1>   0.1500 
 40 H       -6.7830    -3.0810    -0.6890 H     1 <1>   0.1500 
 41 H       -6.1180    -7.8900    -0.0420 H     1 <1>   0.1500 
 42 H       -8.5600    -4.3950     0.2800 H     1 <1>   0.1500 
 43 H       -8.1550    -9.0050     0.0350 H     1 <1>   0.0800 
 44 H       -9.1910    -9.0760     1.4310 H     1 <1>   0.0800 
 45 H       -7.5030    -8.7010     1.6330 H     1 <1>   0.0800 
 46 H       -8.1030    -6.5530     2.8510 H     1 <1>   0.0800 
 47 H       -9.7640    -7.0710     2.7020 H     1 <1>   0.0800 
 48 H       -9.2970    -5.4790     2.1780 H     1 <1>   0.0800 
 49 H       -9.6960    -7.2950    -1.0450 H     1 <1>   0.0800 
 50 H      -10.2410    -5.9190    -0.1270 H     1 <1>   0.0800 
 51 H      -10.7270    -7.5210     0.3470 H     1 <1>   0.0800 
@<TRIPOS>BOND
  1   1   2  2   
  2   1   3  2   
  3   1   4  am  
  4   1   5  1   
  5   4   6  1   
  6   4  29  1   
  7   5   7  ar  
  8   5   8  ar  
  9   6   9  1   
 10   6  30  1   
 11   6  31  1   
 12   7  10  ar  
 13   7  32  1   
 14   8  11  ar  
 15   8  33  1   
 16   9  12  1   
 17   9  13  2   
 18  10  14  ar  
 19  10  34  1   
 20  11  14  ar  
 21  11  35  1   
 22  12  15  1   
 23  13  16  1   
 24  14  17  1   
 25  15  16  2   
 26  16  18  1   
 27  17  19  1   
 28  18  20  ar  
 29  18  21  ar  
 30  19  36  1   
 31  19  37  1   
 32  19  38  1   
 33  20  22  ar  
 34  20  39  1   
 35  21  23  ar  
 36  21  40  1   
 37  22  24  ar  
 38  22  41  1   
 39  23  24  ar  
 40  23  42  1   
 41  24  25  1   
 42  25  26  1   
 43  25  27  1   
 44  25  28  1   
 45  26  43  1   
 46  26  44  1   
 47  26  45  1   
 48  27  46  1   
 49  27  47  1   
 50  27  48  1   
 51  28  49  1   
 52  28  50  1   
 53  28  51  1   
@<TRIPOS>SUBSTRUCTURE
  1 ****  13 GROUP 4 **** **** 0

# MOE 2024.06 (io_trps.svl 2023.06)
