@<TRIPOS>MOLECULE
3-(2,5-Dimethyl-benzyl)-8-(3-methoxy-propyl)-1,6,7-trimethyl-1H,8H-imidazo[2,1-f
61 64 1 0 0 
SMALL
USER_CHARGES


@<TRIPOS>ATOM
  1 O        1.4830    -0.6940    -2.4930 O.2   1 <1>  -0.5740 
  2 C        2.1230     0.2220    -2.0190 C.2   1 <1>   0.6870 
  3 N        1.6030     1.5090    -2.0100 N.am  1 <1>  -0.4240 
  4 N        3.3830    -0.0200    -1.4860 N.am  1 <1>  -0.4400 
  5 C        2.3790     2.5940    -1.6390 C.2   1 <1>   0.7000 
  6 C        0.1340     1.7040    -2.1610 C.3   1 <1>   0.2790 
  7 C        4.0840     1.0490    -0.9680 C.2   1 <1>   0.4220 
  8 C        3.9490    -1.4000    -1.4440 C.3   1 <1>   0.0540 
  9 O        2.0090     3.7330    -1.8660 O.2   1 <1>  -0.5740 
 10 C        3.6390     2.3280    -1.0280 C.2   1 <1>   0.2720 
 11 C       -0.5130     1.7110    -0.7760 C.ar  1 <1>  -0.1490 
 12 N        5.2980     1.0270    -0.3520 N.pl3 1 <1>  -0.7030 
 13 N        4.6370     3.1200    -0.4300 N.pl3 1 <1>  -0.6320 
 14 C       -1.0560     2.8540    -0.1920 C.ar  1 <1>  -0.1490 
 15 C       -0.5520     0.5110    -0.0760 C.ar  1 <1>  -0.1560 
 16 C        5.5960     2.2880    -0.0480 C.cat 1 <1>   1.0690 
 17 C        5.0500     4.3880    -0.0820 C.2   1 <1>   0.2350 
 18 C       -1.5890     2.7750     1.0860 C.ar  1 <1>  -0.1560 
 19 C       -1.1090     4.2050    -0.8940 C.3   1 <1>  -0.1030 
 20 C       -1.0870     0.4370     1.1980 C.ar  1 <1>  -0.1490 
 21 N        6.6170     2.9300     0.5290 N.pl3 1 <1>  -0.5710 
 22 C        6.2670     4.2730     0.5060 C.2   1 <1>   0.1590 
 23 C        4.1740     5.5890    -0.3790 C.3   1 <1>  -0.1080 
 24 C       -1.6030     1.5800     1.7780 C.ar  1 <1>  -0.1560 
 25 C       -1.1210    -0.8800     1.9520 C.3   1 <1>  -0.1030 
 26 C        7.8400     2.3050     1.1000 C.3   1 <1>   0.1620 
 27 C        7.1770     5.3480     1.0760 C.3   1 <1>  -0.1080 
 28 C        8.6760     1.6170     0.0090 C.3   1 <1>  -0.1660 
 29 C        8.7820     0.1000     0.1970 C.3   1 <1>   0.1140 
 30 O        7.5030    -0.4550     0.2210 O.3   1 <1>  -0.5640 
 31 C        7.5180    -1.8330     0.4430 C.3   1 <1>   0.0340 
 32 H       -0.2920     0.9090    -2.7480 H     1 <1>   0.0740 
 33 H       -0.0540     2.6180    -2.6920 H     1 <1>   0.0740 
 34 H        3.5130    -2.0110    -2.2160 H     1 <1>   0.0740 
 35 H        3.7370    -1.8490    -0.4890 H     1 <1>   0.0740 
 36 H        5.0130    -1.3740    -1.5990 H     1 <1>   0.0740 
 37 H        5.9660     0.2610    -0.1840 H     1 <1>   0.4460 
 38 H       -0.1690    -0.3880    -0.5250 H     1 <1>   0.1440 
 39 H       -2.0050     3.6490     1.5550 H     1 <1>   0.1440 
 40 H       -1.4710     4.0990    -1.9000 H     1 <1>   0.0740 
 41 H       -0.1370     4.6590    -0.9110 H     1 <1>   0.0740 
 42 H       -1.7770     4.8740    -0.3820 H     1 <1>   0.0740 
 43 H        4.0110     5.6720    -1.4380 H     1 <1>   0.0740 
 44 H        4.6290     6.4970    -0.0300 H     1 <1>   0.0740 
 45 H        3.2200     5.4760     0.1060 H     1 <1>   0.0740 
 46 H       -2.0240     1.5420     2.7680 H     1 <1>   0.1440 
 47 H       -0.4500    -1.5920     1.5080 H     1 <1>   0.0740 
 48 H       -2.1170    -1.2830     1.9300 H     1 <1>   0.0740 
 49 H       -0.8300    -0.7280     2.9750 H     1 <1>   0.0740 
 50 H        7.5530     1.5940     1.8580 H     1 <1>   0.0740 
 51 H        8.4410     3.0580     1.5810 H     1 <1>   0.0740 
 52 H        7.3350     5.1810     2.1260 H     1 <1>   0.0740 
 53 H        6.7440     6.3240     0.9510 H     1 <1>   0.0740 
 54 H        8.1270     5.3330     0.5720 H     1 <1>   0.0740 
 55 H        9.6760     2.0120     0.0560 H     1 <1>   0.0740 
 56 H        8.3050     1.8350    -0.9770 H     1 <1>   0.0740 
 57 H        9.2740    -0.1270     1.1290 H     1 <1>   0.0740 
 58 H        9.3360    -0.3410    -0.6150 H     1 <1>   0.0740 
 59 H        6.5040    -2.1910     0.4610 H     1 <1>   0.0740 
 60 H        7.9870    -2.0380     1.3910 H     1 <1>   0.0740 
 61 H        8.0590    -2.3180    -0.3530 H     1 <1>   0.0740 
@<TRIPOS>BOND
  1   1   2  2   
  2   2   3  am  
  3   2   4  am  
  4   3   5  am  
  5   3   6  1   
  6   4   7  1   
  7   4   8  1   
  8   5   9  2   
  9   5  10  1   
 10   6  11  1   
 11   6  32  1   
 12   6  33  1   
 13   7  10  2   
 14   7  12  1   
 15   8  34  1   
 16   8  35  1   
 17   8  36  1   
 18  10  13  1   
 19  11  14  ar  
 20  11  15  ar  
 21  12  16  ar  
 22  12  37  1   
 23  13  16  ar  
 24  13  17  1   
 25  14  18  ar  
 26  14  19  1   
 27  15  20  ar  
 28  15  38  1   
 29  16  21  ar  
 30  17  22  2   
 31  17  23  1   
 32  18  24  ar  
 33  18  39  1   
 34  19  40  1   
 35  19  41  1   
 36  19  42  1   
 37  20  24  ar  
 38  20  25  1   
 39  21  22  1   
 40  21  26  1   
 41  22  27  1   
 42  23  43  1   
 43  23  44  1   
 44  23  45  1   
 45  24  46  1   
 46  25  47  1   
 47  25  48  1   
 48  25  49  1   
 49  26  28  1   
 50  26  50  1   
 51  26  51  1   
 52  27  52  1   
 53  27  53  1   
 54  27  54  1   
 55  28  29  1   
 56  28  55  1   
 57  28  56  1   
 58  29  30  1   
 59  29  57  1   
 60  29  58  1   
 61  30  31  1   
 62  31  59  1   
 63  31  60  1   
 64  31  61  1   
@<TRIPOS>SUBSTRUCTURE
  1 ****  10 GROUP 4 **** **** 0

# MOE 2024.06 (io_trps.svl 2023.06)
