@<TRIPOS>MOLECULE
N-(2-Methoxy-ethyl)-2-[2-methyl-4-(pyrrolidine-1-sulfonyl)-phenoxy]-acetamide
48 49 1 0 0 
SMALL
USER_CHARGES


@<TRIPOS>ATOM
  1 S       -0.6210     0.6390    -0.6210 S.o2  1 <1>   1.4470 
  2 O       -0.9560    -0.1190    -1.8060 O.2   1 <1>  -0.6500 
  3 O       -1.3330     1.8670    -0.3360 O.2   1 <1>  -0.6500 
  4 N       -0.8630    -0.3940     0.6990 N.am  1 <1>  -0.8490 
  5 C        1.1680     0.9210    -0.5770 C.ar  1 <1>  -0.0090 
  6 C       -0.7260     0.2390     2.0000 C.3   1 <1>   0.1960 
  7 C       -2.1780    -1.0050     0.7020 C.3   1 <1>   0.1960 
  8 C        1.6980     2.1990    -0.4470 C.ar  1 <1>  -0.1500 
  9 C        2.0530    -0.1450    -0.6640 C.ar  1 <1>  -0.1500 
 10 C       -1.3530    -0.7580     2.9660 C.3   1 <1>  -0.1600 
 11 C       -2.3450    -1.5520     2.1160 C.3   1 <1>  -0.1600 
 12 C        3.0650     2.4170    -0.4020 C.ar  1 <1>  -0.1430 
 13 C        3.4200     0.0500    -0.6220 C.ar  1 <1>  -0.1500 
 14 C        3.9360     1.3360    -0.4910 C.ar  1 <1>   0.0830 
 15 C        3.5970     3.8370    -0.2590 C.3   1 <1>  -0.0970 
 16 O        5.2650     1.5940    -0.4440 O.3   1 <1>  -0.3630 
 17 C        6.2340     0.5600    -0.5700 C.3   1 <1>   0.1810 
 18 C        7.6460     1.1250    -0.5190 C.2   1 <1>   0.5690 
 19 O        8.5780     0.3580    -0.4880 O.2   1 <1>  -0.5700 
 20 N        7.8230     2.4730    -0.5030 N.am  1 <1>  -0.7300 
 21 C        9.1320     3.1710    -0.4900 C.3   1 <1>   0.1400 
 22 C        9.7220     3.1690     0.9200 C.3   1 <1>   0.1200 
 23 O       10.8450     3.9950     0.9300 O.3   1 <1>  -0.5600 
 24 C       11.5200     4.0070     2.1460 C.3   1 <1>   0.0400 
 25 H       -1.2820     1.1630     2.0300 H     1 <1>   0.0800 
 26 H        0.3080     0.4320     2.2340 H     1 <1>   0.0800 
 27 H       -2.2440    -1.7810    -0.0430 H     1 <1>   0.0800 
 28 H       -2.9310    -0.2570     0.5070 H     1 <1>   0.0800 
 29 H        1.0210     3.0340    -0.3810 H     1 <1>   0.1500 
 30 H        1.6570    -1.1430    -0.7660 H     1 <1>   0.1500 
 31 H       -1.8320    -0.2510     3.7850 H     1 <1>   0.0800 
 32 H       -0.5900    -1.4100     3.3530 H     1 <1>   0.0800 
 33 H       -2.0980    -2.5990     2.1320 H     1 <1>   0.0800 
 34 H       -3.3590    -1.4240     2.4530 H     1 <1>   0.0800 
 35 H        4.0580    -0.8100    -0.6930 H     1 <1>   0.1500 
 36 H        2.7940     4.5480    -0.1890 H     1 <1>   0.0800 
 37 H        4.2010     4.0870    -1.1120 H     1 <1>   0.0800 
 38 H        4.1990     3.9130     0.6290 H     1 <1>   0.0800 
 39 H        6.0850     0.0650    -1.5110 H     1 <1>   0.0800 
 40 H        6.1000    -0.1330     0.2400 H     1 <1>   0.0800 
 41 H        6.9830     3.0590    -0.5010 H     1 <1>   0.3700 
 42 H        8.9970     4.1840    -0.8250 H     1 <1>   0.0800 
 43 H        9.8110     2.6670    -1.1570 H     1 <1>   0.0800 
 44 H       10.0190     2.1700     1.1930 H     1 <1>   0.0800 
 45 H        9.0100     3.5570     1.6270 H     1 <1>   0.0800 
 46 H       12.3600     4.6730     2.0550 H     1 <1>   0.0800 
 47 H       11.8680     3.0130     2.3690 H     1 <1>   0.0800 
 48 H       10.8580     4.3610     2.9170 H     1 <1>   0.0800 
@<TRIPOS>BOND
  1   1   2  2   
  2   1   3  2   
  3   1   4  am  
  4   1   5  1   
  5   4   6  1   
  6   4   7  1   
  7   5   8  ar  
  8   5   9  ar  
  9   6  10  1   
 10   6  25  1   
 11   6  26  1   
 12   7  11  1   
 13   7  27  1   
 14   7  28  1   
 15   8  12  ar  
 16   8  29  1   
 17   9  13  ar  
 18   9  30  1   
 19  10  11  1   
 20  10  31  1   
 21  10  32  1   
 22  11  33  1   
 23  11  34  1   
 24  12  14  ar  
 25  12  15  1   
 26  13  14  ar  
 27  13  35  1   
 28  14  16  1   
 29  15  36  1   
 30  15  37  1   
 31  15  38  1   
 32  16  17  1   
 33  17  18  1   
 34  17  39  1   
 35  17  40  1   
 36  18  19  2   
 37  18  20  am  
 38  20  21  1   
 39  20  41  1   
 40  21  22  1   
 41  21  42  1   
 42  21  43  1   
 43  22  23  1   
 44  22  44  1   
 45  22  45  1   
 46  23  24  1   
 47  24  46  1   
 48  24  47  1   
 49  24  48  1   
@<TRIPOS>SUBSTRUCTURE
  1 ****  14 GROUP 4 **** **** 0

# MOE 2024.06 (io_trps.svl 2023.06)
