@<TRIPOS>MOLECULE
1-Benzyl-3,7-dimethyl-8-(3-morpholin-4-yl-propylamino)-3,7-dihydro-purine-2,6-di
60 63 1 0 0 
SMALL
USER_CHARGES


@<TRIPOS>ATOM
  1 O        0.5330     0.3460     2.7030 O.2   1 <1>  -0.5740 
  2 C        1.3930     0.7960     1.9740 C.2   1 <1>   0.6870 
  3 N        1.2460     2.0570     1.4150 N.am  1 <1>  -0.4250 
  4 N        2.5370     0.0500     1.7130 N.am  1 <1>  -0.4410 
  5 C        2.2600     2.6450     0.6810 C.2   1 <1>   0.7000 
  6 C       -0.0980     2.6930     1.4160 C.3   1 <1>   0.2780 
  7 C        3.5260     0.6280     0.9390 C.2   1 <1>   0.4210 
  8 C        2.6880    -1.3290     2.2660 C.3   1 <1>   0.0530 
  9 O        2.1640     3.7940     0.2810 O.2   1 <1>  -0.5740 
 10 C        3.4380     1.8710     0.4220 C.2   1 <1>   0.2720 
 11 C       -0.8280     2.2730     0.1500 C.ar  1 <1>  -0.1500 
 12 N        4.7240     0.0900     0.5720 N.pl3 1 <1>  -0.7030 
 13 N        4.6340     2.0940    -0.2930 N.pl3 1 <1>  -0.7670 
 14 C       -1.5310     1.0780     0.1150 C.ar  1 <1>  -0.1560 
 15 C       -0.7910     3.0750    -0.9810 C.ar  1 <1>  -0.1560 
 16 C        5.3680     0.9880    -0.1690 C.cat 1 <1>   1.0690 
 17 C        4.8840     3.3760    -1.0150 C.3   1 <1>   0.2690 
 18 C       -2.1860     0.6870    -1.0400 C.ar  1 <1>  -0.1560 
 19 C       -1.4450     2.6840    -2.1360 C.ar  1 <1>  -0.1560 
 20 N        6.5750     0.8150    -0.7170 N.pl3 1 <1>  -0.7170 
 21 C       -2.1430     1.4890    -2.1660 C.ar  1 <1>  -0.1560 
 22 C        7.4740    -0.3660    -0.6620 C.3   1 <1>   0.1620 
 23 C        8.9180     0.0950    -0.4220 C.3   1 <1>  -0.1660 
 24 C        9.8830    -1.0980    -0.3820 C.3   1 <1>   0.3380 
 25 N       11.2640    -0.6570    -0.0470 N.4   1 <1>  -0.9610 
 26 C       11.9330     0.0970    -1.1700 C.3   1 <1>   0.3380 
 27 C       12.1150    -1.8410     0.3350 C.3   1 <1>   0.3380 
 28 C       13.4030     0.4220    -0.8420 C.3   1 <1>   0.1140 
 29 C       13.5770    -1.4330     0.5970 C.3   1 <1>   0.1140 
 30 O       14.0900    -0.7460    -0.5060 O.3   1 <1>  -0.5640 
 31 H       -0.0040     3.7650     1.4520 H     1 <1>   0.0730 
 32 H       -0.6620     2.3920     2.2820 H     1 <1>   0.0730 
 33 H        1.7260    -1.7480     2.5080 H     1 <1>   0.0730 
 34 H        3.2830    -1.2980     3.1620 H     1 <1>   0.0730 
 35 H        3.1560    -1.9740     1.5440 H     1 <1>   0.0730 
 36 H        5.0490    -0.8400     0.8070 H     1 <1>   0.4450 
 37 H       -1.5730     0.4450     0.9860 H     1 <1>   0.1440 
 38 H       -0.2540     4.0080    -0.9710 H     1 <1>   0.1440 
 39 H        4.8650     4.1980    -0.3180 H     1 <1>   0.0730 
 40 H        4.1140     3.5370    -1.7510 H     1 <1>   0.0730 
 41 H        5.8390     3.3650    -1.5110 H     1 <1>   0.0730 
 42 H       -2.7310    -0.2410    -1.0610 H     1 <1>   0.1440 
 43 H       -1.4150     3.3100    -3.0110 H     1 <1>   0.1440 
 44 H        6.8980     1.5730    -1.3180 H     1 <1>   0.4450 
 45 H       -2.6540     1.1860    -3.0630 H     1 <1>   0.1440 
 46 H        7.4100    -0.8980    -1.5980 H     1 <1>   0.0730 
 47 H        7.1660    -1.0320     0.1280 H     1 <1>   0.0730 
 48 H        8.9650     0.6170     0.5190 H     1 <1>   0.0730 
 49 H        9.2080     0.7600    -1.2160 H     1 <1>   0.0730 
 50 H        9.8850    -1.6070    -1.3330 H     1 <1>   0.0730 
 51 H        9.5460    -1.7960     0.3690 H     1 <1>   0.0730 
 52 H       11.2410    -0.0360     0.7720 H     1 <1>   0.4450 
 53 H       11.4070     1.0160    -1.3650 H     1 <1>   0.0730 
 54 H       11.9120    -0.4960    -2.0700 H     1 <1>   0.0730 
 55 H       12.1060    -2.5680    -0.4610 H     1 <1>   0.0730 
 56 H       11.7170    -2.3110     1.2190 H     1 <1>   0.0730 
 57 H       13.4780     1.1170    -0.0240 H     1 <1>   0.0730 
 58 H       13.8890     0.8500    -1.7010 H     1 <1>   0.0730 
 59 H       14.1850    -2.3090     0.7460 H     1 <1>   0.0730 
 60 H       13.6610    -0.8060     1.4670 H     1 <1>   0.0730 
@<TRIPOS>BOND
  1   1   2  2   
  2   2   3  am  
  3   2   4  am  
  4   3   5  am  
  5   3   6  1   
  6   4   7  1   
  7   4   8  1   
  8   5   9  2   
  9   5  10  1   
 10   6  11  1   
 11   6  31  1   
 12   6  32  1   
 13   7  10  2   
 14   7  12  1   
 15   8  33  1   
 16   8  34  1   
 17   8  35  1   
 18  10  13  1   
 19  11  14  ar  
 20  11  15  ar  
 21  12  16  ar  
 22  12  36  1   
 23  13  16  ar  
 24  13  17  1   
 25  14  18  ar  
 26  14  37  1   
 27  15  19  ar  
 28  15  38  1   
 29  16  20  ar  
 30  17  39  1   
 31  17  40  1   
 32  17  41  1   
 33  18  21  ar  
 34  18  42  1   
 35  19  21  ar  
 36  19  43  1   
 37  20  22  1   
 38  20  44  1   
 39  21  45  1   
 40  22  23  1   
 41  22  46  1   
 42  22  47  1   
 43  23  24  1   
 44  23  48  1   
 45  23  49  1   
 46  24  25  1   
 47  24  50  1   
 48  24  51  1   
 49  25  26  1   
 50  25  27  1   
 51  25  52  1   
 52  26  28  1   
 53  26  53  1   
 54  26  54  1   
 55  27  29  1   
 56  27  55  1   
 57  27  56  1   
 58  28  30  1   
 59  28  57  1   
 60  28  58  1   
 61  29  30  1   
 62  29  59  1   
 63  29  60  1   
@<TRIPOS>SUBSTRUCTURE
  1 ****  16 GROUP 4 **** **** 0

# MOE 2024.06 (io_trps.svl 2023.06)
