@<TRIPOS>MOLECULE
4-(4-Fluoro-phenyl)-3,6-dihydroxy-6-methyl-4,5,6,7-tetrahydro-1H-indazole-5-carb
40 42 1 0 0 
SMALL
USER_CHARGES


@<TRIPOS>ATOM
  1 F       -0.2720     0.3340     0.4700 F     1 <1>  -0.1900 
  2 C       -0.2690     1.6190     0.2400 C.ar  1 <1>   0.1900 
  3 C        0.0140     2.4830     1.2800 C.ar  1 <1>  -0.1500 
  4 C       -0.5490     2.0700    -1.0350 C.ar  1 <1>  -0.1500 
  5 C        0.0150     3.8440     1.0300 C.ar  1 <1>  -0.1500 
  6 C       -0.5440     3.4340    -1.2730 C.ar  1 <1>  -0.1500 
  7 C       -0.2610     4.3290    -0.2460 C.ar  1 <1>  -0.1430 
  8 C       -0.2540     5.8330    -0.5340 C.3   1 <1>   0.2450 
  9 C        0.9780     6.4920     0.0630 C.2   1 <1>  -0.1810 
 10 C       -1.5260     6.5150     0.0190 C.3   1 <1>  -0.0190 
 11 C        2.3010     6.0760     0.1330 C.2   1 <1>   0.3510 
 12 C        0.9820     7.7000     0.6560 C.2   1 <1>  -0.3320 
 13 C       -2.7570     5.9780    -0.6860 C.2   1 <1>   0.6590 
 14 C       -1.4370     8.0660    -0.0120 C.3   1 <1>   0.2800 
 15 O        2.7530     4.8960    -0.3210 O.3   1 <1>  -0.5120 
 16 N        3.0780     6.9260     0.7160 N.2   1 <1>  -0.7070 
 17 N        2.2560     7.9480     1.0390 N.pl3 1 <1>   0.3000 
 18 C       -0.2440     8.5790     0.8380 C.3   1 <1>   0.0200 
 19 O       -2.7750     5.6840    -1.8540 O.2   1 <1>  -0.5700 
 20 O       -3.8280     5.8210     0.0860 O.3   1 <1>  -0.4300 
 21 O       -1.2310     8.4560    -1.3200 O.3   1 <1>  -0.6800 
 22 C       -2.7290     8.7640     0.4310 C.3   1 <1>  -0.2400 
 23 C       -5.0360     5.2950    -0.4240 C.3   1 <1>   0.0400 
 24 H        0.2280     2.0950     2.2590 H     1 <1>   0.1500 
 25 H       -0.7690     1.3690    -1.8200 H     1 <1>   0.1500 
 26 H        0.2390     4.5250     1.8350 H     1 <1>   0.1500 
 27 H       -0.7700     3.7970    -2.2630 H     1 <1>   0.1500 
 28 H       -0.2060     5.9920    -1.5980 H     1 <1>   0.0800 
 29 H       -1.6140     6.2290     1.0500 H     1 <1>   0.0800 
 30 H        1.9970     4.3030    -0.4700 H     1 <1>   0.4500 
 31 H        2.6020     8.7890     1.5160 H     1 <1>   0.2700 
 32 H       -0.0180     9.5990     0.5830 H     1 <1>   0.0800 
 33 H       -0.5140     8.5510     1.8790 H     1 <1>   0.0800 
 34 H       -1.2090     9.4280    -1.3910 H     1 <1>   0.4000 
 35 H       -3.0100     8.4300     1.4140 H     1 <1>   0.0800 
 36 H       -3.5380     8.5420    -0.2420 H     1 <1>   0.0800 
 37 H       -2.5950     9.8300     0.4660 H     1 <1>   0.0800 
 38 H       -5.7580     5.2620     0.3720 H     1 <1>   0.0800 
 39 H       -4.8520     4.3020    -0.7980 H     1 <1>   0.0800 
 40 H       -5.3860     5.9320    -1.2180 H     1 <1>   0.0800 
@<TRIPOS>BOND
  1   1   2  1   
  2   2   3  ar  
  3   2   4  ar  
  4   3   5  ar  
  5   3  24  1   
  6   4   6  ar  
  7   4  25  1   
  8   5   7  ar  
  9   5  26  1   
 10   6   7  ar  
 11   6  27  1   
 12   7   8  1   
 13   8   9  1   
 14   8  10  1   
 15   8  28  1   
 16   9  11  1   
 17   9  12  2   
 18  10  13  1   
 19  10  14  1   
 20  10  29  1   
 21  11  15  1   
 22  11  16  2   
 23  12  17  1   
 24  12  18  1   
 25  13  19  2   
 26  13  20  1   
 27  14  18  1   
 28  14  21  1   
 29  14  22  1   
 30  15  30  1   
 31  16  17  1   
 32  17  31  1   
 33  18  32  1   
 34  18  33  1   
 35  20  23  1   
 36  21  34  1   
 37  22  35  1   
 38  22  36  1   
 39  22  37  1   
 40  23  38  1   
 41  23  39  1   
 42  23  40  1   
@<TRIPOS>SUBSTRUCTURE
  1 ****   8 GROUP 4 **** **** 0

# MOE 2024.06 (io_trps.svl 2023.06)
