@<TRIPOS>MOLECULE
(1,6-Dimethyl-2,4-dioxo-8-o-tolyl-1,4,5,6,7,8-hexahydro-2H-1,3,4b,8,9-pentaaza-f
56 59 1 0 0 
SMALL
USER_CHARGES


@<TRIPOS>ATOM
  1 O        0.8670     0.3340    -1.5260 O.2   1 <1>  -0.5740 
  2 C        1.8420     1.0530    -1.4470 C.2   1 <1>   0.6870 
  3 N        1.6860     2.4310    -1.5010 N.am  1 <1>  -0.4250 
  4 N        3.1060     0.4980    -1.2970 N.am  1 <1>  -0.4410 
  5 C        2.7740     3.2830    -1.4020 C.2   1 <1>   0.7000 
  6 C        0.3220     3.0050    -1.2420 C.3   1 <1>   0.1950 
  7 C        4.1760     1.3570    -1.1350 C.2   1 <1>   0.4210 
  8 C        3.2860    -0.9820    -1.2310 C.3   1 <1>   0.0530 
  9 O        2.6270     4.4900    -1.5030 O.2   1 <1>  -0.5740 
 10 C        4.0630     2.7030    -1.1830 C.2   1 <1>   0.2710 
 11 C        0.0710     3.1870     0.2520 C.2   1 <1>   0.6550 
 12 N        5.4810     1.0390    -0.9040 N.pl3 1 <1>  -0.7030 
 13 N        5.3540     3.2090    -0.9780 N.pl3 1 <1>  -0.7670 
 14 O        0.9400     2.9980     1.0710 O.2   1 <1>  -0.5740 
 15 O       -1.1530     3.5690     0.5880 O.3   1 <1>  -0.4350 
 16 C        6.1660     2.1760    -0.8050 C.cat 1 <1>   1.0690 
 17 C        5.7720     4.6250    -0.9210 C.3   1 <1>   0.3490 
 18 C       -1.5240     3.7700     1.9320 C.3   1 <1>   0.1130 
 19 N        7.4810     2.3040    -0.5600 N.pl3 1 <1>  -0.5790 
 20 C        7.2830     4.7160    -1.2060 C.3   1 <1>  -0.0870 
 21 C       -2.9850     4.2040     1.9600 C.3   1 <1>  -0.2460 
 22 C        8.3180     1.2010    -0.3620 C.ar  1 <1>   0.3050 
 23 C        8.0760     3.6620    -0.4070 C.3   1 <1>   0.1610 
 24 C        7.8120     6.1260    -0.9080 C.3   1 <1>  -0.2460 
 25 C        8.3530     0.5210     0.8570 C.ar  1 <1>  -0.1500 
 26 C        9.1060     0.7590    -1.4170 C.ar  1 <1>  -0.1570 
 27 C        9.1630    -0.5960     0.9870 C.ar  1 <1>  -0.1570 
 28 C        7.5320     0.9710     2.0630 C.3   1 <1>  -0.1030 
 29 C        9.9120    -0.3540    -1.2770 C.ar  1 <1>  -0.1570 
 30 C        9.9370    -1.0340    -0.0730 C.ar  1 <1>  -0.1570 
 31 H       -0.4380     2.3600    -1.6440 H     1 <1>   0.0730 
 32 H        0.2260     3.9590    -1.7270 H     1 <1>   0.0730 
 33 H        2.4800    -1.4830    -1.7410 H     1 <1>   0.0730 
 34 H        3.2920    -1.3010    -0.2030 H     1 <1>   0.0730 
 35 H        4.2090    -1.2700    -1.7030 H     1 <1>   0.0730 
 36 H        5.8990     0.1170    -0.7970 H     1 <1>   0.4450 
 37 H        5.5510     5.0180     0.0580 H     1 <1>   0.0730 
 38 H        5.2250     5.2020    -1.6490 H     1 <1>   0.0730 
 39 H       -0.8880     4.5310     2.3530 H     1 <1>   0.0730 
 40 H       -1.3850     2.8460     2.4670 H     1 <1>   0.0730 
 41 H        7.4370     4.5290    -2.2550 H     1 <1>   0.0730 
 42 H       -3.1110     5.1220     1.4150 H     1 <1>   0.0730 
 43 H       -3.2960     4.3640     2.9770 H     1 <1>   0.0730 
 44 H       -3.6080     3.4400     1.5290 H     1 <1>   0.0730 
 45 H        9.0980     3.6480    -0.7480 H     1 <1>   0.0730 
 46 H        8.0790     3.9210     0.6390 H     1 <1>   0.0730 
 47 H        7.6900     6.3750     0.1320 H     1 <1>   0.0730 
 48 H        7.2870     6.8590    -1.4980 H     1 <1>   0.0730 
 49 H        8.8590     6.1940    -1.1530 H     1 <1>   0.0730 
 50 H        9.0910     1.2850    -2.3550 H     1 <1>   0.1430 
 51 H        9.2070    -1.1370     1.9180 H     1 <1>   0.1430 
 52 H        6.4870     0.7750     1.9050 H     1 <1>   0.0730 
 53 H        7.6710     2.0230     2.2410 H     1 <1>   0.0730 
 54 H        7.8400     0.4470     2.9510 H     1 <1>   0.0730 
 55 H       10.5230    -0.6940    -2.0970 H     1 <1>   0.1430 
 56 H       10.5650    -1.9020     0.0410 H     1 <1>   0.1430 
@<TRIPOS>BOND
  1   1   2  2   
  2   2   3  am  
  3   2   4  am  
  4   3   5  am  
  5   3   6  1   
  6   4   7  1   
  7   4   8  1   
  8   5   9  2   
  9   5  10  1   
 10   6  11  1   
 11   6  31  1   
 12   6  32  1   
 13   7  10  2   
 14   7  12  1   
 15   8  33  1   
 16   8  34  1   
 17   8  35  1   
 18  10  13  1   
 19  11  14  2   
 20  11  15  1   
 21  12  16  ar  
 22  12  36  1   
 23  13  16  ar  
 24  13  17  1   
 25  15  18  1   
 26  16  19  ar  
 27  17  20  1   
 28  17  37  1   
 29  17  38  1   
 30  18  21  1   
 31  18  39  1   
 32  18  40  1   
 33  19  22  1   
 34  19  23  1   
 35  20  23  1   
 36  20  24  1   
 37  20  41  1   
 38  21  42  1   
 39  21  43  1   
 40  21  44  1   
 41  22  25  ar  
 42  22  26  ar  
 43  23  45  1   
 44  23  46  1   
 45  24  47  1   
 46  24  48  1   
 47  24  49  1   
 48  25  27  ar  
 49  25  28  1   
 50  26  29  ar  
 51  26  50  1   
 52  27  30  ar  
 53  27  51  1   
 54  28  52  1   
 55  28  53  1   
 56  28  54  1   
 57  29  30  ar  
 58  29  55  1   
 59  30  56  1   
@<TRIPOS>SUBSTRUCTURE
  1 ****  10 GROUP 4 **** **** 0

# MOE 2024.06 (io_trps.svl 2023.06)
