@<TRIPOS>MOLECULE
4-(Morpholine-4-carbonyl)-piperazine-1-carboxylic acid dimethylamide
41 42 1 0 0 
SMALL
USER_CHARGES


@<TRIPOS>ATOM
  1 O       -0.7500     0.6730    -0.1590 O.2   1 <1>  -0.5700 
  2 C       -1.2570     1.7820    -0.1290 C.2   1 <1>   0.6900 
  3 N       -0.5180     2.8580     0.2900 N.am  1 <1>  -0.6600 
  4 N       -2.5610     1.9430    -0.5140 N.am  1 <1>  -0.6600 
  5 C       -0.5920     4.1710    -0.4140 C.3   1 <1>   0.1400 
  6 C        0.7610     2.6690     1.0350 C.3   1 <1>   0.1400 
  7 C       -3.5030     2.7870     0.2810 C.3   1 <1>   0.1400 
  8 C       -3.2510     0.8860    -1.3120 C.3   1 <1>   0.1400 
  9 C        0.6900     4.4200    -1.2270 C.3   1 <1>   0.1200 
 10 C        1.9610     2.9950     0.1330 C.3   1 <1>   0.1200 
 11 C       -4.3900     1.9100     1.1790 C.3   1 <1>   0.1400 
 12 C       -4.1380     0.0100    -0.4140 C.3   1 <1>   0.1400 
 13 O        1.8250     4.2740    -0.4220 O.3   1 <1>  -0.5600 
 14 N       -5.0790     0.8550     0.3800 N.am  1 <1>  -0.6600 
 15 C       -6.3670     1.0490    -0.0450 C.2   1 <1>   0.6900 
 16 O       -6.8110     2.1840    -0.1110 O.2   1 <1>  -0.5700 
 17 N       -7.1550    -0.0180    -0.4090 N.am  1 <1>  -0.6600 
 18 C       -8.4060     0.1910    -1.1860 C.3   1 <1>   0.0600 
 19 C       -7.0360    -1.3550     0.2320 C.3   1 <1>   0.0600 
 20 H       -0.7130     4.9570     0.3110 H     1 <1>   0.0800 
 21 H       -1.4370     4.1950    -1.0790 H     1 <1>   0.0800 
 22 H        0.8420     1.6570     1.3910 H     1 <1>   0.0800 
 23 H        0.7720     3.3210     1.8900 H     1 <1>   0.0800 
 24 H       -4.1290     3.3520    -0.3880 H     1 <1>   0.0800 
 25 H       -2.9610     3.4800     0.8990 H     1 <1>   0.0800 
 26 H       -2.5260     0.2680    -1.8140 H     1 <1>   0.0800 
 27 H       -3.8610     1.3540    -2.0640 H     1 <1>   0.0800 
 28 H        0.6930     5.4200    -1.6210 H     1 <1>   0.0800 
 29 H        0.7570     3.7240    -2.0460 H     1 <1>   0.0800 
 30 H        2.0390     2.2760    -0.6650 H     1 <1>   0.0800 
 31 H        2.8720     2.9780     0.7040 H     1 <1>   0.0800 
 32 H       -5.1170     2.5260     1.6790 H     1 <1>   0.0800 
 33 H       -3.7810     1.4410     1.9320 H     1 <1>   0.0800 
 34 H       -3.5150    -0.5570     0.2560 H     1 <1>   0.0800 
 35 H       -4.6840    -0.6800    -1.0310 H     1 <1>   0.0800 
 36 H       -8.3500     1.1130    -1.7400 H     1 <1>   0.0800 
 37 H       -9.2450     0.2420    -0.5140 H     1 <1>   0.0800 
 38 H       -8.5480    -0.6190    -1.8780 H     1 <1>   0.0800 
 39 H       -6.2800    -1.3430     0.9990 H     1 <1>   0.0800 
 40 H       -6.7750    -2.0900    -0.5080 H     1 <1>   0.0800 
 41 H       -7.9730    -1.6260     0.6860 H     1 <1>   0.0800 
@<TRIPOS>BOND
  1   1   2  2   
  2   2   3  am  
  3   2   4  am  
  4   3   5  1   
  5   3   6  1   
  6   4   7  1   
  7   4   8  1   
  8   5   9  1   
  9   5  20  1   
 10   5  21  1   
 11   6  10  1   
 12   6  22  1   
 13   6  23  1   
 14   7  11  1   
 15   7  24  1   
 16   7  25  1   
 17   8  12  1   
 18   8  26  1   
 19   8  27  1   
 20   9  13  1   
 21   9  28  1   
 22   9  29  1   
 23  10  13  1   
 24  10  30  1   
 25  10  31  1   
 26  11  14  1   
 27  11  32  1   
 28  11  33  1   
 29  12  14  1   
 30  12  34  1   
 31  12  35  1   
 32  14  15  am  
 33  15  16  2   
 34  15  17  am  
 35  17  18  1   
 36  17  19  1   
 37  18  36  1   
 38  18  37  1   
 39  18  38  1   
 40  19  39  1   
 41  19  40  1   
 42  19  41  1   
@<TRIPOS>SUBSTRUCTURE
  1 ****   4 GROUP 4 **** **** 0

# MOE 2024.06 (io_trps.svl 2023.06)
