@<TRIPOS>MOLECULE
5-Oxo-1-p-tolyl-pyrrolidine-3-carboxylic acid cyclopentylamide
43 45 1 0 0 
SMALL
USER_CHARGES


@<TRIPOS>ATOM
  1 O        0.8160     0.1840    -0.8220 O.2   1 <1>  -0.5700 
  2 C        1.9560     0.3210    -0.4520 C.2   1 <1>   0.5690 
  3 N        2.8430    -0.6670    -0.1320 N.am  1 <1>  -0.4770 
  4 C        2.5740     1.6840    -0.3030 C.3   1 <1>  -0.0990 
  5 C        2.6030    -2.0520    -0.0460 C.ar  1 <1>   0.1170 
  6 C        4.1290    -0.0810     0.3020 C.3   1 <1>   0.1400 
  7 C        4.0710     1.3700    -0.1910 C.3   1 <1>  -0.0190 
  8 C        3.5610    -2.9750    -0.4540 C.ar  1 <1>  -0.1500 
  9 C        1.4010    -2.5390     0.4580 C.ar  1 <1>  -0.1500 
 10 C        4.8250     2.3380     0.7030 C.2   1 <1>   0.5690 
 11 C        3.3310    -4.3360    -0.3500 C.ar  1 <1>  -0.1500 
 12 C        1.1670    -3.8980     0.5610 C.ar  1 <1>  -0.1500 
 13 O        4.7120     2.2460     1.9000 O.2   1 <1>  -0.5700 
 14 N        5.6030     3.2850     0.1230 N.am  1 <1>  -0.7300 
 15 C        2.1330    -4.8070     0.1610 C.ar  1 <1>  -0.1430 
 16 C        6.3850     4.3010     0.8470 C.3   1 <1>   0.2200 
 17 C        1.8770    -6.2980     0.2730 C.3   1 <1>  -0.0970 
 18 C        5.9670     5.6810     0.3580 C.3   1 <1>  -0.1600 
 19 C        7.8410     4.2010     0.4110 C.3   1 <1>  -0.1600 
 20 C        6.7310     5.9110    -0.9510 C.3   1 <1>  -0.1600 
 21 C        7.9320     4.9570    -0.9190 C.3   1 <1>  -0.1600 
 22 H        2.1980     2.1340     0.5980 H     1 <1>   0.0800 
 23 H        2.3510     2.3060    -1.1500 H     1 <1>   0.0800 
 24 H        4.9680    -0.6000    -0.1260 H     1 <1>   0.0800 
 25 H        4.1840    -0.1320     1.3770 H     1 <1>   0.0800 
 26 H        4.5010     1.3920    -1.1760 H     1 <1>   0.0800 
 27 H        4.4920    -2.6350    -0.8640 H     1 <1>   0.1500 
 28 H        0.6410    -1.8460     0.7710 H     1 <1>   0.1500 
 29 H        4.0880    -5.0290    -0.6730 H     1 <1>   0.1500 
 30 H        0.2270    -4.2440     0.9530 H     1 <1>   0.1500 
 31 H        5.6710     3.3630    -0.8910 H     1 <1>   0.3700 
 32 H        6.2670     4.1900     1.9140 H     1 <1>   0.0800 
 33 H        2.8000    -6.8300     0.4110 H     1 <1>   0.0800 
 34 H        1.4010    -6.6520    -0.6240 H     1 <1>   0.0800 
 35 H        1.2370    -6.5070     1.1120 H     1 <1>   0.0800 
 36 H        6.2900     6.4090     1.0820 H     1 <1>   0.0800 
 37 H        4.9000     5.7670     0.2410 H     1 <1>   0.0800 
 38 H        8.1760     3.1810     0.3380 H     1 <1>   0.0800 
 39 H        8.4480     4.7080     1.1410 H     1 <1>   0.0800 
 40 H        7.0470     6.9370    -1.0330 H     1 <1>   0.0800 
 41 H        6.1010     5.6760    -1.7920 H     1 <1>   0.0800 
 42 H        7.8690     4.2640    -1.7410 H     1 <1>   0.0800 
 43 H        8.8630     5.4940    -0.9910 H     1 <1>   0.0800 
@<TRIPOS>BOND
  1   1   2  2   
  2   2   3  am  
  3   2   4  1   
  4   3   5  1   
  5   3   6  1   
  6   4   7  1   
  7   4  22  1   
  8   4  23  1   
  9   5   8  ar  
 10   5   9  ar  
 11   6   7  1   
 12   6  24  1   
 13   6  25  1   
 14   7  10  1   
 15   7  26  1   
 16   8  11  ar  
 17   8  27  1   
 18   9  12  ar  
 19   9  28  1   
 20  10  13  2   
 21  10  14  am  
 22  11  15  ar  
 23  11  29  1   
 24  12  15  ar  
 25  12  30  1   
 26  14  16  1   
 27  14  31  1   
 28  15  17  1   
 29  16  18  1   
 30  16  19  1   
 31  16  32  1   
 32  17  33  1   
 33  17  34  1   
 34  17  35  1   
 35  18  20  1   
 36  18  36  1   
 37  18  37  1   
 38  19  21  1   
 39  19  38  1   
 40  19  39  1   
 41  20  21  1   
 42  20  40  1   
 43  20  41  1   
 44  21  42  1   
 45  21  43  1   
@<TRIPOS>SUBSTRUCTURE
  1 ****   6 GROUP 4 **** **** 0

# MOE 2024.06 (io_trps.svl 2023.06)
