@<TRIPOS>MOLECULE
1-Isopropyl-5-oxo-pyrrolidine-3-carboxylic acid (2,6-dimethyl-phenyl)-amide
42 43 1 0 0 
SMALL
USER_CHARGES


@<TRIPOS>ATOM
  1 O       -0.0290     0.7370     1.5730 O.2   1 <1>  -0.5700 
  2 C       -0.3830     1.7700     1.0610 C.2   1 <1>   0.5690 
  3 N       -1.5040     1.9640     0.3330 N.am  1 <1>  -0.6600 
  4 C        0.4170     3.0360     1.1650 C.3   1 <1>  -0.0990 
  5 C       -2.4770     0.9060    -0.0130 C.3   1 <1>   0.2200 
  6 C       -1.6150     3.3560    -0.1530 C.3   1 <1>   0.1400 
  7 C       -0.5710     4.1170     0.6810 C.3   1 <1>  -0.0190 
  8 C       -2.5810     0.7710    -1.5310 C.3   1 <1>  -0.2400 
  9 C       -3.8310     1.2270     0.6160 C.3   1 <1>  -0.2400 
 10 C        0.0730     5.2770    -0.0660 C.2   1 <1>   0.5690 
 11 O       -0.4780     5.7200    -1.0430 O.2   1 <1>  -0.5700 
 12 N        1.2480     5.7780     0.4180 N.am  1 <1>  -0.5470 
 13 C        2.0610     6.7760    -0.1390 C.ar  1 <1>   0.1170 
 14 C        1.6540     8.1130    -0.1730 C.ar  1 <1>  -0.1440 
 15 C        3.3180     6.4280    -0.6410 C.ar  1 <1>  -0.1440 
 16 C        2.4950     9.0750    -0.7080 C.ar  1 <1>  -0.1500 
 17 C        0.2980     8.5550     0.3650 C.3   1 <1>  -0.0970 
 18 C        4.1460     7.4050    -1.1670 C.ar  1 <1>  -0.1500 
 19 C        3.7990     4.9820    -0.6350 C.3   1 <1>  -0.0970 
 20 C        3.7380     8.7250    -1.2020 C.ar  1 <1>  -0.1500 
 21 H        1.2640     2.9480     0.5100 H     1 <1>   0.0800 
 22 H        0.7370     3.2000     2.1770 H     1 <1>   0.0800 
 23 H       -2.1240    -0.0300     0.3910 H     1 <1>   0.0800 
 24 H       -2.6020     3.7540     0.0030 H     1 <1>   0.0800 
 25 H       -1.3730     3.3830    -1.2020 H     1 <1>   0.0800 
 26 H       -1.0810     4.5220     1.5360 H     1 <1>   0.0800 
 27 H       -2.9840     1.6640    -1.9730 H     1 <1>   0.0800 
 28 H       -3.2280    -0.0510    -1.7780 H     1 <1>   0.0800 
 29 H       -1.6090     0.5720    -1.9480 H     1 <1>   0.0800 
 30 H       -4.2490     2.1240     0.1990 H     1 <1>   0.0800 
 31 H       -3.7200     1.3430     1.6790 H     1 <1>   0.0800 
 32 H       -4.5140     0.4180     0.4340 H     1 <1>   0.0800 
 33 H        1.6630     5.2930     1.2090 H     1 <1>   0.3700 
 34 H        2.1890    10.1050    -0.7450 H     1 <1>   0.1500 
 35 H        0.0980     8.0870     1.3120 H     1 <1>   0.0800 
 36 H       -0.4740     8.2810    -0.3310 H     1 <1>   0.0800 
 37 H        0.2680     9.6200     0.5050 H     1 <1>   0.0800 
 38 H        5.1140     7.1480    -1.5580 H     1 <1>   0.1500 
 39 H        3.0940     4.3610    -1.1590 H     1 <1>   0.0800 
 40 H        3.9000     4.6290     0.3740 H     1 <1>   0.0800 
 41 H        4.7520     4.8910    -1.1240 H     1 <1>   0.0800 
 42 H        4.3840     9.4790    -1.6150 H     1 <1>   0.1500 
@<TRIPOS>BOND
  1   1   2  2   
  2   2   3  am  
  3   2   4  1   
  4   3   5  1   
  5   3   6  1   
  6   4   7  1   
  7   4  21  1   
  8   4  22  1   
  9   5   8  1   
 10   5   9  1   
 11   5  23  1   
 12   6   7  1   
 13   6  24  1   
 14   6  25  1   
 15   7  10  1   
 16   7  26  1   
 17   8  27  1   
 18   8  28  1   
 19   8  29  1   
 20   9  30  1   
 21   9  31  1   
 22   9  32  1   
 23  10  11  2   
 24  10  12  am  
 25  12  13  1   
 26  12  33  1   
 27  13  14  ar  
 28  13  15  ar  
 29  14  16  ar  
 30  14  17  1   
 31  15  18  ar  
 32  15  19  1   
 33  16  20  ar  
 34  16  34  1   
 35  17  35  1   
 36  17  36  1   
 37  17  37  1   
 38  18  20  ar  
 39  18  38  1   
 40  19  39  1   
 41  19  40  1   
 42  19  41  1   
 43  20  42  1   
@<TRIPOS>SUBSTRUCTURE
  1 ****  10 GROUP 4 **** **** 0

# MOE 2024.06 (io_trps.svl 2023.06)
