@<TRIPOS>MOLECULE
Cyclohexanecarboxylic acid {1-[3-(4-methoxy-phenyl)-[1,2,4]oxadiazol-5-yl]-ethyl
47 49 1 0 0 
SMALL
USER_CHARGES


@<TRIPOS>ATOM
  1 O       -1.2600    -1.0460     1.4900 O.2   1 <1>  -0.5700 
  2 C       -2.1620    -0.6230     0.8140 C.2   1 <1>   0.5690 
  3 N       -2.8120    -1.5230     0.0370 N.am  1 <1>  -0.7300 
  4 C       -2.4280     0.8900     0.8890 C.3   1 <1>  -0.0190 
  5 C       -4.1070    -1.5110    -0.6780 C.3   1 <1>   0.4000 
  6 C       -3.8980     1.3600     0.8760 C.3   1 <1>  -0.1600 
  7 C       -1.6130     1.6540    -0.1730 C.3   1 <1>  -0.1600 
  8 C       -4.7350    -2.9050    -0.6740 C.2   1 <1>   0.2980 
  9 C       -3.8790    -1.0160    -2.1060 C.3   1 <1>  -0.2400 
 10 C       -3.9900     2.8730     1.1140 C.3   1 <1>  -0.1600 
 11 C       -1.7230     3.1750     0.0190 C.3   1 <1>  -0.1600 
 12 O       -4.0470    -3.9060    -1.1590 O.3   1 <1>  -0.0190 
 13 N       -5.8900    -3.2020    -0.2360 N.2   1 <1>  -0.5650 
 14 C       -3.1860     3.6390     0.0550 C.3   1 <1>  -0.1600 
 15 N       -4.8310    -4.9280    -1.0160 N.2   1 <1>  -0.4100 
 16 C       -5.9210    -4.5190    -0.4690 C.2   1 <1>   0.4620 
 17 C       -7.0640    -5.3500    -0.1310 C.ar  1 <1>   0.0540 
 18 C       -8.2030    -4.8210     0.4810 C.ar  1 <1>  -0.1500 
 19 C       -7.0710    -6.7200    -0.4060 C.ar  1 <1>  -0.1500 
 20 C       -9.2880    -5.6160     0.8000 C.ar  1 <1>  -0.1500 
 21 C       -8.1520    -7.5230    -0.0900 C.ar  1 <1>  -0.1500 
 22 C       -9.2750    -6.9710     0.5190 C.ar  1 <1>   0.0820 
 23 O      -10.3760    -7.6810     0.8620 O.3   1 <1>  -0.3620 
 24 C      -10.4620    -9.0680     0.6190 C.3   1 <1>   0.0400 
 25 H       -2.4080    -2.4600     0.1010 H     1 <1>   0.3700 
 26 H       -2.0330     1.1890     1.8450 H     1 <1>   0.0800 
 27 H       -4.7980    -0.8660    -0.1710 H     1 <1>   0.0800 
 28 H       -4.4550     0.8390     1.6360 H     1 <1>   0.0800 
 29 H       -4.3420     1.1640    -0.0800 H     1 <1>   0.0800 
 30 H       -1.9570     1.3930    -1.1560 H     1 <1>   0.0800 
 31 H       -0.5780     1.3650    -0.1010 H     1 <1>   0.0800 
 32 H       -3.1700    -1.6450    -2.6150 H     1 <1>   0.0800 
 33 H       -3.5190    -0.0050    -2.1030 H     1 <1>   0.0800 
 34 H       -4.8070    -1.0400    -2.6490 H     1 <1>   0.0800 
 35 H       -3.6110     3.1100     2.0940 H     1 <1>   0.0800 
 36 H       -5.0200     3.1830     1.0760 H     1 <1>   0.0800 
 37 H       -1.2040     3.6780    -0.7780 H     1 <1>   0.0800 
 38 H       -1.2440     3.4490     0.9440 H     1 <1>   0.0800 
 39 H       -3.2230     4.6930     0.2680 H     1 <1>   0.0800 
 40 H       -3.6310     3.4840    -0.9130 H     1 <1>   0.0800 
 41 H       -8.2420    -3.7710     0.7110 H     1 <1>   0.1500 
 42 H       -6.2110    -7.1650    -0.8760 H     1 <1>   0.1500 
 43 H      -10.1570    -5.1910     1.2700 H     1 <1>   0.1500 
 44 H       -8.1040    -8.5690    -0.3230 H     1 <1>   0.1500 
 45 H      -11.4180    -9.4090     0.9720 H     1 <1>   0.0800 
 46 H       -9.6750    -9.5660     1.1550 H     1 <1>   0.0800 
 47 H      -10.3800    -9.2420    -0.4400 H     1 <1>   0.0800 
@<TRIPOS>BOND
  1   1   2  2   
  2   2   3  am  
  3   2   4  1   
  4   3   5  1   
  5   3  25  1   
  6   4   6  1   
  7   4   7  1   
  8   4  26  1   
  9   5   8  1   
 10   5   9  1   
 11   5  27  1   
 12   6  10  1   
 13   6  28  1   
 14   6  29  1   
 15   7  11  1   
 16   7  30  1   
 17   7  31  1   
 18   8  12  1   
 19   8  13  2   
 20   9  32  1   
 21   9  33  1   
 22   9  34  1   
 23  10  14  1   
 24  10  35  1   
 25  10  36  1   
 26  11  14  1   
 27  11  37  1   
 28  11  38  1   
 29  12  15  1   
 30  13  16  1   
 31  14  39  1   
 32  14  40  1   
 33  15  16  2   
 34  16  17  1   
 35  17  18  ar  
 36  17  19  ar  
 37  18  20  ar  
 38  18  41  1   
 39  19  21  ar  
 40  19  42  1   
 41  20  22  ar  
 42  20  43  1   
 43  21  22  ar  
 44  21  44  1   
 45  22  23  1   
 46  23  24  1   
 47  24  45  1   
 48  24  46  1   
 49  24  47  1   
@<TRIPOS>SUBSTRUCTURE
  1 ****  13 GROUP 4 **** **** 0

# MOE 2024.06 (io_trps.svl 2023.06)
