@<TRIPOS>MOLECULE
2-[2-(Methanesulfonyl-methyl-amino)-benzoylamino]-4,5,6,7-tetrahydro-benzo[b]thi
53 55 1 0 0 
SMALL
USER_CHARGES


@<TRIPOS>ATOM
  1 S        0.3240    -0.0490     0.7530 S.o2  1 <1>   1.3330 
  2 O       -0.9390     0.6320     0.6040 O.2   1 <1>  -0.6500 
  3 O        0.4520    -1.1520     1.6760 O.2   1 <1>  -0.6500 
  4 N        1.5260     1.1250     1.1980 N.am  1 <1>  -0.6930 
  5 C        0.8760    -0.5910    -0.8480 C.3   1 <1>  -0.1350 
  6 C        1.5360     2.4140     0.6630 C.ar  1 <1>   0.1990 
  7 C        2.6930     0.6200     1.9670 C.3   1 <1>   0.1160 
  8 C        2.5510     2.8890    -0.1910 C.ar  1 <1>   0.0860 
  9 C        0.4980     3.2740     1.0140 C.ar  1 <1>  -0.1500 
 10 C        3.6570     2.0630    -0.6030 C.2   1 <1>   0.5440 
 11 C        2.4770     4.2080    -0.6480 C.ar  1 <1>  -0.1500 
 12 C        0.4430     4.5720     0.5510 C.ar  1 <1>  -0.1500 
 13 O        3.4670     1.0090    -1.1760 O.2   1 <1>  -0.5700 
 14 N        4.9380     2.5090    -0.3520 N.am  1 <1>  -0.4940 
 15 C        1.4400     5.0430    -0.2840 C.ar  1 <1>  -0.1500 
 16 C        6.1920     1.9250    -0.4600 C.2   1 <1>   0.1040 
 17 S        6.3370     0.2000    -0.7640 S.3   1 <1>  -0.0800 
 18 C        7.4280     2.5100    -0.3300 C.2   1 <1>  -0.0860 
 19 C        8.0810     0.2940    -0.7390 C.2   1 <1>  -0.1400 
 20 C        8.4990     1.5510    -0.5240 C.2   1 <1>  -0.1810 
 21 C        7.5910     3.9100    -0.0190 C.2   1 <1>   0.8060 
 22 C        8.9000    -0.9590    -0.9530 C.3   1 <1>   0.0200 
 23 C        9.9950     1.8580    -0.5020 C.3   1 <1>   0.0210 
 24 O        6.6470     4.6770     0.0790 O.2   1 <1>  -0.5700 
 25 O        8.8170     4.4000     0.1950 O.3   1 <1>  -0.4300 
 26 C       10.3580    -0.6790    -0.5540 C.3   1 <1>  -0.1600 
 27 C       10.8320     0.6930    -1.0700 C.3   1 <1>  -0.1600 
 28 C        9.0340     5.7550     0.5190 C.3   1 <1>   0.1200 
 29 C       10.5360     5.9630     0.6880 C.3   1 <1>  -0.2400 
 30 H        0.2070    -1.3320    -1.2380 H     1 <1>   0.0800 
 31 H        1.8590    -1.0150    -0.7780 H     1 <1>   0.0800 
 32 H        0.9090     0.2370    -1.5290 H     1 <1>   0.0800 
 33 H        2.3520     0.1450     2.8710 H     1 <1>   0.0800 
 34 H        3.3510     1.4290     2.2290 H     1 <1>   0.0800 
 35 H        3.2350    -0.1000     1.3770 H     1 <1>   0.0800 
 36 H       -0.2790     2.9100     1.6640 H     1 <1>   0.1500 
 37 H        3.2410     4.5830    -1.3070 H     1 <1>   0.1500 
 38 H       -0.3720     5.2140     0.8370 H     1 <1>   0.1500 
 39 H        4.9820     3.4890    -0.0500 H     1 <1>   0.3700 
 40 H        1.4010     6.0560    -0.6490 H     1 <1>   0.1500 
 41 H        8.8450    -1.2370    -1.9910 H     1 <1>   0.0800 
 42 H        8.5070    -1.7660    -0.3610 H     1 <1>   0.0800 
 43 H       10.2920     2.0540     0.5140 H     1 <1>   0.0800 
 44 H       10.2010     2.7340    -1.0910 H     1 <1>   0.0800 
 45 H       10.9920    -1.4580    -0.9410 H     1 <1>   0.0800 
 46 H       10.4340    -0.6920     0.5190 H     1 <1>   0.0800 
 47 H       11.8660     0.8420    -0.8150 H     1 <1>   0.0800 
 48 H       10.7540     0.7030    -2.1430 H     1 <1>   0.0800 
 49 H        8.5080     5.9770     1.4330 H     1 <1>   0.0800 
 50 H        8.6480     6.3660    -0.2800 H     1 <1>   0.0800 
 51 H       10.9110     5.3410     1.4810 H     1 <1>   0.0800 
 52 H       10.7340     6.9900     0.9380 H     1 <1>   0.0800 
 53 H       11.0490     5.7290    -0.2280 H     1 <1>   0.0800 
@<TRIPOS>BOND
  1   1   2  2   
  2   1   3  2   
  3   1   4  am  
  4   1   5  1   
  5   4   6  1   
  6   4   7  1   
  7   5  30  1   
  8   5  31  1   
  9   5  32  1   
 10   6   8  ar  
 11   6   9  ar  
 12   7  33  1   
 13   7  34  1   
 14   7  35  1   
 15   8  10  1   
 16   8  11  ar  
 17   9  12  ar  
 18   9  36  1   
 19  10  13  2   
 20  10  14  am  
 21  11  15  ar  
 22  11  37  1   
 23  12  15  ar  
 24  12  38  1   
 25  14  16  1   
 26  14  39  1   
 27  15  40  1   
 28  16  17  1   
 29  16  18  2   
 30  17  19  1   
 31  18  20  1   
 32  18  21  1   
 33  19  20  2   
 34  19  22  1   
 35  20  23  1   
 36  21  24  2   
 37  21  25  1   
 38  22  26  1   
 39  22  41  1   
 40  22  42  1   
 41  23  27  1   
 42  23  43  1   
 43  23  44  1   
 44  25  28  1   
 45  26  27  1   
 46  26  45  1   
 47  26  46  1   
 48  27  47  1   
 49  27  48  1   
 50  28  29  1   
 51  28  49  1   
 52  28  50  1   
 53  29  51  1   
 54  29  52  1   
 55  29  53  1   
@<TRIPOS>SUBSTRUCTURE
  1 ****  14 GROUP 4 **** **** 0

# MOE 2024.06 (io_trps.svl 2023.06)
