@<TRIPOS>MOLECULE
4-(4-Fluoro-phenyl)-3,6-dihydroxy-6-methyl-4,5,6,7-tetrahydro-1H-indazole-5-carb
44 46 1 0 0 
SMALL
USER_CHARGES


@<TRIPOS>ATOM
  1 F       -1.7650    -0.4140     1.8850 F     1 <1>  -0.1900 
  2 C       -2.6170     0.4050     1.3310 C.ar  1 <1>   0.1900 
  3 C       -3.1740     0.0650     0.1140 C.ar  1 <1>  -0.1500 
  4 C       -2.9330     1.5820     1.9820 C.ar  1 <1>  -0.1500 
  5 C       -4.0780     0.9370    -0.4690 C.ar  1 <1>  -0.1500 
  6 C       -3.8380     2.4450     1.3890 C.ar  1 <1>  -0.1500 
  7 C       -4.4170     2.1300     0.1620 C.ar  1 <1>  -0.1430 
  8 C       -5.4310     3.0710    -0.4930 C.3   1 <1>   0.2450 
  9 C       -5.0180     4.5330    -0.3950 C.2   1 <1>  -0.1810 
 10 C       -6.8160     2.8850     0.1640 C.3   1 <1>  -0.0190 
 11 C       -3.8090     5.1610    -0.6570 C.2   1 <1>   0.3510 
 12 C       -5.8300     5.5420    -0.0250 C.2   1 <1>  -0.3320 
 13 C       -7.3440     1.5000    -0.1490 C.2   1 <1>   0.6590 
 14 C       -7.8170     4.0190    -0.1840 C.3   1 <1>   0.2800 
 15 O       -2.6890     4.5860    -1.0860 O.3   1 <1>  -0.5120 
 16 N       -3.8250     6.4340    -0.4590 N.2   1 <1>  -0.7070 
 17 N       -5.0950     6.6770    -0.0570 N.pl3 1 <1>   0.3000 
 18 C       -7.2950     5.3790     0.3440 C.3   1 <1>   0.0200 
 19 O       -7.3810     1.0630    -1.2730 O.2   1 <1>  -0.5700 
 20 O       -7.7180     0.7710     0.8920 O.3   1 <1>  -0.4300 
 21 O       -9.0050     3.7580     0.4640 O.3   1 <1>  -0.6800 
 22 C       -8.1670     4.1130    -1.6770 C.3   1 <1>  -0.2400 
 23 C       -8.1850    -0.5430     0.7230 C.3   1 <1>   0.2580 
 24 C       -8.4700    -1.1170     2.0970 C.2   1 <1>  -0.2880 
 25 C       -9.6490    -1.5920     2.5090 C.2   1 <1>  -0.3000 
 26 H       -2.9040    -0.8590    -0.3640 H     1 <1>   0.1500 
 27 H       -2.4770     1.8150     2.9270 H     1 <1>   0.1500 
 28 H       -4.5200     0.6800    -1.4170 H     1 <1>   0.1500 
 29 H       -4.0880     3.3680     1.8850 H     1 <1>   0.1500 
 30 H       -5.4930     2.8380    -1.5420 H     1 <1>   0.0800 
 31 H       -6.6630     2.9300     1.2260 H     1 <1>   0.0800 
 32 H       -2.0360     5.3020    -1.1520 H     1 <1>   0.4500 
 33 H       -5.4210     7.6240     0.1760 H     1 <1>   0.2700 
 34 H       -7.8710     6.1860    -0.0710 H     1 <1>   0.0800 
 35 H       -7.3790     5.4090     1.4170 H     1 <1>   0.0800 
 36 H       -9.7170     4.3160     0.1000 H     1 <1>   0.4000 
 37 H       -8.6030     3.1960    -2.0310 H     1 <1>   0.0800 
 38 H       -7.2850     4.3090    -2.2590 H     1 <1>   0.0800 
 39 H       -8.8600     4.9140    -1.8580 H     1 <1>   0.0800 
 40 H       -7.4230    -1.1150     0.2210 H     1 <1>   0.0800 
 41 H       -9.0750    -0.5130     0.1180 H     1 <1>   0.0800 
 42 H       -7.5980    -1.0990     2.7280 H     1 <1>   0.1500 
 43 H       -9.8230    -1.9920     3.4940 H     1 <1>   0.1500 
 44 H      -10.5390    -1.6190     1.9040 H     1 <1>   0.1500 
@<TRIPOS>BOND
  1   1   2  1   
  2   2   3  ar  
  3   2   4  ar  
  4   3   5  ar  
  5   3  26  1   
  6   4   6  ar  
  7   4  27  1   
  8   5   7  ar  
  9   5  28  1   
 10   6   7  ar  
 11   6  29  1   
 12   7   8  1   
 13   8   9  1   
 14   8  10  1   
 15   8  30  1   
 16   9  11  1   
 17   9  12  2   
 18  10  13  1   
 19  10  14  1   
 20  10  31  1   
 21  11  15  1   
 22  11  16  2   
 23  12  17  1   
 24  12  18  1   
 25  13  19  2   
 26  13  20  1   
 27  14  18  1   
 28  14  21  1   
 29  14  22  1   
 30  15  32  1   
 31  16  17  1   
 32  17  33  1   
 33  18  34  1   
 34  18  35  1   
 35  20  23  1   
 36  21  36  1   
 37  22  37  1   
 38  22  38  1   
 39  22  39  1   
 40  23  24  1   
 41  23  40  1   
 42  23  41  1   
 43  24  25  2   
 44  24  42  1   
 45  25  43  1   
 46  25  44  1   
@<TRIPOS>SUBSTRUCTURE
  1 ****   8 GROUP 4 **** **** 0

# MOE 2024.06 (io_trps.svl 2023.06)
