@<TRIPOS>MOLECULE
4-(2-Morpholin-4-yl-2-oxo-ethoxy)-N-p-tolyl-benzenesulfonamide
49 51 1 0 0 
SMALL
USER_CHARGES


@<TRIPOS>ATOM
  1 S       -0.1930    -1.0850     1.5690 S.o2  1 <1>   1.4470 
  2 O        0.1480    -2.4850     1.6280 O.2   1 <1>  -0.6500 
  3 O       -0.8830    -0.4410     2.6610 O.2   1 <1>  -0.6500 
  4 N       -1.2160    -0.9940     0.1950 N.am  1 <1>  -0.7570 
  5 C        1.2550    -0.1250     1.0550 C.ar  1 <1>  -0.0090 
  6 C       -1.9250     0.0920    -0.3030 C.ar  1 <1>   0.1990 
  7 C        1.7460     0.9110     1.8420 C.ar  1 <1>  -0.1500 
  8 C        1.9110    -0.4000    -0.1410 C.ar  1 <1>  -0.1500 
  9 C       -1.7810     1.3840     0.1950 C.ar  1 <1>  -0.1500 
 10 C       -2.8080    -0.1120    -1.3560 C.ar  1 <1>  -0.1500 
 11 C        2.8470     1.6490     1.4470 C.ar  1 <1>  -0.1500 
 12 C        3.0130     0.3320    -0.5460 C.ar  1 <1>  -0.1500 
 13 C       -2.4980     2.4360    -0.3460 C.ar  1 <1>  -0.1500 
 14 C       -3.5260     0.9380    -1.8980 C.ar  1 <1>  -0.1500 
 15 C        3.4880     1.3660     0.2540 C.ar  1 <1>   0.0830 
 16 C       -3.3760     2.2200    -1.3960 C.ar  1 <1>  -0.1430 
 17 O        4.5570     2.1330    -0.0590 O.3   1 <1>  -0.3620 
 18 C       -4.1590     3.3770    -1.9870 C.3   1 <1>  -0.0970 
 19 C        5.2970     1.9180    -1.2520 C.3   1 <1>   0.1810 
 20 C        6.4680     2.8890    -1.3680 C.2   1 <1>   0.5690 
 21 O        6.5210     3.5620    -2.3720 O.2   1 <1>  -0.5700 
 22 N        7.4370     2.9760    -0.3960 N.am  1 <1>  -0.6600 
 23 C        8.5440     3.9750    -0.4870 C.3   1 <1>   0.1400 
 24 C        7.4770     2.1740     0.8650 C.3   1 <1>   0.1400 
 25 C        9.8960     3.3230    -0.1560 C.3   1 <1>   0.1200 
 26 C        8.8940     1.6320     1.1240 C.3   1 <1>   0.1200 
 27 O        9.8390     2.6620     1.0770 O.3   1 <1>  -0.5600 
 28 H       -1.4850    -1.9280    -0.0910 H     1 <1>   0.4200 
 29 H        1.2590     1.1450     2.7740 H     1 <1>   0.1500 
 30 H        1.5500    -1.2000    -0.7650 H     1 <1>   0.1500 
 31 H       -1.1140     1.5830     1.0110 H     1 <1>   0.1500 
 32 H       -2.9350    -1.1000    -1.7570 H     1 <1>   0.1500 
 33 H        3.2150     2.4510     2.0630 H     1 <1>   0.1500 
 34 H        3.4790     0.0830    -1.4800 H     1 <1>   0.1500 
 35 H       -2.3710     3.4260     0.0550 H     1 <1>   0.1500 
 36 H       -4.2040     0.7550    -2.7140 H     1 <1>   0.1500 
 37 H       -3.5660     3.8740    -2.7340 H     1 <1>   0.0800 
 38 H       -4.4170     4.0850    -1.2200 H     1 <1>   0.0800 
 39 H       -5.0680     3.0260    -2.4430 H     1 <1>   0.0800 
 40 H        4.6340     2.0620    -2.0860 H     1 <1>   0.0800 
 41 H        5.6680     0.9110    -1.2500 H     1 <1>   0.0800 
 42 H        8.3570     4.7740     0.2090 H     1 <1>   0.0800 
 43 H        8.5910     4.4010    -1.4740 H     1 <1>   0.0800 
 44 H        6.7940     1.3460     0.8190 H     1 <1>   0.0800 
 45 H        7.1840     2.8000     1.6890 H     1 <1>   0.0800 
 46 H       10.6630     4.0740    -0.0910 H     1 <1>   0.0800 
 47 H       10.1700     2.6140    -0.9180 H     1 <1>   0.0800 
 48 H        9.1560     0.8910     0.3880 H     1 <1>   0.0800 
 49 H        8.9460     1.1830     2.1000 H     1 <1>   0.0800 
@<TRIPOS>BOND
  1   1   2  2   
  2   1   3  2   
  3   1   4  am  
  4   1   5  1   
  5   4   6  1   
  6   4  28  1   
  7   5   7  ar  
  8   5   8  ar  
  9   6   9  ar  
 10   6  10  ar  
 11   7  11  ar  
 12   7  29  1   
 13   8  12  ar  
 14   8  30  1   
 15   9  13  ar  
 16   9  31  1   
 17  10  14  ar  
 18  10  32  1   
 19  11  15  ar  
 20  11  33  1   
 21  12  15  ar  
 22  12  34  1   
 23  13  16  ar  
 24  13  35  1   
 25  14  16  ar  
 26  14  36  1   
 27  15  17  1   
 28  16  18  1   
 29  17  19  1   
 30  18  37  1   
 31  18  38  1   
 32  18  39  1   
 33  19  20  1   
 34  19  40  1   
 35  19  41  1   
 36  20  21  2   
 37  20  22  am  
 38  22  23  1   
 39  22  24  1   
 40  23  25  1   
 41  23  42  1   
 42  23  43  1   
 43  24  26  1   
 44  24  44  1   
 45  24  45  1   
 46  25  27  1   
 47  25  46  1   
 48  25  47  1   
 49  26  27  1   
 50  26  48  1   
 51  26  49  1   
@<TRIPOS>SUBSTRUCTURE
  1 ****  15 GROUP 4 **** **** 0

# MOE 2024.06 (io_trps.svl 2023.06)
