@<TRIPOS>MOLECULE
4-Diethylamino-2-methyl-benzaldehyde
31 31 1 0 0 
SMALL
USER_CHARGES


@<TRIPOS>ATOM
  1 O       -0.8630     0.4700     1.2810 O.2   1 <1>  -0.5700 
  2 C       -1.7040     0.6240     0.4290 C.2   1 <1>   0.4240 
  3 C       -2.9300    -0.1250     0.3170 C.ar  1 <1>   0.0860 
  4 C       -3.8760     0.1020    -0.6980 C.ar  1 <1>  -0.1440 
  5 C       -3.2160    -1.1300     1.2480 C.ar  1 <1>  -0.1500 
  6 C       -5.0350    -0.6500    -0.7520 C.ar  1 <1>  -0.1500 
  7 C       -3.6630     1.1710    -1.7640 C.3   1 <1>  -0.0960 
  8 C       -4.3760    -1.8730     1.1840 C.ar  1 <1>  -0.1500 
  9 C       -5.3050    -1.6430     0.1800 C.ar  1 <1>   0.1000 
 10 N       -6.4760    -2.3720     0.0950 N.pl3 1 <1>  -0.8380 
 11 C       -6.3630    -3.8120    -0.2400 C.3   1 <1>   0.2090 
 12 C       -7.5830    -1.9940     1.0080 C.3   1 <1>   0.2090 
 13 C       -7.3370    -4.1400    -1.3640 C.3   1 <1>  -0.2400 
 14 C       -8.5340    -1.0680     0.2610 C.3   1 <1>  -0.2400 
 15 H       -1.5170     1.3860    -0.3040 H     1 <1>   0.0600 
 16 H       -2.5080    -1.3240     2.0350 H     1 <1>   0.1500 
 17 H       -5.7670    -0.4900    -1.5220 H     1 <1>   0.1500 
 18 H       -2.7690     0.9650    -2.3250 H     1 <1>   0.0800 
 19 H       -3.5790     2.1410    -1.3060 H     1 <1>   0.0800 
 20 H       -4.4890     1.1980    -2.4520 H     1 <1>   0.0800 
 21 H       -4.5740    -2.6380     1.9110 H     1 <1>   0.1500 
 22 H       -6.5710    -4.4120     0.6290 H     1 <1>   0.0800 
 23 H       -5.3580    -4.0260    -0.5660 H     1 <1>   0.0800 
 24 H       -7.1840    -1.4870     1.8700 H     1 <1>   0.0800 
 25 H       -8.1100    -2.8710     1.3420 H     1 <1>   0.0800 
 26 H       -8.3500    -3.9870    -1.0410 H     1 <1>   0.0800 
 27 H       -7.2220    -5.1680    -1.6560 H     1 <1>   0.0800 
 28 H       -7.1340    -3.5150    -2.2150 H     1 <1>   0.0800 
 29 H       -8.0150    -0.1760    -0.0390 H     1 <1>   0.0800 
 30 H       -9.3510    -0.7920     0.9010 H     1 <1>   0.0800 
 31 H       -8.9260    -1.5610    -0.6090 H     1 <1>   0.0800 
@<TRIPOS>BOND
  1   1   2  2   
  2   2   3  1   
  3   2  15  1   
  4   3   4  ar  
  5   3   5  ar  
  6   4   6  ar  
  7   4   7  1   
  8   5   8  ar  
  9   5  16  1   
 10   6   9  ar  
 11   6  17  1   
 12   7  18  1   
 13   7  19  1   
 14   7  20  1   
 15   8   9  ar  
 16   8  21  1   
 17   9  10  1   
 18  10  11  1   
 19  10  12  1   
 20  11  13  1   
 21  11  22  1   
 22  11  23  1   
 23  12  14  1   
 24  12  24  1   
 25  12  25  1   
 26  13  26  1   
 27  13  27  1   
 28  13  28  1   
 29  14  29  1   
 30  14  30  1   
 31  14  31  1   
@<TRIPOS>SUBSTRUCTURE
  1 ****   9 GROUP 4 **** **** 0

# MOE 2024.06 (io_trps.svl 2023.06)
