@<TRIPOS>MOLECULE
N-(2-Cyclohexyl-1,2,3,4-tetrahydro-benzo[4,5]imidazo[1,2-a]pyrazin-8-yl)-butyram
54 57 1 0 0 
SMALL
USER_CHARGES


@<TRIPOS>ATOM
  1 O       -0.0140     0.5310     1.7610 O.2   1 <1>  -0.5700 
  2 C        0.1130     1.3390     0.8750 C.2   1 <1>   0.5690 
  3 N        1.2900     1.5860     0.2270 N.am  1 <1>  -0.5470 
  4 C       -1.1010     2.1450     0.4520 C.3   1 <1>  -0.0990 
  5 C        2.5690     1.0180     0.3760 C.ar  1 <1>   0.1170 
  6 C       -1.6640     1.6840    -0.9020 C.3   1 <1>  -0.1600 
  7 C        3.6690     1.7350    -0.0530 C.ar  1 <1>  -0.1500 
  8 C        2.7630    -0.2610     0.9310 C.ar  1 <1>  -0.1500 
  9 C       -2.8910     2.5080    -1.3050 C.3   1 <1>  -0.2400 
 10 C        4.9440     1.1930     0.0740 C.ar  1 <1>   0.2270 
 11 C        4.0200    -0.8060     1.0650 C.ar  1 <1>  -0.1500 
 12 N        6.1480     1.7230    -0.2880 N.2   1 <1>  -0.5650 
 13 C        5.1160    -0.0590     0.6310 C.ar  1 <1>  -0.1520 
 14 C        7.0020     0.8230     0.0490 C.2   1 <1>   0.0060 
 15 N        6.4550    -0.2830     0.6140 N.pl3 1 <1>   0.0480 
 16 C        8.5000     0.9360    -0.1540 C.3   1 <1>   0.5230 
 17 C        7.1710    -1.5300     0.9390 C.3   1 <1>   0.0960 
 18 N        9.0950    -0.4340    -0.3020 N.4   1 <1>  -0.9590 
 19 C        8.6940    -1.3170     0.8550 C.3   1 <1>   0.3430 
 20 C       10.5600    -0.3520    -0.5620 C.3   1 <1>   0.4230 
 21 C       11.0620    -1.6880    -1.1230 C.3   1 <1>  -0.1600 
 22 C       11.3620     0.0600     0.6850 C.3   1 <1>  -0.1600 
 23 C       12.5600    -1.6110    -1.4520 C.3   1 <1>  -0.1600 
 24 C       12.8600     0.1440     0.3590 C.3   1 <1>  -0.1600 
 25 C       13.3760    -1.1770    -0.2260 C.3   1 <1>  -0.1600 
 26 H        1.2460     2.3380    -0.4570 H     1 <1>   0.3700 
 27 H       -0.8290     3.1840     0.4060 H     1 <1>   0.0800 
 28 H       -1.8580     2.0380     1.2090 H     1 <1>   0.0800 
 29 H       -1.9400     0.6440    -0.8330 H     1 <1>   0.0800 
 30 H       -0.9090     1.7750    -1.6640 H     1 <1>   0.0800 
 31 H        3.5730     2.7120    -0.4850 H     1 <1>   0.1500 
 32 H        1.9090    -0.8270     1.2560 H     1 <1>   0.1500 
 33 H       -3.6700     2.4070    -0.5690 H     1 <1>   0.0800 
 34 H       -3.2710     2.1620    -2.2500 H     1 <1>   0.0800 
 35 H       -2.6350     3.5480    -1.4000 H     1 <1>   0.0800 
 36 H        4.1490    -1.7830     1.4960 H     1 <1>   0.1500 
 37 H        8.9270     1.4410     0.6960 H     1 <1>   0.0800 
 38 H        8.6900     1.5300    -1.0340 H     1 <1>   0.0800 
 39 H        6.8670    -2.2890     0.2420 H     1 <1>   0.0800 
 40 H        6.8960    -1.8490     1.9280 H     1 <1>   0.0800 
 41 H        8.6680    -0.8160    -1.1560 H     1 <1>   0.4500 
 42 H        9.1730    -2.2780     0.7730 H     1 <1>   0.0800 
 43 H        9.0270    -0.8680     1.7760 H     1 <1>   0.0800 
 44 H       10.7330     0.3950    -1.3220 H     1 <1>   0.0800 
 45 H       10.5280    -1.9350    -2.0240 H     1 <1>   0.0800 
 46 H       10.9180    -2.4780    -0.4080 H     1 <1>   0.0800 
 47 H       11.2370    -0.6610     1.4730 H     1 <1>   0.0800 
 48 H       11.0410     1.0220     1.0420 H     1 <1>   0.0800 
 49 H       12.7230    -0.9080    -2.2530 H     1 <1>   0.0800 
 50 H       12.9090    -2.5720    -1.7900 H     1 <1>   0.0800 
 51 H       13.4140     0.3780     1.2530 H     1 <1>   0.0800 
 52 H       13.0360     0.9380    -0.3470 H     1 <1>   0.0800 
 53 H       14.4110    -1.0650    -0.5060 H     1 <1>   0.0800 
 54 H       13.3300    -1.9470     0.5270 H     1 <1>   0.0800 
@<TRIPOS>BOND
  1   1   2  2   
  2   2   3  am  
  3   2   4  1   
  4   3   5  1   
  5   3  26  1   
  6   4   6  1   
  7   4  27  1   
  8   4  28  1   
  9   5   7  ar  
 10   5   8  ar  
 11   6   9  1   
 12   6  29  1   
 13   6  30  1   
 14   7  10  ar  
 15   7  31  1   
 16   8  11  ar  
 17   8  32  1   
 18   9  33  1   
 19   9  34  1   
 20   9  35  1   
 21  10  12  1   
 22  10  13  ar  
 23  11  13  ar  
 24  11  36  1   
 25  12  14  2   
 26  13  15  1   
 27  14  15  1   
 28  14  16  1   
 29  15  17  1   
 30  16  18  1   
 31  16  37  1   
 32  16  38  1   
 33  17  19  1   
 34  17  39  1   
 35  17  40  1   
 36  18  19  1   
 37  18  20  1   
 38  18  41  1   
 39  19  42  1   
 40  19  43  1   
 41  20  21  1   
 42  20  22  1   
 43  20  44  1   
 44  21  23  1   
 45  21  45  1   
 46  21  46  1   
 47  22  24  1   
 48  22  47  1   
 49  22  48  1   
 50  23  25  1   
 51  23  49  1   
 52  23  50  1   
 53  24  25  1   
 54  24  51  1   
 55  24  52  1   
 56  25  53  1   
 57  25  54  1   
@<TRIPOS>SUBSTRUCTURE
  1 ****  13 GROUP 4 **** **** 0

# MOE 2024.06 (io_trps.svl 2023.06)
