@<TRIPOS>MOLECULE
8-(2,5-Dimethoxy-phenyl)-1,7-dimethyl-3-propyl-1H,8H-imidazo[2,1-f]purine-2,4-di
53 56 1 0 0 
SMALL
USER_CHARGES


@<TRIPOS>ATOM
  1 O        0.8790    -0.2080    -0.3850 O.2   1 <1>  -0.5740 
  2 C        1.8160     0.5340    -0.1710 C.2   1 <1>   0.6870 
  3 N        1.5980     1.8190     0.3200 N.am  1 <1>  -0.4250 
  4 N        3.1110     0.0900    -0.4140 N.am  1 <1>  -0.4410 
  5 C        2.6580     2.6690     0.6080 C.2   1 <1>   0.7000 
  6 C        0.1990     2.2980     0.5220 C.3   1 <1>   0.1330 
  7 C        4.1590     0.9380    -0.1180 C.2   1 <1>   0.4210 
  8 C        3.3560    -1.2770    -0.9630 C.3   1 <1>   0.0530 
  9 O        2.4690     3.7900     1.0500 O.2   1 <1>  -0.5740 
 10 C        3.9790     2.1870     0.3760 C.2   1 <1>   0.2710 
 11 C       -0.3160     2.9680    -0.7560 C.3   1 <1>  -0.1670 
 12 N        5.4960     0.6930    -0.2410 N.pl3 1 <1>  -0.7030 
 13 N        5.2600     2.7250     0.5640 N.pl3 1 <1>  -0.6330 
 14 C       -1.7520     3.4690    -0.5760 C.3   1 <1>  -0.2460 
 15 C        6.1240     1.7920     0.1890 C.cat 1 <1>   1.0690 
 16 C        6.0020     3.7880     1.0400 C.2   1 <1>   0.2230 
 17 N        7.3930     2.1850     0.3540 N.pl3 1 <1>  -0.5550 
 18 C        7.3060     3.4560     0.9170 C.2   1 <1>   0.1580 
 19 C        8.5400     1.4010     0.0800 C.ar  1 <1>   0.3050 
 20 C        8.5320     4.2570     1.3180 C.3   1 <1>  -0.1090 
 21 C        8.7000     0.1240     0.6330 C.ar  1 <1>   0.0750 
 22 C        9.5170     1.9000    -0.7640 C.ar  1 <1>  -0.1570 
 23 O        7.7060    -0.3620     1.4360 O.3   1 <1>  -0.3680 
 24 C        9.8450    -0.6140     0.3460 C.ar  1 <1>  -0.1570 
 25 C       10.6540     1.1680    -1.0500 C.ar  1 <1>   0.0750 
 26 C        7.9630    -1.4230     2.3350 C.3   1 <1>   0.0320 
 27 C       10.8180    -0.0940    -0.4890 C.ar  1 <1>  -0.1570 
 28 O       11.5520     1.7510    -1.8820 O.3   1 <1>  -0.3680 
 29 C       12.7530     1.0990    -2.2330 C.3   1 <1>   0.0320 
 30 H        0.1630     2.9990     1.3400 H     1 <1>   0.0730 
 31 H       -0.4410     1.4710     0.7820 H     1 <1>   0.0730 
 32 H        2.5080    -1.6080    -1.5400 H     1 <1>   0.0730 
 33 H        3.5110    -1.9700    -0.1550 H     1 <1>   0.0730 
 34 H        4.2170    -1.2780    -1.6080 H     1 <1>   0.0730 
 35 H       -0.2950     2.2600    -1.5670 H     1 <1>   0.0730 
 36 H        0.3140     3.8040    -1.0070 H     1 <1>   0.0730 
 37 H        5.9830    -0.1750    -0.4600 H     1 <1>   0.4450 
 38 H       -2.4110     2.6500    -0.3440 H     1 <1>   0.0730 
 39 H       -2.0950     3.9340    -1.4840 H     1 <1>   0.0730 
 40 H       -1.8040     4.1940     0.2180 H     1 <1>   0.0730 
 41 H        5.5440     4.6830     1.4320 H     1 <1>   0.1430 
 42 H        9.1510     3.6780     1.9810 H     1 <1>   0.0730 
 43 H        8.2410     5.1600     1.8240 H     1 <1>   0.0730 
 44 H        9.1080     4.5260     0.4510 H     1 <1>   0.0730 
 45 H        9.4070     2.8670    -1.2170 H     1 <1>   0.1430 
 46 H       10.0010    -1.5960     0.7550 H     1 <1>   0.1430 
 47 H        7.1090    -1.5370     2.9780 H     1 <1>   0.0730 
 48 H        8.8310    -1.1830     2.9250 H     1 <1>   0.0730 
 49 H        8.1190    -2.3300     1.7780 H     1 <1>   0.0730 
 50 H       11.6930    -0.6840    -0.6930 H     1 <1>   0.1430 
 51 H       13.3050     1.7460    -2.8910 H     1 <1>   0.0730 
 52 H       12.5180     0.1790    -2.7390 H     1 <1>   0.0730 
 53 H       13.3250     0.9130    -1.3410 H     1 <1>   0.0730 
@<TRIPOS>BOND
  1   1   2  2   
  2   2   3  am  
  3   2   4  am  
  4   3   5  am  
  5   3   6  1   
  6   4   7  1   
  7   4   8  1   
  8   5   9  2   
  9   5  10  1   
 10   6  11  1   
 11   6  30  1   
 12   6  31  1   
 13   7  10  2   
 14   7  12  1   
 15   8  32  1   
 16   8  33  1   
 17   8  34  1   
 18  10  13  1   
 19  11  14  1   
 20  11  35  1   
 21  11  36  1   
 22  12  15  ar  
 23  12  37  1   
 24  13  15  ar  
 25  13  16  1   
 26  14  38  1   
 27  14  39  1   
 28  14  40  1   
 29  15  17  ar  
 30  16  18  2   
 31  16  41  1   
 32  17  18  1   
 33  17  19  1   
 34  18  20  1   
 35  19  21  ar  
 36  19  22  ar  
 37  20  42  1   
 38  20  43  1   
 39  20  44  1   
 40  21  23  1   
 41  21  24  ar  
 42  22  25  ar  
 43  22  45  1   
 44  23  26  1   
 45  24  27  ar  
 46  24  46  1   
 47  25  27  ar  
 48  25  28  1   
 49  26  47  1   
 50  26  48  1   
 51  26  49  1   
 52  27  50  1   
 53  28  29  1   
 54  29  51  1   
 55  29  52  1   
 56  29  53  1   
@<TRIPOS>SUBSTRUCTURE
  1 ****  15 GROUP 4 **** **** 0

# MOE 2024.06 (io_trps.svl 2023.06)
