@<TRIPOS>MOLECULE
5-(4-Methoxy-phenyl)-4,6-dioxo-4,5,6,6a-tetrahydro-3aH-pyrrolo[3,4-d]isoxazole-3
37 39 1 0 0 
SMALL
USER_CHARGES


@<TRIPOS>ATOM
  1 O        0.1360    -0.4160     0.7830 O.2   1 <1>  -0.5700 
  2 C        0.1230    -1.5700     0.4360 C.2   1 <1>   0.5690 
  3 N        1.1970    -2.3950     0.1670 N.am  1 <1>  -0.2370 
  4 C       -1.1070    -2.3990     0.1700 C.3   1 <1>   0.2610 
  5 C        2.5450    -1.9910    -0.0070 C.ar  1 <1>   0.1170 
  6 C        0.7150    -3.6890     0.0500 C.2   1 <1>   0.5690 
  7 O       -2.3920    -2.3600     0.7150 O.3   1 <1>  -0.2170 
  8 C       -0.6530    -3.7360     0.6620 C.3   1 <1>   0.0420 
  9 C        3.5930    -2.8190     0.3880 C.ar  1 <1>  -0.1500 
 10 C        2.8600    -0.7610    -0.5770 C.ar  1 <1>  -0.1500 
 11 O        1.2580    -4.6250    -0.4690 O.2   1 <1>  -0.5700 
 12 N       -2.9080    -3.5690     0.6100 N.2   1 <1>  -0.5130 
 13 C       -1.9680    -4.4420     0.4890 C.2   1 <1>   0.3890 
 14 C        4.9120    -2.4360     0.2210 C.ar  1 <1>  -0.1500 
 15 C        4.1770    -0.3730    -0.7450 C.ar  1 <1>  -0.1500 
 16 C       -1.9970    -5.8810     0.3220 C.2   1 <1>   0.7200 
 17 C        5.2110    -1.2030    -0.3510 C.ar  1 <1>   0.0820 
 18 O       -1.0020    -6.5540     0.4850 O.2   1 <1>  -0.5700 
 19 O       -3.1060    -6.5630    -0.0040 O.3   1 <1>  -0.4300 
 20 O        6.4740    -0.7470    -0.5530 O.3   1 <1>  -0.3620 
 21 C       -4.3860    -6.0040    -0.1940 C.3   1 <1>   0.1200 
 22 C        7.5960    -1.5260    -0.2020 C.3   1 <1>   0.0400 
 23 C       -5.3320    -7.1300    -0.5970 C.3   1 <1>  -0.2400 
 24 H       -1.2490    -2.4110    -0.8980 H     1 <1>   0.0800 
 25 H       -0.4880    -3.6950     1.7250 H     1 <1>   0.0800 
 26 H        3.3850    -3.7790     0.8280 H     1 <1>   0.1500 
 27 H        2.0790    -0.0920    -0.8920 H     1 <1>   0.1500 
 28 H        5.6880    -3.1070     0.5370 H     1 <1>   0.1500 
 29 H        4.4120     0.5800    -1.1840 H     1 <1>   0.1500 
 30 H       -4.3310    -5.2600    -0.9720 H     1 <1>   0.0800 
 31 H       -4.7080    -5.5510     0.7290 H     1 <1>   0.0800 
 32 H        8.4800    -0.9710    -0.4570 H     1 <1>   0.0800 
 33 H        7.5690    -2.4470    -0.7570 H     1 <1>   0.0800 
 34 H        7.5740    -1.7110     0.8570 H     1 <1>   0.0800 
 35 H       -4.9990    -7.5860    -1.5120 H     1 <1>   0.0800 
 36 H       -6.3210    -6.7380    -0.7490 H     1 <1>   0.0800 
 37 H       -5.3740    -7.8740     0.1790 H     1 <1>   0.0800 
@<TRIPOS>BOND
  1   1   2  2   
  2   2   3  am  
  3   2   4  1   
  4   3   5  1   
  5   3   6  am  
  6   4   7  1   
  7   4   8  1   
  8   4  24  1   
  9   5   9  ar  
 10   5  10  ar  
 11   6   8  1   
 12   6  11  2   
 13   7  12  1   
 14   8  13  1   
 15   8  25  1   
 16   9  14  ar  
 17   9  26  1   
 18  10  15  ar  
 19  10  27  1   
 20  12  13  2   
 21  13  16  1   
 22  14  17  ar  
 23  14  28  1   
 24  15  17  ar  
 25  15  29  1   
 26  16  18  2   
 27  16  19  1   
 28  17  20  1   
 29  19  21  1   
 30  20  22  1   
 31  21  23  1   
 32  21  30  1   
 33  21  31  1   
 34  22  32  1   
 35  22  33  1   
 36  22  34  1   
 37  23  35  1   
 38  23  36  1   
 39  23  37  1   
@<TRIPOS>SUBSTRUCTURE
  1 ****   6 GROUP 4 **** **** 0

# MOE 2024.06 (io_trps.svl 2023.06)
