@<TRIPOS>MOLECULE
N-[2-(4-Acetyl-piperazin-1-yl)-phenyl]-2-(4-methoxy-phenoxy)-acetamide
53 55 1 0 0 
SMALL
USER_CHARGES


@<TRIPOS>ATOM
  1 O        0.6930     0.0370    -0.9140 O.2   1 <1>  -0.5700 
  2 C        0.4050     1.1740    -0.6230 C.2   1 <1>   0.5690 
  3 N        1.3000     2.0820    -0.1420 N.am  1 <1>  -0.5470 
  4 C       -1.0350     1.6320    -0.8240 C.3   1 <1>   0.1810 
  5 C        2.6840     2.0950     0.0880 C.ar  1 <1>   0.1170 
  6 O       -1.2190     2.9780    -0.3940 O.3   1 <1>  -0.3630 
  7 C        3.2470     3.3380     0.4090 C.ar  1 <1>   0.1000 
  8 C        3.4920     0.9690     0.0230 C.ar  1 <1>  -0.1500 
  9 C       -2.4220     3.5980    -0.5120 C.ar  1 <1>   0.0830 
 10 N        2.4280     4.4780     0.4570 N.pl3 1 <1>  -0.8380 
 11 C        4.6090     3.4210     0.6630 C.ar  1 <1>  -0.1500 
 12 C        4.8500     1.0670     0.2770 C.ar  1 <1>  -0.1500 
 13 C       -2.5540     4.8300     0.1100 C.ar  1 <1>  -0.1500 
 14 C       -3.5000     3.0670    -1.2140 C.ar  1 <1>  -0.1500 
 15 C        2.2750     5.2940    -0.7750 C.3   1 <1>   0.2090 
 16 C        2.3480     5.2950     1.6970 C.3   1 <1>   0.2090 
 17 C        5.4080     2.2920     0.5980 C.ar  1 <1>  -0.1500 
 18 C       -3.7400     5.5370     0.0330 C.ar  1 <1>  -0.1500 
 19 C       -4.6870     3.7760    -1.2910 C.ar  1 <1>  -0.1500 
 20 C        0.9050     5.9970    -0.7720 C.3   1 <1>   0.1400 
 21 C        0.9790     5.9930     1.7680 C.3   1 <1>   0.1400 
 22 C       -4.8170     5.0090    -0.6730 C.ar  1 <1>   0.0830 
 23 N        0.6430     6.7470     0.5080 N.am  1 <1>  -0.6600 
 24 O       -6.0170     5.6330    -0.8010 O.3   1 <1>  -0.3630 
 25 C        0.0170     7.9630     0.5780 C.2   1 <1>   0.5690 
 26 C       -6.2630     6.8720    -0.1730 C.3   1 <1>   0.0400 
 27 O       -0.2420     8.4910     1.6320 O.2   1 <1>  -0.5700 
 28 C       -0.3950     8.6930    -0.6800 C.3   1 <1>  -0.1790 
 29 H        0.9090     3.0080     0.0630 H     1 <1>   0.3700 
 30 H       -1.6960     1.0010    -0.2590 H     1 <1>   0.0800 
 31 H       -1.2710     1.5710    -1.8700 H     1 <1>   0.0800 
 32 H        3.0650     0.0150    -0.2230 H     1 <1>   0.1500 
 33 H        5.0410     4.3730     0.9070 H     1 <1>   0.1500 
 34 H        5.4690     0.1880     0.2250 H     1 <1>   0.1500 
 35 H       -1.7270     5.2360     0.6600 H     1 <1>   0.1500 
 36 H       -3.4410     2.1160    -1.7080 H     1 <1>   0.1500 
 37 H        2.3560     4.6600    -1.6410 H     1 <1>   0.0800 
 38 H        3.0590     6.0300    -0.8200 H     1 <1>   0.0800 
 39 H        3.1300     6.0340     1.6990 H     1 <1>   0.0800 
 40 H        2.4770     4.6610     2.5580 H     1 <1>   0.0800 
 41 H        6.4630     2.3670     0.7960 H     1 <1>   0.1500 
 42 H       -3.8040     6.4880     0.5280 H     1 <1>   0.1500 
 43 H       -5.5260     3.3760    -1.8320 H     1 <1>   0.1500 
 44 H        0.1410     5.2520    -0.9000 H     1 <1>   0.0800 
 45 H        0.8630     6.6570    -1.6180 H     1 <1>   0.0800 
 46 H        0.9760     6.6580     2.6130 H     1 <1>   0.0800 
 47 H        0.2250     5.2460     1.9380 H     1 <1>   0.0800 
 48 H       -7.2720     7.1660    -0.3970 H     1 <1>   0.0800 
 49 H       -5.5750     7.6030    -0.5600 H     1 <1>   0.0800 
 50 H       -6.1440     6.7550     0.8900 H     1 <1>   0.0800 
 51 H        0.4740     8.9400    -1.2590 H     1 <1>   0.0800 
 52 H       -0.9040     9.6030    -0.4190 H     1 <1>   0.0800 
 53 H       -1.0610     8.0800    -1.2570 H     1 <1>   0.0800 
@<TRIPOS>BOND
  1   1   2  2   
  2   2   3  am  
  3   2   4  1   
  4   3   5  1   
  5   3  29  1   
  6   4   6  1   
  7   4  30  1   
  8   4  31  1   
  9   5   7  ar  
 10   5   8  ar  
 11   6   9  1   
 12   7  10  1   
 13   7  11  ar  
 14   8  12  ar  
 15   8  32  1   
 16   9  13  ar  
 17   9  14  ar  
 18  10  15  1   
 19  10  16  1   
 20  11  17  ar  
 21  11  33  1   
 22  12  17  ar  
 23  12  34  1   
 24  13  18  ar  
 25  13  35  1   
 26  14  19  ar  
 27  14  36  1   
 28  15  20  1   
 29  15  37  1   
 30  15  38  1   
 31  16  21  1   
 32  16  39  1   
 33  16  40  1   
 34  17  41  1   
 35  18  22  ar  
 36  18  42  1   
 37  19  22  ar  
 38  19  43  1   
 39  20  23  1   
 40  20  44  1   
 41  20  45  1   
 42  21  23  1   
 43  21  46  1   
 44  21  47  1   
 45  22  24  1   
 46  23  25  am  
 47  24  26  1   
 48  25  27  2   
 49  25  28  1   
 50  26  48  1   
 51  26  49  1   
 52  26  50  1   
 53  28  51  1   
 54  28  52  1   
 55  28  53  1   
@<TRIPOS>SUBSTRUCTURE
  1 ****   6 GROUP 4 **** **** 0

# MOE 2024.06 (io_trps.svl 2023.06)
