@<TRIPOS>MOLECULE
N-[2-(4-Acetyl-piperazin-1-yl)-phenyl]-2-(4-ethyl-phenoxy)-acetamide
55 57 1 0 0 
SMALL
USER_CHARGES


@<TRIPOS>ATOM
  1 O        0.1910    -0.2050    -0.3090 O.2   1 <1>  -0.5700 
  2 C       -0.0290     0.9740    -0.1640 C.2   1 <1>   0.5690 
  3 N        0.9310     1.9400    -0.2280 N.am  1 <1>  -0.5470 
  4 C       -1.4560     1.4130     0.1320 C.3   1 <1>   0.1810 
  5 C        2.3130     1.9470    -0.4710 C.ar  1 <1>   0.1170 
  6 O       -1.7160     2.7110    -0.3890 O.3   1 <1>  -0.3630 
  7 C        2.9250     3.2060    -0.5560 C.ar  1 <1>   0.1000 
  8 C        3.0780     0.7990    -0.6230 C.ar  1 <1>  -0.1500 
  9 C       -2.9350     3.2860    -0.2440 C.ar  1 <1>   0.0830 
 10 N        2.1490     4.3700    -0.4050 N.pl3 1 <1>  -0.8380 
 11 C        4.2910     3.2780    -0.7990 C.ar  1 <1>  -0.1500 
 12 C        4.4390     0.8870    -0.8600 C.ar  1 <1>  -0.1500 
 13 C       -3.1990     4.4060    -1.0160 C.ar  1 <1>  -0.1500 
 14 C       -3.9130     2.8160     0.6280 C.ar  1 <1>  -0.1500 
 15 C        2.6240     5.4220     0.5420 C.3   1 <1>   0.2090 
 16 C        1.5810     4.9470    -1.6600 C.3   1 <1>   0.2090 
 17 C        5.0460     2.1280    -0.9490 C.ar  1 <1>  -0.1500 
 18 C       -4.4150     5.0570    -0.9180 C.ar  1 <1>  -0.1500 
 19 C       -5.1300     3.4690     0.7220 C.ar  1 <1>  -0.1500 
 20 C        1.4870     6.4050     0.8810 C.3   1 <1>   0.1400 
 21 C        0.4310     5.9150    -1.3340 C.3   1 <1>   0.1400 
 22 C       -5.3880     4.5930    -0.0480 C.ar  1 <1>  -0.1430 
 23 N        0.8650     6.9690    -0.3610 N.am  1 <1>  -0.6600 
 24 C       -6.7230     5.3120     0.0620 C.3   1 <1>  -0.0170 
 25 C        0.6990     8.2990    -0.6400 C.2   1 <1>   0.5690 
 26 C       -6.6500     6.4140     1.1210 C.3   1 <1>  -0.2400 
 27 O        0.2300     8.6820    -1.6840 O.2   1 <1>  -0.5700 
 28 C        1.1020     9.3520     0.3650 C.3   1 <1>  -0.1790 
 29 H        0.5960     2.9040    -0.1240 H     1 <1>   0.3700 
 30 H       -1.5950     1.4350     1.1970 H     1 <1>   0.0800 
 31 H       -2.1470     0.7230    -0.3170 H     1 <1>   0.0800 
 32 H        2.6170    -0.1690    -0.5560 H     1 <1>   0.1500 
 33 H        4.7660     4.2370    -0.8780 H     1 <1>   0.1500 
 34 H        5.0220    -0.0100    -0.9750 H     1 <1>   0.1500 
 35 H       -2.4520     4.7670    -1.6990 H     1 <1>   0.1500 
 36 H       -3.7520     1.9520     1.2430 H     1 <1>   0.1500 
 37 H        3.4410     5.9650     0.1010 H     1 <1>   0.0800 
 38 H        2.9770     4.9540     1.4450 H     1 <1>   0.0800 
 39 H        1.2140     4.1540    -2.2890 H     1 <1>   0.0800 
 40 H        2.3500     5.4740    -2.1990 H     1 <1>   0.0800 
 41 H        6.1030     2.1970    -1.1360 H     1 <1>   0.1500 
 42 H       -4.6000     5.9290    -1.5210 H     1 <1>   0.1500 
 43 H       -5.8790     3.1020     1.4010 H     1 <1>   0.1500 
 44 H        1.8780     7.1840     1.5080 H     1 <1>   0.0800 
 45 H        0.7320     5.8800     1.4390 H     1 <1>   0.0800 
 46 H       -0.3790     5.3570    -0.9020 H     1 <1>   0.0800 
 47 H        0.0770     6.3600    -2.2470 H     1 <1>   0.0800 
 48 H       -7.4950     4.6100     0.3240 H     1 <1>   0.0800 
 49 H       -6.9830     5.7420    -0.8890 H     1 <1>   0.0800 
 50 H       -6.4070     5.9920     2.0800 H     1 <1>   0.0800 
 51 H       -7.5960     6.9210     1.1950 H     1 <1>   0.0800 
 52 H       -5.8920     7.1310     0.8590 H     1 <1>   0.0800 
 53 H        0.5920     9.1860     1.2950 H     1 <1>   0.0800 
 54 H        0.8330    10.3250    -0.0040 H     1 <1>   0.0800 
 55 H        2.1640     9.3240     0.5160 H     1 <1>   0.0800 
@<TRIPOS>BOND
  1   1   2  2   
  2   2   3  am  
  3   2   4  1   
  4   3   5  1   
  5   3  29  1   
  6   4   6  1   
  7   4  30  1   
  8   4  31  1   
  9   5   7  ar  
 10   5   8  ar  
 11   6   9  1   
 12   7  10  1   
 13   7  11  ar  
 14   8  12  ar  
 15   8  32  1   
 16   9  13  ar  
 17   9  14  ar  
 18  10  15  1   
 19  10  16  1   
 20  11  17  ar  
 21  11  33  1   
 22  12  17  ar  
 23  12  34  1   
 24  13  18  ar  
 25  13  35  1   
 26  14  19  ar  
 27  14  36  1   
 28  15  20  1   
 29  15  37  1   
 30  15  38  1   
 31  16  21  1   
 32  16  39  1   
 33  16  40  1   
 34  17  41  1   
 35  18  22  ar  
 36  18  42  1   
 37  19  22  ar  
 38  19  43  1   
 39  20  23  1   
 40  20  44  1   
 41  20  45  1   
 42  21  23  1   
 43  21  46  1   
 44  21  47  1   
 45  22  24  1   
 46  23  25  am  
 47  24  26  1   
 48  24  48  1   
 49  24  49  1   
 50  25  27  2   
 51  25  28  1   
 52  26  50  1   
 53  26  51  1   
 54  26  52  1   
 55  28  53  1   
 56  28  54  1   
 57  28  55  1   
@<TRIPOS>SUBSTRUCTURE
  1 ****   6 GROUP 4 **** **** 0

# MOE 2024.06 (io_trps.svl 2023.06)
