@<TRIPOS>MOLECULE
1-Isopropyl-5-oxo-pyrrolidine-3-carboxylic acid (4-ethyl-phenyl)-amide
42 43 1 0 0 
SMALL
USER_CHARGES


@<TRIPOS>ATOM
  1 O       -0.2970    -0.7970    -1.7700 O.2   1 <1>  -0.5700 
  2 C       -0.7510    -1.6790    -1.0850 C.2   1 <1>   0.5690 
  3 N       -0.0490    -2.5890    -0.3740 N.am  1 <1>  -0.6600 
  4 C       -2.2280    -1.8940    -0.9200 C.3   1 <1>  -0.0990 
  5 C        1.4250    -2.6960    -0.3680 C.3   1 <1>   0.2200 
  6 C       -0.9320    -3.5280     0.3490 C.3   1 <1>   0.1400 
  7 C       -2.3110    -2.8500     0.2870 C.3   1 <1>  -0.0190 
  8 C        1.8490    -4.0770    -0.8650 C.3   1 <1>  -0.2400 
  9 C        1.9550    -2.4180     1.0370 C.3   1 <1>  -0.2400 
 10 C       -3.4750    -3.8300     0.2420 C.2   1 <1>   0.5690 
 11 O       -3.2750    -4.9820     0.5380 O.2   1 <1>  -0.5700 
 12 N       -4.7030    -3.3430    -0.1190 N.am  1 <1>  -0.5470 
 13 C       -5.9540    -3.9690    -0.2350 C.ar  1 <1>   0.1170 
 14 C       -6.9390    -3.3480    -0.9940 C.ar  1 <1>  -0.1500 
 15 C       -6.2690    -5.1740     0.3860 C.ar  1 <1>  -0.1500 
 16 C       -8.1940    -3.9110    -1.1350 C.ar  1 <1>  -0.1500 
 17 C       -7.5230    -5.7400     0.2460 C.ar  1 <1>  -0.1500 
 18 C       -8.4950    -5.1130    -0.5170 C.ar  1 <1>  -0.1440 
 19 C       -9.8730    -5.7360    -0.6700 C.3   1 <1>  -0.0170 
 20 C      -10.8120    -5.2420     0.4320 C.3   1 <1>  -0.2400 
 21 H       -2.6010    -2.3530    -1.8170 H     1 <1>   0.0800 
 22 H       -2.7290    -0.9610    -0.7380 H     1 <1>   0.0800 
 23 H        1.8260    -1.9520    -1.0390 H     1 <1>   0.0800 
 24 H       -0.6140    -3.6700     1.3670 H     1 <1>   0.0800 
 25 H       -0.9360    -4.4730    -0.1670 H     1 <1>   0.0800 
 26 H       -2.4140    -2.2620     1.1810 H     1 <1>   0.0800 
 27 H        1.5190    -4.8480    -0.1940 H     1 <1>   0.0800 
 28 H        2.9200    -4.1240    -0.9340 H     1 <1>   0.0800 
 29 H        1.4400    -4.2540    -1.8440 H     1 <1>   0.0800 
 30 H        1.6270    -3.1700     1.7310 H     1 <1>   0.0800 
 31 H        1.6190    -1.4520     1.3690 H     1 <1>   0.0800 
 32 H        3.0290    -2.4150     1.0240 H     1 <1>   0.0800 
 33 H       -4.7130    -2.3610    -0.3830 H     1 <1>   0.3700 
 34 H       -6.7270    -2.4160    -1.4850 H     1 <1>   0.1500 
 35 H       -5.5370    -5.6800     0.9880 H     1 <1>   0.1500 
 36 H       -8.9410    -3.4110    -1.7270 H     1 <1>   0.1500 
 37 H       -7.7400    -6.6730     0.7360 H     1 <1>   0.1500 
 38 H       -9.7930    -6.8090    -0.6220 H     1 <1>   0.0800 
 39 H      -10.2810    -5.4830    -1.6330 H     1 <1>   0.0800 
 40 H      -10.4200    -5.5050     1.3980 H     1 <1>   0.0800 
 41 H      -11.7840    -5.6880     0.3190 H     1 <1>   0.0800 
 42 H      -10.9130    -4.1720     0.3810 H     1 <1>   0.0800 
@<TRIPOS>BOND
  1   1   2  2   
  2   2   3  am  
  3   2   4  1   
  4   3   5  1   
  5   3   6  1   
  6   4   7  1   
  7   4  21  1   
  8   4  22  1   
  9   5   8  1   
 10   5   9  1   
 11   5  23  1   
 12   6   7  1   
 13   6  24  1   
 14   6  25  1   
 15   7  10  1   
 16   7  26  1   
 17   8  27  1   
 18   8  28  1   
 19   8  29  1   
 20   9  30  1   
 21   9  31  1   
 22   9  32  1   
 23  10  11  2   
 24  10  12  am  
 25  12  13  1   
 26  12  33  1   
 27  13  14  ar  
 28  13  15  ar  
 29  14  16  ar  
 30  14  34  1   
 31  15  17  ar  
 32  15  35  1   
 33  16  18  ar  
 34  16  36  1   
 35  17  18  ar  
 36  17  37  1   
 37  18  19  1   
 38  19  20  1   
 39  19  38  1   
 40  19  39  1   
 41  20  40  1   
 42  20  41  1   
 43  20  42  1   
@<TRIPOS>SUBSTRUCTURE
  1 ****  10 GROUP 4 **** **** 0

# MOE 2024.06 (io_trps.svl 2023.06)
