@<TRIPOS>MOLECULE
4-[(3-Cyano-5,6-dihydro-4H-cyclopenta[b]thiophen-2-ylcarbamoyl)-methoxy]-N-cyclo
55 58 1 0 0 
SMALL
USER_CHARGES


@<TRIPOS>ATOM
  1 S        0.6650     0.4690     1.1060 S.3   1 <1>  -0.0800 
  2 C        2.2780     1.1180     0.7590 C.2   1 <1>   0.1040 
  3 C        0.4910    -0.0360    -0.5580 C.2   1 <1>  -0.1400 
  4 N        3.0290     1.7190     1.7720 N.am  1 <1>  -0.4940 
  5 C        2.5980     0.9330    -0.5550 C.2   1 <1>   0.0190 
  6 C        1.5560     0.2690    -1.2800 C.2   1 <1>  -0.1810 
  7 C       -0.6280    -0.7320    -1.2620 C.3   1 <1>   0.0200 
  8 C        2.8970     1.7730     3.1360 C.2   1 <1>   0.5690 
  9 C        3.8210     1.3410    -1.1710 C.1   1 <1>   0.5380 
 10 C        1.3730    -0.1840    -2.7060 C.3   1 <1>   0.0210 
 11 C       -0.0450    -0.8260    -2.6970 C.3   1 <1>  -0.1600 
 12 O        1.9720     1.3000     3.7470 O.2   1 <1>  -0.5700 
 13 C        4.0030     2.4620     3.9330 C.3   1 <1>   0.1810 
 14 N        4.8030     1.6940    -1.6340 N.1   1 <1>  -0.5570 
 15 O        5.1310     2.7980     3.1250 O.3   1 <1>  -0.3630 
 16 C        5.9060     1.8560     2.5390 C.ar  1 <1>   0.0830 
 17 C        6.6510     2.2490     1.4400 C.ar  1 <1>  -0.1500 
 18 C        5.9510     0.5280     2.9480 C.ar  1 <1>  -0.1500 
 19 C        7.4170     1.3300     0.7480 C.ar  1 <1>  -0.1500 
 20 C        6.7260    -0.3820     2.2530 C.ar  1 <1>  -0.1500 
 21 C        7.4810    -0.0110     1.1370 C.ar  1 <1>   0.0860 
 22 C        8.2870    -0.9890     0.4260 C.2   1 <1>   0.5440 
 23 O        8.0420    -2.1770     0.5180 O.2   1 <1>  -0.5700 
 24 N        9.3460    -0.5970    -0.3440 N.am  1 <1>  -0.7300 
 25 C       10.2220    -1.4890    -1.1230 C.3   1 <1>   0.2200 
 26 C       11.6320    -1.4430    -0.5260 C.3   1 <1>  -0.1600 
 27 C       10.2200    -1.0290    -2.5840 C.3   1 <1>  -0.1600 
 28 C       12.6180    -2.2690    -1.3660 C.3   1 <1>  -0.1600 
 29 C       11.2030    -1.8550    -3.4280 C.3   1 <1>  -0.1600 
 30 C       12.6170    -1.8130    -2.8310 C.3   1 <1>  -0.1600 
 31 H        3.9170     2.1290     1.4670 H     1 <1>   0.3700 
 32 H       -1.5260    -0.1410    -1.2310 H     1 <1>   0.0800 
 33 H       -0.8000    -1.7050    -0.8340 H     1 <1>   0.0800 
 34 H        2.1250    -0.9070    -2.9720 H     1 <1>   0.0800 
 35 H        1.4160     0.6550    -3.3790 H     1 <1>   0.0800 
 36 H       -0.6870    -0.3050    -3.3850 H     1 <1>   0.0800 
 37 H        0.0170    -1.8570    -3.0000 H     1 <1>   0.0800 
 38 H        4.3260     1.8410     4.7470 H     1 <1>   0.0800 
 39 H        3.6160     3.3780     4.3390 H     1 <1>   0.0800 
 40 H        6.6190     3.2750     1.1200 H     1 <1>   0.1500 
 41 H        5.3920     0.1810     3.7980 H     1 <1>   0.1500 
 42 H        7.9620     1.6610    -0.1180 H     1 <1>   0.1500 
 43 H        6.7520    -1.4100     2.5740 H     1 <1>   0.1500 
 44 H        9.6110     0.3850    -0.3670 H     1 <1>   0.3700 
 45 H        9.8520    -2.5010    -1.0740 H     1 <1>   0.0800 
 46 H       11.6040    -1.8340     0.4760 H     1 <1>   0.0800 
 47 H       11.9750    -0.4240    -0.4870 H     1 <1>   0.0800 
 48 H       10.5000     0.0080    -2.6370 H     1 <1>   0.0800 
 49 H        9.2280    -1.1360    -2.9870 H     1 <1>   0.0800 
 50 H       12.3400    -3.3090    -1.3170 H     1 <1>   0.0800 
 51 H       13.6090    -2.1740    -0.9570 H     1 <1>   0.0800 
 52 H       11.2230    -1.4740    -4.4340 H     1 <1>   0.0800 
 53 H       10.8640    -2.8760    -3.4680 H     1 <1>   0.0800 
 54 H       13.2690    -2.4480    -3.4060 H     1 <1>   0.0800 
 55 H       12.9990    -0.8090    -2.8920 H     1 <1>   0.0800 
@<TRIPOS>BOND
  1   1   2  1   
  2   1   3  1   
  3   2   4  1   
  4   2   5  2   
  5   3   6  2   
  6   3   7  1   
  7   4   8  am  
  8   4  31  1   
  9   5   6  1   
 10   5   9  1   
 11   6  10  1   
 12   7  11  1   
 13   7  32  1   
 14   7  33  1   
 15   8  12  2   
 16   8  13  1   
 17   9  14  3   
 18  10  11  1   
 19  10  34  1   
 20  10  35  1   
 21  11  36  1   
 22  11  37  1   
 23  13  15  1   
 24  13  38  1   
 25  13  39  1   
 26  15  16  1   
 27  16  17  ar  
 28  16  18  ar  
 29  17  19  ar  
 30  17  40  1   
 31  18  20  ar  
 32  18  41  1   
 33  19  21  ar  
 34  19  42  1   
 35  20  21  ar  
 36  20  43  1   
 37  21  22  1   
 38  22  23  2   
 39  22  24  am  
 40  24  25  1   
 41  24  44  1   
 42  25  26  1   
 43  25  27  1   
 44  25  45  1   
 45  26  28  1   
 46  26  46  1   
 47  26  47  1   
 48  27  29  1   
 49  27  48  1   
 50  27  49  1   
 51  28  30  1   
 52  28  50  1   
 53  28  51  1   
 54  29  30  1   
 55  29  52  1   
 56  29  53  1   
 57  30  54  1   
 58  30  55  1   
@<TRIPOS>SUBSTRUCTURE
  1 ****  21 GROUP 4 **** **** 0

# MOE 2024.06 (io_trps.svl 2023.06)
