@<TRIPOS>MOLECULE
6-Furan-2-yl-4-(4-methanesulfonylamino-phenyl)-2-oxo-cyclohex-3-enecarboxylic ac
49 51 1 0 0 
SMALL
USER_CHARGES


@<TRIPOS>ATOM
  1 S        0.0600    -0.1670    -0.2470 S.o2  1 <1>   1.3330 
  2 O       -1.2050    -0.5810    -0.7970 O.2   1 <1>  -0.6500 
  3 O        0.5660     1.1690    -0.4340 O.2   1 <1>  -0.6500 
  4 N        1.1850    -1.2720    -0.9230 N.am  1 <1>  -0.7570 
  5 C        0.1010    -0.6010     1.4780 C.3   1 <1>  -0.1350 
  6 C        2.5710    -1.2680    -0.9050 C.ar  1 <1>   0.1990 
  7 C        3.3290    -0.2970    -0.2570 C.ar  1 <1>  -0.1500 
  8 C        3.2530    -2.2870    -1.5600 C.ar  1 <1>  -0.1500 
  9 C        4.7090    -0.3510    -0.2600 C.ar  1 <1>  -0.1500 
 10 C        4.6330    -2.3380    -1.5640 C.ar  1 <1>  -0.1500 
 11 C        5.4010    -1.3730    -0.9100 C.ar  1 <1>   0.0280 
 12 C        6.8400    -1.4130    -0.9000 C.2   1 <1>  -0.1670 
 13 C        7.6450    -0.3290    -1.0020 C.2   1 <1>  -0.1360 
 14 C        7.4980    -2.7840    -0.7790 C.3   1 <1>  -0.0220 
 15 C        9.0720    -0.3430    -0.9960 C.2   1 <1>   0.4950 
 16 C        8.8530    -2.7030    -0.0530 C.3   1 <1>   0.1000 
 17 O        9.7190     0.6310    -1.2850 O.2   1 <1>  -0.5700 
 18 C        9.7870    -1.6390    -0.6720 C.3   1 <1>   0.0420 
 19 C        9.5330    -4.0680    -0.0220 C.2   1 <1>  -0.0400 
 20 C       10.9240    -1.3120     0.2680 C.2   1 <1>   0.6590 
 21 O       10.5730    -4.2250     0.7730 O.3   1 <1>  -0.2800 
 22 C        9.2740    -5.2230    -0.6780 C.2   1 <1>  -0.1500 
 23 O       10.7210    -0.9230     1.3920 O.2   1 <1>  -0.5700 
 24 O       12.1480    -1.4990    -0.2130 O.3   1 <1>  -0.4300 
 25 C       11.0000    -5.4640     0.6450 C.2   1 <1>  -0.0100 
 26 C       10.2390    -6.1380    -0.2400 C.2   1 <1>  -0.1500 
 27 C       13.3080    -1.2900     0.5590 C.3   1 <1>   0.1200 
 28 C       13.6090    -2.5640     1.3470 C.3   1 <1>  -0.2400 
 29 H        0.7010    -1.9010    -1.5570 H     1 <1>   0.4200 
 30 H       -0.6000     0.0000     2.0240 H     1 <1>   0.0800 
 31 H        1.0810    -0.4370     1.8800 H     1 <1>   0.0800 
 32 H       -0.1580    -1.6330     1.6070 H     1 <1>   0.0800 
 33 H        2.8470     0.5160     0.2520 H     1 <1>   0.1500 
 34 H        2.6930    -3.0470    -2.0740 H     1 <1>   0.1500 
 35 H        5.2620     0.4140     0.2560 H     1 <1>   0.1500 
 36 H        5.1220    -3.1370    -2.0910 H     1 <1>   0.1500 
 37 H        7.2260     0.6540    -1.1200 H     1 <1>   0.1500 
 38 H        7.6310    -3.1900    -1.7670 H     1 <1>   0.0800 
 39 H        6.8580    -3.4480    -0.2230 H     1 <1>   0.0800 
 40 H        8.6420    -2.4230     0.9660 H     1 <1>   0.0800 
 41 H       10.1950    -2.0210    -1.5890 H     1 <1>   0.0800 
 42 H        8.5040    -5.4470    -1.3940 H     1 <1>   0.1500 
 43 H       11.8520    -5.7810     1.2220 H     1 <1>   0.1500 
 44 H       10.3260    -7.1610    -0.5630 H     1 <1>   0.1500 
 45 H       13.1530    -0.4470     1.2130 H     1 <1>   0.0800 
 46 H       14.1140    -1.0650    -0.1170 H     1 <1>   0.0800 
 47 H       12.8070    -2.7740     2.0330 H     1 <1>   0.0800 
 48 H       14.5140    -2.4360     1.9120 H     1 <1>   0.0800 
 49 H       13.7350    -3.3940     0.6750 H     1 <1>   0.0800 
@<TRIPOS>BOND
  1   1   2  2   
  2   1   3  2   
  3   1   4  am  
  4   1   5  1   
  5   4   6  1   
  6   4  29  1   
  7   5  30  1   
  8   5  31  1   
  9   5  32  1   
 10   6   7  ar  
 11   6   8  ar  
 12   7   9  ar  
 13   7  33  1   
 14   8  10  ar  
 15   8  34  1   
 16   9  11  ar  
 17   9  35  1   
 18  10  11  ar  
 19  10  36  1   
 20  11  12  1   
 21  12  13  2   
 22  12  14  1   
 23  13  15  1   
 24  13  37  1   
 25  14  16  1   
 26  14  38  1   
 27  14  39  1   
 28  15  17  2   
 29  15  18  1   
 30  16  18  1   
 31  16  19  1   
 32  16  40  1   
 33  18  20  1   
 34  18  41  1   
 35  19  21  1   
 36  19  22  2   
 37  20  23  2   
 38  20  24  1   
 39  21  25  1   
 40  22  26  1   
 41  22  42  1   
 42  24  27  1   
 43  25  26  2   
 44  25  43  1   
 45  26  44  1   
 46  27  28  1   
 47  27  45  1   
 48  27  46  1   
 49  28  47  1   
 50  28  48  1   
 51  28  49  1   
@<TRIPOS>SUBSTRUCTURE
  1 ****  12 GROUP 4 **** **** 0

# MOE 2024.06 (io_trps.svl 2023.06)
