@<TRIPOS>MOLECULE
4-(3,4-Dimethoxy-phenyl)-3,6-dihydroxy-6-methyl-4,5,6,7-tetrahydro-1H-indazole-5
48 50 1 0 0 
SMALL
USER_CHARGES


@<TRIPOS>ATOM
  1 O       -1.1280     1.4090    -1.6760 O.2   1 <1>  -0.5700 
  2 C       -1.2140     1.3200    -0.4760 C.2   1 <1>   0.6590 
  3 O       -1.2660     0.1420     0.1350 O.3   1 <1>  -0.4300 
  4 C       -1.2110     2.5380     0.4250 C.3   1 <1>  -0.0190 
  5 C       -1.2030    -1.0700    -0.5860 C.3   1 <1>   0.0400 
  6 C       -2.5560     3.3130     0.4190 C.3   1 <1>   0.2800 
  7 C        0.0100     3.4240     0.0890 C.3   1 <1>   0.2440 
  8 O       -3.5630     2.4330     0.7550 O.3   1 <1>  -0.6800 
  9 C       -2.5430     4.4260     1.4950 C.3   1 <1>   0.0200 
 10 C       -2.9440     3.8880    -0.9530 C.3   1 <1>  -0.2400 
 11 C        1.2960     2.6960     0.4860 C.ar  1 <1>  -0.1440 
 12 C       -0.1330     4.7720     0.7800 C.2   1 <1>  -0.1810 
 13 C       -1.2460     5.2100     1.4010 C.2   1 <1>  -0.3320 
 14 C        2.0230     2.0060    -0.4750 C.ar  1 <1>  -0.1500 
 15 C        1.7510     2.6990     1.7990 C.ar  1 <1>  -0.1500 
 16 C        0.7600     5.8240     0.9250 C.2   1 <1>   0.3510 
 17 N       -0.9710     6.4410     1.8900 N.pl3 1 <1>   0.3000 
 18 C        3.1840     1.3320    -0.1390 C.ar  1 <1>   0.0830 
 19 C        2.9040     2.0160     2.1470 C.ar  1 <1>  -0.1500 
 20 O        2.0020     5.8840     0.4510 O.3   1 <1>  -0.5120 
 21 N        0.2910     6.8260     1.5850 N.2   1 <1>  -0.7070 
 22 O        3.8610     0.7120    -1.1360 O.3   1 <1>  -0.3630 
 23 C        3.6180     1.3160     1.1910 C.ar  1 <1>   0.0830 
 24 C        5.1030     1.2830    -1.4790 C.3   1 <1>   0.0400 
 25 O        4.7190     0.6380     1.6010 O.3   1 <1>  -0.3630 
 26 C        4.6650    -0.7670     1.4870 C.3   1 <1>   0.0400 
 27 H       -1.0690     2.1860     1.4300 H     1 <1>   0.0800 
 28 H       -1.2670    -1.8850     0.1120 H     1 <1>   0.0800 
 29 H       -0.2670    -1.1080    -1.1170 H     1 <1>   0.0800 
 30 H       -2.0260    -1.1060    -1.2780 H     1 <1>   0.0800 
 31 H        0.0340     3.6200    -0.9690 H     1 <1>   0.0800 
 32 H       -4.4300     2.8060     0.5060 H     1 <1>   0.4000 
 33 H       -2.6020     3.9850     2.4750 H     1 <1>   0.0800 
 34 H       -3.3820     5.0850     1.3610 H     1 <1>   0.0800 
 35 H       -3.8740     4.4240    -0.8950 H     1 <1>   0.0800 
 36 H       -2.1940     4.5750    -1.2980 H     1 <1>   0.0800 
 37 H       -3.0440     3.1080    -1.6860 H     1 <1>   0.0800 
 38 H        1.6960     1.9860    -1.5000 H     1 <1>   0.1500 
 39 H        1.2100     3.2360     2.5590 H     1 <1>   0.1500 
 40 H       -1.6120     7.0440     2.4210 H     1 <1>   0.2700 
 41 H        3.2510     2.0200     3.1640 H     1 <1>   0.1500 
 42 H        2.3540     6.7390     0.7490 H     1 <1>   0.4500 
 43 H        5.4960     0.7520    -2.3260 H     1 <1>   0.0800 
 44 H        5.7760     1.1970    -0.6450 H     1 <1>   0.0800 
 45 H        4.9500     2.3180    -1.7290 H     1 <1>   0.0800 
 46 H        5.5340    -1.1770     1.9680 H     1 <1>   0.0800 
 47 H        4.6590    -1.0410     0.4480 H     1 <1>   0.0800 
 48 H        3.7720    -1.1200     1.9720 H     1 <1>   0.0800 
@<TRIPOS>BOND
  1   1   2  2   
  2   2   3  1   
  3   2   4  1   
  4   3   5  1   
  5   4   6  1   
  6   4   7  1   
  7   4  27  1   
  8   5  28  1   
  9   5  29  1   
 10   5  30  1   
 11   6   8  1   
 12   6   9  1   
 13   6  10  1   
 14   7  11  1   
 15   7  12  1   
 16   7  31  1   
 17   8  32  1   
 18   9  13  1   
 19   9  33  1   
 20   9  34  1   
 21  10  35  1   
 22  10  36  1   
 23  10  37  1   
 24  11  14  ar  
 25  11  15  ar  
 26  12  13  2   
 27  12  16  1   
 28  13  17  1   
 29  14  18  ar  
 30  14  38  1   
 31  15  19  ar  
 32  15  39  1   
 33  16  20  1   
 34  16  21  2   
 35  17  21  1   
 36  17  40  1   
 37  18  22  1   
 38  18  23  ar  
 39  19  23  ar  
 40  19  41  1   
 41  20  42  1   
 42  22  24  1   
 43  23  25  1   
 44  24  43  1   
 45  24  44  1   
 46  24  45  1   
 47  25  26  1   
 48  26  46  1   
 49  26  47  1   
 50  26  48  1   
@<TRIPOS>SUBSTRUCTURE
  1 ****  11 GROUP 4 **** **** 0

# MOE 2024.06 (io_trps.svl 2023.06)
