@<TRIPOS>MOLECULE
6-Morpholin-4-ylmethyl-2-oxo-4-p-tolyl-1,2,3,4-tetrahydro-pyrimidine-5-carboxyli
48 50 1 0 0 
SMALL
USER_CHARGES


@<TRIPOS>ATOM
  1 O       -0.3590     0.6940     0.6390 O.2   1 <1>  -0.5700 
  2 C       -1.4720     1.1700     0.6400 C.2   1 <1>   0.6900 
  3 N       -2.4750     0.5970    -0.0630 N.am  1 <1>  -0.5390 
  4 N       -1.7420     2.2850     1.3370 N.am  1 <1>  -0.7300 
  5 C       -3.7730     1.0660    -0.1210 C.2   1 <1>  -0.0290 
  6 C       -3.0250     3.0110     1.2590 C.3   1 <1>   0.5020 
  7 C       -4.1070     2.2310     0.5010 C.2   1 <1>  -0.1240 
  8 C       -4.7290     0.1710    -0.9190 C.3   1 <1>   0.2480 
  9 C       -2.7470     4.3580     0.5990 C.ar  1 <1>  -0.1430 
 10 C       -5.3930     2.8580     0.5280 C.2   1 <1>   0.7060 
 11 N       -4.3660    -1.2580    -0.7910 N.3   1 <1>  -0.8100 
 12 C       -2.9500     5.5390     1.2990 C.ar  1 <1>  -0.1500 
 13 C       -2.2880     4.4240    -0.7090 C.ar  1 <1>  -0.1500 
 14 O       -6.2830     2.5980    -0.2570 O.2   1 <1>  -0.5700 
 15 O       -5.6380     3.7710     1.4770 O.3   1 <1>  -0.4300 
 16 C       -4.6540    -1.7680     0.5670 C.3   1 <1>   0.1100 
 17 C       -5.0950    -2.0740    -1.7800 C.3   1 <1>   0.1100 
 18 C       -2.7000     6.7620     0.7010 C.ar  1 <1>  -0.1500 
 19 C       -2.0390     5.6470    -1.3060 C.ar  1 <1>  -0.1500 
 20 C       -6.8650     4.4730     1.5360 C.3   1 <1>   0.0400 
 21 C       -4.3430    -3.2720     0.6700 C.3   1 <1>   0.1200 
 22 C       -4.7700    -3.5700    -1.6090 C.3   1 <1>   0.1200 
 23 C       -2.2420     6.8230    -0.6040 C.ar  1 <1>  -0.1440 
 24 O       -5.0500    -3.9860    -0.3030 O.3   1 <1>  -0.5600 
 25 C       -1.9700     8.1650    -1.2600 C.3   1 <1>  -0.0970 
 26 H       -2.2750    -0.3150    -0.4850 H     1 <1>   0.3700 
 27 H       -0.9420     2.8190     1.6690 H     1 <1>   0.3700 
 28 H       -3.3590     3.1700     2.2700 H     1 <1>   0.0800 
 29 H       -4.6590     0.4580    -1.9550 H     1 <1>   0.0800 
 30 H       -5.7490     0.3050    -0.6060 H     1 <1>   0.0800 
 31 H       -3.3080     5.5180     2.3140 H     1 <1>   0.1500 
 32 H       -2.1210     3.5200    -1.2700 H     1 <1>   0.1500 
 33 H       -5.6920    -1.6110     0.8100 H     1 <1>   0.0800 
 34 H       -4.0570    -1.2400     1.2900 H     1 <1>   0.0800 
 35 H       -4.8170    -1.7670    -2.7730 H     1 <1>   0.0800 
 36 H       -6.1570    -1.9340    -1.6680 H     1 <1>   0.0800 
 37 H       -2.8650     7.6690     1.2570 H     1 <1>   0.1500 
 38 H       -1.6850     5.6780    -2.3220 H     1 <1>   0.1500 
 39 H       -6.8310     5.1520     2.3690 H     1 <1>   0.0800 
 40 H       -7.6670     3.7660     1.6660 H     1 <1>   0.0800 
 41 H       -6.9970     5.0190     0.6180 H     1 <1>   0.0800 
 42 H       -4.6360    -3.6490     1.6330 H     1 <1>   0.0800 
 43 H       -3.2900    -3.4490     0.5320 H     1 <1>   0.0800 
 44 H       -3.7300    -3.7550    -1.8150 H     1 <1>   0.0800 
 45 H       -5.3690    -4.1610    -2.2780 H     1 <1>   0.0800 
 46 H       -2.8620     8.5200    -1.7440 H     1 <1>   0.0800 
 47 H       -1.1890     8.0730    -1.9930 H     1 <1>   0.0800 
 48 H       -1.6620     8.8860    -0.5250 H     1 <1>   0.0800 
@<TRIPOS>BOND
  1   1   2  2   
  2   2   3  am  
  3   2   4  am  
  4   3   5  1   
  5   3  26  1   
  6   4   6  1   
  7   4  27  1   
  8   5   7  2   
  9   5   8  1   
 10   6   7  1   
 11   6   9  1   
 12   6  28  1   
 13   7  10  1   
 14   8  11  1   
 15   8  29  1   
 16   8  30  1   
 17   9  12  ar  
 18   9  13  ar  
 19  10  14  2   
 20  10  15  1   
 21  11  16  1   
 22  11  17  1   
 23  12  18  ar  
 24  12  31  1   
 25  13  19  ar  
 26  13  32  1   
 27  15  20  1   
 28  16  21  1   
 29  16  33  1   
 30  16  34  1   
 31  17  22  1   
 32  17  35  1   
 33  17  36  1   
 34  18  23  ar  
 35  18  37  1   
 36  19  23  ar  
 37  19  38  1   
 38  20  39  1   
 39  20  40  1   
 40  20  41  1   
 41  21  24  1   
 42  21  42  1   
 43  21  43  1   
 44  22  24  1   
 45  22  44  1   
 46  22  45  1   
 47  23  25  1   
 48  25  46  1   
 49  25  47  1   
 50  25  48  1   
@<TRIPOS>SUBSTRUCTURE
  1 ****   7 GROUP 4 **** **** 0

# MOE 2024.06 (io_trps.svl 2023.06)
