@<TRIPOS>MOLECULE
1,3-Dimethyl-7-(1-methyl-2-oxo-propyl)-8-(4-phenyl-piperazin-1-ylmethyl)-3,7-dih
60 63 1 0 0 
SMALL
USER_CHARGES


@<TRIPOS>ATOM
  1 O        1.0860     0.4050     0.5020 O.2   1 <1>  -0.5700 
  2 C        2.1280     0.9710     0.2400 C.2   1 <1>   0.6900 
  3 N        2.2820     2.3200     0.5380 N.am  1 <1>  -0.4200 
  4 N        3.1640     0.2670    -0.3500 N.am  1 <1>  -0.4360 
  5 C        3.4860     2.9750     0.3110 C.2   1 <1>   0.7030 
  6 C        1.1410     3.0550     1.1680 C.3   1 <1>   0.0600 
  7 C        4.3630     0.9240    -0.5500 C.2   1 <1>   0.4260 
  8 C        3.0050    -1.1740    -0.7050 C.3   1 <1>   0.0600 
  9 O        3.5990     4.1580     0.5860 O.2   1 <1>  -0.5700 
 10 C        4.5770     2.2300    -0.2580 C.2   1 <1>   0.2770 
 11 N        5.5190     0.4010    -1.0200 N.pl3 1 <1>  -0.7000 
 12 N        5.9200     2.4960    -0.5830 N.pl3 1 <1>  -0.7640 
 13 C        6.4450     1.3500    -1.0070 C.cat 1 <1>   0.6560 
 14 C        6.6300     3.7870    -0.2870 C.3   1 <1>   0.4950 
 15 C        7.8990     1.0380    -1.4020 C.3   1 <1>   0.2540 
 16 C        6.5390     4.1570     1.2130 C.2   1 <1>   0.4480 
 17 C        6.1540     4.8490    -1.2880 C.3   1 <1>  -0.2400 
 18 N        8.2310    -0.3940    -1.1840 N.3   1 <1>  -0.8100 
 19 O        6.5720     3.2980     2.0460 O.2   1 <1>  -0.5700 
 20 C        6.4380     5.6130     1.6280 C.3   1 <1>  -0.1790 
 21 C        8.4350    -0.6860     0.2640 C.3   1 <1>   0.1100 
 22 C        9.4560    -0.7800    -1.9340 C.3   1 <1>   0.1100 
 23 C        8.7890    -2.1620     0.5240 C.3   1 <1>   0.2090 
 24 C        9.8380    -2.2570    -1.7180 C.3   1 <1>   0.2090 
 25 N        9.9850    -2.5530    -0.2660 N.pl3 1 <1>  -0.8380 
 26 C       10.5610    -3.7730     0.0670 C.ar  1 <1>   0.1000 
 27 C        9.9740    -4.9820    -0.2890 C.ar  1 <1>  -0.1500 
 28 C       11.7530    -3.7940     0.7780 C.ar  1 <1>  -0.1500 
 29 C       10.5660    -6.1840     0.0570 C.ar  1 <1>  -0.1500 
 30 C       12.3490    -4.9920     1.1270 C.ar  1 <1>  -0.1500 
 31 C       11.7550    -6.1900     0.7670 C.ar  1 <1>  -0.1500 
 32 H        0.2030     2.6940     0.7810 H     1 <1>   0.0800 
 33 H        1.2010     4.1110     0.9650 H     1 <1>   0.0800 
 34 H        1.1580     2.9020     2.2330 H     1 <1>   0.0800 
 35 H        1.9660    -1.4130    -0.8590 H     1 <1>   0.0800 
 36 H        3.3830    -1.7880     0.0940 H     1 <1>   0.0800 
 37 H        3.5360    -1.3980    -1.6130 H     1 <1>   0.0800 
 38 H        5.7410    -0.5650    -1.2750 H     1 <1>   0.4500 
 39 H        7.6780     3.6440    -0.4770 H     1 <1>   0.0800 
 40 H        8.5800     1.6540    -0.8430 H     1 <1>   0.0800 
 41 H        8.0100     1.2730    -2.4460 H     1 <1>   0.0800 
 42 H        5.1280     5.1190    -1.1250 H     1 <1>   0.0800 
 43 H        6.2620     4.4850    -2.2940 H     1 <1>   0.0800 
 44 H        6.7500     5.7380    -1.1940 H     1 <1>   0.0800 
 45 H        5.5200     6.0410     1.2680 H     1 <1>   0.0800 
 46 H        7.2710     6.1740     1.2480 H     1 <1>   0.0800 
 47 H        6.4410     5.6820     2.7010 H     1 <1>   0.0800 
 48 H        7.5460    -0.4480     0.8210 H     1 <1>   0.0800 
 49 H        9.2390    -0.0810     0.6510 H     1 <1>   0.0800 
 50 H       10.2870    -0.1700    -1.6210 H     1 <1>   0.0800 
 51 H        9.3020    -0.6200    -2.9870 H     1 <1>   0.0800 
 52 H        7.9570    -2.7890     0.2550 H     1 <1>   0.0800 
 53 H        8.9950    -2.3060     1.5700 H     1 <1>   0.0800 
 54 H       10.7690    -2.4670    -2.2160 H     1 <1>   0.0800 
 55 H        9.0800    -2.8910    -2.1440 H     1 <1>   0.0800 
 56 H        9.0510    -4.9780    -0.8360 H     1 <1>   0.1500 
 57 H       12.2050    -2.8590     1.0520 H     1 <1>   0.1500 
 58 H       10.1030    -7.1130    -0.2230 H     1 <1>   0.1500 
 59 H       13.2730    -4.9930     1.6780 H     1 <1>   0.1500 
 60 H       12.2170    -7.1230     1.0370 H     1 <1>   0.1500 
@<TRIPOS>BOND
  1   1   2  2   
  2   2   3  am  
  3   2   4  am  
  4   3   5  am  
  5   3   6  1   
  6   4   7  1   
  7   4   8  1   
  8   5   9  2   
  9   5  10  1   
 10   6  32  1   
 11   6  33  1   
 12   6  34  1   
 13   7  10  2   
 14   7  11  1   
 15   8  35  1   
 16   8  36  1   
 17   8  37  1   
 18  10  12  1   
 19  11  13  ar  
 20  11  38  1   
 21  12  13  ar  
 22  12  14  1   
 23  13  15  1   
 24  14  16  1   
 25  14  17  1   
 26  14  39  1   
 27  15  18  1   
 28  15  40  1   
 29  15  41  1   
 30  16  19  2   
 31  16  20  1   
 32  17  42  1   
 33  17  43  1   
 34  17  44  1   
 35  18  21  1   
 36  18  22  1   
 37  20  45  1   
 38  20  46  1   
 39  20  47  1   
 40  21  23  1   
 41  21  48  1   
 42  21  49  1   
 43  22  24  1   
 44  22  50  1   
 45  22  51  1   
 46  23  25  1   
 47  23  52  1   
 48  23  53  1   
 49  24  25  1   
 50  24  54  1   
 51  24  55  1   
 52  25  26  1   
 53  26  27  ar  
 54  26  28  ar  
 55  27  29  ar  
 56  27  56  1   
 57  28  30  ar  
 58  28  57  1   
 59  29  31  ar  
 60  29  58  1   
 61  30  31  ar  
 62  30  59  1   
 63  31  60  1   
@<TRIPOS>SUBSTRUCTURE
  1 ****  13 GROUP 4 **** **** 0

# MOE 2024.06 (io_trps.svl 2023.06)
