@<TRIPOS>MOLECULE
3-(2-Fluoro-benzoylamino)-4-(4-methyl-piperazin-1-yl)-benzoic acid methyl ester
50 52 1 0 0 
SMALL
USER_CHARGES


@<TRIPOS>ATOM
  1 F       -1.0210     0.0220    -2.2210 F     1 <1>  -0.1900 
  2 C       -1.2640     1.1380    -1.5880 C.ar  1 <1>   0.1900 
  3 C       -1.9550     1.0960    -0.3780 C.ar  1 <1>   0.0860 
  4 C       -0.8010     2.3100    -2.1550 C.ar  1 <1>  -0.1500 
  5 C       -2.4350    -0.1380     0.1960 C.2   1 <1>   0.5440 
  6 C       -2.1520     2.3170     0.2680 C.ar  1 <1>  -0.1500 
  7 C       -1.0210     3.5040    -1.4930 C.ar  1 <1>  -0.1500 
  8 O       -2.1400    -0.4260     1.3410 O.2   1 <1>  -0.5700 
  9 N       -3.2030    -0.9910    -0.5530 N.am  1 <1>  -0.5470 
 10 C       -1.6940     3.5040    -0.2810 C.ar  1 <1>  -0.1500 
 11 C       -4.0210    -2.0490    -0.1070 C.ar  1 <1>   0.1170 
 12 C       -3.5340    -3.2650     0.4200 C.ar  1 <1>   0.1000 
 13 C       -5.3880    -1.8590    -0.2160 C.ar  1 <1>  -0.1500 
 14 N       -2.1830    -3.5950     0.5750 N.pl3 1 <1>  -0.8380 
 15 C       -4.4630    -4.2180     0.8180 C.ar  1 <1>  -0.1500 
 16 C       -6.3260    -2.8130     0.1810 C.ar  1 <1>   0.0860 
 17 C       -1.6580    -3.8290     1.9610 C.3   1 <1>   0.2090 
 18 C       -1.1950    -3.4460    -0.5420 C.3   1 <1>   0.2090 
 19 C       -5.8210    -4.0030     0.7050 C.ar  1 <1>  -0.1500 
 20 C       -7.7470    -2.5650     0.0480 C.2   1 <1>   0.6340 
 21 C       -0.2180    -3.3080     2.1610 C.3   1 <1>   0.3430 
 22 C        0.0120    -2.5410    -0.1820 C.3   1 <1>   0.3430 
 23 O       -8.2020    -1.5550    -0.4520 O.2   1 <1>  -0.5700 
 24 O       -8.5960    -3.4980     0.4960 O.3   1 <1>  -0.4300 
 25 N        0.0550    -2.1400     1.2680 N.4   1 <1>  -0.9590 
 26 C       -9.9970    -3.3330     0.4050 C.3   1 <1>   0.0400 
 27 C        1.2670    -1.3620     1.6400 C.3   1 <1>   0.2630 
 28 H       -0.2780     2.2910    -3.0950 H     1 <1>   0.1500 
 29 H       -2.6720     2.3330     1.2120 H     1 <1>   0.1500 
 30 H       -0.6700     4.4320    -1.9150 H     1 <1>   0.1500 
 31 H       -3.4420    -0.6490    -1.4850 H     1 <1>   0.3700 
 32 H       -1.8630     4.4350     0.2350 H     1 <1>   0.1500 
 33 H       -5.7550    -0.9300    -0.6180 H     1 <1>   0.1500 
 34 H       -4.1110    -5.1520     1.2160 H     1 <1>   0.1500 
 35 H       -1.6940    -4.8810     2.1860 H     1 <1>   0.0800 
 36 H       -2.3040    -3.3260     2.6610 H     1 <1>   0.0800 
 37 H       -1.6860    -3.0570    -1.4170 H     1 <1>   0.0800 
 38 H       -0.8280    -4.4240    -0.8020 H     1 <1>   0.0800 
 39 H       -6.5020    -4.7730     1.0260 H     1 <1>   0.1500 
 40 H        0.4780    -4.1000     1.9420 H     1 <1>   0.0800 
 41 H       -0.0910    -3.0280     3.1930 H     1 <1>   0.0800 
 42 H       -0.0360    -1.6550    -0.7920 H     1 <1>   0.0800 
 43 H        0.9180    -3.0610    -0.4430 H     1 <1>   0.0800 
 44 H       -0.7930    -1.5380     1.3920 H     1 <1>   0.4500 
 45 H      -10.4700    -4.2020     0.8260 H     1 <1>   0.0800 
 46 H      -10.2690    -3.2270    -0.6310 H     1 <1>   0.0800 
 47 H      -10.2800    -2.4530     0.9560 H     1 <1>   0.0800 
 48 H        2.1510    -1.9670     1.5280 H     1 <1>   0.0800 
 49 H        1.1960    -1.0330     2.6640 H     1 <1>   0.0800 
 50 H        1.3570    -0.4930     1.0090 H     1 <1>   0.0800 
@<TRIPOS>BOND
  1   1   2  1   
  2   2   3  ar  
  3   2   4  ar  
  4   3   5  1   
  5   3   6  ar  
  6   4   7  ar  
  7   4  28  1   
  8   5   8  2   
  9   5   9  am  
 10   6  10  ar  
 11   6  29  1   
 12   7  10  ar  
 13   7  30  1   
 14   9  11  1   
 15   9  31  1   
 16  10  32  1   
 17  11  12  ar  
 18  11  13  ar  
 19  12  14  1   
 20  12  15  ar  
 21  13  16  ar  
 22  13  33  1   
 23  14  17  1   
 24  14  18  1   
 25  15  19  ar  
 26  15  34  1   
 27  16  19  ar  
 28  16  20  1   
 29  17  21  1   
 30  17  35  1   
 31  17  36  1   
 32  18  22  1   
 33  18  37  1   
 34  18  38  1   
 35  19  39  1   
 36  20  23  2   
 37  20  24  1   
 38  21  25  1   
 39  21  40  1   
 40  21  41  1   
 41  22  25  1   
 42  22  42  1   
 43  22  43  1   
 44  24  26  1   
 45  25  27  1   
 46  25  44  1   
 47  26  45  1   
 48  26  46  1   
 49  26  47  1   
 50  27  48  1   
 51  27  49  1   
 52  27  50  1   
@<TRIPOS>SUBSTRUCTURE
  1 ****   9 GROUP 4 **** **** 0

# MOE 2024.06 (io_trps.svl 2023.06)
