@<TRIPOS>MOLECULE
4-Ethoxy-5-isopropyl-2-methyl-N-pyridin-2-ylmethyl-benzenesulfonamide
48 49 1 0 0 
SMALL
USER_CHARGES


@<TRIPOS>ATOM
  1 S       -0.2800    -0.1550    -0.1090 S.o2  1 <1>   1.4470 
  2 O       -0.5790     0.1860    -1.4840 O.2   1 <1>  -0.6500 
  3 O       -0.8910     0.6040     0.9560 O.2   1 <1>  -0.6500 
  4 N       -0.8240    -1.7210     0.1420 N.am  1 <1>  -0.9140 
  5 C        1.5270    -0.2250     0.1230 C.ar  1 <1>  -0.0090 
  6 C       -2.0190    -2.0430    -0.6260 C.3   1 <1>   0.3390 
  7 C        2.2990     0.9290     0.2580 C.ar  1 <1>  -0.1440 
  8 C        2.1900    -1.4480     0.1520 C.ar  1 <1>  -0.1500 
  9 C       -3.2310    -1.3080    -0.0630 C.ar  1 <1>   0.1660 
 10 C        3.6710     0.8390     0.4330 C.ar  1 <1>  -0.1500 
 11 C        1.6610     2.3140     0.2160 C.3   1 <1>  -0.0960 
 12 C        3.5620    -1.5580     0.3250 C.ar  1 <1>  -0.1430 
 13 N       -3.6200    -1.6700     1.1530 N.ar  1 <1>  -0.6200 
 14 C       -3.8440    -0.3130    -0.8120 C.ar  1 <1>  -0.1500 
 15 C        4.3130    -0.3940     0.4700 C.ar  1 <1>   0.0830 
 16 C        4.2110    -2.9490     0.3500 C.3   1 <1>   0.0630 
 17 C       -4.6610    -1.0120     1.6390 C.ar  1 <1>   0.1600 
 18 C       -4.9290     0.3580    -0.2930 C.ar  1 <1>  -0.1500 
 19 O        5.6560    -0.5080     0.6420 O.3   1 <1>  -0.3630 
 20 C        4.0080    -3.6710    -0.9860 C.3   1 <1>  -0.2400 
 21 C        3.6620    -3.7890     1.5090 C.3   1 <1>  -0.2400 
 22 C       -5.3410    -0.0090     0.9690 C.ar  1 <1>  -0.1500 
 23 C        6.4980     0.6120     0.7870 C.3   1 <1>   0.1200 
 24 C        7.9280     0.1070     0.9540 C.3   1 <1>  -0.2400 
 25 H       -1.1770    -1.6790     1.1030 H     1 <1>   0.4200 
 26 H       -2.2060    -3.0990    -0.5390 H     1 <1>   0.0800 
 27 H       -1.8800    -1.8260    -1.6710 H     1 <1>   0.0800 
 28 H        1.6170    -2.3490     0.0330 H     1 <1>   0.1500 
 29 H        4.2330     1.7460     0.5390 H     1 <1>   0.1500 
 30 H        1.0360     2.4600     1.0800 H     1 <1>   0.0800 
 31 H        1.0630     2.4260    -0.6710 H     1 <1>   0.0800 
 32 H        2.4080     3.0870     0.2100 H     1 <1>   0.0800 
 33 H       -3.4690    -0.0570    -1.7870 H     1 <1>   0.1500 
 34 H        5.2720    -2.8580     0.5030 H     1 <1>   0.0800 
 35 H       -4.9910    -1.2860     2.6260 H     1 <1>   0.1500 
 36 H       -5.4270     1.1370    -0.8460 H     1 <1>   0.1500 
 37 H        2.9670    -3.8630    -1.1700 H     1 <1>   0.0800 
 38 H        4.5360    -4.6080    -0.9850 H     1 <1>   0.0800 
 39 H        4.3930    -3.0640    -1.7870 H     1 <1>   0.0800 
 40 H        2.6120    -3.9860     1.3840 H     1 <1>   0.0800 
 41 H        3.8050    -3.2640     2.4370 H     1 <1>   0.0800 
 42 H        4.1820    -4.7280     1.5650 H     1 <1>   0.0800 
 43 H       -6.1790     0.4770     1.4340 H     1 <1>   0.1500 
 44 H        6.1850     1.1630     1.6570 H     1 <1>   0.0800 
 45 H        6.4110     1.2210    -0.0960 H     1 <1>   0.0800 
 46 H        8.0000    -0.5150     1.8290 H     1 <1>   0.0800 
 47 H        8.5980     0.9390     1.0680 H     1 <1>   0.0800 
 48 H        8.2240    -0.4570     0.0880 H     1 <1>   0.0800 
@<TRIPOS>BOND
  1   1   2  2   
  2   1   3  2   
  3   1   4  am  
  4   1   5  1   
  5   4   6  1   
  6   4  25  1   
  7   5   7  ar  
  8   5   8  ar  
  9   6   9  1   
 10   6  26  1   
 11   6  27  1   
 12   7  10  ar  
 13   7  11  1   
 14   8  12  ar  
 15   8  28  1   
 16   9  13  ar  
 17   9  14  ar  
 18  10  15  ar  
 19  10  29  1   
 20  11  30  1   
 21  11  31  1   
 22  11  32  1   
 23  12  15  ar  
 24  12  16  1   
 25  13  17  ar  
 26  14  18  ar  
 27  14  33  1   
 28  15  19  1   
 29  16  20  1   
 30  16  21  1   
 31  16  34  1   
 32  17  22  ar  
 33  17  35  1   
 34  18  22  ar  
 35  18  36  1   
 36  19  23  1   
 37  20  37  1   
 38  20  38  1   
 39  20  39  1   
 40  21  40  1   
 41  21  41  1   
 42  21  42  1   
 43  22  43  1   
 44  23  24  1   
 45  23  44  1   
 46  23  45  1   
 47  24  46  1   
 48  24  47  1   
 49  24  48  1   
@<TRIPOS>SUBSTRUCTURE
  1 ****   5 GROUP 4 **** **** 0

# MOE 2024.06 (io_trps.svl 2023.06)
