@<TRIPOS>MOLECULE
1-[1,4']Bipiperidinyl-1'-yl-2-chloro-ethanone
38 39 1 0 0 
SMALL
USER_CHARGES


@<TRIPOS>ATOM
  1 CL      -0.6560    -0.9470     0.6290 Cl    1 <1>  -0.2900 
  2 C       -1.3830    -0.4270    -0.8930 C.3   1 <1>   0.1910 
  3 C       -2.6500     0.3850    -0.6480 C.2   1 <1>   0.5690 
  4 O       -3.6660    -0.0310    -1.1540 O.2   1 <1>  -0.5700 
  5 N       -2.6510     1.5540     0.0860 N.am  1 <1>  -0.6600 
  6 C       -1.4460     2.2100     0.6480 C.3   1 <1>   0.1400 
  7 C       -3.9270     2.1990     0.4810 C.3   1 <1>   0.1400 
  8 C       -1.4070     3.6660     0.1810 C.3   1 <1>  -0.1600 
  9 C       -3.9280     3.6460    -0.0070 C.3   1 <1>  -0.1600 
 10 C       -2.7060     4.4240     0.5140 C.3   1 <1>   0.4230 
 11 N       -2.6740     5.8020    -0.0850 N.4   1 <1>  -0.9590 
 12 C       -1.4860     6.6060     0.3560 C.3   1 <1>   0.3430 
 13 C       -3.9330     6.5790     0.1620 C.3   1 <1>   0.3430 
 14 C       -1.4110     7.9190    -0.4270 C.3   1 <1>  -0.1600 
 15 C       -3.9130     7.8900    -0.6250 C.3   1 <1>  -0.1600 
 16 C       -2.6910     8.7450    -0.2750 C.3   1 <1>  -0.1600 
 17 H       -1.6160    -1.3140    -1.4530 H     1 <1>   0.0800 
 18 H       -0.6560     0.1540    -1.4270 H     1 <1>   0.0800 
 19 H       -0.5460     1.7140     0.3280 H     1 <1>   0.0800 
 20 H       -1.4870     2.1570     1.7240 H     1 <1>   0.0800 
 21 H       -4.0240     2.1590     1.5530 H     1 <1>   0.0800 
 22 H       -4.7700     1.6760     0.0580 H     1 <1>   0.0800 
 23 H       -1.2360     3.6730    -0.8810 H     1 <1>   0.0800 
 24 H       -0.5650     4.1220     0.6680 H     1 <1>   0.0800 
 25 H       -4.8420     4.0850     0.3450 H     1 <1>   0.0800 
 26 H       -3.9390     3.6370    -1.0820 H     1 <1>   0.0800 
 27 H       -2.7880     4.5030     1.5860 H     1 <1>   0.0800 
 28 H       -2.5940     5.6840    -1.1030 H     1 <1>   0.4500 
 29 H       -0.5740     6.0600     0.1850 H     1 <1>   0.0800 
 30 H       -1.5610     6.8200     1.4100 H     1 <1>   0.0800 
 31 H       -4.0310     6.7910     1.2140 H     1 <1>   0.0800 
 32 H       -4.7940     6.0130    -0.1520 H     1 <1>   0.0800 
 33 H       -1.2310     7.7060    -1.4660 H     1 <1>   0.0800 
 34 H       -0.5740     8.4940    -0.0680 H     1 <1>   0.0800 
 35 H       -4.8090     8.4460    -0.4030 H     1 <1>   0.0800 
 36 H       -3.9230     7.6760    -1.6800 H     1 <1>   0.0800 
 37 H       -2.6500     9.6090    -0.9180 H     1 <1>   0.0800 
 38 H       -2.7760     9.0970     0.7410 H     1 <1>   0.0800 
@<TRIPOS>BOND
  1   1   2  1   
  2   2   3  1   
  3   2  17  1   
  4   2  18  1   
  5   3   4  2   
  6   3   5  am  
  7   5   6  1   
  8   5   7  1   
  9   6   8  1   
 10   6  19  1   
 11   6  20  1   
 12   7   9  1   
 13   7  21  1   
 14   7  22  1   
 15   8  10  1   
 16   8  23  1   
 17   8  24  1   
 18   9  10  1   
 19   9  25  1   
 20   9  26  1   
 21  10  11  1   
 22  10  27  1   
 23  11  12  1   
 24  11  13  1   
 25  11  28  1   
 26  12  14  1   
 27  12  29  1   
 28  12  30  1   
 29  13  15  1   
 30  13  31  1   
 31  13  32  1   
 32  14  16  1   
 33  14  33  1   
 34  14  34  1   
 35  15  16  1   
 36  15  35  1   
 37  15  36  1   
 38  16  37  1   
 39  16  38  1   
@<TRIPOS>SUBSTRUCTURE
  1 ****  10 GROUP 4 **** **** 0

# MOE 2024.06 (io_trps.svl 2023.06)
