@<TRIPOS>MOLECULE
3-Allyl-6-ethyl-2-methylsulfanyl-3H-thieno[2,3-d]pyrimidin-4-one
31 32 1 0 0 
SMALL
USER_CHARGES


@<TRIPOS>ATOM
  1 S        0.4300     0.1570    -0.5640 S.3   1 <1>  -0.0800 
  2 C        1.3770     1.5590    -0.1070 C.2   1 <1>   0.1660 
  3 C       -1.0770     1.0420    -0.3260 C.2   1 <1>  -0.1400 
  4 N        2.7270     1.5490    -0.0770 N.2   1 <1>  -0.5760 
  5 C        0.5730     2.6080     0.1980 C.2   1 <1>  -0.0860 
  6 C       -0.8250     2.3040     0.0690 C.2   1 <1>  -0.1500 
  7 C       -2.3770     0.3050    -0.5900 C.3   1 <1>   0.0200 
  8 C        3.2630     2.6680     0.2810 C.2   1 <1>   0.6510 
  9 C        1.2110     3.8150     0.5890 C.2   1 <1>   0.7160 
 10 C       -2.6280    -0.7690     0.4710 C.3   1 <1>  -0.2400 
 11 S        5.0510     2.7030     0.3410 S.3   1 <1>  -0.3710 
 12 N        2.5900     3.8220     0.6260 N.am  1 <1>  -0.4200 
 13 O        0.5710     4.8150     0.8850 O.2   1 <1>  -0.5700 
 14 C        5.5810     1.0160    -0.2050 C.3   1 <1>  -0.0100 
 15 C        3.2880     5.0820     0.9820 C.3   1 <1>   0.2780 
 16 C        3.5450     5.8850    -0.2800 C.2   1 <1>  -0.2880 
 17 C        4.7490     6.1750    -0.7830 C.2   1 <1>  -0.3000 
 18 H       -1.5640     3.0570     0.2830 H     1 <1>   0.1500 
 19 H       -2.3390    -0.1460    -1.5670 H     1 <1>   0.0800 
 20 H       -3.1890     1.0090    -0.5800 H     1 <1>   0.0800 
 21 H       -1.8470    -1.5090     0.4490 H     1 <1>   0.0800 
 22 H       -3.5680    -1.2570     0.2890 H     1 <1>   0.0800 
 23 H       -2.6520    -0.3230     1.4500 H     1 <1>   0.0800 
 24 H        5.2020     0.8570    -1.1990 H     1 <1>   0.0800 
 25 H        5.1660     0.3000     0.4820 H     1 <1>   0.0800 
 26 H        6.6550     0.9870    -0.1920 H     1 <1>   0.0800 
 27 H        4.2120     4.8760     1.4920 H     1 <1>   0.0800 
 28 H        2.6860     5.6640     1.6590 H     1 <1>   0.0800 
 29 H        2.6300     6.2100    -0.7480 H     1 <1>   0.1500 
 30 H        5.6830     5.8630    -0.3440 H     1 <1>   0.1500 
 31 H        4.9030     6.7480    -1.6810 H     1 <1>   0.1500 
@<TRIPOS>BOND
  1   1   2  1   
  2   1   3  1   
  3   2   4  1   
  4   2   5  2   
  5   3   6  2   
  6   3   7  1   
  7   4   8  2   
  8   5   6  1   
  9   5   9  1   
 10   6  18  1   
 11   7  10  1   
 12   7  19  1   
 13   7  20  1   
 14   8  11  1   
 15   8  12  1   
 16   9  12  am  
 17   9  13  2   
 18  10  21  1   
 19  10  22  1   
 20  10  23  1   
 21  11  14  1   
 22  12  15  1   
 23  14  24  1   
 24  14  25  1   
 25  14  26  1   
 26  15  16  1   
 27  15  27  1   
 28  15  28  1   
 29  16  17  2   
 30  16  29  1   
 31  17  30  1   
 32  17  31  1   
@<TRIPOS>SUBSTRUCTURE
  1 ****   5 GROUP 4 **** **** 0

# MOE 2024.06 (io_trps.svl 2023.06)
