@<TRIPOS>MOLECULE
1-(3-Methyl-but-2-enyl)-3,6-diaza-tricyclo[4.3.1.1*3,8*]undecan-9-one
40 42 1 0 0 
SMALL
USER_CHARGES


@<TRIPOS>ATOM
  1 O       -1.6440     0.8840    -0.4990 O.2   1 <1>  -0.5700 
  2 C       -2.1150    -0.2090    -0.4120 C.2   1 <1>   0.4480 
  3 C       -1.3630    -1.4930    -0.6970 C.3   1 <1>   0.0610 
  4 C       -3.5160    -0.4340     0.0840 C.3   1 <1>  -0.0190 
  5 C       -1.2310    -2.2020     0.6580 C.3   1 <1>   0.3430 
  6 C       -2.1840    -2.3230    -1.7040 C.3   1 <1>   0.1100 
  7 C        0.0510    -1.2230    -1.2540 C.3   1 <1>  -0.0220 
  8 C       -3.4090    -1.1440     1.4360 C.3   1 <1>   0.3430 
  9 C       -4.2880    -1.2330    -0.9670 C.3   1 <1>   0.1100 
 10 N       -2.5250    -2.3680     1.4230 N.4   1 <1>  -0.9590 
 11 N       -3.5920    -2.4830    -1.2950 N.3   1 <1>  -0.8100 
 12 C        0.8570    -2.5120    -1.3590 C.2   1 <1>  -0.2880 
 13 C       -3.2530    -3.6170     0.9980 C.3   1 <1>   0.3430 
 14 C       -3.8850    -3.6270    -0.4130 C.3   1 <1>   0.1100 
 15 C        1.8180    -2.9560    -0.5400 C.2   1 <1>  -0.2760 
 16 C        2.5350    -4.2710    -0.8050 C.3   1 <1>  -0.1020 
 17 C        2.3460    -2.2650     0.7120 C.3   1 <1>  -0.1020 
 18 H       -4.0020     0.5150     0.2230 H     1 <1>   0.0800 
 19 H       -0.5520    -1.6180     1.2580 H     1 <1>   0.0800 
 20 H       -0.7700    -3.1650     0.5060 H     1 <1>   0.0800 
 21 H       -1.7390    -3.2930    -1.8530 H     1 <1>   0.0800 
 22 H       -2.1720    -1.8190    -2.6570 H     1 <1>   0.0800 
 23 H       -0.0150    -0.7630    -2.2260 H     1 <1>   0.0800 
 24 H        0.5610    -0.5180    -0.6230 H     1 <1>   0.0800 
 25 H       -3.0010    -0.4350     2.1390 H     1 <1>   0.0800 
 26 H       -4.3960    -1.4080     1.7790 H     1 <1>   0.0800 
 27 H       -4.3680    -0.6420    -1.8660 H     1 <1>   0.0800 
 28 H       -5.2910    -1.4410    -0.6310 H     1 <1>   0.0800 
 29 H       -2.2520    -2.5360     2.4020 H     1 <1>   0.4500 
 30 H        0.5720    -3.0810    -2.2300 H     1 <1>   0.1500 
 31 H       -2.5720    -4.4500     1.0530 H     1 <1>   0.0800 
 32 H       -4.0390    -3.8230     1.7060 H     1 <1>   0.0800 
 33 H       -4.9530    -3.7100    -0.3060 H     1 <1>   0.0800 
 34 H       -3.5720    -4.5280    -0.9130 H     1 <1>   0.0800 
 35 H        3.5880    -4.0970    -0.9410 H     1 <1>   0.0800 
 36 H        2.1580    -4.7450    -1.6940 H     1 <1>   0.0800 
 37 H        2.4020    -4.9470     0.0210 H     1 <1>   0.0800 
 38 H        3.3930    -2.0460     0.5870 H     1 <1>   0.0800 
 39 H        2.2380    -2.9090     1.5660 H     1 <1>   0.0800 
 40 H        1.8430    -1.3420     0.9200 H     1 <1>   0.0800 
@<TRIPOS>BOND
  1   1   2  2   
  2   2   3  1   
  3   2   4  1   
  4   3   5  1   
  5   3   6  1   
  6   3   7  1   
  7   4   8  1   
  8   4   9  1   
  9   4  18  1   
 10   5  10  1   
 11   5  19  1   
 12   5  20  1   
 13   6  11  1   
 14   6  21  1   
 15   6  22  1   
 16   7  12  1   
 17   7  23  1   
 18   7  24  1   
 19   8  10  1   
 20   8  25  1   
 21   8  26  1   
 22   9  11  1   
 23   9  27  1   
 24   9  28  1   
 25  10  13  1   
 26  10  29  1   
 27  11  14  1   
 28  12  15  2   
 29  12  30  1   
 30  13  14  1   
 31  13  31  1   
 32  13  32  1   
 33  14  33  1   
 34  14  34  1   
 35  15  16  1   
 36  15  17  1   
 37  16  35  1   
 38  16  36  1   
 39  16  37  1   
 40  17  38  1   
 41  17  39  1   
 42  17  40  1   
@<TRIPOS>SUBSTRUCTURE
  1 ****   3 GROUP 4 **** **** 0

# MOE 2024.06 (io_trps.svl 2023.06)
