@<TRIPOS>MOLECULE
2,5-Dioxo-1,2,3,4,5,6,7,8-octahydro-quinoline-4-carboxylic acid (4-acetyl-phenyl
42 44 1 0 0 
SMALL
USER_CHARGES


@<TRIPOS>ATOM
  1 O       -1.9920    -0.4230    -2.9100 O.2   1 <1>  -0.5700 
  2 C       -2.4660     0.4560    -2.2420 C.2   1 <1>   0.5690 
  3 N       -3.5150     0.2260    -1.4150 N.am  1 <1>  -0.5390 
  4 C       -1.9350     1.8650    -2.3380 C.3   1 <1>  -0.0990 
  5 C       -3.9770     1.1160    -0.4690 C.2   1 <1>  -0.0290 
  6 C       -2.0990     2.6840    -1.0350 C.3   1 <1>   0.1190 
  7 C       -3.3460     2.2930    -0.2190 C.2   1 <1>  -0.1240 
  8 C       -5.2220     0.6780     0.2940 C.3   1 <1>  -0.0220 
  9 C       -2.0830     4.1700    -1.4210 C.2   1 <1>   0.5690 
 10 C       -3.7660     3.1830     0.8190 C.2   1 <1>   0.4950 
 11 C       -5.3810     1.4300     1.6250 C.3   1 <1>  -0.1600 
 12 O       -3.0460     4.6490    -1.9670 O.2   1 <1>  -0.5700 
 13 N       -0.9810     4.9460    -1.2200 N.am  1 <1>  -0.5470 
 14 O       -3.1000     4.0920     1.2530 O.2   1 <1>  -0.5700 
 15 C       -5.1210     2.9350     1.4560 C.3   1 <1>  -0.0990 
 16 C        0.2330     4.6250    -0.6260 C.ar  1 <1>   0.1170 
 17 C        0.3250     4.4020     0.7400 C.ar  1 <1>  -0.1500 
 18 C        1.3830     4.5130    -1.3930 C.ar  1 <1>  -0.1500 
 19 C        1.5320     4.0600     1.3170 C.ar  1 <1>  -0.1500 
 20 C        2.5900     4.1720    -0.8130 C.ar  1 <1>  -0.1500 
 21 C        2.7020     3.9290     0.5630 C.ar  1 <1>   0.0860 
 22 C        3.9460     3.5590     1.2050 C.2   1 <1>   0.4230 
 23 O        4.0360     3.3290     2.3840 O.2   1 <1>  -0.5700 
 24 C        5.2250     3.4400     0.3980 C.3   1 <1>  -0.1790 
 25 H       -3.9150    -0.7110    -1.4990 H     1 <1>   0.3700 
 26 H       -2.4820     2.3390    -3.1330 H     1 <1>   0.0800 
 27 H       -0.8990     1.8390    -2.6240 H     1 <1>   0.0800 
 28 H       -1.2550     2.4690    -0.4080 H     1 <1>   0.0800 
 29 H       -5.1750    -0.3780     0.5000 H     1 <1>   0.0800 
 30 H       -6.0820     0.8560    -0.3270 H     1 <1>   0.0800 
 31 H       -4.6720     1.0360     2.3330 H     1 <1>   0.0800 
 32 H       -6.3690     1.2680     2.0220 H     1 <1>   0.0800 
 33 H       -1.1130     5.9110    -1.5270 H     1 <1>   0.3700 
 34 H       -5.8760     3.3760     0.8320 H     1 <1>   0.0800 
 35 H       -5.1560     3.4180     2.4160 H     1 <1>   0.0800 
 36 H       -0.5560     4.5000     1.3520 H     1 <1>   0.1500 
 37 H        1.3260     4.6920    -2.4530 H     1 <1>   0.1500 
 38 H        1.5760     3.8900     2.3800 H     1 <1>   0.1500 
 39 H        3.4540     4.0940    -1.4470 H     1 <1>   0.1500 
 40 H        5.4550     4.3800    -0.0690 H     1 <1>   0.0800 
 41 H        5.1190     2.6760    -0.3490 H     1 <1>   0.0800 
 42 H        6.0410     3.1730     1.0450 H     1 <1>   0.0800 
@<TRIPOS>BOND
  1   1   2  2   
  2   2   3  am  
  3   2   4  1   
  4   3   5  1   
  5   3  25  1   
  6   4   6  1   
  7   4  26  1   
  8   4  27  1   
  9   5   7  2   
 10   5   8  1   
 11   6   7  1   
 12   6   9  1   
 13   6  28  1   
 14   7  10  1   
 15   8  11  1   
 16   8  29  1   
 17   8  30  1   
 18   9  12  2   
 19   9  13  am  
 20  10  14  2   
 21  10  15  1   
 22  11  15  1   
 23  11  31  1   
 24  11  32  1   
 25  13  16  1   
 26  13  33  1   
 27  15  34  1   
 28  15  35  1   
 29  16  17  ar  
 30  16  18  ar  
 31  17  19  ar  
 32  17  36  1   
 33  18  20  ar  
 34  18  37  1   
 35  19  21  ar  
 36  19  38  1   
 37  20  21  ar  
 38  20  39  1   
 39  21  22  1   
 40  22  23  2   
 41  22  24  1   
 42  24  40  1   
 43  24  41  1   
 44  24  42  1   
@<TRIPOS>SUBSTRUCTURE
  1 ****   6 GROUP 4 **** **** 0

# MOE 2024.06 (io_trps.svl 2023.06)
