@<TRIPOS>MOLECULE
3,6-Dihydroxy-4-(3-methoxy-phenyl)-6-methyl-4,5,6,7-tetrahydro-1H-indazole-5-car
48 50 1 0 0 
SMALL
USER_CHARGES


@<TRIPOS>ATOM
  1 O       -2.2140     1.0910    -1.5180 O.2   1 <1>  -0.5700 
  2 C       -2.1180     1.6020    -0.4290 C.2   1 <1>   0.6590 
  3 O       -2.4260     0.9420     0.6770 O.3   1 <1>  -0.4300 
  4 C       -1.5870     3.0080    -0.2380 C.3   1 <1>  -0.0190 
  5 C       -2.8760    -0.3880     0.6230 C.3   1 <1>   0.2580 
  6 C       -2.6140     4.1100    -0.6100 C.3   1 <1>   0.2800 
  7 C       -0.2370     3.1570    -0.9730 C.3   1 <1>   0.2440 
  8 C       -3.0870    -0.8670     2.0460 C.2   1 <1>  -0.2880 
  9 O       -3.7650     3.8860     0.1140 O.3   1 <1>  -0.6800 
 10 C       -2.0800     5.5050    -0.2010 C.3   1 <1>   0.0200 
 11 C       -3.0380     4.1010    -2.0860 C.3   1 <1>  -0.2400 
 12 C        0.8120     2.2690    -0.3010 C.ar  1 <1>  -0.1440 
 13 C        0.1660     4.6250    -0.9930 C.2   1 <1>  -0.1810 
 14 C       -4.2360    -1.3310     2.5460 C.2   1 <1>  -0.3000 
 15 C       -0.6370     5.6520    -0.6510 C.2   1 <1>  -0.3320 
 16 C        1.4640     2.6800     0.8540 C.ar  1 <1>  -0.1500 
 17 C        1.1080     1.0230    -0.8370 C.ar  1 <1>  -0.1500 
 18 C        1.3550     5.2430    -1.3540 C.2   1 <1>   0.3510 
 19 N        0.0850     6.7880    -0.7930 N.pl3 1 <1>   0.3000 
 20 C        2.4050     1.8570     1.4680 C.ar  1 <1>   0.0820 
 21 C        2.0380     0.1990    -0.2280 C.ar  1 <1>  -0.1500 
 22 O        2.4580     4.6470    -1.8000 O.3   1 <1>  -0.5120 
 23 N        1.3370     6.5260    -1.2370 N.2   1 <1>  -0.7070 
 24 O        3.0850     2.1990     2.5910 O.3   1 <1>  -0.3630 
 25 C        2.6830     0.6160     0.9210 C.ar  1 <1>  -0.1500 
 26 C        2.9840     3.4960     3.1350 C.3   1 <1>   0.0400 
 27 H       -1.3820     3.1250     0.8100 H     1 <1>   0.0800 
 28 H       -2.1260    -0.9810     0.1270 H     1 <1>   0.0800 
 29 H       -3.7930    -0.4150     0.0600 H     1 <1>   0.0800 
 30 H       -0.3450     2.8510    -1.9990 H     1 <1>   0.0800 
 31 H       -2.1870    -0.7880     2.6320 H     1 <1>   0.1500 
 32 H       -4.5020     4.4080    -0.2560 H     1 <1>   0.4000 
 33 H       -2.1120     5.6060     0.8710 H     1 <1>   0.0800 
 34 H       -2.6830     6.2790    -0.6400 H     1 <1>   0.0800 
 35 H       -3.7450     4.8860    -2.2860 H     1 <1>   0.0800 
 36 H       -2.1880     4.2610    -2.7240 H     1 <1>   0.0800 
 37 H       -3.4850     3.1610    -2.3560 H     1 <1>   0.0800 
 38 H       -4.3560    -1.6620     3.5630 H     1 <1>   0.1500 
 39 H       -5.1520    -1.4170     1.9860 H     1 <1>   0.1500 
 40 H        1.2330     3.6440     1.2640 H     1 <1>   0.1500 
 41 H        0.6120     0.6840    -1.7310 H     1 <1>   0.1500 
 42 H       -0.2390     7.7460    -0.6090 H     1 <1>   0.2700 
 43 H        2.2610    -0.7660    -0.6500 H     1 <1>   0.1500 
 44 H        3.1010     5.3600    -1.9470 H     1 <1>   0.4500 
 45 H        3.4080    -0.0160     1.4010 H     1 <1>   0.1500 
 46 H        3.6540     3.5590     3.9740 H     1 <1>   0.0800 
 47 H        1.9730     3.6600     3.4610 H     1 <1>   0.0800 
 48 H        3.2690     4.2120     2.3840 H     1 <1>   0.0800 
@<TRIPOS>BOND
  1   1   2  2   
  2   2   3  1   
  3   2   4  1   
  4   3   5  1   
  5   4   6  1   
  6   4   7  1   
  7   4  27  1   
  8   5   8  1   
  9   5  28  1   
 10   5  29  1   
 11   6   9  1   
 12   6  10  1   
 13   6  11  1   
 14   7  12  1   
 15   7  13  1   
 16   7  30  1   
 17   8  14  2   
 18   8  31  1   
 19   9  32  1   
 20  10  15  1   
 21  10  33  1   
 22  10  34  1   
 23  11  35  1   
 24  11  36  1   
 25  11  37  1   
 26  12  16  ar  
 27  12  17  ar  
 28  13  15  2   
 29  13  18  1   
 30  14  38  1   
 31  14  39  1   
 32  15  19  1   
 33  16  20  ar  
 34  16  40  1   
 35  17  21  ar  
 36  17  41  1   
 37  18  22  1   
 38  18  23  2   
 39  19  23  1   
 40  19  42  1   
 41  20  24  1   
 42  20  25  ar  
 43  21  25  ar  
 44  21  43  1   
 45  22  44  1   
 46  24  26  1   
 47  25  45  1   
 48  26  46  1   
 49  26  47  1   
 50  26  48  1   
@<TRIPOS>SUBSTRUCTURE
  1 ****   7 GROUP 4 **** **** 0

# MOE 2024.06 (io_trps.svl 2023.06)
