@<TRIPOS>MOLECULE
N-[5-(2-Ethoxy-ethyl)-[1,3,4]thiadiazol-2-yl]-4-methoxy-benzenesulfonamide
39 40 1 0 0 
SMALL
USER_CHARGES


@<TRIPOS>ATOM
  1 S       -0.3090     0.6270    -1.1170 S.o2  1 <1>   1.4970 
  2 O       -0.3730     1.3000    -2.3970 O.2   1 <1>  -0.6500 
  3 O        0.4240    -0.6210    -1.0410 O.2   1 <1>  -0.6500 
  4 N        0.4090     1.6900    -0.0500 N.2   1 <1>  -0.6380 
  5 C       -1.9810     0.4180    -0.4420 C.ar  1 <1>  -0.0090 
  6 C        1.6500     1.8530    -0.1910 C.2   1 <1>   0.6410 
  7 C       -3.0130     1.2790    -0.7990 C.ar  1 <1>  -0.1500 
  8 C       -2.2670    -0.5930     0.4700 C.ar  1 <1>  -0.1500 
  9 S        2.5180     3.0050     0.8070 S.3   1 <1>  -0.2820 
 10 N        2.5960     1.2910    -1.0200 N.pl3 1 <1>  -0.4080 
 11 C       -4.2870     1.1380    -0.2760 C.ar  1 <1>  -0.1500 
 12 C       -3.5370    -0.7430     0.9980 C.ar  1 <1>  -0.1500 
 13 C        4.0370     2.6060    -0.0140 C.2   1 <1>   0.5300 
 14 N        3.9130     1.7170    -0.9110 N.2   1 <1>  -0.4920 
 15 C       -4.5560     0.1180     0.6310 C.ar  1 <1>   0.0830 
 16 C        5.2720     3.3500     0.4350 C.3   1 <1>  -0.0990 
 17 O       -5.7710    -0.0960     1.1910 O.3   1 <1>  -0.3620 
 18 C        5.2070     4.8090    -0.0040 C.3   1 <1>   0.1200 
 19 C       -6.8790     0.7190     0.8810 C.3   1 <1>   0.0400 
 20 O        6.3680     5.4310     0.4330 O.3   1 <1>  -0.5600 
 21 C        6.4490     6.7750     0.0990 C.3   1 <1>   0.1200 
 22 C        7.7710     7.3020     0.6430 C.3   1 <1>  -0.2400 
 23 H       -2.8170     2.0740    -1.5010 H     1 <1>   0.1500 
 24 H       -1.4880    -1.2740     0.7710 H     1 <1>   0.1500 
 25 H        2.3440     0.5030    -1.6350 H     1 <1>   0.4000 
 26 H       -5.0520     1.8260    -0.5840 H     1 <1>   0.1500 
 27 H       -3.7460    -1.5290     1.7010 H     1 <1>   0.1500 
 28 H        6.1350     2.8850    -0.0030 H     1 <1>   0.0800 
 29 H        5.3480     3.2930     1.5050 H     1 <1>   0.0800 
 30 H        4.3610     5.3070     0.4390 H     1 <1>   0.0800 
 31 H        5.1580     4.8800    -1.0780 H     1 <1>   0.0800 
 32 H       -7.7240     0.3590     1.4400 H     1 <1>   0.0800 
 33 H       -7.0810     0.6480    -0.1730 H     1 <1>   0.0800 
 34 H       -6.6580     1.7330     1.1650 H     1 <1>   0.0800 
 35 H        5.6200     7.2970     0.5460 H     1 <1>   0.0800 
 36 H        6.4140     6.8720    -0.9730 H     1 <1>   0.0800 
 37 H        7.8020     7.1870     1.7110 H     1 <1>   0.0800 
 38 H        7.8730     8.3450     0.4050 H     1 <1>   0.0800 
 39 H        8.5910     6.7660     0.2010 H     1 <1>   0.0800 
@<TRIPOS>BOND
  1   1   2  2   
  2   1   3  2   
  3   1   4  1   
  4   1   5  1   
  5   4   6  2   
  6   5   7  ar  
  7   5   8  ar  
  8   6   9  1   
  9   6  10  1   
 10   7  11  ar  
 11   7  23  1   
 12   8  12  ar  
 13   8  24  1   
 14   9  13  1   
 15  10  14  1   
 16  10  25  1   
 17  11  15  ar  
 18  11  26  1   
 19  12  15  ar  
 20  12  27  1   
 21  13  14  2   
 22  13  16  1   
 23  15  17  1   
 24  16  18  1   
 25  16  28  1   
 26  16  29  1   
 27  17  19  1   
 28  18  20  1   
 29  18  30  1   
 30  18  31  1   
 31  19  32  1   
 32  19  33  1   
 33  19  34  1   
 34  20  21  1   
 35  21  22  1   
 36  21  35  1   
 37  21  36  1   
 38  22  37  1   
 39  22  38  1   
 40  22  39  1   
@<TRIPOS>SUBSTRUCTURE
  1 ****   4 GROUP 4 **** **** 0

# MOE 2024.06 (io_trps.svl 2023.06)
