@<TRIPOS>MOLECULE
2-(3-Dimethylamino-propyl)-8,8-dimethyl-3-propyl-8,9-dihydro-2H,6H-7-oxa-11-thia
60 63 1 0 0 
SMALL
USER_CHARGES


@<TRIPOS>ATOM
  1 S        0.3950    -1.4540     0.1040 S.3   1 <1>  -0.0800 
  2 C       -1.0000    -0.3670     0.1390 C.ar  1 <1>   0.2970 
  3 C        1.5130    -0.1130     0.3910 C.2   1 <1>  -0.0450 
  4 N       -2.2350    -0.8050    -0.0310 N.ar  1 <1>  -0.5670 
  5 C       -0.5810     0.9390     0.3610 C.ar  1 <1>   0.0000 
  6 C        2.9150    -0.1760     0.4990 C.2   1 <1>   0.7150 
  7 C        0.8440     1.0560     0.4990 C.2   1 <1>   0.1250 
  8 C       -3.1450     0.1540     0.0250 C.ar  1 <1>   0.1660 
  9 C       -1.5600     1.9160     0.4140 C.ar  1 <1>  -0.1500 
 10 O        3.5600    -1.2100     0.3660 O.2   1 <1>  -0.5700 
 11 N        3.5610     1.0260     0.7420 N.am  1 <1>  -0.4200 
 12 N        1.5210     2.2260     0.7160 N.2   1 <1>  -0.5750 
 13 C       -2.8680     1.5060     0.2400 C.ar  1 <1>  -0.1430 
 14 C       -4.5850    -0.2870    -0.1470 C.3   1 <1>  -0.0170 
 15 C        2.8060     2.1950     0.8300 C.2   1 <1>   0.4490 
 16 C        5.0430     0.9780     0.9300 C.3   1 <1>   0.1400 
 17 C       -3.9870     2.5400     0.2680 C.3   1 <1>   0.2640 
 18 C       -5.5080     0.8770    -0.5400 C.3   1 <1>   0.2800 
 19 C        3.5410     3.5180     1.0750 C.3   1 <1>  -0.0990 
 20 C        5.7490     0.9250    -0.4340 C.3   1 <1>  -0.1600 
 21 O       -5.2570     1.9520     0.3110 O.3   1 <1>  -0.5600 
 22 C       -6.9720     0.5000    -0.3040 C.3   1 <1>  -0.2400 
 23 C       -5.3290     1.3090    -2.0040 C.3   1 <1>  -0.2400 
 24 C        2.6710     4.7860     0.9740 C.3   1 <1>  -0.1600 
 25 C        7.1970     0.4610    -0.2730 C.3   1 <1>   0.3430 
 26 C        3.5000     6.0540     1.2070 C.3   1 <1>  -0.2400 
 27 N        7.7950     0.1470    -1.6030 N.4   1 <1>  -0.9590 
 28 C        9.0780    -0.6040    -1.4350 C.3   1 <1>   0.2630 
 29 C        8.0140     1.3660    -2.4470 C.3   1 <1>   0.2630 
 30 H       -1.2880     2.9440     0.5820 H     1 <1>   0.1500 
 31 H       -4.9140    -0.7130     0.7830 H     1 <1>   0.0800 
 32 H       -4.6390    -1.0560    -0.8950 H     1 <1>   0.0800 
 33 H        5.2820     0.0950     1.5000 H     1 <1>   0.0800 
 34 H        5.3910     1.8180     1.5050 H     1 <1>   0.0800 
 35 H       -3.9360     3.1700    -0.6020 H     1 <1>   0.0800 
 36 H       -3.8940     3.1590     1.1430 H     1 <1>   0.0800 
 37 H        4.3340     3.6090     0.3580 H     1 <1>   0.0800 
 38 H        3.9710     3.4870     2.0600 H     1 <1>   0.0800 
 39 H        5.7120     1.8990    -0.8870 H     1 <1>   0.0800 
 40 H        5.2360     0.2220    -1.0670 H     1 <1>   0.0800 
 41 H       -7.1310     0.2490     0.7290 H     1 <1>   0.0800 
 42 H       -7.2430    -0.3470    -0.9080 H     1 <1>   0.0800 
 43 H       -7.6130     1.3240    -0.5630 H     1 <1>   0.0800 
 44 H       -4.2970     1.4990    -2.2380 H     1 <1>   0.0800 
 45 H       -5.9100     2.1910    -2.2050 H     1 <1>   0.0800 
 46 H       -5.6670     0.5270    -2.6590 H     1 <1>   0.0800 
 47 H        1.8820     4.7420     1.7070 H     1 <1>   0.0800 
 48 H        2.2140     4.8350     0.0000 H     1 <1>   0.0800 
 49 H        7.2060    -0.4300     0.3350 H     1 <1>   0.0800 
 50 H        7.7790     1.2170     0.2300 H     1 <1>   0.0800 
 51 H        3.9460     6.0410     2.1860 H     1 <1>   0.0800 
 52 H        2.8680     6.9210     1.1350 H     1 <1>   0.0800 
 53 H        4.2780     6.1410     0.4690 H     1 <1>   0.0800 
 54 H        7.1350    -0.4750    -2.1000 H     1 <1>   0.4500 
 55 H        9.8030     0.0010    -0.9130 H     1 <1>   0.0800 
 56 H        9.4840    -0.8730    -2.3970 H     1 <1>   0.0800 
 57 H        8.9130    -1.5080    -0.8700 H     1 <1>   0.0800 
 58 H        8.6850     2.0490    -1.9510 H     1 <1>   0.0800 
 59 H        7.0800     1.8710    -2.6310 H     1 <1>   0.0800 
 60 H        8.4440     1.0910    -3.3970 H     1 <1>   0.0800 
@<TRIPOS>BOND
  1   1   2  1   
  2   1   3  1   
  3   2   4  ar  
  4   2   5  ar  
  5   3   6  1   
  6   3   7  2   
  7   4   8  ar  
  8   5   7  1   
  9   5   9  ar  
 10   6  10  2   
 11   6  11  am  
 12   7  12  1   
 13   8  13  ar  
 14   8  14  1   
 15   9  13  ar  
 16   9  30  1   
 17  11  15  1   
 18  11  16  1   
 19  12  15  2   
 20  13  17  1   
 21  14  18  1   
 22  14  31  1   
 23  14  32  1   
 24  15  19  1   
 25  16  20  1   
 26  16  33  1   
 27  16  34  1   
 28  17  21  1   
 29  17  35  1   
 30  17  36  1   
 31  18  21  1   
 32  18  22  1   
 33  18  23  1   
 34  19  24  1   
 35  19  37  1   
 36  19  38  1   
 37  20  25  1   
 38  20  39  1   
 39  20  40  1   
 40  22  41  1   
 41  22  42  1   
 42  22  43  1   
 43  23  44  1   
 44  23  45  1   
 45  23  46  1   
 46  24  26  1   
 47  24  47  1   
 48  24  48  1   
 49  25  27  1   
 50  25  49  1   
 51  25  50  1   
 52  26  51  1   
 53  26  52  1   
 54  26  53  1   
 55  27  28  1   
 56  27  29  1   
 57  27  54  1   
 58  28  55  1   
 59  28  56  1   
 60  28  57  1   
 61  29  58  1   
 62  29  59  1   
 63  29  60  1   
@<TRIPOS>SUBSTRUCTURE
  1 ****   7 GROUP 4 **** **** 0

# MOE 2024.06 (io_trps.svl 2023.06)
