@<TRIPOS>MOLECULE
N-[2-(4-Benzo[1,3]dioxol-5-ylmethyl-piperazine-1-carbonyl)-phenyl]-N-methyl-meth
56 59 1 0 0 
SMALL
USER_CHARGES


@<TRIPOS>ATOM
  1 S        0.7030    -0.1540    -0.3230 S.o2  1 <1>   1.3330 
  2 O       -0.6560     0.2700    -0.0890 O.2   1 <1>  -0.6500 
  3 O        0.9880    -1.2330    -1.2380 O.2   1 <1>  -0.6500 
  4 N        1.6160     1.2210    -0.8710 N.am  1 <1>  -0.6930 
  5 C        1.4690    -0.5300     1.2380 C.3   1 <1>  -0.1350 
  6 C        1.4490     2.4880    -0.3140 C.ar  1 <1>   0.1990 
  7 C        2.6880     0.9530    -1.8570 C.3   1 <1>   0.1160 
  8 C        2.4440     3.1440     0.4390 C.ar  1 <1>   0.0860 
  9 C        0.2320     3.1310    -0.5250 C.ar  1 <1>  -0.1500 
 10 C        3.7540     2.5780     0.6850 C.2   1 <1>   0.5440 
 11 C        2.1450     4.4000     0.9770 C.ar  1 <1>  -0.1500 
 12 C       -0.0310     4.3790    -0.0010 C.ar  1 <1>  -0.1500 
 13 O        3.8760     1.4460     1.1130 O.2   1 <1>  -0.5700 
 14 N        4.9130     3.2990     0.4590 N.am  1 <1>  -0.6600 
 15 C        0.9300     5.0160     0.7610 C.ar  1 <1>  -0.1500 
 16 C        6.2050     2.9170     1.1150 C.3   1 <1>   0.1400 
 17 C        5.0150     4.4280    -0.5170 C.3   1 <1>   0.1400 
 18 C        7.2970     2.6560     0.0650 C.3   1 <1>   0.3430 
 19 C        6.1460     4.1790    -1.5390 C.3   1 <1>   0.3430 
 20 N        7.4520     3.8210    -0.8830 N.4   1 <1>  -0.9590 
 21 C        8.5260     3.5680    -1.8840 C.3   1 <1>   0.4860 
 22 C        9.8410     3.4210    -1.1450 C.ar  1 <1>  -0.1430 
 23 C       10.4510     4.5410    -0.5860 C.ar  1 <1>  -0.1500 
 24 C       10.4360     2.1630    -1.0160 C.ar  1 <1>  -0.1500 
 25 C       11.6330     4.3610     0.1020 C.ar  1 <1>   0.0830 
 26 C       11.6290     2.0070    -0.3220 C.ar  1 <1>  -0.1500 
 27 O       12.3750     5.2840     0.7200 O.3   1 <1>  -0.3630 
 28 C       12.2060     3.1310     0.2320 C.ar  1 <1>   0.0830 
 29 C       13.5060     4.6020     1.2640 C.3   1 <1>   0.4000 
 30 O       13.3370     3.2230     0.9370 O.3   1 <1>  -0.3620 
 31 H        0.9810    -1.3680     1.6950 H     1 <1>   0.0800 
 32 H        1.3990     0.3120     1.8980 H     1 <1>   0.0800 
 33 H        2.5030    -0.7700     1.0950 H     1 <1>   0.0800 
 34 H        2.2660     0.4780    -2.7270 H     1 <1>   0.0800 
 35 H        3.4220     0.2960    -1.4230 H     1 <1>   0.0800 
 36 H        3.1590     1.8700    -2.1570 H     1 <1>   0.0800 
 37 H       -0.5230     2.6350    -1.1100 H     1 <1>   0.1500 
 38 H        2.8790     4.9000     1.5840 H     1 <1>   0.1500 
 39 H       -0.9840     4.8490    -0.1770 H     1 <1>   0.1500 
 40 H        0.7210     5.9850     1.1840 H     1 <1>   0.1500 
 41 H        6.0820     2.0330     1.7190 H     1 <1>   0.0800 
 42 H        6.5170     3.7090     1.7730 H     1 <1>   0.0800 
 43 H        5.2040     5.3420     0.0180 H     1 <1>   0.0800 
 44 H        4.0870     4.5460    -1.0500 H     1 <1>   0.0800 
 45 H        7.0350     1.7670    -0.4840 H     1 <1>   0.0800 
 46 H        8.2300     2.4670     0.5730 H     1 <1>   0.0800 
 47 H        6.2690     5.0610    -2.1460 H     1 <1>   0.0800 
 48 H        5.8400     3.3750    -2.1880 H     1 <1>   0.0800 
 49 H        7.7710     4.6190    -0.3170 H     1 <1>   0.4500 
 50 H        8.5970     4.3950    -2.5730 H     1 <1>   0.0800 
 51 H        8.3140     2.6720    -2.4440 H     1 <1>   0.0800 
 52 H       10.0470     5.5340    -0.6700 H     1 <1>   0.1500 
 53 H        9.9830     1.2900    -1.4550 H     1 <1>   0.1500 
 54 H       12.1040     1.0480    -0.2120 H     1 <1>   0.1500 
 55 H       13.5220     4.7210     2.3330 H     1 <1>   0.0800 
 56 H       14.4070     4.9740     0.8080 H     1 <1>   0.0800 
@<TRIPOS>BOND
  1   1   2  2   
  2   1   3  2   
  3   1   4  am  
  4   1   5  1   
  5   4   6  1   
  6   4   7  1   
  7   5  31  1   
  8   5  32  1   
  9   5  33  1   
 10   6   8  ar  
 11   6   9  ar  
 12   7  34  1   
 13   7  35  1   
 14   7  36  1   
 15   8  10  1   
 16   8  11  ar  
 17   9  12  ar  
 18   9  37  1   
 19  10  13  2   
 20  10  14  am  
 21  11  15  ar  
 22  11  38  1   
 23  12  15  ar  
 24  12  39  1   
 25  14  16  1   
 26  14  17  1   
 27  15  40  1   
 28  16  18  1   
 29  16  41  1   
 30  16  42  1   
 31  17  19  1   
 32  17  43  1   
 33  17  44  1   
 34  18  20  1   
 35  18  45  1   
 36  18  46  1   
 37  19  20  1   
 38  19  47  1   
 39  19  48  1   
 40  20  21  1   
 41  20  49  1   
 42  21  22  1   
 43  21  50  1   
 44  21  51  1   
 45  22  23  ar  
 46  22  24  ar  
 47  23  25  ar  
 48  23  52  1   
 49  24  26  ar  
 50  24  53  1   
 51  25  27  1   
 52  25  28  ar  
 53  26  28  ar  
 54  26  54  1   
 55  27  29  1   
 56  28  30  1   
 57  29  30  1   
 58  29  55  1   
 59  29  56  1   
@<TRIPOS>SUBSTRUCTURE
  1 ****  14 GROUP 4 **** **** 0

# MOE 2024.06 (io_trps.svl 2023.06)
