@<TRIPOS>MOLECULE
8-[4-(4-Fluoro-phenyl)-piperazin-1-ylmethyl]-1,3-dimethyl-7-propyl-3,7-dihydro-p
58 61 1 0 0 
SMALL
USER_CHARGES


@<TRIPOS>ATOM
  1 F       -0.5420     1.0160    -1.6730 F     1 <1>  -0.1900 
  2 C       -1.1920     2.0870    -1.2960 C.ar  1 <1>   0.1900 
  3 C       -2.2900     1.9440    -0.4680 C.ar  1 <1>  -0.1500 
  4 C       -0.7580     3.3220    -1.7410 C.ar  1 <1>  -0.1500 
  5 C       -2.9730     3.0810    -0.0730 C.ar  1 <1>  -0.1500 
  6 C       -1.4530     4.4490    -1.3370 C.ar  1 <1>  -0.1500 
  7 C       -2.5610     4.3420    -0.5030 C.ar  1 <1>   0.1000 
  8 N       -3.2340     5.4950    -0.1200 N.pl3 1 <1>  -0.8380 
  9 C       -4.5700     5.7110    -0.7330 C.3   1 <1>   0.2090 
 10 C       -3.2130     5.8290     1.3320 C.3   1 <1>   0.2090 
 11 C       -5.0510     7.1510    -0.4690 C.3   1 <1>   0.1100 
 12 C       -3.7310     7.2630     1.5640 C.3   1 <1>   0.1100 
 13 N       -5.0830     7.4840     0.9840 N.3   1 <1>  -0.8100 
 14 C       -5.5290     8.8840     1.2080 C.3   1 <1>   0.2540 
 15 C       -7.0450     9.0440     1.0040 C.cat 1 <1>   0.6560 
 16 N       -7.8880     8.0340     1.1790 N.pl3 1 <1>  -0.7000 
 17 N       -7.7110    10.1310     0.6260 N.pl3 1 <1>  -0.7640 
 18 C       -9.1400     8.4690     0.8990 C.2   1 <1>   0.4260 
 19 C       -9.0640     9.7740     0.5470 C.2   1 <1>   0.2770 
 20 C       -7.1920    11.4880     0.3070 C.3   1 <1>   0.3540 
 21 N      -10.3180     7.7470     0.9360 N.am  1 <1>  -0.4360 
 22 C      -10.2750    10.4530     0.1810 C.2   1 <1>   0.7030 
 23 C       -6.9530    11.5970    -1.2010 C.3   1 <1>  -0.1600 
 24 C      -11.4860     8.3880     0.5530 C.2   1 <1>   0.6900 
 25 C      -10.3310     6.3150     1.3590 C.3   1 <1>   0.0600 
 26 O      -10.2700    11.6340    -0.1200 O.2   1 <1>  -0.5700 
 27 N      -11.4590     9.7270     0.1750 N.am  1 <1>  -0.4200 
 28 C       -6.3780    12.9670    -1.5840 C.3   1 <1>  -0.2400 
 29 O      -12.5350     7.7770     0.5440 O.2   1 <1>  -0.5700 
 30 C      -12.7430    10.3900    -0.2160 C.3   1 <1>   0.0600 
 31 H       -2.5960     0.9660    -0.1430 H     1 <1>   0.1500 
 32 H        0.0990     3.3950    -2.3840 H     1 <1>   0.1500 
 33 H       -3.8290     2.9980     0.5690 H     1 <1>   0.1500 
 34 H       -1.1450     5.4260    -1.6620 H     1 <1>   0.1500 
 35 H       -5.2750     5.0100    -0.3220 H     1 <1>   0.0800 
 36 H       -4.5040     5.5400    -1.7940 H     1 <1>   0.0800 
 37 H       -2.2050     5.7460     1.6990 H     1 <1>   0.0800 
 38 H       -3.8270     5.1320     1.8750 H     1 <1>   0.0800 
 39 H       -6.0320     7.2620    -0.8960 H     1 <1>   0.0800 
 40 H       -4.3850     7.8220    -0.9850 H     1 <1>   0.0800 
 41 H       -3.0250     7.9480     1.1250 H     1 <1>   0.0800 
 42 H       -3.7580     7.4450     2.6240 H     1 <1>   0.0800 
 43 H       -4.9970     9.5480     0.5500 H     1 <1>   0.0800 
 44 H       -5.3090     9.1680     2.2220 H     1 <1>   0.0800 
 45 H       -7.5670     7.0980     1.4430 H     1 <1>   0.4500 
 46 H       -6.2710    11.6640     0.8370 H     1 <1>   0.0800 
 47 H       -7.9010    12.2370     0.6230 H     1 <1>   0.0800 
 48 H       -7.8850    11.4600    -1.7210 H     1 <1>   0.0800 
 49 H       -6.2670    10.8320    -1.5170 H     1 <1>   0.0800 
 50 H       -9.6410     6.1570     2.1690 H     1 <1>   0.0800 
 51 H      -10.0580     5.6890     0.5270 H     1 <1>   0.0800 
 52 H      -11.3130     6.0280     1.6960 H     1 <1>   0.0800 
 53 H       -7.0580    13.7550    -1.3080 H     1 <1>   0.0800 
 54 H       -6.2240    13.0150    -2.6490 H     1 <1>   0.0800 
 55 H       -5.4320    13.1390    -1.0990 H     1 <1>   0.0800 
 56 H      -12.5620    11.2750    -0.8010 H     1 <1>   0.0800 
 57 H      -13.2910    10.6620     0.6690 H     1 <1>   0.0800 
 58 H      -13.3440     9.7170    -0.8030 H     1 <1>   0.0800 
@<TRIPOS>BOND
  1   1   2  1   
  2   2   3  ar  
  3   2   4  ar  
  4   3   5  ar  
  5   3  31  1   
  6   4   6  ar  
  7   4  32  1   
  8   5   7  ar  
  9   5  33  1   
 10   6   7  ar  
 11   6  34  1   
 12   7   8  1   
 13   8   9  1   
 14   8  10  1   
 15   9  11  1   
 16   9  35  1   
 17   9  36  1   
 18  10  12  1   
 19  10  37  1   
 20  10  38  1   
 21  11  13  1   
 22  11  39  1   
 23  11  40  1   
 24  12  13  1   
 25  12  41  1   
 26  12  42  1   
 27  13  14  1   
 28  14  15  1   
 29  14  43  1   
 30  14  44  1   
 31  15  16  ar  
 32  15  17  ar  
 33  16  18  1   
 34  16  45  1   
 35  17  19  1   
 36  17  20  1   
 37  18  19  2   
 38  18  21  1   
 39  19  22  1   
 40  20  23  1   
 41  20  46  1   
 42  20  47  1   
 43  21  24  am  
 44  21  25  1   
 45  22  26  2   
 46  22  27  am  
 47  23  28  1   
 48  23  48  1   
 49  23  49  1   
 50  24  27  am  
 51  24  29  2   
 52  25  50  1   
 53  25  51  1   
 54  25  52  1   
 55  27  30  1   
 56  28  53  1   
 57  28  54  1   
 58  28  55  1   
 59  30  56  1   
 60  30  57  1   
 61  30  58  1   
@<TRIPOS>SUBSTRUCTURE
  1 ****  11 GROUP 4 **** **** 0

# MOE 2024.06 (io_trps.svl 2023.06)
