@<TRIPOS>MOLECULE
N-[2-(4-Isobutyryl-piperazin-1-yl)-phenyl]-2,2-dimethyl-propionamide
53 54 1 0 0 
SMALL
USER_CHARGES


@<TRIPOS>ATOM
  1 O       -0.1700     0.3440    -0.2240 O.2   1 <1>  -0.5700 
  2 C       -0.1680    -0.8330     0.0540 C.2   1 <1>   0.5690 
  3 N        0.9150    -1.6360    -0.1550 N.am  1 <1>  -0.5470 
  4 C       -1.4280    -1.4910     0.6740 C.3   1 <1>   0.0610 
  5 C        2.2070    -1.4440    -0.6670 C.ar  1 <1>   0.1170 
  6 C       -2.5640    -0.4690     0.8890 C.3   1 <1>  -0.2400 
  7 C       -1.0900    -2.1140     2.0430 C.3   1 <1>  -0.2400 
  8 C       -1.9600    -2.6010    -0.2530 C.3   1 <1>  -0.2400 
  9 C        3.0430    -2.5700    -0.6750 C.ar  1 <1>   0.1000 
 10 C        2.6800    -0.2330    -1.1510 C.ar  1 <1>  -0.1500 
 11 N        2.5670    -3.8020    -0.1870 N.pl3 1 <1>  -0.8380 
 12 C        4.3370    -2.4470    -1.1650 C.ar  1 <1>  -0.1500 
 13 C        3.9720    -0.1270    -1.6390 C.ar  1 <1>  -0.1500 
 14 C        3.0600    -4.2490     1.1560 C.3   1 <1>   0.2090 
 15 C        2.3320    -4.8990    -1.1800 C.3   1 <1>   0.2090 
 16 C        4.8010    -1.2340    -1.6450 C.ar  1 <1>  -0.1500 
 17 C        4.2000    -5.2750     1.0570 C.3   1 <1>   0.1400 
 18 C        3.4730    -5.9350    -1.2210 C.3   1 <1>   0.1400 
 19 N        3.8270    -6.4070     0.1540 N.am  1 <1>  -0.6600 
 20 C        3.6610    -7.6800     0.6470 C.2   1 <1>   0.5690 
 21 O        3.7530    -7.8980     1.8340 O.2   1 <1>  -0.5700 
 22 C        3.3370    -8.8620    -0.2840 C.3   1 <1>  -0.0190 
 23 C        1.8190    -9.0010    -0.4970 C.3   1 <1>  -0.2400 
 24 C        3.9030   -10.1990     0.2310 C.3   1 <1>  -0.2400 
 25 H        0.8110    -2.6140     0.1240 H     1 <1>   0.3700 
 26 H       -2.2370     0.3180     1.5460 H     1 <1>   0.0800 
 27 H       -3.4310    -0.9370     1.3190 H     1 <1>   0.0800 
 28 H       -2.8460    -0.0230    -0.0490 H     1 <1>   0.0800 
 29 H       -0.7000    -1.3600     2.7040 H     1 <1>   0.0800 
 30 H       -0.3520    -2.8900     1.9440 H     1 <1>   0.0800 
 31 H       -1.9680    -2.5410     2.4940 H     1 <1>   0.0800 
 32 H       -1.2280    -3.3770    -0.3870 H     1 <1>   0.0800 
 33 H       -2.8510    -3.0440     0.1550 H     1 <1>   0.0800 
 34 H       -2.1970    -2.1900    -1.2200 H     1 <1>   0.0800 
 35 H        2.0460     0.6340    -1.1510 H     1 <1>   0.1500 
 36 H        4.9850    -3.3000    -1.1700 H     1 <1>   0.1500 
 37 H        4.3270     0.8190    -2.0120 H     1 <1>   0.1500 
 38 H        2.2430    -4.6920     1.7000 H     1 <1>   0.0800 
 39 H        3.4000    -3.3950     1.7160 H     1 <1>   0.0800 
 40 H        2.2060    -4.4720    -2.1600 H     1 <1>   0.0800 
 41 H        1.4160    -5.4030    -0.9240 H     1 <1>   0.0800 
 42 H        5.8050    -1.1510    -2.0230 H     1 <1>   0.1500 
 43 H        4.4370    -5.6330     2.0430 H     1 <1>   0.0800 
 44 H        5.0800    -4.7910     0.6720 H     1 <1>   0.0800 
 45 H        4.3400    -5.4850    -1.6700 H     1 <1>   0.0800 
 46 H        3.1700    -6.7480    -1.8510 H     1 <1>   0.0800 
 47 H        3.8070    -8.6820    -1.2320 H     1 <1>   0.0800 
 48 H        1.3350    -9.2160     0.4400 H     1 <1>   0.0800 
 49 H        1.6070    -9.7990    -1.1860 H     1 <1>   0.0800 
 50 H        1.4060    -8.0900    -0.8890 H     1 <1>   0.0800 
 51 H        3.4500   -10.4630     1.1710 H     1 <1>   0.0800 
 52 H        4.9650   -10.1140     0.3810 H     1 <1>   0.0800 
 53 H        3.7170   -10.9870    -0.4760 H     1 <1>   0.0800 
@<TRIPOS>BOND
  1   1   2  2   
  2   2   3  am  
  3   2   4  1   
  4   3   5  1   
  5   3  25  1   
  6   4   6  1   
  7   4   7  1   
  8   4   8  1   
  9   5   9  ar  
 10   5  10  ar  
 11   6  26  1   
 12   6  27  1   
 13   6  28  1   
 14   7  29  1   
 15   7  30  1   
 16   7  31  1   
 17   8  32  1   
 18   8  33  1   
 19   8  34  1   
 20   9  11  1   
 21   9  12  ar  
 22  10  13  ar  
 23  10  35  1   
 24  11  14  1   
 25  11  15  1   
 26  12  16  ar  
 27  12  36  1   
 28  13  16  ar  
 29  13  37  1   
 30  14  17  1   
 31  14  38  1   
 32  14  39  1   
 33  15  18  1   
 34  15  40  1   
 35  15  41  1   
 36  16  42  1   
 37  17  19  1   
 38  17  43  1   
 39  17  44  1   
 40  18  19  1   
 41  18  45  1   
 42  18  46  1   
 43  19  20  am  
 44  20  21  2   
 45  20  22  1   
 46  22  23  1   
 47  22  24  1   
 48  22  47  1   
 49  23  48  1   
 50  23  49  1   
 51  23  50  1   
 52  24  51  1   
 53  24  52  1   
 54  24  53  1   
@<TRIPOS>SUBSTRUCTURE
  1 ****  11 GROUP 4 **** **** 0

# MOE 2024.06 (io_trps.svl 2023.06)
