@<TRIPOS>MOLECULE
3-Ethoxy-N-[4-(morpholine-4-sulfonyl)-phenyl]-propionamide
45 46 1 0 0 
SMALL
USER_CHARGES


@<TRIPOS>ATOM
  1 S        0.3390    -0.2030    -1.5060 S.o2  1 <1>   1.4470 
  2 O       -0.2600     0.8570    -2.2900 O.2   1 <1>  -0.6500 
  3 O        1.4540    -0.9450    -2.0510 O.2   1 <1>  -0.6500 
  4 N        0.8880     0.5170    -0.0760 N.am  1 <1>  -0.8490 
  5 C       -0.9300    -1.3590    -0.9180 C.ar  1 <1>  -0.0090 
  6 C        2.2180     1.1340    -0.2410 C.3   1 <1>   0.1960 
  7 C       -0.0630     1.4700     0.5060 C.3   1 <1>   0.1960 
  8 C       -0.6240    -2.3360     0.0220 C.ar  1 <1>  -0.1500 
  9 C       -2.2390    -1.3000    -1.3810 C.ar  1 <1>  -0.1500 
 10 C        2.5190     2.2580     0.7760 C.3   1 <1>   0.1200 
 11 C        0.4360     2.0030     1.8700 C.3   1 <1>   0.1200 
 12 C       -1.5870    -3.2160     0.4850 C.ar  1 <1>  -0.1500 
 13 C       -3.2050    -2.1770    -0.9210 C.ar  1 <1>  -0.1500 
 14 O        1.8370     2.0550     1.9790 O.3   1 <1>  -0.5600 
 15 C       -2.8950    -3.1490     0.0250 C.ar  1 <1>   0.1170 
 16 N       -3.8360    -4.0650     0.5160 N.am  1 <1>  -0.5470 
 17 C       -5.1990    -3.9790     0.6030 C.2   1 <1>   0.5690 
 18 O       -5.8300    -3.0070     0.2700 O.2   1 <1>  -0.5700 
 19 C       -5.9460    -5.1700     1.1630 C.3   1 <1>  -0.0990 
 20 C       -7.1030    -5.5610     0.2500 C.3   1 <1>   0.1200 
 21 O       -7.6620    -6.7290     0.7540 O.3   1 <1>  -0.5600 
 22 C       -8.7680    -7.1730     0.0440 C.3   1 <1>   0.1200 
 23 C       -9.2550    -8.4550     0.7080 C.3   1 <1>  -0.2400 
 24 H        2.3140     1.5470    -1.2320 H     1 <1>   0.0800 
 25 H        2.9640     0.3640    -0.1450 H     1 <1>   0.0800 
 26 H       -1.0230     1.0020     0.6440 H     1 <1>   0.0800 
 27 H       -0.2010     2.3020    -0.1660 H     1 <1>   0.0800 
 28 H        0.3850    -2.4020     0.3950 H     1 <1>   0.1500 
 29 H       -2.5090    -0.5570    -2.1140 H     1 <1>   0.1500 
 30 H        2.2200     3.2130     0.3800 H     1 <1>   0.0800 
 31 H        3.5720     2.2940     0.9910 H     1 <1>   0.0800 
 32 H        0.0850     1.3600     2.6570 H     1 <1>   0.0800 
 33 H        0.0490     2.9910     2.0450 H     1 <1>   0.0800 
 34 H       -1.3140    -3.9570     1.2140 H     1 <1>   0.1500 
 35 H       -4.2060    -2.1020    -1.3060 H     1 <1>   0.1500 
 36 H       -3.4350    -4.9130     0.9110 H     1 <1>   0.3700 
 37 H       -6.3320    -4.9070     2.1300 H     1 <1>   0.0800 
 38 H       -5.2810    -6.0070     1.2660 H     1 <1>   0.0800 
 39 H       -6.7520    -5.7490    -0.7510 H     1 <1>   0.0800 
 40 H       -7.8520    -4.7870     0.2370 H     1 <1>   0.0800 
 41 H       -8.4780    -7.3600    -0.9760 H     1 <1>   0.0800 
 42 H       -9.5320    -6.4140     0.0780 H     1 <1>   0.0800 
 43 H       -8.4810    -9.2010     0.6810 H     1 <1>   0.0800 
 44 H      -10.1150    -8.8320     0.1870 H     1 <1>   0.0800 
 45 H       -9.5290    -8.2590     1.7290 H     1 <1>   0.0800 
@<TRIPOS>BOND
  1   1   2  2   
  2   1   3  2   
  3   1   4  am  
  4   1   5  1   
  5   4   6  1   
  6   4   7  1   
  7   5   8  ar  
  8   5   9  ar  
  9   6  10  1   
 10   6  24  1   
 11   6  25  1   
 12   7  11  1   
 13   7  26  1   
 14   7  27  1   
 15   8  12  ar  
 16   8  28  1   
 17   9  13  ar  
 18   9  29  1   
 19  10  14  1   
 20  10  30  1   
 21  10  31  1   
 22  11  14  1   
 23  11  32  1   
 24  11  33  1   
 25  12  15  ar  
 26  12  34  1   
 27  13  15  ar  
 28  13  35  1   
 29  15  16  1   
 30  16  17  am  
 31  16  36  1   
 32  17  18  2   
 33  17  19  1   
 34  19  20  1   
 35  19  37  1   
 36  19  38  1   
 37  20  21  1   
 38  20  39  1   
 39  20  40  1   
 40  21  22  1   
 41  22  23  1   
 42  22  41  1   
 43  22  42  1   
 44  23  43  1   
 45  23  44  1   
 46  23  45  1   
@<TRIPOS>SUBSTRUCTURE
  1 ****  15 GROUP 4 **** **** 0

# MOE 2024.06 (io_trps.svl 2023.06)
