@<TRIPOS>MOLECULE
1,3,7-Trimethyl-8-(tetrahydro-furan-2-ylmethyl)-1H,8H-imidazo[2,1-f]purine-2,4-d
43 46 1 0 0 
SMALL
USER_CHARGES


@<TRIPOS>ATOM
  1 O        1.6410    -0.7670    -0.3370 O.2   1 <1>  -0.5750 
  2 C        2.4120     0.1590    -0.1880 C.2   1 <1>   0.6860 
  3 N        1.9480     1.4710    -0.2510 N.am  1 <1>  -0.4270 
  4 N        3.7590    -0.0940     0.0470 N.am  1 <1>  -0.4420 
  5 C        2.8120     2.5490    -0.1040 C.2   1 <1>   0.6990 
  6 C        0.4950     1.7120    -0.5140 C.3   1 <1>   0.0510 
  7 C        4.6020     0.9830     0.2300 C.2   1 <1>   0.4200 
  8 C        4.2740    -1.4920     0.1340 C.3   1 <1>   0.0510 
  9 O        2.4100     3.6970    -0.1990 O.2   1 <1>  -0.5750 
 10 C        4.1860     2.2700     0.1550 C.2   1 <1>   0.2690 
 11 N        5.9400     0.9640     0.4880 N.pl3 1 <1>  -0.7040 
 12 N        5.3260     3.0650     0.3570 N.pl3 1 <1>  -0.6340 
 13 C        6.3410     2.2320     0.5430 C.cat 1 <1>   1.0690 
 14 C        5.8420     4.3440     0.4180 C.2   1 <1>   0.2210 
 15 N        7.4960     2.8880     0.7250 N.pl3 1 <1>  -0.5730 
 16 C        7.1710     4.2350     0.6450 C.2   1 <1>   0.1560 
 17 C        8.8290     2.2860     1.0460 C.3   1 <1>   0.1590 
 18 C        8.2000     5.3390     0.8000 C.3   1 <1>  -0.1110 
 19 C        9.3060     1.2490     0.0110 C.3   1 <1>   0.1920 
 20 O        8.4400     0.1570    -0.0460 O.3   1 <1>  -0.5650 
 21 C       10.6550     0.6320     0.3520 C.3   1 <1>  -0.1690 
 22 C        9.1030    -0.9380    -0.6020 C.3   1 <1>   0.1110 
 23 C       10.5850    -0.7390    -0.2990 C.3   1 <1>  -0.1690 
 24 H        0.3030     1.6330    -1.5700 H     1 <1>   0.0710 
 25 H        0.1970     2.6890    -0.1750 H     1 <1>   0.0710 
 26 H       -0.1030     0.9810     0.0040 H     1 <1>   0.0710 
 27 H        3.6420    -2.1620    -0.4250 H     1 <1>   0.0710 
 28 H        4.2870    -1.8090     1.1620 H     1 <1>   0.0710 
 29 H        5.2680    -1.5540    -0.2720 H     1 <1>   0.0710 
 30 H        6.6430     0.2150     0.4210 H     1 <1>   0.4440 
 31 H        5.2260     5.2230     0.2950 H     1 <1>   0.1410 
 32 H        8.7820     1.8200     2.0150 H     1 <1>   0.0710 
 33 H        9.5680     3.0660     1.1010 H     1 <1>   0.0710 
 34 H        8.6600     5.2860     1.7700 H     1 <1>   0.0710 
 35 H        7.7340     6.3030     0.6970 H     1 <1>   0.0710 
 36 H        8.9610     5.2470     0.0450 H     1 <1>   0.0710 
 37 H        9.3490     1.6880    -0.9720 H     1 <1>   0.0710 
 38 H       10.7600     0.5250     1.4180 H     1 <1>   0.0710 
 39 H       11.4730     1.2220    -0.0250 H     1 <1>   0.0710 
 40 H        8.9240    -0.9410    -1.6640 H     1 <1>   0.0710 
 41 H        8.7190    -1.8420    -0.1600 H     1 <1>   0.0710 
 42 H       10.9540    -1.5070     0.3590 H     1 <1>   0.0710 
 43 H       11.1510    -0.7660    -1.2140 H     1 <1>   0.0710 
@<TRIPOS>BOND
  1   1   2  2   
  2   2   3  am  
  3   2   4  am  
  4   3   5  am  
  5   3   6  1   
  6   4   7  1   
  7   4   8  1   
  8   5   9  2   
  9   5  10  1   
 10   6  24  1   
 11   6  25  1   
 12   6  26  1   
 13   7  10  2   
 14   7  11  1   
 15   8  27  1   
 16   8  28  1   
 17   8  29  1   
 18  10  12  1   
 19  11  13  ar  
 20  11  30  1   
 21  12  13  ar  
 22  12  14  1   
 23  13  15  ar  
 24  14  16  2   
 25  14  31  1   
 26  15  16  1   
 27  15  17  1   
 28  16  18  1   
 29  17  19  1   
 30  17  32  1   
 31  17  33  1   
 32  18  34  1   
 33  18  35  1   
 34  18  36  1   
 35  19  20  1   
 36  19  21  1   
 37  19  37  1   
 38  20  22  1   
 39  21  23  1   
 40  21  38  1   
 41  21  39  1   
 42  22  23  1   
 43  22  40  1   
 44  22  41  1   
 45  23  42  1   
 46  23  43  1   
@<TRIPOS>SUBSTRUCTURE
  1 ****  11 GROUP 4 **** **** 0

# MOE 2024.06 (io_trps.svl 2023.06)
