@<TRIPOS>MOLECULE
5-Oxo-1-p-tolyl-pyrrolidine-3-carboxylic acid (5-methyl-[1,3,4]thiadiazol-2-yl)-
38 40 1 0 0 
SMALL
USER_CHARGES


@<TRIPOS>ATOM
  1 S       -1.3450     1.4240     0.6440 S.3   1 <1>  -0.0800 
  2 C       -1.3630    -0.1300    -0.1230 C.2   1 <1>   0.4420 
  3 C       -0.0140     1.8320    -0.3810 C.2   1 <1>   0.1980 
  4 N       -0.4530    -0.2380    -1.0200 N.2   1 <1>  -0.3380 
  5 N       -2.3240    -1.0210     0.3120 N.am  1 <1>  -0.4940 
  6 N        0.3140     0.8860    -1.1620 N.2   1 <1>  -0.3380 
  7 C        0.5950     3.2090    -0.2480 C.3   1 <1>  -0.0600 
  8 C       -2.5580    -2.3030    -0.0980 C.2   1 <1>   0.5690 
  9 O       -1.8900    -2.8680    -0.9240 O.2   1 <1>  -0.5700 
 10 C       -3.7170    -3.0520     0.5470 C.3   1 <1>  -0.0190 
 11 C       -4.0450    -4.3900    -0.1330 C.3   1 <1>   0.1400 
 12 C       -5.0490    -2.2860     0.5370 C.3   1 <1>  -0.0990 
 13 N       -5.4970    -4.5670     0.0750 N.am  1 <1>  -0.4770 
 14 C       -6.0700    -3.3850     0.4490 C.2   1 <1>   0.5690 
 15 C       -6.1040    -5.8300    -0.0820 C.ar  1 <1>   0.1170 
 16 O       -7.2310    -3.1780     0.6990 O.2   1 <1>  -0.5700 
 17 C       -7.1650    -6.2260     0.7250 C.ar  1 <1>  -0.1500 
 18 C       -5.6490    -6.7270    -1.0460 C.ar  1 <1>  -0.1500 
 19 C       -7.7480    -7.4720     0.5810 C.ar  1 <1>  -0.1500 
 20 C       -6.2280    -7.9750    -1.1910 C.ar  1 <1>  -0.1500 
 21 C       -7.2830    -8.3560    -0.3780 C.ar  1 <1>  -0.1440 
 22 C       -7.9210    -9.7240    -0.5340 C.3   1 <1>  -0.0970 
 23 H       -2.9340    -0.6570     1.0370 H     1 <1>   0.3700 
 24 H        0.9700     3.3490     0.7490 H     1 <1>   0.0800 
 25 H       -0.1450     3.9590    -0.4590 H     1 <1>   0.0800 
 26 H        1.4070     3.3150    -0.9450 H     1 <1>   0.0800 
 27 H       -3.4470    -3.2700     1.5650 H     1 <1>   0.0800 
 28 H       -3.4890    -5.2020     0.3050 H     1 <1>   0.0800 
 29 H       -3.8510    -4.3480    -1.1920 H     1 <1>   0.0800 
 30 H       -5.1450    -1.6660    -0.3360 H     1 <1>   0.0800 
 31 H       -5.1940    -1.7040     1.4280 H     1 <1>   0.0800 
 32 H       -7.5420    -5.5550     1.4750 H     1 <1>   0.1500 
 33 H       -4.8400    -6.4530    -1.6960 H     1 <1>   0.1500 
 34 H       -8.5670    -7.7500     1.2210 H     1 <1>   0.1500 
 35 H       -5.8560    -8.6490    -1.9420 H     1 <1>   0.1500 
 36 H       -8.9660    -9.6800    -0.2870 H     1 <1>   0.0800 
 37 H       -7.4380   -10.4270     0.1200 H     1 <1>   0.0800 
 38 H       -7.8280   -10.0700    -1.5480 H     1 <1>   0.0800 
@<TRIPOS>BOND
  1   1   2  1   
  2   1   3  1   
  3   2   4  2   
  4   2   5  1   
  5   3   6  2   
  6   3   7  1   
  7   4   6  1   
  8   5   8  am  
  9   5  23  1   
 10   7  24  1   
 11   7  25  1   
 12   7  26  1   
 13   8   9  2   
 14   8  10  1   
 15  10  11  1   
 16  10  12  1   
 17  10  27  1   
 18  11  13  1   
 19  11  28  1   
 20  11  29  1   
 21  12  14  1   
 22  12  30  1   
 23  12  31  1   
 24  13  14  am  
 25  13  15  1   
 26  14  16  2   
 27  15  17  ar  
 28  15  18  ar  
 29  17  19  ar  
 30  17  32  1   
 31  18  20  ar  
 32  18  33  1   
 33  19  21  ar  
 34  19  34  1   
 35  20  21  ar  
 36  20  35  1   
 37  21  22  1   
 38  22  36  1   
 39  22  37  1   
 40  22  38  1   
@<TRIPOS>SUBSTRUCTURE
  1 ****  10 GROUP 4 **** **** 0

# MOE 2024.06 (io_trps.svl 2023.06)
