@<TRIPOS>MOLECULE
(3-Allyl-4-hydroxy-phenyl)-piperidin-1-yl-methanone
37 38 1 0 0 
SMALL
USER_CHARGES


@<TRIPOS>ATOM
  1 O        0.4910     0.9440    -1.0330 O.2   1 <1>  -0.5700 
  2 C        1.5570     1.2720    -0.5450 C.2   1 <1>   0.5440 
  3 N        2.6390     0.4210    -0.6630 N.am  1 <1>  -0.6600 
  4 C        1.6480     2.5410     0.1510 C.ar  1 <1>   0.0860 
  5 C        3.8480     0.4930     0.2060 C.3   1 <1>   0.1400 
  6 C        2.6100    -0.7590    -1.5740 C.3   1 <1>   0.1400 
  7 C        2.6270     3.4820    -0.1710 C.ar  1 <1>  -0.1500 
  8 C        0.7480     2.8670     1.1640 C.ar  1 <1>  -0.1500 
  9 C        3.9700    -0.7920     1.0330 C.3   1 <1>  -0.1600 
 10 C        2.7170    -2.0500    -0.7550 C.3   1 <1>  -0.1600 
 11 C        2.7310     4.6930     0.4940 C.ar  1 <1>  -0.1440 
 12 C        0.8320     4.0680     1.8400 C.ar  1 <1>  -0.1500 
 13 C        3.9590    -2.0450     0.1470 C.3   1 <1>  -0.1600 
 14 C        1.8240     4.9790     1.5100 C.ar  1 <1>   0.0820 
 15 C        3.8250     5.6750     0.0880 C.3   1 <1>   0.1220 
 16 O        1.8880     6.1350     2.1840 O.3   1 <1>  -0.5320 
 17 C        3.4060     6.4620    -1.1430 C.2   1 <1>  -0.2880 
 18 C        3.3130     7.7930    -1.2110 C.2   1 <1>  -0.3000 
 19 H        3.7930     1.3330     0.8750 H     1 <1>   0.0800 
 20 H        4.7180     0.6120    -0.4150 H     1 <1>   0.0800 
 21 H        3.4370    -0.6910    -2.2580 H     1 <1>   0.0800 
 22 H        1.7030    -0.7730    -2.1540 H     1 <1>   0.0800 
 23 H        3.3120     3.2500    -0.9670 H     1 <1>   0.1500 
 24 H       -0.0250     2.1590     1.4110 H     1 <1>   0.1500 
 25 H        3.1490    -0.8340     1.7270 H     1 <1>   0.0800 
 26 H        4.8800    -0.7620     1.6050 H     1 <1>   0.0800 
 27 H        2.7560    -2.8920    -1.4230 H     1 <1>   0.0800 
 28 H        1.8290    -2.1490    -0.1550 H     1 <1>   0.0800 
 29 H        0.1240     4.2910     2.6170 H     1 <1>   0.1500 
 30 H        3.9640    -2.9280     0.7630 H     1 <1>   0.0800 
 31 H        4.8450    -2.0590    -0.4650 H     1 <1>   0.0800 
 32 H        4.7270     5.1330    -0.1320 H     1 <1>   0.0800 
 33 H        4.0510     6.3490     0.8960 H     1 <1>   0.0800 
 34 H        1.1680     6.2530     2.8270 H     1 <1>   0.4500 
 35 H        3.1790     5.8250    -1.9820 H     1 <1>   0.1500 
 36 H        3.0110     8.3300    -2.0930 H     1 <1>   0.1500 
 37 H        3.5260     8.4570    -0.3900 H     1 <1>   0.1500 
@<TRIPOS>BOND
  1   1   2  2   
  2   2   3  am  
  3   2   4  1   
  4   3   5  1   
  5   3   6  1   
  6   4   7  ar  
  7   4   8  ar  
  8   5   9  1   
  9   5  19  1   
 10   5  20  1   
 11   6  10  1   
 12   6  21  1   
 13   6  22  1   
 14   7  11  ar  
 15   7  23  1   
 16   8  12  ar  
 17   8  24  1   
 18   9  13  1   
 19   9  25  1   
 20   9  26  1   
 21  10  13  1   
 22  10  27  1   
 23  10  28  1   
 24  11  14  ar  
 25  11  15  1   
 26  12  14  ar  
 27  12  29  1   
 28  13  30  1   
 29  13  31  1   
 30  14  16  1   
 31  15  17  1   
 32  15  32  1   
 33  15  33  1   
 34  16  34  1   
 35  17  18  2   
 36  17  35  1   
 37  18  36  1   
 38  18  37  1   
@<TRIPOS>SUBSTRUCTURE
  1 ****   4 GROUP 4 **** **** 0

# MOE 2024.06 (io_trps.svl 2023.06)
