@<TRIPOS>MOLECULE
1-(1-Acetyl-2,3-dihydro-1H-indol-5-yl)-2-morpholin-4-yl-ethanone
41 43 1 0 0 
SMALL
USER_CHARGES


@<TRIPOS>ATOM
  1 O        0.6430    -0.7330    -2.9950 O.2   1 <1>  -0.5700 
  2 C        0.9480    -1.4810    -2.0970 C.2   1 <1>   0.4230 
  3 C        2.2030    -1.3530    -1.3860 C.ar  1 <1>   0.0860 
  4 C       -0.0460    -2.5990    -1.7530 C.3   1 <1>   0.1710 
  5 C        2.8910    -0.1360    -1.4120 C.ar  1 <1>  -0.1500 
  6 C        2.7970    -2.3910    -0.6510 C.ar  1 <1>  -0.1500 
  7 N       -0.9290    -2.3330    -0.5860 N.3   1 <1>  -0.8100 
  8 C        4.0850     0.0180    -0.7400 C.ar  1 <1>  -0.1430 
  9 C        3.9950    -2.2270     0.0210 C.ar  1 <1>  -0.1500 
 10 C       -2.0030    -3.3420    -0.5000 C.3   1 <1>   0.1100 
 11 C       -0.2170    -2.2450     0.7060 C.3   1 <1>   0.1100 
 12 C        4.6620    -1.0080    -0.0220 C.ar  1 <1>   0.1170 
 13 C        4.9320     1.2620    -0.6630 C.3   1 <1>  -0.0170 
 14 C       -2.9210    -3.0840     0.7070 C.3   1 <1>   0.1200 
 15 C       -1.1990    -2.0270     1.8710 C.3   1 <1>   0.1200 
 16 N        5.8650    -0.6010     0.5660 N.am  1 <1>  -0.4770 
 17 C        6.0640     0.8490     0.2860 C.3   1 <1>   0.1400 
 18 O       -2.1720    -3.0320     1.8870 O.3   1 <1>  -0.5600 
 19 C        6.8490    -1.2620     1.2700 C.2   1 <1>   0.5690 
 20 O        7.7860    -0.6700     1.7490 O.2   1 <1>  -0.5700 
 21 C        6.8170    -2.7580     1.4670 C.3   1 <1>  -0.1790 
 22 H        0.4710    -3.5300    -1.6140 H     1 <1>   0.0800 
 23 H       -0.6730    -2.7220    -2.6200 H     1 <1>   0.0800 
 24 H        2.4760     0.6900    -1.9650 H     1 <1>   0.1500 
 25 H        2.3230    -3.3530    -0.5990 H     1 <1>   0.1500 
 26 H        4.3920    -3.0530     0.5750 H     1 <1>   0.1500 
 27 H       -1.5780    -4.3270    -0.4080 H     1 <1>   0.0800 
 28 H       -2.5940    -3.3120    -1.3990 H     1 <1>   0.0800 
 29 H        0.4690    -1.4170     0.6860 H     1 <1>   0.0800 
 30 H        0.3380    -3.1490     0.8870 H     1 <1>   0.0800 
 31 H        4.3780     2.0920    -0.2630 H     1 <1>   0.0800 
 32 H        5.3230     1.5170    -1.6310 H     1 <1>   0.0800 
 33 H       -3.6390    -3.8770     0.8080 H     1 <1>   0.0800 
 34 H       -3.4460    -2.1510     0.5890 H     1 <1>   0.0800 
 35 H       -1.6890    -1.0730     1.7770 H     1 <1>   0.0800 
 36 H       -0.6780    -2.0590     2.8110 H     1 <1>   0.0800 
 37 H        6.0100     1.4000     1.2090 H     1 <1>   0.0800 
 38 H        7.0270     1.0080    -0.1700 H     1 <1>   0.0800 
 39 H        6.0290    -3.0180     2.1460 H     1 <1>   0.0800 
 40 H        7.7510    -3.0850     1.8870 H     1 <1>   0.0800 
 41 H        6.6810    -3.2500     0.5220 H     1 <1>   0.0800 
@<TRIPOS>BOND
  1   1   2  2   
  2   2   3  1   
  3   2   4  1   
  4   3   5  ar  
  5   3   6  ar  
  6   4   7  1   
  7   4  22  1   
  8   4  23  1   
  9   5   8  ar  
 10   5  24  1   
 11   6   9  ar  
 12   6  25  1   
 13   7  10  1   
 14   7  11  1   
 15   8  12  ar  
 16   8  13  1   
 17   9  12  ar  
 18   9  26  1   
 19  10  14  1   
 20  10  27  1   
 21  10  28  1   
 22  11  15  1   
 23  11  29  1   
 24  11  30  1   
 25  12  16  1   
 26  13  17  1   
 27  13  31  1   
 28  13  32  1   
 29  14  18  1   
 30  14  33  1   
 31  14  34  1   
 32  15  18  1   
 33  15  35  1   
 34  15  36  1   
 35  16  17  1   
 36  16  19  am  
 37  17  37  1   
 38  17  38  1   
 39  19  20  2   
 40  19  21  1   
 41  21  39  1   
 42  21  40  1   
 43  21  41  1   
@<TRIPOS>SUBSTRUCTURE
  1 ****   6 GROUP 4 **** **** 0

# MOE 2024.06 (io_trps.svl 2023.06)
