@<TRIPOS>MOLECULE
6-(2-Ethanesulfonyl-benzoimidazol-1-ylmethyl)-N,N-dimethyl-[1,3,5]triazine-2,4-d
44 46 1 0 0 
SMALL
USER_CHARGES


@<TRIPOS>ATOM
  1 S       -0.2730     0.3890     1.6900 S.o2  1 <1>   1.2570 
  2 O       -0.4440     1.7150     2.2450 O.2   1 <1>  -0.6500 
  3 O        0.0760    -0.6620     2.6230 O.2   1 <1>  -0.6500 
  4 C       -1.7430    -0.0900     0.6950 C.2   1 <1>   0.1240 
  5 C        1.0470     0.4800     0.4660 C.3   1 <1>  -0.0550 
  6 N       -2.3830     0.7120    -0.1040 N.2   1 <1>  -0.5650 
  7 N       -2.2730    -1.3580     0.6810 N.pl3 1 <1>   0.0480 
  8 C        0.9010     1.5900    -0.5920 C.3   1 <1>  -0.2400 
  9 C       -3.3630    -0.0320    -0.6700 C.ar  1 <1>   0.2270 
 10 C       -3.3060    -1.3270    -0.2060 C.ar  1 <1>  -0.1520 
 11 C       -1.8520    -2.6030     1.3660 C.3   1 <1>   0.2390 
 12 C       -4.3310     0.3430    -1.6000 C.ar  1 <1>  -0.1500 
 13 C       -4.2030    -2.2940    -0.6740 C.ar  1 <1>  -0.1500 
 14 C       -0.8460    -3.3470     0.5080 C.ar  1 <1>   0.4760 
 15 C       -5.2240    -0.6010    -2.0570 C.ar  1 <1>  -0.1500 
 16 C       -5.1560    -1.9210    -1.5950 C.ar  1 <1>  -0.1500 
 17 N        0.3670    -2.8750     0.4850 N.ar  1 <1>  -0.6200 
 18 N       -1.2690    -4.3950    -0.1440 N.ar  1 <1>  -0.6200 
 19 C        1.2080    -3.5450    -0.2740 C.ar  1 <1>   0.7200 
 20 C       -0.3450    -4.9520    -0.8820 C.ar  1 <1>   0.7200 
 21 N        0.8960    -4.5930    -0.9940 N.ar  1 <1>  -0.6200 
 22 N        2.5080    -3.0970    -0.3040 N.pl3 1 <1>  -0.8380 
 23 N       -0.7200    -6.0230    -1.5840 N.pl3 1 <1>  -0.9000 
 24 C        3.4400    -3.4870    -1.3990 C.3   1 <1>   0.1290 
 25 C        3.1600    -2.4750     0.8850 C.3   1 <1>   0.1290 
 26 H        1.1270    -0.4600    -0.0430 H     1 <1>   0.0800 
 27 H        1.9720     0.6400     0.9840 H     1 <1>   0.0800 
 28 H        0.0260     1.4250    -1.1970 H     1 <1>   0.0800 
 29 H        1.7620     1.6030    -1.2350 H     1 <1>   0.0800 
 30 H        0.8110     2.5500    -0.1140 H     1 <1>   0.0800 
 31 H       -2.7150    -3.2230     1.5190 H     1 <1>   0.0800 
 32 H       -1.4390    -2.3920     2.3310 H     1 <1>   0.0800 
 33 H       -4.3540     1.3620    -1.9380 H     1 <1>   0.1500 
 34 H       -4.1460    -3.3120    -0.3290 H     1 <1>   0.1500 
 35 H       -5.9790    -0.3310    -2.7760 H     1 <1>   0.1500 
 36 H       -5.8580    -2.6440    -1.9720 H     1 <1>   0.1500 
 37 H        0.0150    -6.6000    -1.9850 H     1 <1>   0.4000 
 38 H       -1.5980    -6.4730    -1.3420 H     1 <1>   0.4000 
 39 H        2.8960    -3.6570    -2.3130 H     1 <1>   0.0800 
 40 H        3.9580    -4.3910    -1.1290 H     1 <1>   0.0800 
 41 H        4.1570    -2.7040    -1.5710 H     1 <1>   0.0800 
 42 H        2.4730    -2.3850     1.7090 H     1 <1>   0.0800 
 43 H        3.5220    -1.4950     0.6280 H     1 <1>   0.0800 
 44 H        3.9890    -3.0830     1.2030 H     1 <1>   0.0800 
@<TRIPOS>BOND
  1   1   2  2   
  2   1   3  2   
  3   1   4  1   
  4   1   5  1   
  5   4   6  2   
  6   4   7  1   
  7   5   8  1   
  8   5  26  1   
  9   5  27  1   
 10   6   9  1   
 11   7  10  1   
 12   7  11  1   
 13   8  28  1   
 14   8  29  1   
 15   8  30  1   
 16   9  10  ar  
 17   9  12  ar  
 18  10  13  ar  
 19  11  14  1   
 20  11  31  1   
 21  11  32  1   
 22  12  15  ar  
 23  12  33  1   
 24  13  16  ar  
 25  13  34  1   
 26  14  17  ar  
 27  14  18  ar  
 28  15  16  ar  
 29  15  35  1   
 30  16  36  1   
 31  17  19  ar  
 32  18  20  ar  
 33  19  21  ar  
 34  19  22  1   
 35  20  21  ar  
 36  20  23  1   
 37  22  24  1   
 38  22  25  1   
 39  23  37  1   
 40  23  38  1   
 41  24  39  1   
 42  24  40  1   
 43  24  41  1   
 44  25  42  1   
 45  25  43  1   
 46  25  44  1   
@<TRIPOS>SUBSTRUCTURE
  1 ****   7 GROUP 4 **** **** 0

# MOE 2024.06 (io_trps.svl 2023.06)
