@<TRIPOS>MOLECULE
N-tert-Butyl-4-[3-(2-methoxy-phenyl)-[1,2,4]oxadiazol-5-yl]-butyramide
46 47 1 0 0 
SMALL
USER_CHARGES


@<TRIPOS>ATOM
  1 O       -0.5580    -0.4220    -0.6680 O.2   1 <1>  -0.5700 
  2 C       -1.3250    -1.3260    -0.4580 C.2   1 <1>   0.5690 
  3 N       -0.8260    -2.5790    -0.3300 N.am  1 <1>  -0.7300 
  4 C       -2.8000    -0.9810    -0.3450 C.3   1 <1>  -0.0990 
  5 C       -1.3920    -3.9130    -0.0990 C.3   1 <1>   0.3000 
  6 C       -3.1380    -0.3780     1.0320 C.3   1 <1>  -0.1600 
  7 C       -2.2670    -3.9350     1.1550 C.3   1 <1>  -0.2400 
  8 C       -2.1620    -4.3710    -1.3390 C.3   1 <1>  -0.2400 
  9 C       -0.1960    -4.8390     0.1170 C.3   1 <1>  -0.2400 
 10 C       -4.6470    -0.1470     1.2140 C.3   1 <1>   0.0200 
 11 C       -5.4180    -1.4540     1.2410 C.2   1 <1>   0.2980 
 12 O       -5.3280    -2.2150     2.3000 O.3   1 <1>  -0.0190 
 13 N       -6.1440    -1.9030     0.3040 N.2   1 <1>  -0.5650 
 14 N       -6.0550    -3.2480     2.0090 N.2   1 <1>  -0.4100 
 15 C       -6.5520    -3.0580     0.8380 C.2   1 <1>   0.4620 
 16 C       -7.4030    -3.9930     0.1350 C.ar  1 <1>   0.0540 
 17 C       -8.6910    -3.6540    -0.3010 C.ar  1 <1>   0.0820 
 18 C       -6.9400    -5.2830    -0.1200 C.ar  1 <1>  -0.1500 
 19 O       -9.1500    -2.4070    -0.0160 O.3   1 <1>  -0.3620 
 20 C       -9.4630    -4.5870    -0.9900 C.ar  1 <1>  -0.1500 
 21 C       -7.7110    -6.2060    -0.8000 C.ar  1 <1>  -0.1500 
 22 C      -10.4110    -1.9470    -0.4470 C.3   1 <1>   0.0400 
 23 C       -8.9740    -5.8570    -1.2390 C.ar  1 <1>  -0.1500 
 24 H        0.1870    -2.6080    -0.4440 H     1 <1>   0.3700 
 25 H       -3.3980    -1.8440    -0.5430 H     1 <1>   0.0800 
 26 H       -3.0290    -0.2610    -1.1100 H     1 <1>   0.0800 
 27 H       -2.6210     0.5610     1.1340 H     1 <1>   0.0800 
 28 H       -2.7820    -1.0300     1.8100 H     1 <1>   0.0800 
 29 H       -3.1880    -3.4110     1.0020 H     1 <1>   0.0800 
 30 H       -1.7430    -3.4990     1.9870 H     1 <1>   0.0800 
 31 H       -2.5200    -4.9480     1.4100 H     1 <1>   0.0800 
 32 H       -2.4880    -5.3880    -1.2130 H     1 <1>   0.0800 
 33 H       -1.5330    -4.3230    -2.2090 H     1 <1>   0.0800 
 34 H       -3.0340    -3.7690    -1.5070 H     1 <1>   0.0800 
 35 H       -0.5310    -5.8470     0.2850 H     1 <1>   0.0800 
 36 H        0.3720    -4.5280     0.9760 H     1 <1>   0.0800 
 37 H        0.4440    -4.8420    -0.7470 H     1 <1>   0.0800 
 38 H       -5.0210     0.4660     0.4130 H     1 <1>   0.0800 
 39 H       -4.8250     0.3740     2.1380 H     1 <1>   0.0800 
 40 H       -5.9580    -5.5590     0.2210 H     1 <1>   0.1500 
 41 H      -10.4490    -4.3470    -1.3390 H     1 <1>   0.1500 
 42 H       -7.3310    -7.1960    -0.9880 H     1 <1>   0.1500 
 43 H      -10.5240    -0.9310    -0.1150 H     1 <1>   0.0800 
 44 H      -11.1760    -2.5620    -0.0080 H     1 <1>   0.0800 
 45 H      -10.4490    -1.9870    -1.5210 H     1 <1>   0.0800 
 46 H       -9.5770    -6.5730    -1.7710 H     1 <1>   0.1500 
@<TRIPOS>BOND
  1   1   2  2   
  2   2   3  am  
  3   2   4  1   
  4   3   5  1   
  5   3  24  1   
  6   4   6  1   
  7   4  25  1   
  8   4  26  1   
  9   5   7  1   
 10   5   8  1   
 11   5   9  1   
 12   6  10  1   
 13   6  27  1   
 14   6  28  1   
 15   7  29  1   
 16   7  30  1   
 17   7  31  1   
 18   8  32  1   
 19   8  33  1   
 20   8  34  1   
 21   9  35  1   
 22   9  36  1   
 23   9  37  1   
 24  10  11  1   
 25  10  38  1   
 26  10  39  1   
 27  11  12  1   
 28  11  13  2   
 29  12  14  1   
 30  13  15  1   
 31  14  15  2   
 32  15  16  1   
 33  16  17  ar  
 34  16  18  ar  
 35  17  19  1   
 36  17  20  ar  
 37  18  21  ar  
 38  18  40  1   
 39  19  22  1   
 40  20  23  ar  
 41  20  41  1   
 42  21  23  ar  
 43  21  42  1   
 44  22  43  1   
 45  22  44  1   
 46  22  45  1   
 47  23  46  1   
@<TRIPOS>SUBSTRUCTURE
  1 ****  13 GROUP 4 **** **** 0

# MOE 2024.06 (io_trps.svl 2023.06)
