@<TRIPOS>MOLECULE
3-[3-(4-tert-Butyl-phenyl)-[1,2,4]oxadiazol-5-yl]-N-pyridin-3-yl-propionamide
48 50 1 0 0 
SMALL
USER_CHARGES


@<TRIPOS>ATOM
  1 O       -0.4890    -0.0640    -0.6800 O.2   1 <1>  -0.5700 
  2 C        0.1510    -1.0400    -0.3860 C.2   1 <1>   0.5690 
  3 N        1.4910    -1.0160    -0.1180 N.am  1 <1>  -0.5470 
  4 C       -0.5670    -2.3710    -0.3090 C.3   1 <1>  -0.0990 
  5 C        2.4070     0.0540    -0.0790 C.ar  1 <1>   0.1170 
  6 C       -1.8050    -2.2860     0.5970 C.3   1 <1>   0.0200 
  7 C        2.0560     1.4080    -0.1290 C.ar  1 <1>   0.1600 
  8 C        3.7550    -0.2470     0.0280 C.ar  1 <1>  -0.1500 
  9 C       -2.4600    -3.6430     0.7480 C.2   1 <1>   0.2980 
 10 N        2.9040     2.4260    -0.0810 N.ar  1 <1>  -0.6200 
 11 C        4.6510     0.7980     0.0770 C.ar  1 <1>  -0.1500 
 12 O       -1.8480    -4.5590     1.4520 O.3   1 <1>  -0.0190 
 13 N       -3.5680    -3.9930     0.2430 N.2   1 <1>  -0.5650 
 14 C        4.1810     2.0990     0.0190 C.ar  1 <1>   0.1600 
 15 N       -2.6360    -5.5840     1.3870 N.2   1 <1>  -0.4100 
 16 C       -3.6570    -5.2560     0.6760 C.2   1 <1>   0.4620 
 17 C       -4.7840    -6.1180     0.3570 C.ar  1 <1>   0.0540 
 18 C       -4.8520    -7.4280     0.8250 C.ar  1 <1>  -0.1500 
 19 C       -5.8490    -5.6800    -0.4290 C.ar  1 <1>  -0.1500 
 20 C       -5.9200    -8.2520     0.5250 C.ar  1 <1>  -0.1500 
 21 C       -6.9190    -6.5020    -0.7310 C.ar  1 <1>  -0.1500 
 22 C       -6.9790    -7.8100    -0.2600 C.ar  1 <1>  -0.1430 
 23 C       -8.1510    -8.7670    -0.5690 C.3   1 <1>   0.1430 
 24 C       -9.2390    -8.1280    -1.4480 C.3   1 <1>  -0.2400 
 25 C       -8.8150    -9.2070     0.7440 C.3   1 <1>  -0.2400 
 26 C       -7.6220   -10.0030    -1.3120 C.3   1 <1>  -0.2400 
 27 H        1.9090    -1.9270     0.0630 H     1 <1>   0.3700 
 28 H        0.1010    -3.1260     0.0640 H     1 <1>   0.0800 
 29 H       -0.8720    -2.6510    -1.3010 H     1 <1>   0.0800 
 30 H       -2.5170    -1.5990     0.1730 H     1 <1>   0.0800 
 31 H       -1.5290    -1.9210     1.5700 H     1 <1>   0.0800 
 32 H        1.0180     1.6710    -0.2090 H     1 <1>   0.1500 
 33 H        4.0990    -1.2640     0.0710 H     1 <1>   0.1500 
 34 H        5.7070     0.6140     0.1580 H     1 <1>   0.1500 
 35 H        4.8890     2.9100     0.0580 H     1 <1>   0.1500 
 36 H       -4.0530    -7.8110     1.4370 H     1 <1>   0.1500 
 37 H       -5.8400    -4.6750    -0.8120 H     1 <1>   0.1500 
 38 H       -5.9160    -9.2540     0.9140 H     1 <1>   0.1500 
 39 H       -7.7000    -6.0910    -1.3430 H     1 <1>   0.1500 
 40 H       -8.8300    -7.8250    -2.3950 H     1 <1>   0.0800 
 41 H       -9.6630    -7.2690    -0.9590 H     1 <1>   0.0800 
 42 H      -10.0330    -8.8280    -1.6370 H     1 <1>   0.0800 
 43 H       -9.1570    -8.3440     1.2890 H     1 <1>   0.0800 
 44 H       -8.1250    -9.7460     1.3670 H     1 <1>   0.0800 
 45 H       -9.6580    -9.8450     0.5500 H     1 <1>   0.0800 
 46 H       -7.1240    -9.7020    -2.2170 H     1 <1>   0.0800 
 47 H       -8.4290   -10.6660    -1.5700 H     1 <1>   0.0800 
 48 H       -6.9220   -10.5490    -0.7080 H     1 <1>   0.0800 
@<TRIPOS>BOND
  1   1   2  2   
  2   2   3  am  
  3   2   4  1   
  4   3   5  1   
  5   3  27  1   
  6   4   6  1   
  7   4  28  1   
  8   4  29  1   
  9   5   7  ar  
 10   5   8  ar  
 11   6   9  1   
 12   6  30  1   
 13   6  31  1   
 14   7  10  ar  
 15   7  32  1   
 16   8  11  ar  
 17   8  33  1   
 18   9  12  1   
 19   9  13  2   
 20  10  14  ar  
 21  11  14  ar  
 22  11  34  1   
 23  12  15  1   
 24  13  16  1   
 25  14  35  1   
 26  15  16  2   
 27  16  17  1   
 28  17  18  ar  
 29  17  19  ar  
 30  18  20  ar  
 31  18  36  1   
 32  19  21  ar  
 33  19  37  1   
 34  20  22  ar  
 35  20  38  1   
 36  21  22  ar  
 37  21  39  1   
 38  22  23  1   
 39  23  24  1   
 40  23  25  1   
 41  23  26  1   
 42  24  40  1   
 43  24  41  1   
 44  24  42  1   
 45  25  43  1   
 46  25  44  1   
 47  25  45  1   
 48  26  46  1   
 49  26  47  1   
 50  26  48  1   
@<TRIPOS>SUBSTRUCTURE
  1 ****   9 GROUP 4 **** **** 0

# MOE 2024.06 (io_trps.svl 2023.06)
