@<TRIPOS>MOLECULE
5,5-Diethyl-2-pyrrolidin-1-ylmethyl-5,6-dihydro-3H-benzo[h]quinazolin-4-one
53 56 1 0 0 
SMALL
USER_CHARGES


@<TRIPOS>ATOM
  1 O        0.6080     0.6590     0.0770 O.2   1 <1>  -0.5700 
  2 C        0.3180     1.8320     0.2470 C.2   1 <1>   0.7670 
  3 N        1.3900     2.6800     0.3350 N.2   1 <1>  -0.6610 
  4 C       -1.0220     2.3270     0.3050 C.2   1 <1>  -0.1240 
  5 C        1.1770     3.9410     0.3670 C.2   1 <1>   0.4390 
  6 C       -1.2030     3.6810     0.2670 C.2   1 <1>   0.0720 
  7 C       -2.2590     1.3890     0.3510 C.3   1 <1>   0.1380 
  8 N       -0.0780     4.4720     0.3210 N.pl3 1 <1>  -0.5500 
  9 C        2.3950     4.8840     0.4570 C.3   1 <1>   0.4040 
 10 C       -2.5020     4.3080     0.1560 C.ar  1 <1>   0.0280 
 11 C       -3.4280     2.1550     1.0310 C.3   1 <1>  -0.0160 
 12 C       -1.9730     0.0930     1.1780 C.3   1 <1>  -0.1600 
 13 C       -2.5860     1.0650    -1.1340 C.3   1 <1>  -0.1600 
 14 N        3.6940     4.1720     0.1750 N.4   1 <1>  -0.9590 
 15 C       -3.6260     3.5680     0.5080 C.ar  1 <1>  -0.1440 
 16 C       -2.6960     5.6070    -0.3180 C.ar  1 <1>  -0.1500 
 17 C       -3.1570    -0.6400     1.8410 C.3   1 <1>  -0.2400 
 18 C       -3.7490     0.1020    -1.4210 C.3   1 <1>  -0.2400 
 19 C        4.9220     4.8620     0.6260 C.3   1 <1>   0.3430 
 20 C        3.8900     3.8240    -1.2520 C.3   1 <1>   0.3430 
 21 C       -4.8970     4.1070     0.4030 C.ar  1 <1>  -0.1500 
 22 C       -3.9640     6.1480    -0.4210 C.ar  1 <1>  -0.1500 
 23 C        6.0410     4.1840    -0.1530 C.3   1 <1>  -0.1600 
 24 C        5.3740     3.4990    -1.3520 C.3   1 <1>  -0.1600 
 25 C       -5.0680     5.3980    -0.0600 C.ar  1 <1>  -0.1500 
 26 H       -0.2340     5.4820     0.3720 H     1 <1>   0.4000 
 27 H        2.4210     5.2920     1.4520 H     1 <1>   0.0800 
 28 H        2.2680     5.6950    -0.2390 H     1 <1>   0.0800 
 29 H       -3.2190     2.2390     2.0830 H     1 <1>   0.0800 
 30 H       -4.3460     1.6080     0.9310 H     1 <1>   0.0800 
 31 H       -1.2880     0.3400     1.9720 H     1 <1>   0.0800 
 32 H       -1.4690    -0.6180     0.5460 H     1 <1>   0.0800 
 33 H       -1.7050     0.6480    -1.5930 H     1 <1>   0.0800 
 34 H       -2.7920     1.9870    -1.6500 H     1 <1>   0.0800 
 35 H        3.6190     3.2600     0.6600 H     1 <1>   0.4500 
 36 H       -1.8630     6.2070    -0.6270 H     1 <1>   0.1500 
 37 H       -3.5750    -0.0570     2.6430 H     1 <1>   0.0800 
 38 H       -2.8090    -1.5670     2.2620 H     1 <1>   0.0800 
 39 H       -3.9350    -0.8690     1.1390 H     1 <1>   0.0800 
 40 H       -3.5190    -0.8880    -1.0710 H     1 <1>   0.0800 
 41 H       -3.9070     0.0410    -2.4840 H     1 <1>   0.0800 
 42 H       -4.6640     0.4400    -0.9710 H     1 <1>   0.0800 
 43 H        5.0650     4.7690     1.6910 H     1 <1>   0.0800 
 44 H        4.8770     5.9050     0.3570 H     1 <1>   0.0800 
 45 H        3.6630     4.6730    -1.8750 H     1 <1>   0.0800 
 46 H        3.2760     2.9850    -1.5440 H     1 <1>   0.0800 
 47 H       -5.7600     3.5280     0.6820 H     1 <1>   0.1500 
 48 H       -4.0990     7.1520    -0.7870 H     1 <1>   0.1500 
 49 H        6.5290     3.4550     0.4700 H     1 <1>   0.0800 
 50 H        6.7730     4.9090    -0.4650 H     1 <1>   0.0800 
 51 H        5.7740     3.8470    -2.2880 H     1 <1>   0.0800 
 52 H        5.5130     2.4320    -1.2980 H     1 <1>   0.0800 
 53 H       -6.0570     5.8160    -0.1400 H     1 <1>   0.1500 
@<TRIPOS>BOND
  1   1   2  2   
  2   2   3  1   
  3   2   4  1   
  4   3   5  2   
  5   4   6  2   
  6   4   7  1   
  7   5   8  1   
  8   5   9  1   
  9   6   8  1   
 10   6  10  1   
 11   7  11  1   
 12   7  12  1   
 13   7  13  1   
 14   8  26  1   
 15   9  14  1   
 16   9  27  1   
 17   9  28  1   
 18  10  15  ar  
 19  10  16  ar  
 20  11  15  1   
 21  11  29  1   
 22  11  30  1   
 23  12  17  1   
 24  12  31  1   
 25  12  32  1   
 26  13  18  1   
 27  13  33  1   
 28  13  34  1   
 29  14  19  1   
 30  14  20  1   
 31  14  35  1   
 32  15  21  ar  
 33  16  22  ar  
 34  16  36  1   
 35  17  37  1   
 36  17  38  1   
 37  17  39  1   
 38  18  40  1   
 39  18  41  1   
 40  18  42  1   
 41  19  23  1   
 42  19  43  1   
 43  19  44  1   
 44  20  24  1   
 45  20  45  1   
 46  20  46  1   
 47  21  25  ar  
 48  21  47  1   
 49  22  25  ar  
 50  22  48  1   
 51  23  24  1   
 52  23  49  1   
 53  23  50  1   
 54  24  51  1   
 55  24  52  1   
 56  25  53  1   
@<TRIPOS>SUBSTRUCTURE
  1 ****   6 GROUP 4 **** **** 0

# MOE 2024.06 (io_trps.svl 2023.06)
