@<TRIPOS>MOLECULE
1-Azepan-1-yl-2-(3,5-dimethyl-phenoxy)-ethanone
42 43 1 0 0 
SMALL
USER_CHARGES


@<TRIPOS>ATOM
  1 O        0.7450     1.6080     2.4490 O.2   1 <1>  -0.5700 
  2 C        0.3420     2.0210     1.3840 C.2   1 <1>   0.5690 
  3 N        1.0860     1.8910     0.2330 N.am  1 <1>  -0.6600 
  4 C       -1.0020     2.7450     1.3860 C.3   1 <1>   0.1810 
  5 C        0.6500     2.3450    -1.1140 C.3   1 <1>   0.1400 
  6 C        2.4220     1.2400     0.2480 C.3   1 <1>   0.1400 
  7 O       -1.9780     2.0480     0.6260 O.3   1 <1>  -0.3620 
  8 C        1.0110     3.8150    -1.3660 C.3   1 <1>  -0.1600 
  9 C        3.5460     2.2840     0.2600 C.3   1 <1>  -0.1600 
 10 C       -3.1800     2.6110     0.3500 C.ar  1 <1>   0.0820 
 11 C        2.3410     4.3050    -0.7630 C.3   1 <1>  -0.1600 
 12 C        3.5080     3.3100    -0.8890 C.3   1 <1>  -0.1600 
 13 C       -3.6290     3.7980     0.9220 C.ar  1 <1>  -0.1500 
 14 C       -3.9840     1.9450    -0.5600 C.ar  1 <1>  -0.1500 
 15 C       -4.8670     4.3140     0.5740 C.ar  1 <1>  -0.1440 
 16 C       -5.2220     2.4530    -0.9130 C.ar  1 <1>  -0.1440 
 17 C       -5.6570     3.6370    -0.3410 C.ar  1 <1>  -0.1500 
 18 C       -5.3660     5.6070     1.1930 C.3   1 <1>  -0.0970 
 19 C       -6.1020     1.7210    -1.9100 C.3   1 <1>  -0.0970 
 20 H       -0.8770     3.7250     0.9690 H     1 <1>   0.0800 
 21 H       -1.3630     2.8230     2.3950 H     1 <1>   0.0800 
 22 H       -0.4090     2.2030    -1.2380 H     1 <1>   0.0800 
 23 H        1.1320     1.7370    -1.8590 H     1 <1>   0.0800 
 24 H        2.5230     0.6040    -0.6140 H     1 <1>   0.0800 
 25 H        2.5140     0.6140     1.1200 H     1 <1>   0.0800 
 26 H        0.2170     4.4370    -0.9940 H     1 <1>   0.0800 
 27 H        1.0390     3.9620    -2.4310 H     1 <1>   0.0800 
 28 H        4.4810     1.7550     0.2130 H     1 <1>   0.0800 
 29 H        3.5250     2.7960     1.2060 H     1 <1>   0.0800 
 30 H        2.1940     4.5440     0.2770 H     1 <1>   0.0800 
 31 H        2.6120     5.2210    -1.2580 H     1 <1>   0.0800 
 32 H        3.4800     2.8120    -1.8430 H     1 <1>   0.0800 
 33 H        4.4250     3.8720    -0.8500 H     1 <1>   0.0800 
 34 H       -3.0330     4.3270     1.6400 H     1 <1>   0.1500 
 35 H       -3.6270     1.0250    -0.9870 H     1 <1>   0.1500 
 36 H       -6.6210     4.0340    -0.6100 H     1 <1>   0.1500 
 37 H       -4.5460     6.1920     1.5690 H     1 <1>   0.0800 
 38 H       -6.0350     5.3860     2.0050 H     1 <1>   0.0800 
 39 H       -5.8910     6.1920     0.4590 H     1 <1>   0.0800 
 40 H       -5.5250     1.0190    -2.4840 H     1 <1>   0.0800 
 41 H       -6.5580     2.4210    -2.5860 H     1 <1>   0.0800 
 42 H       -6.8760     1.1870    -1.3870 H     1 <1>   0.0800 
@<TRIPOS>BOND
  1   1   2  2   
  2   2   3  am  
  3   2   4  1   
  4   3   5  1   
  5   3   6  1   
  6   4   7  1   
  7   4  20  1   
  8   4  21  1   
  9   5   8  1   
 10   5  22  1   
 11   5  23  1   
 12   6   9  1   
 13   6  24  1   
 14   6  25  1   
 15   7  10  1   
 16   8  11  1   
 17   8  26  1   
 18   8  27  1   
 19   9  12  1   
 20   9  28  1   
 21   9  29  1   
 22  10  13  ar  
 23  10  14  ar  
 24  11  12  1   
 25  11  30  1   
 26  11  31  1   
 27  12  32  1   
 28  12  33  1   
 29  13  15  ar  
 30  13  34  1   
 31  14  16  ar  
 32  14  35  1   
 33  15  17  ar  
 34  15  18  1   
 35  16  17  ar  
 36  16  19  1   
 37  17  36  1   
 38  18  37  1   
 39  18  38  1   
 40  18  39  1   
 41  19  40  1   
 42  19  41  1   
 43  19  42  1   
@<TRIPOS>SUBSTRUCTURE
  1 ****   7 GROUP 4 **** **** 0

# MOE 2024.06 (io_trps.svl 2023.06)
