@<TRIPOS>MOLECULE
9-(2,3-Dimethoxy-phenyl)-2,3,8,9-tetrahydro-6H-[1,4]dioxino[2,3-g]quinolin-7-one
44 47 1 0 0 
SMALL
USER_CHARGES


@<TRIPOS>ATOM
  1 O       -1.2520    -0.1620    -1.7660 O.2   1 <1>  -0.5700 
  2 C       -2.0630     0.6350    -1.3720 C.2   1 <1>   0.5690 
  3 N       -3.2250     0.2350    -0.8080 N.am  1 <1>  -0.5470 
  4 C       -1.8160     2.1160    -1.5250 C.3   1 <1>  -0.0990 
  5 C       -4.1630     1.0910    -0.2240 C.ar  1 <1>   0.1170 
  6 C       -2.4110     2.9100    -0.3530 C.3   1 <1>   0.2070 
  7 C       -3.8200     2.4220     0.0180 C.ar  1 <1>  -0.1440 
  8 C       -5.4190     0.6170     0.1260 C.ar  1 <1>  -0.1500 
  9 C       -2.3510     4.4030    -0.7020 C.ar  1 <1>  -0.1430 
 10 C       -4.7450     3.2610     0.6280 C.ar  1 <1>  -0.1500 
 11 C       -6.3370     1.4590     0.7230 C.ar  1 <1>   0.0830 
 12 C       -1.3850     5.2410    -0.1460 C.ar  1 <1>   0.0830 
 13 C       -3.2620     4.9350    -1.6070 C.ar  1 <1>  -0.1500 
 14 C       -6.0000     2.7910     0.9690 C.ar  1 <1>   0.0830 
 15 O       -7.5540     0.9660     1.0670 O.3   1 <1>  -0.3630 
 16 O       -0.4580     4.7060     0.6900 O.3   1 <1>  -0.3630 
 17 C       -1.3770     6.6050    -0.4620 C.ar  1 <1>   0.0830 
 18 C       -3.2290     6.2760    -1.9460 C.ar  1 <1>  -0.1500 
 19 O       -6.8880     3.6470     1.5420 O.3   1 <1>  -0.3630 
 20 C       -8.3340     1.7490     1.9520 C.3   1 <1>   0.1200 
 21 C        0.8760     4.7010     0.2310 C.3   1 <1>   0.0400 
 22 O       -0.5060     7.4830     0.0940 O.3   1 <1>  -0.3630 
 23 C       -2.2880     7.1100    -1.3730 C.ar  1 <1>  -0.1500 
 24 C       -8.2410     3.2330     1.5710 C.3   1 <1>   0.1200 
 25 C       -0.6690     7.7310     1.4730 C.3   1 <1>   0.0400 
 26 H       -3.3790    -0.7720    -0.7830 H     1 <1>   0.3700 
 27 H       -2.2680     2.4270    -2.4480 H     1 <1>   0.0800 
 28 H       -0.7600     2.2990    -1.5890 H     1 <1>   0.0800 
 29 H       -1.8030     2.7110     0.5120 H     1 <1>   0.0800 
 30 H       -5.6900    -0.4050    -0.0600 H     1 <1>   0.1500 
 31 H       -4.5050     4.2860     0.8480 H     1 <1>   0.1500 
 32 H       -4.0100     4.3020    -2.0550 H     1 <1>   0.1500 
 33 H       -3.9400     6.6720    -2.6520 H     1 <1>   0.1500 
 34 H       -7.9630     1.5950     2.9500 H     1 <1>   0.0800 
 35 H       -9.3490     1.4020     1.8940 H     1 <1>   0.0800 
 36 H        1.4680     4.1290     0.9220 H     1 <1>   0.0800 
 37 H        0.9070     4.2490    -0.7450 H     1 <1>   0.0800 
 38 H        1.2420     5.7110     0.1850 H     1 <1>   0.0800 
 39 H       -2.2580     8.1550    -1.6230 H     1 <1>   0.1500 
 40 H       -8.6610     3.3960     0.5940 H     1 <1>   0.0800 
 41 H       -8.7590     3.8450     2.2860 H     1 <1>   0.0800 
 42 H       -0.4410     6.8370     2.0250 H     1 <1>   0.0800 
 43 H        0.0050     8.5190     1.7550 H     1 <1>   0.0800 
 44 H       -1.6860     8.0310     1.6530 H     1 <1>   0.0800 
@<TRIPOS>BOND
  1   1   2  2   
  2   2   3  am  
  3   2   4  1   
  4   3   5  1   
  5   3  26  1   
  6   4   6  1   
  7   4  27  1   
  8   4  28  1   
  9   5   7  ar  
 10   5   8  ar  
 11   6   7  1   
 12   6   9  1   
 13   6  29  1   
 14   7  10  ar  
 15   8  11  ar  
 16   8  30  1   
 17   9  12  ar  
 18   9  13  ar  
 19  10  14  ar  
 20  10  31  1   
 21  11  14  ar  
 22  11  15  1   
 23  12  16  1   
 24  12  17  ar  
 25  13  18  ar  
 26  13  32  1   
 27  14  19  1   
 28  15  20  1   
 29  16  21  1   
 30  17  22  1   
 31  17  23  ar  
 32  18  23  ar  
 33  18  33  1   
 34  19  24  1   
 35  20  24  1   
 36  20  34  1   
 37  20  35  1   
 38  21  36  1   
 39  21  37  1   
 40  21  38  1   
 41  22  25  1   
 42  23  39  1   
 43  24  40  1   
 44  24  41  1   
 45  25  42  1   
 46  25  43  1   
 47  25  44  1   
@<TRIPOS>SUBSTRUCTURE
  1 ****   7 GROUP 4 **** **** 0

# MOE 2024.06 (io_trps.svl 2023.06)
