@<TRIPOS>MOLECULE
1-(2,5-Dimethoxy-benzenesulfonyl)-piperidine-3-carboxylic acid amide
42 43 1 0 0 
SMALL
USER_CHARGES


@<TRIPOS>ATOM
  1 S        0.4300     0.8460     0.7010 S.o2  1 <1>   1.4470 
  2 O        0.5260    -0.1970     1.7030 O.2   1 <1>  -0.6500 
  3 O        0.8810     2.1700     1.0760 O.2   1 <1>  -0.6500 
  4 N        1.3970     0.3650    -0.6090 N.am  1 <1>  -0.8490 
  5 C       -1.2390     1.0110     0.0060 C.ar  1 <1>  -0.0090 
  6 C        2.8450     0.5290    -0.3410 C.3   1 <1>   0.1960 
  7 C        1.0170    -0.9600    -1.1390 C.3   1 <1>   0.1960 
  8 C       -2.1070    -0.0720    -0.1220 C.ar  1 <1>   0.0820 
  9 C       -1.6840     2.2510    -0.4410 C.ar  1 <1>  -0.1500 
 10 C        3.5030    -0.7930     0.0740 C.3   1 <1>  -0.0190 
 11 C        2.1540    -1.5970    -1.9460 C.3   1 <1>  -0.1600 
 12 O       -1.7270    -1.3090     0.2610 O.3   1 <1>  -0.3630 
 13 C       -3.3720     0.0800    -0.6720 C.ar  1 <1>  -0.1500 
 14 C       -2.9530     2.4160    -0.9880 C.ar  1 <1>   0.0820 
 15 C        4.9400    -0.5470     0.5030 C.2   1 <1>   0.5690 
 16 C        3.4030    -1.8250    -1.0730 C.3   1 <1>  -0.1600 
 17 C       -2.2600    -1.7780     1.4800 C.3   1 <1>   0.0400 
 18 C       -3.7930     1.3230    -1.1000 C.ar  1 <1>  -0.1500 
 19 O       -3.4360     3.6050    -1.4310 O.3   1 <1>  -0.3630 
 20 O        5.7120    -0.0060    -0.2450 O.2   1 <1>  -0.5700 
 21 N        5.3470    -0.9300     1.7260 N.am  1 <1>  -0.8000 
 22 C       -2.6640     4.7840    -1.3500 C.3   1 <1>   0.0400 
 23 H        3.0170     1.2750     0.4160 H     1 <1>   0.0800 
 24 H        3.3220     0.8820    -1.2400 H     1 <1>   0.0800 
 25 H        0.1440    -0.8550    -1.7610 H     1 <1>   0.0800 
 26 H        0.7700    -1.6270    -0.3300 H     1 <1>   0.0800 
 27 H       -1.0160     3.0880    -0.3530 H     1 <1>   0.1500 
 28 H        2.9650    -1.1660     0.9270 H     1 <1>   0.0800 
 29 H        2.3930    -0.9450    -2.7690 H     1 <1>   0.0800 
 30 H        1.8250    -2.5340    -2.3590 H     1 <1>   0.0800 
 31 H       -4.0190    -0.7730    -0.7690 H     1 <1>   0.1500 
 32 H        3.3780    -2.8130    -0.6470 H     1 <1>   0.0800 
 33 H        4.2740    -1.7650    -1.7040 H     1 <1>   0.0800 
 34 H       -1.9850    -1.0950     2.2660 H     1 <1>   0.0800 
 35 H       -1.8410    -2.7480     1.6790 H     1 <1>   0.0800 
 36 H       -3.3300    -1.8460     1.3970 H     1 <1>   0.0800 
 37 H       -4.7720     1.4550    -1.5260 H     1 <1>   0.1500 
 38 H        6.3110    -0.7500     2.0090 H     1 <1>   0.3700 
 39 H        4.7400    -1.3610     2.4230 H     1 <1>   0.3700 
 40 H       -3.2490     5.5930    -1.7490 H     1 <1>   0.0800 
 41 H       -1.7700     4.6580    -1.9340 H     1 <1>   0.0800 
 42 H       -2.4280     4.9780    -0.3190 H     1 <1>   0.0800 
@<TRIPOS>BOND
  1   1   2  2   
  2   1   3  2   
  3   1   4  am  
  4   1   5  1   
  5   4   6  1   
  6   4   7  1   
  7   5   8  ar  
  8   5   9  ar  
  9   6  10  1   
 10   6  23  1   
 11   6  24  1   
 12   7  11  1   
 13   7  25  1   
 14   7  26  1   
 15   8  12  1   
 16   8  13  ar  
 17   9  14  ar  
 18   9  27  1   
 19  10  15  1   
 20  10  16  1   
 21  10  28  1   
 22  11  16  1   
 23  11  29  1   
 24  11  30  1   
 25  12  17  1   
 26  13  18  ar  
 27  13  31  1   
 28  14  18  ar  
 29  14  19  1   
 30  15  20  2   
 31  15  21  am  
 32  16  32  1   
 33  16  33  1   
 34  17  34  1   
 35  17  35  1   
 36  17  36  1   
 37  18  37  1   
 38  19  22  1   
 39  21  38  1   
 40  21  39  1   
 41  22  40  1   
 42  22  41  1   
 43  22  42  1   
@<TRIPOS>SUBSTRUCTURE
  1 ****   1 GROUP 4 **** **** 0

# MOE 2024.06 (io_trps.svl 2023.06)
