@<TRIPOS>MOLECULE
2-[4-(4-Chloro-benzenesulfonyl)-piperazin-1-yl]-N-(4-methoxy-phenyl)-acetamide
50 52 1 0 0 
SMALL
USER_CHARGES


@<TRIPOS>ATOM
  1 CL      -1.7580    -1.2590    -3.1370 Cl    1 <1>  -0.1770 
  2 C       -2.9170    -0.8530    -1.8990 C.ar  1 <1>   0.1770 
  3 C       -3.0930    -1.7060    -0.8270 C.ar  1 <1>  -0.1500 
  4 C       -3.6440     0.3150    -2.0050 C.ar  1 <1>  -0.1500 
  5 C       -4.0170    -1.3790     0.1530 C.ar  1 <1>  -0.1500 
  6 C       -4.5650     0.6300    -1.0190 C.ar  1 <1>  -0.1500 
  7 C       -4.7700    -0.2090     0.0730 C.ar  1 <1>  -0.0090 
  8 S       -5.9900     0.2150     1.3490 S.o2  1 <1>   1.4470 
  9 O       -6.1970    -0.9100     2.2360 O.2   1 <1>  -0.6500 
 10 O       -5.6660     1.5100     1.9040 O.2   1 <1>  -0.6500 
 11 N       -7.4180     0.4050     0.4590 N.am  1 <1>  -0.8490 
 12 C       -8.4490     1.0980     1.2500 C.3   1 <1>   0.1960 
 13 C       -7.9510    -0.8790    -0.0300 C.3   1 <1>   0.1960 
 14 C       -9.7470     1.2970     0.4430 C.3   1 <1>   0.1100 
 15 C       -9.2390    -0.6770    -0.8490 C.3   1 <1>   0.1100 
 16 N      -10.2820     0.0120    -0.0540 N.3   1 <1>  -0.8100 
 17 C      -11.5200     0.2250    -0.8640 C.3   1 <1>   0.1710 
 18 C      -12.3250    -1.0540    -1.1030 C.2   1 <1>   0.5690 
 19 O      -13.0320    -1.1290    -2.0790 O.2   1 <1>  -0.5700 
 20 N      -12.1710    -2.0440    -0.1750 N.am  1 <1>  -0.5470 
 21 C      -12.6950    -3.3400    -0.0500 C.ar  1 <1>   0.1170 
 22 C      -13.7110    -3.8360    -0.8620 C.ar  1 <1>  -0.1500 
 23 C      -12.1750    -4.1700     0.9370 C.ar  1 <1>  -0.1500 
 24 C      -14.1900    -5.1240    -0.6990 C.ar  1 <1>  -0.1500 
 25 C      -12.6500    -5.4580     1.1050 C.ar  1 <1>  -0.1500 
 26 C      -13.6580    -5.9460     0.2900 C.ar  1 <1>   0.0830 
 27 O      -14.0660    -7.2220     0.5190 O.3   1 <1>  -0.3620 
 28 C      -15.0810    -7.8090    -0.2650 C.3   1 <1>   0.0400 
 29 H       -2.5140    -2.6100    -0.7620 H     1 <1>   0.1500 
 30 H       -3.4890     0.9670    -2.8470 H     1 <1>   0.1500 
 31 H       -4.1540    -2.0410     0.9930 H     1 <1>   0.1500 
 32 H       -5.1360     1.5410    -1.0940 H     1 <1>   0.1500 
 33 H       -8.0820     2.0650     1.5510 H     1 <1>   0.0800 
 34 H       -8.6680     0.5350     2.1420 H     1 <1>   0.0800 
 35 H       -8.1680    -1.5330     0.7990 H     1 <1>   0.0800 
 36 H       -7.2160    -1.3610    -0.6520 H     1 <1>   0.0800 
 37 H       -9.5430     1.9570    -0.3840 H     1 <1>   0.0800 
 38 H      -10.4780     1.7680     1.0760 H     1 <1>   0.0800 
 39 H       -9.5990    -1.6400    -1.1690 H     1 <1>   0.0800 
 40 H       -9.0040    -0.1020    -1.7290 H     1 <1>   0.0800 
 41 H      -11.2690     0.6620    -1.8150 H     1 <1>   0.0800 
 42 H      -12.1680     0.9110    -0.3480 H     1 <1>   0.0800 
 43 H      -11.4740    -1.7770     0.5260 H     1 <1>   0.3700 
 44 H      -14.1360    -3.2180    -1.6300 H     1 <1>   0.1500 
 45 H      -11.3930    -3.8100     1.5790 H     1 <1>   0.1500 
 46 H      -14.9730    -5.4650    -1.3490 H     1 <1>   0.1500 
 47 H      -12.2440    -6.0950     1.8690 H     1 <1>   0.1500 
 48 H      -15.2360    -8.8130     0.0860 H     1 <1>   0.0800 
 49 H      -14.7620    -7.8260    -1.2920 H     1 <1>   0.0800 
 50 H      -15.9850    -7.2370    -0.1510 H     1 <1>   0.0800 
@<TRIPOS>BOND
  1   1   2  1   
  2   2   3  ar  
  3   2   4  ar  
  4   3   5  ar  
  5   3  29  1   
  6   4   6  ar  
  7   4  30  1   
  8   5   7  ar  
  9   5  31  1   
 10   6   7  ar  
 11   6  32  1   
 12   7   8  1   
 13   8   9  2   
 14   8  10  2   
 15   8  11  am  
 16  11  12  1   
 17  11  13  1   
 18  12  14  1   
 19  12  33  1   
 20  12  34  1   
 21  13  15  1   
 22  13  35  1   
 23  13  36  1   
 24  14  16  1   
 25  14  37  1   
 26  14  38  1   
 27  15  16  1   
 28  15  39  1   
 29  15  40  1   
 30  16  17  1   
 31  17  18  1   
 32  17  41  1   
 33  17  42  1   
 34  18  19  2   
 35  18  20  am  
 36  20  21  1   
 37  20  43  1   
 38  21  22  ar  
 39  21  23  ar  
 40  22  24  ar  
 41  22  44  1   
 42  23  25  ar  
 43  23  45  1   
 44  24  26  ar  
 45  24  46  1   
 46  25  26  ar  
 47  25  47  1   
 48  26  27  1   
 49  27  28  1   
 50  28  48  1   
 51  28  49  1   
 52  28  50  1   
@<TRIPOS>SUBSTRUCTURE
  1 ****  15 GROUP 4 **** **** 0

# MOE 2024.06 (io_trps.svl 2023.06)
