@<TRIPOS>MOLECULE
N-{2-[5-(Cyclohexanecarbonyl-amino)-1-methyl-1H-benzoimidazol-2-yl]-ethyl}-benza
58 61 1 0 0 
SMALL
USER_CHARGES


@<TRIPOS>ATOM
  1 O       -0.7830     1.0270     0.1950 O.2   1 <1>  -0.5700 
  2 C        0.0550     1.7520    -0.3090 C.2   1 <1>   0.5440 
  3 N       -0.3700     2.8880    -0.9420 N.am  1 <1>  -0.7300 
  4 C        1.4680     1.4170    -0.2460 C.ar  1 <1>   0.0860 
  5 C       -1.7940     3.2680    -1.1040 C.3   1 <1>   0.1400 
  6 C        2.4620     2.3990    -0.2530 C.ar  1 <1>  -0.1500 
  7 C        1.8840     0.0870    -0.1730 C.ar  1 <1>  -0.1500 
  8 C       -2.3070     3.9590     0.1610 C.3   1 <1>   0.0200 
  9 C        3.8050     2.0670    -0.2050 C.ar  1 <1>  -0.1500 
 10 C        3.2240    -0.2510    -0.1240 C.ar  1 <1>  -0.1500 
 11 C       -3.8190     3.8560     0.2290 C.2   1 <1>   0.0060 
 12 C        4.1880     0.7400    -0.1420 C.ar  1 <1>  -0.1500 
 13 N       -4.6040     4.8220    -0.0960 N.2   1 <1>  -0.5650 
 14 N       -4.4620     2.7210     0.6300 N.pl3 1 <1>   0.0480 
 15 C       -5.8530     4.3170     0.0930 C.ar  1 <1>   0.2270 
 16 C       -5.7890     3.0110     0.5370 C.ar  1 <1>  -0.1520 
 17 C       -3.8790     1.4290     1.0490 C.3   1 <1>   0.0160 
 18 C       -7.0860     4.9320    -0.1050 C.ar  1 <1>  -0.1500 
 19 C       -6.9560     2.2860     0.7860 C.ar  1 <1>  -0.1500 
 20 C       -8.2530     4.2350     0.1410 C.ar  1 <1>   0.1170 
 21 C       -8.1700     2.9020     0.5840 C.ar  1 <1>  -0.1500 
 22 N       -9.4830     4.8840    -0.0810 N.am  1 <1>  -0.5470 
 23 C      -10.7410     4.6320     0.3940 C.2   1 <1>   0.5690 
 24 O      -10.9980     3.7350     1.1610 O.2   1 <1>  -0.5700 
 25 C      -11.8680     5.5560    -0.0720 C.3   1 <1>  -0.0190 
 26 C      -12.4240     6.3900     1.0980 C.3   1 <1>  -0.1600 
 27 C      -13.0000     4.7670    -0.7600 C.3   1 <1>  -0.1600 
 28 C      -13.5600     7.3170     0.6410 C.3   1 <1>  -0.1600 
 29 C      -14.1350     5.6930    -1.2190 C.3   1 <1>  -0.1600 
 30 C      -14.6780     6.5240    -0.0490 C.3   1 <1>  -0.1600 
 31 H        0.3070     3.4630    -1.4460 H     1 <1>   0.3700 
 32 H       -2.3690     2.3760    -1.2880 H     1 <1>   0.0800 
 33 H       -1.9140     3.9180    -1.9530 H     1 <1>   0.0800 
 34 H        2.1850     3.4370    -0.2890 H     1 <1>   0.1500 
 35 H        1.1400    -0.6910    -0.1560 H     1 <1>   0.1500 
 36 H       -2.0200     4.9950     0.1440 H     1 <1>   0.0800 
 37 H       -1.8840     3.5060     1.0380 H     1 <1>   0.0800 
 38 H        4.5540     2.8400    -0.2130 H     1 <1>   0.1500 
 39 H        3.5180    -1.2860    -0.0710 H     1 <1>   0.1500 
 40 H        5.2320     0.4790    -0.1040 H     1 <1>   0.1500 
 41 H       -3.5950     0.8660     0.1780 H     1 <1>   0.0800 
 42 H       -4.6000     0.8720     1.6170 H     1 <1>   0.0800 
 43 H       -3.0110     1.6000     1.6580 H     1 <1>   0.0800 
 44 H       -7.0900     5.9480    -0.4450 H     1 <1>   0.1500 
 45 H       -6.9040     1.2680     1.1270 H     1 <1>   0.1500 
 46 H       -9.0730     2.3500     0.7670 H     1 <1>   0.1500 
 47 H       -9.4080     5.7170    -0.6600 H     1 <1>   0.3700 
 48 H      -11.4630     6.2390    -0.7970 H     1 <1>   0.0800 
 49 H      -11.6340     6.9770     1.5330 H     1 <1>   0.0800 
 50 H      -12.7940     5.7260     1.8610 H     1 <1>   0.0800 
 51 H      -13.3940     4.0390    -0.0700 H     1 <1>   0.0800 
 52 H      -12.6050     4.2330    -1.6070 H     1 <1>   0.0800 
 53 H      -13.1710     8.0530    -0.0420 H     1 <1>   0.0800 
 54 H      -13.9630     7.8390     1.4920 H     1 <1>   0.0800 
 55 H      -14.9310     5.1040    -1.6400 H     1 <1>   0.0800 
 56 H      -13.7710     6.3540    -1.9870 H     1 <1>   0.0800 
 57 H      -15.4330     7.2020    -0.4070 H     1 <1>   0.0800 
 58 H      -15.1400     5.8660     0.6680 H     1 <1>   0.0800 
@<TRIPOS>BOND
  1   1   2  2   
  2   2   3  am  
  3   2   4  1   
  4   3   5  1   
  5   3  31  1   
  6   4   6  ar  
  7   4   7  ar  
  8   5   8  1   
  9   5  32  1   
 10   5  33  1   
 11   6   9  ar  
 12   6  34  1   
 13   7  10  ar  
 14   7  35  1   
 15   8  11  1   
 16   8  36  1   
 17   8  37  1   
 18   9  12  ar  
 19   9  38  1   
 20  10  12  ar  
 21  10  39  1   
 22  11  13  2   
 23  11  14  1   
 24  12  40  1   
 25  13  15  1   
 26  14  16  1   
 27  14  17  1   
 28  15  16  ar  
 29  15  18  ar  
 30  16  19  ar  
 31  17  41  1   
 32  17  42  1   
 33  17  43  1   
 34  18  20  ar  
 35  18  44  1   
 36  19  21  ar  
 37  19  45  1   
 38  20  21  ar  
 39  20  22  1   
 40  21  46  1   
 41  22  23  am  
 42  22  47  1   
 43  23  24  2   
 44  23  25  1   
 45  25  26  1   
 46  25  27  1   
 47  25  48  1   
 48  26  28  1   
 49  26  49  1   
 50  26  50  1   
 51  27  29  1   
 52  27  51  1   
 53  27  52  1   
 54  28  30  1   
 55  28  53  1   
 56  28  54  1   
 57  29  30  1   
 58  29  55  1   
 59  29  56  1   
 60  30  57  1   
 61  30  58  1   
@<TRIPOS>SUBSTRUCTURE
  1 ****  16 GROUP 4 **** **** 0

# MOE 2024.06 (io_trps.svl 2023.06)
