@<TRIPOS>MOLECULE
3-(4-Chloro-3,5-dimethyl-pyrazol-1-yl)-1-[4-(toluene-4-sulfonyl)-piperazin-1-yl]
56 58 1 0 0 
SMALL
USER_CHARGES


@<TRIPOS>ATOM
  1 CL       0.1850    -0.7500    -0.2780 Cl    1 <1>  -0.1230 
  2 C        1.8460    -1.1430     0.1440 C.2   1 <1>   0.1230 
  3 C        2.2540    -2.1920     0.9560 C.2   1 <1>   0.1080 
  4 C        2.9620    -0.4970    -0.2450 C.2   1 <1>  -0.3320 
  5 N        3.5460    -2.2130     1.0770 N.2   1 <1>  -0.7070 
  6 C        1.3560    -3.2000     1.6370 C.3   1 <1>  -0.0590 
  7 N        3.9910    -1.1650     0.3360 N.pl3 1 <1>   0.3140 
  8 C        3.0950     0.7280    -1.1380 C.3   1 <1>  -0.0600 
  9 C        5.4420    -0.8370     0.2260 C.3   1 <1>   0.1760 
 10 C        6.2650    -2.1280     0.0640 C.3   1 <1>  -0.0990 
 11 C        5.8810    -0.0210     1.4540 C.3   1 <1>  -0.2400 
 12 C        7.7070    -1.8790    -0.3370 C.2   1 <1>   0.5690 
 13 O        7.9720    -0.8350    -0.8860 O.2   1 <1>  -0.5700 
 14 N        8.6720    -2.8230    -0.0960 N.am  1 <1>  -0.6600 
 15 C        8.4300    -4.2200     0.3850 C.3   1 <1>   0.1400 
 16 C       10.1170    -2.5460    -0.3750 C.3   1 <1>   0.1400 
 17 C        9.0990    -5.2480    -0.5450 C.3   1 <1>   0.1960 
 18 C       10.7310    -3.6300    -1.2770 C.3   1 <1>   0.1960 
 19 N       10.5380    -4.9790    -0.7170 N.am  1 <1>  -0.8490 
 20 S       11.2990    -6.1510    -1.6770 S.o2  1 <1>   1.4470 
 21 O       10.4470    -6.3470    -2.8310 O.2   1 <1>  -0.6500 
 22 O       12.6640    -5.7110    -1.8650 O.2   1 <1>  -0.6500 
 23 C       11.2750    -7.6230    -0.6160 C.ar  1 <1>  -0.0090 
 24 C       11.9220    -7.6240     0.6140 C.ar  1 <1>  -0.1500 
 25 C       10.5980    -8.7770    -0.9940 C.ar  1 <1>  -0.1500 
 26 C       11.8920    -8.7340     1.4410 C.ar  1 <1>  -0.1500 
 27 C       10.5630    -9.8900    -0.1720 C.ar  1 <1>  -0.1500 
 28 C       11.2090    -9.8730     1.0530 C.ar  1 <1>  -0.1440 
 29 C       11.1760   -11.0930     1.9560 C.3   1 <1>  -0.0970 
 30 H        0.3750    -3.1890     1.2010 H     1 <1>   0.0800 
 31 H        1.2820    -2.9640     2.6820 H     1 <1>   0.0800 
 32 H        1.7750    -4.1840     1.5300 H     1 <1>   0.0800 
 33 H        2.1240     1.0730    -1.4460 H     1 <1>   0.0800 
 34 H        3.6650     0.4880    -2.0180 H     1 <1>   0.0800 
 35 H        3.5860     1.5250    -0.6070 H     1 <1>   0.0800 
 36 H        5.5710    -0.2360    -0.6560 H     1 <1>   0.0800 
 37 H        5.8160    -2.7390    -0.6980 H     1 <1>   0.0800 
 38 H        6.2390    -2.6610     0.9960 H     1 <1>   0.0800 
 39 H        5.7550    -0.6000     2.3530 H     1 <1>   0.0800 
 40 H        5.2930     0.8760     1.5300 H     1 <1>   0.0800 
 41 H        6.9150     0.2620     1.3680 H     1 <1>   0.0800 
 42 H        7.3790    -4.4390     0.4290 H     1 <1>   0.0800 
 43 H        8.8350    -4.3260     1.3760 H     1 <1>   0.0800 
 44 H       10.6550    -2.5190     0.5560 H     1 <1>   0.0800 
 45 H       10.2370    -1.5890    -0.8500 H     1 <1>   0.0800 
 46 H        8.6020    -5.2270    -1.5010 H     1 <1>   0.0800 
 47 H        8.9630    -6.2290    -0.1230 H     1 <1>   0.0800 
 48 H       11.7840    -3.4280    -1.3780 H     1 <1>   0.0800 
 49 H       10.2870    -3.5700    -2.2570 H     1 <1>   0.0800 
 50 H       12.4570    -6.7430     0.9260 H     1 <1>   0.1500 
 51 H       10.0920    -8.8070    -1.9440 H     1 <1>   0.1500 
 52 H       12.4050    -8.7070     2.3870 H     1 <1>   0.1500 
 53 H       10.0330   -10.7710    -0.4910 H     1 <1>   0.1500 
 54 H       11.2080   -10.7970     2.9890 H     1 <1>   0.0800 
 55 H       12.0240   -11.7210     1.7490 H     1 <1>   0.0800 
 56 H       10.2770   -11.6590     1.7940 H     1 <1>   0.0800 
@<TRIPOS>BOND
  1   1   2  1   
  2   2   3  1   
  3   2   4  2   
  4   3   5  2   
  5   3   6  1   
  6   4   7  1   
  7   4   8  1   
  8   5   7  1   
  9   6  30  1   
 10   6  31  1   
 11   6  32  1   
 12   7   9  1   
 13   8  33  1   
 14   8  34  1   
 15   8  35  1   
 16   9  10  1   
 17   9  11  1   
 18   9  36  1   
 19  10  12  1   
 20  10  37  1   
 21  10  38  1   
 22  11  39  1   
 23  11  40  1   
 24  11  41  1   
 25  12  13  2   
 26  12  14  am  
 27  14  15  1   
 28  14  16  1   
 29  15  17  1   
 30  15  42  1   
 31  15  43  1   
 32  16  18  1   
 33  16  44  1   
 34  16  45  1   
 35  17  19  1   
 36  17  46  1   
 37  17  47  1   
 38  18  19  1   
 39  18  48  1   
 40  18  49  1   
 41  19  20  am  
 42  20  21  2   
 43  20  22  2   
 44  20  23  1   
 45  23  24  ar  
 46  23  25  ar  
 47  24  26  ar  
 48  24  50  1   
 49  25  27  ar  
 50  25  51  1   
 51  26  28  ar  
 52  26  52  1   
 53  27  28  ar  
 54  27  53  1   
 55  28  29  1   
 56  29  54  1   
 57  29  55  1   
 58  29  56  1   
@<TRIPOS>SUBSTRUCTURE
  1 ****  15 GROUP 4 **** **** 0

# MOE 2024.06 (io_trps.svl 2023.06)
