@<TRIPOS>MOLECULE
1-(4-Ethoxy-benzenesulfonyl)-piperidine-3-carboxylic acid (pyridin-2-ylmethyl)-a
53 55 1 0 0 
SMALL
USER_CHARGES


@<TRIPOS>ATOM
  1 S        0.0520    -1.2120     1.7870 S.o2  1 <1>   1.4470 
  2 O       -0.7200    -2.2800     2.3860 O.2   1 <1>  -0.6500 
  3 O        1.1940    -0.6800     2.5000 O.2   1 <1>  -0.6500 
  4 N        0.6400    -1.8040     0.3110 N.am  1 <1>  -0.8490 
  5 C       -1.0640     0.1270     1.2830 C.ar  1 <1>  -0.0090 
  6 C        1.5390    -0.8560    -0.3870 C.3   1 <1>   0.1960 
  7 C        1.1680    -3.1710     0.4570 C.3   1 <1>   0.1960 
  8 C       -0.9240     1.4140     1.7890 C.ar  1 <1>  -0.1500 
  9 C       -2.0890    -0.1040     0.3710 C.ar  1 <1>  -0.1500 
 10 C        3.0190    -1.2210    -0.2130 C.3   1 <1>  -0.0190 
 11 C        2.0800    -3.5490    -0.7160 C.3   1 <1>  -0.1600 
 12 C       -1.7730     2.4340     1.3970 C.ar  1 <1>  -0.1500 
 13 C       -2.9440     0.9100    -0.0280 C.ar  1 <1>  -0.1500 
 14 C        3.9080    -0.1560    -0.8330 C.2   1 <1>   0.5690 
 15 C        3.3050    -2.6190    -0.8070 C.3   1 <1>  -0.1600 
 16 C       -2.7870     2.1930     0.4870 C.ar  1 <1>   0.0830 
 17 O        3.5930     0.3520    -1.8830 O.2   1 <1>  -0.5700 
 18 N        5.0470     0.1900    -0.1930 N.am  1 <1>  -0.7300 
 19 O       -3.5740     3.2440     0.1530 O.3   1 <1>  -0.3630 
 20 C        6.0790     1.1120    -0.7130 C.3   1 <1>   0.2840 
 21 C       -4.6360     3.1080    -0.7610 C.3   1 <1>   0.1200 
 22 C        7.4570     0.4900    -0.5190 C.ar  1 <1>   0.1660 
 23 C       -5.3100     4.4690    -0.9090 C.3   1 <1>  -0.2400 
 24 N        7.8030     0.1830     0.7270 N.ar  1 <1>  -0.6200 
 25 C        8.2670     0.2670    -1.6240 C.ar  1 <1>  -0.1500 
 26 C        9.0020    -0.3580     0.8720 C.ar  1 <1>   0.1600 
 27 C        9.5130    -0.2990    -1.4550 C.ar  1 <1>  -0.1500 
 28 C        9.8810    -0.6160    -0.1660 C.ar  1 <1>  -0.1500 
 29 H        1.3690     0.1520    -0.0450 H     1 <1>   0.0800 
 30 H        1.3030    -0.8760    -1.4380 H     1 <1>   0.0800 
 31 H        0.3430    -3.8620     0.5200 H     1 <1>   0.0800 
 32 H        1.7330    -3.2480     1.3730 H     1 <1>   0.0800 
 33 H       -0.1400     1.6220     2.4980 H     1 <1>   0.1500 
 34 H       -2.2150    -1.0960    -0.0300 H     1 <1>   0.1500 
 35 H        3.2240    -1.2390     0.8430 H     1 <1>   0.0800 
 36 H        1.5050    -3.4880    -1.6240 H     1 <1>   0.0800 
 37 H        2.4060    -4.5680    -0.6080 H     1 <1>   0.0800 
 38 H       -1.6540     3.4260     1.7940 H     1 <1>   0.1500 
 39 H       -3.7190     0.6820    -0.7350 H     1 <1>   0.1500 
 40 H        4.1370    -3.0530    -0.2800 H     1 <1>   0.0800 
 41 H        3.5870    -2.5270    -1.8430 H     1 <1>   0.0800 
 42 H        5.3490    -0.2840     0.6640 H     1 <1>   0.3700 
 43 H        6.0310     2.0370    -0.1670 H     1 <1>   0.0800 
 44 H        5.8990     1.3200    -1.7540 H     1 <1>   0.0800 
 45 H       -5.3290     2.3810    -0.3740 H     1 <1>   0.0800 
 46 H       -4.2350     2.7790    -1.7040 H     1 <1>   0.0800 
 47 H       -5.6940     4.7970     0.0410 H     1 <1>   0.0800 
 48 H       -6.1280     4.3980    -1.6020 H     1 <1>   0.0800 
 49 H       -4.6060     5.1920    -1.2800 H     1 <1>   0.0800 
 50 H        7.9270     0.5290    -2.6090 H     1 <1>   0.1500 
 51 H        9.3020    -0.6110     1.8750 H     1 <1>   0.1500 
 52 H       10.1660    -0.4850    -2.2910 H     1 <1>   0.1500 
 53 H       10.8390    -1.0590     0.0360 H     1 <1>   0.1500 
@<TRIPOS>BOND
  1   1   2  2   
  2   1   3  2   
  3   1   4  am  
  4   1   5  1   
  5   4   6  1   
  6   4   7  1   
  7   5   8  ar  
  8   5   9  ar  
  9   6  10  1   
 10   6  29  1   
 11   6  30  1   
 12   7  11  1   
 13   7  31  1   
 14   7  32  1   
 15   8  12  ar  
 16   8  33  1   
 17   9  13  ar  
 18   9  34  1   
 19  10  14  1   
 20  10  15  1   
 21  10  35  1   
 22  11  15  1   
 23  11  36  1   
 24  11  37  1   
 25  12  16  ar  
 26  12  38  1   
 27  13  16  ar  
 28  13  39  1   
 29  14  17  2   
 30  14  18  am  
 31  15  40  1   
 32  15  41  1   
 33  16  19  1   
 34  18  20  1   
 35  18  42  1   
 36  19  21  1   
 37  20  22  1   
 38  20  43  1   
 39  20  44  1   
 40  21  23  1   
 41  21  45  1   
 42  21  46  1   
 43  22  24  ar  
 44  22  25  ar  
 45  23  47  1   
 46  23  48  1   
 47  23  49  1   
 48  24  26  ar  
 49  25  27  ar  
 50  25  50  1   
 51  26  28  ar  
 52  26  51  1   
 53  27  28  ar  
 54  27  52  1   
 55  28  53  1   
@<TRIPOS>SUBSTRUCTURE
  1 ****   6 GROUP 4 **** **** 0

# MOE 2024.06 (io_trps.svl 2023.06)
