@<TRIPOS>MOLECULE
2-Methyl-1-(morpholine-4-sulfonyl)-1H-benzoimidazole
34 36 1 0 0 
SMALL
USER_CHARGES


@<TRIPOS>ATOM
  1 S        0.2050    -0.1810    -1.3910 S.o2  1 <1>   1.4240 
  2 O        0.2370    -1.4740    -2.0420 O.2   1 <1>  -0.6500 
  3 O       -0.0890     0.9870    -2.1940 O.2   1 <1>  -0.6500 
  4 N       -1.0170    -0.2690    -0.2130 N.am  1 <1>  -0.8490 
  5 N        1.6920     0.0450    -0.4560 N.pl3 1 <1>   0.3170 
  6 C       -2.2830    -0.7440    -0.7960 C.3   1 <1>   0.1960 
  7 C       -1.2510     1.0220     0.4610 C.3   1 <1>   0.1960 
  8 C        2.3450     1.2230    -0.1940 C.ar  1 <1>  -0.1520 
  9 C        2.2610    -0.8550     0.4080 C.2   1 <1>   0.0060 
 10 C       -3.3950    -0.8100     0.2660 C.3   1 <1>   0.1200 
 11 C       -2.3820     0.9040     1.4990 C.3   1 <1>   0.1200 
 12 C        3.2610     0.9370     0.7990 C.ar  1 <1>   0.2270 
 13 C        2.2390     2.5200    -0.7110 C.ar  1 <1>  -0.1500 
 14 N        3.1870    -0.3700     1.1560 N.2   1 <1>  -0.5650 
 15 C        1.8330    -2.3100     0.4930 C.3   1 <1>  -0.0600 
 16 O       -3.5510     0.4300     0.8950 O.3   1 <1>  -0.5600 
 17 C        4.0910     1.9350     1.3020 C.ar  1 <1>  -0.1500 
 18 C        3.0620     3.5030    -0.2080 C.ar  1 <1>  -0.1500 
 19 C        3.9890     3.2130     0.7990 C.ar  1 <1>  -0.1500 
 20 H       -2.1430    -1.7280    -1.2130 H     1 <1>   0.0800 
 21 H       -2.5940    -0.0880    -1.5930 H     1 <1>   0.0800 
 22 H       -1.5220     1.7780    -0.2580 H     1 <1>   0.0800 
 23 H       -0.3540     1.3420     0.9620 H     1 <1>   0.0800 
 24 H       -3.1600    -1.5480     1.0130 H     1 <1>   0.0800 
 25 H       -4.3340    -1.0660    -0.1930 H     1 <1>   0.0800 
 26 H       -2.5990     1.8670     1.9250 H     1 <1>   0.0800 
 27 H       -2.1020     0.2290     2.2890 H     1 <1>   0.0800 
 28 H        1.5330     2.7520    -1.4910 H     1 <1>   0.1500 
 29 H        0.7930    -2.3820     0.7560 H     1 <1>   0.0800 
 30 H        2.4100    -2.8170     1.2460 H     1 <1>   0.0800 
 31 H        1.9960    -2.8030    -0.4490 H     1 <1>   0.0800 
 32 H        4.7940     1.6820     2.0750 H     1 <1>   0.1500 
 33 H        3.0010     4.5090    -0.5900 H     1 <1>   0.1500 
 34 H        4.6230     3.9980     1.1750 H     1 <1>   0.1500 
@<TRIPOS>BOND
  1   1   2  2   
  2   1   3  2   
  3   1   4  am  
  4   1   5  1   
  5   4   6  1   
  6   4   7  1   
  7   5   8  1   
  8   5   9  1   
  9   6  10  1   
 10   6  20  1   
 11   6  21  1   
 12   7  11  1   
 13   7  22  1   
 14   7  23  1   
 15   8  12  ar  
 16   8  13  ar  
 17   9  14  2   
 18   9  15  1   
 19  10  16  1   
 20  10  24  1   
 21  10  25  1   
 22  11  16  1   
 23  11  26  1   
 24  11  27  1   
 25  12  14  1   
 26  12  17  ar  
 27  13  18  ar  
 28  13  28  1   
 29  15  29  1   
 30  15  30  1   
 31  15  31  1   
 32  17  19  ar  
 33  17  32  1   
 34  18  19  ar  
 35  18  33  1   
 36  19  34  1   
@<TRIPOS>SUBSTRUCTURE
  1 ****   5 GROUP 4 **** **** 0

# MOE 2024.06 (io_trps.svl 2023.06)
