@<TRIPOS>MOLECULE
N-Methyl-4-(3-m-tolyl-[1,2,4]oxadiazol-5-yl)-butyramide
36 37 1 0 0 
SMALL
USER_CHARGES


@<TRIPOS>ATOM
  1 O       -1.2470    -0.4770    -1.4420 O.2   1 <1>  -0.5700 
  2 C       -1.3680    -1.5420    -0.8920 C.2   1 <1>   0.5690 
  3 N       -0.5380    -2.5580    -1.2290 N.am  1 <1>  -0.7300 
  4 C       -2.4360    -1.7370     0.1760 C.3   1 <1>  -0.0990 
  5 C       -0.4580    -3.9370    -0.6830 C.3   1 <1>   0.0600 
  6 C       -3.4900    -0.6100     0.2260 C.3   1 <1>  -0.1600 
  7 C       -4.4960    -0.7610     1.3800 C.3   1 <1>   0.0200 
  8 C       -5.2800    -2.0600     1.3230 C.2   1 <1>   0.2980 
  9 O       -4.7620    -3.1330     1.8610 O.3   1 <1>  -0.0190 
 10 N       -6.4200    -2.2130     0.7910 N.2   1 <1>  -0.5650 
 11 N       -5.6470    -4.0530     1.6440 N.2   1 <1>  -0.4100 
 12 C       -6.6310    -3.5150     1.0130 C.2   1 <1>   0.4620 
 13 C       -7.8360    -4.2030     0.5780 C.ar  1 <1>   0.0540 
 14 C       -8.8410    -3.5460    -0.1360 C.ar  1 <1>  -0.1500 
 15 C       -8.0380    -5.5560     0.8570 C.ar  1 <1>  -0.1500 
 16 C       -9.9890    -4.1970    -0.5550 C.ar  1 <1>  -0.1430 
 17 C       -9.1800    -6.2170     0.4460 C.ar  1 <1>  -0.1500 
 18 C      -10.1560    -5.5380    -0.2600 C.ar  1 <1>  -0.1500 
 19 C      -11.0630    -3.4530    -1.3290 C.3   1 <1>  -0.0970 
 20 H        0.1310    -2.3280    -1.9690 H     1 <1>   0.3700 
 21 H       -1.9410    -1.8090     1.1270 H     1 <1>   0.0800 
 22 H       -2.9310    -2.6690    -0.0220 H     1 <1>   0.0800 
 23 H       -1.0670    -4.0410     0.1980 H     1 <1>   0.0800 
 24 H        0.5620    -4.1630    -0.4240 H     1 <1>   0.0800 
 25 H       -0.7950    -4.6390    -1.4260 H     1 <1>   0.0800 
 26 H       -4.0240    -0.5900    -0.7090 H     1 <1>   0.0800 
 27 H       -2.9890     0.3370     0.3320 H     1 <1>   0.0800 
 28 H       -5.1940     0.0560     1.3370 H     1 <1>   0.0800 
 29 H       -3.9850    -0.7010     2.3240 H     1 <1>   0.0800 
 30 H       -8.7150    -2.5020    -0.3660 H     1 <1>   0.1500 
 31 H       -7.2880    -6.0990     1.4060 H     1 <1>   0.1500 
 32 H       -9.3110    -7.2600     0.6750 H     1 <1>   0.1500 
 33 H      -11.0440    -6.0570    -0.5770 H     1 <1>   0.1500 
 34 H      -10.6840    -2.5230    -1.7110 H     1 <1>   0.0800 
 35 H      -11.8980    -3.2470    -0.6840 H     1 <1>   0.0800 
 36 H      -11.4010    -4.0490    -2.1580 H     1 <1>   0.0800 
@<TRIPOS>BOND
  1   1   2  2   
  2   2   3  am  
  3   2   4  1   
  4   3   5  1   
  5   3  20  1   
  6   4   6  1   
  7   4  21  1   
  8   4  22  1   
  9   5  23  1   
 10   5  24  1   
 11   5  25  1   
 12   6   7  1   
 13   6  26  1   
 14   6  27  1   
 15   7   8  1   
 16   7  28  1   
 17   7  29  1   
 18   8   9  1   
 19   8  10  2   
 20   9  11  1   
 21  10  12  1   
 22  11  12  2   
 23  12  13  1   
 24  13  14  ar  
 25  13  15  ar  
 26  14  16  ar  
 27  14  30  1   
 28  15  17  ar  
 29  15  31  1   
 30  16  18  ar  
 31  16  19  1   
 32  17  18  ar  
 33  17  32  1   
 34  18  33  1   
 35  19  34  1   
 36  19  35  1   
 37  19  36  1   
@<TRIPOS>SUBSTRUCTURE
  1 ****  10 GROUP 4 **** **** 0

# MOE 2024.06 (io_trps.svl 2023.06)
