@<TRIPOS>MOLECULE
4-[2-(5-Hydroxy-3-methyl-5-trifluoromethyl-4,5-dihydro-pyrazol-1-yl)-2-oxo-ethox
35 36 1 0 0 
SMALL
USER_CHARGES


@<TRIPOS>ATOM
  1 F       -0.3020    -3.9530    -1.6680 F     1 <1>  -0.3400 
  2 C        0.2430    -3.6270    -0.4970 C.3   1 <1>   1.0200 
  3 F        0.8060    -4.7400    -0.0350 F     1 <1>  -0.3400 
  4 F        1.2570    -2.8160    -0.7970 F     1 <1>  -0.3400 
  5 C       -0.7930    -2.9490     0.4940 C.3   1 <1>   0.5800 
  6 O       -0.2870    -2.7150     1.7780 O.3   1 <1>  -0.6800 
  7 N       -2.0560    -3.7230     0.6840 N.am  1 <1>  -0.2980 
  8 C       -1.3140    -1.6060    -0.0490 C.3   1 <1>  -0.0990 
  9 N       -3.1540    -3.0110     0.2410 N.2   1 <1>  -0.5120 
 10 C       -2.0890    -4.9420     1.3260 C.2   1 <1>   0.5690 
 11 C       -2.7920    -1.8730    -0.1510 C.2   1 <1>   0.3280 
 12 O       -1.1370    -5.3530     1.9520 O.2   1 <1>  -0.5700 
 13 C       -3.3650    -5.7710     1.2880 C.3   1 <1>   0.1810 
 14 C       -3.7030    -0.7990    -0.6990 C.3   1 <1>  -0.1790 
 15 O       -3.4450    -6.4880     0.0670 O.3   1 <1>  -0.3630 
 16 C       -4.5380    -7.2160    -0.2560 C.ar  1 <1>   0.0820 
 17 C       -4.5440    -7.8090    -1.5070 C.ar  1 <1>  -0.1500 
 18 C       -5.6310    -7.3920     0.5870 C.ar  1 <1>  -0.1500 
 19 C       -5.6250    -8.5650    -1.9200 C.ar  1 <1>  -0.1500 
 20 C       -6.7100    -8.1500     0.1680 C.ar  1 <1>  -0.1500 
 21 C       -6.7260    -8.7460    -1.0890 C.ar  1 <1>   0.0730 
 22 C       -7.8490    -9.5280    -1.5170 C.1   1 <1>   0.4840 
 23 N       -8.7440   -10.1490    -1.8550 N.1   1 <1>  -0.5570 
 24 H       -0.2450    -3.5880     2.2330 H     1 <1>   0.4000 
 25 H       -0.9190    -1.3780    -1.0210 H     1 <1>   0.0800 
 26 H       -1.1140    -0.7930     0.6250 H     1 <1>   0.0800 
 27 H       -4.2220    -5.1280     1.3650 H     1 <1>   0.0800 
 28 H       -3.3590    -6.4800     2.0950 H     1 <1>   0.0800 
 29 H       -3.4200    -0.5540    -1.7060 H     1 <1>   0.0800 
 30 H       -3.6420     0.0820    -0.0870 H     1 <1>   0.0800 
 31 H       -4.7200    -1.1490    -0.7010 H     1 <1>   0.0800 
 32 H       -3.6950    -7.6710    -2.1540 H     1 <1>   0.1500 
 33 H       -5.6600    -6.9510     1.5660 H     1 <1>   0.1500 
 34 H       -5.6140    -9.0190    -2.8970 H     1 <1>   0.1500 
 35 H       -7.5530    -8.2800     0.8260 H     1 <1>   0.1500 
@<TRIPOS>BOND
  1   1   2  1   
  2   2   3  1   
  3   2   4  1   
  4   2   5  1   
  5   5   6  1   
  6   5   7  1   
  7   5   8  1   
  8   6  24  1   
  9   7   9  1   
 10   7  10  am  
 11   8  11  1   
 12   8  25  1   
 13   8  26  1   
 14   9  11  2   
 15  10  12  2   
 16  10  13  1   
 17  11  14  1   
 18  13  15  1   
 19  13  27  1   
 20  13  28  1   
 21  14  29  1   
 22  14  30  1   
 23  14  31  1   
 24  15  16  1   
 25  16  17  ar  
 26  16  18  ar  
 27  17  19  ar  
 28  17  32  1   
 29  18  20  ar  
 30  18  33  1   
 31  19  21  ar  
 32  19  34  1   
 33  20  21  ar  
 34  20  35  1   
 35  21  22  1   
 36  22  23  3   
@<TRIPOS>SUBSTRUCTURE
  1 ****  15 GROUP 4 **** **** 0

# MOE 2024.06 (io_trps.svl 2023.06)
