@<TRIPOS>MOLECULE
3,4-Dimethoxy-N-methyl-N-[4-(piperidine-1-carbonyl)-phenyl]-benzenesulfonamide
55 57 1 0 0 
SMALL
USER_CHARGES


@<TRIPOS>ATOM
  1 S       -0.4170    -2.1460     0.8380 S.o2  1 <1>   1.4470 
  2 O       -1.4590    -2.2020     1.8390 O.2   1 <1>  -0.6500 
  3 O       -0.0920    -3.3220     0.0630 O.2   1 <1>  -0.6500 
  4 N        1.0310    -1.7070     1.6880 N.am  1 <1>  -0.6930 
  5 C       -0.6700    -0.7030    -0.2280 C.ar  1 <1>  -0.0090 
  6 C        2.1710    -1.3960     0.9730 C.ar  1 <1>   0.1990 
  7 C        1.1910    -2.2910     3.0390 C.3   1 <1>   0.1160 
  8 C       -1.4350     0.3750     0.1980 C.ar  1 <1>  -0.1500 
  9 C       -0.0670    -0.6200    -1.4760 C.ar  1 <1>  -0.1500 
 10 C        2.9420    -2.3840     0.3710 C.ar  1 <1>  -0.1500 
 11 C        2.5590    -0.0710     0.8210 C.ar  1 <1>  -0.1500 
 12 C       -1.6120     1.5140    -0.5850 C.ar  1 <1>   0.0830 
 13 C       -0.2300     0.4990    -2.2710 C.ar  1 <1>  -0.1500 
 14 C        4.0680    -2.0540    -0.3570 C.ar  1 <1>  -0.1500 
 15 C        3.6840     0.2560     0.0890 C.ar  1 <1>  -0.1500 
 16 O       -2.3500     2.5690    -0.1310 O.3   1 <1>  -0.3630 
 17 C       -0.9990     1.5700    -1.8490 C.ar  1 <1>   0.0830 
 18 C        4.4740    -0.7270    -0.5110 C.ar  1 <1>   0.0860 
 19 C       -3.0540     2.5360     1.0920 C.3   1 <1>   0.0400 
 20 O       -1.0750     2.5950    -2.7440 O.3   1 <1>  -0.3630 
 21 C        5.6560    -0.3940    -1.2790 C.2   1 <1>   0.5440 
 22 C       -2.1170     3.5450    -2.7280 C.3   1 <1>   0.0400 
 23 O        5.7840    -0.8660    -2.3940 O.2   1 <1>  -0.5700 
 24 N        6.6450     0.4360    -0.7860 N.am  1 <1>  -0.6600 
 25 C        7.7160     0.9820    -1.6680 C.3   1 <1>   0.1400 
 26 C        6.8450     0.7180     0.6640 C.3   1 <1>   0.1400 
 27 C        9.0780     0.4310    -1.2330 C.3   1 <1>  -0.1600 
 28 C        8.2040     0.1730     1.1160 C.3   1 <1>  -0.1600 
 29 C        9.3520     0.7110     0.2510 C.3   1 <1>  -0.1600 
 30 H        1.1180    -3.3630     2.9820 H     1 <1>   0.0800 
 31 H        0.4170    -1.9210     3.6890 H     1 <1>   0.0800 
 32 H        2.1500    -2.0220     3.4490 H     1 <1>   0.0800 
 33 H       -1.8860     0.3000     1.1700 H     1 <1>   0.1500 
 34 H        0.5410    -1.4370    -1.8290 H     1 <1>   0.1500 
 35 H        2.6440    -3.4130     0.4700 H     1 <1>   0.1500 
 36 H        1.9630     0.7010     1.2740 H     1 <1>   0.1500 
 37 H        0.2460     0.5480    -3.2340 H     1 <1>   0.1500 
 38 H        4.6510    -2.8270    -0.8280 H     1 <1>   0.1500 
 39 H        3.9610     1.2890    -0.0320 H     1 <1>   0.1500 
 40 H       -3.5870     3.4640     1.1950 H     1 <1>   0.0800 
 41 H       -2.3500     2.4300     1.8990 H     1 <1>   0.0800 
 42 H       -3.7500     1.7160     1.0750 H     1 <1>   0.0800 
 43 H       -2.1000     4.0760    -3.6620 H     1 <1>   0.0800 
 44 H       -1.9500     4.2300    -1.9170 H     1 <1>   0.0800 
 45 H       -3.0560     3.0330    -2.6120 H     1 <1>   0.0800 
 46 H        7.7150     2.0550    -1.5920 H     1 <1>   0.0800 
 47 H        7.5330     0.7240    -2.6970 H     1 <1>   0.0800 
 48 H        6.0720     0.2620     1.2560 H     1 <1>   0.0800 
 49 H        6.8070     1.7820     0.8210 H     1 <1>   0.0800 
 50 H        9.8500     0.8760    -1.8360 H     1 <1>   0.0800 
 51 H        9.0920    -0.6300    -1.4140 H     1 <1>   0.0800 
 52 H        8.1820    -0.9020     1.0580 H     1 <1>   0.0800 
 53 H        8.3710     0.4410     2.1440 H     1 <1>   0.0800 
 54 H        9.4480     1.7730     0.4020 H     1 <1>   0.0800 
 55 H       10.2780     0.2470     0.5430 H     1 <1>   0.0800 
@<TRIPOS>BOND
  1   1   2  2   
  2   1   3  2   
  3   1   4  am  
  4   1   5  1   
  5   4   6  1   
  6   4   7  1   
  7   5   8  ar  
  8   5   9  ar  
  9   6  10  ar  
 10   6  11  ar  
 11   7  30  1   
 12   7  31  1   
 13   7  32  1   
 14   8  12  ar  
 15   8  33  1   
 16   9  13  ar  
 17   9  34  1   
 18  10  14  ar  
 19  10  35  1   
 20  11  15  ar  
 21  11  36  1   
 22  12  16  1   
 23  12  17  ar  
 24  13  17  ar  
 25  13  37  1   
 26  14  18  ar  
 27  14  38  1   
 28  15  18  ar  
 29  15  39  1   
 30  16  19  1   
 31  17  20  1   
 32  18  21  1   
 33  19  40  1   
 34  19  41  1   
 35  19  42  1   
 36  20  22  1   
 37  21  23  2   
 38  21  24  am  
 39  22  43  1   
 40  22  44  1   
 41  22  45  1   
 42  24  25  1   
 43  24  26  1   
 44  25  27  1   
 45  25  46  1   
 46  25  47  1   
 47  26  28  1   
 48  26  48  1   
 49  26  49  1   
 50  27  29  1   
 51  27  50  1   
 52  27  51  1   
 53  28  29  1   
 54  28  52  1   
 55  28  53  1   
 56  29  54  1   
 57  29  55  1   
@<TRIPOS>SUBSTRUCTURE
  1 ****  11 GROUP 4 **** **** 0

# MOE 2024.06 (io_trps.svl 2023.06)
