@<TRIPOS>MOLECULE
4-Methyl-2-morpholin-4-yl-thiazole-5-carboxylic acid
26 27 1 0 0 
SMALL
USER_CHARGES


@<TRIPOS>ATOM
  1 S        0.1590    -0.3030    -0.0520 S.3   1 <1>  -0.0800 
  2 C       -1.2930     0.6490     0.2040 C.2   1 <1>   0.4620 
  3 C        1.0900     1.1540    -0.3510 C.2   1 <1>  -0.1920 
  4 N       -1.0920     1.9120     0.0810 N.2   1 <1>  -0.5650 
  5 N       -2.4870     0.0280     0.5030 N.pl3 1 <1>  -0.8220 
  6 C        0.2210     2.1880    -0.2250 C.2   1 <1>   0.0460 
  7 C        2.4950     1.0250    -0.6550 C.2   1 <1>   1.0320 
  8 C       -2.6970    -1.4490     0.5390 C.3   1 <1>   0.2090 
  9 C       -3.7300     0.8150     0.7360 C.3   1 <1>   0.2090 
 10 C        0.5460     3.6590    -0.3890 C.3   1 <1>  -0.0590 
 11 O        3.2000     2.0310    -0.8620 O.co2 1 <1>  -0.9000 
 12 O        3.0420    -0.0920    -0.7210 O.co2 1 <1>  -0.9000 
 13 C       -3.9090    -1.8420    -0.3250 C.3   1 <1>   0.1200 
 14 C       -4.8780     0.2850    -0.1420 C.3   1 <1>   0.1200 
 15 O       -5.0470    -1.0980     0.0220 O.3   1 <1>  -0.5600 
 16 H       -2.8720    -1.7540     1.5550 H     1 <1>   0.0800 
 17 H       -1.8320    -1.9760     0.1810 H     1 <1>   0.0800 
 18 H       -3.5660     1.8550     0.5150 H     1 <1>   0.0800 
 19 H       -4.0080     0.7370     1.7720 H     1 <1>   0.0800 
 20 H        1.5800     3.8130    -0.6290 H     1 <1>   0.0800 
 21 H        0.3260     4.1770     0.5260 H     1 <1>   0.0800 
 22 H       -0.0540     4.0710    -1.1780 H     1 <1>   0.0800 
 23 H       -4.1410    -2.8820    -0.1850 H     1 <1>   0.0800 
 24 H       -3.6930    -1.6730    -1.3650 H     1 <1>   0.0800 
 25 H       -4.6730     0.4870    -1.1790 H     1 <1>   0.0800 
 26 H       -5.8010     0.7640     0.1290 H     1 <1>   0.0800 
@<TRIPOS>BOND
  1   1   2  1   
  2   1   3  1   
  3   2   4  2   
  4   2   5  1   
  5   3   6  2   
  6   3   7  1   
  7   4   6  1   
  8   5   8  1   
  9   5   9  1   
 10   6  10  1   
 11   7  11  ar  
 12   7  12  ar  
 13   8  13  1   
 14   8  16  1   
 15   8  17  1   
 16   9  14  1   
 17   9  18  1   
 18   9  19  1   
 19  10  20  1   
 20  10  21  1   
 21  10  22  1   
 22  13  15  1   
 23  13  23  1   
 24  13  24  1   
 25  14  15  1   
 26  14  25  1   
 27  14  26  1   
@<TRIPOS>SUBSTRUCTURE
  1 ****   2 GROUP 4 **** **** 0

# MOE 2024.06 (io_trps.svl 2023.06)
