@<TRIPOS>MOLECULE
1-Methanesulfonyl-piperidine-3-carboxylic acid (2,5-dimethoxy-phenyl)-amide
45 46 1 0 0 
SMALL
USER_CHARGES


@<TRIPOS>ATOM
  1 S        0.2910    -0.5500     1.4790 S.o2  1 <1>   1.3330 
  2 O        0.8400    -0.0470     2.7160 O.2   1 <1>  -0.6500 
  3 O       -0.7380    -1.5640     1.4880 O.2   1 <1>  -0.6500 
  4 N        1.5770    -1.1210     0.5340 N.am  1 <1>  -0.8490 
  5 C       -0.3420     0.8450     0.5660 C.3   1 <1>  -0.1350 
  6 C        2.7020    -0.1850     0.4170 C.3   1 <1>   0.1960 
  7 C        1.1790    -1.7220    -0.7410 C.3   1 <1>   0.1960 
  8 C        3.9310    -0.8930    -0.1670 C.3   1 <1>  -0.0190 
  9 C        2.3660    -2.4650    -1.3640 C.3   1 <1>  -0.1600 
 10 C        5.0780     0.0960    -0.3080 C.2   1 <1>   0.5690 
 11 C        3.5920    -1.5550    -1.5160 C.3   1 <1>  -0.1600 
 12 O        4.8500     1.1790    -0.7910 O.2   1 <1>  -0.5700 
 13 N        6.3120    -0.3050     0.1180 N.am  1 <1>  -0.5470 
 14 C        7.5790     0.3090     0.1510 C.ar  1 <1>   0.1170 
 15 C        8.6460    -0.4300     0.6760 C.ar  1 <1>   0.0830 
 16 C        7.8150     1.6000    -0.3070 C.ar  1 <1>  -0.1500 
 17 O        8.3660    -1.6970     1.1170 O.3   1 <1>  -0.3630 
 18 C        9.9200     0.1260     0.7330 C.ar  1 <1>  -0.1500 
 19 C        9.0890     2.1550    -0.2480 C.ar  1 <1>   0.0830 
 20 C        9.3660    -2.4950     1.7130 C.3   1 <1>   0.0400 
 21 C       10.1340     1.4120     0.2720 C.ar  1 <1>  -0.1500 
 22 O        9.3890     3.4100    -0.6770 O.3   1 <1>  -0.3620 
 23 C        8.3910     4.2450    -1.2230 C.3   1 <1>   0.0400 
 24 H        0.4120     1.5990     0.4590 H     1 <1>   0.0800 
 25 H       -1.1730     1.2710     1.0920 H     1 <1>   0.0800 
 26 H       -0.6760     0.5390    -0.4050 H     1 <1>   0.0800 
 27 H        2.9580     0.2010     1.3900 H     1 <1>   0.0800 
 28 H        2.4250     0.6440    -0.2130 H     1 <1>   0.0800 
 29 H        0.8300    -0.9600    -1.4160 H     1 <1>   0.0800 
 30 H        0.3780    -2.4260    -0.5770 H     1 <1>   0.0800 
 31 H        4.2210    -1.6560     0.5320 H     1 <1>   0.0800 
 32 H        2.0780    -2.8510    -2.3260 H     1 <1>   0.0800 
 33 H        2.6110    -3.3050    -0.7360 H     1 <1>   0.0800 
 34 H        4.4330    -2.1290    -1.8660 H     1 <1>   0.0800 
 35 H        3.3830    -0.7910    -2.2460 H     1 <1>   0.0800 
 36 H        6.3630    -1.2510     0.5020 H     1 <1>   0.3700 
 37 H        7.0010     2.1660    -0.7080 H     1 <1>   0.1500 
 38 H       10.7560    -0.4170     1.1280 H     1 <1>   0.1500 
 39 H        8.9210    -3.4310     2.0000 H     1 <1>   0.0800 
 40 H        9.7440    -1.9890     2.5840 H     1 <1>   0.0800 
 41 H       10.1490    -2.6690     0.9960 H     1 <1>   0.0800 
 42 H       11.1150     1.8510     0.3130 H     1 <1>   0.1500 
 43 H        8.8480     5.1800    -1.4930 H     1 <1>   0.0800 
 44 H        7.6290     4.4100    -0.4830 H     1 <1>   0.0800 
 45 H        7.9800     3.7720    -2.0980 H     1 <1>   0.0800 
@<TRIPOS>BOND
  1   1   2  2   
  2   1   3  2   
  3   1   4  am  
  4   1   5  1   
  5   4   6  1   
  6   4   7  1   
  7   5  24  1   
  8   5  25  1   
  9   5  26  1   
 10   6   8  1   
 11   6  27  1   
 12   6  28  1   
 13   7   9  1   
 14   7  29  1   
 15   7  30  1   
 16   8  10  1   
 17   8  11  1   
 18   8  31  1   
 19   9  11  1   
 20   9  32  1   
 21   9  33  1   
 22  10  12  2   
 23  10  13  am  
 24  11  34  1   
 25  11  35  1   
 26  13  14  1   
 27  13  36  1   
 28  14  15  ar  
 29  14  16  ar  
 30  15  17  1   
 31  15  18  ar  
 32  16  19  ar  
 33  16  37  1   
 34  17  20  1   
 35  18  21  ar  
 36  18  38  1   
 37  19  21  ar  
 38  19  22  1   
 39  20  39  1   
 40  20  40  1   
 41  20  41  1   
 42  21  42  1   
 43  22  23  1   
 44  23  43  1   
 45  23  44  1   
 46  23  45  1   
@<TRIPOS>SUBSTRUCTURE
  1 ****  10 GROUP 4 **** **** 0

# MOE 2024.06 (io_trps.svl 2023.06)
