@<TRIPOS>MOLECULE
4-Fluoro-N-[2-(2-methoxy-ethyl)-1,2,3,4-tetrahydro-benzo[4,5]imidazo[1,2-a]pyraz
48 51 1 0 0 
SMALL
USER_CHARGES


@<TRIPOS>ATOM
  1 F        1.1830    -0.5260    -0.1690 F     1 <1>  -0.1900 
  2 C        2.1410     0.3550    -0.1180 C.ar  1 <1>   0.1900 
  3 C        3.3470     0.0000     0.4550 C.ar  1 <1>  -0.1500 
  4 C        1.9210     1.6170    -0.6340 C.ar  1 <1>  -0.1500 
  5 C        4.3620     0.9400     0.5050 C.ar  1 <1>  -0.1500 
  6 C        2.9470     2.5440    -0.5760 C.ar  1 <1>  -0.1500 
  7 C        4.1890     2.2290    -0.0160 C.ar  1 <1>   0.0860 
  8 C        5.2520     3.2170     0.0170 C.2   1 <1>   0.5440 
  9 O        4.9840     4.3900     0.1840 O.2   1 <1>  -0.5700 
 10 N        6.5570     2.8130    -0.1490 N.am  1 <1>  -0.5470 
 11 C        7.7720     3.5250    -0.1280 C.ar  1 <1>   0.1170 
 12 C        8.9310     2.8410     0.1850 C.ar  1 <1>  -0.1500 
 13 C        7.8520     4.8970    -0.4340 C.ar  1 <1>  -0.1500 
 14 C       10.1520     3.5090     0.2020 C.ar  1 <1>   0.2270 
 15 C        9.0540     5.5690    -0.4180 C.ar  1 <1>  -0.1500 
 16 N       11.3940     3.0230     0.4810 N.2   1 <1>  -0.5650 
 17 C       10.2090     4.8570    -0.0930 C.ar  1 <1>  -0.1520 
 18 C       12.1670     4.0490     0.3550 C.2   1 <1>   0.0060 
 19 N       11.5210     5.1920     0.0160 N.pl3 1 <1>   0.0480 
 20 C       13.6750     4.0540     0.5700 C.3   1 <1>   0.2900 
 21 C       12.1730     6.4900    -0.2270 C.3   1 <1>   0.0960 
 22 N       14.3190     5.2670    -0.0080 N.3   1 <1>  -0.8100 
 23 C       13.5860     6.4890     0.3760 C.3   1 <1>   0.1100 
 24 C       15.7420     5.3620     0.3750 C.3   1 <1>   0.1100 
 25 C       16.5970     4.3310    -0.3660 C.3   1 <1>   0.1200 
 26 O       17.9240     4.5080     0.0180 O.3   1 <1>  -0.5600 
 27 C       18.8130     3.6500    -0.6210 C.3   1 <1>   0.0400 
 28 H        3.4790    -0.9900     0.8540 H     1 <1>   0.1500 
 29 H        0.9680     1.8630    -1.0670 H     1 <1>   0.1500 
 30 H        5.2960     0.6710     0.9670 H     1 <1>   0.1500 
 31 H        2.7910     3.5350    -0.9700 H     1 <1>   0.1500 
 32 H        6.6750     1.8140    -0.2940 H     1 <1>   0.3700 
 33 H        8.9280     1.7970     0.4230 H     1 <1>   0.1500 
 34 H        6.9570     5.4330    -0.6910 H     1 <1>   0.1500 
 35 H        9.1060     6.6170    -0.6510 H     1 <1>   0.1500 
 36 H       14.0840     3.1700     0.1150 H     1 <1>   0.0800 
 37 H       13.8640     4.0090     1.6290 H     1 <1>   0.0800 
 38 H       11.5820     7.2720     0.2100 H     1 <1>   0.0800 
 39 H       12.2340     6.6470    -1.2880 H     1 <1>   0.0800 
 40 H       13.5240     6.5570     1.4490 H     1 <1>   0.0800 
 41 H       14.1120     7.3570     0.0150 H     1 <1>   0.0800 
 42 H       15.8510     5.2290     1.4380 H     1 <1>   0.0800 
 43 H       16.1160     6.3370     0.1130 H     1 <1>   0.0800 
 44 H       16.5200     4.4860    -1.4290 H     1 <1>   0.0800 
 45 H       16.3010     3.3300    -0.1100 H     1 <1>   0.0800 
 46 H       19.8020     3.8630    -0.2570 H     1 <1>   0.0800 
 47 H       18.7720     3.8220    -1.6820 H     1 <1>   0.0800 
 48 H       18.5520     2.6310    -0.3900 H     1 <1>   0.0800 
@<TRIPOS>BOND
  1   1   2  1   
  2   2   3  ar  
  3   2   4  ar  
  4   3   5  ar  
  5   3  28  1   
  6   4   6  ar  
  7   4  29  1   
  8   5   7  ar  
  9   5  30  1   
 10   6   7  ar  
 11   6  31  1   
 12   7   8  1   
 13   8   9  2   
 14   8  10  am  
 15  10  11  1   
 16  10  32  1   
 17  11  12  ar  
 18  11  13  ar  
 19  12  14  ar  
 20  12  33  1   
 21  13  15  ar  
 22  13  34  1   
 23  14  16  1   
 24  14  17  ar  
 25  15  17  ar  
 26  15  35  1   
 27  16  18  2   
 28  17  19  1   
 29  18  19  1   
 30  18  20  1   
 31  19  21  1   
 32  20  22  1   
 33  20  36  1   
 34  20  37  1   
 35  21  23  1   
 36  21  38  1   
 37  21  39  1   
 38  22  23  1   
 39  22  24  1   
 40  23  40  1   
 41  23  41  1   
 42  24  25  1   
 43  24  42  1   
 44  24  43  1   
 45  25  26  1   
 46  25  44  1   
 47  25  45  1   
 48  26  27  1   
 49  27  46  1   
 50  27  47  1   
 51  27  48  1   
@<TRIPOS>SUBSTRUCTURE
  1 ****  12 GROUP 4 **** **** 0

# MOE 2024.06 (io_trps.svl 2023.06)
