@<TRIPOS>MOLECULE
(6-Propionylamino-benzothiazol-2-ylsulfanyl)-acetic acid ethyl ester
37 38 1 0 0 
SMALL
USER_CHARGES


@<TRIPOS>ATOM
  1 S       -0.9880     0.4340    -1.0950 S.3   1 <1>  -0.0800 
  2 C        0.1530    -0.5190    -0.1530 C.2   1 <1>   0.4340 
  3 C       -2.2590    -0.0980    -0.0130 C.ar  1 <1>   0.0400 
  4 S        1.8670    -0.5190    -0.6670 S.3   1 <1>  -0.2860 
  5 N       -0.3300    -1.1640     0.8280 N.2   1 <1>  -0.5650 
  6 C       -1.6980    -0.9380     0.9340 C.ar  1 <1>   0.2270 
  7 C       -3.6000     0.2290    -0.0460 C.ar  1 <1>  -0.1500 
  8 C        2.0660     0.8890    -1.8640 C.3   1 <1>   0.1310 
  9 C       -2.5330    -1.4780     1.9010 C.ar  1 <1>  -0.1500 
 10 C       -4.4290    -0.3230     0.9210 C.ar  1 <1>   0.1170 
 11 C        1.8970     2.2230    -1.1600 C.2   1 <1>   0.6590 
 12 C       -3.8830    -1.1680     1.8920 C.ar  1 <1>  -0.1500 
 13 N       -5.7900    -0.0190     0.9200 N.am  1 <1>  -0.5470 
 14 O        1.0440     3.0060    -1.4930 O.2   1 <1>  -0.5700 
 15 O        2.7450     2.4810    -0.1740 O.3   1 <1>  -0.4300 
 16 C       -6.8690    -0.8220     0.7230 C.2   1 <1>   0.5690 
 17 C        2.6690     3.6740     0.5710 C.3   1 <1>   0.1200 
 18 O       -7.9740    -0.3490     0.7690 O.2   1 <1>  -0.5700 
 19 C       -6.7120    -2.3070     0.4250 C.3   1 <1>  -0.0990 
 20 C        3.7610     3.6350     1.6350 C.3   1 <1>  -0.2400 
 21 C       -6.2280    -2.5820    -1.0080 C.3   1 <1>  -0.2400 
 22 H       -3.9870     0.8860    -0.8030 H     1 <1>   0.1500 
 23 H        1.3400     0.7670    -2.6450 H     1 <1>   0.0800 
 24 H        3.0560     0.8130    -2.2720 H     1 <1>   0.0800 
 25 H       -2.1120    -2.1290     2.6470 H     1 <1>   0.1500 
 26 H       -4.5270    -1.5790     2.6490 H     1 <1>   0.1500 
 27 H       -6.0470     0.9650     1.0100 H     1 <1>   0.3700 
 28 H        1.6920     3.7320     1.0220 H     1 <1>   0.0800 
 29 H        2.8090     4.5050    -0.0990 H     1 <1>   0.0800 
 30 H       -7.6680    -2.7790     0.5660 H     1 <1>   0.0800 
 31 H       -6.0320    -2.7460     1.1300 H     1 <1>   0.0800 
 32 H        3.6130     2.7930     2.2870 H     1 <1>   0.0800 
 33 H        3.7250     4.5340     2.2240 H     1 <1>   0.0800 
 34 H        4.7290     3.5670     1.1720 H     1 <1>   0.0800 
 35 H       -6.9150    -2.1530    -1.7170 H     1 <1>   0.0800 
 36 H       -6.1710    -3.6420    -1.1810 H     1 <1>   0.0800 
 37 H       -5.2540    -2.1550    -1.1670 H     1 <1>   0.0800 
@<TRIPOS>BOND
  1   1   2  1   
  2   1   3  1   
  3   2   4  1   
  4   2   5  2   
  5   3   6  ar  
  6   3   7  ar  
  7   4   8  1   
  8   5   6  1   
  9   6   9  ar  
 10   7  10  ar  
 11   7  22  1   
 12   8  11  1   
 13   8  23  1   
 14   8  24  1   
 15   9  12  ar  
 16   9  25  1   
 17  10  12  ar  
 18  10  13  1   
 19  11  14  2   
 20  11  15  1   
 21  12  26  1   
 22  13  16  am  
 23  13  27  1   
 24  15  17  1   
 25  16  18  2   
 26  16  19  1   
 27  17  20  1   
 28  17  28  1   
 29  17  29  1   
 30  19  21  1   
 31  19  30  1   
 32  19  31  1   
 33  20  32  1   
 34  20  33  1   
 35  20  34  1   
 36  21  35  1   
 37  21  36  1   
 38  21  37  1   
@<TRIPOS>SUBSTRUCTURE
  1 ****   3 GROUP 4 **** **** 0

# MOE 2024.06 (io_trps.svl 2023.06)
