@<TRIPOS>MOLECULE
1-(4-Methoxy-3-methyl-benzenesulfonyl)-piperidine-4-carboxylic acid (2,5-dimethy
57 59 1 0 0 
SMALL
USER_CHARGES


@<TRIPOS>ATOM
  1 S        0.1120    -0.1010    -2.5420 S.o2  1 <1>   1.4470 
  2 O        0.8390    -1.1910    -3.1600 O.2   1 <1>  -0.6500 
  3 O       -0.5370     0.8800    -3.3850 O.2   1 <1>  -0.6500 
  4 N        1.2340     0.7290    -1.5770 N.am  1 <1>  -0.8490 
  5 C       -1.0820    -0.7470    -1.3390 C.ar  1 <1>  -0.0090 
  6 C        2.0630     1.6310    -2.3800 C.3   1 <1>   0.1960 
  7 C        2.0490    -0.1860    -0.7720 C.3   1 <1>   0.1960 
  8 C       -1.5630     0.0520    -0.3090 C.ar  1 <1>  -0.1500 
  9 C       -1.5500    -2.0530    -1.4190 C.ar  1 <1>  -0.1500 
 10 C        2.9610     2.4770    -1.4730 C.3   1 <1>  -0.1600 
 11 C        2.9330     0.6040     0.1940 C.3   1 <1>  -0.1600 
 12 C       -2.4710    -0.4260     0.6220 C.ar  1 <1>  -0.1430 
 13 C       -2.4580    -2.5480    -0.5000 C.ar  1 <1>  -0.1500 
 14 C        3.8320     1.5970    -0.5620 C.3   1 <1>  -0.0190 
 15 C       -2.9250    -1.7370     0.5300 C.ar  1 <1>   0.0830 
 16 C       -2.9630     0.4890     1.7350 C.3   1 <1>  -0.0970 
 17 C        4.6740     2.4460     0.3920 C.2   1 <1>   0.5690 
 18 O       -3.8140    -2.1670     1.4630 O.3   1 <1>  -0.3630 
 19 O        4.1160     3.0630     1.2660 O.2   1 <1>  -0.5700 
 20 N        6.0300     2.4520     0.2010 N.am  1 <1>  -0.5470 
 21 C       -4.3530    -3.4690     1.4330 C.3   1 <1>   0.0400 
 22 C        7.0650     3.1290     0.8700 C.ar  1 <1>   0.1170 
 23 C        8.3680     2.6300     0.8010 C.ar  1 <1>  -0.1430 
 24 C        6.8370     4.3020     1.5850 C.ar  1 <1>  -0.1500 
 25 C        9.3980     3.3020     1.4400 C.ar  1 <1>  -0.1500 
 26 C        8.6930     1.3500     0.0390 C.3   1 <1>  -0.0970 
 27 C        7.8650     4.9690     2.2260 C.ar  1 <1>  -0.1430 
 28 C        9.1500     4.4640     2.1490 C.ar  1 <1>  -0.1500 
 29 C        7.5910     6.2440     3.0020 C.3   1 <1>  -0.0970 
 30 H        1.4330     2.2940    -2.9500 H     1 <1>   0.0800 
 31 H        2.6600     1.0590    -3.0720 H     1 <1>   0.0800 
 32 H        2.6630    -0.7970    -1.4150 H     1 <1>   0.0800 
 33 H        1.4080    -0.8380    -0.2020 H     1 <1>   0.0800 
 34 H       -1.2130     1.0690    -0.2420 H     1 <1>   0.1500 
 35 H       -1.1970    -2.6910    -2.2120 H     1 <1>   0.1500 
 36 H        2.3370     3.1160    -0.8720 H     1 <1>   0.0800 
 37 H        3.5860     3.1080    -2.0790 H     1 <1>   0.0800 
 38 H        3.5400    -0.0760     0.7640 H     1 <1>   0.0800 
 39 H        2.3000     1.1340     0.8860 H     1 <1>   0.0800 
 40 H       -2.7890    -3.5640    -0.6040 H     1 <1>   0.1500 
 41 H        4.4960     1.0290    -1.1870 H     1 <1>   0.0800 
 42 H       -2.5020     1.4580     1.6770 H     1 <1>   0.0800 
 43 H       -2.7320     0.0550     2.6910 H     1 <1>   0.0800 
 44 H       -4.0290     0.6100     1.6600 H     1 <1>   0.0800 
 45 H        6.3680     1.8290    -0.5250 H     1 <1>   0.3700 
 46 H       -5.0350    -3.5660     2.2590 H     1 <1>   0.0800 
 47 H       -3.5530    -4.1810     1.5340 H     1 <1>   0.0800 
 48 H       -4.8800    -3.6070     0.5060 H     1 <1>   0.0800 
 49 H        5.8430     4.7050     1.6390 H     1 <1>   0.1500 
 50 H       10.4050     2.9270     1.3950 H     1 <1>   0.1500 
 51 H        8.0910     0.5390     0.4080 H     1 <1>   0.0800 
 52 H        9.7260     1.0810     0.1650 H     1 <1>   0.0800 
 53 H        8.5070     1.4870    -1.0100 H     1 <1>   0.0800 
 54 H        9.9620     4.9720     2.6390 H     1 <1>   0.1500 
 55 H        6.5560     6.2960     3.2890 H     1 <1>   0.0800 
 56 H        7.8260     7.0980     2.3940 H     1 <1>   0.0800 
 57 H        8.1910     6.2730     3.8940 H     1 <1>   0.0800 
@<TRIPOS>BOND
  1   1   2  2   
  2   1   3  2   
  3   1   4  am  
  4   1   5  1   
  5   4   6  1   
  6   4   7  1   
  7   5   8  ar  
  8   5   9  ar  
  9   6  10  1   
 10   6  30  1   
 11   6  31  1   
 12   7  11  1   
 13   7  32  1   
 14   7  33  1   
 15   8  12  ar  
 16   8  34  1   
 17   9  13  ar  
 18   9  35  1   
 19  10  14  1   
 20  10  36  1   
 21  10  37  1   
 22  11  14  1   
 23  11  38  1   
 24  11  39  1   
 25  12  15  ar  
 26  12  16  1   
 27  13  15  ar  
 28  13  40  1   
 29  14  17  1   
 30  14  41  1   
 31  15  18  1   
 32  16  42  1   
 33  16  43  1   
 34  16  44  1   
 35  17  19  2   
 36  17  20  am  
 37  18  21  1   
 38  20  22  1   
 39  20  45  1   
 40  21  46  1   
 41  21  47  1   
 42  21  48  1   
 43  22  23  ar  
 44  22  24  ar  
 45  23  25  ar  
 46  23  26  1   
 47  24  27  ar  
 48  24  49  1   
 49  25  28  ar  
 50  25  50  1   
 51  26  51  1   
 52  26  52  1   
 53  26  53  1   
 54  27  28  ar  
 55  27  29  1   
 56  28  54  1   
 57  29  55  1   
 58  29  56  1   
 59  29  57  1   
@<TRIPOS>SUBSTRUCTURE
  1 ****  11 GROUP 4 **** **** 0

# MOE 2024.06 (io_trps.svl 2023.06)
