@<TRIPOS>MOLECULE
2-Isopropyl-7-methyl-5,6,7,8-tetrahydro-benzo[4,5]thieno[2,3-d]pyrimidine-4-thio
36 38 1 0 0 
SMALL
USER_CHARGES


@<TRIPOS>ATOM
  1 S       -0.0370    -0.0010     1.1960 S.3   1 <1>  -0.0800 
  2 C        0.8660     1.3930     0.6390 C.2   1 <1>   0.1660 
  3 C       -1.5350     0.6900     0.5930 C.2   1 <1>  -0.1400 
  4 N        2.2030     1.4870     0.8110 N.2   1 <1>  -0.5760 
  5 C        0.0480     2.3150     0.0330 C.2   1 <1>  -0.0860 
  6 C       -1.3350     1.8940     0.0330 C.2   1 <1>  -0.1810 
  7 C       -2.8330    -0.0700     0.7440 C.3   1 <1>   0.0200 
  8 C        2.7470     2.5620     0.3430 C.2   1 <1>   0.4490 
  9 C        0.6990     3.4600    -0.4680 C.2   1 <1>   0.5260 
 10 C       -2.5000     2.6910    -0.5370 C.3   1 <1>   0.0210 
 11 C       -3.8990     0.5670    -0.1700 C.3   1 <1>  -0.0800 
 12 N        2.0360     3.5410    -0.2860 N.am  1 <1>  -0.4900 
 13 C        4.2570     2.7670     0.4870 C.3   1 <1>  -0.0190 
 14 S       -0.0080     4.6930    -1.2590 S.2   1 <1>  -0.3800 
 15 C       -3.8570     2.1080    -0.0880 C.3   1 <1>  -0.1600 
 16 C       -5.2980     0.0420     0.1770 C.3   1 <1>  -0.2400 
 17 C        4.5880     4.0070     1.3340 C.3   1 <1>  -0.2400 
 18 C        4.9560     2.8530    -0.8790 C.3   1 <1>  -0.2400 
 19 H       -3.1390    -0.0240     1.7740 H     1 <1>   0.0800 
 20 H       -2.6880    -1.1010     0.4740 H     1 <1>   0.0800 
 21 H       -2.4360     2.6770    -1.6110 H     1 <1>   0.0800 
 22 H       -2.4430     3.7130    -0.2070 H     1 <1>   0.0800 
 23 H       -3.6750     0.2850    -1.1860 H     1 <1>   0.0800 
 24 H        2.5150     4.3650    -0.6400 H     1 <1>   0.3700 
 25 H        4.6500     1.9060     1.0020 H     1 <1>   0.0800 
 26 H       -4.6360     2.5320    -0.6960 H     1 <1>   0.0800 
 27 H       -4.0370     2.4060     0.9310 H     1 <1>   0.0800 
 28 H       -5.5690     0.3170     1.1810 H     1 <1>   0.0800 
 29 H       -5.3240    -1.0310     0.0940 H     1 <1>   0.0800 
 30 H       -6.0280     0.4510    -0.4990 H     1 <1>   0.0800 
 31 H        4.2580     4.9090     0.8520 H     1 <1>   0.0800 
 32 H        5.6490     4.0730     1.4960 H     1 <1>   0.0800 
 33 H        4.1050     3.9330     2.2940 H     1 <1>   0.0800 
 34 H        4.6380     3.7220    -1.4270 H     1 <1>   0.0800 
 35 H        4.7300     1.9760    -1.4610 H     1 <1>   0.0800 
 36 H        6.0230     2.9030    -0.7470 H     1 <1>   0.0800 
@<TRIPOS>BOND
  1   1   2  1   
  2   1   3  1   
  3   2   4  1   
  4   2   5  2   
  5   3   6  2   
  6   3   7  1   
  7   4   8  2   
  8   5   6  1   
  9   5   9  1   
 10   6  10  1   
 11   7  11  1   
 12   7  19  1   
 13   7  20  1   
 14   8  12  1   
 15   8  13  1   
 16   9  12  am  
 17   9  14  2   
 18  10  15  1   
 19  10  21  1   
 20  10  22  1   
 21  11  15  1   
 22  11  16  1   
 23  11  23  1   
 24  12  24  1   
 25  13  17  1   
 26  13  18  1   
 27  13  25  1   
 28  15  26  1   
 29  15  27  1   
 30  16  28  1   
 31  16  29  1   
 32  16  30  1   
 33  17  31  1   
 34  17  32  1   
 35  17  33  1   
 36  18  34  1   
 37  18  35  1   
 38  18  36  1   
@<TRIPOS>SUBSTRUCTURE
  1 ****   5 GROUP 4 **** **** 0

# MOE 2024.06 (io_trps.svl 2023.06)
