@<TRIPOS>MOLECULE
2-(4-Methyl-5-morpholin-4-ylmethyl-4H-[1,2,4]triazol-3-ylsulfanyl)-N-(3-trifluor
48 50 1 0 0 
SMALL
USER_CHARGES


@<TRIPOS>ATOM
  1 S        0.3540    -0.1610     0.9150 S.3   1 <1>  -0.2860 
  2 C       -0.8650     0.5380    -0.2050 C.2   1 <1>   0.2420 
  3 C        1.9870     0.2520     0.1280 C.3   1 <1>   0.1310 
  4 N       -0.5740     1.0480    -1.3500 N.2   1 <1>  -0.3380 
  5 N       -2.1620     0.6000     0.0920 N.pl3 1 <1>   0.0480 
  6 C        2.3420     1.7140     0.3580 C.2   1 <1>   0.5690 
  7 N       -1.7230     1.5050    -1.8470 N.2   1 <1>  -0.3380 
  8 C       -2.6510     1.2310    -0.9870 C.2   1 <1>   0.0060 
  9 C       -2.8560     0.1410     1.3130 C.3   1 <1>   0.0160 
 10 O        3.2420     1.9670     1.1210 O.2   1 <1>  -0.5700 
 11 N        1.6310     2.6680    -0.3200 N.am  1 <1>  -0.5470 
 12 C       -4.1190     1.5890    -1.1720 C.3   1 <1>   0.2900 
 13 C        1.6960     4.0660    -0.3420 C.ar  1 <1>   0.1170 
 14 N       -4.6560     2.3160    -0.0050 N.3   1 <1>  -0.8100 
 15 C        2.7680     4.7970     0.1600 C.ar  1 <1>  -0.1500 
 16 C        0.6320     4.7560    -0.9080 C.ar  1 <1>  -0.1500 
 17 C       -6.1150     2.5060    -0.1290 C.3   1 <1>   0.1100 
 18 C       -4.0050     3.6370     0.1470 C.3   1 <1>   0.1100 
 19 C        2.7900     6.1870     0.1100 C.ar  1 <1>  -0.1430 
 20 C        0.6330     6.1360    -0.9640 C.ar  1 <1>  -0.1500 
 21 C       -6.6680     3.3270     1.0510 C.3   1 <1>   0.1200 
 22 C       -4.6210     4.4290     1.3140 C.3   1 <1>   0.1200 
 23 C        1.7040     6.8490    -0.4560 C.ar  1 <1>  -0.1500 
 24 C        3.9870     6.9660     0.6780 C.3   1 <1>   1.1630 
 25 O       -6.0040     4.5540     1.1440 O.3   1 <1>  -0.5600 
 26 F        4.1230     8.1700     0.1320 F     1 <1>  -0.3400 
 27 F        3.8760     7.1640     1.9850 F     1 <1>  -0.3400 
 28 F        5.1470     6.3460     0.4890 F     1 <1>  -0.3400 
 29 H        1.9130     0.0300    -0.9200 H     1 <1>   0.0800 
 30 H        2.7230    -0.3830     0.5850 H     1 <1>   0.0800 
 31 H       -2.3230    -0.6830     1.7510 H     1 <1>   0.0800 
 32 H       -3.8530    -0.1730     1.0640 H     1 <1>   0.0800 
 33 H       -2.9070     0.9530     2.0140 H     1 <1>   0.0800 
 34 H        0.8520     2.2880    -0.8710 H     1 <1>   0.3700 
 35 H       -4.6740     0.6780    -1.3120 H     1 <1>   0.0800 
 36 H       -4.2310     2.1880    -2.0610 H     1 <1>   0.0800 
 37 H        3.6010     4.2740     0.5950 H     1 <1>   0.1500 
 38 H       -0.2030     4.2070    -1.3080 H     1 <1>   0.1500 
 39 H       -6.6030     1.5470    -0.1460 H     1 <1>   0.0800 
 40 H       -6.3470     3.0200    -1.0460 H     1 <1>   0.0800 
 41 H       -4.1150     4.2110    -0.7580 H     1 <1>   0.0800 
 42 H       -2.9530     3.5080     0.3340 H     1 <1>   0.0800 
 43 H       -0.2000     6.6570    -1.4050 H     1 <1>   0.1500 
 44 H       -6.5390     2.7940     1.9760 H     1 <1>   0.0800 
 45 H       -7.7140     3.5300     0.9070 H     1 <1>   0.0800 
 46 H       -4.2040     5.4190     1.3550 H     1 <1>   0.0800 
 47 H       -4.4320     3.9320     2.2490 H     1 <1>   0.0800 
 48 H        1.6830     7.9250    -0.5070 H     1 <1>   0.1500 
@<TRIPOS>BOND
  1   1   2  1   
  2   1   3  1   
  3   2   4  2   
  4   2   5  1   
  5   3   6  1   
  6   3  29  1   
  7   3  30  1   
  8   4   7  1   
  9   5   8  1   
 10   5   9  1   
 11   6  10  2   
 12   6  11  am  
 13   7   8  2   
 14   8  12  1   
 15   9  31  1   
 16   9  32  1   
 17   9  33  1   
 18  11  13  1   
 19  11  34  1   
 20  12  14  1   
 21  12  35  1   
 22  12  36  1   
 23  13  15  ar  
 24  13  16  ar  
 25  14  17  1   
 26  14  18  1   
 27  15  19  ar  
 28  15  37  1   
 29  16  20  ar  
 30  16  38  1   
 31  17  21  1   
 32  17  39  1   
 33  17  40  1   
 34  18  22  1   
 35  18  41  1   
 36  18  42  1   
 37  19  23  ar  
 38  19  24  1   
 39  20  23  ar  
 40  20  43  1   
 41  21  25  1   
 42  21  44  1   
 43  21  45  1   
 44  22  25  1   
 45  22  46  1   
 46  22  47  1   
 47  23  48  1   
 48  24  26  1   
 49  24  27  1   
 50  24  28  1   
@<TRIPOS>SUBSTRUCTURE
  1 ****  16 GROUP 4 **** **** 0

# MOE 2024.06 (io_trps.svl 2023.06)
