@<TRIPOS>MOLECULE
2-[5-(2-Methoxy-phenoxymethyl)-4-methyl-4H-[1,2,4]triazol-3-ylsulfanyl]-N-(2,4,6
56 58 1 0 0 
SMALL
USER_CHARGES


@<TRIPOS>ATOM
  1 S       -2.4510    -0.8760     1.9380 S.3   1 <1>  -0.2860 
  2 C       -1.8250     0.4580     0.9020 C.2   1 <1>   0.2420 
  3 C       -4.2830    -0.9320     1.6290 C.3   1 <1>   0.1310 
  4 N       -0.8720     0.2830     0.0560 N.2   1 <1>  -0.3380 
  5 N       -2.2820     1.7120     0.9370 N.pl3 1 <1>   0.0480 
  6 C       -4.6110    -0.6980     0.1600 C.2   1 <1>   0.5690 
  7 N       -0.6840     1.4670    -0.5340 N.2   1 <1>  -0.3380 
  8 C       -1.5240     2.2960    -0.0060 C.2   1 <1>   0.0060 
  9 C       -3.2950     2.3170     1.8280 C.3   1 <1>   0.0160 
 10 O       -4.9900     0.3930    -0.1870 O.2   1 <1>  -0.5700 
 11 N       -4.5190    -1.7040    -0.7480 N.am  1 <1>  -0.5470 
 12 C       -1.6310     3.7580    -0.4010 C.3   1 <1>   0.3000 
 13 C       -4.2700    -3.0620    -0.5190 C.ar  1 <1>   0.1170 
 14 O       -2.9770     4.0520    -0.7100 O.3   1 <1>  -0.3630 
 15 C       -2.9900    -3.5920    -0.6950 C.ar  1 <1>  -0.1430 
 16 C       -5.3110    -3.9010    -0.1130 C.ar  1 <1>  -0.1430 
 17 C       -3.4490     5.2980    -0.4610 C.ar  1 <1>   0.0820 
 18 C       -2.7630    -4.9330    -0.4410 C.ar  1 <1>  -0.1500 
 19 C       -1.8020    -2.7500    -1.1520 C.3   1 <1>  -0.0970 
 20 C       -5.0590    -5.2390     0.1350 C.ar  1 <1>  -0.1500 
 21 C       -6.7330    -3.3790     0.0570 C.3   1 <1>  -0.0970 
 22 C       -4.6820     5.4570     0.1770 C.ar  1 <1>   0.0820 
 23 C       -2.7130     6.4200    -0.8240 C.ar  1 <1>  -0.1500 
 24 C       -3.7880    -5.7620    -0.0220 C.ar  1 <1>  -0.1430 
 25 O       -5.4570     4.4060     0.5510 O.3   1 <1>  -0.3620 
 26 C       -5.1440     6.7270     0.4760 C.ar  1 <1>  -0.1500 
 27 C       -3.1890     7.6870    -0.5300 C.ar  1 <1>  -0.1500 
 28 C       -3.5210    -7.2300     0.2530 C.3   1 <1>  -0.0970 
 29 C       -5.9470     3.5660    -0.4760 C.3   1 <1>   0.0400 
 30 C       -4.4000     7.8410     0.1230 C.ar  1 <1>  -0.1500 
 31 H       -4.7330    -0.1730     2.2390 H     1 <1>   0.0800 
 32 H       -4.6210    -1.9000     1.9470 H     1 <1>   0.0800 
 33 H       -3.2690     1.8330     2.7860 H     1 <1>   0.0800 
 34 H       -4.2690     2.2030     1.3920 H     1 <1>   0.0800 
 35 H       -3.0920     3.3640     1.9560 H     1 <1>   0.0800 
 36 H       -4.6340    -1.4130    -1.7180 H     1 <1>   0.3700 
 37 H       -1.0330     3.9590    -1.2720 H     1 <1>   0.0800 
 38 H       -1.3120     4.3810     0.4160 H     1 <1>   0.0800 
 39 H       -1.7740    -5.3370    -0.5690 H     1 <1>   0.1500 
 40 H       -1.2070    -3.3000    -1.8570 H     1 <1>   0.0800 
 41 H       -1.1860    -2.5060    -0.3060 H     1 <1>   0.0800 
 42 H       -2.1070    -1.8340    -1.6230 H     1 <1>   0.0800 
 43 H       -5.8570    -5.8870     0.4520 H     1 <1>   0.1500 
 44 H       -6.7900    -2.7260     0.9090 H     1 <1>   0.0800 
 45 H       -7.4260    -4.1880     0.2030 H     1 <1>   0.0800 
 46 H       -7.0360    -2.8360    -0.8200 H     1 <1>   0.0800 
 47 H       -1.7760     6.3160    -1.3390 H     1 <1>   0.1500 
 48 H       -6.0860     6.8390     0.9810 H     1 <1>   0.1500 
 49 H       -2.6170     8.5550    -0.8100 H     1 <1>   0.1500 
 50 H       -2.5160    -7.3680     0.6110 H     1 <1>   0.0800 
 51 H       -3.6490    -7.7980    -0.6500 H     1 <1>   0.0800 
 52 H       -4.1990    -7.6040     0.9990 H     1 <1>   0.0800 
 53 H       -5.1430     2.9730    -0.8720 H     1 <1>   0.0800 
 54 H       -6.3800     4.1750    -1.2500 H     1 <1>   0.0800 
 55 H       -6.6930     2.9180    -0.0540 H     1 <1>   0.0800 
 56 H       -4.7670     8.8260     0.3550 H     1 <1>   0.1500 
@<TRIPOS>BOND
  1   1   2  1   
  2   1   3  1   
  3   2   4  2   
  4   2   5  1   
  5   3   6  1   
  6   3  31  1   
  7   3  32  1   
  8   4   7  1   
  9   5   8  1   
 10   5   9  1   
 11   6  10  2   
 12   6  11  am  
 13   7   8  2   
 14   8  12  1   
 15   9  33  1   
 16   9  34  1   
 17   9  35  1   
 18  11  13  1   
 19  11  36  1   
 20  12  14  1   
 21  12  37  1   
 22  12  38  1   
 23  13  15  ar  
 24  13  16  ar  
 25  14  17  1   
 26  15  18  ar  
 27  15  19  1   
 28  16  20  ar  
 29  16  21  1   
 30  17  22  ar  
 31  17  23  ar  
 32  18  24  ar  
 33  18  39  1   
 34  19  40  1   
 35  19  41  1   
 36  19  42  1   
 37  20  24  ar  
 38  20  43  1   
 39  21  44  1   
 40  21  45  1   
 41  21  46  1   
 42  22  25  1   
 43  22  26  ar  
 44  23  27  ar  
 45  23  47  1   
 46  24  28  1   
 47  25  29  1   
 48  26  30  ar  
 49  26  48  1   
 50  27  30  ar  
 51  27  49  1   
 52  28  50  1   
 53  28  51  1   
 54  28  52  1   
 55  29  53  1   
 56  29  54  1   
 57  29  55  1   
 58  30  56  1   
@<TRIPOS>SUBSTRUCTURE
  1 ****  10 GROUP 4 **** **** 0

# MOE 2024.06 (io_trps.svl 2023.06)
