@<TRIPOS>MOLECULE
3-Amino-N-tert-butyl-benzenesulfonamide
31 31 1 0 0 
SMALL
USER_CHARGES


@<TRIPOS>ATOM
  1 S       -0.1530    -0.1650     1.6910 S.o2  1 <1>   1.4470 
  2 O       -0.4360    -1.4600     2.2670 O.2   1 <1>  -0.6500 
  3 O        0.1990     0.9200     2.5760 O.2   1 <1>  -0.6500 
  4 N        1.1860    -0.2890     0.6840 N.am  1 <1>  -0.9140 
  5 C       -1.4930     0.3700     0.5930 C.ar  1 <1>  -0.0090 
  6 C        1.4610    -1.4760    -0.0820 C.3   1 <1>   0.3560 
  7 C       -2.6810    -0.3430     0.5080 C.ar  1 <1>  -0.1500 
  8 C       -1.3570     1.5070    -0.1960 C.ar  1 <1>  -0.1500 
  9 C        2.5250    -1.0510    -1.0920 C.3   1 <1>  -0.2400 
 10 C        0.2330    -1.9720    -0.8480 C.3   1 <1>  -0.2400 
 11 C        2.0520    -2.5680     0.8120 C.3   1 <1>  -0.2400 
 12 C       -3.7090     0.0500    -0.3360 C.ar  1 <1>   0.1000 
 13 C       -2.3720     1.9130    -1.0470 C.ar  1 <1>  -0.1500 
 14 N       -4.8810    -0.6790    -0.3970 N.pl3 1 <1>  -0.9000 
 15 C       -3.5430     1.1840    -1.1170 C.ar  1 <1>  -0.1500 
 16 H        1.9720    -0.1430     1.3090 H     1 <1>   0.4200 
 17 H       -2.8100    -1.2280     1.1070 H     1 <1>   0.1500 
 18 H       -0.4450     2.0770    -0.1430 H     1 <1>   0.1500 
 19 H        2.1480    -0.2670    -1.7240 H     1 <1>   0.0800 
 20 H        2.8020    -1.8810    -1.7180 H     1 <1>   0.0800 
 21 H        3.4090    -0.6990    -0.5920 H     1 <1>   0.0800 
 22 H       -0.1920    -1.1810    -1.4400 H     1 <1>   0.0800 
 23 H       -0.5130    -2.3650    -0.1830 H     1 <1>   0.0800 
 24 H        0.5160    -2.7690    -1.5130 H     1 <1>   0.0800 
 25 H        2.8840    -2.1920     1.3790 H     1 <1>   0.0800 
 26 H        2.4020    -3.3830     0.2060 H     1 <1>   0.0800 
 27 H        1.3200    -2.9690     1.4860 H     1 <1>   0.0800 
 28 H       -2.2470     2.7940    -1.6530 H     1 <1>   0.1500 
 29 H       -5.7070    -0.1890    -0.7490 H     1 <1>   0.4000 
 30 H       -5.0990    -1.2680     0.4120 H     1 <1>   0.4000 
 31 H       -4.3300     1.4910    -1.7800 H     1 <1>   0.1500 
@<TRIPOS>BOND
  1   1   2  2   
  2   1   3  2   
  3   1   4  am  
  4   1   5  1   
  5   4   6  1   
  6   4  16  1   
  7   5   7  ar  
  8   5   8  ar  
  9   6   9  1   
 10   6  10  1   
 11   6  11  1   
 12   7  12  ar  
 13   7  17  1   
 14   8  13  ar  
 15   8  18  1   
 16   9  19  1   
 17   9  20  1   
 18   9  21  1   
 19  10  22  1   
 20  10  23  1   
 21  10  24  1   
 22  11  25  1   
 23  11  26  1   
 24  11  27  1   
 25  12  14  1   
 26  12  15  ar  
 27  13  15  ar  
 28  13  28  1   
 29  14  29  1   
 30  14  30  1   
 31  15  31  1   
@<TRIPOS>SUBSTRUCTURE
  1 ****   5 GROUP 4 **** **** 0

# MOE 2024.06 (io_trps.svl 2023.06)
