@<TRIPOS>MOLECULE
N-(5-Methoxy-2-oxo-1-propyl-2,3-dihydro-1H-indol-3-yl)-acetamide
37 38 1 0 0 
SMALL
USER_CHARGES


@<TRIPOS>ATOM
  1 O       -0.5720    -0.1670     0.0180 O.2   1 <1>  -0.5700 
  2 C       -1.6400     0.3980     0.1010 C.2   1 <1>   0.5690 
  3 N       -2.8260    -0.1850     0.4500 N.am  1 <1>  -0.4770 
  4 C       -1.8630     1.8870    -0.2190 C.3   1 <1>   0.4250 
  5 C       -3.8550     0.7530     0.3840 C.ar  1 <1>   0.1170 
  6 C       -2.9820    -1.6070     0.8270 C.3   1 <1>   0.1400 
  7 N       -1.1930     2.8400     0.7010 N.am  1 <1>  -0.7300 
  8 C       -3.3630     1.9850    -0.0040 C.ar  1 <1>  -0.1430 
  9 C       -5.2080     0.5940     0.6430 C.ar  1 <1>  -0.1500 
 10 C       -3.4690    -2.4160    -0.3780 C.3   1 <1>  -0.1600 
 11 C        0.0680     3.3090     0.6410 C.2   1 <1>   0.5690 
 12 C       -4.1960     3.0810    -0.1400 C.ar  1 <1>  -0.1500 
 13 C       -6.0500     1.6850     0.5080 C.ar  1 <1>  -0.1500 
 14 C       -3.6610    -3.8930    -0.0190 C.3   1 <1>  -0.2400 
 15 O        0.4600     4.0780     1.4780 O.2   1 <1>  -0.5700 
 16 C        1.0010     2.8930    -0.4700 C.3   1 <1>  -0.1790 
 17 C       -5.5570     2.9260     0.1210 C.ar  1 <1>   0.0820 
 18 O       -6.4620     3.9340     0.0210 O.3   1 <1>  -0.3630 
 19 C       -6.0600     5.2440    -0.3170 C.3   1 <1>   0.0400 
 20 H       -1.6060     2.0880    -1.2430 H     1 <1>   0.0800 
 21 H       -3.6820    -1.6840     1.6400 H     1 <1>   0.0800 
 22 H       -2.0320    -1.9900     1.1630 H     1 <1>   0.0800 
 23 H       -1.7370     3.1020     1.5240 H     1 <1>   0.3700 
 24 H       -5.5980    -0.3610     0.9440 H     1 <1>   0.1500 
 25 H       -2.7440    -2.3380    -1.1710 H     1 <1>   0.0800 
 26 H       -4.4040    -2.0140    -0.7300 H     1 <1>   0.0800 
 27 H       -3.7810     4.0250    -0.4400 H     1 <1>   0.1500 
 28 H       -7.1030     1.5850     0.7040 H     1 <1>   0.1500 
 29 H       -2.7320    -4.3230     0.3150 H     1 <1>   0.0800 
 30 H       -3.9980    -4.4400    -0.8820 H     1 <1>   0.0800 
 31 H       -4.3950    -4.0010     0.7610 H     1 <1>   0.0800 
 32 H        0.5860     3.1600    -1.4220 H     1 <1>   0.0800 
 33 H        1.1680     1.8330    -0.4290 H     1 <1>   0.0800 
 34 H        1.9450     3.3920    -0.3520 H     1 <1>   0.0800 
 35 H       -6.9330     5.8710    -0.3170 H     1 <1>   0.0800 
 36 H       -5.6190     5.2320    -1.2990 H     1 <1>   0.0800 
 37 H       -5.3580     5.5950     0.4180 H     1 <1>   0.0800 
@<TRIPOS>BOND
  1   1   2  2   
  2   2   3  am  
  3   2   4  1   
  4   3   5  1   
  5   3   6  1   
  6   4   7  1   
  7   4   8  1   
  8   4  20  1   
  9   5   8  ar  
 10   5   9  ar  
 11   6  10  1   
 12   6  21  1   
 13   6  22  1   
 14   7  11  am  
 15   7  23  1   
 16   8  12  ar  
 17   9  13  ar  
 18   9  24  1   
 19  10  14  1   
 20  10  25  1   
 21  10  26  1   
 22  11  15  2   
 23  11  16  1   
 24  12  17  ar  
 25  12  27  1   
 26  13  17  ar  
 27  13  28  1   
 28  14  29  1   
 29  14  30  1   
 30  14  31  1   
 31  16  32  1   
 32  16  33  1   
 33  16  34  1   
 34  17  18  1   
 35  18  19  1   
 36  19  35  1   
 37  19  36  1   
 38  19  37  1   
@<TRIPOS>SUBSTRUCTURE
  1 ****   8 GROUP 4 **** **** 0

# MOE 2024.06 (io_trps.svl 2023.06)
