@<TRIPOS>MOLECULE
3-Isopropyl-6-phenethyl-[1,2,4]triazolo[3,4-b][1,3,4]thiadiazole
35 37 1 0 0 
SMALL
USER_CHARGES


@<TRIPOS>ATOM
  1 S       -0.7420     0.2130     1.7610 S.3   1 <1>  -0.1970 
  2 C        0.2550     1.6160     1.4390 C.2   1 <1>   0.2420 
  3 C       -2.0340     0.9770     0.8140 C.2   1 <1>   0.5300 
  4 N        1.4440     1.9970     1.7390 N.2   1 <1>  -0.3380 
  5 N       -0.4350     2.4660     0.6990 N.pl3 1 <1>   0.5050 
  6 N       -1.7410     2.1180     0.3340 N.2   1 <1>  -0.6520 
  7 C       -3.3200     0.1850     0.6930 C.3   1 <1>  -0.0990 
  8 N        1.5650     3.2050     1.1540 N.2   1 <1>  -0.3380 
  9 C        0.4460     3.4670     0.5430 C.2   1 <1>   0.0070 
 10 C       -4.3920     0.9130    -0.1290 C.3   1 <1>  -0.0170 
 11 C        0.1100     4.7230    -0.2540 C.3   1 <1>   0.1000 
 12 C       -5.6490     0.0660    -0.2110 C.ar  1 <1>  -0.1440 
 13 C        1.3690     5.3940    -0.8180 C.3   1 <1>  -0.2400 
 14 C       -0.6630     5.7110     0.6270 C.3   1 <1>  -0.2400 
 15 C       -6.6400     0.1900     0.7510 C.ar  1 <1>  -0.1500 
 16 C       -5.8150    -0.8430    -1.2450 C.ar  1 <1>  -0.1500 
 17 C       -7.7830    -0.5870     0.6810 C.ar  1 <1>  -0.1500 
 18 C       -6.9570    -1.6210    -1.3150 C.ar  1 <1>  -0.1500 
 19 C       -7.9420    -1.4940    -0.3520 C.ar  1 <1>  -0.1500 
 20 H       -3.7000    -0.0070     1.6800 H     1 <1>   0.0800 
 21 H       -3.1000    -0.7600     0.2310 H     1 <1>   0.0800 
 22 H       -4.0230     1.1090    -1.1220 H     1 <1>   0.0800 
 23 H       -4.6230     1.8610     0.3250 H     1 <1>   0.0800 
 24 H       -0.5160     4.4420    -1.0840 H     1 <1>   0.0800 
 25 H        2.0130     5.7170    -0.0190 H     1 <1>   0.0800 
 26 H        1.1060     6.2470    -1.4170 H     1 <1>   0.0800 
 27 H        1.9130     4.6970    -1.4310 H     1 <1>   0.0800 
 28 H       -0.0660     5.9980     1.4750 H     1 <1>   0.0800 
 29 H       -1.5720     5.2600     0.9830 H     1 <1>   0.0800 
 30 H       -0.9170     6.5940     0.0670 H     1 <1>   0.0800 
 31 H       -6.5280     0.8910     1.5590 H     1 <1>   0.1500 
 32 H       -5.0560    -0.9500    -2.0000 H     1 <1>   0.1500 
 33 H       -8.5490    -0.4870     1.4300 H     1 <1>   0.1500 
 34 H       -7.0810    -2.3240    -2.1200 H     1 <1>   0.1500 
 35 H       -8.8310    -2.0980    -0.4060 H     1 <1>   0.1500 
@<TRIPOS>BOND
  1   1   2  1   
  2   1   3  1   
  3   2   4  2   
  4   2   5  1   
  5   3   6  2   
  6   3   7  1   
  7   4   8  1   
  8   5   6  1   
  9   5   9  1   
 10   7  10  1   
 11   7  20  1   
 12   7  21  1   
 13   8   9  2   
 14   9  11  1   
 15  10  12  1   
 16  10  22  1   
 17  10  23  1   
 18  11  13  1   
 19  11  14  1   
 20  11  24  1   
 21  12  15  ar  
 22  12  16  ar  
 23  13  25  1   
 24  13  26  1   
 25  13  27  1   
 26  14  28  1   
 27  14  29  1   
 28  14  30  1   
 29  15  17  ar  
 30  15  31  1   
 31  16  18  ar  
 32  16  32  1   
 33  17  19  ar  
 34  17  33  1   
 35  18  19  ar  
 36  18  34  1   
 37  19  35  1   
@<TRIPOS>SUBSTRUCTURE
  1 ****   3 GROUP 4 **** **** 0

# MOE 2024.06 (io_trps.svl 2023.06)
