@<TRIPOS>MOLECULE
2-(4,6-Dimethyl-pyrimidin-2-ylsulfanyl)-N-(5-trifluoromethyl-[1,3,4]thiadiazol-2
35 36 1 0 0 
SMALL
USER_CHARGES


@<TRIPOS>ATOM
  1 S        1.3750     1.5910    -0.8740 S.3   1 <1>  -0.0800 
  2 C        1.7400     0.3500     0.2780 C.2   1 <1>   0.4420 
  3 C       -0.1910     1.7280    -0.1370 C.2   1 <1>   0.1980 
  4 N        0.7590     0.1280     1.0730 N.2   1 <1>  -0.3380 
  5 N        2.9890    -0.2250     0.1920 N.am  1 <1>  -0.4940 
  6 N       -0.3350     0.9120     0.8340 N.2   1 <1>  -0.3380 
  7 C       -1.1560     2.7640    -0.7230 C.3   1 <1>   1.2000 
  8 C        3.5740    -1.1740     0.9860 C.2   1 <1>   0.5690 
  9 F       -2.3310     2.8110    -0.1040 F     1 <1>  -0.3400 
 10 F       -0.6620     3.9980    -0.6700 F     1 <1>  -0.3400 
 11 F       -1.4250     2.5330    -2.0050 F     1 <1>  -0.3400 
 12 O        3.0430    -1.6290     1.9670 O.2   1 <1>  -0.5700 
 13 C        4.9650    -1.6900     0.6060 C.3   1 <1>   0.2110 
 14 S        5.7980    -0.4830    -0.5430 S.3   1 <1>  -0.3320 
 15 C        4.9160    -3.0440    -0.1150 C.3   1 <1>  -0.2400 
 16 C        7.5490    -0.7050    -0.2810 C.ar  1 <1>   0.7220 
 17 N        7.8970    -1.6090     0.6200 N.ar  1 <1>  -0.6200 
 18 N        8.3110     0.0720    -1.0280 N.ar  1 <1>  -0.6200 
 19 C        9.1920    -1.7430     0.7860 C.ar  1 <1>   0.1670 
 20 C        9.6000    -0.0840    -0.8410 C.ar  1 <1>   0.1670 
 21 C       10.0950    -0.9920     0.0680 C.ar  1 <1>  -0.1500 
 22 C        9.6510    -2.7640     1.8060 C.3   1 <1>  -0.0970 
 23 C       10.5230     0.7820    -1.6720 C.3   1 <1>  -0.0970 
 24 H        3.5870     0.1220    -0.5570 H     1 <1>   0.3700 
 25 H        5.5580    -1.7530     1.5000 H     1 <1>   0.0800 
 26 H        4.3460    -2.9660    -1.0240 H     1 <1>   0.0800 
 27 H        4.4520    -3.7760     0.5220 H     1 <1>   0.0800 
 28 H        5.9110    -3.3780    -0.3490 H     1 <1>   0.0800 
 29 H       11.1520    -1.1100     0.2120 H     1 <1>   0.1500 
 30 H        9.2530    -2.5120     2.7720 H     1 <1>   0.0800 
 31 H       10.7230    -2.7930     1.8690 H     1 <1>   0.0800 
 32 H        9.2920    -3.7380     1.5270 H     1 <1>   0.0800 
 33 H       10.3210     1.8190    -1.4720 H     1 <1>   0.0800 
 34 H       10.3500     0.5930    -2.7160 H     1 <1>   0.0800 
 35 H       11.5540     0.5790    -1.4480 H     1 <1>   0.0800 
@<TRIPOS>BOND
  1   1   2  1   
  2   1   3  1   
  3   2   4  2   
  4   2   5  1   
  5   3   6  2   
  6   3   7  1   
  7   4   6  1   
  8   5   8  am  
  9   5  24  1   
 10   7   9  1   
 11   7  10  1   
 12   7  11  1   
 13   8  12  2   
 14   8  13  1   
 15  13  14  1   
 16  13  15  1   
 17  13  25  1   
 18  14  16  1   
 19  15  26  1   
 20  15  27  1   
 21  15  28  1   
 22  16  17  ar  
 23  16  18  ar  
 24  17  19  ar  
 25  18  20  ar  
 26  19  21  ar  
 27  19  22  1   
 28  20  21  ar  
 29  20  23  1   
 30  21  29  1   
 31  22  30  1   
 32  22  31  1   
 33  22  32  1   
 34  23  33  1   
 35  23  34  1   
 36  23  35  1   
@<TRIPOS>SUBSTRUCTURE
  1 ****   5 GROUP 4 **** **** 0

# MOE 2024.06 (io_trps.svl 2023.06)
