@<TRIPOS>MOLECULE
1-(3,4-Dimethoxy-benzenesulfonyl)-piperidine-3-carboxylic acid
40 41 1 0 0 
SMALL
USER_CHARGES


@<TRIPOS>ATOM
  1 S        0.1410    -0.1280     2.3800 S.o2  1 <1>   1.4470 
  2 O       -0.4300    -1.1940     3.1760 O.2   1 <1>  -0.6500 
  3 O        0.9120     0.8880     3.0670 O.2   1 <1>  -0.6500 
  4 N        1.1730    -0.8490     1.2500 N.am  1 <1>  -0.8490 
  5 C       -1.1870     0.6530     1.4140 C.ar  1 <1>  -0.0090 
  6 C        1.9610     0.1190     0.4760 C.3   1 <1>   0.1960 
  7 C        2.0160    -1.8900     1.8450 C.3   1 <1>   0.1960 
  8 C       -1.4240     0.3420     0.0780 C.ar  1 <1>  -0.1500 
  9 C       -2.0250     1.5820     2.0170 C.ar  1 <1>  -0.1500 
 10 C        2.5970    -0.5500    -0.7560 C.3   1 <1>  -0.1860 
 11 C        3.1030    -2.4020     0.8780 C.3   1 <1>  -0.1600 
 12 C       -2.4440     0.9460    -0.6520 C.ar  1 <1>   0.0820 
 13 C       -3.0510     2.1870     1.3140 C.ar  1 <1>  -0.1500 
 14 C        1.8350    -0.1340    -2.0040 C.2   1 <1>   0.9060 
 15 C        2.7720    -2.0790    -0.5840 C.3   1 <1>  -0.1600 
 16 O       -2.6460     0.6090    -1.9570 O.3   1 <1>  -0.3630 
 17 C       -3.2710     1.8900    -0.0200 C.ar  1 <1>   0.0820 
 18 O        1.2950    -0.9760    -2.7290 O.co2 1 <1>  -0.9000 
 19 O        1.7640     1.0730    -2.2570 O.co2 1 <1>  -0.9000 
 20 C       -1.5450     0.2430    -2.7690 C.3   1 <1>   0.0400 
 21 O       -4.2980     2.5770    -0.5960 O.3   1 <1>  -0.3630 
 22 C       -4.3110     2.8510    -1.9800 C.3   1 <1>   0.0400 
 23 H        2.7370     0.5240     1.1040 H     1 <1>   0.0800 
 24 H        1.3420     0.9450     0.1650 H     1 <1>   0.0800 
 25 H        1.3820    -2.7160     2.1230 H     1 <1>   0.0800 
 26 H        2.4840    -1.5150     2.7410 H     1 <1>   0.0800 
 27 H       -0.7950    -0.3930    -0.3940 H     1 <1>   0.1500 
 28 H       -1.8700     1.8350     3.0520 H     1 <1>   0.1500 
 29 H        3.5710    -0.1160    -0.8740 H     1 <1>   0.0800 
 30 H        3.2200    -3.4630     1.0040 H     1 <1>   0.0800 
 31 H        4.0400    -1.9410     1.1350 H     1 <1>   0.0800 
 32 H       -3.6890     2.9030     1.7980 H     1 <1>   0.1500 
 33 H        3.5370    -2.4390    -1.2490 H     1 <1>   0.0800 
 34 H        1.8500    -2.5740    -0.8430 H     1 <1>   0.0800 
 35 H       -1.8550     0.2630    -3.7970 H     1 <1>   0.0800 
 36 H       -1.2230    -0.7500    -2.5130 H     1 <1>   0.0800 
 37 H       -0.7420     0.9460    -2.6220 H     1 <1>   0.0800 
 38 H       -5.0100     3.6460    -2.1580 H     1 <1>   0.0800 
 39 H       -4.6240     1.9660    -2.5050 H     1 <1>   0.0800 
 40 H       -3.3240     3.1480    -2.2890 H     1 <1>   0.0800 
@<TRIPOS>BOND
  1   1   2  2   
  2   1   3  2   
  3   1   4  am  
  4   1   5  1   
  5   4   6  1   
  6   4   7  1   
  7   5   8  ar  
  8   5   9  ar  
  9   6  10  1   
 10   6  23  1   
 11   6  24  1   
 12   7  11  1   
 13   7  25  1   
 14   7  26  1   
 15   8  12  ar  
 16   8  27  1   
 17   9  13  ar  
 18   9  28  1   
 19  10  14  1   
 20  10  15  1   
 21  10  29  1   
 22  11  15  1   
 23  11  30  1   
 24  11  31  1   
 25  12  16  1   
 26  12  17  ar  
 27  13  17  ar  
 28  13  32  1   
 29  14  18  ar  
 30  14  19  ar  
 31  15  33  1   
 32  15  34  1   
 33  16  20  1   
 34  17  21  1   
 35  20  35  1   
 36  20  36  1   
 37  20  37  1   
 38  21  22  1   
 39  22  38  1   
 40  22  39  1   
 41  22  40  1   
@<TRIPOS>SUBSTRUCTURE
  1 ****   8 GROUP 4 **** **** 0

# MOE 2024.06 (io_trps.svl 2023.06)
