@<TRIPOS>MOLECULE
N-Benzo[1,3]dioxol-5-yl-2-{3-ethyl-2-[(Z)-ethylimino]-4-oxo-thiazolidin-5-yl}-ac
44 46 1 0 0 
SMALL
USER_CHARGES


@<TRIPOS>ATOM
  1 S       -0.4840    -0.2300    -0.1210 S.3   1 <1>  -0.3610 
  2 C        1.0320    -0.9130    -0.6340 C.cat 1 <1>   0.8400 
  3 C        0.2810     1.1380     0.8400 C.3   1 <1>   0.2110 
  4 N        1.0610    -2.0100    -1.3470 N.pl3 1 <1>  -0.7940 
  5 N        2.0620    -0.1930    -0.2180 N.pl3 1 <1>  -0.7250 
  6 C        1.7610     0.9270     0.5460 C.2   1 <1>   0.8900 
  7 C       -0.2950     2.4830     0.3650 C.3   1 <1>  -0.0990 
  8 C       -0.0820    -2.8350    -1.8030 C.3   1 <1>   0.3290 
  9 C        3.4860    -0.5000    -0.5020 C.3   1 <1>   0.3300 
 10 O        2.5990     1.6910     0.9380 O.2   1 <1>  -0.5700 
 11 C       -1.7320     2.6470     0.8100 C.2   1 <1>   0.5690 
 12 C        0.1680    -4.2730    -1.3680 C.3   1 <1>  -0.2400 
 13 C        4.0320    -1.4100     0.5950 C.3   1 <1>  -0.2400 
 14 O       -2.0290     2.2300     1.9010 O.2   1 <1>  -0.5700 
 15 N       -2.6030     3.2780    -0.0320 N.am  1 <1>  -0.5470 
 16 C       -3.9710     3.5690     0.1170 C.ar  1 <1>   0.1170 
 17 C       -4.5040     4.6230    -0.6250 C.ar  1 <1>  -0.1500 
 18 C       -4.8160     2.8380     0.9620 C.ar  1 <1>  -0.1500 
 19 C       -5.8460     4.9130    -0.4950 C.ar  1 <1>   0.0820 
 20 C       -6.1650     3.1440     1.0810 C.ar  1 <1>  -0.1500 
 21 O       -6.5480     5.8730    -1.1070 O.3   1 <1>  -0.3620 
 22 C       -6.6560     4.1950     0.3340 C.ar  1 <1>   0.0820 
 23 C       -7.8890     5.7620    -0.6340 C.3   1 <1>   0.4000 
 24 O       -7.9070     4.6710     0.2840 O.3   1 <1>  -0.3620 
 25 H        0.0890     0.9570     1.8830 H     1 <1>   0.0800 
 26 H        1.9560    -2.4030    -1.6350 H     1 <1>   0.4500 
 27 H        0.2720     3.2830     0.8050 H     1 <1>   0.0800 
 28 H       -0.2210     2.5620    -0.7040 H     1 <1>   0.0800 
 29 H       -1.0130    -2.4910    -1.3850 H     1 <1>   0.0800 
 30 H       -0.1570    -2.7860    -2.8780 H     1 <1>   0.0800 
 31 H        3.5790    -0.9850    -1.4590 H     1 <1>   0.0800 
 32 H        4.0680     0.4070    -0.5450 H     1 <1>   0.0800 
 33 H        0.2380    -4.3370    -0.2970 H     1 <1>   0.0800 
 34 H        1.0670    -4.6590    -1.8140 H     1 <1>   0.0800 
 35 H       -0.6540    -4.8900    -1.6860 H     1 <1>   0.0800 
 36 H        3.4780    -2.3300     0.6490 H     1 <1>   0.0800 
 37 H        3.9950    -0.9120     1.5480 H     1 <1>   0.0800 
 38 H        5.0610    -1.6460     0.3860 H     1 <1>   0.0800 
 39 H       -2.1970     3.6710    -0.8790 H     1 <1>   0.3700 
 40 H       -3.8970     5.2110    -1.2850 H     1 <1>   0.1500 
 41 H       -4.4240     2.0180     1.5350 H     1 <1>   0.1500 
 42 H       -6.8170     2.5880     1.7300 H     1 <1>   0.1500 
 43 H       -8.1670     6.6670    -0.1230 H     1 <1>   0.0800 
 44 H       -8.5470     5.5520    -1.4590 H     1 <1>   0.0800 
@<TRIPOS>BOND
  1   1   2  1   
  2   1   3  1   
  3   2   4  ar  
  4   2   5  ar  
  5   3   6  1   
  6   3   7  1   
  7   3  25  1   
  8   4   8  1   
  9   4  26  1   
 10   5   6  1   
 11   5   9  1   
 12   6  10  2   
 13   7  11  1   
 14   7  27  1   
 15   7  28  1   
 16   8  12  1   
 17   8  29  1   
 18   8  30  1   
 19   9  13  1   
 20   9  31  1   
 21   9  32  1   
 22  11  14  2   
 23  11  15  am  
 24  12  33  1   
 25  12  34  1   
 26  12  35  1   
 27  13  36  1   
 28  13  37  1   
 29  13  38  1   
 30  15  16  1   
 31  15  39  1   
 32  16  17  ar  
 33  16  18  ar  
 34  17  19  ar  
 35  17  40  1   
 36  18  20  ar  
 37  18  41  1   
 38  19  21  1   
 39  19  22  ar  
 40  20  22  ar  
 41  20  42  1   
 42  21  23  1   
 43  22  24  1   
 44  23  24  1   
 45  23  43  1   
 46  23  44  1   
@<TRIPOS>SUBSTRUCTURE
  1 ****  11 GROUP 4 **** **** 0

# MOE 2024.06 (io_trps.svl 2023.06)
