@<TRIPOS>MOLECULE
N-(2-Cyclohexyl-1,2,3,4-tetrahydro-benzo[4,5]imidazo[1,2-a]pyrazin-8-yl)-propion
51 54 1 0 0 
SMALL
USER_CHARGES


@<TRIPOS>ATOM
  1 O       -0.0990     0.3200     0.9500 O.2   1 <1>  -0.5700 
  2 C        0.2070     1.4040     0.5230 C.2   1 <1>   0.5690 
  3 N        1.4900     1.7860     0.2490 N.am  1 <1>  -0.5470 
  4 C       -0.8930     2.4250     0.2850 C.3   1 <1>  -0.0990 
  5 C        2.7100     1.0940     0.3600 C.ar  1 <1>   0.1170 
  6 C       -1.1040     2.7410    -1.2050 C.3   1 <1>  -0.2400 
  7 C        3.8810     1.8220     0.4520 C.ar  1 <1>  -0.1500 
  8 C        2.7810    -0.3120     0.3620 C.ar  1 <1>  -0.1500 
  9 C        5.1020     1.1650     0.5540 C.ar  1 <1>   0.2270 
 10 C        3.9830    -0.9740     0.4650 C.ar  1 <1>  -0.1500 
 11 N        6.3590     1.6850     0.6480 N.2   1 <1>  -0.5650 
 12 C        5.1510    -0.2160     0.5650 C.ar  1 <1>  -0.1520 
 13 C        7.1230     0.6550     0.7190 C.2   1 <1>   0.0060 
 14 N        6.4660    -0.5310     0.6790 N.pl3 1 <1>   0.0480 
 15 C        8.6340     0.7060     0.8320 C.3   1 <1>   0.5230 
 16 C        7.0970    -1.8560     0.5850 C.3   1 <1>   0.0960 
 17 N        9.2490    -0.5380     0.2450 N.4   1 <1>  -0.9590 
 18 C        8.6070    -1.7570     0.8670 C.3   1 <1>   0.3430 
 19 C       10.7450    -0.5230     0.3400 C.3   1 <1>   0.4230 
 20 C       11.3100     0.7230    -0.3730 C.3   1 <1>  -0.1600 
 21 C       11.3320    -1.8030    -0.2880 C.3   1 <1>  -0.1600 
 22 C       12.8450     0.7310    -0.3990 C.3   1 <1>  -0.1600 
 23 C       12.8670    -1.7870    -0.3150 C.3   1 <1>  -0.1600 
 24 C       13.3980    -0.5460    -1.0360 C.3   1 <1>  -0.1600 
 25 H        1.5850     2.7520    -0.0560 H     1 <1>   0.3700 
 26 H       -0.6530     3.3250     0.8200 H     1 <1>   0.0800 
 27 H       -1.8090     2.0380     0.6950 H     1 <1>   0.0800 
 28 H       -0.2160     3.1660    -1.6380 H     1 <1>   0.0800 
 29 H       -1.9120     3.4410    -1.3230 H     1 <1>   0.0800 
 30 H       -1.3510     1.8400    -1.7400 H     1 <1>   0.0800 
 31 H        3.8800     2.8950     0.4530 H     1 <1>   0.1500 
 32 H        1.8740    -0.8830     0.2780 H     1 <1>   0.1500 
 33 H        4.0170    -2.0490     0.4700 H     1 <1>   0.1500 
 34 H        8.9030     0.8010     1.8710 H     1 <1>   0.0800 
 35 H        8.9760     1.5850     0.3120 H     1 <1>   0.0800 
 36 H        6.9310    -2.2430    -0.4040 H     1 <1>   0.0800 
 37 H        6.6300    -2.5210     1.2910 H     1 <1>   0.0800 
 38 H        9.0160    -0.5180    -0.7560 H     1 <1>   0.4500 
 39 H        9.0690    -2.6560     0.4960 H     1 <1>   0.0800 
 40 H        8.7580    -1.7330     1.9350 H     1 <1>   0.0800 
 41 H       11.0420    -0.4860     1.3760 H     1 <1>   0.0800 
 42 H       11.0050     1.6240     0.1250 H     1 <1>   0.0800 
 43 H       10.9550     0.7530    -1.3890 H     1 <1>   0.0800 
 44 H       10.9760    -1.9090    -1.2980 H     1 <1>   0.0800 
 45 H       11.0430    -2.6720     0.2740 H     1 <1>   0.0800 
 46 H       13.2270     0.8220     0.6050 H     1 <1>   0.0800 
 47 H       13.1940     1.5860    -0.9560 H     1 <1>   0.0800 
 48 H       13.2310    -2.6700    -0.8150 H     1 <1>   0.0800 
 49 H       13.2510    -1.8040     0.6920 H     1 <1>   0.0800 
 50 H       14.4740    -0.5340    -0.9890 H     1 <1>   0.0800 
 51 H       13.1190    -0.5820    -2.0760 H     1 <1>   0.0800 
@<TRIPOS>BOND
  1   1   2  2   
  2   2   3  am  
  3   2   4  1   
  4   3   5  1   
  5   3  25  1   
  6   4   6  1   
  7   4  26  1   
  8   4  27  1   
  9   5   7  ar  
 10   5   8  ar  
 11   6  28  1   
 12   6  29  1   
 13   6  30  1   
 14   7   9  ar  
 15   7  31  1   
 16   8  10  ar  
 17   8  32  1   
 18   9  11  1   
 19   9  12  ar  
 20  10  12  ar  
 21  10  33  1   
 22  11  13  2   
 23  12  14  1   
 24  13  14  1   
 25  13  15  1   
 26  14  16  1   
 27  15  17  1   
 28  15  34  1   
 29  15  35  1   
 30  16  18  1   
 31  16  36  1   
 32  16  37  1   
 33  17  18  1   
 34  17  19  1   
 35  17  38  1   
 36  18  39  1   
 37  18  40  1   
 38  19  20  1   
 39  19  21  1   
 40  19  41  1   
 41  20  22  1   
 42  20  42  1   
 43  20  43  1   
 44  21  23  1   
 45  21  44  1   
 46  21  45  1   
 47  22  24  1   
 48  22  46  1   
 49  22  47  1   
 50  23  24  1   
 51  23  48  1   
 52  23  49  1   
 53  24  50  1   
 54  24  51  1   
@<TRIPOS>SUBSTRUCTURE
  1 ****  14 GROUP 4 **** **** 0

# MOE 2024.06 (io_trps.svl 2023.06)
