@<TRIPOS>MOLECULE
N-[1-(4-Allyl-5-mercapto-4H-[1,2,4]triazol-3-yl)-2-methyl-propyl]-3-methyl-benza
45 46 1 0 0 
SMALL
USER_CHARGES


@<TRIPOS>ATOM
  1 S       -0.6670    -1.5090     1.7930 S.3   1 <1>  -0.9360 
  2 C       -2.1010    -0.7530     1.7240 C.cat 1 <1>   0.7360 
  3 N       -2.5290     0.1140     2.6130 N.pl3 1 <1>  -0.3930 
  4 N       -3.0000    -0.8510     0.7680 N.pl3 1 <1>  -0.7640 
  5 N       -3.7350     0.6320     2.2390 N.2   1 <1>  -0.2600 
  6 C       -3.9960     0.0420     1.1240 C.2   1 <1>   0.4850 
  7 C       -2.8960    -1.8240    -0.3230 C.3   1 <1>   0.4920 
  8 C       -5.2470     0.3710     0.2760 C.3   1 <1>   0.3880 
  9 C       -3.4940    -3.1460     0.1260 C.2   1 <1>  -0.2880 
 10 N       -5.9980    -0.8440    -0.1500 N.am  1 <1>  -0.7300 
 11 C       -4.9080     1.2300    -0.9720 C.3   1 <1>  -0.0800 
 12 C       -2.8730    -4.3300     0.1000 C.2   1 <1>  -0.3000 
 13 C       -6.8040    -1.5480     0.6950 C.2   1 <1>   0.5440 
 14 C       -4.1660     2.5250    -0.5940 C.3   1 <1>  -0.2400 
 15 C       -6.1630     1.6110    -1.7820 C.3   1 <1>  -0.2400 
 16 O       -6.8500    -1.1920     1.8540 O.2   1 <1>  -0.5700 
 17 C       -7.5880    -2.6730     0.2150 C.ar  1 <1>   0.0860 
 18 C       -8.7740    -3.0400     0.8530 C.ar  1 <1>  -0.1500 
 19 C       -7.1960    -3.4300    -0.8910 C.ar  1 <1>  -0.1500 
 20 C       -9.5450    -4.1010     0.4090 C.ar  1 <1>  -0.1430 
 21 C       -7.9600    -4.4890    -1.3450 C.ar  1 <1>  -0.1500 
 22 C       -9.1350    -4.8230    -0.6970 C.ar  1 <1>  -0.1500 
 23 C      -10.8330    -4.4740     1.1220 C.3   1 <1>  -0.0970 
 24 H       -1.9820     0.3250     3.4460 H     1 <1>   0.4500 
 25 H       -1.8620    -1.9620    -0.5960 H     1 <1>   0.0800 
 26 H       -3.4210    -1.4620    -1.1870 H     1 <1>   0.0800 
 27 H       -5.9000     0.9550     0.9030 H     1 <1>   0.0800 
 28 H       -4.4950    -3.0390     0.4980 H     1 <1>   0.1500 
 29 H       -6.1270    -0.9500    -1.1550 H     1 <1>   0.3700 
 30 H       -4.2530     0.6630    -1.6090 H     1 <1>   0.0800 
 31 H       -3.3180    -5.2510     0.4350 H     1 <1>   0.1500 
 32 H       -1.8610    -4.4770    -0.2430 H     1 <1>   0.1500 
 33 H       -4.7540     3.1200     0.0840 H     1 <1>   0.0800 
 34 H       -3.9660     3.1140    -1.4720 H     1 <1>   0.0800 
 35 H       -3.2190     2.3100    -0.1280 H     1 <1>   0.0800 
 36 H       -6.8580     2.1580    -1.1680 H     1 <1>   0.0800 
 37 H       -6.6640     0.7420    -2.1700 H     1 <1>   0.0800 
 38 H       -5.8940     2.2310    -2.6200 H     1 <1>   0.0800 
 39 H       -9.0880    -2.4760     1.7150 H     1 <1>   0.1500 
 40 H       -6.2800    -3.1990    -1.4020 H     1 <1>   0.1500 
 41 H       -7.6410    -5.0600    -2.2000 H     1 <1>   0.1500 
 42 H       -9.7260    -5.6490    -1.0550 H     1 <1>   0.1500 
 43 H      -10.8810    -4.0100     2.0910 H     1 <1>   0.0800 
 44 H      -10.8880    -5.5400     1.2530 H     1 <1>   0.0800 
 45 H      -11.6780    -4.1510     0.5420 H     1 <1>   0.0800 
@<TRIPOS>BOND
  1   1   2  1   
  2   2   3  ar  
  3   2   4  ar  
  4   3   5  1   
  5   3  24  1   
  6   4   6  1   
  7   4   7  1   
  8   5   6  2   
  9   6   8  1   
 10   7   9  1   
 11   7  25  1   
 12   7  26  1   
 13   8  10  1   
 14   8  11  1   
 15   8  27  1   
 16   9  12  2   
 17   9  28  1   
 18  10  13  am  
 19  10  29  1   
 20  11  14  1   
 21  11  15  1   
 22  11  30  1   
 23  12  31  1   
 24  12  32  1   
 25  13  16  2   
 26  13  17  1   
 27  14  33  1   
 28  14  34  1   
 29  14  35  1   
 30  15  36  1   
 31  15  37  1   
 32  15  38  1   
 33  17  18  ar  
 34  17  19  ar  
 35  18  20  ar  
 36  18  39  1   
 37  19  21  ar  
 38  19  40  1   
 39  20  22  ar  
 40  20  23  1   
 41  21  22  ar  
 42  21  41  1   
 43  22  42  1   
 44  23  43  1   
 45  23  44  1   
 46  23  45  1   
@<TRIPOS>SUBSTRUCTURE
  1 ****  10 GROUP 4 **** **** 0

# MOE 2024.06 (io_trps.svl 2023.06)
