@<TRIPOS>MOLECULE
5-(2-Ethoxy-4-methyl-phenoxymethyl)-4-ethyl-4H-[1,2,4]triazole-3-thiol
39 40 1 0 0 
SMALL
USER_CHARGES


@<TRIPOS>ATOM
  1 S       -0.8400     0.2220    -0.0300 S.3   1 <1>  -0.9360 
  2 C       -0.6320     1.7910    -0.3840 C.cat 1 <1>   0.7360 
  3 N        0.4130     2.2860    -1.0090 N.pl3 1 <1>  -0.3930 
  4 N       -1.4540     2.7820    -0.0960 N.pl3 1 <1>  -0.7640 
  5 N        0.3020     3.6420    -1.1390 N.2   1 <1>  -0.2600 
  6 C       -0.8260     3.9110    -0.5800 C.2   1 <1>   0.4850 
  7 C       -2.7640     2.6220     0.5560 C.3   1 <1>   0.3540 
  8 C       -1.3860     5.3220    -0.4300 C.3   1 <1>   0.2880 
  9 C       -3.8090     2.2620    -0.4960 C.3   1 <1>  -0.2400 
 10 O       -2.6770     5.4180    -1.0050 O.3   1 <1>  -0.3630 
 11 C       -3.5450     6.4110    -0.6590 C.ar  1 <1>   0.0830 
 12 C       -3.1970     7.6630    -0.1220 C.ar  1 <1>   0.0830 
 13 C       -4.8800     6.1140    -0.8770 C.ar  1 <1>  -0.1500 
 14 O       -1.8830     7.9860     0.0580 O.3   1 <1>  -0.3630 
 15 C       -4.2110     8.5610     0.2060 C.ar  1 <1>  -0.1500 
 16 C       -5.8740     7.0190    -0.5530 C.ar  1 <1>  -0.1500 
 17 C       -1.4670     9.3140     0.2820 C.3   1 <1>   0.1200 
 18 C       -5.5430     8.2460    -0.0070 C.ar  1 <1>  -0.1430 
 19 C        0.0580     9.3400     0.2400 C.3   1 <1>  -0.2400 
 20 C       -6.6310     9.2410     0.3570 C.3   1 <1>  -0.0970 
 21 H        1.1680     1.6790    -1.3260 H     1 <1>   0.4500 
 22 H       -3.0390     3.5350     1.0530 H     1 <1>   0.0800 
 23 H       -2.7050     1.8380     1.2930 H     1 <1>   0.0800 
 24 H       -0.7450     6.0260    -0.9280 H     1 <1>   0.0800 
 25 H       -1.4570     5.5630     0.6140 H     1 <1>   0.0800 
 26 H       -3.8510     3.0130    -1.2620 H     1 <1>   0.0800 
 27 H       -4.7750     2.1830    -0.0330 H     1 <1>   0.0800 
 28 H       -3.5660     1.3120    -0.9390 H     1 <1>   0.0800 
 29 H       -5.1450     5.1640    -1.3040 H     1 <1>   0.1500 
 30 H       -3.9850     9.5190     0.6340 H     1 <1>   0.1500 
 31 H       -6.9040     6.7620    -0.7290 H     1 <1>   0.1500 
 32 H       -1.8240     9.6290     1.2480 H     1 <1>   0.0800 
 33 H       -1.8800     9.9390    -0.4920 H     1 <1>   0.0800 
 34 H        0.4620     8.7040     1.0070 H     1 <1>   0.0800 
 35 H        0.4080    10.3430     0.4080 H     1 <1>   0.0800 
 36 H        0.4070     9.0140    -0.7230 H     1 <1>   0.0800 
 37 H       -6.3100    10.2440     0.1410 H     1 <1>   0.0800 
 38 H       -6.8580     9.1660     1.4050 H     1 <1>   0.0800 
 39 H       -7.5270     9.0470    -0.2050 H     1 <1>   0.0800 
@<TRIPOS>BOND
  1   1   2  1   
  2   2   3  ar  
  3   2   4  ar  
  4   3   5  1   
  5   3  21  1   
  6   4   6  1   
  7   4   7  1   
  8   5   6  2   
  9   6   8  1   
 10   7   9  1   
 11   7  22  1   
 12   7  23  1   
 13   8  10  1   
 14   8  24  1   
 15   8  25  1   
 16   9  26  1   
 17   9  27  1   
 18   9  28  1   
 19  10  11  1   
 20  11  12  ar  
 21  11  13  ar  
 22  12  14  1   
 23  12  15  ar  
 24  13  16  ar  
 25  13  29  1   
 26  14  17  1   
 27  15  18  ar  
 28  15  30  1   
 29  16  18  ar  
 30  16  31  1   
 31  17  19  1   
 32  17  32  1   
 33  17  33  1   
 34  18  20  1   
 35  19  34  1   
 36  19  35  1   
 37  19  36  1   
 38  20  37  1   
 39  20  38  1   
 40  20  39  1   
@<TRIPOS>SUBSTRUCTURE
  1 ****  10 GROUP 4 **** **** 0

# MOE 2024.06 (io_trps.svl 2023.06)
