@<TRIPOS>MOLECULE
8-sec-Butylamino-7-(2-hydroxy-3-p-tolyloxy-propyl)-3-methyl-3,7-dihydro-purine-2
57 59 1 0 0 
SMALL
USER_CHARGES


@<TRIPOS>ATOM
  1 O        0.8400    -0.2100     0.0660 O.2   1 <1>  -0.5740 
  2 C        1.8090     0.4950    -0.0920 C.2   1 <1>   0.6870 
  3 N        3.1000     0.0430     0.1410 N.am  1 <1>  -0.4410 
  4 N        1.6190     1.7770    -0.5160 N.am  1 <1>  -0.4950 
  5 C        4.1420     0.9320    -0.0820 C.2   1 <1>   0.4210 
  6 C        3.3570    -1.3500     0.6110 C.3   1 <1>   0.0530 
  7 C        2.6340     2.6630    -0.7390 C.2   1 <1>   0.7000 
  8 N        5.4710     0.7070     0.0690 N.pl3 1 <1>  -0.7030 
  9 C        3.9730     2.2040    -0.5050 C.2   1 <1>   0.2710 
 10 O        2.3660     3.7830    -1.1230 O.2   1 <1>  -0.5740 
 11 C        6.1290     1.8170    -0.2540 C.cat 1 <1>   1.0690 
 12 N        5.2600     2.7780    -0.6120 N.pl3 1 <1>  -0.7670 
 13 N        7.4580     1.8890    -0.2250 N.pl3 1 <1>  -0.7170 
 14 C        5.3680     4.2370    -0.9900 C.3   1 <1>   0.3490 
 15 C        8.4130     0.8350     0.1450 C.3   1 <1>   0.2420 
 16 C        6.7890     4.8150    -1.0370 C.3   1 <1>   0.1940 
 17 C        9.5670     1.4860     0.9150 C.3   1 <1>  -0.1660 
 18 C        8.8750     0.1610    -1.1450 C.3   1 <1>  -0.2460 
 19 O        6.7190     6.1930    -1.1520 O.3   1 <1>  -0.6830 
 20 C        7.6190     4.2690    -2.2100 C.3   1 <1>   0.1130 
 21 C       10.5040     0.4580     1.5630 C.3   1 <1>  -0.2460 
 22 O        8.8970     3.9280    -1.7150 O.3   1 <1>  -0.3680 
 23 C        9.7400     4.9510    -1.4470 C.ar  1 <1>   0.0760 
 24 C       10.1920     5.1280    -0.1500 C.ar  1 <1>  -0.1560 
 25 C       10.1410     5.8250    -2.4470 C.ar  1 <1>  -0.1560 
 26 C       11.0250     6.1900     0.1510 C.ar  1 <1>  -0.1560 
 27 C       10.9730     6.8870    -2.1400 C.ar  1 <1>  -0.1560 
 28 C       11.4170     7.0750    -0.8400 C.ar  1 <1>  -0.1500 
 29 C       12.3290     8.2410    -0.5050 C.3   1 <1>  -0.1030 
 30 H        0.6600     2.0800    -0.6780 H     1 <1>   0.3650 
 31 H        2.4320    -1.8630     0.8160 H     1 <1>   0.0730 
 32 H        3.9380    -1.3320     1.5160 H     1 <1>   0.0730 
 33 H        3.8870    -1.8990    -0.1480 H     1 <1>   0.0730 
 34 H        5.9140    -0.1590     0.3580 H     1 <1>   0.4450 
 35 H        7.9370     2.7120    -0.6070 H     1 <1>   0.4450 
 36 H        4.8040     4.8110    -0.2730 H     1 <1>   0.0730 
 37 H        4.9070     4.3830    -1.9540 H     1 <1>   0.0730 
 38 H        7.9370     0.1090     0.7830 H     1 <1>   0.0730 
 39 H        7.2710     4.6170    -0.0950 H     1 <1>   0.0730 
 40 H        9.1680     2.1050     1.7000 H     1 <1>   0.0730 
 41 H       10.1460     2.1060     0.2530 H     1 <1>   0.0730 
 42 H        9.4040     0.8580    -1.7720 H     1 <1>   0.0730 
 43 H        8.0400    -0.2410    -1.6890 H     1 <1>   0.0730 
 44 H        9.5400    -0.6530    -0.9200 H     1 <1>   0.0730 
 45 H        7.6200     6.5900    -1.1260 H     1 <1>   0.3950 
 46 H        7.7080     4.9830    -3.0110 H     1 <1>   0.0730 
 47 H        7.1880     3.3680    -2.6080 H     1 <1>   0.0730 
 48 H        9.9610    -0.1970     2.2220 H     1 <1>   0.0730 
 49 H       11.2560     0.9670     2.1410 H     1 <1>   0.0730 
 50 H       11.0060    -0.1340     0.8180 H     1 <1>   0.0730 
 51 H        9.8970     4.4500     0.6280 H     1 <1>   0.1440 
 52 H        9.8170     5.6820    -3.4610 H     1 <1>   0.1440 
 53 H       11.3710     6.3280     1.1610 H     1 <1>   0.1440 
 54 H       11.2790     7.5660    -2.9170 H     1 <1>   0.1440 
 55 H       11.7410     9.0860    -0.1950 H     1 <1>   0.0730 
 56 H       12.9140     8.5210    -1.3620 H     1 <1>   0.0730 
 57 H       13.0020     7.9750     0.2910 H     1 <1>   0.0730 
@<TRIPOS>BOND
  1   1   2  2   
  2   2   3  am  
  3   2   4  am  
  4   3   5  1   
  5   3   6  1   
  6   4   7  am  
  7   4  30  1   
  8   5   8  1   
  9   5   9  2   
 10   6  31  1   
 11   6  32  1   
 12   6  33  1   
 13   7   9  1   
 14   7  10  2   
 15   8  11  ar  
 16   8  34  1   
 17   9  12  1   
 18  11  12  ar  
 19  11  13  ar  
 20  12  14  1   
 21  13  15  1   
 22  13  35  1   
 23  14  16  1   
 24  14  36  1   
 25  14  37  1   
 26  15  17  1   
 27  15  18  1   
 28  15  38  1   
 29  16  19  1   
 30  16  20  1   
 31  16  39  1   
 32  17  21  1   
 33  17  40  1   
 34  17  41  1   
 35  18  42  1   
 36  18  43  1   
 37  18  44  1   
 38  19  45  1   
 39  20  22  1   
 40  20  46  1   
 41  20  47  1   
 42  21  48  1   
 43  21  49  1   
 44  21  50  1   
 45  22  23  1   
 46  23  24  ar  
 47  23  25  ar  
 48  24  26  ar  
 49  24  51  1   
 50  25  27  ar  
 51  25  52  1   
 52  26  28  ar  
 53  26  53  1   
 54  27  28  ar  
 55  27  54  1   
 56  28  29  1   
 57  29  55  1   
 58  29  56  1   
 59  29  57  1   
@<TRIPOS>SUBSTRUCTURE
  1 ****  13 GROUP 4 **** **** 0

# MOE 2024.06 (io_trps.svl 2023.06)
