@<TRIPOS>MOLECULE
2-Morpholin-4-yl-succinic acid 1-phenethyl ester
42 43 1 0 0 
SMALL
USER_CHARGES


@<TRIPOS>ATOM
  1 O        0.3520     1.3760     1.3290 O.2   1 <1>  -0.5700 
  2 C        0.0920     1.8440     0.2440 C.2   1 <1>   0.6590 
  3 O        0.9590     1.7490    -0.7660 O.3   1 <1>  -0.4300 
  4 C       -1.2170     2.6070    -0.0740 C.3   1 <1>   0.2510 
  5 C        2.2020     1.0890    -0.6440 C.3   1 <1>   0.1200 
  6 N       -1.2040     4.0520     0.3560 N.3   1 <1>  -0.8100 
  7 C       -2.4290     1.8610     0.5100 C.3   1 <1>  -0.2660 
  8 C        3.2210     2.0360    -0.0080 C.3   1 <1>  -0.0170 
  9 C       -0.0210     4.7600    -0.1760 C.3   1 <1>   0.1100 
 10 C       -2.4270     4.7640    -0.0910 C.3   1 <1>   0.1100 
 11 C       -3.5340     1.8150    -0.5020 C.2   1 <1>   0.9060 
 12 C        4.5790     1.3590     0.0760 C.ar  1 <1>  -0.1440 
 13 C       -0.0430     6.2500     0.2020 C.3   1 <1>   0.1200 
 14 C       -2.3740     6.2660     0.2400 C.3   1 <1>   0.1200 
 15 O       -4.6100     2.3610    -0.2470 O.co2 1 <1>  -0.9000 
 16 O       -3.3110     1.2410    -1.5710 O.co2 1 <1>  -0.9000 
 17 C        4.8900     0.5610     1.1650 C.ar  1 <1>  -0.1500 
 18 C        5.5140     1.5280    -0.9340 C.ar  1 <1>  -0.1500 
 19 O       -1.2100     6.8590    -0.2660 O.3   1 <1>  -0.5600 
 20 C        6.1230    -0.0630     1.2460 C.ar  1 <1>  -0.1500 
 21 C        6.7480     0.9050    -0.8550 C.ar  1 <1>  -0.1500 
 22 C        7.0530     0.1090     0.2350 C.ar  1 <1>  -0.1500 
 23 H       -1.2990     2.5870    -1.1480 H     1 <1>   0.0800 
 24 H        2.5190     0.8080    -1.6320 H     1 <1>   0.0800 
 25 H        2.0720     0.1990    -0.0520 H     1 <1>   0.0800 
 26 H       -2.7670     2.3100     1.4230 H     1 <1>   0.0800 
 27 H       -2.1760     0.8380     0.7110 H     1 <1>   0.0800 
 28 H        2.8970     2.3060     0.9820 H     1 <1>   0.0800 
 29 H        3.2970     2.9310    -0.5980 H     1 <1>   0.0800 
 30 H        0.0110     4.6690    -1.2490 H     1 <1>   0.0800 
 31 H        0.8740     4.3250     0.2290 H     1 <1>   0.0800 
 32 H       -3.2900     4.3560     0.4040 H     1 <1>   0.0800 
 33 H       -2.5660     4.6360    -1.1510 H     1 <1>   0.0800 
 34 H        0.7930     6.7590    -0.2430 H     1 <1>   0.0800 
 35 H        0.0040     6.3660     1.2700 H     1 <1>   0.0800 
 36 H       -2.3980     6.4090     1.3060 H     1 <1>   0.0800 
 37 H       -3.2180     6.7680    -0.1970 H     1 <1>   0.0800 
 38 H        4.1710     0.4210     1.9550 H     1 <1>   0.1500 
 39 H        5.2860     2.1440    -1.7870 H     1 <1>   0.1500 
 40 H        6.3590    -0.6810     2.0940 H     1 <1>   0.1500 
 41 H        7.4700     1.0390    -1.6410 H     1 <1>   0.1500 
 42 H        8.0120    -0.3750     0.2980 H     1 <1>   0.1500 
@<TRIPOS>BOND
  1   1   2  2   
  2   2   3  1   
  3   2   4  1   
  4   3   5  1   
  5   4   6  1   
  6   4   7  1   
  7   4  23  1   
  8   5   8  1   
  9   5  24  1   
 10   5  25  1   
 11   6   9  1   
 12   6  10  1   
 13   7  11  1   
 14   7  26  1   
 15   7  27  1   
 16   8  12  1   
 17   8  28  1   
 18   8  29  1   
 19   9  13  1   
 20   9  30  1   
 21   9  31  1   
 22  10  14  1   
 23  10  32  1   
 24  10  33  1   
 25  11  15  ar  
 26  11  16  ar  
 27  12  17  ar  
 28  12  18  ar  
 29  13  19  1   
 30  13  34  1   
 31  13  35  1   
 32  14  19  1   
 33  14  36  1   
 34  14  37  1   
 35  17  20  ar  
 36  17  38  1   
 37  18  21  ar  
 38  18  39  1   
 39  20  22  ar  
 40  20  40  1   
 41  21  22  ar  
 42  21  41  1   
 43  22  42  1   
@<TRIPOS>SUBSTRUCTURE
  1 ****   2 GROUP 4 **** **** 0

# MOE 2024.06 (io_trps.svl 2023.06)
