@<TRIPOS>MOLECULE
5-Oxo-1-p-tolyl-pyrrolidine-3-carboxylic acid (2-morpholin-4-yl-ethyl)-amide
50 52 1 0 0 
SMALL
USER_CHARGES


@<TRIPOS>ATOM
  1 O        0.7590     0.4760     0.7710 O.2   1 <1>  -0.5700 
  2 C        1.8980     0.6030     0.3960 C.2   1 <1>   0.5690 
  3 N        2.8500    -0.3710     0.2900 N.am  1 <1>  -0.4770 
  4 C        2.4320     1.9390    -0.0410 C.3   1 <1>  -0.0990 
  5 C        2.7280    -1.7500     0.5530 C.ar  1 <1>   0.1170 
  6 C        4.1140     0.1960    -0.2210 C.3   1 <1>   0.1400 
  7 C        3.7170     1.5650    -0.7920 C.3   1 <1>  -0.0190 
  8 C        1.5460    -2.4320     0.2850 C.ar  1 <1>  -0.1500 
  9 C        3.7950    -2.4750     1.0770 C.ar  1 <1>  -0.1500 
 10 C        4.8100     2.6160    -0.6780 C.2   1 <1>   0.5690 
 11 C        1.4340    -3.7900     0.5230 C.ar  1 <1>  -0.1500 
 12 C        3.6870    -3.8340     1.3140 C.ar  1 <1>  -0.1500 
 13 O        5.5060     2.6610     0.3070 O.2   1 <1>  -0.5700 
 14 N        4.9840     3.5090    -1.6880 N.am  1 <1>  -0.7300 
 15 C        2.5050    -4.5010     1.0390 C.ar  1 <1>  -0.1430 
 16 C        6.0750     4.5220    -1.7560 C.3   1 <1>   0.1400 
 17 C        2.3820    -5.9910     1.2980 C.3   1 <1>  -0.0970 
 18 C        6.0010     5.5290    -0.5850 C.3   1 <1>   0.3430 
 19 N        7.3060     5.6980     0.1400 N.4   1 <1>  -0.9590 
 20 C        7.6400     4.4700     0.9520 C.3   1 <1>   0.3430 
 21 C        7.2610     6.8970     1.0480 C.3   1 <1>   0.3430 
 22 C        8.8980     4.6800     1.8160 C.3   1 <1>   0.1200 
 23 C        8.5420     7.0120     1.8970 C.3   1 <1>   0.1200 
 24 O        8.7620     5.8270     2.6050 O.3   1 <1>  -0.5600 
 25 H        2.6390     2.5240     0.8360 H     1 <1>   0.0800 
 26 H        1.7250     2.4480    -0.6700 H     1 <1>   0.0800 
 27 H        4.5390    -0.4400    -0.9790 H     1 <1>   0.0800 
 28 H        4.8040     0.2960     0.6000 H     1 <1>   0.0800 
 29 H        3.4770     1.4190    -1.8300 H     1 <1>   0.0800 
 30 H        0.7030    -1.8970    -0.1140 H     1 <1>   0.1500 
 31 H        4.7180    -1.9800     1.3100 H     1 <1>   0.1500 
 32 H        0.5070    -4.2900     0.3050 H     1 <1>   0.1500 
 33 H        4.5270    -4.3710     1.7180 H     1 <1>   0.1500 
 34 H        4.3980     3.4280    -2.5270 H     1 <1>   0.3700 
 35 H        5.9920     5.0580    -2.6860 H     1 <1>   0.0800 
 36 H        7.0190     4.0050    -1.7510 H     1 <1>   0.0800 
 37 H        1.3710    -6.2430     1.5660 H     1 <1>   0.0800 
 38 H        3.0290    -6.2880     2.1030 H     1 <1>   0.0800 
 39 H        2.6540    -6.5380     0.4130 H     1 <1>   0.0800 
 40 H        5.2520     5.1930     0.1130 H     1 <1>   0.0800 
 41 H        5.6850     6.4810    -0.9780 H     1 <1>   0.0800 
 42 H        8.0660     5.8470    -0.5360 H     1 <1>   0.4500 
 43 H        7.7890     3.6230     0.3030 H     1 <1>   0.0800 
 44 H        6.8170     4.2310     1.6060 H     1 <1>   0.0800 
 45 H        6.4200     6.8150     1.7180 H     1 <1>   0.0800 
 46 H        7.1380     7.7970     0.4680 H     1 <1>   0.0800 
 47 H        9.7790     4.7800     1.2070 H     1 <1>   0.0800 
 48 H        9.0330     3.8420     2.4790 H     1 <1>   0.0800 
 49 H        8.4400     7.8060     2.6170 H     1 <1>   0.0800 
 50 H        9.4030     7.2150     1.2830 H     1 <1>   0.0800 
@<TRIPOS>BOND
  1   1   2  2   
  2   2   3  am  
  3   2   4  1   
  4   3   5  1   
  5   3   6  1   
  6   4   7  1   
  7   4  25  1   
  8   4  26  1   
  9   5   8  ar  
 10   5   9  ar  
 11   6   7  1   
 12   6  27  1   
 13   6  28  1   
 14   7  10  1   
 15   7  29  1   
 16   8  11  ar  
 17   8  30  1   
 18   9  12  ar  
 19   9  31  1   
 20  10  13  2   
 21  10  14  am  
 22  11  15  ar  
 23  11  32  1   
 24  12  15  ar  
 25  12  33  1   
 26  14  16  1   
 27  14  34  1   
 28  15  17  1   
 29  16  18  1   
 30  16  35  1   
 31  16  36  1   
 32  17  37  1   
 33  17  38  1   
 34  17  39  1   
 35  18  19  1   
 36  18  40  1   
 37  18  41  1   
 38  19  20  1   
 39  19  21  1   
 40  19  42  1   
 41  20  22  1   
 42  20  43  1   
 43  20  44  1   
 44  21  23  1   
 45  21  45  1   
 46  21  46  1   
 47  22  24  1   
 48  22  47  1   
 49  22  48  1   
 50  23  24  1   
 51  23  49  1   
 52  23  50  1   
@<TRIPOS>SUBSTRUCTURE
  1 ****   6 GROUP 4 **** **** 0

# MOE 2024.06 (io_trps.svl 2023.06)
