@<TRIPOS>MOLECULE
2-(4-Chloro-phenyl)-N-[2-(4-isobutyryl-piperazin-1-yl)-phenyl]-acetamide
54 56 1 0 0 
SMALL
USER_CHARGES


@<TRIPOS>ATOM
  1 CL       3.9110    -6.3990    -1.0880 Cl    1 <1>  -0.1770 
  2 C        4.2460    -4.8530    -0.3550 C.ar  1 <1>   0.1770 
  3 C        4.6740    -4.8020     0.9580 C.ar  1 <1>  -0.1500 
  4 C        4.0810    -3.7020    -1.1000 C.ar  1 <1>  -0.1500 
  5 C        4.9390    -3.5710     1.5360 C.ar  1 <1>  -0.1500 
  6 C        4.3500    -2.4740    -0.5190 C.ar  1 <1>  -0.1500 
  7 C        4.7800    -2.4040     0.7990 C.ar  1 <1>  -0.1430 
  8 C        5.1020    -1.0460     1.4230 C.3   1 <1>   0.0440 
  9 C        6.5410    -0.6140     1.1870 C.2   1 <1>   0.5690 
 10 O        6.8260     0.5460     1.3600 O.2   1 <1>  -0.5700 
 11 N        7.4350    -1.5660     0.8010 N.am  1 <1>  -0.5470 
 12 C        8.8040    -1.5850     0.5040 C.ar  1 <1>   0.1170 
 13 C        9.3530    -2.8380     0.2000 C.ar  1 <1>   0.1000 
 14 C        9.6120    -0.4570     0.4910 C.ar  1 <1>  -0.1500 
 15 N        8.5340    -3.9830     0.2210 N.pl3 1 <1>  -0.8380 
 16 C       10.7030    -2.9270    -0.1110 C.ar  1 <1>  -0.1500 
 17 C       10.9570    -0.5610     0.1790 C.ar  1 <1>  -0.1500 
 18 C        8.1780    -4.6290    -1.0810 C.3   1 <1>   0.2090 
 19 C        8.6710    -4.9200     1.3800 C.3   1 <1>   0.2090 
 20 C       11.5020    -1.7970    -0.1230 C.ar  1 <1>  -0.1500 
 21 C        9.0230    -5.8830    -1.3780 C.3   1 <1>   0.1400 
 22 C        9.5280    -6.1490     1.0400 C.3   1 <1>   0.1400 
 23 N        9.0410    -6.8160    -0.2070 N.am  1 <1>  -0.6600 
 24 C        8.5120    -8.0850    -0.1700 C.2   1 <1>   0.5690 
 25 O        8.3420    -8.6510     0.8850 O.2   1 <1>  -0.5700 
 26 C        8.1140    -8.8210    -1.4620 C.3   1 <1>  -0.0190 
 27 C        6.6660    -8.4970    -1.8640 C.3   1 <1>  -0.2400 
 28 C        8.2840   -10.3480    -1.3540 C.3   1 <1>  -0.2400 
 29 H        4.7960    -5.7140     1.5160 H     1 <1>   0.1500 
 30 H        3.7450    -3.7670    -2.1200 H     1 <1>   0.1500 
 31 H        5.2730    -3.5290     2.5590 H     1 <1>   0.1500 
 32 H        4.2280    -1.5750    -1.1000 H     1 <1>   0.1500 
 33 H        4.9310    -1.0790     2.4830 H     1 <1>   0.0800 
 34 H        4.4510    -0.2950     1.0150 H     1 <1>   0.0800 
 35 H        7.0530    -2.5120     0.6850 H     1 <1>   0.3700 
 36 H        9.1950     0.5060     0.7230 H     1 <1>   0.1500 
 37 H       11.1300    -3.8830    -0.3430 H     1 <1>   0.1500 
 38 H       11.5740     0.3200     0.1710 H     1 <1>   0.1500 
 39 H        8.3040    -3.9170    -1.8790 H     1 <1>   0.0800 
 40 H        7.1390    -4.9070    -1.0540 H     1 <1>   0.0800 
 41 H        7.6930    -5.2510     1.6800 H     1 <1>   0.0800 
 42 H        9.1120    -4.3990     2.2130 H     1 <1>   0.0800 
 43 H       12.5470    -1.8770    -0.3650 H     1 <1>   0.1500 
 44 H       10.0310    -5.5810    -1.5990 H     1 <1>   0.0800 
 45 H        8.6280    -6.3590    -2.2540 H     1 <1>   0.0800 
 46 H        9.5080    -6.8310     1.8720 H     1 <1>   0.0800 
 47 H       10.5480    -5.8420     0.9010 H     1 <1>   0.0800 
 48 H        8.7720    -8.5000    -2.2470 H     1 <1>   0.0800 
 49 H        5.9870    -8.8320    -1.0990 H     1 <1>   0.0800 
 50 H        6.4110    -8.9850    -2.7880 H     1 <1>   0.0800 
 51 H        6.5350    -7.4380    -1.9890 H     1 <1>   0.0800 
 52 H        7.6240   -10.7470    -0.6020 H     1 <1>   0.0800 
 53 H        9.2950   -10.5870    -1.0750 H     1 <1>   0.0800 
 54 H        8.0640   -10.8220    -2.2930 H     1 <1>   0.0800 
@<TRIPOS>BOND
  1   1   2  1   
  2   2   3  ar  
  3   2   4  ar  
  4   3   5  ar  
  5   3  29  1   
  6   4   6  ar  
  7   4  30  1   
  8   5   7  ar  
  9   5  31  1   
 10   6   7  ar  
 11   6  32  1   
 12   7   8  1   
 13   8   9  1   
 14   8  33  1   
 15   8  34  1   
 16   9  10  2   
 17   9  11  am  
 18  11  12  1   
 19  11  35  1   
 20  12  13  ar  
 21  12  14  ar  
 22  13  15  1   
 23  13  16  ar  
 24  14  17  ar  
 25  14  36  1   
 26  15  18  1   
 27  15  19  1   
 28  16  20  ar  
 29  16  37  1   
 30  17  20  ar  
 31  17  38  1   
 32  18  21  1   
 33  18  39  1   
 34  18  40  1   
 35  19  22  1   
 36  19  41  1   
 37  19  42  1   
 38  20  43  1   
 39  21  23  1   
 40  21  44  1   
 41  21  45  1   
 42  22  23  1   
 43  22  46  1   
 44  22  47  1   
 45  23  24  am  
 46  24  25  2   
 47  24  26  1   
 48  26  27  1   
 49  26  28  1   
 50  26  48  1   
 51  27  49  1   
 52  27  50  1   
 53  27  51  1   
 54  28  52  1   
 55  28  53  1   
 56  28  54  1   
@<TRIPOS>SUBSTRUCTURE
  1 ****  15 GROUP 4 **** **** 0

# MOE 2024.06 (io_trps.svl 2023.06)
