@<TRIPOS>MOLECULE
3-Cyclopentyloxy-benzaldehyde
28 29 1 0 0 
SMALL
USER_CHARGES


@<TRIPOS>ATOM
  1 O       -1.0320    -0.5120    -1.9580 O.2   1 <1>  -0.5700 
  2 C       -0.7890    -1.5240    -1.3520 C.2   1 <1>   0.4240 
  3 C       -1.7360    -2.2850    -0.5750 C.ar  1 <1>   0.0860 
  4 C       -3.0680    -1.8930    -0.4600 C.ar  1 <1>  -0.1500 
  5 C       -1.3470    -3.4490     0.0900 C.ar  1 <1>  -0.1500 
  6 C       -3.9810    -2.6200     0.2830 C.ar  1 <1>   0.0830 
  7 C       -2.2490    -4.1860     0.8370 C.ar  1 <1>  -0.1500 
  8 O       -5.2490    -2.1390     0.3230 O.3   1 <1>  -0.3630 
  9 C       -3.5660    -3.7760     0.9360 C.ar  1 <1>  -0.1500 
 10 C       -6.2960    -2.7870     1.0210 C.3   1 <1>   0.2000 
 11 C       -6.8410    -3.9340     0.1710 C.3   1 <1>  -0.1600 
 12 C       -7.4680    -1.8160     1.0980 C.3   1 <1>  -0.1600 
 13 C       -7.7760    -3.2780    -0.8490 C.3   1 <1>  -0.1600 
 14 C       -8.1820    -1.9230    -0.2530 C.3   1 <1>  -0.1600 
 15 H        0.2180    -1.8980    -1.3870 H     1 <1>   0.0600 
 16 H       -3.4010    -1.0010    -0.9610 H     1 <1>   0.1500 
 17 H       -0.3260    -3.7820     0.0240 H     1 <1>   0.1500 
 18 H       -1.9270    -5.0810     1.3420 H     1 <1>   0.1500 
 19 H       -4.2480    -4.3660     1.5190 H     1 <1>   0.1500 
 20 H       -5.9510    -3.0790     1.9970 H     1 <1>   0.0800 
 21 H       -7.4170    -4.5850     0.8040 H     1 <1>   0.0800 
 22 H       -6.0630    -4.5070    -0.3000 H     1 <1>   0.0800 
 23 H       -7.1470    -0.8130     1.3180 H     1 <1>   0.0800 
 24 H       -8.1370    -2.1460     1.8740 H     1 <1>   0.0800 
 25 H       -8.6340    -3.8980    -1.0450 H     1 <1>   0.0800 
 26 H       -7.2450    -3.1150    -1.7720 H     1 <1>   0.0800 
 27 H       -7.8450    -1.1330    -0.9020 H     1 <1>   0.0800 
 28 H       -9.2490    -1.8460    -0.1350 H     1 <1>   0.0800 
@<TRIPOS>BOND
  1   1   2  2   
  2   2   3  1   
  3   2  15  1   
  4   3   4  ar  
  5   3   5  ar  
  6   4   6  ar  
  7   4  16  1   
  8   5   7  ar  
  9   5  17  1   
 10   6   8  1   
 11   6   9  ar  
 12   7   9  ar  
 13   7  18  1   
 14   8  10  1   
 15   9  19  1   
 16  10  11  1   
 17  10  12  1   
 18  10  20  1   
 19  11  13  1   
 20  11  21  1   
 21  11  22  1   
 22  12  14  1   
 23  12  23  1   
 24  12  24  1   
 25  13  14  1   
 26  13  25  1   
 27  13  26  1   
 28  14  27  1   
 29  14  28  1   
@<TRIPOS>SUBSTRUCTURE
  1 ****   6 GROUP 4 **** **** 0

# MOE 2024.06 (io_trps.svl 2023.06)
