@<TRIPOS>MOLECULE
3-Allyl-8-benzyl-1-methyl-5,6,7,8-tetrahydro-1H-1,3,4b,8,9-pentaaza-fluorene-2,4
48 51 1 0 0 
SMALL
USER_CHARGES


@<TRIPOS>ATOM
  1 O        2.4020     0.4510     2.0040 O.2   1 <1>  -0.5750 
  2 C        3.0400     1.0620     1.1710 C.2   1 <1>   0.6860 
  3 N        2.4260     2.0410     0.4000 N.am  1 <1>  -0.4260 
  4 N        4.3880     0.7810     0.9880 N.am  1 <1>  -0.4420 
  5 C        3.1180     2.7340    -0.5810 C.2   1 <1>   0.6990 
  6 C        1.0400     2.4550     0.7290 C.3   1 <1>   0.2710 
  7 C        5.0770     1.5130     0.0440 C.2   1 <1>   0.4200 
  8 C        5.0940    -0.2560     1.7980 C.3   1 <1>   0.0520 
  9 O        2.5580     3.5410    -1.3060 O.2   1 <1>  -0.5750 
 10 C        4.5130     2.4590    -0.7330 C.2   1 <1>   0.2700 
 11 C        1.1040     3.5350     1.7920 C.2   1 <1>  -0.2950 
 12 N        6.3940     1.4260    -0.2760 N.pl3 1 <1>  -0.7040 
 13 N        5.5440     2.9560    -1.5500 N.pl3 1 <1>  -0.7670 
 14 C        0.8100     4.8250     1.5980 C.2   1 <1>  -0.3070 
 15 C        6.6630     2.3020    -1.2420 C.cat 1 <1>   1.0690 
 16 C        5.4280     4.0180    -2.5660 C.3   1 <1>   0.3480 
 17 N        7.8420     2.5470    -1.8640 N.pl3 1 <1>  -0.5970 
 18 C        6.8130     4.6290    -2.7820 C.3   1 <1>  -0.1680 
 19 C        7.8980     3.5580    -2.9600 C.3   1 <1>   0.1600 
 20 C        9.1550     1.8610    -1.6270 C.3   1 <1>   0.3040 
 21 C        9.0800     0.8040    -0.5400 C.ar  1 <1>  -0.1510 
 22 C        8.7470    -0.5050    -0.8600 C.ar  1 <1>  -0.1580 
 23 C        9.2840     1.1530     0.7870 C.ar  1 <1>  -0.1580 
 24 C        8.5930    -1.4470     0.1410 C.ar  1 <1>  -0.1580 
 25 C        9.1290     0.2090     1.7860 C.ar  1 <1>  -0.1580 
 26 C        8.7790    -1.0900     1.4640 C.ar  1 <1>  -0.1580 
 27 H        0.4670     1.6170     1.0890 H     1 <1>   0.0720 
 28 H        0.5450     2.8310    -0.1500 H     1 <1>   0.0720 
 29 H        4.3940    -0.8470     2.3640 H     1 <1>   0.0720 
 30 H        5.7740     0.2190     2.4840 H     1 <1>   0.0720 
 31 H        5.6450    -0.9160     1.1510 H     1 <1>   0.0720 
 32 H        1.4180     3.1500     2.7490 H     1 <1>   0.1420 
 33 H        7.1090     0.8080     0.1250 H     1 <1>   0.4440 
 34 H        0.8590     5.5750     2.3690 H     1 <1>   0.1420 
 35 H        0.4960     5.2410     0.6550 H     1 <1>   0.1420 
 36 H        4.7370     4.7770    -2.2350 H     1 <1>   0.0720 
 37 H        5.0570     3.5930    -3.4840 H     1 <1>   0.0720 
 38 H        7.0610     5.2530    -1.9420 H     1 <1>   0.0720 
 39 H        6.7890     5.2640    -3.6500 H     1 <1>   0.0720 
 40 H        7.7660     3.0560    -3.9050 H     1 <1>   0.0720 
 41 H        8.8640     4.0380    -2.9690 H     1 <1>   0.0720 
 42 H        9.8920     2.5960    -1.3510 H     1 <1>   0.0720 
 43 H        9.4830     1.4000    -2.5440 H     1 <1>   0.0720 
 44 H        8.6020    -0.8020    -1.8860 H     1 <1>   0.1420 
 45 H        9.5600     2.1600     1.0570 H     1 <1>   0.1420 
 46 H        8.3380    -2.4640    -0.1090 H     1 <1>   0.1420 
 47 H        9.2890     0.4810     2.8170 H     1 <1>   0.1420 
 48 H        8.6670    -1.8270     2.2420 H     1 <1>   0.1420 
@<TRIPOS>BOND
  1   1   2  2   
  2   2   3  am  
  3   2   4  am  
  4   3   5  am  
  5   3   6  1   
  6   4   7  1   
  7   4   8  1   
  8   5   9  2   
  9   5  10  1   
 10   6  11  1   
 11   6  27  1   
 12   6  28  1   
 13   7  10  2   
 14   7  12  1   
 15   8  29  1   
 16   8  30  1   
 17   8  31  1   
 18  10  13  1   
 19  11  14  2   
 20  11  32  1   
 21  12  15  ar  
 22  12  33  1   
 23  13  15  ar  
 24  13  16  1   
 25  14  34  1   
 26  14  35  1   
 27  15  17  ar  
 28  16  18  1   
 29  16  36  1   
 30  16  37  1   
 31  17  19  1   
 32  17  20  1   
 33  18  19  1   
 34  18  38  1   
 35  18  39  1   
 36  19  40  1   
 37  19  41  1   
 38  20  21  1   
 39  20  42  1   
 40  20  43  1   
 41  21  22  ar  
 42  21  23  ar  
 43  22  24  ar  
 44  22  44  1   
 45  23  25  ar  
 46  23  45  1   
 47  24  26  ar  
 48  24  46  1   
 49  25  26  ar  
 50  25  47  1   
 51  26  48  1   
@<TRIPOS>SUBSTRUCTURE
  1 ****   7 GROUP 4 **** **** 0

# MOE 2024.06 (io_trps.svl 2023.06)
