@<TRIPOS>MOLECULE
5-Amino-2,N,N-trimethyl-benzenesulfonamide
28 28 1 0 0 
SMALL
USER_CHARGES


@<TRIPOS>ATOM
  1 S       -0.0650     0.0180    -1.2280 S.o2  1 <1>   1.4470 
  2 O       -0.6070    -1.0080    -2.0930 O.2   1 <1>  -0.6500 
  3 O        0.8400     0.9940    -1.8010 O.2   1 <1>  -0.6500 
  4 N        0.8180    -0.7750    -0.0090 N.am  1 <1>  -0.8490 
  5 C       -1.4050     0.8610    -0.3250 C.ar  1 <1>  -0.0090 
  6 C        1.7750    -1.7320    -0.5660 C.3   1 <1>   0.1160 
  7 C        1.5030     0.1530     0.8960 C.3   1 <1>   0.1160 
  8 C       -2.4270     0.1820     0.3480 C.ar  1 <1>  -0.1440 
  9 C       -1.4110     2.2500    -0.2800 C.ar  1 <1>  -0.1500 
 10 C       -3.4020     0.8920     1.0340 C.ar  1 <1>  -0.1500 
 11 C       -2.5100    -1.3400     0.3550 C.3   1 <1>  -0.0970 
 12 C       -2.3830     2.9650     0.4000 C.ar  1 <1>   0.1000 
 13 C       -3.3800     2.2710     1.0630 C.ar  1 <1>  -0.1500 
 14 N       -2.3550     4.3460     0.4160 N.pl3 1 <1>  -0.9000 
 15 H        1.2550    -2.4690    -1.1570 H     1 <1>   0.0800 
 16 H        2.2960    -2.2420     0.2250 H     1 <1>   0.0800 
 17 H        2.4890    -1.2270    -1.1950 H     1 <1>   0.0800 
 18 H        0.7920     0.8230     1.3490 H     1 <1>   0.0800 
 19 H        2.2360     0.7340     0.3600 H     1 <1>   0.0800 
 20 H        1.9950    -0.3940     1.6820 H     1 <1>   0.0800 
 21 H       -0.6360     2.7980    -0.7850 H     1 <1>   0.1500 
 22 H       -4.1880     0.3720     1.5530 H     1 <1>   0.1500 
 23 H       -1.5980    -1.7670     0.7320 H     1 <1>   0.0800 
 24 H       -2.6800    -1.7070    -0.6420 H     1 <1>   0.0800 
 25 H       -3.3160    -1.6830     0.9770 H     1 <1>   0.0800 
 26 H       -4.1360     2.8120     1.6010 H     1 <1>   0.1500 
 27 H       -3.2400     4.8180     0.6240 H     1 <1>   0.4000 
 28 H       -1.8510     4.8020    -0.3500 H     1 <1>   0.4000 
@<TRIPOS>BOND
  1   1   2  2   
  2   1   3  2   
  3   1   4  am  
  4   1   5  1   
  5   4   6  1   
  6   4   7  1   
  7   5   8  ar  
  8   5   9  ar  
  9   6  15  1   
 10   6  16  1   
 11   6  17  1   
 12   7  18  1   
 13   7  19  1   
 14   7  20  1   
 15   8  10  ar  
 16   8  11  1   
 17   9  12  ar  
 18   9  21  1   
 19  10  13  ar  
 20  10  22  1   
 21  11  23  1   
 22  11  24  1   
 23  11  25  1   
 24  12  13  ar  
 25  12  14  1   
 26  13  26  1   
 27  14  27  1   
 28  14  28  1   
@<TRIPOS>SUBSTRUCTURE
  1 ****   5 GROUP 4 **** **** 0

# MOE 2024.06 (io_trps.svl 2023.06)
