@<TRIPOS>MOLECULE
6-(4-tert-Butylamino-6-isopropylamino-[1,3,5]triazin-2-yloxy)-pyridazin-3-ol
43 44 1 0 0 
SMALL
USER_CHARGES


@<TRIPOS>ATOM
  1 O        0.1680     0.1350    -0.4040 O.3   1 <1>  -0.1650 
  2 C        0.0810    -1.1980    -0.2830 C.ar  1 <1>   0.7020 
  3 C        1.3630     0.7770    -0.4690 C.ar  1 <1>   0.3920 
  4 N       -1.1220    -1.6550    -0.0650 N.ar  1 <1>  -0.6200 
  5 N        1.1680    -1.9180    -0.3810 N.ar  1 <1>  -0.6200 
  6 N        1.5990     1.4620    -1.5830 N.ar  1 <1>  -0.3100 
  7 C        2.2350     0.7150     0.6080 C.ar  1 <1>  -0.1500 
  8 C       -1.1770    -2.9560     0.0470 C.ar  1 <1>   0.7200 
  9 C        0.9670    -3.1990    -0.2470 C.ar  1 <1>   0.7200 
 10 N        2.7370     2.1080    -1.7060 N.ar  1 <1>  -0.3100 
 11 C        3.4160     1.3860     0.4850 C.ar  1 <1>  -0.1500 
 12 N       -0.1750    -3.7840    -0.0310 N.ar  1 <1>  -0.6200 
 13 N       -2.3660    -3.5580     0.2780 N.pl3 1 <1>  -0.8690 
 14 N        2.0330    -4.0240    -0.3290 N.pl3 1 <1>  -0.8690 
 15 C        3.6450     2.0770    -0.7010 C.ar  1 <1>   0.1390 
 16 C       -3.7300    -3.0970     0.0240 C.3   1 <1>   0.3690 
 17 C        3.3980    -3.6520    -0.7180 C.3   1 <1>   0.2890 
 18 O        4.7300     2.6890    -0.8370 O.3   1 <1>  -0.8290 
 19 C       -3.8670    -2.6070    -1.4180 C.3   1 <1>  -0.2400 
 20 C       -4.6280    -4.3130     0.2330 C.3   1 <1>  -0.2400 
 21 C       -4.1060    -2.0100     1.0300 C.3   1 <1>  -0.2400 
 22 C        3.8890    -4.6730    -1.7360 C.3   1 <1>  -0.2400 
 23 C        4.2630    -3.6540     0.5360 C.3   1 <1>  -0.2400 
 24 H        1.9890     0.1590     1.4910 H     1 <1>   0.1500 
 25 H        4.1740     1.4090     1.2430 H     1 <1>   0.1500 
 26 H       -2.2800    -4.5690     0.3120 H     1 <1>   0.4000 
 27 H        1.8300    -5.0150    -0.2290 H     1 <1>   0.4000 
 28 H        3.4120    -2.6690    -1.1630 H     1 <1>   0.0800 
 29 H       -3.2900    -1.7150    -1.5760 H     1 <1>   0.0800 
 30 H       -3.5360    -3.3650    -2.1040 H     1 <1>   0.0800 
 31 H       -4.8940    -2.3760    -1.6330 H     1 <1>   0.0800 
 32 H       -4.5300    -4.6840     1.2380 H     1 <1>   0.0800 
 33 H       -4.3740    -5.0950    -0.4600 H     1 <1>   0.0800 
 34 H       -5.6570    -4.0450     0.0740 H     1 <1>   0.0800 
 35 H       -3.9450    -2.3600     2.0340 H     1 <1>   0.0800 
 36 H       -5.1410    -1.7450     0.9200 H     1 <1>   0.0800 
 37 H       -3.5190    -1.1240     0.8720 H     1 <1>   0.0800 
 38 H        3.8990    -5.6610    -1.3120 H     1 <1>   0.0800 
 39 H        4.8860    -4.4210    -2.0480 H     1 <1>   0.0800 
 40 H        3.2510    -4.6580    -2.6010 H     1 <1>   0.0800 
 41 H        4.2620    -4.6240     0.9990 H     1 <1>   0.0800 
 42 H        3.8880    -2.9250     1.2320 H     1 <1>   0.0800 
 43 H        5.2720    -3.3880     0.2830 H     1 <1>   0.0800 
@<TRIPOS>BOND
  1   1   2  1   
  2   1   3  1   
  3   2   4  ar  
  4   2   5  ar  
  5   3   6  ar  
  6   3   7  ar  
  7   4   8  ar  
  8   5   9  ar  
  9   6  10  ar  
 10   7  11  ar  
 11   7  24  1   
 12   8  12  ar  
 13   8  13  1   
 14   9  12  ar  
 15   9  14  1   
 16  10  15  ar  
 17  11  15  ar  
 18  11  25  1   
 19  13  16  1   
 20  13  26  1   
 21  14  17  1   
 22  14  27  1   
 23  15  18  1   
 24  16  19  1   
 25  16  20  1   
 26  16  21  1   
 27  17  22  1   
 28  17  23  1   
 29  17  28  1   
 30  19  29  1   
 31  19  30  1   
 32  19  31  1   
 33  20  32  1   
 34  20  33  1   
 35  20  34  1   
 36  21  35  1   
 37  21  36  1   
 38  21  37  1   
 39  22  38  1   
 40  22  39  1   
 41  22  40  1   
 42  23  41  1   
 43  23  42  1   
 44  23  43  1   
@<TRIPOS>SUBSTRUCTURE
  1 ****   2 GROUP 4 **** **** 0

# MOE 2024.06 (io_trps.svl 2023.06)
