@<TRIPOS>MOLECULE
3-(2-Amino-thiazol-4-yl)-propionic acid methyl ester
22 22 1 0 0 
SMALL
USER_CHARGES


@<TRIPOS>ATOM
  1 S       -0.0580     0.2560     0.6150 S.3   1 <1>  -0.0800 
  2 C       -1.0510     1.2380    -0.4480 C.2   1 <1>   0.4620 
  3 C       -1.3280    -0.9370     0.6480 C.2   1 <1>  -0.1100 
  4 N       -2.1870     0.7250    -0.7330 N.2   1 <1>  -0.5650 
  5 N       -0.5690     2.4260    -0.8810 N.pl3 1 <1>  -0.8840 
  6 C       -2.3440    -0.5020    -0.1140 C.2   1 <1>   0.0460 
  7 C       -3.6470    -1.2420    -0.3530 C.3   1 <1>   0.0210 
  8 C       -4.8430    -0.4470     0.1920 C.3   1 <1>  -0.0990 
  9 C       -6.1630    -1.1650     0.0060 C.2   1 <1>   0.6590 
 10 O       -6.2310    -2.3170    -0.3410 O.2   1 <1>  -0.5700 
 11 O       -7.2460    -0.4410     0.2600 O.3   1 <1>  -0.4300 
 12 C       -8.5450    -0.9800     0.1310 C.3   1 <1>   0.0400 
 13 H       -1.1720    -1.8250     1.2320 H     1 <1>   0.1500 
 14 H       -1.1150     2.9730    -1.5470 H     1 <1>   0.4000 
 15 H        0.3780     2.7390    -0.6720 H     1 <1>   0.4000 
 16 H       -3.6030    -2.2040     0.1250 H     1 <1>   0.0800 
 17 H       -3.7690    -1.4010    -1.4110 H     1 <1>   0.0800 
 18 H       -4.9010     0.5000    -0.3110 H     1 <1>   0.0800 
 19 H       -4.7030    -0.2610     1.2400 H     1 <1>   0.0800 
 20 H       -9.2580    -0.2160     0.3860 H     1 <1>   0.0800 
 21 H       -8.6430    -1.8180     0.8000 H     1 <1>   0.0800 
 22 H       -8.6900    -1.2990    -0.8870 H     1 <1>   0.0800 
@<TRIPOS>BOND
  1   1   2  1   
  2   1   3  1   
  3   2   4  2   
  4   2   5  1   
  5   3   6  2   
  6   3  13  1   
  7   4   6  1   
  8   5  14  1   
  9   5  15  1   
 10   6   7  1   
 11   7   8  1   
 12   7  16  1   
 13   7  17  1   
 14   8   9  1   
 15   8  18  1   
 16   8  19  1   
 17   9  10  2   
 18   9  11  1   
 19  11  12  1   
 20  12  20  1   
 21  12  21  1   
 22  12  22  1   
@<TRIPOS>SUBSTRUCTURE
  1 ****   7 GROUP 4 **** **** 0

# MOE 2024.06 (io_trps.svl 2023.06)
