@<TRIPOS>MOLECULE
6-(2-Ethoxy-phenoxymethyl)-3-methyl-[1,2,4]triazolo[3,4-b][1,3,4]thiadiazole
34 36 1 0 0 
SMALL
USER_CHARGES


@<TRIPOS>ATOM
  1 S       -0.4360    -0.0520    -0.0510 S.3   1 <1>  -0.1970 
  2 C        0.3400     1.5170    -0.0740 C.2   1 <1>   0.2420 
  3 C       -2.0080     0.7770    -0.0380 C.2   1 <1>   0.5300 
  4 N        1.5480     1.9560    -0.0920 N.2   1 <1>  -0.3380 
  5 N       -0.5940     2.4510    -0.0700 N.pl3 1 <1>   0.5050 
  6 N       -1.9300     2.0490    -0.0500 N.2   1 <1>  -0.6520 
  7 C       -3.2150    -0.1530    -0.0150 C.3   1 <1>   0.1810 
  8 N        1.4170     3.2980    -0.1020 N.2   1 <1>  -0.3380 
  9 C        0.1470     3.5710    -0.0880 C.2   1 <1>   0.0060 
 10 O       -4.4270     0.5740    -0.0060 O.3   1 <1>  -0.3630 
 11 C       -0.4530     4.9630    -0.0920 C.3   1 <1>  -0.0600 
 12 C       -5.6400    -0.0510     0.0140 C.ar  1 <1>   0.0830 
 13 C       -6.7860     0.7500     0.0220 C.ar  1 <1>   0.0830 
 14 C       -5.7700    -1.4380     0.0280 C.ar  1 <1>  -0.1500 
 15 O       -6.6190     2.1040     0.0080 O.3   1 <1>  -0.3630 
 16 C       -8.0420     0.1500     0.0420 C.ar  1 <1>  -0.1500 
 17 C       -7.0240    -2.0210     0.0480 C.ar  1 <1>  -0.1500 
 18 C       -7.7150     2.9880     0.0140 C.3   1 <1>   0.1200 
 19 C       -8.1580    -1.2290     0.0550 C.ar  1 <1>  -0.1500 
 20 C       -7.1690     4.4120    -0.0050 C.3   1 <1>  -0.2400 
 21 H       -3.1830    -0.7590     0.8720 H     1 <1>   0.0800 
 22 H       -3.2050    -0.7740    -0.8920 H     1 <1>   0.0800 
 23 H       -1.0730     5.0930    -0.9610 H     1 <1>   0.0800 
 24 H        0.3290     5.7010    -0.1090 H     1 <1>   0.0800 
 25 H       -1.0510     5.1080     0.7890 H     1 <1>   0.0800 
 26 H       -4.9150    -2.0850     0.0230 H     1 <1>   0.1500 
 27 H       -8.9420     0.7340     0.0480 H     1 <1>   0.1500 
 28 H       -7.1210    -3.0930     0.0580 H     1 <1>   0.1500 
 29 H       -8.2890     2.8130     0.9070 H     1 <1>   0.0800 
 30 H       -8.3110     2.7970    -0.8620 H     1 <1>   0.0800 
 31 H       -9.1320    -1.6860     0.0710 H     1 <1>   0.1500 
 32 H       -6.5590     4.5830     0.8640 H     1 <1>   0.0800 
 33 H       -7.9810     5.1150    -0.0010 H     1 <1>   0.0800 
 34 H       -6.5800     4.5680    -0.8920 H     1 <1>   0.0800 
@<TRIPOS>BOND
  1   1   2  1   
  2   1   3  1   
  3   2   4  2   
  4   2   5  1   
  5   3   6  2   
  6   3   7  1   
  7   4   8  1   
  8   5   6  1   
  9   5   9  1   
 10   7  10  1   
 11   7  21  1   
 12   7  22  1   
 13   8   9  2   
 14   9  11  1   
 15  10  12  1   
 16  11  23  1   
 17  11  24  1   
 18  11  25  1   
 19  12  13  ar  
 20  12  14  ar  
 21  13  15  1   
 22  13  16  ar  
 23  14  17  ar  
 24  14  26  1   
 25  15  18  1   
 26  16  19  ar  
 27  16  27  1   
 28  17  19  ar  
 29  17  28  1   
 30  18  20  1   
 31  18  29  1   
 32  18  30  1   
 33  19  31  1   
 34  20  32  1   
 35  20  33  1   
 36  20  34  1   
@<TRIPOS>SUBSTRUCTURE
  1 ****  10 GROUP 4 **** **** 0

# MOE 2024.06 (io_trps.svl 2023.06)
