@<TRIPOS>MOLECULE
8-(3-Chloro-4-methoxy-phenyl)-3-(2-methoxy-ethyl)-1,7-dimethyl-1H,8H-imidazo[2,1
50 53 1 0 0 
SMALL
USER_CHARGES


@<TRIPOS>ATOM
  1 CL      -2.3280    -1.9080    -3.1310 Cl    1 <1>  -0.1840 
  2 C       -2.7820    -1.5280    -1.4860 C.ar  1 <1>   0.1700 
  3 C       -2.0940    -2.0870    -0.4140 C.ar  1 <1>   0.0750 
  4 C       -3.8410    -0.6630    -1.2950 C.ar  1 <1>  -0.1570 
  5 O       -1.0640    -2.9330    -0.6810 O.3   1 <1>  -0.3680 
  6 C       -2.4930    -1.7540     0.8790 C.ar  1 <1>  -0.1570 
  7 C       -4.2380    -0.3420    -0.0070 C.ar  1 <1>   0.3050 
  8 C       -0.2770    -3.4950     0.3470 C.3   1 <1>   0.0320 
  9 C       -3.5570    -0.8870     1.0740 C.ar  1 <1>  -0.1570 
 10 N       -5.3250     0.5220     0.2020 N.pl3 1 <1>  -0.5550 
 11 C       -6.6200     0.1830     0.2680 C.cat 1 <1>   1.0690 
 12 C       -5.3010     1.9020     0.3750 C.2   1 <1>   0.1580 
 13 N       -7.3370    -0.9430     0.1820 N.pl3 1 <1>  -0.7040 
 14 N       -7.3970     1.2370     0.4700 N.pl3 1 <1>  -0.6330 
 15 C       -6.5690     2.3410     0.5400 C.2   1 <1>   0.2220 
 16 C       -4.0020     2.6850     0.3620 C.3   1 <1>  -0.1090 
 17 C       -8.6450    -0.5770     0.3390 C.2   1 <1>   0.4210 
 18 C       -8.7160     0.7640     0.5220 C.2   1 <1>   0.2710 
 19 N       -9.7610    -1.3900     0.3220 N.am  1 <1>  -0.4420 
 20 C       -9.9850     1.3840     0.7140 C.2   1 <1>   0.6990 
 21 C      -11.0050    -0.8050     0.5340 C.2   1 <1>   0.6860 
 22 C       -9.6420    -2.8640     0.1020 C.3   1 <1>   0.0520 
 23 O      -10.0780     2.5930     0.8390 O.2   1 <1>  -0.5750 
 24 N      -11.1060     0.5660     0.7460 N.am  1 <1>  -0.4260 
 25 O      -12.0030    -1.4950     0.5260 O.2   1 <1>  -0.5750 
 26 C      -12.4500     1.1680     1.0220 C.3   1 <1>   0.1330 
 27 C      -13.1750     1.4980    -0.2830 C.3   1 <1>   0.1120 
 28 O      -14.3810     2.1070     0.0380 O.3   1 <1>  -0.5650 
 29 C      -15.1570     2.4370    -1.0670 C.3   1 <1>   0.0320 
 30 H       -4.3410    -0.2470    -2.1490 H     1 <1>   0.1430 
 31 H       -1.9870    -2.1580     1.7370 H     1 <1>   0.1430 
 32 H        0.4820    -4.1040    -0.1100 H     1 <1>   0.0720 
 33 H       -0.9020    -4.1040     0.9760 H     1 <1>   0.0720 
 34 H        0.1830    -2.7020     0.9100 H     1 <1>   0.0720 
 35 H       -3.8520    -0.6330     2.0760 H     1 <1>   0.1430 
 36 H       -6.9550    -1.8750     0.0310 H     1 <1>   0.4450 
 37 H       -6.9460     3.3410     0.6990 H     1 <1>   0.1430 
 38 H       -3.3520     2.3420     1.1470 H     1 <1>   0.0720 
 39 H       -4.1920     3.7330     0.5080 H     1 <1>   0.0720 
 40 H       -3.5000     2.5580    -0.5820 H     1 <1>   0.0720 
 41 H       -8.8610    -3.0780    -0.6060 H     1 <1>   0.0720 
 42 H      -10.5620    -3.2640    -0.2890 H     1 <1>   0.0720 
 43 H       -9.4250    -3.3530     1.0360 H     1 <1>   0.0720 
 44 H      -12.3410     2.0680     1.6020 H     1 <1>   0.0720 
 45 H      -13.0480     0.4770     1.5920 H     1 <1>   0.0720 
 46 H      -13.3830     0.5970    -0.8360 H     1 <1>   0.0720 
 47 H      -12.5960     2.1850    -0.8750 H     1 <1>   0.0720 
 48 H      -16.0620     2.8980    -0.7140 H     1 <1>   0.0720 
 49 H      -15.3960     1.5410    -1.6130 H     1 <1>   0.0720 
 50 H      -14.6150     3.1290    -1.6890 H     1 <1>   0.0720 
@<TRIPOS>BOND
  1   1   2  1   
  2   2   3  ar  
  3   2   4  ar  
  4   3   5  1   
  5   3   6  ar  
  6   4   7  ar  
  7   4  30  1   
  8   5   8  1   
  9   6   9  ar  
 10   6  31  1   
 11   7   9  ar  
 12   7  10  1   
 13   8  32  1   
 14   8  33  1   
 15   8  34  1   
 16   9  35  1   
 17  10  11  ar  
 18  10  12  1   
 19  11  13  ar  
 20  11  14  ar  
 21  12  15  2   
 22  12  16  1   
 23  13  17  1   
 24  13  36  1   
 25  14  15  1   
 26  14  18  1   
 27  15  37  1   
 28  16  38  1   
 29  16  39  1   
 30  16  40  1   
 31  17  18  2   
 32  17  19  1   
 33  18  20  1   
 34  19  21  am  
 35  19  22  1   
 36  20  23  2   
 37  20  24  am  
 38  21  24  am  
 39  21  25  2   
 40  22  41  1   
 41  22  42  1   
 42  22  43  1   
 43  24  26  1   
 44  26  27  1   
 45  26  44  1   
 46  26  45  1   
 47  27  28  1   
 48  27  46  1   
 49  27  47  1   
 50  28  29  1   
 51  29  48  1   
 52  29  49  1   
 53  29  50  1   
@<TRIPOS>SUBSTRUCTURE
  1 ****  11 GROUP 4 **** **** 0

# MOE 2024.06 (io_trps.svl 2023.06)
