@<TRIPOS>MOLECULE
4-(1-Ethyl-1H-pyrazolo[3,4-b]quinolin-3-ylcarbamoyl)-butyric acid
41 43 1 0 0 
SMALL
USER_CHARGES


@<TRIPOS>ATOM
  1 O       -2.1150     1.4800    -1.3770 O.co2 1 <1>  -0.9000 
  2 C       -2.1500     0.2900    -1.0530 C.2   1 <1>   0.9060 
  3 O       -1.6390    -0.6090    -1.7270 O.co2 1 <1>  -0.9000 
  4 C       -2.8490    -0.0920     0.2320 C.3   1 <1>  -0.2660 
  5 C       -4.0650    -1.0030    -0.0130 C.3   1 <1>  -0.1600 
  6 C       -4.6960    -1.4590     1.3130 C.3   1 <1>  -0.0990 
  7 C       -5.8850    -2.3850     1.1270 C.2   1 <1>   0.5690 
  8 O       -6.9210    -2.1090     1.6820 O.2   1 <1>  -0.5700 
  9 N       -5.7090    -3.5030     0.3750 N.am  1 <1>  -0.4930 
 10 C       -6.5600    -4.5670     0.0970 C.2   1 <1>   0.3520 
 11 N       -6.0390    -5.7220    -0.1180 N.2   1 <1>  -0.7070 
 12 C       -7.9770    -4.5580    -0.0210 C.ar  1 <1>   0.0000 
 13 N       -7.0970    -6.5460    -0.3610 N.pl3 1 <1>   0.3140 
 14 C       -8.2910    -5.8820    -0.3170 C.ar  1 <1>   0.1050 
 15 C       -9.0070    -3.6460     0.0530 C.ar  1 <1>  -0.1500 
 16 C       -6.9160    -7.9840    -0.6420 C.3   1 <1>   0.0960 
 17 N       -9.5000    -6.3810    -0.5250 N.ar  1 <1>  -0.5670 
 18 C      -10.3060    -4.1080    -0.1490 C.ar  1 <1>   0.0000 
 19 C       -6.9430    -8.8070     0.6520 C.3   1 <1>  -0.2400 
 20 C      -10.5020    -5.4900    -0.4340 C.ar  1 <1>   0.3100 
 21 C      -11.4350    -3.2570    -0.0810 C.ar  1 <1>  -0.1500 
 22 C      -11.8240    -5.9390    -0.6370 C.ar  1 <1>  -0.1500 
 23 C      -12.6970    -3.7350    -0.2840 C.ar  1 <1>  -0.1500 
 24 C      -12.8950    -5.0950    -0.5660 C.ar  1 <1>  -0.1500 
 25 H       -3.1530     0.8100     0.7280 H     1 <1>   0.0800 
 26 H       -2.1250    -0.5930     0.8450 H     1 <1>   0.0800 
 27 H       -3.7370    -1.8550    -0.5850 H     1 <1>   0.0800 
 28 H       -4.7910    -0.4690    -0.6030 H     1 <1>   0.0800 
 29 H       -5.0180    -0.5940     1.8630 H     1 <1>   0.0800 
 30 H       -3.9600    -1.9690     1.9060 H     1 <1>   0.0800 
 31 H       -4.7630    -3.6810     0.0470 H     1 <1>   0.3700 
 32 H       -8.8220    -2.6090     0.2600 H     1 <1>   0.1500 
 33 H       -5.9730    -8.1120    -1.1420 H     1 <1>   0.0800 
 34 H       -7.7020    -8.3050    -1.3020 H     1 <1>   0.0800 
 35 H       -6.1550    -8.4870     1.3110 H     1 <1>   0.0800 
 36 H       -6.8010    -9.8480     0.4260 H     1 <1>   0.0800 
 37 H       -7.8920    -8.6890     1.1460 H     1 <1>   0.0800 
 38 H      -11.2710    -2.2170     0.1390 H     1 <1>   0.1500 
 39 H      -11.9570    -6.9830    -0.8510 H     1 <1>   0.1500 
 40 H      -13.5530    -3.0840    -0.2310 H     1 <1>   0.1500 
 41 H      -13.8980    -5.4540    -0.7230 H     1 <1>   0.1500 
@<TRIPOS>BOND
  1   1   2  ar  
  2   2   3  ar  
  3   2   4  1   
  4   4   5  1   
  5   4  25  1   
  6   4  26  1   
  7   5   6  1   
  8   5  27  1   
  9   5  28  1   
 10   6   7  1   
 11   6  29  1   
 12   6  30  1   
 13   7   8  2   
 14   7   9  am  
 15   9  10  1   
 16   9  31  1   
 17  10  11  2   
 18  10  12  1   
 19  11  13  1   
 20  12  14  ar  
 21  12  15  ar  
 22  13  14  1   
 23  13  16  1   
 24  14  17  ar  
 25  15  18  ar  
 26  15  32  1   
 27  16  19  1   
 28  16  33  1   
 29  16  34  1   
 30  17  20  ar  
 31  18  20  ar  
 32  18  21  ar  
 33  19  35  1   
 34  19  36  1   
 35  19  37  1   
 36  20  22  ar  
 37  21  23  ar  
 38  21  38  1   
 39  22  24  ar  
 40  22  39  1   
 41  23  24  ar  
 42  23  40  1   
 43  24  41  1   
@<TRIPOS>SUBSTRUCTURE
  1 ****  10 GROUP 4 **** **** 0

# MOE 2024.06 (io_trps.svl 2023.06)
