@<TRIPOS>MOLECULE
5-Oxo-1-p-tolyl-pyrrolidine-3-carboxylic acid (4-ethylsulfamoyl-phenyl)-amide
51 53 1 0 0 
SMALL
USER_CHARGES


@<TRIPOS>ATOM
  1 S       -0.1670     0.4090    -0.0790 S.o2  1 <1>   1.4470 
  2 O       -0.0240     1.2050     1.1190 O.2   1 <1>  -0.6500 
  3 O        1.0010    -0.0400    -0.8040 O.2   1 <1>  -0.6500 
  4 N       -1.0660     1.3860    -1.1080 N.am  1 <1>  -0.9140 
  5 C       -1.2760    -0.9910     0.2350 C.ar  1 <1>  -0.0090 
  6 C       -0.3030     2.1830    -2.0530 C.3   1 <1>   0.1960 
  7 C       -1.6320    -1.3610     1.5270 C.ar  1 <1>  -0.1500 
  8 C       -1.8000    -1.7390    -0.8130 C.ar  1 <1>  -0.1500 
  9 C        0.3710     3.3500    -1.3370 C.3   1 <1>  -0.2400 
 10 C       -2.4780    -2.4310     1.7620 C.ar  1 <1>  -0.1500 
 11 C       -2.6470    -2.8080    -0.5830 C.ar  1 <1>  -0.1500 
 12 C       -2.9990    -3.1760     0.7110 C.ar  1 <1>   0.1170 
 13 N       -3.8600    -4.2450     1.0040 N.am  1 <1>  -0.5470 
 14 C       -4.2180    -5.3390     0.2610 C.2   1 <1>   0.5690 
 15 O       -3.7760    -5.5700    -0.8360 O.2   1 <1>  -0.5700 
 16 C       -5.2060    -6.3200     0.8780 C.3   1 <1>  -0.0190 
 17 C       -5.6800    -7.4190    -0.0870 C.3   1 <1>   0.1400 
 18 C       -6.5050    -5.6740     1.3830 C.3   1 <1>  -0.0990 
 19 N       -7.0490    -7.7440     0.3630 N.am  1 <1>  -0.4770 
 20 C       -7.5230    -6.7630     1.1870 C.2   1 <1>   0.5690 
 21 C       -7.6770    -8.9430    -0.0310 C.ar  1 <1>   0.1170 
 22 O       -8.5990    -6.7160     1.7290 O.2   1 <1>  -0.5700 
 23 C       -7.4520    -9.4860    -1.2940 C.ar  1 <1>  -0.1500 
 24 C       -8.5290    -9.6280     0.8290 C.ar  1 <1>  -0.1500 
 25 C       -8.0500   -10.6730    -1.6780 C.ar  1 <1>  -0.1500 
 26 C       -9.1290   -10.8150     0.4470 C.ar  1 <1>  -0.1500 
 27 C       -8.8900   -11.3470    -0.8080 C.ar  1 <1>  -0.1430 
 28 C       -9.5500   -12.6480    -1.2280 C.3   1 <1>  -0.0970 
 29 H       -1.5370     2.0300    -0.4760 H     1 <1>   0.4200 
 30 H       -0.9800     2.5740    -2.7940 H     1 <1>   0.0800 
 31 H        0.4260     1.5740    -2.5640 H     1 <1>   0.0800 
 32 H       -1.2390    -0.8010     2.3600 H     1 <1>   0.1500 
 33 H       -1.5400    -1.4770    -1.8250 H     1 <1>   0.1500 
 34 H       -0.3530     3.9490    -0.8160 H     1 <1>   0.0800 
 35 H        0.8660     3.9720    -2.0610 H     1 <1>   0.0800 
 36 H        1.1140     2.9980    -0.6440 H     1 <1>   0.0800 
 37 H       -2.7280    -2.6870     2.7750 H     1 <1>   0.1500 
 38 H       -3.0340    -3.3530    -1.4250 H     1 <1>   0.1500 
 39 H       -4.2510    -4.2170     1.9440 H     1 <1>   0.3700 
 40 H       -4.7180    -6.8100     1.7020 H     1 <1>   0.0800 
 41 H       -5.0410    -8.2840    -0.0410 H     1 <1>   0.0800 
 42 H       -5.7270    -7.0550    -1.0990 H     1 <1>   0.0800 
 43 H       -6.7900    -4.8320     0.7790 H     1 <1>   0.0800 
 44 H       -6.4460    -5.3900     2.4170 H     1 <1>   0.0800 
 45 H       -6.8120    -8.9790    -1.9910 H     1 <1>   0.1500 
 46 H       -8.7270    -9.2320     1.8080 H     1 <1>   0.1500 
 47 H       -7.8600   -11.0700    -2.6600 H     1 <1>   0.1500 
 48 H       -9.7850   -11.3200     1.1340 H     1 <1>   0.1500 
 49 H       -8.9370   -13.1690    -1.9420 H     1 <1>   0.0800 
 50 H      -10.5060   -12.4430    -1.6740 H     1 <1>   0.0800 
 51 H       -9.6940   -13.2870    -0.3750 H     1 <1>   0.0800 
@<TRIPOS>BOND
  1   1   2  2   
  2   1   3  2   
  3   1   4  am  
  4   1   5  1   
  5   4   6  1   
  6   4  29  1   
  7   5   7  ar  
  8   5   8  ar  
  9   6   9  1   
 10   6  30  1   
 11   6  31  1   
 12   7  10  ar  
 13   7  32  1   
 14   8  11  ar  
 15   8  33  1   
 16   9  34  1   
 17   9  35  1   
 18   9  36  1   
 19  10  12  ar  
 20  10  37  1   
 21  11  12  ar  
 22  11  38  1   
 23  12  13  1   
 24  13  14  am  
 25  13  39  1   
 26  14  15  2   
 27  14  16  1   
 28  16  17  1   
 29  16  18  1   
 30  16  40  1   
 31  17  19  1   
 32  17  41  1   
 33  17  42  1   
 34  18  20  1   
 35  18  43  1   
 36  18  44  1   
 37  19  20  am  
 38  19  21  1   
 39  20  22  2   
 40  21  23  ar  
 41  21  24  ar  
 42  23  25  ar  
 43  23  45  1   
 44  24  26  ar  
 45  24  46  1   
 46  25  27  ar  
 47  25  47  1   
 48  26  27  ar  
 49  26  48  1   
 50  27  28  1   
 51  28  49  1   
 52  28  50  1   
 53  28  51  1   
@<TRIPOS>SUBSTRUCTURE
  1 ****  14 GROUP 4 **** **** 0

# MOE 2024.06 (io_trps.svl 2023.06)
