@<TRIPOS>MOLECULE
8-(2-Ethyl-piperidin-1-ylmethyl)-1,3-dimethyl-7-propyl-3,7-dihydro-purine-2,6-di
55 57 1 0 0 
SMALL
USER_CHARGES


@<TRIPOS>ATOM
  1 O        0.5260     0.7350    -1.7760 O.2   1 <1>  -0.5700 
  2 C        1.4940     1.2300    -1.2360 C.2   1 <1>   0.6900 
  3 N        1.3540     2.4020    -0.4990 N.am  1 <1>  -0.4200 
  4 N        2.7370     0.6270    -1.3540 N.am  1 <1>  -0.4360 
  5 C        2.4380     2.9820     0.1470 C.2   1 <1>   0.7030 
  6 C       -0.0040     3.0220    -0.3840 C.3   1 <1>   0.0600 
  7 C        3.8150     1.2320    -0.7370 C.2   1 <1>   0.4260 
  8 C        2.9160    -0.6310    -2.1390 C.3   1 <1>   0.0600 
  9 O        2.2920     3.9860     0.8240 O.2   1 <1>  -0.5700 
 10 C        3.7260     2.3650     0.0000 C.2   1 <1>   0.2770 
 11 N        5.1090     0.8350    -0.7430 N.pl3 1 <1>  -0.7000 
 12 N        5.0220     2.6480     0.4560 N.pl3 1 <1>  -0.7640 
 13 C        5.8150     1.6940    -0.0210 C.cat 1 <1>   0.6560 
 14 C        5.3660     3.8190     1.3050 C.3   1 <1>   0.3540 
 15 C        7.3300     1.5220     0.1710 C.3   1 <1>   0.2540 
 16 C        5.5790     5.0460     0.4160 C.3   1 <1>  -0.1600 
 17 N        7.7820     0.1730    -0.2870 N.3   1 <1>  -0.8100 
 18 C        5.9740     6.2790     1.2390 C.3   1 <1>  -0.2400 
 19 C        7.9590    -0.8160     0.8140 C.3   1 <1>   0.1900 
 20 C        9.0130     0.3110    -1.0920 C.3   1 <1>   0.1100 
 21 C        8.3540    -2.1820     0.2150 C.3   1 <1>  -0.1600 
 22 C        6.6730    -0.9600     1.6620 C.3   1 <1>  -0.1600 
 23 C        9.3770    -1.0190    -1.7490 C.3   1 <1>  -0.1600 
 24 C        9.5860    -2.0990    -0.6900 C.3   1 <1>  -0.1600 
 25 C        6.8070    -1.9320     2.8450 C.3   1 <1>  -0.2400 
 26 H       -0.5290     2.9450    -1.3210 H     1 <1>   0.0800 
 27 H        0.0650     4.0650    -0.1250 H     1 <1>   0.0800 
 28 H       -0.5700     2.5100     0.3740 H     1 <1>   0.0800 
 29 H        1.9720    -1.1290    -2.2850 H     1 <1>   0.0800 
 30 H        3.5710    -1.3050    -1.6160 H     1 <1>   0.0800 
 31 H        3.3350    -0.4000    -3.1030 H     1 <1>   0.0800 
 32 H        5.5610     0.0210    -1.1730 H     1 <1>   0.4500 
 33 H        6.2620     3.6150     1.8660 H     1 <1>   0.0800 
 34 H        4.5710     4.0070     2.0100 H     1 <1>   0.0800 
 35 H        7.5990     1.6800     1.2000 H     1 <1>   0.0800 
 36 H        7.8080     2.2920    -0.4090 H     1 <1>   0.0800 
 37 H        4.6690     5.2650    -0.1150 H     1 <1>   0.0800 
 38 H        6.3540     4.8440    -0.3020 H     1 <1>   0.0800 
 39 H        5.2020     6.5240     1.9480 H     1 <1>   0.0800 
 40 H        6.1110     7.1260     0.5880 H     1 <1>   0.0800 
 41 H        6.8940     6.1100     1.7700 H     1 <1>   0.0800 
 42 H        8.7600    -0.4830     1.4550 H     1 <1>   0.0800 
 43 H        9.8270     0.6420    -0.4680 H     1 <1>   0.0800 
 44 H        8.8640     1.0400    -1.8720 H     1 <1>   0.0800 
 45 H        7.5250    -2.5740    -0.3470 H     1 <1>   0.0800 
 46 H        8.5750    -2.8800     1.0010 H     1 <1>   0.0800 
 47 H        5.8650    -1.2950     1.0360 H     1 <1>   0.0800 
 48 H        6.4030    -0.0130     2.0890 H     1 <1>   0.0800 
 49 H       10.2780    -0.9000    -2.3240 H     1 <1>   0.0800 
 50 H        8.5910    -1.3100    -2.4240 H     1 <1>   0.0800 
 51 H        9.7610    -3.0500    -1.1630 H     1 <1>   0.0800 
 52 H       10.4520    -1.8570    -0.0960 H     1 <1>   0.0800 
 53 H        6.8950    -2.9490     2.5060 H     1 <1>   0.0800 
 54 H        5.9330    -1.8710     3.4690 H     1 <1>   0.0800 
 55 H        7.6680    -1.6870     3.4420 H     1 <1>   0.0800 
@<TRIPOS>BOND
  1   1   2  2   
  2   2   3  am  
  3   2   4  am  
  4   3   5  am  
  5   3   6  1   
  6   4   7  1   
  7   4   8  1   
  8   5   9  2   
  9   5  10  1   
 10   6  26  1   
 11   6  27  1   
 12   6  28  1   
 13   7  10  2   
 14   7  11  1   
 15   8  29  1   
 16   8  30  1   
 17   8  31  1   
 18  10  12  1   
 19  11  13  ar  
 20  11  32  1   
 21  12  13  ar  
 22  12  14  1   
 23  13  15  1   
 24  14  16  1   
 25  14  33  1   
 26  14  34  1   
 27  15  17  1   
 28  15  35  1   
 29  15  36  1   
 30  16  18  1   
 31  16  37  1   
 32  16  38  1   
 33  17  19  1   
 34  17  20  1   
 35  18  39  1   
 36  18  40  1   
 37  18  41  1   
 38  19  21  1   
 39  19  22  1   
 40  19  42  1   
 41  20  23  1   
 42  20  43  1   
 43  20  44  1   
 44  21  24  1   
 45  21  45  1   
 46  21  46  1   
 47  22  25  1   
 48  22  47  1   
 49  22  48  1   
 50  23  24  1   
 51  23  49  1   
 52  23  50  1   
 53  24  51  1   
 54  24  52  1   
 55  25  53  1   
 56  25  54  1   
 57  25  55  1   
@<TRIPOS>SUBSTRUCTURE
  1 ****  11 GROUP 4 **** **** 0

# MOE 2024.06 (io_trps.svl 2023.06)
