@<TRIPOS>MOLECULE
1-(3,5-Dichloro-phenyl)-3-morpholin-4-yl-pyrrolidine-2,5-dione
35 37 1 0 0 
SMALL
USER_CHARGES


@<TRIPOS>ATOM
  1 CL       1.0720    -1.9220    -3.2340 Cl    1 <1>  -0.1770 
  2 C        1.6450    -2.3150    -1.6340 C.ar  1 <1>   0.1770 
  3 C        0.7630    -2.8530    -0.7180 C.ar  1 <1>  -0.1500 
  4 C        2.9690    -2.0830    -1.3130 C.ar  1 <1>  -0.1500 
  5 C        1.2420    -3.1570     0.5410 C.ar  1 <1>   0.1770 
  6 C        3.4480    -2.3930    -0.0430 C.ar  1 <1>   0.1170 
  7 CL       0.1540    -3.8360     1.7230 Cl    1 <1>  -0.1770 
  8 C        2.5630    -2.9360     0.8850 C.ar  1 <1>  -0.1500 
  9 N        4.8000    -2.1590     0.2910 N.am  1 <1>  -0.2370 
 10 C        5.6470    -3.0670     0.8660 C.2   1 <1>   0.5690 
 11 C        5.4620    -0.9780     0.1030 C.2   1 <1>   0.5690 
 12 O        5.3200    -4.1420     1.3110 O.2   1 <1>  -0.5700 
 13 C        7.0810    -2.5170     0.9510 C.3   1 <1>   0.2510 
 14 O        4.9970     0.0270    -0.3700 O.2   1 <1>  -0.5700 
 15 C        6.8870    -1.0380     0.5880 C.3   1 <1>  -0.0990 
 16 N        8.0730    -3.1240     0.0150 N.3   1 <1>  -0.8100 
 17 C        9.4570    -2.7030     0.3440 C.3   1 <1>   0.1100 
 18 C        8.0190    -4.6070     0.0130 C.3   1 <1>   0.1100 
 19 C       10.4840    -3.3620    -0.5930 C.3   1 <1>   0.1200 
 20 C        9.1030    -5.2170    -0.8950 C.3   1 <1>   0.1200 
 21 O       10.3700    -4.7520    -0.5320 O.3   1 <1>  -0.5600 
 22 H       -0.2640    -3.0300    -0.9760 H     1 <1>   0.1500 
 23 H        3.6230    -1.6560    -2.0520 H     1 <1>   0.1500 
 24 H        2.8970    -3.1920     1.8740 H     1 <1>   0.1500 
 25 H        7.4260    -2.6210     1.9660 H     1 <1>   0.0800 
 26 H        6.9890    -0.4120     1.4550 H     1 <1>   0.0800 
 27 H        7.5440    -0.7020    -0.1920 H     1 <1>   0.0800 
 28 H        9.6960    -2.9770     1.3580 H     1 <1>   0.0800 
 29 H        9.5520    -1.6360     0.2550 H     1 <1>   0.0800 
 30 H        7.0620    -4.9400    -0.3490 H     1 <1>   0.0800 
 31 H        8.1480    -4.9850     1.0140 H     1 <1>   0.0800 
 32 H       11.4840    -3.1020    -0.2950 H     1 <1>   0.0800 
 33 H       10.3290    -3.0450    -1.6100 H     1 <1>   0.0800 
 34 H        8.9220    -4.9570    -1.9240 H     1 <1>   0.0800 
 35 H        9.1070    -6.2880    -0.8030 H     1 <1>   0.0800 
@<TRIPOS>BOND
  1   1   2  1   
  2   2   3  ar  
  3   2   4  ar  
  4   3   5  ar  
  5   3  22  1   
  6   4   6  ar  
  7   4  23  1   
  8   5   7  1   
  9   5   8  ar  
 10   6   8  ar  
 11   6   9  1   
 12   8  24  1   
 13   9  10  am  
 14   9  11  am  
 15  10  12  2   
 16  10  13  1   
 17  11  14  2   
 18  11  15  1   
 19  13  15  1   
 20  13  16  1   
 21  13  25  1   
 22  15  26  1   
 23  15  27  1   
 24  16  17  1   
 25  16  18  1   
 26  17  19  1   
 27  17  28  1   
 28  17  29  1   
 29  18  20  1   
 30  18  30  1   
 31  18  31  1   
 32  19  21  1   
 33  19  32  1   
 34  19  33  1   
 35  20  21  1   
 36  20  34  1   
 37  20  35  1   
@<TRIPOS>SUBSTRUCTURE
  1 ****   9 GROUP 4 **** **** 0

# MOE 2024.06 (io_trps.svl 2023.06)
