@<TRIPOS>MOLECULE
4-(3-Ethoxy-4-hydroxy-phenyl)-3,6-dihydroxy-6-methyl-4,5,6,7-tetrahydro-1H-indaz
48 50 1 0 0 
SMALL
USER_CHARGES


@<TRIPOS>ATOM
  1 O       -0.2680     0.6040     0.6600 O.2   1 <1>  -0.5700 
  2 C        0.5590     1.2780     0.1010 C.2   1 <1>   0.6590 
  3 O        0.7070     1.2430    -1.2210 O.3   1 <1>  -0.4300 
  4 C        1.5260     2.1520     0.8770 C.3   1 <1>  -0.0190 
  5 C       -0.0850     0.3970    -2.0280 C.3   1 <1>   0.0400 
  6 C        1.2240     3.6750     0.7930 C.3   1 <1>   0.2800 
  7 C        2.9770     1.8190     0.4710 C.3   1 <1>   0.2440 
  8 O       -0.0840     3.8770     1.1740 O.3   1 <1>  -0.6800 
  9 C        2.1180     4.4610     1.7860 C.3   1 <1>   0.0200 
 10 C        1.3380     4.2700    -0.6200 C.3   1 <1>  -0.2400 
 11 C        3.3490     0.3730     0.7950 C.ar  1 <1>  -0.1440 
 12 C        3.9230     2.7860     1.1580 C.2   1 <1>  -0.1810 
 13 C        3.5480     3.9470     1.7260 C.2   1 <1>  -0.3320 
 14 C        3.5150    -0.5460    -0.2310 C.ar  1 <1>  -0.1500 
 15 C        3.5380    -0.0420     2.1040 C.ar  1 <1>  -0.1500 
 16 C        5.2970     2.7380     1.3570 C.2   1 <1>   0.3510 
 17 N        4.6670     4.5240     2.2220 N.pl3 1 <1>   0.3000 
 18 C        3.8680    -1.8610     0.0190 C.ar  1 <1>   0.0830 
 19 C        3.8890    -1.3510     2.3790 C.ar  1 <1>  -0.1500 
 20 O        6.0880     1.7230     0.9710 O.3   1 <1>  -0.5120 
 21 N        5.7600     3.7650     1.9880 N.2   1 <1>  -0.7070 
 22 O        3.9950    -2.6270    -1.1030 O.3   1 <1>  -0.3630 
 23 C        4.0580    -2.2660     1.3520 C.ar  1 <1>   0.0830 
 24 C        4.3570    -3.9870    -1.0720 C.3   1 <1>   0.1200 
 25 O        4.4060    -3.5210     1.7120 O.3   1 <1>  -0.5330 
 26 C        4.4030    -4.4960    -2.5090 C.3   1 <1>  -0.2400 
 27 H        1.4180     1.8770     1.9100 H     1 <1>   0.0800 
 28 H        0.2000     0.5380    -3.0550 H     1 <1>   0.0800 
 29 H       -1.1210     0.6530    -1.8900 H     1 <1>   0.0800 
 30 H        0.0870    -0.6240    -1.7320 H     1 <1>   0.0800 
 31 H        3.0950     1.9730    -0.5880 H     1 <1>   0.0800 
 32 H       -0.3670     4.7850     0.9570 H     1 <1>   0.4000 
 33 H        1.7550     4.3170     2.7890 H     1 <1>   0.0800 
 34 H        2.0960     5.5130     1.5600 H     1 <1>   0.0800 
 35 H        2.3380     4.1600    -0.9980 H     1 <1>   0.0800 
 36 H        1.1120     5.3210    -0.6100 H     1 <1>   0.0800 
 37 H        0.6630     3.7850    -1.3010 H     1 <1>   0.0800 
 38 H        3.3680    -0.2520    -1.2560 H     1 <1>   0.1500 
 39 H        3.4160     0.6540     2.9190 H     1 <1>   0.1500 
 40 H        4.7280     5.4200     2.7220 H     1 <1>   0.2700 
 41 H        4.0310    -1.6480     3.4020 H     1 <1>   0.1500 
 42 H        5.5450     0.9300     0.8200 H     1 <1>   0.4500 
 43 H        3.6190    -4.5220    -0.5000 H     1 <1>   0.0800 
 44 H        5.3240    -4.0700    -0.6070 H     1 <1>   0.0800 
 45 H        4.4730    -3.6290     2.6770 H     1 <1>   0.4500 
 46 H        3.4350    -4.3950    -2.9670 H     1 <1>   0.0800 
 47 H        4.6790    -5.5350    -2.5160 H     1 <1>   0.0800 
 48 H        5.1300    -3.9420    -3.0740 H     1 <1>   0.0800 
@<TRIPOS>BOND
  1   1   2  2   
  2   2   3  1   
  3   2   4  1   
  4   3   5  1   
  5   4   6  1   
  6   4   7  1   
  7   4  27  1   
  8   5  28  1   
  9   5  29  1   
 10   5  30  1   
 11   6   8  1   
 12   6   9  1   
 13   6  10  1   
 14   7  11  1   
 15   7  12  1   
 16   7  31  1   
 17   8  32  1   
 18   9  13  1   
 19   9  33  1   
 20   9  34  1   
 21  10  35  1   
 22  10  36  1   
 23  10  37  1   
 24  11  14  ar  
 25  11  15  ar  
 26  12  13  2   
 27  12  16  1   
 28  13  17  1   
 29  14  18  ar  
 30  14  38  1   
 31  15  19  ar  
 32  15  39  1   
 33  16  20  1   
 34  16  21  2   
 35  17  21  1   
 36  17  40  1   
 37  18  22  1   
 38  18  23  ar  
 39  19  23  ar  
 40  19  41  1   
 41  20  42  1   
 42  22  24  1   
 43  23  25  1   
 44  24  26  1   
 45  24  43  1   
 46  24  44  1   
 47  25  45  1   
 48  26  46  1   
 49  26  47  1   
 50  26  48  1   
@<TRIPOS>SUBSTRUCTURE
  1 ****  11 GROUP 4 **** **** 0

# MOE 2024.06 (io_trps.svl 2023.06)
