@<TRIPOS>MOLECULE
3-Benzyl-1-(4,6-dimethyl-pyrimidin-2-yl)-pyrrolidine-2,5-dione
39 41 1 0 0 
SMALL
USER_CHARGES


@<TRIPOS>ATOM
  1 O       -1.9020    -1.3650     1.9160 O.2   1 <1>  -0.5700 
  2 C       -2.3130    -1.3230     0.7850 C.2   1 <1>   0.5690 
  3 N       -1.9020    -2.0890    -0.2570 N.am  1 <1>  -0.2370 
  4 C       -3.4060    -0.3640     0.3530 C.3   1 <1>  -0.0190 
  5 C       -0.9210    -3.0410    -0.1760 C.ar  1 <1>   0.7370 
  6 C       -2.5670    -1.7700    -1.3960 C.2   1 <1>   0.5690 
  7 C       -3.5360    -0.6370    -1.1580 C.3   1 <1>  -0.0990 
  8 C       -3.0580     1.0970     0.6910 C.3   1 <1>  -0.0160 
  9 N       -1.3130    -4.2730     0.1360 N.ar  1 <1>  -0.6200 
 10 N        0.3220    -2.6330    -0.4160 N.ar  1 <1>  -0.6200 
 11 O       -2.4370    -2.2820    -2.4760 O.2   1 <1>  -0.5700 
 12 C       -4.1450     2.0490     0.2150 C.ar  1 <1>  -0.1430 
 13 C       -0.3650    -5.1740     0.2100 C.ar  1 <1>   0.1670 
 14 C        1.2520    -3.5520    -0.3360 C.ar  1 <1>   0.1670 
 15 C       -5.3510     2.1210     0.8950 C.ar  1 <1>  -0.1500 
 16 C       -3.9430     2.8520    -0.8970 C.ar  1 <1>  -0.1500 
 17 C        0.9530    -4.8560    -0.0220 C.ar  1 <1>  -0.1500 
 18 C       -0.7850    -6.5840     0.5620 C.3   1 <1>  -0.0970 
 19 C        2.6750    -3.1130    -0.6060 C.3   1 <1>  -0.0970 
 20 C       -6.3480     2.9790     0.4630 C.ar  1 <1>  -0.1500 
 21 C       -4.9390     3.7110    -1.3300 C.ar  1 <1>  -0.1500 
 22 C       -6.1430     3.7740    -0.6510 C.ar  1 <1>  -0.1500 
 23 H       -4.3140    -0.6460     0.8550 H     1 <1>   0.0800 
 24 H       -3.2460     0.2050    -1.7580 H     1 <1>   0.0800 
 25 H       -4.5340    -0.9400    -1.4190 H     1 <1>   0.0800 
 26 H       -2.1140     1.3610     0.2460 H     1 <1>   0.0800 
 27 H       -2.9460     1.1990     1.7570 H     1 <1>   0.0800 
 28 H       -5.5210     1.5110     1.7650 H     1 <1>   0.1500 
 29 H       -3.0110     2.8170    -1.4340 H     1 <1>   0.1500 
 30 H        1.7220    -5.6020     0.0410 H     1 <1>   0.1500 
 31 H       -1.4790    -6.9470    -0.1750 H     1 <1>   0.0800 
 32 H       -1.2690    -6.5860     1.5220 H     1 <1>   0.0800 
 33 H        0.0610    -7.2440     0.5970 H     1 <1>   0.0800 
 34 H        2.7430    -2.7090    -1.6000 H     1 <1>   0.0800 
 35 H        3.3580    -3.9370    -0.5180 H     1 <1>   0.0800 
 36 H        2.9550    -2.3500     0.0970 H     1 <1>   0.0800 
 37 H       -7.2820     3.0310     0.9950 H     1 <1>   0.1500 
 38 H       -4.7780     4.3320    -2.1940 H     1 <1>   0.1500 
 39 H       -6.9170     4.4410    -0.9860 H     1 <1>   0.1500 
@<TRIPOS>BOND
  1   1   2  2   
  2   2   3  am  
  3   2   4  1   
  4   3   5  1   
  5   3   6  am  
  6   4   7  1   
  7   4   8  1   
  8   4  23  1   
  9   5   9  ar  
 10   5  10  ar  
 11   6   7  1   
 12   6  11  2   
 13   7  24  1   
 14   7  25  1   
 15   8  12  1   
 16   8  26  1   
 17   8  27  1   
 18   9  13  ar  
 19  10  14  ar  
 20  12  15  ar  
 21  12  16  ar  
 22  13  17  ar  
 23  13  18  1   
 24  14  17  ar  
 25  14  19  1   
 26  15  20  ar  
 27  15  28  1   
 28  16  21  ar  
 29  16  29  1   
 30  17  30  1   
 31  18  31  1   
 32  18  32  1   
 33  18  33  1   
 34  19  34  1   
 35  19  35  1   
 36  19  36  1   
 37  20  22  ar  
 38  20  37  1   
 39  21  22  ar  
 40  21  38  1   
 41  22  39  1   
@<TRIPOS>SUBSTRUCTURE
  1 ****   2 GROUP 4 **** **** 0

# MOE 2024.06 (io_trps.svl 2023.06)
