@<TRIPOS>MOLECULE
2-(3,5-Dimethyl-pyrazol-1-yl)-propylamine
27 27 1 0 0 
SMALL
USER_CHARGES


@<TRIPOS>ATOM
  1 N        0.5200     0.0700     0.6650 N.2   1 <1>  -0.7070 
  2 N        1.5470    -0.4070    -0.0640 N.pl3 1 <1>   0.3140 
  3 C       -0.3560    -0.8840     0.6720 C.2   1 <1>   0.1080 
  4 C        1.3020    -1.6650    -0.4950 C.2   1 <1>  -0.3320 
  5 C        2.7600     0.4140    -0.2840 C.3   1 <1>   0.1760 
  6 C        0.0770    -1.9970    -0.0350 C.2   1 <1>  -0.1500 
  7 C       -1.6870    -0.7660     1.3790 C.3   1 <1>  -0.0590 
  8 C        2.2360    -2.5200    -1.3370 C.3   1 <1>  -0.0600 
  9 C        2.9040     1.3470     0.9350 C.3   1 <1>   0.3430 
 10 C        2.6400     1.1820    -1.6150 C.3   1 <1>  -0.2400 
 11 N        4.0670     2.2850     0.8480 N.4   1 <1>  -0.8530 
 12 H        3.5980    -0.2560    -0.3220 H     1 <1>   0.0800 
 13 H       -0.4710    -2.9130    -0.1710 H     1 <1>   0.1500 
 14 H       -1.5250    -0.6030     2.4290 H     1 <1>   0.0800 
 15 H       -2.2630    -1.6630     1.2470 H     1 <1>   0.0800 
 16 H       -2.2350     0.0660     0.9770 H     1 <1>   0.0800 
 17 H        3.1600    -2.6970    -0.8160 H     1 <1>   0.0800 
 18 H        2.4420    -2.0410    -2.2770 H     1 <1>   0.0800 
 19 H        1.7770    -3.4720    -1.5400 H     1 <1>   0.0800 
 20 H        2.9910     0.7390     1.8220 H     1 <1>   0.0800 
 21 H        1.9950     1.9230     1.0250 H     1 <1>   0.0800 
 22 H        1.8140     1.8720    -1.5780 H     1 <1>   0.0800 
 23 H        2.4650     0.4910    -2.4220 H     1 <1>   0.0800 
 24 H        3.5410     1.7230    -1.8390 H     1 <1>   0.0800 
 25 H        4.9610     1.7850     0.7930 H     1 <1>   0.4500 
 26 H        4.0940     2.8890     1.6790 H     1 <1>   0.4500 
 27 H        3.9780     2.8970     0.0270 H     1 <1>   0.4500 
@<TRIPOS>BOND
  1   1   2  1   
  2   1   3  2   
  3   2   4  1   
  4   2   5  1   
  5   3   6  1   
  6   3   7  1   
  7   4   6  2   
  8   4   8  1   
  9   5   9  1   
 10   5  10  1   
 11   5  12  1   
 12   6  13  1   
 13   7  14  1   
 14   7  15  1   
 15   7  16  1   
 16   8  17  1   
 17   8  18  1   
 18   8  19  1   
 19   9  11  1   
 20   9  20  1   
 21   9  21  1   
 22  10  22  1   
 23  10  23  1   
 24  10  24  1   
 25  11  25  1   
 26  11  26  1   
 27  11  27  1   
@<TRIPOS>SUBSTRUCTURE
  1 ****   2 GROUP 4 **** **** 0

# MOE 2024.06 (io_trps.svl 2023.06)
