@<TRIPOS>MOLECULE
[8-(4-Ethyl-phenyl)-1,7-dimethyl-2,4-dioxo-1,2,4,8-tetrahydro-imidazo[2,1-f]puri
54 57 1 0 0 
SMALL
USER_CHARGES


@<TRIPOS>ATOM
  1 O        0.8560    -0.9970     1.3140 O.2   1 <1>  -0.5740 
  2 C        1.7060    -0.1420     1.1770 C.2   1 <1>   0.6870 
  3 N        1.3590     1.1970     1.2970 N.am  1 <1>  -0.4250 
  4 N        3.0210    -0.5030     0.9050 N.am  1 <1>  -0.4410 
  5 C        2.3070     2.2010     1.1870 C.2   1 <1>   0.7000 
  6 C       -0.0850     1.5740     1.1230 C.3   1 <1>   0.1950 
  7 C        3.9560     0.5040     0.7660 C.2   1 <1>   0.4210 
  8 C        3.4010    -1.9380     0.7450 C.3   1 <1>   0.0530 
  9 O        1.9950     3.3690     1.3450 O.2   1 <1>  -0.5740 
 10 C        3.6490     1.8190     0.8950 C.2   1 <1>   0.2710 
 11 C       -0.4380     1.7530    -0.3500 C.2   1 <1>   0.6550 
 12 N        5.2890     0.3770     0.4920 N.pl3 1 <1>  -0.7030 
 13 N        4.8450     2.5240     0.6910 N.pl3 1 <1>  -0.6330 
 14 O        0.4050     1.7000    -1.2150 O.2   1 <1>  -0.5740 
 15 O       -1.7180     1.9720    -0.6140 O.3   1 <1>  -0.4350 
 16 C        5.7820     1.6190     0.4510 C.cat 1 <1>   1.0690 
 17 C        5.4550     3.7620     0.6140 C.2   1 <1>   0.2230 
 18 C       -2.1820     2.1500    -1.9330 C.3   1 <1>   0.1130 
 19 N        6.9750     2.1810     0.2300 N.pl3 1 <1>  -0.5550 
 20 C        6.7590     3.5500     0.3330 C.2   1 <1>   0.1580 
 21 C       -3.6880     2.3800    -1.8770 C.3   1 <1>  -0.2460 
 22 C        8.1690     1.5000    -0.0490 C.ar  1 <1>   0.3050 
 23 C        7.8850     4.5480     0.1380 C.3   1 <1>  -0.1090 
 24 C        8.5280     1.2260    -1.3600 C.ar  1 <1>  -0.1570 
 25 C        8.9900     1.0780     0.9850 C.ar  1 <1>  -0.1570 
 26 C        9.6890     0.5260    -1.6330 C.ar  1 <1>  -0.1570 
 27 C       10.1510     0.3780     0.7120 C.ar  1 <1>  -0.1570 
 28 C       10.5040     0.0960    -0.5980 C.ar  1 <1>  -0.1500 
 29 C       11.7830    -0.6710    -0.8990 C.3   1 <1>  -0.0240 
 30 C       12.9590     0.2920    -1.0700 C.3   1 <1>  -0.2460 
 31 H       -0.2910     2.4920     1.6420 H     1 <1>   0.0730 
 32 H       -0.7220     0.8160     1.5420 H     1 <1>   0.0730 
 33 H        2.5370    -2.5370     0.5100 H     1 <1>   0.0730 
 34 H        3.8330    -2.3040     1.6600 H     1 <1>   0.0730 
 35 H        4.1090    -2.0510    -0.0570 H     1 <1>   0.0730 
 36 H        5.8330    -0.4700     0.3340 H     1 <1>   0.4450 
 37 H        4.9140     4.6850     0.7650 H     1 <1>   0.1430 
 38 H       -1.9480     1.2640    -2.5000 H     1 <1>   0.0730 
 39 H       -1.6770     2.9990    -2.3620 H     1 <1>   0.0730 
 40 H       -4.1780     1.5290    -1.4390 H     1 <1>   0.0730 
 41 H       -4.0700     2.5190    -2.8720 H     1 <1>   0.0730 
 42 H       -3.9080     3.2600    -1.3000 H     1 <1>   0.0730 
 43 H        8.6630     4.3740     0.8600 H     1 <1>   0.0730 
 44 H        7.5230     5.5530     0.2590 H     1 <1>   0.0730 
 45 H        8.3020     4.4490    -0.8480 H     1 <1>   0.0730 
 46 H        7.9070     1.5580    -2.1720 H     1 <1>   0.1430 
 47 H        8.7310     1.2970     2.0050 H     1 <1>   0.1430 
 48 H        9.9650     0.3170    -2.6540 H     1 <1>   0.1430 
 49 H       10.7880     0.0550     1.5190 H     1 <1>   0.1430 
 50 H       11.6590    -1.2500    -1.7980 H     1 <1>   0.0730 
 51 H       11.9940    -1.3570    -0.0970 H     1 <1>   0.0730 
 52 H       12.7680     0.9710    -1.8820 H     1 <1>   0.0730 
 53 H       13.8590    -0.2570    -1.2820 H     1 <1>   0.0730 
 54 H       13.1060     0.8630    -0.1700 H     1 <1>   0.0730 
@<TRIPOS>BOND
  1   1   2  2   
  2   2   3  am  
  3   2   4  am  
  4   3   5  am  
  5   3   6  1   
  6   4   7  1   
  7   4   8  1   
  8   5   9  2   
  9   5  10  1   
 10   6  11  1   
 11   6  31  1   
 12   6  32  1   
 13   7  10  2   
 14   7  12  1   
 15   8  33  1   
 16   8  34  1   
 17   8  35  1   
 18  10  13  1   
 19  11  14  2   
 20  11  15  1   
 21  12  16  ar  
 22  12  36  1   
 23  13  16  ar  
 24  13  17  1   
 25  15  18  1   
 26  16  19  ar  
 27  17  20  2   
 28  17  37  1   
 29  18  21  1   
 30  18  38  1   
 31  18  39  1   
 32  19  20  1   
 33  19  22  1   
 34  20  23  1   
 35  21  40  1   
 36  21  41  1   
 37  21  42  1   
 38  22  24  ar  
 39  22  25  ar  
 40  23  43  1   
 41  23  44  1   
 42  23  45  1   
 43  24  26  ar  
 44  24  46  1   
 45  25  27  ar  
 46  25  47  1   
 47  26  28  ar  
 48  26  48  1   
 49  27  28  ar  
 50  27  49  1   
 51  28  29  1   
 52  29  30  1   
 53  29  50  1   
 54  29  51  1   
 55  30  52  1   
 56  30  53  1   
 57  30  54  1   
@<TRIPOS>SUBSTRUCTURE
  1 ****  12 GROUP 4 **** **** 0

# MOE 2024.06 (io_trps.svl 2023.06)
