@<TRIPOS>MOLECULE
2-Propionylamino-N-(tetrahydro-furan-2-ylmethyl)-benzamide
40 41 1 0 0 
SMALL
USER_CHARGES


@<TRIPOS>ATOM
  1 O       -3.2510    -0.5330    -1.6780 O.2   1 <1>  -0.5700 
  2 C       -3.2680    -0.4040    -0.4680 C.2   1 <1>   0.5440 
  3 N       -4.0900     0.5420     0.0730 N.am  1 <1>  -0.7300 
  4 C       -2.4350    -1.2250     0.3870 C.ar  1 <1>   0.0860 
  5 C       -4.9090     1.5240    -0.6770 C.3   1 <1>   0.1400 
  6 C       -1.1060    -1.5360     0.0470 C.ar  1 <1>   0.1170 
  7 C       -2.9480    -1.7320     1.5840 C.ar  1 <1>  -0.1500 
  8 C       -4.6420     2.9390    -0.1430 C.3   1 <1>   0.2000 
  9 N       -0.5450    -1.0330    -1.1350 N.am  1 <1>  -0.5470 
 10 C       -0.3640    -2.3650     0.8840 C.ar  1 <1>  -0.1500 
 11 C       -2.1900    -2.5320     2.4160 C.ar  1 <1>  -0.1500 
 12 O       -4.7370     2.9590     1.2480 O.3   1 <1>  -0.5600 
 13 C       -5.6460     3.9850    -0.6040 C.3   1 <1>  -0.1600 
 14 C        0.6580    -0.4730    -1.4440 C.2   1 <1>   0.5690 
 15 C       -0.8930    -2.8540     2.0610 C.ar  1 <1>  -0.1500 
 16 C       -5.0010     4.2500     1.6980 C.3   1 <1>   0.1200 
 17 C       -5.5890     5.0150     0.5120 C.3   1 <1>  -0.1600 
 18 O        0.8730    -0.1170    -2.5740 O.2   1 <1>  -0.5700 
 19 C        1.7380    -0.2290    -0.3980 C.3   1 <1>  -0.0990 
 20 C        2.9390    -1.1760    -0.5500 C.3   1 <1>  -0.2400 
 21 H       -4.0100     0.7890     1.0650 H     1 <1>   0.3700 
 22 H       -5.9490     1.2790    -0.5500 H     1 <1>   0.0800 
 23 H       -4.6790     1.4820    -1.7270 H     1 <1>   0.0800 
 24 H       -3.9620    -1.5020     1.8600 H     1 <1>   0.1500 
 25 H       -3.6440     3.2460    -0.4040 H     1 <1>   0.0800 
 26 H       -1.2270    -0.9120    -1.8980 H     1 <1>   0.3700 
 27 H        0.6360    -2.6390     0.6080 H     1 <1>   0.1500 
 28 H       -2.6070    -2.9110     3.3340 H     1 <1>   0.1500 
 29 H       -6.6300     3.5520    -0.6550 H     1 <1>   0.0800 
 30 H       -5.3860     4.3960    -1.5630 H     1 <1>   0.0800 
 31 H       -0.3020    -3.4880     2.7000 H     1 <1>   0.1500 
 32 H       -4.0760     4.6900     2.0290 H     1 <1>   0.0800 
 33 H       -5.6950     4.1860     2.5190 H     1 <1>   0.0800 
 34 H       -6.5620     5.4110     0.7430 H     1 <1>   0.0800 
 35 H       -4.9340     5.8270     0.2500 H     1 <1>   0.0800 
 36 H        1.3260    -0.3040     0.5900 H     1 <1>   0.0800 
 37 H        2.0810     0.7830    -0.5190 H     1 <1>   0.0800 
 38 H        2.6320    -2.2020    -0.4660 H     1 <1>   0.0800 
 39 H        3.6740    -0.9690     0.2080 H     1 <1>   0.0800 
 40 H        3.3940    -1.0370    -1.5160 H     1 <1>   0.0800 
@<TRIPOS>BOND
  1   1   2  2   
  2   2   3  am  
  3   2   4  1   
  4   3   5  1   
  5   3  21  1   
  6   4   6  ar  
  7   4   7  ar  
  8   5   8  1   
  9   5  22  1   
 10   5  23  1   
 11   6   9  1   
 12   6  10  ar  
 13   7  11  ar  
 14   7  24  1   
 15   8  12  1   
 16   8  13  1   
 17   8  25  1   
 18   9  14  am  
 19   9  26  1   
 20  10  15  ar  
 21  10  27  1   
 22  11  15  ar  
 23  11  28  1   
 24  12  16  1   
 25  13  17  1   
 26  13  29  1   
 27  13  30  1   
 28  14  18  2   
 29  14  19  1   
 30  15  31  1   
 31  16  17  1   
 32  16  32  1   
 33  16  33  1   
 34  17  34  1   
 35  17  35  1   
 36  19  20  1   
 37  19  36  1   
 38  19  37  1   
 39  20  38  1   
 40  20  39  1   
 41  20  40  1   
@<TRIPOS>SUBSTRUCTURE
  1 ****   2 GROUP 4 **** **** 0

# MOE 2024.06 (io_trps.svl 2023.06)
