@<TRIPOS>MOLECULE
1-(4-Methoxy-3-methyl-benzenesulfonyl)-piperidine-4-carboxylic acid p-tolylamide
54 56 1 0 0 
SMALL
USER_CHARGES


@<TRIPOS>ATOM
  1 S       -0.1020     0.1370    -2.4960 S.o2  1 <1>   1.4470 
  2 O        0.5840    -0.9400    -3.1800 O.2   1 <1>  -0.6500 
  3 O       -0.8110     1.1260    -3.2780 O.2   1 <1>  -0.6500 
  4 N        1.0810     0.9580    -1.5990 N.am  1 <1>  -0.8490 
  5 C       -1.2080    -0.5330    -1.2240 C.ar  1 <1>  -0.0090 
  6 C        1.8490     1.8750    -2.4440 C.3   1 <1>   0.1960 
  7 C        1.9520     0.0350    -0.8660 C.3   1 <1>   0.1960 
  8 C       -1.6210     0.2500    -0.1520 C.ar  1 <1>  -0.1500 
  9 C       -1.6730    -1.8400    -1.2890 C.ar  1 <1>  -0.1500 
 10 C        2.8050     2.7120    -1.5890 C.3   1 <1>  -0.1600 
 11 C        2.8990     0.8150     0.0480 C.3   1 <1>  -0.1600 
 12 C       -2.4600    -0.2460     0.8320 C.ar  1 <1>  -0.1430 
 13 C       -2.5130    -2.3530    -0.3170 C.ar  1 <1>  -0.1500 
 14 C        3.7410     1.8220    -0.7540 C.3   1 <1>  -0.0190 
 15 C       -2.9120    -1.5590     0.7540 C.ar  1 <1>   0.0820 
 16 C       -2.8800     0.6510     1.9880 C.3   1 <1>  -0.0970 
 17 C        4.6460     2.6570     0.1520 C.2   1 <1>   0.5690 
 18 O       -3.7330    -2.0060     1.7390 O.3   1 <1>  -0.3630 
 19 O        4.1460     3.2820     1.0550 O.2   1 <1>  -0.5700 
 20 N        5.9900     2.6430    -0.1100 N.am  1 <1>  -0.5470 
 21 C       -4.2660    -3.3120     1.7290 C.3   1 <1>   0.0400 
 22 C        7.0660     3.2990     0.5090 C.ar  1 <1>   0.1170 
 23 C        6.9180     4.4140     1.3270 C.ar  1 <1>  -0.1500 
 24 C        8.3520     2.8210     0.2820 C.ar  1 <1>  -0.1500 
 25 C        8.0170     5.0270     1.9010 C.ar  1 <1>  -0.1500 
 26 C        9.4530     3.4320     0.8530 C.ar  1 <1>  -0.1500 
 27 C        9.2930     4.5410     1.6670 C.ar  1 <1>  -0.1430 
 28 C       10.4970     5.2140     2.3000 C.3   1 <1>  -0.0970 
 29 H        1.1780     2.5440    -2.9580 H     1 <1>   0.0800 
 30 H        2.3980     1.3170    -3.1840 H     1 <1>   0.0800 
 31 H        2.5210    -0.5640    -1.5580 H     1 <1>   0.0800 
 32 H        1.3550    -0.6280    -0.2610 H     1 <1>   0.0800 
 33 H       -1.2730     1.2680    -0.0960 H     1 <1>   0.1500 
 34 H       -1.3720    -2.4650    -2.1140 H     1 <1>   0.1500 
 35 H        2.2220     3.3400    -0.9360 H     1 <1>   0.0800 
 36 H        3.3850     3.3540    -2.2270 H     1 <1>   0.0800 
 37 H        3.5460     0.1290     0.5640 H     1 <1>   0.0800 
 38 H        2.3140     1.3340     0.7900 H     1 <1>   0.0800 
 39 H       -2.8450    -3.3690    -0.4120 H     1 <1>   0.1500 
 40 H        4.3600     1.2650    -1.4330 H     1 <1>   0.0800 
 41 H       -2.4290     1.6240     1.9120 H     1 <1>   0.0800 
 42 H       -2.5810     0.2060     2.9210 H     1 <1>   0.0800 
 43 H       -3.9490     0.7660     1.9890 H     1 <1>   0.0800 
 44 H        6.2710     2.0280    -0.8690 H     1 <1>   0.3700 
 45 H       -4.8880    -3.4240     2.5980 H     1 <1>   0.0800 
 46 H       -3.4570    -4.0200     1.7650 H     1 <1>   0.0800 
 47 H       -4.8540    -3.4420     0.8380 H     1 <1>   0.0800 
 48 H        5.9410     4.8170     1.5220 H     1 <1>   0.1500 
 49 H        8.4990     1.9610    -0.3440 H     1 <1>   0.1500 
 50 H        7.8730     5.8860     2.5330 H     1 <1>   0.1500 
 51 H       10.4380     3.0410     0.6650 H     1 <1>   0.1500 
 52 H       10.3200     6.2670     2.4170 H     1 <1>   0.0800 
 53 H       11.3690     5.0840     1.6840 H     1 <1>   0.0800 
 54 H       10.6870     4.7830     3.2660 H     1 <1>   0.0800 
@<TRIPOS>BOND
  1   1   2  2   
  2   1   3  2   
  3   1   4  am  
  4   1   5  1   
  5   4   6  1   
  6   4   7  1   
  7   5   8  ar  
  8   5   9  ar  
  9   6  10  1   
 10   6  29  1   
 11   6  30  1   
 12   7  11  1   
 13   7  31  1   
 14   7  32  1   
 15   8  12  ar  
 16   8  33  1   
 17   9  13  ar  
 18   9  34  1   
 19  10  14  1   
 20  10  35  1   
 21  10  36  1   
 22  11  14  1   
 23  11  37  1   
 24  11  38  1   
 25  12  15  ar  
 26  12  16  1   
 27  13  15  ar  
 28  13  39  1   
 29  14  17  1   
 30  14  40  1   
 31  15  18  1   
 32  16  41  1   
 33  16  42  1   
 34  16  43  1   
 35  17  19  2   
 36  17  20  am  
 37  18  21  1   
 38  20  22  1   
 39  20  44  1   
 40  21  45  1   
 41  21  46  1   
 42  21  47  1   
 43  22  23  ar  
 44  22  24  ar  
 45  23  25  ar  
 46  23  48  1   
 47  24  26  ar  
 48  24  49  1   
 49  25  27  ar  
 50  25  50  1   
 51  26  27  ar  
 52  26  51  1   
 53  27  28  1   
 54  28  52  1   
 55  28  53  1   
 56  28  54  1   
@<TRIPOS>SUBSTRUCTURE
  1 ****  11 GROUP 4 **** **** 0

# MOE 2024.06 (io_trps.svl 2023.06)
