@<TRIPOS>MOLECULE
(2,5-Dimethyl-3-phenyl-pyrazolo[1,5-a]pyrimidin-7-yl)-(2-morpholin-4-yl-ethyl)-a
53 56 1 0 0 
SMALL
USER_CHARGES


@<TRIPOS>ATOM
  1 O       -0.7810    -1.1860     0.5920 O.3   1 <1>  -0.5600 
  2 C       -1.2220     0.1380     0.4620 C.3   1 <1>   0.1200 
  3 C       -1.0340    -1.9840    -0.5340 C.3   1 <1>   0.1200 
  4 C       -2.7520     0.1800     0.2360 C.3   1 <1>   0.3430 
  5 C       -2.5470    -2.0070    -0.8590 C.3   1 <1>   0.3430 
  6 N       -3.3290    -1.2170     0.1650 N.4   1 <1>  -0.9590 
  7 C       -4.8120    -1.3170    -0.0500 C.3   1 <1>   0.3430 
  8 C       -5.6460    -0.7910     1.1430 C.3   1 <1>   0.1860 
  9 N       -7.1020    -1.0590     0.9550 N.pl3 1 <1>  -0.1460 
 10 C       -8.1260    -0.2080     0.7490 C.cat 1 <1>   0.3950 
 11 N       -9.3680    -0.7900     0.6050 N.pl3 1 <1>   0.5610 
 12 C       -8.0700     1.1950     0.6590 C.2   1 <1>  -0.1360 
 13 N       -9.6260    -2.1250     0.6450 N.2   1 <1>  -0.7070 
 14 C      -10.4970    -0.0690     0.3640 C.2   1 <1>  -0.0680 
 15 C       -9.2080     1.9370     0.4290 C.2   1 <1>  -0.0380 
 16 C      -10.9050    -2.2050     0.4380 C.2   1 <1>   0.1080 
 17 N      -10.3980     1.3170     0.2840 N.pl3 1 <1>  -0.5840 
 18 C      -11.5220    -0.9560     0.2560 C.2   1 <1>  -0.0540 
 19 C       -9.2000     3.4500     0.3320 C.3   1 <1>  -0.1020 
 20 C      -11.6340    -3.5330     0.3910 C.3   1 <1>  -0.0590 
 21 C      -12.9110    -0.6720     0.0060 C.ar  1 <1>   0.0540 
 22 C      -13.3020     0.0090    -1.1430 C.ar  1 <1>  -0.1500 
 23 C      -13.9000    -1.0610     0.9060 C.ar  1 <1>  -0.1500 
 24 C      -14.6340     0.2910    -1.3890 C.ar  1 <1>  -0.1500 
 25 C      -15.2330    -0.7820     0.6660 C.ar  1 <1>  -0.1500 
 26 C      -15.6020    -0.1050    -0.4830 C.ar  1 <1>  -0.1500 
 27 H       -0.6960     0.6010    -0.3570 H     1 <1>   0.0800 
 28 H       -0.9600     0.6620     1.3660 H     1 <1>   0.0800 
 29 H       -0.6830    -2.9780    -0.3150 H     1 <1>   0.0800 
 30 H       -0.4650    -1.6040    -1.3660 H     1 <1>   0.0800 
 31 H       -2.9530     0.7150    -0.6780 H     1 <1>   0.0800 
 32 H       -3.2010     0.7320     1.0450 H     1 <1>   0.0800 
 33 H       -2.8800    -3.0320    -0.8800 H     1 <1>   0.0800 
 34 H       -2.6990    -1.5950    -1.8440 H     1 <1>   0.0800 
 35 H       -3.0340    -1.6580     1.0560 H     1 <1>   0.4500 
 36 H       -5.0610    -2.3550    -0.2100 H     1 <1>   0.0800 
 37 H       -5.0750    -0.7710    -0.9420 H     1 <1>   0.0800 
 38 H       -5.4860     0.2660     1.2570 H     1 <1>   0.0800 
 39 H       -5.3280    -1.2820     2.0470 H     1 <1>   0.0800 
 40 H       -7.3940    -2.0510     1.0310 H     1 <1>   0.4000 
 41 H       -7.1350     1.7100     0.7720 H     1 <1>   0.1500 
 42 H      -11.2680     1.8530     0.1260 H     1 <1>   0.4000 
 43 H       -9.8350     3.8700     1.0920 H     1 <1>   0.0800 
 44 H       -9.5670     3.7600    -0.6310 H     1 <1>   0.0800 
 45 H       -8.2090     3.8460     0.4610 H     1 <1>   0.0800 
 46 H      -10.9610    -4.3160     0.0940 H     1 <1>   0.0800 
 47 H      -12.4440    -3.4900    -0.3150 H     1 <1>   0.0800 
 48 H      -12.0290    -3.7660     1.3630 H     1 <1>   0.0800 
 49 H      -12.5550     0.3150    -1.8530 H     1 <1>   0.1500 
 50 H      -13.6220    -1.5820     1.8040 H     1 <1>   0.1500 
 51 H      -14.9190     0.8160    -2.2840 H     1 <1>   0.1500 
 52 H      -15.9860    -1.0890     1.3720 H     1 <1>   0.1500 
 53 H      -16.6400     0.1130    -0.6720 H     1 <1>   0.1500 
@<TRIPOS>BOND
  1   1   2  1   
  2   1   3  1   
  3   2   4  1   
  4   2  27  1   
  5   2  28  1   
  6   3   5  1   
  7   3  29  1   
  8   3  30  1   
  9   4   6  1   
 10   4  31  1   
 11   4  32  1   
 12   5   6  1   
 13   5  33  1   
 14   5  34  1   
 15   6   7  1   
 16   6  35  1   
 17   7   8  1   
 18   7  36  1   
 19   7  37  1   
 20   8   9  1   
 21   8  38  1   
 22   8  39  1   
 23   9  10  ar  
 24   9  40  1   
 25  10  11  ar  
 26  10  12  1   
 27  11  13  1   
 28  11  14  1   
 29  12  15  2   
 30  12  41  1   
 31  13  16  2   
 32  14  17  1   
 33  14  18  2   
 34  15  17  1   
 35  15  19  1   
 36  16  18  1   
 37  16  20  1   
 38  17  42  1   
 39  18  21  1   
 40  19  43  1   
 41  19  44  1   
 42  19  45  1   
 43  20  46  1   
 44  20  47  1   
 45  20  48  1   
 46  21  22  ar  
 47  21  23  ar  
 48  22  24  ar  
 49  22  49  1   
 50  23  25  ar  
 51  23  50  1   
 52  24  26  ar  
 53  24  51  1   
 54  25  26  ar  
 55  25  52  1   
 56  26  53  1   
@<TRIPOS>SUBSTRUCTURE
  1 ****  10 GROUP 4 **** **** 0

# MOE 2024.06 (io_trps.svl 2023.06)
