@<TRIPOS>MOLECULE
Methyl-[2-(2-methyl-imidazol-1-yl)-ethyl]-amine
24 24 1 0 0 
SMALL
USER_CHARGES


@<TRIPOS>ATOM
  1 N       -0.3450    -0.0590     0.3210 N.2   1 <1>  -0.5650 
  2 C       -1.4450     0.6000     0.1740 C.2   1 <1>   0.0060 
  3 C       -0.5340    -1.1820    -0.3930 C.2   1 <1>   0.0770 
  4 N       -2.3580    -0.0420    -0.5960 N.pl3 1 <1>   0.0480 
  5 C       -1.6610     1.9570     0.8150 C.3   1 <1>  -0.0600 
  6 C       -1.7590    -1.1910    -0.9580 C.2   1 <1>  -0.3020 
  7 C       -3.7430     0.3390    -0.9050 C.3   1 <1>   0.0960 
  8 C       -4.6510    -0.3440     0.1220 C.3   1 <1>   0.3430 
  9 N       -6.1000    -0.0560    -0.1250 N.4   1 <1>  -0.9060 
 10 C       -6.9780    -0.7300     0.8810 C.3   1 <1>   0.2630 
 11 H        0.2370    -1.9330    -0.4620 H     1 <1>   0.1500 
 12 H       -0.7770     2.2420     1.3580 H     1 <1>   0.0800 
 13 H       -2.4840     1.9240     1.5040 H     1 <1>   0.0800 
 14 H       -1.8450     2.7000     0.0610 H     1 <1>   0.0800 
 15 H       -2.2060    -1.9410    -1.5850 H     1 <1>   0.1500 
 16 H       -3.9700     0.0060    -1.9010 H     1 <1>   0.0800 
 17 H       -3.8320     1.4080    -0.8510 H     1 <1>   0.0800 
 18 H       -4.3770    -0.0030     1.1080 H     1 <1>   0.0800 
 19 H       -4.4840    -1.4080     0.0760 H     1 <1>   0.0800 
 20 H       -6.3690    -0.3730    -1.0680 H     1 <1>   0.4500 
 21 H       -6.2740     0.9600    -0.0930 H     1 <1>   0.4500 
 22 H       -6.8430    -1.8000     0.8420 H     1 <1>   0.0800 
 23 H       -8.0150    -0.5100     0.6820 H     1 <1>   0.0800 
 24 H       -6.7410    -0.3900     1.8770 H     1 <1>   0.0800 
@<TRIPOS>BOND
  1   1   2  2   
  2   1   3  1   
  3   2   4  1   
  4   2   5  1   
  5   3   6  2   
  6   3  11  1   
  7   4   6  1   
  8   4   7  1   
  9   5  12  1   
 10   5  13  1   
 11   5  14  1   
 12   6  15  1   
 13   7   8  1   
 14   7  16  1   
 15   7  17  1   
 16   8   9  1   
 17   8  18  1   
 18   8  19  1   
 19   9  10  1   
 20   9  20  1   
 21   9  21  1   
 22  10  22  1   
 23  10  23  1   
 24  10  24  1   
@<TRIPOS>SUBSTRUCTURE
  1 ****   4 GROUP 4 **** **** 0

# MOE 2024.06 (io_trps.svl 2023.06)
