@<TRIPOS>MOLECULE
N-[3-(3,4-Dimethoxy-phenyl)-[1,2,4]oxadiazol-5-ylmethyl]-2,2-dimethyl-propionami
44 45 1 0 0 
SMALL
USER_CHARGES


@<TRIPOS>ATOM
  1 O       -2.8550     0.5830    -2.3830 O.2   1 <1>  -0.5700 
  2 C       -2.9850     0.1780    -1.2540 C.2   1 <1>   0.5690 
  3 N       -4.2290    -0.2460    -0.9130 N.am  1 <1>  -0.7300 
  4 C       -1.7520     0.1730    -0.2990 C.3   1 <1>   0.0610 
  5 C       -4.8030    -0.8350     0.3250 C.3   1 <1>   0.3200 
  6 C       -1.9630     1.1260     0.8950 C.3   1 <1>  -0.2400 
  7 C       -0.4870     0.6700    -1.0380 C.3   1 <1>  -0.2400 
  8 C       -1.4240    -1.2450     0.2130 C.3   1 <1>  -0.2400 
  9 C       -5.2170    -2.2820     0.1120 C.2   1 <1>   0.2980 
 10 O       -4.2850    -3.1780    -0.0730 O.3   1 <1>  -0.0190 
 11 N       -6.4080    -2.7240     0.1020 N.2   1 <1>  -0.5650 
 12 N       -4.9380    -4.2890    -0.2130 N.2   1 <1>  -0.4100 
 13 C       -6.1930    -4.0270    -0.1160 C.2   1 <1>   0.4620 
 14 C       -7.2740    -4.9920    -0.2210 C.ar  1 <1>   0.0540 
 15 C       -7.0190    -6.3440    -0.4500 C.ar  1 <1>  -0.1500 
 16 C       -8.6120    -4.6170    -0.0950 C.ar  1 <1>  -0.1500 
 17 C       -8.0290    -7.2830    -0.5490 C.ar  1 <1>   0.0820 
 18 C       -9.6390    -5.5360    -0.2010 C.ar  1 <1>  -0.1500 
 19 O       -7.6110    -8.5620    -0.7620 O.3   1 <1>  -0.3630 
 20 C       -9.3690    -6.8810    -0.4370 C.ar  1 <1>   0.0820 
 21 C       -8.2710    -9.6440    -0.1420 C.3   1 <1>   0.0400 
 22 O      -10.3710    -7.7960    -0.5780 O.3   1 <1>  -0.3630 
 23 C      -11.7280    -7.4170    -0.6570 C.3   1 <1>   0.0400 
 24 H       -4.8890    -0.2070    -1.6930 H     1 <1>   0.3700 
 25 H       -5.6720    -0.2660     0.6020 H     1 <1>   0.0800 
 26 H       -4.1100    -0.7880     1.1390 H     1 <1>   0.0800 
 27 H       -2.7840     0.8230     1.5130 H     1 <1>   0.0800 
 28 H       -2.1640     2.1210     0.5370 H     1 <1>   0.0800 
 29 H       -1.0810     1.1610     1.5110 H     1 <1>   0.0800 
 30 H       -0.6380     1.6690    -1.4080 H     1 <1>   0.0800 
 31 H       -0.2720     0.0340    -1.8780 H     1 <1>   0.0800 
 32 H        0.3690     0.6760    -0.3880 H     1 <1>   0.0800 
 33 H       -2.1800    -1.6260     0.8680 H     1 <1>   0.0800 
 34 H       -0.4960    -1.2450     0.7580 H     1 <1>   0.0800 
 35 H       -1.3260    -1.9210    -0.6180 H     1 <1>   0.0800 
 36 H       -6.0030    -6.6800    -0.5540 H     1 <1>   0.1500 
 37 H       -8.8540    -3.5840     0.0870 H     1 <1>   0.1500 
 38 H      -10.6460    -5.1790    -0.0960 H     1 <1>   0.1500 
 39 H       -7.5870   -10.4710    -0.0950 H     1 <1>   0.0800 
 40 H       -9.1270    -9.9140    -0.7350 H     1 <1>   0.0800 
 41 H       -8.5700    -9.3540     0.8500 H     1 <1>   0.0800 
 42 H      -12.3100    -8.3020    -0.8430 H     1 <1>   0.0800 
 43 H      -11.8500    -6.7230    -1.4700 H     1 <1>   0.0800 
 44 H      -12.0230    -6.9760     0.2780 H     1 <1>   0.0800 
@<TRIPOS>BOND
  1   1   2  2   
  2   2   3  am  
  3   2   4  1   
  4   3   5  1   
  5   3  24  1   
  6   4   6  1   
  7   4   7  1   
  8   4   8  1   
  9   5   9  1   
 10   5  25  1   
 11   5  26  1   
 12   6  27  1   
 13   6  28  1   
 14   6  29  1   
 15   7  30  1   
 16   7  31  1   
 17   7  32  1   
 18   8  33  1   
 19   8  34  1   
 20   8  35  1   
 21   9  10  1   
 22   9  11  2   
 23  10  12  1   
 24  11  13  1   
 25  12  13  2   
 26  13  14  1   
 27  14  15  ar  
 28  14  16  ar  
 29  15  17  ar  
 30  15  36  1   
 31  16  18  ar  
 32  16  37  1   
 33  17  19  1   
 34  17  20  ar  
 35  18  20  ar  
 36  18  38  1   
 37  19  21  1   
 38  20  22  1   
 39  21  39  1   
 40  21  40  1   
 41  21  41  1   
 42  22  23  1   
 43  23  42  1   
 44  23  43  1   
 45  23  44  1   
@<TRIPOS>SUBSTRUCTURE
  1 ****  13 GROUP 4 **** **** 0

# MOE 2024.06 (io_trps.svl 2023.06)
