@<TRIPOS>MOLECULE
N-[5-(4-Benzo[1,3]dioxol-5-ylmethyl-piperazine-1-sulfonyl)-2-methoxy-phenyl]-ace
57 60 1 0 0 
SMALL
USER_CHARGES


@<TRIPOS>ATOM
  1 S        0.7120    -1.2480    -2.7990 S.o2  1 <1>   1.4470 
  2 O        0.5280    -0.5560    -4.0540 O.2   1 <1>  -0.6500 
  3 O        1.4450    -2.4910    -2.7260 O.2   1 <1>  -0.6500 
  4 N        1.5160    -0.1700    -1.7630 N.am  1 <1>  -0.8490 
  5 C       -0.8670    -1.3930    -1.9180 C.ar  1 <1>  -0.0090 
  6 C        1.8660     1.1850    -2.1980 C.3   1 <1>   0.1960 
  7 C        2.1860    -0.6830    -0.5700 C.3   1 <1>   0.1960 
  8 C       -1.3630    -0.3070    -1.2100 C.ar  1 <1>  -0.1500 
  9 C       -1.6050    -2.5690    -1.8910 C.ar  1 <1>  -0.1500 
 10 C        1.7000     2.1770    -1.0250 C.3   1 <1>   0.3430 
 11 C        1.9970     0.3040     0.6030 C.3   1 <1>   0.3430 
 12 C       -2.4980    -0.3840    -0.4230 C.ar  1 <1>   0.1170 
 13 C       -2.7780    -2.6610    -1.1580 C.ar  1 <1>  -0.1500 
 14 N        2.3760     1.7210     0.2510 N.4   1 <1>  -0.9590 
 15 N       -2.9130     0.7030     0.3660 N.am  1 <1>  -0.5470 
 16 C       -3.2300    -1.5730    -0.4160 C.ar  1 <1>   0.0830 
 17 C        2.0240     2.6270     1.3820 C.3   1 <1>   0.4860 
 18 C       -2.2060     1.7270     0.9270 C.2   1 <1>   0.5690 
 19 O       -4.3670    -1.5990     0.3370 O.3   1 <1>  -0.3630 
 20 C        2.3630     4.0570     1.0100 C.ar  1 <1>  -0.1430 
 21 O       -1.0090     1.8730     0.8080 O.2   1 <1>  -0.5700 
 22 C       -2.9760     2.7180     1.7610 C.3   1 <1>  -0.1790 
 23 C       -5.1710    -2.7570     0.4090 C.3   1 <1>   0.0400 
 24 C        3.6900     4.4770     0.9620 C.ar  1 <1>  -0.1500 
 25 C        1.3340     4.9510     0.7060 C.ar  1 <1>  -0.1500 
 26 C        3.9430     5.7830     0.5950 C.ar  1 <1>   0.0830 
 27 C        1.6130     6.2620     0.3420 C.ar  1 <1>  -0.1500 
 28 O        5.1270     6.3900     0.4750 O.3   1 <1>  -0.3620 
 29 C        2.9360     6.6500     0.2930 C.ar  1 <1>   0.0830 
 30 C        4.8570     7.7380     0.0880 C.3   1 <1>   0.4000 
 31 O        3.4390     7.8450    -0.0300 O.3   1 <1>  -0.3620 
 32 H        1.2230     1.5020    -3.0020 H     1 <1>   0.0800 
 33 H        2.8790     1.1990    -2.5630 H     1 <1>   0.0800 
 34 H        3.2320    -0.8330    -0.7760 H     1 <1>   0.0800 
 35 H        1.7650    -1.6360    -0.2920 H     1 <1>   0.0800 
 36 H       -0.8490     0.6300    -1.2660 H     1 <1>   0.1500 
 37 H       -1.2540    -3.4260    -2.4440 H     1 <1>   0.1500 
 38 H        0.6450     2.2980    -0.8400 H     1 <1>   0.0800 
 39 H        2.0860     3.1380    -1.3220 H     1 <1>   0.0800 
 40 H        2.5760    -0.0350     1.4460 H     1 <1>   0.0800 
 41 H        0.9570     0.2790     0.8880 H     1 <1>   0.0800 
 42 H       -3.3180    -3.5890    -1.1750 H     1 <1>   0.1500 
 43 H        3.3890     1.7800     0.1010 H     1 <1>   0.4500 
 44 H       -3.8860     0.6090     0.6680 H     1 <1>   0.3700 
 45 H        2.5730     2.3480     2.2670 H     1 <1>   0.0800 
 46 H        0.9730     2.5550     1.6020 H     1 <1>   0.0800 
 47 H       -2.3170     3.4800     2.1350 H     1 <1>   0.0800 
 48 H       -3.4330     2.2170     2.5940 H     1 <1>   0.0800 
 49 H       -3.7380     3.1830     1.1630 H     1 <1>   0.0800 
 50 H       -6.0050    -2.5460     1.0550 H     1 <1>   0.0800 
 51 H       -4.5890    -3.5640     0.8180 H     1 <1>   0.0800 
 52 H       -5.5270    -2.9990    -0.5770 H     1 <1>   0.0800 
 53 H        4.5170     3.8320     1.2010 H     1 <1>   0.1500 
 54 H        0.3040     4.6340     0.7500 H     1 <1>   0.1500 
 55 H        0.8350     6.9670     0.1050 H     1 <1>   0.1500 
 56 H        5.3160     7.9410    -0.8630 H     1 <1>   0.0800 
 57 H        5.2080     8.4100     0.8510 H     1 <1>   0.0800 
@<TRIPOS>BOND
  1   1   2  2   
  2   1   3  2   
  3   1   4  am  
  4   1   5  1   
  5   4   6  1   
  6   4   7  1   
  7   5   8  ar  
  8   5   9  ar  
  9   6  10  1   
 10   6  32  1   
 11   6  33  1   
 12   7  11  1   
 13   7  34  1   
 14   7  35  1   
 15   8  12  ar  
 16   8  36  1   
 17   9  13  ar  
 18   9  37  1   
 19  10  14  1   
 20  10  38  1   
 21  10  39  1   
 22  11  14  1   
 23  11  40  1   
 24  11  41  1   
 25  12  15  1   
 26  12  16  ar  
 27  13  16  ar  
 28  13  42  1   
 29  14  17  1   
 30  14  43  1   
 31  15  18  am  
 32  15  44  1   
 33  16  19  1   
 34  17  20  1   
 35  17  45  1   
 36  17  46  1   
 37  18  21  2   
 38  18  22  1   
 39  19  23  1   
 40  20  24  ar  
 41  20  25  ar  
 42  22  47  1   
 43  22  48  1   
 44  22  49  1   
 45  23  50  1   
 46  23  51  1   
 47  23  52  1   
 48  24  26  ar  
 49  24  53  1   
 50  25  27  ar  
 51  25  54  1   
 52  26  28  1   
 53  26  29  ar  
 54  27  29  ar  
 55  27  55  1   
 56  28  30  1   
 57  29  31  1   
 58  30  31  1   
 59  30  56  1   
 60  30  57  1   
@<TRIPOS>SUBSTRUCTURE
  1 ****  10 GROUP 4 **** **** 0

# MOE 2024.06 (io_trps.svl 2023.06)
