@<TRIPOS>MOLECULE
1-(5-Chloro-2-methoxy-4-methyl-benzenesulfonyl)-2-ethyl-1H-imidazole
35 36 1 0 0 
SMALL
USER_CHARGES


@<TRIPOS>ATOM
  1 CL      -0.3370    -0.1770    -1.0260 Cl    1 <1>  -0.1770 
  2 C       -1.1850     1.3050    -0.6530 C.ar  1 <1>   0.1770 
  3 C       -0.5280     2.3440    -0.0120 C.ar  1 <1>  -0.1440 
  4 C       -2.5140     1.4060    -1.0120 C.ar  1 <1>  -0.1500 
  5 C       -1.2400     3.5000     0.2630 C.ar  1 <1>  -0.1500 
  6 C        0.9380     2.2260     0.3790 C.3   1 <1>  -0.0960 
  7 C       -3.2390     2.5580    -0.7330 C.ar  1 <1>  -0.0090 
  8 C       -2.5830     3.6090    -0.0950 C.ar  1 <1>   0.0830 
  9 S       -4.9830     2.6870    -1.1970 S.o2  1 <1>   1.2950 
 10 O       -3.3050     4.7270     0.1590 O.3   1 <1>  -0.3630 
 11 O       -5.4500     1.3460    -1.4940 O.2   1 <1>  -0.6500 
 12 O       -5.1210     3.6880    -2.2360 O.2   1 <1>  -0.6500 
 13 N       -5.7500     3.2030     0.3170 N.pl3 1 <1>   0.3170 
 14 C       -2.8770     5.7070     1.0800 C.3   1 <1>   0.0400 
 15 C       -6.3670     4.3760     0.6540 C.2   1 <1>   0.0060 
 16 C       -5.7650     2.5000     1.4800 C.2   1 <1>  -0.3020 
 17 N       -6.7330     4.4450     1.8950 N.2   1 <1>  -0.5650 
 18 C       -6.6260     5.5270    -0.3080 C.3   1 <1>   0.0200 
 19 C       -6.3600     3.2660     2.4150 C.2   1 <1>   0.0770 
 20 C       -7.8380     5.2430    -1.2020 C.3   1 <1>  -0.2400 
 21 H       -2.9820     0.5740    -1.5120 H     1 <1>   0.1500 
 22 H       -0.7350     4.3130     0.7500 H     1 <1>   0.1500 
 23 H        1.0730     1.3990     1.0530 H     1 <1>   0.0800 
 24 H        1.2850     3.1200     0.8640 H     1 <1>   0.0800 
 25 H        1.5390     2.0590    -0.4970 H     1 <1>   0.0800 
 26 H       -3.6800     6.4080     1.2200 H     1 <1>   0.0800 
 27 H       -2.0170     6.2140     0.6800 H     1 <1>   0.0800 
 28 H       -2.6440     5.2310     2.0170 H     1 <1>   0.0800 
 29 H       -5.3580     1.5090     1.5650 H     1 <1>   0.1500 
 30 H       -5.7550     5.7290    -0.9040 H     1 <1>   0.0800 
 31 H       -6.8270     6.4140     0.2680 H     1 <1>   0.0800 
 32 H       -6.5450     3.0300     3.4510 H     1 <1>   0.1500 
 33 H       -7.6680     4.3770    -1.8160 H     1 <1>   0.0800 
 34 H       -8.0240     6.0840    -1.8450 H     1 <1>   0.0800 
 35 H       -8.7090     5.0720    -0.5960 H     1 <1>   0.0800 
@<TRIPOS>BOND
  1   1   2  1   
  2   2   3  ar  
  3   2   4  ar  
  4   3   5  ar  
  5   3   6  1   
  6   4   7  ar  
  7   4  21  1   
  8   5   8  ar  
  9   5  22  1   
 10   6  23  1   
 11   6  24  1   
 12   6  25  1   
 13   7   8  ar  
 14   7   9  1   
 15   8  10  1   
 16   9  11  2   
 17   9  12  2   
 18   9  13  1   
 19  10  14  1   
 20  13  15  1   
 21  13  16  1   
 22  14  26  1   
 23  14  27  1   
 24  14  28  1   
 25  15  17  2   
 26  15  18  1   
 27  16  19  2   
 28  16  29  1   
 29  17  19  1   
 30  18  20  1   
 31  18  30  1   
 32  18  31  1   
 33  19  32  1   
 34  20  33  1   
 35  20  34  1   
 36  20  35  1   
@<TRIPOS>SUBSTRUCTURE
  1 ****   7 GROUP 4 **** **** 0

# MOE 2024.06 (io_trps.svl 2023.06)
