@<TRIPOS>MOLECULE
2-(4-Fluoro-phenyl)-thiazolidine-3,4-dicarboxylic acid 3-tert-butyl ester
39 40 1 0 0 
SMALL
USER_CHARGES


@<TRIPOS>ATOM
  1 S        0.0430     0.1560    -0.7070 S.3   1 <1>  -0.4600 
  2 C       -1.5410     1.0270    -0.7220 C.3   1 <1>   0.5940 
  3 C        0.9800     1.4070     0.1990 C.3   1 <1>   0.0700 
  4 N       -1.3760     2.0310     0.3390 N.am  1 <1>  -0.6600 
  5 C       -2.6390    -0.0030    -0.4420 C.ar  1 <1>  -0.1440 
  6 C        0.0260     2.5910     0.3370 C.3   1 <1>   0.1140 
  7 C       -2.4070     2.8220     0.7340 C.2   1 <1>   0.7800 
  8 C       -3.5880    -0.2750    -1.4220 C.ar  1 <1>  -0.1500 
  9 C       -2.7070    -0.6570     0.7840 C.ar  1 <1>  -0.1500 
 10 C        0.3170     3.5930    -0.7960 C.2   1 <1>   0.9060 
 11 O       -2.2870     3.6190     1.6450 O.2   1 <1>  -0.5700 
 12 O       -3.5750     2.6790     0.1000 O.3   1 <1>  -0.4300 
 13 C       -4.5990    -1.1920    -1.1830 C.ar  1 <1>  -0.1500 
 14 C       -3.7130    -1.5750     1.0360 C.ar  1 <1>  -0.1500 
 15 O       -0.4280     3.6510    -1.7860 O.co2 1 <1>  -0.9000 
 16 O        1.3360     4.2890    -0.7050 O.co2 1 <1>  -0.9000 
 17 C       -4.7670     3.3950     0.3150 C.3   1 <1>   0.2800 
 18 C       -4.6410    -1.8240     0.0440 C.ar  1 <1>   0.1900 
 19 C       -5.2940     3.1320     1.7300 C.3   1 <1>  -0.2400 
 20 C       -5.7550     2.8280    -0.7050 C.3   1 <1>  -0.2400 
 21 C       -4.5430     4.8850     0.0330 C.3   1 <1>  -0.2400 
 22 F       -5.5940    -2.6870     0.2750 F     1 <1>  -0.1900 
 23 H       -1.6480     1.5010    -1.6840 H     1 <1>   0.0800 
 24 H        1.8700     1.6520    -0.3550 H     1 <1>   0.0800 
 25 H        1.2300     0.9930     1.1580 H     1 <1>   0.0800 
 26 H        0.2170     3.1020     1.2620 H     1 <1>   0.0800 
 27 H       -3.5400     0.2330    -2.3700 H     1 <1>   0.1500 
 28 H       -1.9710    -0.4420     1.5410 H     1 <1>   0.1500 
 29 H       -5.3390    -1.4110    -1.9300 H     1 <1>   0.1500 
 30 H       -3.7760    -2.0850     1.9790 H     1 <1>   0.1500 
 31 H       -5.3580     2.0740     1.9100 H     1 <1>   0.0800 
 32 H       -6.2720     3.5610     1.8440 H     1 <1>   0.0800 
 33 H       -4.6530     3.5770     2.4690 H     1 <1>   0.0800 
 34 H       -5.3820     2.9790    -1.7020 H     1 <1>   0.0800 
 35 H       -6.7070     3.3180    -0.6180 H     1 <1>   0.0800 
 36 H       -5.8950     1.7750    -0.5390 H     1 <1>   0.0800 
 37 H       -4.0870     5.0150    -0.9330 H     1 <1>   0.0800 
 38 H       -3.9100     5.3290     0.7780 H     1 <1>   0.0800 
 39 H       -5.4810     5.4090     0.0450 H     1 <1>   0.0800 
@<TRIPOS>BOND
  1   1   2  1   
  2   1   3  1   
  3   2   4  1   
  4   2   5  1   
  5   2  23  1   
  6   3   6  1   
  7   3  24  1   
  8   3  25  1   
  9   4   6  1   
 10   4   7  am  
 11   5   8  ar  
 12   5   9  ar  
 13   6  10  1   
 14   6  26  1   
 15   7  11  2   
 16   7  12  1   
 17   8  13  ar  
 18   8  27  1   
 19   9  14  ar  
 20   9  28  1   
 21  10  15  ar  
 22  10  16  ar  
 23  12  17  1   
 24  13  18  ar  
 25  13  29  1   
 26  14  18  ar  
 27  14  30  1   
 28  17  19  1   
 29  17  20  1   
 30  17  21  1   
 31  18  22  1   
 32  19  31  1   
 33  19  32  1   
 34  19  33  1   
 35  20  34  1   
 36  20  35  1   
 37  20  36  1   
 38  21  37  1   
 39  21  38  1   
 40  21  39  1   
@<TRIPOS>SUBSTRUCTURE
  1 ****   2 GROUP 4 **** **** 0

# MOE 2024.06 (io_trps.svl 2023.06)
