@<TRIPOS>MOLECULE
2,3-Dihydro-benzo[1,4]dioxine-6-sulfonic acid (3-isopropoxy-propyl)-amide
42 43 1 0 0 
SMALL
USER_CHARGES


@<TRIPOS>ATOM
  1 S       -0.0900    -0.8470    -0.3040 S.o2  1 <1>   1.4470 
  2 O       -0.2400    -1.5140     0.9690 O.2   1 <1>  -0.6500 
  3 O        0.1980    -1.6120    -1.4960 O.2   1 <1>  -0.6500 
  4 N        1.2130     0.1780    -0.0550 N.am  1 <1>  -0.9140 
  5 C       -1.4650     0.2950    -0.6050 C.ar  1 <1>  -0.0090 
  6 C        2.4890    -0.4850    -0.2390 C.3   1 <1>   0.1960 
  7 C       -2.4680     0.4820     0.3420 C.ar  1 <1>  -0.1500 
  8 C       -1.5370     1.0250    -1.7880 C.ar  1 <1>  -0.1500 
  9 C        3.6040     0.4690     0.1770 C.3   1 <1>  -0.1600 
 10 C       -3.5070     1.3660     0.1150 C.ar  1 <1>   0.0830 
 11 C       -2.5770     1.9090    -2.0300 C.ar  1 <1>  -0.1500 
 12 C        4.9730    -0.1710    -0.0400 C.3   1 <1>   0.1200 
 13 O       -4.4500     1.5270     1.0770 O.3   1 <1>  -0.3630 
 14 C       -3.5690     2.0770    -1.0830 C.ar  1 <1>   0.0830 
 15 O        5.9310     0.7320     0.4040 O.3   1 <1>  -0.5600 
 16 C       -5.3080     2.6470     0.9550 C.3   1 <1>   0.1200 
 17 O       -4.5900     2.9320    -1.3410 O.3   1 <1>  -0.3630 
 18 C        7.2510     0.3220     0.2660 C.3   1 <1>   0.2000 
 19 C       -5.7310     2.8380    -0.5090 C.3   1 <1>   0.1200 
 20 C        8.0490     1.0550     1.3380 C.3   1 <1>  -0.2400 
 21 C        7.7370     0.6920    -1.1350 C.3   1 <1>  -0.2400 
 22 H        1.1420     0.4180     0.9310 H     1 <1>   0.4200 
 23 H        2.6080    -0.7550    -1.2770 H     1 <1>   0.0800 
 24 H        2.5280    -1.3820     0.3580 H     1 <1>   0.0800 
 25 H       -2.4440    -0.0630     1.2700 H     1 <1>   0.1500 
 26 H       -0.7670     0.8980    -2.5310 H     1 <1>   0.1500 
 27 H        3.4980     0.7170     1.2180 H     1 <1>   0.0800 
 28 H        3.5440     1.3670    -0.4120 H     1 <1>   0.0800 
 29 H       -2.6250     2.4640    -2.9500 H     1 <1>   0.1500 
 30 H        5.1350    -0.3730    -1.0850 H     1 <1>   0.0800 
 31 H        5.0660    -1.0790     0.5320 H     1 <1>   0.0800 
 32 H       -4.7780     3.5140     1.3060 H     1 <1>   0.0800 
 33 H       -6.1640     2.4780     1.5820 H     1 <1>   0.0800 
 34 H        7.3160    -0.7410     0.4320 H     1 <1>   0.0800 
 35 H       -6.3030     3.7400    -0.6270 H     1 <1>   0.0800 
 36 H       -6.3190     2.0000    -0.8400 H     1 <1>   0.0800 
 37 H        7.9700     2.1190     1.2000 H     1 <1>   0.0800 
 38 H        9.0850     0.7750     1.2840 H     1 <1>   0.0800 
 39 H        7.6760     0.7960     2.3120 H     1 <1>   0.0800 
 40 H        7.6090     1.7460    -1.3050 H     1 <1>   0.0800 
 41 H        7.1990     0.1420    -1.8840 H     1 <1>   0.0800 
 42 H        8.7810     0.4540    -1.2330 H     1 <1>   0.0800 
@<TRIPOS>BOND
  1   1   2  2   
  2   1   3  2   
  3   1   4  am  
  4   1   5  1   
  5   4   6  1   
  6   4  22  1   
  7   5   7  ar  
  8   5   8  ar  
  9   6   9  1   
 10   6  23  1   
 11   6  24  1   
 12   7  10  ar  
 13   7  25  1   
 14   8  11  ar  
 15   8  26  1   
 16   9  12  1   
 17   9  27  1   
 18   9  28  1   
 19  10  13  1   
 20  10  14  ar  
 21  11  14  ar  
 22  11  29  1   
 23  12  15  1   
 24  12  30  1   
 25  12  31  1   
 26  13  16  1   
 27  14  17  1   
 28  15  18  1   
 29  16  19  1   
 30  16  32  1   
 31  16  33  1   
 32  17  19  1   
 33  18  20  1   
 34  18  21  1   
 35  18  34  1   
 36  19  35  1   
 37  19  36  1   
 38  20  37  1   
 39  20  38  1   
 40  20  39  1   
 41  21  40  1   
 42  21  41  1   
 43  21  42  1   
@<TRIPOS>SUBSTRUCTURE
  1 ****   4 GROUP 4 **** **** 0

# MOE 2024.06 (io_trps.svl 2023.06)
