@<TRIPOS>MOLECULE
4-(2-Chloro-6-fluoro-phenyl)-2-methyl-3-(morpholine-4-carbonyl)-4,6,7,8-tetrahyd
50 53 1 0 0 
SMALL
USER_CHARGES


@<TRIPOS>ATOM
  1 CL      -3.5470    -1.5340     2.4790 Cl    1 <1>  -0.1770 
  2 C       -2.8350    -0.5360     1.2340 C.ar  1 <1>   0.1770 
  3 C       -2.3160    -1.0800     0.0620 C.ar  1 <1>  -0.1440 
  4 C       -2.8150     0.8280     1.4790 C.ar  1 <1>  -0.1500 
  5 C       -1.7710    -0.1740    -0.8430 C.ar  1 <1>   0.1900 
  6 C       -2.3180    -2.5860    -0.2410 C.3   1 <1>   0.3400 
  7 C       -2.2690     1.6980     0.5510 C.ar  1 <1>  -0.1500 
  8 F       -1.2470    -0.6010    -1.9620 F     1 <1>  -0.1900 
  9 C       -1.7410     1.1910    -0.6230 C.ar  1 <1>  -0.1500 
 10 C       -3.7290    -3.1870    -0.1950 C.2   1 <1>  -0.1240 
 11 C       -1.3180    -3.3040     0.6730 C.2   1 <1>  -0.1240 
 12 C       -3.9990    -4.2150     0.6510 C.2   1 <1>  -0.0380 
 13 C       -4.6970    -2.6330    -1.0820 C.2   1 <1>   0.4950 
 14 C       -1.7260    -4.3340     1.4590 C.2   1 <1>  -0.0380 
 15 C        0.0080    -2.7700     0.6070 C.2   1 <1>   0.6160 
 16 N       -3.0310    -4.7780     1.4460 N.pl3 1 <1>  -0.6000 
 17 C       -5.3940    -4.8100     0.7680 C.3   1 <1>  -0.0220 
 18 O       -4.4580    -1.7880    -1.9120 O.2   1 <1>  -0.5700 
 19 C       -6.1200    -3.1660    -1.0270 C.3   1 <1>  -0.0990 
 20 C       -0.8250    -5.0950     2.4150 C.3   1 <1>  -0.1020 
 21 O        0.5170    -2.2760     1.5970 O.2   1 <1>  -0.5700 
 22 N        0.7370    -2.8040    -0.5620 N.am  1 <1>  -0.6600 
 23 C       -6.4600    -3.7930     0.3350 C.3   1 <1>  -0.1600 
 24 C        0.5430    -3.8280    -1.6290 C.3   1 <1>   0.1400 
 25 C        1.9630    -1.9760    -0.7590 C.3   1 <1>   0.1400 
 26 C        1.8430    -4.6200    -1.8560 C.3   1 <1>   0.1200 
 27 C        3.1790    -2.8760    -1.0270 C.3   1 <1>   0.1200 
 28 O        2.9200    -3.7560    -2.0870 O.3   1 <1>  -0.5600 
 29 H       -3.2260     1.2030     2.3990 H     1 <1>   0.1500 
 30 H       -1.9850    -2.7430    -1.2490 H     1 <1>   0.0800 
 31 H       -2.2540     2.7580     0.7410 H     1 <1>   0.1500 
 32 H       -1.3090     1.8420    -1.3620 H     1 <1>   0.1500 
 33 H       -3.2940    -5.5260     2.0980 H     1 <1>   0.4000 
 34 H       -5.5840    -5.0940     1.7880 H     1 <1>   0.0800 
 35 H       -5.4510    -5.6930     0.1550 H     1 <1>   0.0800 
 36 H       -6.2310    -3.8990    -1.8050 H     1 <1>   0.0800 
 37 H       -6.8020    -2.3590    -1.2310 H     1 <1>   0.0800 
 38 H       -1.1660    -4.9510     3.4240 H     1 <1>   0.0800 
 39 H        0.1940    -4.7590     2.3570 H     1 <1>   0.0800 
 40 H       -0.8460    -6.1450     2.1840 H     1 <1>   0.0800 
 41 H       -6.5050    -3.0100     1.0730 H     1 <1>   0.0800 
 42 H       -7.4250    -4.2670     0.2930 H     1 <1>   0.0800 
 43 H        0.2620    -3.3370    -2.5440 H     1 <1>   0.0800 
 44 H       -0.2400    -4.5140    -1.3590 H     1 <1>   0.0800 
 45 H        2.1540    -1.3640     0.1050 H     1 <1>   0.0800 
 46 H        1.8130    -1.3210    -1.5990 H     1 <1>   0.0800 
 47 H        1.7430    -5.2570    -2.7160 H     1 <1>   0.0800 
 48 H        2.0690    -5.2280    -0.9970 H     1 <1>   0.0800 
 49 H        3.4230    -3.4510    -0.1500 H     1 <1>   0.0800 
 50 H        4.0310    -2.2780    -1.2970 H     1 <1>   0.0800 
@<TRIPOS>BOND
  1   1   2  1   
  2   2   3  ar  
  3   2   4  ar  
  4   3   5  ar  
  5   3   6  1   
  6   4   7  ar  
  7   4  29  1   
  8   5   8  1   
  9   5   9  ar  
 10   6  10  1   
 11   6  11  1   
 12   6  30  1   
 13   7   9  ar  
 14   7  31  1   
 15   9  32  1   
 16  10  12  2   
 17  10  13  1   
 18  11  14  2   
 19  11  15  1   
 20  12  16  1   
 21  12  17  1   
 22  13  18  2   
 23  13  19  1   
 24  14  16  1   
 25  14  20  1   
 26  15  21  2   
 27  15  22  am  
 28  16  33  1   
 29  17  23  1   
 30  17  34  1   
 31  17  35  1   
 32  19  23  1   
 33  19  36  1   
 34  19  37  1   
 35  20  38  1   
 36  20  39  1   
 37  20  40  1   
 38  22  24  1   
 39  22  25  1   
 40  23  41  1   
 41  23  42  1   
 42  24  26  1   
 43  24  43  1   
 44  24  44  1   
 45  25  27  1   
 46  25  45  1   
 47  25  46  1   
 48  26  28  1   
 49  26  47  1   
 50  26  48  1   
 51  27  28  1   
 52  27  49  1   
 53  27  50  1   
@<TRIPOS>SUBSTRUCTURE
  1 ****   6 GROUP 4 **** **** 0

# MOE 2024.06 (io_trps.svl 2023.06)
