@<TRIPOS>MOLECULE
1,6,7-Trimethyl-8-(3,3,5-trimethyl-cyclohexyl)-1H,8H-imidazo[2,1-f]purine-2,4-di
54 57 1 0 0 
SMALL
USER_CHARGES


@<TRIPOS>ATOM
  1 O        1.1290     0.3510    -2.0550 O.2   1 <1>  -0.5740 
  2 C        2.0430     0.9360    -1.5230 C.2   1 <1>   0.6870 
  3 N        3.3280     0.4120    -1.4730 N.am  1 <1>  -0.4410 
  4 N        1.7940     2.1520    -0.9540 N.am  1 <1>  -0.4950 
  5 C        4.3020     1.1560    -0.8260 C.2   1 <1>   0.4210 
  6 C        3.6440    -0.9120    -2.0840 C.3   1 <1>   0.0530 
  7 C        2.7400     2.9040    -0.3170 C.2   1 <1>   0.7000 
  8 N        5.6140     0.8300    -0.6530 N.pl3 1 <1>  -0.7030 
  9 C        4.0610     2.3660    -0.2540 C.2   1 <1>   0.2710 
 10 O        2.4170     3.9740     0.1580 O.2   1 <1>  -0.5740 
 11 C        6.1700     1.8430     0.0240 C.cat 1 <1>   1.0690 
 12 N        5.2830     2.7920     0.2900 N.pl3 1 <1>  -0.6330 
 13 N        7.3830     2.1450     0.4980 N.pl3 1 <1>  -0.5710 
 14 C        5.9530     3.7810     0.9790 C.2   1 <1>   0.2350 
 15 C        7.2430     3.3850     1.1070 C.2   1 <1>   0.1580 
 16 C        8.6170     1.3310     0.3800 C.3   1 <1>   0.2420 
 17 C        5.2220     5.0280     1.4390 C.3   1 <1>  -0.1090 
 18 C        8.4130     4.0900     1.7750 C.3   1 <1>  -0.1090 
 19 C        8.9940     1.1690    -1.1000 C.3   1 <1>  -0.1670 
 20 C        8.4200    -0.0220     1.0770 C.3   1 <1>  -0.1670 
 21 C       10.2300     0.2720    -1.3020 C.3   1 <1>  -0.0080 
 22 C        9.6580    -0.9140     0.9200 C.3   1 <1>  -0.0870 
 23 C       10.0320    -1.0700    -0.5650 C.3   1 <1>  -0.1670 
 24 C       10.3970    -0.0070    -2.8030 C.3   1 <1>  -0.2460 
 25 C       11.5050     0.9820    -0.8130 C.3   1 <1>  -0.2460 
 26 C        9.4030    -2.2870     1.5510 C.3   1 <1>  -0.2460 
 27 H        0.8420     2.5100    -1.0100 H     1 <1>   0.3650 
 28 H        2.8100    -1.2780    -2.6590 H     1 <1>   0.0730 
 29 H        3.8630    -1.6280    -1.3110 H     1 <1>   0.0730 
 30 H        4.4900    -0.8220    -2.7420 H     1 <1>   0.0730 
 31 H        6.1140    -0.0030    -0.9570 H     1 <1>   0.4450 
 32 H        9.4210     1.8430     0.8780 H     1 <1>   0.0730 
 33 H        4.8100     5.5460     0.5910 H     1 <1>   0.0730 
 34 H        5.8830     5.6950     1.9590 H     1 <1>   0.0730 
 35 H        4.4170     4.7590     2.1000 H     1 <1>   0.0730 
 36 H        9.1950     4.2680     1.0590 H     1 <1>   0.0730 
 37 H        8.8020     3.4840     2.5740 H     1 <1>   0.0730 
 38 H        8.1100     5.0350     2.1860 H     1 <1>   0.0730 
 39 H        9.1890     2.1380    -1.5270 H     1 <1>   0.0730 
 40 H        8.1760     0.7270    -1.6360 H     1 <1>   0.0730 
 41 H        7.5780    -0.5430     0.6630 H     1 <1>   0.0730 
 42 H        8.2400     0.1410     2.1260 H     1 <1>   0.0730 
 43 H       10.4840    -0.4620     1.4430 H     1 <1>   0.0730 
 44 H       10.9340    -1.6530    -0.6420 H     1 <1>   0.0730 
 45 H        9.2550    -1.6280    -1.0580 H     1 <1>   0.0730 
 46 H        9.5330    -0.5080    -3.2030 H     1 <1>   0.0730 
 47 H       11.2540    -0.6350    -2.9740 H     1 <1>   0.0730 
 48 H       10.5400     0.9100    -3.3470 H     1 <1>   0.0730 
 49 H       12.3650     0.3580    -0.9820 H     1 <1>   0.0730 
 50 H       11.4680     1.2110     0.2350 H     1 <1>   0.0730 
 51 H       11.6540     1.9020    -1.3510 H     1 <1>   0.0730 
 52 H        8.5860    -2.7900     1.0660 H     1 <1>   0.0730 
 53 H        9.1730    -2.1830     2.5970 H     1 <1>   0.0730 
 54 H       10.2820    -2.9030     1.4630 H     1 <1>   0.0730 
@<TRIPOS>BOND
  1   1   2  2   
  2   2   3  am  
  3   2   4  am  
  4   3   5  1   
  5   3   6  1   
  6   4   7  am  
  7   4  27  1   
  8   5   8  1   
  9   5   9  2   
 10   6  28  1   
 11   6  29  1   
 12   6  30  1   
 13   7   9  1   
 14   7  10  2   
 15   8  11  ar  
 16   8  31  1   
 17   9  12  1   
 18  11  12  ar  
 19  11  13  ar  
 20  12  14  1   
 21  13  15  1   
 22  13  16  1   
 23  14  15  2   
 24  14  17  1   
 25  15  18  1   
 26  16  19  1   
 27  16  20  1   
 28  16  32  1   
 29  17  33  1   
 30  17  34  1   
 31  17  35  1   
 32  18  36  1   
 33  18  37  1   
 34  18  38  1   
 35  19  21  1   
 36  19  39  1   
 37  19  40  1   
 38  20  22  1   
 39  20  41  1   
 40  20  42  1   
 41  21  23  1   
 42  21  24  1   
 43  21  25  1   
 44  22  23  1   
 45  22  26  1   
 46  22  43  1   
 47  23  44  1   
 48  23  45  1   
 49  24  46  1   
 50  24  47  1   
 51  24  48  1   
 52  25  49  1   
 53  25  50  1   
 54  25  51  1   
 55  26  52  1   
 56  26  53  1   
 57  26  54  1   
@<TRIPOS>SUBSTRUCTURE
  1 ****  11 GROUP 4 **** **** 0

# MOE 2024.06 (io_trps.svl 2023.06)
