@<TRIPOS>MOLECULE
[4-(Furan-2-carbonyl)-piperazin-1-yl]-pyrrolidin-1-yl-methanone
39 41 1 0 0 
SMALL
USER_CHARGES


@<TRIPOS>ATOM
  1 O       -1.0760    -0.3990     0.8630 O.2   1 <1>  -0.5700 
  2 C       -1.2540    -1.4270     0.2320 C.2   1 <1>   0.6900 
  3 N       -2.3770    -1.5600    -0.5420 N.am  1 <1>  -0.6600 
  4 N       -0.3380    -2.4440     0.3070 N.am  1 <1>  -0.6600 
  5 C       -3.2410    -2.7700    -0.4230 C.3   1 <1>   0.1400 
  6 C       -3.1120    -0.3460    -1.0060 C.3   1 <1>   0.1400 
  7 C        0.8280    -2.3570     1.2150 C.3   1 <1>   0.1400 
  8 C       -0.0420    -3.3390    -0.8340 C.3   1 <1>   0.1400 
  9 C       -4.4760    -2.4950     0.4530 C.3   1 <1>   0.1400 
 10 C       -4.3130    -0.0600    -0.0960 C.3   1 <1>   0.1400 
 11 C        1.7950    -3.4280     0.7230 C.3   1 <1>  -0.1600 
 12 C        1.4580    -3.5960    -0.7550 C.3   1 <1>  -0.1600 
 13 N       -5.1980    -1.2630     0.0070 N.am  1 <1>  -0.6600 
 14 C       -6.5070    -1.2450    -0.4370 C.2   1 <1>   0.7150 
 15 O       -6.8300    -0.3660    -1.2200 O.2   1 <1>  -0.5700 
 16 C       -7.5060    -2.2160    -0.0340 C.2   1 <1>   0.0550 
 17 O       -7.3820    -2.9680     1.0600 O.3   1 <1>  -0.2800 
 18 C       -8.6970    -2.5210    -0.6220 C.2   1 <1>  -0.1500 
 19 C       -8.4440    -3.7330     1.1760 C.2   1 <1>  -0.0100 
 20 C       -9.3010    -3.5060     0.1600 C.2   1 <1>  -0.1500 
 21 H       -2.6860    -3.5810     0.0130 H     1 <1>   0.0800 
 22 H       -3.5590    -3.0720    -1.4050 H     1 <1>   0.0800 
 23 H       -3.4550    -0.5000    -2.0140 H     1 <1>   0.0800 
 24 H       -2.4520     0.5050    -1.0080 H     1 <1>   0.0800 
 25 H        0.5280    -2.5240     2.2350 H     1 <1>   0.0800 
 26 H        1.2740    -1.3800     1.1270 H     1 <1>   0.0800 
 27 H       -0.3150    -2.8800    -1.7700 H     1 <1>   0.0800 
 28 H       -0.5830    -4.2600    -0.7080 H     1 <1>   0.0800 
 29 H       -4.1650    -2.3680     1.4760 H     1 <1>   0.0800 
 30 H       -5.1160    -3.3550     0.4040 H     1 <1>   0.0800 
 31 H       -4.8580     0.7850    -0.4780 H     1 <1>   0.0800 
 32 H       -3.9530     0.1990     0.8850 H     1 <1>   0.0800 
 33 H        1.5990    -4.3450     1.2520 H     1 <1>   0.0800 
 34 H        2.8190    -3.1430     0.8820 H     1 <1>   0.0800 
 35 H        1.9710    -2.8470    -1.3330 H     1 <1>   0.0800 
 36 H        1.7200    -4.5690    -1.1290 H     1 <1>   0.0800 
 37 H       -9.1060    -2.0870    -1.5170 H     1 <1>   0.1500 
 38 H       -8.5130    -4.4100     2.0100 H     1 <1>   0.1500 
 39 H      -10.2550    -3.9660    -0.0320 H     1 <1>   0.1500 
@<TRIPOS>BOND
  1   1   2  2   
  2   2   3  am  
  3   2   4  am  
  4   3   5  1   
  5   3   6  1   
  6   4   7  1   
  7   4   8  1   
  8   5   9  1   
  9   5  21  1   
 10   5  22  1   
 11   6  10  1   
 12   6  23  1   
 13   6  24  1   
 14   7  11  1   
 15   7  25  1   
 16   7  26  1   
 17   8  12  1   
 18   8  27  1   
 19   8  28  1   
 20   9  13  1   
 21   9  29  1   
 22   9  30  1   
 23  10  13  1   
 24  10  31  1   
 25  10  32  1   
 26  11  12  1   
 27  11  33  1   
 28  11  34  1   
 29  12  35  1   
 30  12  36  1   
 31  13  14  am  
 32  14  15  2   
 33  14  16  1   
 34  16  17  1   
 35  16  18  2   
 36  17  19  1   
 37  18  20  1   
 38  18  37  1   
 39  19  20  2   
 40  19  38  1   
 41  20  39  1   
@<TRIPOS>SUBSTRUCTURE
  1 ****   9 GROUP 4 **** **** 0

# MOE 2024.06 (io_trps.svl 2023.06)
