@<TRIPOS>MOLECULE
2-Propyl-7,8,9,10-tetrahydro-6-thia-1,3,3a,5-tetraaza-cyclopenta[c]fluorene
36 39 1 0 0 
SMALL
USER_CHARGES


@<TRIPOS>ATOM
  1 S       -0.1090    -0.7760    -0.0100 S.3   1 <1>  -0.0800 
  2 C        1.3800     0.1450     0.0010 C.2   1 <1>   0.1660 
  3 C       -1.0600     0.7010    -0.0280 C.2   1 <1>  -0.1400 
  4 N        2.5940    -0.4450     0.0140 N.2   1 <1>  -0.5760 
  5 C        1.1280     1.4910    -0.0080 C.2   1 <1>  -0.0370 
  6 C       -0.2820     1.7950    -0.0130 C.2   1 <1>  -0.1810 
  7 C       -2.5720     0.6240    -0.0530 C.3   1 <1>   0.0200 
  8 C        3.6080     0.3540     0.0140 C.2   1 <1>   0.8090 
  9 C        2.2810     2.2940    -0.0130 C.cat 1 <1>   0.8370 
 10 C       -0.8930     3.1910    -0.0090 C.3   1 <1>   0.0210 
 11 C       -3.1400     2.0140    -0.3870 C.3   1 <1>  -0.1600 
 12 N        3.4910     1.7300     0.0010 N.pl3 1 <1>  -0.3620 
 13 N        2.4770     3.6080    -0.0330 N.pl3 1 <1>  -0.7000 
 14 C       -2.3910     3.1380     0.3570 C.3   1 <1>  -0.1600 
 15 N        4.4630     2.6920    -0.0080 N.2   1 <1>  -0.2600 
 16 C        3.8190     3.8050    -0.0290 C.2   1 <1>   0.4850 
 17 C        4.4240     5.2040    -0.0470 C.3   1 <1>   0.0080 
 18 C        5.9630     5.2160    -0.0390 C.3   1 <1>  -0.1600 
 19 C        6.5120     6.6460    -0.0580 C.3   1 <1>  -0.2400 
 20 H       -2.9210     0.3020     0.9130 H     1 <1>   0.0800 
 21 H       -2.8960    -0.0910    -0.7880 H     1 <1>   0.0800 
 22 H        4.6070    -0.0450     0.0240 H     1 <1>   0.0600 
 23 H       -0.7840     3.6240    -0.9880 H     1 <1>   0.0800 
 24 H       -0.3910     3.8180     0.7060 H     1 <1>   0.0800 
 25 H       -4.1870     2.0410    -0.1350 H     1 <1>   0.0800 
 26 H       -3.0550     2.1800    -1.4470 H     1 <1>   0.0800 
 27 H        1.7520     4.3230    -0.0530 H     1 <1>   0.4500 
 28 H       -2.8480     4.0870     0.1340 H     1 <1>   0.0800 
 29 H       -2.4870     2.9710     1.4170 H     1 <1>   0.0800 
 30 H        4.0670     5.7420     0.8130 H     1 <1>   0.0800 
 31 H        4.0760     5.7150    -0.9270 H     1 <1>   0.0800 
 32 H        6.3370     4.6870    -0.9000 H     1 <1>   0.0800 
 33 H        6.3270     4.7140     0.8420 H     1 <1>   0.0800 
 34 H        6.1920     7.1680    -0.9440 H     1 <1>   0.0800 
 35 H        7.5890     6.6260    -0.0520 H     1 <1>   0.0800 
 36 H        6.1820     7.1950     0.8070 H     1 <1>   0.0800 
@<TRIPOS>BOND
  1   1   2  1   
  2   1   3  1   
  3   2   4  1   
  4   2   5  2   
  5   3   6  2   
  6   3   7  1   
  7   4   8  2   
  8   5   6  1   
  9   5   9  1   
 10   6  10  1   
 11   7  11  1   
 12   7  20  1   
 13   7  21  1   
 14   8  12  1   
 15   8  22  1   
 16   9  12  ar  
 17   9  13  ar  
 18  10  14  1   
 19  10  23  1   
 20  10  24  1   
 21  11  14  1   
 22  11  25  1   
 23  11  26  1   
 24  12  15  1   
 25  13  16  1   
 26  13  27  1   
 27  14  28  1   
 28  14  29  1   
 29  15  16  2   
 30  16  17  1   
 31  17  18  1   
 32  17  30  1   
 33  17  31  1   
 34  18  19  1   
 35  18  32  1   
 36  18  33  1   
 37  19  34  1   
 38  19  35  1   
 39  19  36  1   
@<TRIPOS>SUBSTRUCTURE
  1 ****   9 GROUP 4 **** **** 0

# MOE 2024.06 (io_trps.svl 2023.06)
