@<TRIPOS>MOLECULE
(6-tert-Butyl-3-oxo-2,3-dihydro-benzo[1,4]oxazin-4-yl)-acetic acid
35 36 1 0 0 
SMALL
USER_CHARGES


@<TRIPOS>ATOM
  1 O       -0.2740    -0.5090    -0.9790 O.2   1 <1>  -0.5700 
  2 C       -1.3150    -0.8150    -0.4390 C.2   1 <1>   0.5690 
  3 N       -2.4820    -0.1000    -0.5440 N.am  1 <1>  -0.4770 
  4 C       -1.3470    -2.0790     0.4070 C.3   1 <1>   0.1810 
  5 C       -3.7070    -0.6960    -0.1390 C.ar  1 <1>   0.1170 
  6 C       -2.4170     1.3450    -0.9880 C.3   1 <1>   0.0340 
  7 O       -2.5750    -2.7860     0.2810 O.3   1 <1>  -0.3620 
  8 C       -3.7160    -2.0440     0.2440 C.ar  1 <1>   0.0820 
  9 C       -4.9200    -0.0110    -0.1210 C.ar  1 <1>  -0.1500 
 10 C       -2.6620     2.3760     0.1120 C.2   1 <1>   0.9060 
 11 C       -4.8940    -2.6690     0.6000 C.ar  1 <1>  -0.1500 
 12 C       -6.1190    -0.6180     0.2480 C.ar  1 <1>  -0.1440 
 13 O       -1.9000     2.4350     1.0850 O.co2 1 <1>  -0.9000 
 14 O       -3.6220     3.1490    -0.0180 O.co2 1 <1>  -0.9000 
 15 C       -6.0830    -1.9620     0.6020 C.ar  1 <1>  -0.1500 
 16 C       -7.4630     0.1440     0.2850 C.3   1 <1>   0.1440 
 17 C       -8.4580    -0.5230    -0.6770 C.3   1 <1>  -0.2400 
 18 C       -7.3410     1.6220    -0.1250 C.3   1 <1>  -0.2400 
 19 C       -8.0300     0.1090     1.7120 C.3   1 <1>  -0.2400 
 20 H       -1.2250    -1.8100     1.4400 H     1 <1>   0.0800 
 21 H       -0.5530    -2.7390     0.1120 H     1 <1>   0.0800 
 22 H       -3.1400     1.5070    -1.7640 H     1 <1>   0.0800 
 23 H       -1.4500     1.5590    -1.3990 H     1 <1>   0.0800 
 24 H       -4.9150     1.0220    -0.4000 H     1 <1>   0.1500 
 25 H       -4.8770    -3.7060     0.8790 H     1 <1>   0.1500 
 26 H       -6.9820    -2.4740     0.8900 H     1 <1>   0.1500 
 27 H       -8.0510    -0.5310    -1.6730 H     1 <1>   0.0800 
 28 H       -9.3890     0.0140    -0.6910 H     1 <1>   0.0800 
 29 H       -8.6590    -1.5370    -0.3860 H     1 <1>   0.0800 
 30 H       -6.9730     1.7080    -1.1320 H     1 <1>   0.0800 
 31 H       -6.6630     2.1430     0.5300 H     1 <1>   0.0800 
 32 H       -8.2950     2.1150    -0.0750 H     1 <1>   0.0800 
 33 H       -8.2250    -0.8980     2.0300 H     1 <1>   0.0800 
 34 H       -8.9490     0.6640     1.7700 H     1 <1>   0.0800 
 35 H       -7.3220     0.5480     2.3930 H     1 <1>   0.0800 
@<TRIPOS>BOND
  1   1   2  2   
  2   2   3  am  
  3   2   4  1   
  4   3   5  1   
  5   3   6  1   
  6   4   7  1   
  7   4  20  1   
  8   4  21  1   
  9   5   8  ar  
 10   5   9  ar  
 11   6  10  1   
 12   6  22  1   
 13   6  23  1   
 14   7   8  1   
 15   8  11  ar  
 16   9  12  ar  
 17   9  24  1   
 18  10  13  ar  
 19  10  14  ar  
 20  11  15  ar  
 21  11  25  1   
 22  12  15  ar  
 23  12  16  1   
 24  15  26  1   
 25  16  17  1   
 26  16  18  1   
 27  16  19  1   
 28  17  27  1   
 29  17  28  1   
 30  17  29  1   
 31  18  30  1   
 32  18  31  1   
 33  18  32  1   
 34  19  33  1   
 35  19  34  1   
 36  19  35  1   
@<TRIPOS>SUBSTRUCTURE
  1 ****   5 GROUP 4 **** **** 0

# MOE 2024.06 (io_trps.svl 2023.06)
