@<TRIPOS>MOLECULE
3-Methyl-8-(4-methyl-piperidin-1-yl)-7-[2-(pyrimidin-2-ylsulfanyl)-ethyl]-3,7-di
52 55 1 0 0 
SMALL
USER_CHARGES


@<TRIPOS>ATOM
  1 S        0.9600    -0.9590    -1.1890 S.3   1 <1>  -0.3380 
  2 C        0.2950    -0.8870     0.4690 C.ar  1 <1>   0.7180 
  3 C       -0.4970    -1.0140    -2.3400 C.3   1 <1>   0.0620 
  4 N        1.1370    -1.2810     1.4070 N.ar  1 <1>  -0.6240 
  5 N       -0.9640    -0.4920     0.5860 N.ar  1 <1>  -0.6240 
  6 C       -0.8170    -2.4760    -2.6960 C.3   1 <1>   0.3480 
  7 C        0.6770    -1.1710     2.6350 C.ar  1 <1>   0.1530 
  8 C       -1.3880    -0.3860     1.8280 C.ar  1 <1>   0.1530 
  9 N       -1.0050    -3.3180    -1.4760 N.pl3 1 <1>  -0.7670 
 10 C       -0.5940    -0.7190     2.9000 C.ar  1 <1>  -0.1570 
 11 C       -0.0830    -4.0050    -0.7830 C.cat 1 <1>   1.0690 
 12 C       -2.0960    -3.1160    -0.6100 C.2   1 <1>   0.2710 
 13 N       -0.5350    -4.2440     0.4480 N.pl3 1 <1>  -0.7040 
 14 N        1.1370    -4.3960    -1.1950 N.pl3 1 <1>  -0.5960 
 15 C       -3.3440    -2.4180    -0.7010 C.2   1 <1>   0.6990 
 16 C       -1.7690    -3.6930     0.5680 C.2   1 <1>   0.4210 
 17 C        2.3160    -4.4250    -0.2840 C.3   1 <1>   0.1610 
 18 C        1.4220    -4.9200    -2.5580 C.3   1 <1>   0.1610 
 19 O       -3.7390    -1.8730    -1.7130 O.2   1 <1>  -0.5750 
 20 N       -4.1150    -2.3660     0.4250 N.am  1 <1>  -0.4950 
 21 N       -2.5740    -3.6510     1.6970 N.am  1 <1>  -0.4410 
 22 C        2.8230    -5.8620    -0.1440 C.3   1 <1>  -0.1670 
 23 C        1.9410    -6.3580    -2.4550 C.3   1 <1>  -0.1670 
 24 C       -3.7490    -2.9190     1.6180 C.2   1 <1>   0.6860 
 25 C       -2.1560    -4.3070     2.9680 C.3   1 <1>   0.0520 
 26 C        3.1510    -6.4690    -1.5160 C.3   1 <1>  -0.0880 
 27 O       -4.4530    -2.7290     2.5820 O.2   1 <1>  -0.5750 
 28 C        3.5850    -7.9310    -1.3670 C.3   1 <1>  -0.2470 
 29 H       -0.2150    -0.4670    -3.2210 H     1 <1>   0.0720 
 30 H       -1.3310    -0.5180    -1.8800 H     1 <1>   0.0720 
 31 H       -0.0120    -2.8570    -3.2970 H     1 <1>   0.0720 
 32 H       -1.7110    -2.5090    -3.2960 H     1 <1>   0.0720 
 33 H        1.3320    -1.4420     3.4480 H     1 <1>   0.1430 
 34 H       -2.3900    -0.0250     1.9990 H     1 <1>   0.1430 
 35 H       -0.9540    -0.6230     3.9090 H     1 <1>   0.1430 
 36 H        0.0040    -4.7320     1.1540 H     1 <1>   0.4450 
 37 H        2.0700    -4.0190     0.6820 H     1 <1>   0.0720 
 38 H        3.0940    -3.8090    -0.7040 H     1 <1>   0.0720 
 39 H        2.1610    -4.2970    -3.0330 H     1 <1>   0.0720 
 40 H        0.5300    -4.9220    -3.1610 H     1 <1>   0.0720 
 41 H       -4.9920    -1.8510     0.3920 H     1 <1>   0.3640 
 42 H        2.0800    -6.4590     0.3570 H     1 <1>   0.0720 
 43 H        3.7080    -5.8620     0.4680 H     1 <1>   0.0720 
 44 H        2.2190    -6.7010    -3.4370 H     1 <1>   0.0720 
 45 H        1.1460    -6.9950    -2.1050 H     1 <1>   0.0720 
 46 H       -2.9800    -4.3540     3.6600 H     1 <1>   0.0720 
 47 H       -1.3570    -3.7460     3.4220 H     1 <1>   0.0720 
 48 H       -1.8240    -5.3120     2.7730 H     1 <1>   0.0720 
 49 H        3.9720    -5.9180    -1.9470 H     1 <1>   0.0720 
 50 H        2.7960    -8.5250    -0.9400 H     1 <1>   0.0720 
 51 H        4.4490    -8.0010    -0.7310 H     1 <1>   0.0720 
 52 H        3.8410    -8.3440    -2.3270 H     1 <1>   0.0720 
@<TRIPOS>BOND
  1   1   2  1   
  2   1   3  1   
  3   2   4  ar  
  4   2   5  ar  
  5   3   6  1   
  6   3  29  1   
  7   3  30  1   
  8   4   7  ar  
  9   5   8  ar  
 10   6   9  1   
 11   6  31  1   
 12   6  32  1   
 13   7  10  ar  
 14   7  33  1   
 15   8  10  ar  
 16   8  34  1   
 17   9  11  ar  
 18   9  12  1   
 19  10  35  1   
 20  11  13  ar  
 21  11  14  ar  
 22  12  15  1   
 23  12  16  2   
 24  13  16  1   
 25  13  36  1   
 26  14  17  1   
 27  14  18  1   
 28  15  19  2   
 29  15  20  am  
 30  16  21  1   
 31  17  22  1   
 32  17  37  1   
 33  17  38  1   
 34  18  23  1   
 35  18  39  1   
 36  18  40  1   
 37  20  24  am  
 38  20  41  1   
 39  21  24  am  
 40  21  25  1   
 41  22  26  1   
 42  22  42  1   
 43  22  43  1   
 44  23  26  1   
 45  23  44  1   
 46  23  45  1   
 47  24  27  2   
 48  25  46  1   
 49  25  47  1   
 50  25  48  1   
 51  26  28  1   
 52  26  49  1   
 53  28  50  1   
 54  28  51  1   
 55  28  52  1   
@<TRIPOS>SUBSTRUCTURE
  1 ****  13 GROUP 4 **** **** 0

# MOE 2024.06 (io_trps.svl 2023.06)
