@<TRIPOS>MOLECULE
N-Allyl-N-[4-(piperidine-1-carbonyl)-phenyl]-methanesulfonamide
44 45 1 0 0 
SMALL
USER_CHARGES


@<TRIPOS>ATOM
  1 S       -0.0660     0.1470    -0.3870 S.o2  1 <1>   1.3330 
  2 O       -0.0280    -0.8590    -1.4190 O.2   1 <1>  -0.6500 
  3 O       -1.1110     1.1430    -0.3620 O.2   1 <1>  -0.6500 
  4 N        1.4390     1.0010    -0.4100 N.am  1 <1>  -0.6930 
  5 C       -0.0250    -0.6370     1.2110 C.3   1 <1>  -0.1350 
  6 C        2.6480     0.3640    -0.1620 C.ar  1 <1>   0.1990 
  7 C        1.3310     2.4600    -0.6360 C.3   1 <1>   0.3340 
  8 C        3.4640     0.7680     0.8900 C.ar  1 <1>  -0.1500 
  9 C        3.0720    -0.7090    -0.9400 C.ar  1 <1>  -0.1500 
 10 C        2.6580     3.0620    -1.0670 C.2   1 <1>  -0.2880 
 11 C        4.6570     0.1230     1.1540 C.ar  1 <1>  -0.1500 
 12 C        4.2640    -1.3540    -0.6730 C.ar  1 <1>  -0.1500 
 13 C        3.3140     4.0420    -0.4350 C.2   1 <1>  -0.3000 
 14 C        5.0910    -0.9500     0.3750 C.ar  1 <1>   0.0860 
 15 C        6.3420    -1.6280     0.6440 C.2   1 <1>   0.5440 
 16 O        6.3310    -2.8330     0.8150 O.2   1 <1>  -0.5700 
 17 N        7.5430    -0.9490     0.7110 N.am  1 <1>  -0.6600 
 18 C        8.7870    -1.6080     1.2020 C.3   1 <1>   0.1400 
 19 C        7.7550     0.4160     0.1510 C.3   1 <1>   0.1400 
 20 C        9.8140    -1.6870     0.0680 C.3   1 <1>  -0.1600 
 21 C        8.7800     0.3550    -0.9870 C.3   1 <1>  -0.1600 
 22 C       10.0920    -0.3050    -0.5400 C.3   1 <1>  -0.1600 
 23 H       -0.9310    -1.1870     1.3710 H     1 <1>   0.0800 
 24 H        0.0730     0.0990     1.9830 H     1 <1>   0.0800 
 25 H        0.8030    -1.3160     1.2700 H     1 <1>   0.0800 
 26 H        0.9800     2.9330     0.2660 H     1 <1>   0.0800 
 27 H        0.6080     2.6450    -1.4130 H     1 <1>   0.0800 
 28 H        3.1540     1.5940     1.5030 H     1 <1>   0.1500 
 29 H        2.4620    -1.0380    -1.7630 H     1 <1>   0.1500 
 30 H        3.0310     2.6030    -1.9670 H     1 <1>   0.1500 
 31 H        5.2710     0.4460     1.9770 H     1 <1>   0.1500 
 32 H        4.5720    -2.1880    -1.2800 H     1 <1>   0.1500 
 33 H        4.2540     4.4450    -0.7710 H     1 <1>   0.1500 
 34 H        2.9710     4.5240     0.4640 H     1 <1>   0.1500 
 35 H        8.5770    -2.5980     1.5690 H     1 <1>   0.0800 
 36 H        9.1880    -1.0320     2.0180 H     1 <1>   0.0800 
 37 H        8.1170     1.0620     0.9330 H     1 <1>   0.0800 
 38 H        6.8370     0.8270    -0.2280 H     1 <1>   0.0800 
 39 H        9.4360    -2.3500    -0.6910 H     1 <1>   0.0800 
 40 H       10.7290    -2.1080     0.4450 H     1 <1>   0.0800 
 41 H        8.9790     1.3520    -1.3400 H     1 <1>   0.0800 
 42 H        8.3560    -0.2030    -1.8040 H     1 <1>   0.0800 
 43 H       10.7560    -0.4040    -1.3810 H     1 <1>   0.0800 
 44 H       10.5740     0.3180     0.1950 H     1 <1>   0.0800 
@<TRIPOS>BOND
  1   1   2  2   
  2   1   3  2   
  3   1   4  am  
  4   1   5  1   
  5   4   6  1   
  6   4   7  1   
  7   5  23  1   
  8   5  24  1   
  9   5  25  1   
 10   6   8  ar  
 11   6   9  ar  
 12   7  10  1   
 13   7  26  1   
 14   7  27  1   
 15   8  11  ar  
 16   8  28  1   
 17   9  12  ar  
 18   9  29  1   
 19  10  13  2   
 20  10  30  1   
 21  11  14  ar  
 22  11  31  1   
 23  12  14  ar  
 24  12  32  1   
 25  13  33  1   
 26  13  34  1   
 27  14  15  1   
 28  15  16  2   
 29  15  17  am  
 30  17  18  1   
 31  17  19  1   
 32  18  20  1   
 33  18  35  1   
 34  18  36  1   
 35  19  21  1   
 36  19  37  1   
 37  19  38  1   
 38  20  22  1   
 39  20  39  1   
 40  20  40  1   
 41  21  22  1   
 42  21  41  1   
 43  21  42  1   
 44  22  43  1   
 45  22  44  1   
@<TRIPOS>SUBSTRUCTURE
  1 ****  11 GROUP 4 **** **** 0

# MOE 2024.06 (io_trps.svl 2023.06)
