@<TRIPOS>MOLECULE
2-[4-(2-Chloro-phenyl)-piperazin-1-yl]-N-(4-methoxy-phenyl)-acetamide
47 49 1 0 0 
SMALL
USER_CHARGES


@<TRIPOS>ATOM
  1 CL       0.0320    -0.4620    -1.7970 Cl    1 <1>  -0.1770 
  2 C       -1.2630    -1.0260    -0.7550 C.ar  1 <1>   0.1770 
  3 C       -1.0960    -2.1520     0.0620 C.ar  1 <1>   0.1000 
  4 C       -2.4470    -0.3130    -0.7760 C.ar  1 <1>  -0.1500 
  5 N        0.0700    -2.9220     0.1400 N.pl3 1 <1>  -0.8380 
  6 C       -2.1710    -2.5300     0.8570 C.ar  1 <1>  -0.1500 
  7 C       -3.5030    -0.7120     0.0270 C.ar  1 <1>  -0.1500 
  8 C        0.4230    -3.7350    -1.0620 C.3   1 <1>   0.2090 
  9 C        1.2670    -2.2760     0.7530 C.3   1 <1>   0.2090 
 10 C       -3.3610    -1.8220     0.8420 C.ar  1 <1>  -0.1500 
 11 C        1.5420    -4.7430    -0.7360 C.3   1 <1>   0.1100 
 12 C        2.3670    -3.3170     1.0360 C.3   1 <1>   0.1100 
 13 N        2.7450    -4.0770    -0.1840 N.3   1 <1>  -0.8100 
 14 C        3.8190    -5.0700     0.1180 C.3   1 <1>   0.1710 
 15 C        5.1980    -4.4350     0.3070 C.2   1 <1>   0.5690 
 16 O        6.0340    -5.0230     0.9500 O.2   1 <1>  -0.5700 
 17 N        5.3820    -3.2150    -0.2780 N.am  1 <1>  -0.5470 
 18 C        6.4560    -2.3120    -0.3200 C.ar  1 <1>   0.1170 
 19 C        7.7300    -2.6190     0.1470 C.ar  1 <1>  -0.1500 
 20 C        6.2360    -1.0490    -0.8560 C.ar  1 <1>  -0.1500 
 21 C        8.7550    -1.6910     0.0860 C.ar  1 <1>  -0.1500 
 22 C        7.2560    -0.1180    -0.9200 C.ar  1 <1>  -0.1500 
 23 C        8.5210    -0.4290    -0.4500 C.ar  1 <1>   0.0830 
 24 O        9.4660     0.5430    -0.5480 O.3   1 <1>  -0.3620 
 25 C       10.7810     0.3220    -0.0880 C.3   1 <1>   0.0400 
 26 H       -2.5400     0.5460    -1.4150 H     1 <1>   0.1500 
 27 H       -2.0610    -3.3910     1.4900 H     1 <1>   0.1500 
 28 H       -4.4280    -0.1630     0.0160 H     1 <1>   0.1500 
 29 H        0.7540    -3.0890    -1.8560 H     1 <1>   0.0800 
 30 H       -0.4500    -4.2640    -1.4010 H     1 <1>   0.0800 
 31 H        0.9790    -1.7970     1.6730 H     1 <1>   0.0800 
 32 H        1.6580    -1.5250     0.0910 H     1 <1>   0.0800 
 33 H       -4.1780    -2.1370     1.4680 H     1 <1>   0.1500 
 34 H        1.8050    -5.2670    -1.6380 H     1 <1>   0.0800 
 35 H        1.1630    -5.4610    -0.0280 H     1 <1>   0.0800 
 36 H        2.0070    -3.9940     1.7930 H     1 <1>   0.0800 
 37 H        3.2270    -2.8060     1.4320 H     1 <1>   0.0800 
 38 H        3.9030    -5.7630    -0.7000 H     1 <1>   0.0800 
 39 H        3.5680    -5.6310     1.0010 H     1 <1>   0.0800 
 40 H        4.5110    -2.8940    -0.7150 H     1 <1>   0.3700 
 41 H        7.9320    -3.5890     0.5620 H     1 <1>   0.1500 
 42 H        5.2610    -0.7890    -1.2260 H     1 <1>   0.1500 
 43 H        9.7220    -1.9710     0.4580 H     1 <1>   0.1500 
 44 H        7.0800     0.8580    -1.3350 H     1 <1>   0.1500 
 45 H       11.3500     1.2180    -0.2590 H     1 <1>   0.0800 
 46 H       11.2110    -0.4950    -0.6390 H     1 <1>   0.0800 
 47 H       10.7500     0.1040     0.9650 H     1 <1>   0.0800 
@<TRIPOS>BOND
  1   1   2  1   
  2   2   3  ar  
  3   2   4  ar  
  4   3   5  1   
  5   3   6  ar  
  6   4   7  ar  
  7   4  26  1   
  8   5   8  1   
  9   5   9  1   
 10   6  10  ar  
 11   6  27  1   
 12   7  10  ar  
 13   7  28  1   
 14   8  11  1   
 15   8  29  1   
 16   8  30  1   
 17   9  12  1   
 18   9  31  1   
 19   9  32  1   
 20  10  33  1   
 21  11  13  1   
 22  11  34  1   
 23  11  35  1   
 24  12  13  1   
 25  12  36  1   
 26  12  37  1   
 27  13  14  1   
 28  14  15  1   
 29  14  38  1   
 30  14  39  1   
 31  15  16  2   
 32  15  17  am  
 33  17  18  1   
 34  17  40  1   
 35  18  19  ar  
 36  18  20  ar  
 37  19  21  ar  
 38  19  41  1   
 39  20  22  ar  
 40  20  42  1   
 41  21  23  ar  
 42  21  43  1   
 43  22  23  ar  
 44  22  44  1   
 45  23  24  1   
 46  24  25  1   
 47  25  45  1   
 48  25  46  1   
 49  25  47  1   
@<TRIPOS>SUBSTRUCTURE
  1 ****  12 GROUP 4 **** **** 0

# MOE 2024.06 (io_trps.svl 2023.06)
