@<TRIPOS>MOLECULE
Pyrrolidine-1-carboxylic acid (1,5-dimethyl-3-oxo-2-phenyl-2,3-dihydro-1H-pyrazo
42 44 1 0 0 
SMALL
USER_CHARGES


@<TRIPOS>ATOM
  1 O       -0.2580     0.8650    -1.4440 O.2   1 <1>  -0.5700 
  2 C       -0.2710     2.0410    -1.0380 C.2   1 <1>   0.6160 
  3 N        0.7980     2.9010    -1.0620 N.am  1 <1>  -0.1570 
  4 C       -1.3700     2.7000    -0.4410 C.2   1 <1>   0.1230 
  5 N        0.3500     4.1280    -0.4670 N.pl3 1 <1>  -0.4890 
  6 C        2.1430     2.4860    -0.9690 C.ar  1 <1>   0.1170 
  7 N       -2.6450     2.0810    -0.2670 N.am  1 <1>  -0.5390 
  8 C       -0.9530     3.9530    -0.1000 C.2   1 <1>  -0.0380 
  9 C        0.8880     5.4080    -0.9870 C.3   1 <1>   0.1290 
 10 C        2.7050     1.7030    -1.9720 C.ar  1 <1>  -0.1500 
 11 C        2.9410     2.8480     0.1130 C.ar  1 <1>  -0.1500 
 12 C       -3.8720     2.5760    -0.5740 C.2   1 <1>   0.6900 
 13 C       -1.7370     5.0640     0.5760 C.3   1 <1>  -0.1020 
 14 C        4.0270     1.3000    -1.9030 C.ar  1 <1>  -0.1500 
 15 C        4.2630     2.4470     0.1870 C.ar  1 <1>  -0.1500 
 16 O       -4.0040     3.7130    -0.9890 O.2   1 <1>  -0.5700 
 17 N       -4.9640     1.7640    -0.4300 N.am  1 <1>  -0.6600 
 18 C        4.8080     1.6730    -0.8230 C.ar  1 <1>  -0.1500 
 19 C       -6.3390     2.2400    -0.6950 C.3   1 <1>   0.1400 
 20 C       -4.9750     0.4280     0.2040 C.3   1 <1>   0.1400 
 21 C       -7.2370     1.2680     0.0610 C.3   1 <1>  -0.1600 
 22 C       -6.4290    -0.0250     0.1350 C.3   1 <1>  -0.1600 
 23 H       -2.6080     1.0650    -0.2780 H     1 <1>   0.3700 
 24 H        0.3790     5.6650    -1.8990 H     1 <1>   0.0800 
 25 H        0.7390     6.1870    -0.2620 H     1 <1>   0.0800 
 26 H        1.9400     5.3080    -1.1850 H     1 <1>   0.0800 
 27 H        2.0970     1.4070    -2.8080 H     1 <1>   0.1500 
 28 H        2.5190     3.4440     0.9020 H     1 <1>   0.1500 
 29 H       -1.1450     5.5130     1.3520 H     1 <1>   0.0800 
 30 H       -2.6350     4.6740     1.0190 H     1 <1>   0.0800 
 31 H       -2.0080     5.8120    -0.1460 H     1 <1>   0.0800 
 32 H        4.4460     0.6930    -2.6870 H     1 <1>   0.1500 
 33 H        4.8680     2.7340     1.0290 H     1 <1>   0.1500 
 34 H        5.8360     1.3590    -0.7670 H     1 <1>   0.1500 
 35 H       -6.5280     2.1890    -1.7530 H     1 <1>   0.0800 
 36 H       -6.4710     3.2530    -0.3530 H     1 <1>   0.0800 
 37 H       -4.6600     0.5210     1.2300 H     1 <1>   0.0800 
 38 H       -4.3290    -0.2560    -0.3200 H     1 <1>   0.0800 
 39 H       -8.1850     1.1350    -0.4310 H     1 <1>   0.0800 
 40 H       -7.4070     1.6510     1.0520 H     1 <1>   0.0800 
 41 H       -6.7010    -0.6320     0.9800 H     1 <1>   0.0800 
 42 H       -6.5740    -0.5960    -0.7660 H     1 <1>   0.0800 
@<TRIPOS>BOND
  1   1   2  2   
  2   2   3  am  
  3   2   4  1   
  4   3   5  1   
  5   3   6  1   
  6   4   7  1   
  7   4   8  2   
  8   5   8  1   
  9   5   9  1   
 10   6  10  ar  
 11   6  11  ar  
 12   7  12  am  
 13   7  23  1   
 14   8  13  1   
 15   9  24  1   
 16   9  25  1   
 17   9  26  1   
 18  10  14  ar  
 19  10  27  1   
 20  11  15  ar  
 21  11  28  1   
 22  12  16  2   
 23  12  17  am  
 24  13  29  1   
 25  13  30  1   
 26  13  31  1   
 27  14  18  ar  
 28  14  32  1   
 29  15  18  ar  
 30  15  33  1   
 31  17  19  1   
 32  17  20  1   
 33  18  34  1   
 34  19  21  1   
 35  19  35  1   
 36  19  36  1   
 37  20  22  1   
 38  20  37  1   
 39  20  38  1   
 40  21  22  1   
 41  21  39  1   
 42  21  40  1   
 43  22  41  1   
 44  22  42  1   
@<TRIPOS>SUBSTRUCTURE
  1 ****   4 GROUP 4 **** **** 0

# MOE 2024.06 (io_trps.svl 2023.06)
