@<TRIPOS>MOLECULE
N-[1-(3-o-Tolyl-[1,2,4]oxadiazol-5-yl)-ethyl]-acetamide
33 34 1 0 0 
SMALL
USER_CHARGES


@<TRIPOS>ATOM
  1 O       -2.2430    -0.1470    -2.1040 O.2   1 <1>  -0.5700 
  2 C       -2.5070    -0.5420    -1.0000 C.2   1 <1>   0.5690 
  3 N       -3.7920    -0.5860    -0.5960 N.am  1 <1>  -0.7300 
  4 C       -1.3860    -0.9840    -0.0920 C.3   1 <1>  -0.1790 
  5 C       -4.3490    -1.0800     0.6800 C.3   1 <1>   0.4000 
  6 C       -4.8680    -2.5140     0.5280 C.2   1 <1>   0.2980 
  7 C       -5.4340    -0.0930     1.1160 C.3   1 <1>  -0.2400 
  8 O       -3.9810    -3.4740     0.5010 O.3   1 <1>  -0.0190 
  9 N       -6.0780    -2.8920     0.4270 N.2   1 <1>  -0.5650 
 10 N       -4.6850    -4.5540     0.3770 N.2   1 <1>  -0.4100 
 11 C       -5.9230    -4.2160     0.3230 C.2   1 <1>   0.4620 
 12 C       -7.0360    -5.1400     0.1960 C.ar  1 <1>   0.0540 
 13 C       -8.0830    -4.9810    -0.7250 C.ar  1 <1>  -0.1440 
 14 C       -7.0740    -6.2580     1.0320 C.ar  1 <1>  -0.1500 
 15 C       -9.1180    -5.9020    -0.7740 C.ar  1 <1>  -0.1500 
 16 C       -8.1140    -3.8100    -1.7000 C.3   1 <1>  -0.0970 
 17 C       -8.1060    -7.1750     0.9760 C.ar  1 <1>  -0.1500 
 18 C       -9.1340    -6.9950     0.0720 C.ar  1 <1>  -0.1500 
 19 H       -4.4850    -0.3340    -1.3020 H     1 <1>   0.3700 
 20 H       -0.4490    -0.8950    -0.6100 H     1 <1>   0.0800 
 21 H       -1.3560    -0.3630     0.7830 H     1 <1>   0.0800 
 22 H       -1.5250    -2.0110     0.1910 H     1 <1>   0.0800 
 23 H       -3.5800    -1.0850     1.4320 H     1 <1>   0.0800 
 24 H       -6.2270    -0.0580     0.3900 H     1 <1>   0.0800 
 25 H       -5.0170     0.8900     1.2410 H     1 <1>   0.0800 
 26 H       -5.8520    -0.4080     2.0560 H     1 <1>   0.0800 
 27 H       -6.2770    -6.4060     1.7390 H     1 <1>   0.1500 
 28 H       -9.9230    -5.7760    -1.4770 H     1 <1>   0.1500 
 29 H       -7.1530    -3.6860    -2.1660 H     1 <1>   0.0800 
 30 H       -8.3660    -2.9050    -1.1760 H     1 <1>   0.0800 
 31 H       -8.8420    -3.9700    -2.4750 H     1 <1>   0.0800 
 32 H       -8.1100    -8.0260     1.6350 H     1 <1>   0.1500 
 33 H       -9.9430    -7.7040     0.0240 H     1 <1>   0.1500 
@<TRIPOS>BOND
  1   1   2  2   
  2   2   3  am  
  3   2   4  1   
  4   3   5  1   
  5   3  19  1   
  6   4  20  1   
  7   4  21  1   
  8   4  22  1   
  9   5   6  1   
 10   5   7  1   
 11   5  23  1   
 12   6   8  1   
 13   6   9  2   
 14   7  24  1   
 15   7  25  1   
 16   7  26  1   
 17   8  10  1   
 18   9  11  1   
 19  10  11  2   
 20  11  12  1   
 21  12  13  ar  
 22  12  14  ar  
 23  13  15  ar  
 24  13  16  1   
 25  14  17  ar  
 26  14  27  1   
 27  15  18  ar  
 28  15  28  1   
 29  16  29  1   
 30  16  30  1   
 31  16  31  1   
 32  17  18  ar  
 33  17  32  1   
 34  18  33  1   
@<TRIPOS>SUBSTRUCTURE
  1 ****   9 GROUP 4 **** **** 0

# MOE 2024.06 (io_trps.svl 2023.06)
