@<TRIPOS>MOLECULE
1-(2,5-Dimethoxy-benzenesulfonyl)-piperidine-4-carboxylic acid m-tolylamide
55 57 1 0 0 
SMALL
USER_CHARGES


@<TRIPOS>ATOM
  1 S        0.0620    -0.5680     1.5440 S.o2  1 <1>   1.4470 
  2 O        0.2440    -1.8780     2.1340 O.2   1 <1>  -0.6500 
  3 O       -0.1970     0.5360     2.4450 O.2   1 <1>  -0.6500 
  4 N        1.5130    -0.2060     0.7390 N.am  1 <1>  -0.8490 
  5 C       -1.1760    -0.7220     0.2270 C.ar  1 <1>  -0.0090 
  6 C        2.6570    -0.3910     1.6370 C.3   1 <1>   0.1960 
  7 C        1.4940     1.1390     0.1520 C.3   1 <1>   0.1960 
  8 C       -1.9110     0.3640    -0.2450 C.ar  1 <1>   0.0820 
  9 C       -1.4050    -1.9610    -0.3630 C.ar  1 <1>  -0.1500 
 10 C        3.9750    -0.1700     0.8910 C.3   1 <1>  -0.1600 
 11 C        2.7780     1.4030    -0.6380 C.3   1 <1>  -0.1600 
 12 O       -1.7100     1.6010     0.2560 O.3   1 <1>  -0.3620 
 13 C       -2.8430     0.2160    -1.2620 C.ar  1 <1>  -0.1500 
 14 C       -2.3430    -2.1230    -1.3790 C.ar  1 <1>   0.0820 
 15 C        4.0230     1.2230     0.2450 C.3   1 <1>  -0.0190 
 16 C       -2.6860     2.0770     1.1570 C.3   1 <1>   0.0400 
 17 C       -3.0600    -1.0260    -1.8240 C.ar  1 <1>  -0.1500 
 18 O       -2.6080    -3.3100    -1.9810 O.3   1 <1>  -0.3630 
 19 C        5.3140     1.4430    -0.5440 C.2   1 <1>   0.5690 
 20 C       -1.9290    -4.4880    -1.6040 C.3   1 <1>   0.0400 
 21 O        5.5770     0.6920    -1.4510 O.2   1 <1>  -0.5700 
 22 N        6.1130     2.4890    -0.1670 N.am  1 <1>  -0.5470 
 23 C        7.3320     2.9640    -0.6780 C.ar  1 <1>   0.1170 
 24 C        8.0970     3.8090     0.1180 C.ar  1 <1>  -0.1500 
 25 C        7.8070     2.6450    -1.9470 C.ar  1 <1>  -0.1500 
 26 C        9.3030     4.3240    -0.3280 C.ar  1 <1>  -0.1430 
 27 C        9.0110     3.1520    -2.4000 C.ar  1 <1>  -0.1500 
 28 C        9.7590     3.9900    -1.5920 C.ar  1 <1>  -0.1500 
 29 C       10.1300     5.2430     0.5540 C.3   1 <1>  -0.0970 
 30 H        2.6530    -1.3960     2.0280 H     1 <1>   0.0800 
 31 H        2.5820     0.2910     2.4690 H     1 <1>   0.0800 
 32 H        1.3780     1.8800     0.9260 H     1 <1>   0.0800 
 33 H        0.6630     1.2270    -0.5260 H     1 <1>   0.0800 
 34 H       -0.8340    -2.8000    -0.0100 H     1 <1>   0.1500 
 35 H        4.0750    -0.9290     0.1330 H     1 <1>   0.0800 
 36 H        4.7960    -0.2830     1.5760 H     1 <1>   0.0800 
 37 H        2.7540     2.4030    -1.0340 H     1 <1>   0.0800 
 38 H        2.8200     0.7220    -1.4710 H     1 <1>   0.0800 
 39 H       -3.3900     1.0720    -1.6140 H     1 <1>   0.1500 
 40 H        3.9770     1.9530     1.0330 H     1 <1>   0.0800 
 41 H       -2.3750     3.0440     1.5090 H     1 <1>   0.0800 
 42 H       -2.7580     1.3940     1.9860 H     1 <1>   0.0800 
 43 H       -3.6310     2.1540     0.6490 H     1 <1>   0.0800 
 44 H       -3.7810    -1.1550    -2.6110 H     1 <1>   0.1500 
 45 H       -2.3010    -5.2960    -2.2080 H     1 <1>   0.0800 
 46 H       -2.1250    -4.6890    -0.5650 H     1 <1>   0.0800 
 47 H       -0.8760    -4.3560    -1.7790 H     1 <1>   0.0800 
 48 H        5.7880     3.0000     0.6490 H     1 <1>   0.3700 
 49 H        7.7480     4.0650     1.1000 H     1 <1>   0.1500 
 50 H        7.2400     2.0010    -2.5930 H     1 <1>   0.1500 
 51 H        9.3650     2.8940    -3.3820 H     1 <1>   0.1500 
 52 H       10.6950     4.3790    -1.9520 H     1 <1>   0.1500 
 53 H        9.5310     5.6560     1.3450 H     1 <1>   0.0800 
 54 H       10.5290     6.0540    -0.0280 H     1 <1>   0.0800 
 55 H       10.9450     4.6920     0.9880 H     1 <1>   0.0800 
@<TRIPOS>BOND
  1   1   2  2   
  2   1   3  2   
  3   1   4  am  
  4   1   5  1   
  5   4   6  1   
  6   4   7  1   
  7   5   8  ar  
  8   5   9  ar  
  9   6  10  1   
 10   6  30  1   
 11   6  31  1   
 12   7  11  1   
 13   7  32  1   
 14   7  33  1   
 15   8  12  1   
 16   8  13  ar  
 17   9  14  ar  
 18   9  34  1   
 19  10  15  1   
 20  10  35  1   
 21  10  36  1   
 22  11  15  1   
 23  11  37  1   
 24  11  38  1   
 25  12  16  1   
 26  13  17  ar  
 27  13  39  1   
 28  14  17  ar  
 29  14  18  1   
 30  15  19  1   
 31  15  40  1   
 32  16  41  1   
 33  16  42  1   
 34  16  43  1   
 35  17  44  1   
 36  18  20  1   
 37  19  21  2   
 38  19  22  am  
 39  20  45  1   
 40  20  46  1   
 41  20  47  1   
 42  22  23  1   
 43  22  48  1   
 44  23  24  ar  
 45  23  25  ar  
 46  24  26  ar  
 47  24  49  1   
 48  25  27  ar  
 49  25  50  1   
 50  26  28  ar  
 51  26  29  1   
 52  27  28  ar  
 53  27  51  1   
 54  28  52  1   
 55  29  53  1   
 56  29  54  1   
 57  29  55  1   
@<TRIPOS>SUBSTRUCTURE
  1 ****  11 GROUP 4 **** **** 0

# MOE 2024.06 (io_trps.svl 2023.06)
