@<TRIPOS>MOLECULE
2-(3,6-Dimethyl-4-oxo-3,4-dihydro-thieno[2,3-d]pyrimidin-2-ylsulfanyl)-N-(tetrah
42 44 1 0 0 
SMALL
USER_CHARGES


@<TRIPOS>ATOM
  1 S        0.3870    -0.1430    -0.0240 S.3   1 <1>  -0.0800 
  2 C        1.7810     0.9080    -0.1890 C.2   1 <1>   0.1660 
  3 C       -0.6310     1.2080     0.4680 C.2   1 <1>  -0.1400 
  4 N        2.9950     0.4570    -0.5780 N.2   1 <1>  -0.5760 
  5 C        1.4550     2.1910     0.1110 C.2   1 <1>  -0.0860 
  6 C        0.0790     2.3520     0.4880 C.2   1 <1>  -0.1500 
  7 C       -2.0800     0.9020     0.7820 C.3   1 <1>  -0.0600 
  8 C        3.8980     1.3770    -0.6610 C.2   1 <1>   0.6510 
  9 C        2.4880     3.1610     0.0070 C.2   1 <1>   0.7160 
 10 S        5.5160     0.8720    -1.2190 S.3   1 <1>  -0.3710 
 11 N        3.7350     2.7200    -0.3910 N.am  1 <1>  -0.4200 
 12 O        2.2860     4.3430     0.2510 O.2   1 <1>  -0.5700 
 13 C        5.5770    -0.9380    -0.8000 C.3   1 <1>   0.1310 
 14 C        4.8870     3.6690    -0.4600 C.3   1 <1>   0.0600 
 15 C        5.5240    -1.1710     0.7110 C.2   1 <1>   0.5690 
 16 O        5.7530    -0.2690     1.4790 O.2   1 <1>  -0.5700 
 17 N        5.2420    -2.3960     1.2180 N.am  1 <1>  -0.7300 
 18 C        4.8860    -3.6540     0.5030 C.3   1 <1>   0.1400 
 19 C        3.4280    -4.0500     0.7650 C.3   1 <1>   0.2000 
 20 O        3.1150    -5.1630    -0.0030 O.3   1 <1>  -0.5600 
 21 C        2.3970    -3.0100     0.3540 C.3   1 <1>  -0.1600 
 22 C        1.7380    -5.2440    -0.2120 C.3   1 <1>   0.1200 
 23 C        1.1700    -3.8530     0.0620 C.3   1 <1>  -0.1600 
 24 H       -0.2990     3.3250     0.7520 H     1 <1>   0.1500 
 25 H       -2.1390     0.1950     1.5900 H     1 <1>   0.0800 
 26 H       -2.5620     0.4850    -0.0840 H     1 <1>   0.0800 
 27 H       -2.5960     1.8010     1.0680 H     1 <1>   0.0800 
 28 H        6.4980    -1.3180    -1.1980 H     1 <1>   0.0800 
 29 H        4.7440    -1.4010    -1.2920 H     1 <1>   0.0800 
 30 H        5.6760     3.3280     0.1880 H     1 <1>   0.0800 
 31 H        4.6020     4.6590    -0.1510 H     1 <1>   0.0800 
 32 H        5.2560     3.7200    -1.4700 H     1 <1>   0.0800 
 33 H        5.2290    -2.4420     2.2400 H     1 <1>   0.3700 
 34 H        5.5300    -4.4440     0.8470 H     1 <1>   0.0800 
 35 H        5.0310    -3.5360    -0.5560 H     1 <1>   0.0800 
 36 H        3.2930    -4.3270     1.7970 H     1 <1>   0.0800 
 37 H        2.7170    -2.5050    -0.5400 H     1 <1>   0.0800 
 38 H        2.2310    -2.2830     1.1300 H     1 <1>   0.0800 
 39 H        1.3340    -5.9760     0.4660 H     1 <1>   0.0800 
 40 H        1.5710    -5.5530    -1.2300 H     1 <1>   0.0800 
 41 H        0.6170    -3.4770    -0.7810 H     1 <1>   0.0800 
 42 H        0.5210    -3.8920     0.9180 H     1 <1>   0.0800 
@<TRIPOS>BOND
  1   1   2  1   
  2   1   3  1   
  3   2   4  1   
  4   2   5  2   
  5   3   6  2   
  6   3   7  1   
  7   4   8  2   
  8   5   6  1   
  9   5   9  1   
 10   6  24  1   
 11   7  25  1   
 12   7  26  1   
 13   7  27  1   
 14   8  10  1   
 15   8  11  1   
 16   9  11  am  
 17   9  12  2   
 18  10  13  1   
 19  11  14  1   
 20  13  15  1   
 21  13  28  1   
 22  13  29  1   
 23  14  30  1   
 24  14  31  1   
 25  14  32  1   
 26  15  16  2   
 27  15  17  am  
 28  17  18  1   
 29  17  33  1   
 30  18  19  1   
 31  18  34  1   
 32  18  35  1   
 33  19  20  1   
 34  19  21  1   
 35  19  36  1   
 36  20  22  1   
 37  21  23  1   
 38  21  37  1   
 39  21  38  1   
 40  22  23  1   
 41  22  39  1   
 42  22  40  1   
 43  23  41  1   
 44  23  42  1   
@<TRIPOS>SUBSTRUCTURE
  1 ****   4 GROUP 4 **** **** 0

# MOE 2024.06 (io_trps.svl 2023.06)
