@<TRIPOS>MOLECULE
N-(2,3-Dihydro-benzo[1,4]dioxin-6-yl)-2-[(3,5-dimethyl-phenyl)-methanesulfonyl-a
52 54 1 0 0 
SMALL
USER_CHARGES


@<TRIPOS>ATOM
  1 S        0.9010    -0.0900    -1.0930 S.o2  1 <1>   1.3330 
  2 O        1.2310    -0.5170     0.2410 O.2   1 <1>  -0.6500 
  3 O        1.9350    -0.0640    -2.1030 O.2   1 <1>  -0.6500 
  4 N        0.2730     1.5170    -1.0070 N.am  1 <1>  -0.6930 
  5 C       -0.4880    -1.0150    -1.7110 C.3   1 <1>  -0.1350 
  6 C       -0.6680     1.8210    -0.0270 C.ar  1 <1>   0.1990 
  7 C        1.1850     2.6000    -1.5040 C.3   1 <1>   0.3370 
  8 C       -0.2920     2.0190     1.2960 C.ar  1 <1>  -0.1500 
  9 C       -2.0100     1.9310    -0.3660 C.ar  1 <1>  -0.1500 
 10 C        2.4420     2.8050    -0.6210 C.2   1 <1>   0.5690 
 11 C        0.3910     3.8960    -1.7430 C.3   1 <1>  -0.2400 
 12 C       -1.2330     2.3210     2.2630 C.ar  1 <1>  -0.1440 
 13 C       -2.9630     2.2290     0.5920 C.ar  1 <1>  -0.1440 
 14 O        2.4860     3.7360     0.1520 O.2   1 <1>  -0.5700 
 15 N        3.4760     1.9150    -0.7590 N.am  1 <1>  -0.5470 
 16 C       -2.5680     2.4230     1.9060 C.ar  1 <1>  -0.1500 
 17 C       -0.8100     2.5360     3.7050 C.3   1 <1>  -0.0970 
 18 C       -4.4310     2.3510     0.2230 C.3   1 <1>  -0.0970 
 19 C        4.7120     1.8250    -0.1010 C.ar  1 <1>   0.1170 
 20 C        5.3140     0.5770     0.0030 C.ar  1 <1>  -0.1500 
 21 C        5.3660     2.9310     0.4380 C.ar  1 <1>  -0.1500 
 22 C        6.5380     0.4330     0.6290 C.ar  1 <1>   0.0830 
 23 C        6.5940     2.7970     1.0640 C.ar  1 <1>  -0.1500 
 24 O        7.0870    -0.8050     0.7230 O.3   1 <1>  -0.3630 
 25 C        7.1880     1.5510     1.1570 C.ar  1 <1>   0.0830 
 26 C        8.1500    -0.9630     1.6430 C.3   1 <1>   0.1200 
 27 O        8.4010     1.4430     1.7620 O.3   1 <1>  -0.3630 
 28 C        9.1070     0.2330     1.5570 C.3   1 <1>   0.1200 
 29 H       -0.2150    -2.0440    -1.8410 H     1 <1>   0.0800 
 30 H       -0.8080    -0.6190    -2.6540 H     1 <1>   0.0800 
 31 H       -1.3030    -0.9620    -1.0160 H     1 <1>   0.0800 
 32 H        1.5430     2.3010    -2.4740 H     1 <1>   0.0800 
 33 H        0.7470     1.9310     1.5610 H     1 <1>   0.1500 
 34 H       -2.2980     1.7860    -1.3900 H     1 <1>   0.1500 
 35 H        0.0360     4.3030    -0.8120 H     1 <1>   0.0800 
 36 H       -0.4430     3.7110    -2.3960 H     1 <1>   0.0800 
 37 H        1.0290     4.6290    -2.2010 H     1 <1>   0.0800 
 38 H        3.2610     1.1020    -1.3520 H     1 <1>   0.3700 
 39 H       -3.3040     2.6550     2.6570 H     1 <1>   0.1500 
 40 H        0.2490     2.7130     3.7660 H     1 <1>   0.0800 
 41 H       -1.0480     1.6650     4.2880 H     1 <1>   0.0800 
 42 H       -1.3210     3.3860     4.1190 H     1 <1>   0.0800 
 43 H       -4.5810     2.1790    -0.8270 H     1 <1>   0.0800 
 44 H       -4.7860     3.3370     0.4630 H     1 <1>   0.0800 
 45 H       -5.0070     1.6310     0.7760 H     1 <1>   0.0800 
 46 H        4.8280    -0.2940    -0.3970 H     1 <1>   0.1500 
 47 H        4.9180     3.9050     0.3670 H     1 <1>   0.1500 
 48 H        7.0930     3.6530     1.4780 H     1 <1>   0.1500 
 49 H        8.6600    -1.8790     1.4060 H     1 <1>   0.0800 
 50 H        7.7290    -1.0360     2.6300 H     1 <1>   0.0800 
 51 H        9.5670     0.2750     0.5850 H     1 <1>   0.0800 
 52 H        9.8730     0.1660     2.3080 H     1 <1>   0.0800 
@<TRIPOS>BOND
  1   1   2  2   
  2   1   3  2   
  3   1   4  am  
  4   1   5  1   
  5   4   6  1   
  6   4   7  1   
  7   5  29  1   
  8   5  30  1   
  9   5  31  1   
 10   6   8  ar  
 11   6   9  ar  
 12   7  10  1   
 13   7  11  1   
 14   7  32  1   
 15   8  12  ar  
 16   8  33  1   
 17   9  13  ar  
 18   9  34  1   
 19  10  14  2   
 20  10  15  am  
 21  11  35  1   
 22  11  36  1   
 23  11  37  1   
 24  12  16  ar  
 25  12  17  1   
 26  13  16  ar  
 27  13  18  1   
 28  15  19  1   
 29  15  38  1   
 30  16  39  1   
 31  17  40  1   
 32  17  41  1   
 33  17  42  1   
 34  18  43  1   
 35  18  44  1   
 36  18  45  1   
 37  19  20  ar  
 38  19  21  ar  
 39  20  22  ar  
 40  20  46  1   
 41  21  23  ar  
 42  21  47  1   
 43  22  24  1   
 44  22  25  ar  
 45  23  25  ar  
 46  23  48  1   
 47  24  26  1   
 48  25  27  1   
 49  26  28  1   
 50  26  49  1   
 51  26  50  1   
 52  27  28  1   
 53  28  51  1   
 54  28  52  1   
@<TRIPOS>SUBSTRUCTURE
  1 ****  15 GROUP 4 **** **** 0

# MOE 2024.06 (io_trps.svl 2023.06)
