@<TRIPOS>MOLECULE
N-Cyclopentyl-4-[3-(4-methoxy-phenyl)-[1,2,4]oxadiazol-5-yl]-butyramide
47 49 1 0 0 
SMALL
USER_CHARGES


@<TRIPOS>ATOM
  1 O       -0.6700    -1.2450     1.0620 O.2   1 <1>  -0.5700 
  2 C       -1.3920    -2.0520     0.5330 C.2   1 <1>   0.5690 
  3 N       -0.9190    -3.2860     0.2540 N.am  1 <1>  -0.7300 
  4 C       -2.8250    -1.6780     0.1790 C.3   1 <1>  -0.0990 
  5 C       -1.5870    -4.4220    -0.4050 C.3   1 <1>   0.2200 
  6 C       -3.3290    -0.3910     0.8640 C.3   1 <1>  -0.1600 
  7 C       -1.8370    -5.5120     0.6290 C.3   1 <1>  -0.1600 
  8 C       -0.6050    -5.0720    -1.3710 C.3   1 <1>  -0.1600 
  9 C       -4.7640    -0.0250     0.4500 C.3   1 <1>   0.0200 
 10 C       -0.5070    -6.2600     0.7730 C.3   1 <1>  -0.1600 
 11 C        0.2780    -5.9900    -0.5170 C.3   1 <1>  -0.1600 
 12 C       -5.7560    -1.1290     0.7710 C.2   1 <1>   0.2980 
 13 O       -6.0790    -1.3440     2.0180 O.3   1 <1>  -0.0190 
 14 N       -6.3060    -1.8950    -0.0770 N.2   1 <1>  -0.5650 
 15 N       -6.9060    -2.3400     1.9610 N.2   1 <1>  -0.4100 
 16 C       -7.0440    -2.6700     0.7250 C.2   1 <1>   0.4620 
 17 C       -7.8770    -3.7510     0.2220 C.ar  1 <1>   0.0540 
 18 C       -7.9780    -4.0270    -1.1430 C.ar  1 <1>  -0.1500 
 19 C       -8.6090    -4.5640     1.0900 C.ar  1 <1>  -0.1500 
 20 C       -8.7650    -5.0610    -1.6150 C.ar  1 <1>  -0.1500 
 21 C       -9.4000    -5.6010     0.6260 C.ar  1 <1>  -0.1500 
 22 C       -9.4810    -5.8570    -0.7380 C.ar  1 <1>   0.0820 
 23 O      -10.2260    -6.8510    -1.2790 O.3   1 <1>  -0.3620 
 24 C      -10.9990    -7.7120    -0.4740 C.3   1 <1>   0.0400 
 25 H        0.0370    -3.4740     0.5580 H     1 <1>   0.3700 
 26 H       -3.4580    -2.4980     0.4640 H     1 <1>   0.0800 
 27 H       -2.8830    -1.5630    -0.8880 H     1 <1>   0.0800 
 28 H       -2.4920    -4.1110    -0.9000 H     1 <1>   0.0800 
 29 H       -2.6750     0.4260     0.6090 H     1 <1>   0.0800 
 30 H       -3.2850    -0.5200     1.9330 H     1 <1>   0.0800 
 31 H       -2.5780    -6.1890     0.2390 H     1 <1>   0.0800 
 32 H       -2.1930    -5.1150     1.5640 H     1 <1>   0.0800 
 33 H       -0.0360    -4.3460    -1.9260 H     1 <1>   0.0800 
 34 H       -1.1610    -5.6760    -2.0670 H     1 <1>   0.0800 
 35 H       -4.7920     0.1690    -0.6080 H     1 <1>   0.0800 
 36 H       -5.0690     0.8720     0.9570 H     1 <1>   0.0800 
 37 H       -0.6720    -7.3130     0.9230 H     1 <1>   0.0800 
 38 H        0.0390    -5.8710     1.6160 H     1 <1>   0.0800 
 39 H        1.2040    -5.4930    -0.2800 H     1 <1>   0.0800 
 40 H        0.5000    -6.9040    -1.0410 H     1 <1>   0.0800 
 41 H       -7.4330    -3.4230    -1.8470 H     1 <1>   0.1500 
 42 H       -8.5580    -4.3810     2.1490 H     1 <1>   0.1500 
 43 H       -8.8310    -5.2580    -2.6700 H     1 <1>   0.1500 
 44 H       -9.9410    -6.1950     1.3370 H     1 <1>   0.1500 
 45 H      -11.5010    -8.4110    -1.1190 H     1 <1>   0.0800 
 46 H      -11.7230    -7.1290     0.0670 H     1 <1>   0.0800 
 47 H      -10.3460    -8.2400     0.1990 H     1 <1>   0.0800 
@<TRIPOS>BOND
  1   1   2  2   
  2   2   3  am  
  3   2   4  1   
  4   3   5  1   
  5   3  25  1   
  6   4   6  1   
  7   4  26  1   
  8   4  27  1   
  9   5   7  1   
 10   5   8  1   
 11   5  28  1   
 12   6   9  1   
 13   6  29  1   
 14   6  30  1   
 15   7  10  1   
 16   7  31  1   
 17   7  32  1   
 18   8  11  1   
 19   8  33  1   
 20   8  34  1   
 21   9  12  1   
 22   9  35  1   
 23   9  36  1   
 24  10  11  1   
 25  10  37  1   
 26  10  38  1   
 27  11  39  1   
 28  11  40  1   
 29  12  13  1   
 30  12  14  2   
 31  13  15  1   
 32  14  16  1   
 33  15  16  2   
 34  16  17  1   
 35  17  18  ar  
 36  17  19  ar  
 37  18  20  ar  
 38  18  41  1   
 39  19  21  ar  
 40  19  42  1   
 41  20  22  ar  
 42  20  43  1   
 43  21  22  ar  
 44  21  44  1   
 45  22  23  1   
 46  23  24  1   
 47  24  45  1   
 48  24  46  1   
 49  24  47  1   
@<TRIPOS>SUBSTRUCTURE
  1 ****  14 GROUP 4 **** **** 0

# MOE 2024.06 (io_trps.svl 2023.06)
