@<TRIPOS>MOLECULE
8-(4-Methoxy-benzyl)-1,3,6,7-tetramethyl-1H,8H-imidazo[2,1-f]purine-2,4-dione
49 52 1 0 0 
SMALL
USER_CHARGES


@<TRIPOS>ATOM
  1 O        3.8090    -0.4590    -1.8890 O.2   1 <1>  -0.5750 
  2 C        4.1400     0.4750    -1.1880 C.2   1 <1>   0.6860 
  3 N        3.1930     1.4070    -0.7730 N.am  1 <1>  -0.4260 
  4 N        5.4650     0.6060    -0.7920 N.am  1 <1>  -0.4420 
  5 C        3.5300     2.4470     0.0870 C.2   1 <1>   0.6990 
  6 C        1.7760     1.2550    -1.2320 C.3   1 <1>   0.0520 
  7 C        5.7890     1.6470     0.0510 C.2   1 <1>   0.4200 
  8 C        6.5040    -0.3780    -1.2250 C.3   1 <1>   0.0520 
  9 O        2.6830     3.2350     0.4740 O.2   1 <1>  -0.5750 
 10 C        4.8910     2.5570     0.5020 C.2   1 <1>   0.2700 
 11 N        7.0120     1.9350     0.5680 N.pl3 1 <1>  -0.7040 
 12 N        5.6090     3.4400     1.3330 N.pl3 1 <1>  -0.6330 
 13 C        6.8670     3.0200     1.3360 C.cat 1 <1>   1.0690 
 14 C        5.5590     4.5520     2.1480 C.2   1 <1>   0.2340 
 15 N        7.6500     3.7930     2.1060 N.pl3 1 <1>  -0.5720 
 16 C        6.8110     4.7680     2.6210 C.2   1 <1>   0.1570 
 17 C        4.2510     5.2880     2.3690 C.3   1 <1>  -0.1100 
 18 C        9.1120     3.6440     2.3590 C.3   1 <1>   0.3050 
 19 C        7.3310     5.8480     3.5550 C.3   1 <1>  -0.1100 
 20 C        9.6360     2.4710     1.5510 C.ar  1 <1>  -0.1510 
 21 C       10.0670     2.6610     0.2450 C.ar  1 <1>  -0.1570 
 22 C        9.5970     1.1890     2.0800 C.ar  1 <1>  -0.1570 
 23 C       10.4080     1.5760    -0.5420 C.ar  1 <1>  -0.1570 
 24 C        9.9330     0.1050     1.2910 C.ar  1 <1>  -0.1570 
 25 C       10.3230     0.2880    -0.0250 C.ar  1 <1>   0.0750 
 26 O       10.5930    -0.8280    -0.7410 O.3   1 <1>  -0.3680 
 27 C       11.2450    -0.7580    -1.9910 C.3   1 <1>   0.0320 
 28 H        1.7490     0.8740    -2.2390 H     1 <1>   0.0720 
 29 H        1.2630     2.2010    -1.2190 H     1 <1>   0.0720 
 30 H        1.2610     0.5670    -0.5860 H     1 <1>   0.0720 
 31 H        6.1930    -0.8910    -2.1190 H     1 <1>   0.0720 
 32 H        6.6610    -1.1060    -0.4480 H     1 <1>   0.0720 
 33 H        7.4340     0.1230    -1.4330 H     1 <1>   0.0720 
 34 H        7.9130     1.4580     0.4460 H     1 <1>   0.4450 
 35 H        3.8670     5.6450     1.4300 H     1 <1>   0.0720 
 36 H        4.3850     6.1270     3.0250 H     1 <1>   0.0720 
 37 H        3.5260     4.6250     2.8050 H     1 <1>   0.0720 
 38 H        9.6230     4.5470     2.0730 H     1 <1>   0.0720 
 39 H        9.2820     3.4750     3.4090 H     1 <1>   0.0720 
 40 H        8.0900     6.4300     3.0640 H     1 <1>   0.0720 
 41 H        7.7510     5.4030     4.4400 H     1 <1>   0.0720 
 42 H        6.5400     6.5100     3.8550 H     1 <1>   0.0720 
 43 H       10.1280     3.6520    -0.1740 H     1 <1>   0.1430 
 44 H        9.2940     1.0210     3.1010 H     1 <1>   0.1430 
 45 H       10.7320     1.7480    -1.5520 H     1 <1>   0.1430 
 46 H        9.8990    -0.8940     1.6900 H     1 <1>   0.1430 
 47 H       10.6020    -0.2620    -2.6960 H     1 <1>   0.0720 
 48 H       11.4430    -1.7610    -2.3210 H     1 <1>   0.0720 
 49 H       12.1710    -0.2240    -1.8720 H     1 <1>   0.0720 
@<TRIPOS>BOND
  1   1   2  2   
  2   2   3  am  
  3   2   4  am  
  4   3   5  am  
  5   3   6  1   
  6   4   7  1   
  7   4   8  1   
  8   5   9  2   
  9   5  10  1   
 10   6  28  1   
 11   6  29  1   
 12   6  30  1   
 13   7  10  2   
 14   7  11  1   
 15   8  31  1   
 16   8  32  1   
 17   8  33  1   
 18  10  12  1   
 19  11  13  ar  
 20  11  34  1   
 21  12  13  ar  
 22  12  14  1   
 23  13  15  ar  
 24  14  16  2   
 25  14  17  1   
 26  15  16  1   
 27  15  18  1   
 28  16  19  1   
 29  17  35  1   
 30  17  36  1   
 31  17  37  1   
 32  18  20  1   
 33  18  38  1   
 34  18  39  1   
 35  19  40  1   
 36  19  41  1   
 37  19  42  1   
 38  20  21  ar  
 39  20  22  ar  
 40  21  23  ar  
 41  21  43  1   
 42  22  24  ar  
 43  22  44  1   
 44  23  25  ar  
 45  23  45  1   
 46  24  25  ar  
 47  24  46  1   
 48  25  26  1   
 49  26  27  1   
 50  27  47  1   
 51  27  48  1   
 52  27  49  1   
@<TRIPOS>SUBSTRUCTURE
  1 ****  11 GROUP 4 **** **** 0

# MOE 2024.06 (io_trps.svl 2023.06)
