@<TRIPOS>MOLECULE
1-(4-Fluoro-benzenesulfonyl)-piperidine-3-carboxylic acid (4-acetylamino-phenyl)
51 53 1 0 0 
SMALL
USER_CHARGES


@<TRIPOS>ATOM
  1 S       -0.3110     0.3880     0.6300 S.o2  1 <1>   1.4470 
  2 O       -0.1470     0.8440     1.9930 O.2   1 <1>  -0.6500 
  3 O       -1.5720     0.6070    -0.0450 O.2   1 <1>  -0.6500 
  4 N        0.8840     1.1650    -0.2910 N.am  1 <1>  -0.8490 
  5 C        0.1340    -1.3680     0.4920 C.ar  1 <1>  -0.0090 
  6 C        2.2080     1.0870     0.3480 C.3   1 <1>   0.1960 
  7 C        0.5180     2.5620    -0.5440 C.3   1 <1>   0.1960 
  8 C        0.6690    -2.0640     1.5750 C.ar  1 <1>  -0.1500 
  9 C       -0.0330    -2.0470    -0.7130 C.ar  1 <1>  -0.1500 
 10 C        3.2890     1.6530    -0.5850 C.3   1 <1>  -0.0190 
 11 C        1.5320     3.2150    -1.4910 C.3   1 <1>  -0.1600 
 12 C        1.0270    -3.3980     1.4660 C.ar  1 <1>  -0.1500 
 13 C        0.3170    -3.3810    -0.8430 C.ar  1 <1>  -0.1500 
 14 C        4.6720     1.5300     0.0400 C.2   1 <1>   0.5690 
 15 C        2.9640     3.1130    -0.9480 C.3   1 <1>  -0.1600 
 16 C        0.8440    -4.0330     0.2540 C.ar  1 <1>   0.1900 
 17 O        4.7680     1.4350     1.2400 O.2   1 <1>  -0.5700 
 18 N        5.7480     1.5270    -0.8040 N.am  1 <1>  -0.5470 
 19 F        1.1780    -5.2890     0.1420 F     1 <1>  -0.1900 
 20 C        7.1250     1.4570    -0.5310 C.ar  1 <1>   0.1170 
 21 C        7.6790     1.8620     0.6800 C.ar  1 <1>  -0.1500 
 22 C        7.9810     0.9810    -1.5180 C.ar  1 <1>  -0.1500 
 23 C        9.0410     1.7820     0.9000 C.ar  1 <1>  -0.1500 
 24 C        9.3450     0.9030    -1.2990 C.ar  1 <1>  -0.1500 
 25 C        9.8900     1.2950    -0.0840 C.ar  1 <1>   0.1170 
 26 N       11.2670     1.2250     0.1570 N.am  1 <1>  -0.5470 
 27 C       12.1270     0.1810     0.0540 C.2   1 <1>   0.5690 
 28 O       13.2970     0.3410     0.2850 O.2   1 <1>  -0.5700 
 29 C       11.6390    -1.1960    -0.3310 C.3   1 <1>  -0.1790 
 30 H        2.4480     0.0610     0.5710 H     1 <1>   0.0800 
 31 H        2.2020     1.6350     1.2780 H     1 <1>   0.0800 
 32 H        0.4760     3.1040     0.3880 H     1 <1>   0.0800 
 33 H       -0.4580     2.6070    -1.0010 H     1 <1>   0.0800 
 34 H        0.8070    -1.5550     2.5160 H     1 <1>   0.1500 
 35 H       -0.4460    -1.5200    -1.5580 H     1 <1>   0.1500 
 36 H        3.2790     1.0570    -1.4800 H     1 <1>   0.0800 
 37 H        1.2700     4.2490    -1.6290 H     1 <1>   0.0800 
 38 H        1.4670     2.7310    -2.4500 H     1 <1>   0.0800 
 39 H        1.4400    -3.9360     2.3010 H     1 <1>   0.1500 
 40 H        0.1860    -3.9070    -1.7720 H     1 <1>   0.1500 
 41 H        3.6590     3.4820    -1.6820 H     1 <1>   0.0800 
 42 H        3.0550     3.7260    -0.0660 H     1 <1>   0.0800 
 43 H        5.5200     1.5530    -1.7960 H     1 <1>   0.3700 
 44 H        7.0460     2.2450     1.4600 H     1 <1>   0.1500 
 45 H        7.5820     0.6670    -2.4650 H     1 <1>   0.1500 
 46 H        9.4470     2.0950     1.8450 H     1 <1>   0.1500 
 47 H        9.9920     0.5420    -2.0780 H     1 <1>   0.1500 
 48 H       11.7110     2.0660     0.5260 H     1 <1>   0.3700 
 49 H       10.6930    -1.4000     0.1340 H     1 <1>   0.0800 
 50 H       12.3500    -1.9330    -0.0050 H     1 <1>   0.0800 
 51 H       11.5390    -1.2590    -1.3970 H     1 <1>   0.0800 
@<TRIPOS>BOND
  1   1   2  2   
  2   1   3  2   
  3   1   4  am  
  4   1   5  1   
  5   4   6  1   
  6   4   7  1   
  7   5   8  ar  
  8   5   9  ar  
  9   6  10  1   
 10   6  30  1   
 11   6  31  1   
 12   7  11  1   
 13   7  32  1   
 14   7  33  1   
 15   8  12  ar  
 16   8  34  1   
 17   9  13  ar  
 18   9  35  1   
 19  10  14  1   
 20  10  15  1   
 21  10  36  1   
 22  11  15  1   
 23  11  37  1   
 24  11  38  1   
 25  12  16  ar  
 26  12  39  1   
 27  13  16  ar  
 28  13  40  1   
 29  14  17  2   
 30  14  18  am  
 31  15  41  1   
 32  15  42  1   
 33  16  19  1   
 34  18  20  1   
 35  18  43  1   
 36  20  21  ar  
 37  20  22  ar  
 38  21  23  ar  
 39  21  44  1   
 40  22  24  ar  
 41  22  45  1   
 42  23  25  ar  
 43  23  46  1   
 44  24  25  ar  
 45  24  47  1   
 46  25  26  1   
 47  26  27  am  
 48  26  48  1   
 49  27  28  2   
 50  27  29  1   
 51  29  49  1   
 52  29  50  1   
 53  29  51  1   
@<TRIPOS>SUBSTRUCTURE
  1 ****  14 GROUP 4 **** **** 0

# MOE 2024.06 (io_trps.svl 2023.06)
