@<TRIPOS>MOLECULE
2-(1,6-Dimethyl-2,4-dioxo-8-o-tolyl-1,4,5,6,7,8-hexahydro-2H-1,3,4b,8,9-pentaaza
51 54 1 0 0 
SMALL
USER_CHARGES


@<TRIPOS>ATOM
  1 O        0.9420     0.4390     1.1370 O.2   1 <1>  -0.5750 
  2 C        1.9000     1.1390     0.8800 C.2   1 <1>   0.6860 
  3 N        1.7490     2.5170     0.8270 N.am  1 <1>  -0.4260 
  4 N        3.1410     0.5620     0.6380 N.am  1 <1>  -0.4420 
  5 C        2.8230     3.3500     0.5620 C.2   1 <1>   0.6990 
  6 C        0.3710     3.0610     0.5950 C.3   1 <1>   0.1940 
  7 C        4.1860     1.3970     0.2890 C.2   1 <1>   0.4200 
  8 C        3.3130    -0.9200     0.6660 C.3   1 <1>   0.0520 
  9 O        2.6990     4.5630     0.6180 O.2   1 <1>  -0.5750 
 10 C        4.0780     2.7430     0.2420 C.2   1 <1>   0.2700 
 11 C       -0.0090     2.9720    -0.8850 C.2   1 <1>   0.5640 
 12 N        5.4600     1.0510    -0.0520 N.pl3 1 <1>  -0.7040 
 13 N        5.3390     3.2210    -0.1420 N.pl3 1 <1>  -0.7670 
 14 O        0.8580     2.8710    -1.7210 O.2   1 <1>  -0.5750 
 15 N       -1.3030     3.0030    -1.2630 N.am  1 <1>  -0.8030 
 16 C        6.1310     2.1710    -0.3080 C.cat 1 <1>   1.0690 
 17 C        5.7380     4.6230    -0.3810 C.3   1 <1>   0.3480 
 18 N        7.4180     2.2710    -0.6830 N.pl3 1 <1>  -0.5800 
 19 C        6.9580     4.6470    -1.3200 C.3   1 <1>  -0.0880 
 20 C        8.2470     1.1530    -0.8260 C.ar  1 <1>   0.3050 
 21 C        8.0230     3.6150    -0.8960 C.3   1 <1>   0.1600 
 22 C        7.5700     6.0540    -1.3880 C.3   1 <1>  -0.2470 
 23 C        8.8190     0.5220     0.2820 C.ar  1 <1>  -0.1510 
 24 C        8.4770     0.6460    -2.0980 C.ar  1 <1>  -0.1570 
 25 C        9.5950    -0.6100     0.0910 C.ar  1 <1>  -0.1570 
 26 C        8.6270     1.0450     1.7030 C.3   1 <1>  -0.1040 
 27 C        9.2540    -0.4820    -2.2780 C.ar  1 <1>  -0.1570 
 28 C        9.8100    -1.1120    -1.1800 C.ar  1 <1>  -0.1570 
 29 H        0.3220     4.0890     0.9060 H     1 <1>   0.0720 
 30 H       -0.3430     2.5090     1.1800 H     1 <1>   0.0720 
 31 H        2.5660    -1.3750     1.2940 H     1 <1>   0.0720 
 32 H        4.2810    -1.1780     1.0570 H     1 <1>   0.0720 
 33 H        3.2100    -1.3140    -0.3300 H     1 <1>   0.0720 
 34 H        5.8630     0.1200    -0.1300 H     1 <1>   0.4450 
 35 H       -1.5310     2.9290    -2.2570 H     1 <1>   0.3640 
 36 H       -2.1000     3.0500    -0.6280 H     1 <1>   0.3640 
 37 H        5.9820     5.0840     0.5620 H     1 <1>   0.0720 
 38 H        4.9220     5.1690    -0.8260 H     1 <1>   0.0720 
 39 H        6.6220     4.3950    -2.3120 H     1 <1>   0.0720 
 40 H        8.7840     3.5520    -1.6570 H     1 <1>   0.0720 
 41 H        8.4950     3.9310     0.0200 H     1 <1>   0.0720 
 42 H        7.9330     6.3660    -0.4230 H     1 <1>   0.0720 
 43 H        6.8360     6.7680    -1.7230 H     1 <1>   0.0720 
 44 H        8.3920     6.0730    -2.0830 H     1 <1>   0.0720 
 45 H        8.0480     1.1340    -2.9550 H     1 <1>   0.1430 
 46 H       10.0480    -1.1130     0.9300 H     1 <1>   0.1430 
 47 H        7.6250     0.8580     2.0410 H     1 <1>   0.0720 
 48 H        8.8220     2.1010     1.7450 H     1 <1>   0.0720 
 49 H        9.3060     0.5600     2.3820 H     1 <1>   0.0720 
 50 H        9.4320    -0.8730    -3.2670 H     1 <1>   0.1430 
 51 H       10.4170    -1.9920    -1.3160 H     1 <1>   0.1430 
@<TRIPOS>BOND
  1   1   2  2   
  2   2   3  am  
  3   2   4  am  
  4   3   5  am  
  5   3   6  1   
  6   4   7  1   
  7   4   8  1   
  8   5   9  2   
  9   5  10  1   
 10   6  11  1   
 11   6  29  1   
 12   6  30  1   
 13   7  10  2   
 14   7  12  1   
 15   8  31  1   
 16   8  32  1   
 17   8  33  1   
 18  10  13  1   
 19  11  14  2   
 20  11  15  am  
 21  12  16  ar  
 22  12  34  1   
 23  13  16  ar  
 24  13  17  1   
 25  15  35  1   
 26  15  36  1   
 27  16  18  ar  
 28  17  19  1   
 29  17  37  1   
 30  17  38  1   
 31  18  20  1   
 32  18  21  1   
 33  19  21  1   
 34  19  22  1   
 35  19  39  1   
 36  20  23  ar  
 37  20  24  ar  
 38  21  40  1   
 39  21  41  1   
 40  22  42  1   
 41  22  43  1   
 42  22  44  1   
 43  23  25  ar  
 44  23  26  1   
 45  24  27  ar  
 46  24  45  1   
 47  25  28  ar  
 48  25  46  1   
 49  26  47  1   
 50  26  48  1   
 51  26  49  1   
 52  27  28  ar  
 53  27  50  1   
 54  28  51  1   
@<TRIPOS>SUBSTRUCTURE
  1 ****  12 GROUP 4 **** **** 0

# MOE 2024.06 (io_trps.svl 2023.06)
