@<TRIPOS>MOLECULE
Pentanoic acid [3-(2-methoxy-phenyl)-[1,2,4]oxadiazol-5-ylmethyl]-amide
40 41 1 0 0 
SMALL
USER_CHARGES


@<TRIPOS>ATOM
  1 O       -1.4470    -0.5330     2.0120 O.2   1 <1>  -0.5700 
  2 C       -2.5610    -0.3250     1.6070 C.2   1 <1>   0.5690 
  3 N       -3.5830    -1.0590     2.1010 N.am  1 <1>  -0.7300 
  4 C       -2.8160     0.7500     0.5570 C.3   1 <1>  -0.0990 
  5 C       -5.0280    -1.0050     1.7560 C.3   1 <1>   0.3200 
  6 C       -1.5370     1.3570    -0.0480 C.3   1 <1>  -0.1600 
  7 C       -5.4160    -2.0940     0.7690 C.2   1 <1>   0.2980 
  8 C       -1.8660     2.4130    -1.1110 C.3   1 <1>  -0.1600 
  9 O       -4.9500    -2.0260    -0.4510 O.3   1 <1>  -0.0190 
 10 N       -6.1700    -3.0850     1.0110 N.2   1 <1>  -0.5650 
 11 C       -0.5870     3.0070    -1.7070 C.3   1 <1>  -0.2400 
 12 N       -5.4530    -3.0640    -1.0400 N.2   1 <1>  -0.4100 
 13 C       -6.1820    -3.6870    -0.1830 C.2   1 <1>   0.4620 
 14 C       -6.9020    -4.9140    -0.4390 C.ar  1 <1>   0.0540 
 15 C       -8.2920    -5.0130    -0.2940 C.ar  1 <1>   0.0830 
 16 C       -6.2010    -6.0470    -0.8510 C.ar  1 <1>  -0.1500 
 17 O       -8.9710    -3.8940     0.0740 O.3   1 <1>  -0.3630 
 18 C       -8.9360    -6.2240    -0.5380 C.ar  1 <1>  -0.1500 
 19 C       -6.8450    -7.2450    -1.0960 C.ar  1 <1>  -0.1500 
 20 C      -10.3670    -3.8900     0.2750 C.3   1 <1>   0.0400 
 21 C       -8.2150    -7.3350    -0.9370 C.ar  1 <1>  -0.1500 
 22 H       -3.3090    -1.8120     2.7370 H     1 <1>   0.3700 
 23 H       -3.3920     1.5330     1.0140 H     1 <1>   0.0800 
 24 H       -3.3970     0.3180    -0.2360 H     1 <1>   0.0800 
 25 H       -5.2770    -0.0470     1.3360 H     1 <1>   0.0800 
 26 H       -5.6040    -1.1310     2.6560 H     1 <1>   0.0800 
 27 H       -0.9490     0.5700    -0.4900 H     1 <1>   0.0800 
 28 H       -0.9510     1.8050     0.7370 H     1 <1>   0.0800 
 29 H       -2.4500     3.2030    -0.6700 H     1 <1>   0.0800 
 30 H       -2.4480     1.9660    -1.9000 H     1 <1>   0.0800 
 31 H        0.0020     3.4780    -0.9390 H     1 <1>   0.0800 
 32 H       -0.8340     3.7440    -2.4500 H     1 <1>   0.0800 
 33 H        0.0030     2.2370    -2.1720 H     1 <1>   0.0800 
 34 H       -5.1350    -5.9810    -0.9780 H     1 <1>   0.1500 
 35 H       -9.9980    -6.3240    -0.4280 H     1 <1>   0.1500 
 36 H       -6.2810    -8.1070    -1.4110 H     1 <1>   0.1500 
 37 H      -10.6580    -2.8990     0.5730 H     1 <1>   0.0800 
 38 H      -10.6100    -4.5910     1.0540 H     1 <1>   0.0800 
 39 H      -10.8540    -4.1520    -0.6470 H     1 <1>   0.0800 
 40 H       -8.7190    -8.2670    -1.1250 H     1 <1>   0.1500 
@<TRIPOS>BOND
  1   1   2  2   
  2   2   3  am  
  3   2   4  1   
  4   3   5  1   
  5   3  22  1   
  6   4   6  1   
  7   4  23  1   
  8   4  24  1   
  9   5   7  1   
 10   5  25  1   
 11   5  26  1   
 12   6   8  1   
 13   6  27  1   
 14   6  28  1   
 15   7   9  1   
 16   7  10  2   
 17   8  11  1   
 18   8  29  1   
 19   8  30  1   
 20   9  12  1   
 21  10  13  1   
 22  11  31  1   
 23  11  32  1   
 24  11  33  1   
 25  12  13  2   
 26  13  14  1   
 27  14  15  ar  
 28  14  16  ar  
 29  15  17  1   
 30  15  18  ar  
 31  16  19  ar  
 32  16  34  1   
 33  17  20  1   
 34  18  21  ar  
 35  18  35  1   
 36  19  21  ar  
 37  19  36  1   
 38  20  37  1   
 39  20  38  1   
 40  20  39  1   
 41  21  40  1   
@<TRIPOS>SUBSTRUCTURE
  1 ****   7 GROUP 4 **** **** 0

# MOE 2024.06 (io_trps.svl 2023.06)
