@<TRIPOS>MOLECULE
1,3-Dimethyl-5,5-bis-(2-oxo-2-piperidin-1-yl-ethyl)-pyrimidine-2,4,6-trione
59 61 1 0 0 
SMALL
USER_CHARGES


@<TRIPOS>ATOM
  1 O        1.0380     2.3550     0.6670 O.2   1 <1>  -0.5700 
  2 C        1.8100     1.4840     0.3240 C.2   1 <1>   0.6900 
  3 N        1.7720     0.2360     0.9090 N.am  1 <1>  -0.4200 
  4 N        2.7270     1.7190    -0.6760 N.am  1 <1>  -0.4200 
  5 C        2.7760    -0.6850     0.6890 C.2   1 <1>   0.5690 
  6 C        0.5760    -0.1420     1.7200 C.3   1 <1>   0.0600 
  7 C        3.6470     0.7510    -1.0020 C.2   1 <1>   0.5690 
  8 C        2.5280     2.8850    -1.5840 C.3   1 <1>   0.0600 
  9 O        2.6330    -1.8470     0.9880 O.2   1 <1>  -0.5700 
 10 C        4.1150    -0.1930     0.1180 C.3   1 <1>   0.1220 
 11 O        3.9920     0.6140    -2.1480 O.2   1 <1>  -0.5700 
 12 C        4.7990     0.5550     1.3110 C.3   1 <1>  -0.0990 
 13 C        4.9440    -1.4200    -0.3880 C.3   1 <1>  -0.0990 
 14 C        6.3080     0.7080     1.3090 C.2   1 <1>   0.5690 
 15 C        6.3060    -1.2010    -1.0460 C.2   1 <1>   0.5690 
 16 O        6.9200    -0.1610     1.8870 O.2   1 <1>  -0.5700 
 17 N        6.9360     1.7840     0.7340 N.am  1 <1>  -0.6600 
 18 O        6.5540    -0.1300    -1.5440 O.2   1 <1>  -0.5700 
 19 N        7.2340    -2.2120    -1.0580 N.am  1 <1>  -0.6600 
 20 C        8.4250     1.8300     0.6790 C.3   1 <1>   0.1400 
 21 C        6.2860     2.7740    -0.1700 C.3   1 <1>   0.1400 
 22 C        7.0170    -3.6020    -0.5710 C.3   1 <1>   0.1400 
 23 C        8.6600    -1.9270    -1.3740 C.3   1 <1>   0.1400 
 24 C        8.9230     3.2360     1.0300 C.3   1 <1>  -0.1600 
 25 C        6.7590     4.1910     0.1720 C.3   1 <1>  -0.1600 
 26 C        7.8110    -3.8030     0.7240 C.3   1 <1>  -0.1600 
 27 C        9.4950    -2.1070    -0.1010 C.3   1 <1>  -0.1600 
 28 C        8.2880     4.3010     0.1270 C.3   1 <1>  -0.1600 
 29 C        9.3040    -3.5020     0.5150 C.3   1 <1>  -0.1600 
 30 H        0.2940     0.6710     2.3660 H     1 <1>   0.0800 
 31 H        0.7830    -1.0040     2.3310 H     1 <1>   0.0800 
 32 H       -0.2450    -0.3680     1.0620 H     1 <1>   0.0800 
 33 H        1.6970     2.6910    -2.2400 H     1 <1>   0.0800 
 34 H        3.4100     3.0540    -2.1780 H     1 <1>   0.0800 
 35 H        2.3230     3.7710    -1.0080 H     1 <1>   0.0800 
 36 H        4.5850    -0.0040     2.2050 H     1 <1>   0.0800 
 37 H        4.3590     1.5190     1.4760 H     1 <1>   0.0800 
 38 H        4.3480    -1.9720    -1.0910 H     1 <1>   0.0800 
 39 H        5.1060    -2.0480     0.4670 H     1 <1>   0.0800 
 40 H        8.7400     1.5630    -0.3150 H     1 <1>   0.0800 
 41 H        8.8540     1.1210     1.3650 H     1 <1>   0.0800 
 42 H        5.2190     2.7390    -0.0860 H     1 <1>   0.0800 
 43 H        6.5480     2.5340    -1.1880 H     1 <1>   0.0800 
 44 H        7.3690    -4.2900    -1.3210 H     1 <1>   0.0800 
 45 H        5.9750    -3.8080    -0.4090 H     1 <1>   0.0800 
 46 H        8.7790    -0.9240    -1.7450 H     1 <1>   0.0800 
 47 H        8.9950    -2.6070    -2.1380 H     1 <1>   0.0800 
 48 H        9.9930     3.2670     0.9290 H     1 <1>   0.0800 
 49 H        8.6840     3.4390     2.0590 H     1 <1>   0.0800 
 50 H        6.4050     4.4480     1.1550 H     1 <1>   0.0800 
 51 H        6.3280     4.8860    -0.5260 H     1 <1>   0.0800 
 52 H        7.6900    -4.8140     1.0670 H     1 <1>   0.0800 
 53 H        7.4140    -3.1470     1.4800 H     1 <1>   0.0800 
 54 H        9.1960    -1.3560     0.6110 H     1 <1>   0.0800 
 55 H       10.5340    -1.9490    -0.3290 H     1 <1>   0.0800 
 56 H        8.6260     4.1560    -0.8860 H     1 <1>   0.0800 
 57 H        8.5950     5.2820     0.4460 H     1 <1>   0.0800 
 58 H        9.7280    -4.2420    -0.1420 H     1 <1>   0.0800 
 59 H        9.8200    -3.5560     1.4580 H     1 <1>   0.0800 
@<TRIPOS>BOND
  1   1   2  2   
  2   2   3  am  
  3   2   4  am  
  4   3   5  am  
  5   3   6  1   
  6   4   7  am  
  7   4   8  1   
  8   5   9  2   
  9   5  10  1   
 10   6  30  1   
 11   6  31  1   
 12   6  32  1   
 13   7  10  1   
 14   7  11  2   
 15   8  33  1   
 16   8  34  1   
 17   8  35  1   
 18  10  12  1   
 19  10  13  1   
 20  12  14  1   
 21  12  36  1   
 22  12  37  1   
 23  13  15  1   
 24  13  38  1   
 25  13  39  1   
 26  14  16  2   
 27  14  17  am  
 28  15  18  2   
 29  15  19  am  
 30  17  20  1   
 31  17  21  1   
 32  19  22  1   
 33  19  23  1   
 34  20  24  1   
 35  20  40  1   
 36  20  41  1   
 37  21  25  1   
 38  21  42  1   
 39  21  43  1   
 40  22  26  1   
 41  22  44  1   
 42  22  45  1   
 43  23  27  1   
 44  23  46  1   
 45  23  47  1   
 46  24  28  1   
 47  24  48  1   
 48  24  49  1   
 49  25  28  1   
 50  25  50  1   
 51  25  51  1   
 52  26  29  1   
 53  26  52  1   
 54  26  53  1   
 55  27  29  1   
 56  27  54  1   
 57  27  55  1   
 58  28  56  1   
 59  28  57  1   
 60  29  58  1   
 61  29  59  1   
@<TRIPOS>SUBSTRUCTURE
  1 ****  10 GROUP 4 **** **** 0

# MOE 2024.06 (io_trps.svl 2023.06)
