@<TRIPOS>MOLECULE
Cyclohexanecarboxylic acid [1-(3-m-tolyl-[1,2,4]oxadiazol-5-yl)-ethyl]-amide
46 48 1 0 0 
SMALL
USER_CHARGES


@<TRIPOS>ATOM
  1 O       -1.6980    -0.6940     1.9460 O.2   1 <1>  -0.5700 
  2 C       -2.4880    -0.3560     1.1030 C.2   1 <1>   0.5690 
  3 N       -2.9910    -1.3360     0.3130 N.am  1 <1>  -0.7300 
  4 C       -2.7890     1.1500     1.0020 C.3   1 <1>  -0.0190 
  5 C       -4.1640    -1.4250    -0.5840 C.3   1 <1>   0.4000 
  6 C       -4.2470     1.5710     0.7280 C.3   1 <1>  -0.1600 
  7 C       -1.8350     1.8460     0.0130 C.3   1 <1>  -0.1600 
  8 C       -4.7560    -2.8350    -0.5550 C.2   1 <1>   0.2980 
  9 C       -3.7340    -1.0400    -2.0000 C.3   1 <1>  -0.2400 
 10 C       -4.4020     3.0950     0.8140 C.3   1 <1>  -0.1600 
 11 C       -2.0000     3.3730     0.0510 C.3   1 <1>  -0.1600 
 12 O       -3.9800    -3.8480    -0.8400 O.3   1 <1>  -0.0190 
 13 N       -5.9590    -3.1350    -0.2770 N.2   1 <1>  -0.5650 
 14 C       -3.4590     3.7930    -0.1750 C.3   1 <1>  -0.1600 
 15 N       -4.7540    -4.8800    -0.7320 N.2   1 <1>  -0.4100 
 16 C       -5.9260    -4.4670    -0.3980 C.2   1 <1>   0.4620 
 17 C       -7.0900    -5.3090    -0.1720 C.ar  1 <1>   0.0540 
 18 C       -8.3240    -4.7740     0.2050 C.ar  1 <1>  -0.1500 
 19 C       -7.0190    -6.6950    -0.3250 C.ar  1 <1>  -0.1500 
 20 C       -9.4340    -5.5720     0.4200 C.ar  1 <1>  -0.1440 
 21 C       -8.1210    -7.5030    -0.1150 C.ar  1 <1>  -0.1500 
 22 C       -9.3290    -6.9430     0.2570 C.ar  1 <1>  -0.1500 
 23 C      -10.7610    -4.9580     0.8280 C.3   1 <1>  -0.0970 
 24 H       -2.5900    -2.2520     0.5230 H     1 <1>   0.3700 
 25 H       -2.5490     1.5400     1.9770 H     1 <1>   0.0800 
 26 H       -4.9360    -0.7640    -0.2410 H     1 <1>   0.0800 
 27 H       -4.9040     1.0990     1.4380 H     1 <1>   0.0800 
 28 H       -4.5370     1.2810    -0.2630 H     1 <1>   0.0800 
 29 H       -2.0200     1.4920    -0.9850 H     1 <1>   0.0800 
 30 H       -0.8180     1.5960     0.2650 H     1 <1>   0.0800 
 31 H       -2.9440    -1.6850    -2.3420 H     1 <1>   0.0800 
 32 H       -3.3980    -0.0210    -2.0290 H     1 <1>   0.0800 
 33 H       -4.5690    -1.1380    -2.6690 H     1 <1>   0.0800 
 34 H       -4.1810     3.4260     1.8150 H     1 <1>   0.0800 
 35 H       -5.4190     3.3690     0.5950 H     1 <1>   0.0800 
 36 H       -1.3740     3.8230    -0.7010 H     1 <1>   0.0800 
 37 H       -1.6730     3.7400     1.0090 H     1 <1>   0.0800 
 38 H       -3.5470     4.8600    -0.0650 H     1 <1>   0.0800 
 39 H       -3.7480     3.5420    -1.1820 H     1 <1>   0.0800 
 40 H       -8.4120    -3.7090     0.3300 H     1 <1>   0.1500 
 41 H       -6.0870    -7.1480    -0.6140 H     1 <1>   0.1500 
 42 H       -8.0400    -8.5680    -0.2410 H     1 <1>   0.1500 
 43 H      -10.1840    -7.5760     0.4190 H     1 <1>   0.1500 
 44 H      -10.6130    -3.9870     1.2650 H     1 <1>   0.0800 
 45 H      -11.2550    -5.5820     1.5500 H     1 <1>   0.0800 
 46 H      -11.3950    -4.8560    -0.0350 H     1 <1>   0.0800 
@<TRIPOS>BOND
  1   1   2  2   
  2   2   3  am  
  3   2   4  1   
  4   3   5  1   
  5   3  24  1   
  6   4   6  1   
  7   4   7  1   
  8   4  25  1   
  9   5   8  1   
 10   5   9  1   
 11   5  26  1   
 12   6  10  1   
 13   6  27  1   
 14   6  28  1   
 15   7  11  1   
 16   7  29  1   
 17   7  30  1   
 18   8  12  1   
 19   8  13  2   
 20   9  31  1   
 21   9  32  1   
 22   9  33  1   
 23  10  14  1   
 24  10  34  1   
 25  10  35  1   
 26  11  14  1   
 27  11  36  1   
 28  11  37  1   
 29  12  15  1   
 30  13  16  1   
 31  14  38  1   
 32  14  39  1   
 33  15  16  2   
 34  16  17  1   
 35  17  18  ar  
 36  17  19  ar  
 37  18  20  ar  
 38  18  40  1   
 39  19  21  ar  
 40  19  41  1   
 41  20  22  ar  
 42  20  23  1   
 43  21  22  ar  
 44  21  42  1   
 45  22  43  1   
 46  23  44  1   
 47  23  45  1   
 48  23  46  1   
@<TRIPOS>SUBSTRUCTURE
  1 ****   8 GROUP 4 **** **** 0

# MOE 2024.06 (io_trps.svl 2023.06)
