@<TRIPOS>MOLECULE
N-Cyclohexyl-2-(5-pyridin-3-yl-[1,3,4]thiadiazol-2-ylsulfanyl)-acetamide
40 42 1 0 0 
SMALL
USER_CHARGES


@<TRIPOS>ATOM
  1 S       -0.1050    -0.6150    -0.0990 S.3   1 <1>  -0.0800 
  2 C        0.9830    -0.1730     1.1570 C.2   1 <1>   0.4340 
  3 C       -1.2750     0.4320     0.6580 C.2   1 <1>   0.3250 
  4 S        2.6260    -0.8780     1.1520 S.3   1 <1>  -0.2860 
  5 N        0.5010     0.6440     2.0010 N.2   1 <1>  -0.3380 
  6 N       -0.7900     0.9890     1.7150 N.2   1 <1>  -0.3380 
  7 C       -2.5930     0.5830     0.0880 C.ar  1 <1>   0.0530 
  8 C        2.6910    -1.9860    -0.3430 C.3   1 <1>   0.1310 
  9 C       -3.0070    -0.0820    -1.0720 C.ar  1 <1>   0.1600 
 10 C       -3.5290     1.4190     0.6860 C.ar  1 <1>  -0.1500 
 11 C        4.0400    -2.6710    -0.4940 C.2   1 <1>   0.5690 
 12 N       -4.1950     0.0140    -1.6430 N.ar  1 <1>  -0.6200 
 13 C       -4.7740     1.5340     0.1080 C.ar  1 <1>  -0.1500 
 14 O        4.1780    -3.4130    -1.4350 O.2   1 <1>  -0.5700 
 15 N        5.0270    -2.4330     0.4140 N.am  1 <1>  -0.7300 
 16 C       -5.0550     0.8190    -1.0420 C.ar  1 <1>   0.1600 
 17 C        6.3980    -2.9870     0.4560 C.3   1 <1>   0.2200 
 18 C        7.1970    -2.5690    -0.7850 C.3   1 <1>  -0.1600 
 19 C        6.3680    -4.5110     0.6250 C.3   1 <1>  -0.1600 
 20 C        8.6210    -3.1420    -0.7380 C.3   1 <1>  -0.1600 
 21 C        7.7930    -5.0850     0.6730 C.3   1 <1>  -0.1600 
 22 C        8.5980    -4.6680    -0.5660 C.3   1 <1>  -0.1600 
 23 H        2.4970    -1.3760    -1.2060 H     1 <1>   0.0800 
 24 H        1.9210    -2.7260    -0.2310 H     1 <1>   0.0800 
 25 H       -2.3160    -0.7380    -1.5680 H     1 <1>   0.1500 
 26 H       -3.2870     1.9660     1.5820 H     1 <1>   0.1500 
 27 H       -5.5240     2.1710     0.5420 H     1 <1>   0.1500 
 28 H        4.8160    -1.7870     1.1790 H     1 <1>   0.3700 
 29 H       -6.0310     0.9130    -1.4890 H     1 <1>   0.1500 
 30 H        6.8910    -2.5700     1.3180 H     1 <1>   0.0800 
 31 H        7.2430    -1.4970    -0.8410 H     1 <1>   0.0800 
 32 H        6.7080    -2.9360    -1.6710 H     1 <1>   0.0800 
 33 H        5.8460    -4.9570    -0.2020 H     1 <1>   0.0800 
 34 H        5.8490    -4.7630     1.5320 H     1 <1>   0.0800 
 35 H        9.1600    -2.6990     0.0820 H     1 <1>   0.0800 
 36 H        9.1390    -2.8910    -1.6480 H     1 <1>   0.0800 
 37 H        7.7450    -6.1590     0.7260 H     1 <1>   0.0800 
 38 H        8.2930    -4.7320     1.5590 H     1 <1>   0.0800 
 39 H        9.6060    -5.0370    -0.4830 H     1 <1>   0.0800 
 40 H        8.1560    -5.1150    -1.4410 H     1 <1>   0.0800 
@<TRIPOS>BOND
  1   1   2  1   
  2   1   3  1   
  3   2   4  1   
  4   2   5  2   
  5   3   6  2   
  6   3   7  1   
  7   4   8  1   
  8   5   6  1   
  9   7   9  ar  
 10   7  10  ar  
 11   8  11  1   
 12   8  23  1   
 13   8  24  1   
 14   9  12  ar  
 15   9  25  1   
 16  10  13  ar  
 17  10  26  1   
 18  11  14  2   
 19  11  15  am  
 20  12  16  ar  
 21  13  16  ar  
 22  13  27  1   
 23  15  17  1   
 24  15  28  1   
 25  16  29  1   
 26  17  18  1   
 27  17  19  1   
 28  17  30  1   
 29  18  20  1   
 30  18  31  1   
 31  18  32  1   
 32  19  21  1   
 33  19  33  1   
 34  19  34  1   
 35  20  22  1   
 36  20  35  1   
 37  20  36  1   
 38  21  22  1   
 39  21  37  1   
 40  21  38  1   
 41  22  39  1   
 42  22  40  1   
@<TRIPOS>SUBSTRUCTURE
  1 ****   8 GROUP 4 **** **** 0

# MOE 2024.06 (io_trps.svl 2023.06)
