@<TRIPOS>MOLECULE
N-(4-Fluoro-phenyl)-N-(1-methyl-2-oxo-2-pyrrolidin-1-yl-ethyl)-methanesulfonamid
40 41 1 0 0 
SMALL
USER_CHARGES


@<TRIPOS>ATOM
  1 S        0.5910    -0.1150     0.3220 S.o2  1 <1>   1.3330 
  2 O        1.5060    -0.6750    -0.6440 O.2   1 <1>  -0.6500 
  3 O        1.0150     0.0980     1.6830 O.2   1 <1>  -0.6500 
  4 N        0.0480     1.3970    -0.3130 N.am  1 <1>  -0.6930 
  5 C       -0.8960    -1.0920     0.3020 C.3   1 <1>  -0.1350 
  6 C       -0.9790     2.0810     0.3330 C.ar  1 <1>   0.1990 
  7 C        1.0940     2.1900    -1.0410 C.3   1 <1>   0.3370 
  8 C       -0.8000     2.6380     1.5980 C.ar  1 <1>  -0.1500 
  9 C       -2.2200     2.1980    -0.2890 C.ar  1 <1>  -0.1500 
 10 C        1.9730     3.0780    -0.1200 C.2   1 <1>   0.5690 
 11 C        0.4210     2.9940    -2.1650 C.3   1 <1>  -0.2400 
 12 C       -1.8360     3.2980     2.2350 C.ar  1 <1>  -0.1500 
 13 C       -3.2680     2.8540     0.3350 C.ar  1 <1>  -0.1500 
 14 O        1.5700     4.1840     0.1750 O.2   1 <1>  -0.5700 
 15 N        3.1950     2.6500     0.3400 N.am  1 <1>  -0.6600 
 16 C       -3.0540     3.3930     1.5900 C.ar  1 <1>   0.1900 
 17 C        3.8500     1.3430     0.0970 C.3   1 <1>   0.1400 
 18 C        4.0340     3.4980     1.2170 C.3   1 <1>   0.1400 
 19 F       -4.0400     4.0120     2.1860 F     1 <1>  -0.1900 
 20 C        5.2910     1.5500     0.5450 C.3   1 <1>  -0.1600 
 21 C        5.1970     2.6070     1.6400 C.3   1 <1>  -0.1600 
 22 H       -0.6870    -2.0850     0.6480 H     1 <1>   0.0800 
 23 H       -1.2880    -1.1490    -0.6940 H     1 <1>   0.0800 
 24 H       -1.6370    -0.6540     0.9430 H     1 <1>   0.0800 
 25 H        1.7520     1.5060    -1.5400 H     1 <1>   0.0800 
 26 H        0.1590     2.5570     2.0810 H     1 <1>   0.1500 
 27 H       -2.3570     1.7730    -1.2660 H     1 <1>   0.1500 
 28 H       -0.2290     3.7470    -1.7560 H     1 <1>   0.0800 
 29 H       -0.1390     2.3400    -2.8070 H     1 <1>   0.0800 
 30 H        1.1740     3.4890    -2.7500 H     1 <1>   0.0800 
 31 H       -1.7030     3.7330     3.2100 H     1 <1>   0.1500 
 32 H       -4.2290     2.9520    -0.1360 H     1 <1>   0.1500 
 33 H        3.7990     1.0510    -0.9370 H     1 <1>   0.0800 
 34 H        3.3880     0.5940     0.7160 H     1 <1>   0.0800 
 35 H        3.4680     3.8440     2.0660 H     1 <1>   0.0800 
 36 H        4.3870     4.3430     0.6520 H     1 <1>   0.0800 
 37 H        5.8660     1.9270    -0.2830 H     1 <1>   0.0800 
 38 H        5.7350     0.6340     0.8940 H     1 <1>   0.0800 
 39 H        4.9520     2.1400     2.5780 H     1 <1>   0.0800 
 40 H        6.1080     3.1660     1.7530 H     1 <1>   0.0800 
@<TRIPOS>BOND
  1   1   2  2   
  2   1   3  2   
  3   1   4  am  
  4   1   5  1   
  5   4   6  1   
  6   4   7  1   
  7   5  22  1   
  8   5  23  1   
  9   5  24  1   
 10   6   8  ar  
 11   6   9  ar  
 12   7  10  1   
 13   7  11  1   
 14   7  25  1   
 15   8  12  ar  
 16   8  26  1   
 17   9  13  ar  
 18   9  27  1   
 19  10  14  2   
 20  10  15  am  
 21  11  28  1   
 22  11  29  1   
 23  11  30  1   
 24  12  16  ar  
 25  12  31  1   
 26  13  16  ar  
 27  13  32  1   
 28  15  17  1   
 29  15  18  1   
 30  16  19  1   
 31  17  20  1   
 32  17  33  1   
 33  17  34  1   
 34  18  21  1   
 35  18  35  1   
 36  18  36  1   
 37  20  21  1   
 38  20  37  1   
 39  20  38  1   
 40  21  39  1   
 41  21  40  1   
@<TRIPOS>SUBSTRUCTURE
  1 ****   4 GROUP 4 **** **** 0

# MOE 2024.06 (io_trps.svl 2023.06)
