@<TRIPOS>MOLECULE
N-(3-o-Tolyl-[1,2,4]oxadiazol-5-ylmethyl)-butyramide
36 37 1 0 0 
SMALL
USER_CHARGES


@<TRIPOS>ATOM
  1 O       -1.0300    -0.8220     1.7740 O.2   1 <1>  -0.5700 
  2 C       -2.0640    -0.5730     1.2110 C.2   1 <1>   0.5690 
  3 N       -3.2190    -1.0470     1.7280 N.am  1 <1>  -0.7300 
  4 C       -2.0710     0.2650    -0.0630 C.3   1 <1>  -0.0990 
  5 C       -4.6060    -0.8970     1.2160 C.3   1 <1>   0.3200 
  6 C       -0.6710     0.5880    -0.6150 C.3   1 <1>  -0.1600 
  7 C       -5.0630    -2.1330     0.4560 C.2   1 <1>   0.2980 
  8 C       -0.7520     1.4140    -1.9020 C.3   1 <1>  -0.2400 
  9 O       -4.5010    -2.4000    -0.6940 O.3   1 <1>  -0.0190 
 10 N       -5.9610    -2.9500     0.8270 N.2   1 <1>  -0.5650 
 11 N       -5.0890    -3.4850    -1.0870 N.2   1 <1>  -0.4100 
 12 C       -5.9510    -3.8160    -0.1930 C.2   1 <1>   0.4620 
 13 C       -6.7950    -4.9970    -0.2460 C.ar  1 <1>   0.0540 
 14 C       -8.1760    -4.9850     0.0040 C.ar  1 <1>  -0.1440 
 15 C       -6.2070    -6.2210    -0.5700 C.ar  1 <1>  -0.1500 
 16 C       -8.9070    -6.1610    -0.0550 C.ar  1 <1>  -0.1500 
 17 C       -8.9150    -3.6950     0.3370 C.3   1 <1>  -0.0970 
 18 C       -6.9410    -7.3890    -0.6320 C.ar  1 <1>  -0.1500 
 19 C       -8.2970    -7.3600    -0.3710 C.ar  1 <1>  -0.1500 
 20 H       -3.1090    -1.6650     2.5360 H     1 <1>   0.3700 
 21 H       -2.5850     1.1850     0.1440 H     1 <1>   0.0800 
 22 H       -2.6200    -0.2700    -0.8170 H     1 <1>   0.0800 
 23 H       -4.6760    -0.0420     0.5690 H     1 <1>   0.0800 
 24 H       -5.2670    -0.7370     2.0490 H     1 <1>   0.0800 
 25 H       -0.1440    -0.3310    -0.8120 H     1 <1>   0.0800 
 26 H       -0.1110     1.1330     0.1260 H     1 <1>   0.0800 
 27 H       -1.2850     0.8740    -2.6650 H     1 <1>   0.0800 
 28 H        0.2390     1.6250    -2.2640 H     1 <1>   0.0800 
 29 H       -1.2540     2.3480    -1.7210 H     1 <1>   0.0800 
 30 H       -5.1510    -6.2530    -0.7750 H     1 <1>   0.1500 
 31 H       -9.9650    -6.1520     0.1430 H     1 <1>   0.1500 
 32 H       -8.6310    -2.9150    -0.3460 H     1 <1>   0.0800 
 33 H       -8.6770    -3.3860     1.3390 H     1 <1>   0.0800 
 34 H       -9.9790    -3.8290     0.2660 H     1 <1>   0.0800 
 35 H       -6.4600    -8.3190    -0.8820 H     1 <1>   0.1500 
 36 H       -8.8760    -8.2670    -0.4140 H     1 <1>   0.1500 
@<TRIPOS>BOND
  1   1   2  2   
  2   2   3  am  
  3   2   4  1   
  4   3   5  1   
  5   3  20  1   
  6   4   6  1   
  7   4  21  1   
  8   4  22  1   
  9   5   7  1   
 10   5  23  1   
 11   5  24  1   
 12   6   8  1   
 13   6  25  1   
 14   6  26  1   
 15   7   9  1   
 16   7  10  2   
 17   8  27  1   
 18   8  28  1   
 19   8  29  1   
 20   9  11  1   
 21  10  12  1   
 22  11  12  2   
 23  12  13  1   
 24  13  14  ar  
 25  13  15  ar  
 26  14  16  ar  
 27  14  17  1   
 28  15  18  ar  
 29  15  30  1   
 30  16  19  ar  
 31  16  31  1   
 32  17  32  1   
 33  17  33  1   
 34  17  34  1   
 35  18  19  ar  
 36  18  35  1   
 37  19  36  1   
@<TRIPOS>SUBSTRUCTURE
  1 ****   7 GROUP 4 **** **** 0

# MOE 2024.06 (io_trps.svl 2023.06)
