@<TRIPOS>MOLECULE
7-(3,4-Dichloro-benzyl)-3-methyl-8-morpholin-4-ylmethyl-3,7-dihydro-purine-2,6-d
48 51 1 0 0 
SMALL
USER_CHARGES


@<TRIPOS>ATOM
  1 CL      -1.1370    -2.0750     3.0720 Cl    1 <1>  -0.1770 
  2 C       -1.1600    -2.5360     1.3870 C.ar  1 <1>   0.1770 
  3 C       -0.0310    -2.4070     0.5960 C.ar  1 <1>   0.1770 
  4 C       -2.3310    -3.0460     0.8570 C.ar  1 <1>  -0.1500 
  5 CL       1.4590    -1.7750     1.2550 Cl    1 <1>  -0.1770 
  6 C       -0.0670    -2.7860    -0.7330 C.ar  1 <1>  -0.1500 
  7 C       -2.3760    -3.4410    -0.4750 C.ar  1 <1>  -0.1440 
  8 C       -1.2390    -3.3000    -1.2670 C.ar  1 <1>  -0.1500 
  9 C       -3.6600    -4.0200    -1.0540 C.3   1 <1>   0.4980 
 10 N       -4.0240    -5.2860    -0.3470 N.pl3 1 <1>  -0.7640 
 11 C       -5.3470    -5.6430    -0.0560 C.2   1 <1>   0.2770 
 12 C       -3.2510    -6.2650     0.1250 C.cat 1 <1>   0.6560 
 13 C       -6.6400    -5.0660    -0.2990 C.2   1 <1>   0.7030 
 14 C       -5.2990    -6.8300     0.6010 C.2   1 <1>   0.4260 
 15 N       -4.0010    -7.1960     0.7020 N.pl3 1 <1>  -0.7000 
 16 C       -1.7190    -6.4160     0.0690 C.3   1 <1>   0.2540 
 17 O       -6.8010    -4.0160    -0.8880 O.2   1 <1>  -0.5700 
 18 N       -7.7310    -5.7490     0.1550 N.am  1 <1>  -0.4900 
 19 N       -6.4190    -7.5090     1.0590 N.am  1 <1>  -0.4360 
 20 N       -1.2890    -7.8240     0.2860 N.3   1 <1>  -0.8100 
 21 C       -7.6600    -6.9420     0.8140 C.2   1 <1>   0.6900 
 22 C       -6.2910    -8.8050     1.7870 C.3   1 <1>   0.0600 
 23 C       -1.4300    -8.6380    -0.9470 C.3   1 <1>   0.1100 
 24 C        0.1190    -7.8830     0.7420 C.3   1 <1>   0.1100 
 25 O       -8.6900    -7.4690     1.1630 O.2   1 <1>  -0.5700 
 26 C       -0.9130   -10.0720    -0.7310 C.3   1 <1>   0.1200 
 27 C        0.5990    -9.3380     0.8980 C.3   1 <1>   0.1200 
 28 O        0.4120   -10.0380    -0.2970 O.3   1 <1>  -0.5600 
 29 H       -3.1950    -3.1270     1.4960 H     1 <1>   0.1500 
 30 H        0.8150    -2.6730    -1.3400 H     1 <1>   0.1500 
 31 H       -1.2510    -3.5830    -2.3080 H     1 <1>   0.1500 
 32 H       -3.5480    -4.2170    -2.1080 H     1 <1>   0.0800 
 33 H       -4.4420    -3.2890    -0.9370 H     1 <1>   0.0800 
 34 H       -3.5840    -8.0380     1.1140 H     1 <1>   0.4500 
 35 H       -1.3060    -5.7970     0.8470 H     1 <1>   0.0800 
 36 H       -1.3460    -6.0610    -0.8750 H     1 <1>   0.0800 
 37 H       -8.6580    -5.3610    -0.0090 H     1 <1>   0.3700 
 38 H       -5.5750    -8.7120     2.5840 H     1 <1>   0.0800 
 39 H       -5.9710    -9.5750     1.1060 H     1 <1>   0.0800 
 40 H       -7.2350    -9.0990     2.2150 H     1 <1>   0.0800 
 41 H       -0.8670    -8.1960    -1.7530 H     1 <1>   0.0800 
 42 H       -2.4630    -8.6850    -1.2460 H     1 <1>   0.0800 
 43 H        0.2160    -7.3850     1.6920 H     1 <1>   0.0800 
 44 H        0.7630    -7.3860     0.0350 H     1 <1>   0.0800 
 45 H       -0.9400   -10.6240    -1.6540 H     1 <1>   0.0800 
 46 H       -1.5050   -10.5900     0.0030 H     1 <1>   0.0800 
 47 H        0.0570    -9.8390     1.6810 H     1 <1>   0.0800 
 48 H        1.6480    -9.3640     1.1320 H     1 <1>   0.0800 
@<TRIPOS>BOND
  1   1   2  1   
  2   2   3  ar  
  3   2   4  ar  
  4   3   5  1   
  5   3   6  ar  
  6   4   7  ar  
  7   4  29  1   
  8   6   8  ar  
  9   6  30  1   
 10   7   8  ar  
 11   7   9  1   
 12   8  31  1   
 13   9  10  1   
 14   9  32  1   
 15   9  33  1   
 16  10  11  1   
 17  10  12  ar  
 18  11  13  1   
 19  11  14  2   
 20  12  15  ar  
 21  12  16  1   
 22  13  17  2   
 23  13  18  am  
 24  14  15  1   
 25  14  19  1   
 26  15  34  1   
 27  16  20  1   
 28  16  35  1   
 29  16  36  1   
 30  18  21  am  
 31  18  37  1   
 32  19  21  am  
 33  19  22  1   
 34  20  23  1   
 35  20  24  1   
 36  21  25  2   
 37  22  38  1   
 38  22  39  1   
 39  22  40  1   
 40  23  26  1   
 41  23  41  1   
 42  23  42  1   
 43  24  27  1   
 44  24  43  1   
 45  24  44  1   
 46  26  28  1   
 47  26  45  1   
 48  26  46  1   
 49  27  28  1   
 50  27  47  1   
 51  27  48  1   
@<TRIPOS>SUBSTRUCTURE
  1 ****  12 GROUP 4 **** **** 0

# MOE 2024.06 (io_trps.svl 2023.06)
