@<TRIPOS>MOLECULE
2-(5-Cyclopropyl-3-difluoromethyl-pyrazol-1-yl)-N-(2-dimethylamino-ethyl)-acetam
41 42 1 0 0 
SMALL
USER_CHARGES


@<TRIPOS>ATOM
  1 F       -2.7370    -3.7740    -0.0810 F     1 <1>  -0.3400 
  2 C       -1.9240    -3.9130    -1.1270 C.3   1 <1>   0.7810 
  3 F       -2.6410    -4.6130    -2.0030 F     1 <1>  -0.3400 
  4 C       -0.6630    -4.7040    -0.7300 C.2   1 <1>   0.1080 
  5 N       -0.6340    -5.8050    -0.0220 N.2   1 <1>  -0.7070 
  6 C        0.6190    -4.3100    -1.1010 C.2   1 <1>  -0.1500 
  7 N        0.6790    -6.1350     0.0750 N.pl3 1 <1>   0.3140 
  8 C        1.4480    -5.2360    -0.5740 C.2   1 <1>  -0.2370 
  9 C        1.1730    -7.2980     0.8460 C.3   1 <1>   0.1570 
 10 C        2.9610    -5.3090    -0.6580 C.3   1 <1>  -0.0150 
 11 C        0.0540    -8.2900     1.0760 C.2   1 <1>   0.5690 
 12 C        3.7860    -4.9350     0.5300 C.3   1 <1>  -0.2000 
 13 C        3.7720    -4.0540    -0.6830 C.3   1 <1>  -0.2000 
 14 O        0.0180    -9.2970     0.4120 O.2   1 <1>  -0.5700 
 15 N       -0.9270    -8.0120     1.9830 N.am  1 <1>  -0.7300 
 16 C       -2.2060    -8.7690     2.0900 C.3   1 <1>   0.1400 
 17 C       -2.8900    -8.9290     0.7140 C.3   1 <1>   0.3430 
 18 N       -2.9500    -7.6370    -0.0460 N.4   1 <1>  -0.9590 
 19 C       -4.0250    -6.7160     0.4220 C.3   1 <1>   0.2630 
 20 C       -3.0370    -7.8810    -1.5120 C.3   1 <1>   0.2630 
 21 H       -1.7280    -2.9410    -1.5410 H     1 <1>   0.0800 
 22 H        0.8870    -3.4470    -1.6860 H     1 <1>   0.1500 
 23 H        1.5590    -6.9550     1.7850 H     1 <1>   0.0800 
 24 H        1.9590    -7.7750     0.2930 H     1 <1>   0.0800 
 25 H        3.3070    -6.1210    -1.2770 H     1 <1>   0.1000 
 26 H        4.6790    -5.4960     0.7450 H     1 <1>   0.1000 
 27 H        3.3000    -4.5740     1.4200 H     1 <1>   0.1000 
 28 H        3.2750    -3.1020    -0.6160 H     1 <1>   0.1000 
 29 H        4.6460    -4.0200    -1.3100 H     1 <1>   0.1000 
 30 H       -0.8970    -7.1150     2.4810 H     1 <1>   0.3700 
 31 H       -2.8690    -8.2590     2.7670 H     1 <1>   0.0800 
 32 H       -2.0030    -9.7450     2.4970 H     1 <1>   0.0800 
 33 H       -3.8790    -9.3360     0.8400 H     1 <1>   0.0800 
 34 H       -2.3130    -9.6430     0.1490 H     1 <1>   0.0800 
 35 H       -2.0380    -7.1460     0.1100 H     1 <1>   0.4500 
 36 H       -4.9920    -7.1790     0.3130 H     1 <1>   0.0800 
 37 H       -4.0110    -5.8080    -0.1580 H     1 <1>   0.0800 
 38 H       -3.8730    -6.4590     1.4570 H     1 <1>   0.0800 
 39 H       -3.9520    -8.3930    -1.7570 H     1 <1>   0.0800 
 40 H       -2.2020    -8.4830    -1.8350 H     1 <1>   0.0800 
 41 H       -3.0070    -6.9460    -2.0470 H     1 <1>   0.0800 
@<TRIPOS>BOND
  1   1   2  1   
  2   2   3  1   
  3   2   4  1   
  4   2  21  1   
  5   4   5  2   
  6   4   6  1   
  7   5   7  1   
  8   6   8  2   
  9   6  22  1   
 10   7   8  1   
 11   7   9  1   
 12   8  10  1   
 13   9  11  1   
 14   9  23  1   
 15   9  24  1   
 16  10  12  1   
 17  10  13  1   
 18  10  25  1   
 19  11  14  2   
 20  11  15  am  
 21  12  13  1   
 22  12  26  1   
 23  12  27  1   
 24  13  28  1   
 25  13  29  1   
 26  15  16  1   
 27  15  30  1   
 28  16  17  1   
 29  16  31  1   
 30  16  32  1   
 31  17  18  1   
 32  17  33  1   
 33  17  34  1   
 34  18  19  1   
 35  18  20  1   
 36  18  35  1   
 37  19  36  1   
 38  19  37  1   
 39  19  38  1   
 40  20  39  1   
 41  20  40  1   
 42  20  41  1   
@<TRIPOS>SUBSTRUCTURE
  1 ****   5 GROUP 4 **** **** 0

# MOE 2024.06 (io_trps.svl 2023.06)
