@<TRIPOS>MOLECULE
2-(Methanesulfonyl-methyl-amino)-N-[4-(pyrrolidine-1-sulfonyl)-phenyl]-benzamide
52 54 1 0 0 
SMALL
USER_CHARGES


@<TRIPOS>ATOM
  1 S       -0.2210     1.1140    -1.8490 S.o2  1 <1>   1.4470 
  2 O        0.4830     2.1000    -2.6400 O.2   1 <1>  -0.6500 
  3 O       -0.2650    -0.2610    -2.3020 O.2   1 <1>  -0.6500 
  4 N        0.5150     1.1070    -0.3240 N.am  1 <1>  -0.8490 
  5 C       -1.8910     1.7190    -1.4850 C.ar  1 <1>  -0.0090 
  6 C        0.0470     0.0650     0.5750 C.3   1 <1>   0.1960 
  7 C        1.9550     0.9400    -0.3940 C.3   1 <1>   0.1960 
  8 C       -2.0990     3.0290    -1.0680 C.ar  1 <1>  -0.1500 
  9 C       -3.0050     0.8950    -1.5910 C.ar  1 <1>  -0.1500 
 10 C        1.0960     0.0240     1.6770 C.3   1 <1>  -0.1600 
 11 C        2.3680     0.5670     1.0250 C.3   1 <1>  -0.1600 
 12 C       -3.3660     3.4970    -0.7700 C.ar  1 <1>  -0.1500 
 13 C       -4.2730     1.3570    -1.2920 C.ar  1 <1>  -0.1500 
 14 C       -4.4770     2.6690    -0.8750 C.ar  1 <1>   0.1170 
 15 N       -5.7340     3.1840    -0.5300 N.am  1 <1>  -0.5470 
 16 C       -7.0050     2.6990    -0.7380 C.2   1 <1>   0.5440 
 17 O       -7.2100     1.8210    -1.5520 O.2   1 <1>  -0.5700 
 18 C       -8.0900     3.2530     0.0250 C.ar  1 <1>   0.0860 
 19 C       -8.5870     2.5870     1.1570 C.ar  1 <1>   0.1990 
 20 C       -8.6660     4.4660    -0.3520 C.ar  1 <1>  -0.1500 
 21 N       -8.0600     1.3750     1.5990 N.am  1 <1>  -0.6930 
 22 C       -9.6380     3.1590     1.8670 C.ar  1 <1>  -0.1500 
 23 C       -9.7060     5.0200     0.3670 C.ar  1 <1>  -0.1500 
 24 S       -8.9510    -0.1110     1.4810 S.o2  1 <1>   1.3330 
 25 C       -6.6600     1.2860     2.0830 C.3   1 <1>   0.1160 
 26 C      -10.1950     4.3620     1.4830 C.ar  1 <1>  -0.1500 
 27 O       -8.1720    -1.1170     2.1640 O.2   1 <1>  -0.6500 
 28 O      -10.3130     0.1570     1.8720 O.2   1 <1>  -0.6500 
 29 C       -8.8990    -0.4570    -0.2630 C.3   1 <1>  -0.1350 
 30 H        0.0220    -0.8870     0.0680 H     1 <1>   0.0800 
 31 H       -0.9330     0.2940     0.9600 H     1 <1>   0.0800 
 32 H        2.4320     1.8460    -0.7310 H     1 <1>   0.0800 
 33 H        2.1980     0.1350    -1.0710 H     1 <1>   0.0800 
 34 H       -1.2500     3.6870    -0.9800 H     1 <1>   0.1500 
 35 H       -2.8780    -0.1250    -1.9160 H     1 <1>   0.1500 
 36 H        1.2250    -0.9780     2.0480 H     1 <1>   0.0800 
 37 H        0.7920     0.6630     2.4870 H     1 <1>   0.0800 
 38 H        2.7110     1.4440     1.5460 H     1 <1>   0.0800 
 39 H        3.1580    -0.1630     1.0090 H     1 <1>   0.0800 
 40 H       -3.4870     4.5170    -0.4550 H     1 <1>   0.1500 
 41 H       -5.1040     0.6830    -1.3860 H     1 <1>   0.1500 
 42 H       -5.7030     4.0550    -0.0030 H     1 <1>   0.3700 
 43 H       -8.2970     4.9750    -1.2270 H     1 <1>   0.1500 
 44 H      -10.0220     2.6440     2.7310 H     1 <1>   0.1500 
 45 H      -10.1430     5.9570     0.0630 H     1 <1>   0.1500 
 46 H       -6.2340     2.2680     2.1880 H     1 <1>   0.0800 
 47 H       -6.0690     0.7150     1.3860 H     1 <1>   0.0800 
 48 H       -6.6390     0.7950     3.0410 H     1 <1>   0.0800 
 49 H      -11.0090     4.7850     2.0460 H     1 <1>   0.1500 
 50 H       -7.8830    -0.5500    -0.5930 H     1 <1>   0.0800 
 51 H       -9.3670     0.3360    -0.8130 H     1 <1>   0.0800 
 52 H       -9.4150    -1.3730    -0.4720 H     1 <1>   0.0800 
@<TRIPOS>BOND
  1   1   2  2   
  2   1   3  2   
  3   1   4  am  
  4   1   5  1   
  5   4   6  1   
  6   4   7  1   
  7   5   8  ar  
  8   5   9  ar  
  9   6  10  1   
 10   6  30  1   
 11   6  31  1   
 12   7  11  1   
 13   7  32  1   
 14   7  33  1   
 15   8  12  ar  
 16   8  34  1   
 17   9  13  ar  
 18   9  35  1   
 19  10  11  1   
 20  10  36  1   
 21  10  37  1   
 22  11  38  1   
 23  11  39  1   
 24  12  14  ar  
 25  12  40  1   
 26  13  14  ar  
 27  13  41  1   
 28  14  15  1   
 29  15  16  am  
 30  15  42  1   
 31  16  17  2   
 32  16  18  1   
 33  18  19  ar  
 34  18  20  ar  
 35  19  21  1   
 36  19  22  ar  
 37  20  23  ar  
 38  20  43  1   
 39  21  24  am  
 40  21  25  1   
 41  22  26  ar  
 42  22  44  1   
 43  23  26  ar  
 44  23  45  1   
 45  24  27  2   
 46  24  28  2   
 47  24  29  1   
 48  25  46  1   
 49  25  47  1   
 50  25  48  1   
 51  26  49  1   
 52  29  50  1   
 53  29  51  1   
 54  29  52  1   
@<TRIPOS>SUBSTRUCTURE
  1 ****  14 GROUP 4 **** **** 0

# MOE 2024.06 (io_trps.svl 2023.06)
