@<TRIPOS>MOLECULE
3-Allyl-8-cyclohexyl-1,6-dimethyl-5,6,7,8-tetrahydro-1H-1,3,4b,8,9-pentaaza-fluo
54 57 1 0 0 
SMALL
USER_CHARGES


@<TRIPOS>ATOM
  1 O        0.7570     0.1710     0.2720 O.2   1 <1>  -0.5740 
  2 C        1.7530     0.8420     0.0970 C.2   1 <1>   0.6870 
  3 N        1.6390     2.1910    -0.2120 N.am  1 <1>  -0.4250 
  4 N        3.0090     0.2560     0.1990 N.am  1 <1>  -0.4410 
  5 C        2.7520     2.9680    -0.4880 C.2   1 <1>   0.7000 
  6 C        0.3110     2.8460    -0.1090 C.3   1 <1>   0.2720 
  7 C        4.1150     1.0450    -0.0520 C.2   1 <1>   0.4210 
  8 C        3.1580    -1.1870     0.5510 C.3   1 <1>   0.0530 
  9 O        2.6440     4.1370    -0.8230 O.2   1 <1>  -0.5740 
 10 C        4.0380     2.3500    -0.3860 C.2   1 <1>   0.2710 
 11 C        0.1070     3.2880     1.3270 C.2   1 <1>  -0.2940 
 12 N        5.4290     0.6820    -0.0180 N.pl3 1 <1>  -0.7030 
 13 N        5.3620     2.7840    -0.5610 N.pl3 1 <1>  -0.7670 
 14 C        0.1170     4.5560     1.7500 C.2   1 <1>  -0.3060 
 15 C        6.1650     1.7510    -0.3240 C.cat 1 <1>   1.0690 
 16 C        5.8160     4.1400    -0.9280 C.3   1 <1>   0.3490 
 17 N        7.5070     1.8390    -0.3920 N.pl3 1 <1>  -0.5960 
 18 C        7.2130     4.0440    -1.5610 C.3   1 <1>  -0.0870 
 19 C        8.4670     0.7430    -0.0760 C.3   1 <1>   0.2410 
 20 C        8.1500     3.1450    -0.7320 C.3   1 <1>   0.1610 
 21 C        7.8290     5.4390    -1.7460 C.3   1 <1>  -0.2460 
 22 C        8.3230    -0.4230    -1.0670 C.3   1 <1>  -0.1670 
 23 C        8.3400     0.2910     1.3880 C.3   1 <1>  -0.1670 
 24 C        9.3170    -1.5450    -0.7370 C.3   1 <1>  -0.1670 
 25 C        9.3360    -0.8360     1.6970 C.3   1 <1>  -0.1670 
 26 C        9.1730    -2.0070     0.7190 C.3   1 <1>  -0.1670 
 27 H       -0.4730     2.1660    -0.4000 H     1 <1>   0.0730 
 28 H        0.2620     3.6960    -0.7680 H     1 <1>   0.0730 
 29 H        2.2670    -1.5560     1.0320 H     1 <1>   0.0730 
 30 H        3.9810    -1.3240     1.2290 H     1 <1>   0.0730 
 31 H        3.3280    -1.7630    -0.3420 H     1 <1>   0.0730 
 32 H       -0.0520     2.4570     1.9940 H     1 <1>   0.1430 
 33 H        5.8210    -0.2290     0.1990 H     1 <1>   0.4450 
 34 H       -0.0340     4.8490     2.7750 H     1 <1>   0.1430 
 35 H        0.2740     5.4090     1.1100 H     1 <1>   0.1430 
 36 H        5.8470     4.7540    -0.0420 H     1 <1>   0.0730 
 37 H        5.1270     4.5860    -1.6270 H     1 <1>   0.0730 
 38 H        7.1070     3.6070    -2.5400 H     1 <1>   0.0730 
 39 H        9.4690     1.1240    -0.1930 H     1 <1>   0.0730 
 40 H        9.0490     2.9710    -1.3000 H     1 <1>   0.0730 
 41 H        8.4240     3.6440     0.1830 H     1 <1>   0.0730 
 42 H        7.9660     5.9310    -0.7980 H     1 <1>   0.0730 
 43 H        7.1930     6.0530    -2.3600 H     1 <1>   0.0730 
 44 H        8.7870     5.3650    -2.2320 H     1 <1>   0.0730 
 45 H        8.5170    -0.0720    -2.0660 H     1 <1>   0.0730 
 46 H        7.3340    -0.8400    -1.0410 H     1 <1>   0.0730 
 47 H        7.3550    -0.0740     1.6030 H     1 <1>   0.0730 
 48 H        8.5460     1.1220     2.0410 H     1 <1>   0.0730 
 49 H       10.3230    -1.1940    -0.8990 H     1 <1>   0.0730 
 50 H        9.1550    -2.3800    -1.3970 H     1 <1>   0.0730 
 51 H        9.1870    -1.1860     2.7050 H     1 <1>   0.0730 
 52 H       10.3420    -0.4570     1.6300 H     1 <1>   0.0730 
 53 H        9.9210    -2.7530     0.9310 H     1 <1>   0.0730 
 54 H        8.2100    -2.4650     0.8600 H     1 <1>   0.0730 
@<TRIPOS>BOND
  1   1   2  2   
  2   2   3  am  
  3   2   4  am  
  4   3   5  am  
  5   3   6  1   
  6   4   7  1   
  7   4   8  1   
  8   5   9  2   
  9   5  10  1   
 10   6  11  1   
 11   6  27  1   
 12   6  28  1   
 13   7  10  2   
 14   7  12  1   
 15   8  29  1   
 16   8  30  1   
 17   8  31  1   
 18  10  13  1   
 19  11  14  2   
 20  11  32  1   
 21  12  15  ar  
 22  12  33  1   
 23  13  15  ar  
 24  13  16  1   
 25  14  34  1   
 26  14  35  1   
 27  15  17  ar  
 28  16  18  1   
 29  16  36  1   
 30  16  37  1   
 31  17  19  1   
 32  17  20  1   
 33  18  20  1   
 34  18  21  1   
 35  18  38  1   
 36  19  22  1   
 37  19  23  1   
 38  19  39  1   
 39  20  40  1   
 40  20  41  1   
 41  21  42  1   
 42  21  43  1   
 43  21  44  1   
 44  22  24  1   
 45  22  45  1   
 46  22  46  1   
 47  23  25  1   
 48  23  47  1   
 49  23  48  1   
 50  24  26  1   
 51  24  49  1   
 52  24  50  1   
 53  25  26  1   
 54  25  51  1   
 55  25  52  1   
 56  26  53  1   
 57  26  54  1   
@<TRIPOS>SUBSTRUCTURE
  1 ****  12 GROUP 4 **** **** 0

# MOE 2024.06 (io_trps.svl 2023.06)
