@<TRIPOS>MOLECULE
3-(4-Chloro-benzyl)-1,7-dimethyl-8-(tetrahydro-furan-2-ylmethyl)-1H,8H-imidazo[2
53 57 1 0 0 
SMALL
USER_CHARGES


@<TRIPOS>ATOM
  1 CL       2.0440     2.4190    -4.2840 Cl    1 <1>  -0.1840 
  2 C        2.6580     2.2060    -2.6650 C.ar  1 <1>   0.1700 
  3 C        2.8560     0.9290    -2.1760 C.ar  1 <1>  -0.1570 
  4 C        2.9390     3.3180    -1.8940 C.ar  1 <1>  -0.1570 
  5 C        3.3440     0.7630    -0.8910 C.ar  1 <1>  -0.1570 
  6 C        3.4260     3.1470    -0.6090 C.ar  1 <1>  -0.1570 
  7 C        3.6300     1.8700    -0.1020 C.ar  1 <1>  -0.1500 
  8 C        4.1640     1.6820     1.3100 C.3   1 <1>   0.2780 
  9 N        5.6470     1.5620     1.2600 N.am  1 <1>  -0.4250 
 10 C        6.2200     0.3080     1.0980 C.2   1 <1>   0.6870 
 11 C        6.4160     2.7150     1.2640 C.2   1 <1>   0.7000 
 12 O        5.5370    -0.6920     1.1780 O.2   1 <1>  -0.5740 
 13 N        7.5850     0.1930     0.8620 N.am  1 <1>  -0.4410 
 14 O        5.9130     3.8090     1.4680 O.2   1 <1>  -0.5740 
 15 C        7.8170     2.5790     1.0410 C.2   1 <1>   0.2710 
 16 C        8.3460     1.3440     0.8590 C.2   1 <1>   0.4210 
 17 C        8.2160    -1.1450     0.6610 C.3   1 <1>   0.0530 
 18 N        8.8890     3.4830     0.9520 N.pl3 1 <1>  -0.6330 
 19 N        9.6910     1.4600     0.6800 N.pl3 1 <1>  -0.7030 
 20 C        9.9790     2.7600     0.7310 C.cat 1 <1>   1.0690 
 21 C        9.2850     4.8050     0.9800 C.2   1 <1>   0.2230 
 22 N       11.0720     3.5280     0.6150 N.pl3 1 <1>  -0.5720 
 23 C       10.6220     4.8320     0.7760 C.2   1 <1>   0.1580 
 24 C       12.4880     3.0640     0.4580 C.3   1 <1>   0.1610 
 25 C       11.5480     6.0340     0.7190 C.3   1 <1>  -0.1090 
 26 C       12.7090     2.1380    -0.7540 C.3   1 <1>   0.1930 
 27 O       11.9780     0.9560    -0.6260 O.3   1 <1>  -0.5640 
 28 C       14.1490     1.6680    -0.8980 C.3   1 <1>  -0.1670 
 29 C       12.5360    -0.0310    -1.4410 C.3   1 <1>   0.1130 
 30 C       14.0080     0.3340    -1.6100 C.3   1 <1>  -0.1670 
 31 H        2.6280     0.0790    -2.7950 H     1 <1>   0.1430 
 32 H        2.7760     4.3020    -2.2970 H     1 <1>   0.1430 
 33 H        3.4980    -0.2330    -0.5090 H     1 <1>   0.1430 
 34 H        3.6430     4.0140    -0.0080 H     1 <1>   0.1430 
 35 H        3.7300     0.8010     1.7500 H     1 <1>   0.0730 
 36 H        3.8790     2.5170     1.9260 H     1 <1>   0.0730 
 37 H        9.0380    -1.0740    -0.0300 H     1 <1>   0.0730 
 38 H        7.5000    -1.8410     0.2580 H     1 <1>   0.0730 
 39 H        8.5720    -1.5230     1.6030 H     1 <1>   0.0730 
 40 H       10.4040     0.7980     0.3420 H     1 <1>   0.4450 
 41 H        8.5890     5.6150     1.1420 H     1 <1>   0.1430 
 42 H       12.7920     2.5500     1.3540 H     1 <1>   0.0730 
 43 H       13.1320     3.9180     0.3450 H     1 <1>   0.0730 
 44 H       10.9910     6.9430     0.8620 H     1 <1>   0.0730 
 45 H       12.2930     5.9670     1.4910 H     1 <1>   0.0730 
 46 H       12.0370     6.0820    -0.2380 H     1 <1>   0.0730 
 47 H       12.3960     2.6240    -1.6630 H     1 <1>   0.0730 
 48 H       14.5940     1.5190     0.0710 H     1 <1>   0.0730 
 49 H       14.7470     2.3670    -1.4570 H     1 <1>   0.0730 
 50 H       12.0240    -0.0190    -2.3890 H     1 <1>   0.0730 
 51 H       12.4110    -0.9890    -0.9650 H     1 <1>   0.0730 
 52 H       14.6470    -0.4160    -1.1760 H     1 <1>   0.0730 
 53 H       14.2420     0.4240    -2.6570 H     1 <1>   0.0730 
@<TRIPOS>BOND
  1   1   2  1   
  2   2   3  ar  
  3   2   4  ar  
  4   3   5  ar  
  5   3  31  1   
  6   4   6  ar  
  7   4  32  1   
  8   5   7  ar  
  9   5  33  1   
 10   6   7  ar  
 11   6  34  1   
 12   7   8  1   
 13   8   9  1   
 14   8  35  1   
 15   8  36  1   
 16   9  10  am  
 17   9  11  am  
 18  10  12  2   
 19  10  13  am  
 20  11  14  2   
 21  11  15  1   
 22  13  16  1   
 23  13  17  1   
 24  15  16  2   
 25  15  18  1   
 26  16  19  1   
 27  17  37  1   
 28  17  38  1   
 29  17  39  1   
 30  18  20  ar  
 31  18  21  1   
 32  19  20  ar  
 33  19  40  1   
 34  20  22  ar  
 35  21  23  2   
 36  21  41  1   
 37  22  23  1   
 38  22  24  1   
 39  23  25  1   
 40  24  26  1   
 41  24  42  1   
 42  24  43  1   
 43  25  44  1   
 44  25  45  1   
 45  25  46  1   
 46  26  27  1   
 47  26  28  1   
 48  26  47  1   
 49  27  29  1   
 50  28  30  1   
 51  28  48  1   
 52  28  49  1   
 53  29  30  1   
 54  29  50  1   
 55  29  51  1   
 56  30  52  1   
 57  30  53  1   
@<TRIPOS>SUBSTRUCTURE
  1 ****  15 GROUP 4 **** **** 0

# MOE 2024.06 (io_trps.svl 2023.06)
