@<TRIPOS>MOLECULE
2-(1-Cyclopropyl-ethyl)-5-methyl-2H-pyrazol-3-ylamine
27 28 1 0 0 
SMALL
USER_CHARGES


@<TRIPOS>ATOM
  1 N       -0.0430    -0.0680    -0.1180 N.2   1 <1>  -0.7070 
  2 N       -1.1580    -0.8210     0.0920 N.pl3 1 <1>   0.3140 
  3 C       -0.4570     1.1560    -0.0830 C.2   1 <1>   0.1080 
  4 C       -2.2570    -0.0250     0.2660 C.2   1 <1>  -0.0680 
  5 C       -1.0450    -2.3070     0.1840 C.3   1 <1>   0.2710 
  6 C       -1.8220     1.2500     0.1530 C.2   1 <1>  -0.1500 
  7 C        0.4750     2.3280    -0.2820 C.3   1 <1>  -0.0590 
  8 N       -3.5770    -0.4320     0.5100 N.pl3 1 <1>  -0.8840 
  9 C       -2.1620    -3.0240    -0.6150 C.3   1 <1>  -0.1950 
 10 C       -0.9530    -2.7260     1.6620 C.3   1 <1>  -0.2400 
 11 C       -3.4100    -3.6040    -0.0130 C.3   1 <1>  -0.2000 
 12 C       -2.3550    -4.5100    -0.5790 C.3   1 <1>  -0.2000 
 13 H       -0.1120    -2.5610    -0.2850 H     1 <1>   0.0800 
 14 H       -2.3980     2.1520     0.2240 H     1 <1>   0.1500 
 15 H        1.2380     2.3110     0.4740 H     1 <1>   0.0800 
 16 H       -0.0650     3.2540    -0.2190 H     1 <1>   0.0800 
 17 H        0.9400     2.2540    -1.2480 H     1 <1>   0.0800 
 18 H       -4.1190     0.1900     1.1190 H     1 <1>   0.4000 
 19 H       -3.6990    -1.4180     0.7650 H     1 <1>   0.4000 
 20 H       -2.2600    -2.5780    -1.5920 H     1 <1>   0.1000 
 21 H       -1.8480    -2.4530     2.1910 H     1 <1>   0.0800 
 22 H       -0.1150    -2.2320     2.1220 H     1 <1>   0.0800 
 23 H       -0.8030    -3.7850     1.7470 H     1 <1>   0.0800 
 24 H       -4.3350    -3.4910    -0.5530 H     1 <1>   0.1000 
 25 H       -3.5600    -3.6310     1.0520 H     1 <1>   0.1000 
 26 H       -1.7800    -5.1140     0.1010 H     1 <1>   0.1000 
 27 H       -2.5600    -5.0240    -1.5030 H     1 <1>   0.1000 
@<TRIPOS>BOND
  1   1   2  1   
  2   1   3  2   
  3   2   4  1   
  4   2   5  1   
  5   3   6  1   
  6   3   7  1   
  7   4   6  2   
  8   4   8  1   
  9   5   9  1   
 10   5  10  1   
 11   5  13  1   
 12   6  14  1   
 13   7  15  1   
 14   7  16  1   
 15   7  17  1   
 16   8  18  1   
 17   8  19  1   
 18   9  11  1   
 19   9  12  1   
 20   9  20  1   
 21  10  21  1   
 22  10  22  1   
 23  10  23  1   
 24  11  12  1   
 25  11  24  1   
 26  11  25  1   
 27  12  26  1   
 28  12  27  1   
@<TRIPOS>SUBSTRUCTURE
  1 ****   2 GROUP 4 **** **** 0

# MOE 2024.06 (io_trps.svl 2023.06)
