@<TRIPOS>MOLECULE
N-Benzo[1,3]dioxol-5-ylmethyl-2-(4-tert-butyl-phenoxy)-acetamide
48 50 1 0 0 
SMALL
USER_CHARGES


@<TRIPOS>ATOM
  1 O       -0.2610    -1.4310    -3.4990 O.2   1 <1>  -0.5700 
  2 C        0.0320    -1.7390    -2.3690 C.2   1 <1>   0.5690 
  3 N       -0.8560    -1.6290    -1.3510 N.am  1 <1>  -0.7300 
  4 C        1.4360    -2.2640    -2.0930 C.3   1 <1>   0.1810 
  5 C       -2.2590    -1.2100    -1.4820 C.3   1 <1>   0.2840 
  6 O        1.5830    -2.6630    -0.7360 O.3   1 <1>  -0.3620 
  7 C       -3.0610    -1.9160    -0.4040 C.ar  1 <1>  -0.1430 
  8 C        2.7520    -3.1730    -0.2790 C.ar  1 <1>   0.0830 
  9 C       -3.3920    -1.2470     0.7710 C.ar  1 <1>  -0.1500 
 10 C       -3.4600    -3.2400    -0.5890 C.ar  1 <1>  -0.1500 
 11 C        2.7910    -3.5590     1.0480 C.ar  1 <1>  -0.1500 
 12 C        3.8920    -3.3250    -1.0600 C.ar  1 <1>  -0.1500 
 13 C       -4.1170    -1.9300     1.7270 C.ar  1 <1>   0.0830 
 14 C       -4.1900    -3.9100     0.3840 C.ar  1 <1>  -0.1500 
 15 C        3.9450    -4.0900     1.5960 C.ar  1 <1>  -0.1500 
 16 C        5.0430    -3.8570    -0.5050 C.ar  1 <1>  -0.1500 
 17 O       -4.5390    -1.4900     2.9170 O.3   1 <1>  -0.3630 
 18 C       -4.5060    -3.2240     1.5390 C.ar  1 <1>   0.0830 
 19 C        5.0970    -4.2500     0.8290 C.ar  1 <1>  -0.1430 
 20 C       -5.2440    -2.5710     3.5250 C.3   1 <1>   0.4000 
 21 O       -5.1910    -3.6580     2.6020 O.3   1 <1>  -0.3630 
 22 C        6.4090    -4.8370     1.3940 C.3   1 <1>   0.1440 
 23 C        6.7840    -6.1040     0.6110 C.3   1 <1>  -0.2400 
 24 C        7.5350    -3.8010     1.2590 C.3   1 <1>  -0.2400 
 25 C        6.3100    -5.2220     2.8800 C.3   1 <1>  -0.2400 
 26 H       -0.5740    -1.9440    -0.4180 H     1 <1>   0.3700 
 27 H        2.1500    -1.4880    -2.2980 H     1 <1>   0.0800 
 28 H        1.6240    -3.1160    -2.7190 H     1 <1>   0.0800 
 29 H       -2.6310    -1.4710    -2.4580 H     1 <1>   0.0800 
 30 H       -2.3250    -0.1430    -1.3640 H     1 <1>   0.0800 
 31 H       -3.0980    -0.2290     0.9500 H     1 <1>   0.1500 
 32 H       -3.1960    -3.7540    -1.4980 H     1 <1>   0.1500 
 33 H        1.9100    -3.4430     1.6540 H     1 <1>   0.1500 
 34 H        3.9090    -3.0390    -2.0940 H     1 <1>   0.1500 
 35 H       -4.5040    -4.9300     0.2550 H     1 <1>   0.1500 
 36 H        3.9160    -4.3720     2.6310 H     1 <1>   0.1500 
 37 H        5.9080    -3.9620    -1.1340 H     1 <1>   0.1500 
 38 H       -6.2690    -2.2870     3.6890 H     1 <1>   0.0800 
 39 H       -4.7560    -2.8510     4.4410 H     1 <1>   0.0800 
 40 H        6.9610    -5.8830    -0.4250 H     1 <1>   0.0800 
 41 H        5.9850    -6.8220     0.6710 H     1 <1>   0.0800 
 42 H        7.6750    -6.5500     1.0140 H     1 <1>   0.0800 
 43 H        7.2650    -2.8960     1.7750 H     1 <1>   0.0800 
 44 H        7.7190    -3.5590     0.2290 H     1 <1>   0.0800 
 45 H        8.4500    -4.1760     1.6820 H     1 <1>   0.0800 
 46 H        6.0750    -4.3600     3.4790 H     1 <1>   0.0800 
 47 H        7.2440    -5.6250     3.2300 H     1 <1>   0.0800 
 48 H        5.5500    -5.9690     3.0270 H     1 <1>   0.0800 
@<TRIPOS>BOND
  1   1   2  2   
  2   2   3  am  
  3   2   4  1   
  4   3   5  1   
  5   3  26  1   
  6   4   6  1   
  7   4  27  1   
  8   4  28  1   
  9   5   7  1   
 10   5  29  1   
 11   5  30  1   
 12   6   8  1   
 13   7   9  ar  
 14   7  10  ar  
 15   8  11  ar  
 16   8  12  ar  
 17   9  13  ar  
 18   9  31  1   
 19  10  14  ar  
 20  10  32  1   
 21  11  15  ar  
 22  11  33  1   
 23  12  16  ar  
 24  12  34  1   
 25  13  17  1   
 26  13  18  ar  
 27  14  18  ar  
 28  14  35  1   
 29  15  19  ar  
 30  15  36  1   
 31  16  19  ar  
 32  16  37  1   
 33  17  20  1   
 34  18  21  1   
 35  19  22  1   
 36  20  21  1   
 37  20  38  1   
 38  20  39  1   
 39  22  23  1   
 40  22  24  1   
 41  22  25  1   
 42  23  40  1   
 43  23  41  1   
 44  23  42  1   
 45  24  43  1   
 46  24  44  1   
 47  24  45  1   
 48  25  46  1   
 49  25  47  1   
 50  25  48  1   
@<TRIPOS>SUBSTRUCTURE
  1 ****   6 GROUP 4 **** **** 0

# MOE 2024.06 (io_trps.svl 2023.06)
