@<TRIPOS>MOLECULE
1-(3-Chloro-4-ethoxy-benzenesulfonyl)-piperidine-4-carboxylic acid (pyridin-2-yl
53 55 1 0 0 
SMALL
USER_CHARGES


@<TRIPOS>ATOM
  1 CL      -1.1680     0.6130    -0.5480 Cl    1 <1>  -0.1770 
  2 C       -0.2900     2.0650    -0.1160 C.ar  1 <1>   0.1770 
  3 C       -0.5260     2.7140     1.0920 C.ar  1 <1>   0.0820 
  4 C        0.6560     2.5410    -1.0030 C.ar  1 <1>  -0.1500 
  5 O       -1.4410     2.2790     1.9880 O.3   1 <1>  -0.3630 
  6 C        0.2200     3.8380     1.4050 C.ar  1 <1>  -0.1500 
  7 C        1.4040     3.6750    -0.7040 C.ar  1 <1>  -0.0090 
  8 C       -2.8080     2.4420     1.6750 C.3   1 <1>   0.1200 
  9 C        1.1680     4.3110     0.5120 C.ar  1 <1>  -0.1500 
 10 S        2.6460     4.3130    -1.8630 S.o2  1 <1>   1.4470 
 11 C       -3.2370     3.8660     2.0260 C.3   1 <1>  -0.2400 
 12 O        3.0250     3.2770    -2.8010 O.2   1 <1>  -0.6500 
 13 O        2.2020     5.5950    -2.3650 O.2   1 <1>  -0.6500 
 14 N        3.9950     4.5920    -0.8740 N.am  1 <1>  -0.8490 
 15 C        4.9560     5.4900    -1.5190 C.3   1 <1>   0.1960 
 16 C        4.6320     3.3410    -0.4460 C.3   1 <1>   0.1960 
 17 C        6.0840     5.8490    -0.5480 C.3   1 <1>  -0.1600 
 18 C        5.7360     3.6330     0.5710 C.3   1 <1>  -0.1600 
 19 C        6.7880     4.5930    -0.0110 C.3   1 <1>  -0.0190 
 20 C        7.8710     4.9610     1.0010 C.2   1 <1>   0.5690 
 21 O        7.5770     5.1830     2.1510 O.2   1 <1>  -0.5700 
 22 N        9.1510     5.0430     0.5710 N.am  1 <1>  -0.7300 
 23 C       10.3000     5.5000     1.3830 C.3   1 <1>   0.2840 
 24 C       11.1370     6.4810     0.5690 C.ar  1 <1>   0.1670 
 25 N       11.5870     6.0520    -0.6070 N.ar  1 <1>  -0.6200 
 26 C       11.3820     7.7500     1.0730 C.ar  1 <1>  -0.1500 
 27 C       12.3130     6.9200    -1.2940 C.ar  1 <1>   0.1600 
 28 C       12.1380     8.6420     0.3430 C.ar  1 <1>  -0.1500 
 29 C       12.6130     8.2040    -0.8740 C.ar  1 <1>  -0.1500 
 30 H        0.8130     2.0210    -1.9330 H     1 <1>   0.1500 
 31 H        0.0530     4.3370     2.3430 H     1 <1>   0.1500 
 32 H       -3.3590     1.7280     2.2620 H     1 <1>   0.0800 
 33 H       -2.9660     2.2350     0.6310 H     1 <1>   0.0800 
 34 H        1.7390     5.1900     0.7630 H     1 <1>   0.1500 
 35 H       -3.0460     4.0640     3.0650 H     1 <1>   0.0800 
 36 H       -4.2900     3.9810     1.8430 H     1 <1>   0.0800 
 37 H       -2.7090     4.5780     1.4180 H     1 <1>   0.0800 
 38 H        4.4610     6.4000    -1.8180 H     1 <1>   0.0800 
 39 H        5.3570     5.0210    -2.4030 H     1 <1>   0.0800 
 40 H        5.0460     2.8270    -1.2990 H     1 <1>   0.0800 
 41 H        3.9000     2.6960     0.0110 H     1 <1>   0.0800 
 42 H        5.6700     6.4110     0.2720 H     1 <1>   0.0800 
 43 H        6.7970     6.4800    -1.0490 H     1 <1>   0.0800 
 44 H        6.2090     2.7120     0.8630 H     1 <1>   0.0800 
 45 H        5.2900     4.0640     1.4510 H     1 <1>   0.0800 
 46 H        7.2640     4.0960    -0.8370 H     1 <1>   0.0800 
 47 H        9.3990     4.9420    -0.4170 H     1 <1>   0.3700 
 48 H       10.9070     4.6510     1.6420 H     1 <1>   0.0800 
 49 H        9.9520     5.9610     2.2910 H     1 <1>   0.0800 
 50 H       10.9830     8.0430     2.0280 H     1 <1>   0.1500 
 51 H       12.6910     6.5900    -2.2470 H     1 <1>   0.1500 
 52 H       12.3470     9.6340     0.7060 H     1 <1>   0.1500 
 53 H       13.2100     8.8490    -1.4920 H     1 <1>   0.1500 
@<TRIPOS>BOND
  1   1   2  1   
  2   2   3  ar  
  3   2   4  ar  
  4   3   5  1   
  5   3   6  ar  
  6   4   7  ar  
  7   4  30  1   
  8   5   8  1   
  9   6   9  ar  
 10   6  31  1   
 11   7   9  ar  
 12   7  10  1   
 13   8  11  1   
 14   8  32  1   
 15   8  33  1   
 16   9  34  1   
 17  10  12  2   
 18  10  13  2   
 19  10  14  am  
 20  11  35  1   
 21  11  36  1   
 22  11  37  1   
 23  14  15  1   
 24  14  16  1   
 25  15  17  1   
 26  15  38  1   
 27  15  39  1   
 28  16  18  1   
 29  16  40  1   
 30  16  41  1   
 31  17  19  1   
 32  17  42  1   
 33  17  43  1   
 34  18  19  1   
 35  18  44  1   
 36  18  45  1   
 37  19  20  1   
 38  19  46  1   
 39  20  21  2   
 40  20  22  am  
 41  22  23  1   
 42  22  47  1   
 43  23  24  1   
 44  23  48  1   
 45  23  49  1   
 46  24  25  ar  
 47  24  26  ar  
 48  25  27  ar  
 49  26  28  ar  
 50  26  50  1   
 51  27  29  ar  
 52  27  51  1   
 53  28  29  ar  
 54  28  52  1   
 55  29  53  1   
@<TRIPOS>SUBSTRUCTURE
  1 ****  14 GROUP 4 **** **** 0

# MOE 2024.06 (io_trps.svl 2023.06)
