@<TRIPOS>MOLECULE
(2,3-Dimethyl-phenyl)-(5-fluoro-2-morpholin-4-yl-pyrimidin-4-yl)-amine
41 43 1 0 0 
SMALL
USER_CHARGES


@<TRIPOS>ATOM
  1 F        0.2050    -0.2930    -1.1340 F     1 <1>  -0.1900 
  2 C        1.3340    -0.8920    -0.8170 C.ar  1 <1>   0.1900 
  3 C        1.3820    -2.2660    -0.6460 C.ar  1 <1>   0.4100 
  4 C        2.4730    -0.1570    -0.6480 C.ar  1 <1>   0.1600 
  5 N        2.5190    -2.8420    -0.3130 N.ar  1 <1>  -0.6200 
  6 N        0.2430    -3.0480    -0.8020 N.pl3 1 <1>  -0.6000 
  7 N        3.6140    -0.7300    -0.3220 N.ar  1 <1>  -0.6200 
  8 C        3.5820    -2.0560    -0.1670 C.ar  1 <1>   0.7200 
  9 C        0.0740    -4.4410    -0.7950 C.ar  1 <1>   0.1000 
 10 N        4.7670    -2.6760     0.1790 N.pl3 1 <1>  -0.8380 
 11 C       -1.0560    -5.0180    -0.2020 C.ar  1 <1>  -0.1430 
 12 C        1.0080    -5.2620    -1.4140 C.ar  1 <1>  -0.1500 
 13 C        6.0020    -1.8970     0.5060 C.3   1 <1>   0.2090 
 14 C        4.7870    -4.0710     0.7280 C.3   1 <1>   0.2090 
 15 C       -1.2360    -6.3990    -0.2550 C.ar  1 <1>  -0.1430 
 16 C       -2.0750    -4.1130     0.4970 C.3   1 <1>  -0.0970 
 17 C        0.8360    -6.6300    -1.4530 C.ar  1 <1>  -0.1500 
 18 C        7.2720    -2.7270     0.2460 C.3   1 <1>   0.1200 
 19 C        6.1360    -4.7600     0.4570 C.3   1 <1>   0.1200 
 20 C       -0.2850    -7.1940    -0.8760 C.ar  1 <1>  -0.1500 
 21 C       -2.4520    -7.0920     0.3490 C.3   1 <1>  -0.0970 
 22 O        7.2080    -3.9690     0.8900 O.3   1 <1>  -0.5600 
 23 H        2.4530     0.9100    -0.7800 H     1 <1>   0.1500 
 24 H       -0.6260    -2.5190    -0.8650 H     1 <1>   0.4000 
 25 H        1.8740    -4.8230    -1.8740 H     1 <1>   0.1500 
 26 H        5.9730    -1.6060     1.5410 H     1 <1>   0.0800 
 27 H        6.0550    -1.0040    -0.0910 H     1 <1>   0.0800 
 28 H        4.0100    -4.6700     0.2870 H     1 <1>   0.0800 
 29 H        4.6140    -4.0350     1.7890 H     1 <1>   0.0800 
 30 H       -1.5720    -3.3460     1.0580 H     1 <1>   0.0800 
 31 H       -2.6860    -4.6530     1.1930 H     1 <1>   0.0800 
 32 H       -2.7130    -3.6520    -0.2350 H     1 <1>   0.0800 
 33 H        1.5690    -7.2520    -1.9340 H     1 <1>   0.1500 
 34 H        8.1350    -2.2070     0.6210 H     1 <1>   0.0800 
 35 H        7.3990    -2.8920    -0.8090 H     1 <1>   0.0800 
 36 H        6.2500    -4.9500    -0.5960 H     1 <1>   0.0800 
 37 H        6.1830    -5.6960     0.9840 H     1 <1>   0.0800 
 38 H       -0.4090    -8.2620    -0.9170 H     1 <1>   0.1500 
 39 H       -3.3560    -6.6350    -0.0120 H     1 <1>   0.0800 
 40 H       -2.4200    -7.0190     1.4210 H     1 <1>   0.0800 
 41 H       -2.4770    -8.1330     0.0820 H     1 <1>   0.0800 
@<TRIPOS>BOND
  1   1   2  1   
  2   2   3  ar  
  3   2   4  ar  
  4   3   5  ar  
  5   3   6  1   
  6   4   7  ar  
  7   4  23  1   
  8   5   8  ar  
  9   6   9  1   
 10   6  24  1   
 11   7   8  ar  
 12   8  10  1   
 13   9  11  ar  
 14   9  12  ar  
 15  10  13  1   
 16  10  14  1   
 17  11  15  ar  
 18  11  16  1   
 19  12  17  ar  
 20  12  25  1   
 21  13  18  1   
 22  13  26  1   
 23  13  27  1   
 24  14  19  1   
 25  14  28  1   
 26  14  29  1   
 27  15  20  ar  
 28  15  21  1   
 29  16  30  1   
 30  16  31  1   
 31  16  32  1   
 32  17  20  ar  
 33  17  33  1   
 34  18  22  1   
 35  18  34  1   
 36  18  35  1   
 37  19  22  1   
 38  19  36  1   
 39  19  37  1   
 40  20  38  1   
 41  21  39  1   
 42  21  40  1   
 43  21  41  1   
@<TRIPOS>SUBSTRUCTURE
  1 ****   5 GROUP 4 **** **** 0

# MOE 2024.06 (io_trps.svl 2023.06)
