@<TRIPOS>MOLECULE
1-(2-Ethoxy-phenyl)-5-oxo-pyrrolidine-3-carboxylic acid (5-chloro-2-methyl-pheny
47 49 1 0 0 
SMALL
USER_CHARGES


@<TRIPOS>ATOM
  1 CL      -1.3350    -0.6220     1.8510 Cl    1 <1>  -0.1770 
  2 C       -2.5220     0.6210     1.5480 C.ar  1 <1>   0.1770 
  3 C       -3.8030     0.2620     1.1840 C.ar  1 <1>  -0.1500 
  4 C       -2.1580     1.9450     1.6820 C.ar  1 <1>  -0.1500 
  5 C       -4.7600     1.2420     0.9410 C.ar  1 <1>   0.1170 
  6 C       -3.1030     2.9280     1.4450 C.ar  1 <1>  -0.1500 
  7 N       -6.0790     0.9120     0.5850 N.am  1 <1>  -0.5470 
  8 C       -4.3970     2.5870     1.0770 C.ar  1 <1>  -0.1430 
  9 C       -6.5840    -0.1910    -0.0470 C.2   1 <1>   0.5690 
 10 C       -5.3980     3.7080     0.8210 C.3   1 <1>  -0.0960 
 11 O       -5.9010    -1.1000    -0.4490 O.2   1 <1>  -0.5700 
 12 C       -8.0850    -0.2540    -0.2740 C.3   1 <1>  -0.0190 
 13 C       -8.6880    -1.6310     0.0340 C.3   1 <1>   0.1400 
 14 C       -8.4920     0.0360    -1.7270 C.3   1 <1>  -0.0990 
 15 N       -9.8130    -1.7450    -0.9130 N.am  1 <1>  -0.4770 
 16 C       -9.7080    -0.8280    -1.9120 C.2   1 <1>   0.5690 
 17 C      -10.8090    -2.7260    -0.7440 C.ar  1 <1>   0.1170 
 18 O      -10.4750    -0.6700    -2.8280 O.2   1 <1>  -0.5700 
 19 C      -11.6130    -2.7830     0.4020 C.ar  1 <1>   0.0830 
 20 C      -11.0030    -3.6830    -1.7320 C.ar  1 <1>  -0.1500 
 21 O      -11.5120    -1.8470     1.3770 O.3   1 <1>  -0.3630 
 22 C      -12.5420    -3.7960     0.5640 C.ar  1 <1>  -0.1500 
 23 C      -11.9430    -4.6880    -1.5760 C.ar  1 <1>  -0.1500 
 24 C      -12.1950    -0.6440     1.1190 C.3   1 <1>   0.1200 
 25 C      -12.7090    -4.7500    -0.4250 C.ar  1 <1>  -0.1500 
 26 C      -11.8630     0.3390     2.2370 C.3   1 <1>  -0.2400 
 27 H       -4.0430    -0.7800     1.0980 H     1 <1>   0.1500 
 28 H       -1.1530     2.1990     1.9660 H     1 <1>   0.1500 
 29 H       -2.8170     3.9610     1.5500 H     1 <1>   0.1500 
 30 H       -6.7490     1.6520     0.7810 H     1 <1>   0.3700 
 31 H       -6.1870     3.6740     1.5510 H     1 <1>   0.0800 
 32 H       -5.8180     3.6120    -0.1650 H     1 <1>   0.0800 
 33 H       -4.9230     4.6710     0.8850 H     1 <1>   0.0800 
 34 H       -8.5740     0.4560     0.3690 H     1 <1>   0.0800 
 35 H       -9.0230    -1.6970     1.0540 H     1 <1>   0.0800 
 36 H       -7.9890    -2.4260    -0.1670 H     1 <1>   0.0800 
 37 H       -7.7350    -0.2860    -2.4210 H     1 <1>   0.0800 
 38 H       -8.7240     1.0720    -1.8880 H     1 <1>   0.0800 
 39 H      -10.4110    -3.6360    -2.6280 H     1 <1>   0.1500 
 40 H      -13.1350    -3.8310     1.4600 H     1 <1>   0.1500 
 41 H      -12.0760    -5.4210    -2.3520 H     1 <1>   0.1500 
 42 H      -13.2510    -0.8550     1.0890 H     1 <1>   0.0800 
 43 H      -11.8780    -0.2620     0.1630 H     1 <1>   0.0800 
 44 H      -13.4340    -5.5360    -0.3010 H     1 <1>   0.1500 
 45 H      -12.1820    -0.0590     3.1840 H     1 <1>   0.0800 
 46 H      -12.3750     1.2680     2.0660 H     1 <1>   0.0800 
 47 H      -10.8060     0.5270     2.2630 H     1 <1>   0.0800 
@<TRIPOS>BOND
  1   1   2  1   
  2   2   3  ar  
  3   2   4  ar  
  4   3   5  ar  
  5   3  27  1   
  6   4   6  ar  
  7   4  28  1   
  8   5   7  1   
  9   5   8  ar  
 10   6   8  ar  
 11   6  29  1   
 12   7   9  am  
 13   7  30  1   
 14   8  10  1   
 15   9  11  2   
 16   9  12  1   
 17  10  31  1   
 18  10  32  1   
 19  10  33  1   
 20  12  13  1   
 21  12  14  1   
 22  12  34  1   
 23  13  15  1   
 24  13  35  1   
 25  13  36  1   
 26  14  16  1   
 27  14  37  1   
 28  14  38  1   
 29  15  16  am  
 30  15  17  1   
 31  16  18  2   
 32  17  19  ar  
 33  17  20  ar  
 34  19  21  1   
 35  19  22  ar  
 36  20  23  ar  
 37  20  39  1   
 38  21  24  1   
 39  22  25  ar  
 40  22  40  1   
 41  23  25  ar  
 42  23  41  1   
 43  24  26  1   
 44  24  42  1   
 45  24  43  1   
 46  25  44  1   
 47  26  45  1   
 48  26  46  1   
 49  26  47  1   
@<TRIPOS>SUBSTRUCTURE
  1 ****  12 GROUP 4 **** **** 0

# MOE 2024.06 (io_trps.svl 2023.06)
