@<TRIPOS>MOLECULE
1-(4-Ethoxy-phenyl)-5-oxo-pyrrolidine-3-carboxylic acid 2-oxo-2-p-tolyl-ethyl es
51 53 1 0 0 
SMALL
USER_CHARGES


@<TRIPOS>ATOM
  1 O        2.4670     0.1600     0.4620 O.2   1 <1>  -0.5700 
  2 C        3.3640    -0.5880     0.1630 C.2   1 <1>   0.5690 
  3 N        3.3010    -1.9460     0.0400 N.am  1 <1>  -0.4770 
  4 C        4.7470    -0.0750    -0.1280 C.3   1 <1>  -0.0990 
  5 C        2.1770    -2.7870     0.1810 C.ar  1 <1>   0.1170 
  6 C        4.6190    -2.4960    -0.3340 C.3   1 <1>   0.1400 
  7 C        5.4300    -1.2770    -0.7960 C.3   1 <1>  -0.0190 
  8 C        0.9150    -2.3750    -0.2370 C.ar  1 <1>  -0.1500 
  9 C        2.3020    -4.0600     0.7320 C.ar  1 <1>  -0.1500 
 10 C        6.9150    -1.3770    -0.4950 C.2   1 <1>   0.6590 
 11 C       -0.1820    -3.2090    -0.1180 C.ar  1 <1>  -0.1500 
 12 C        1.2090    -4.9000     0.8540 C.ar  1 <1>  -0.1500 
 13 O        7.4020    -2.3330     0.0490 O.2   1 <1>  -0.5700 
 14 O        7.6480    -0.3410    -0.8710 O.3   1 <1>  -0.4300 
 15 C       -0.0460    -4.4760     0.4250 C.ar  1 <1>   0.0830 
 16 C        9.0560    -0.3320    -0.6860 C.3   1 <1>   0.1810 
 17 O       -1.1720    -5.2320     0.5030 O.3   1 <1>  -0.3630 
 18 C        9.6530     0.9920    -1.1450 C.2   1 <1>   0.4230 
 19 C       -1.1440    -6.5180     1.0770 C.3   1 <1>   0.1200 
 20 O       10.4130     0.9480    -2.0810 O.2   1 <1>  -0.5700 
 21 C        9.3100     2.2260    -0.4620 C.ar  1 <1>   0.0860 
 22 C       -2.5590    -7.0850     1.0310 C.3   1 <1>  -0.2400 
 23 C        9.8090     3.4450    -0.9280 C.ar  1 <1>  -0.1500 
 24 C        8.4900     2.2790     0.6710 C.ar  1 <1>  -0.1500 
 25 C        9.5090     4.6440    -0.3090 C.ar  1 <1>  -0.1500 
 26 C        8.1870     3.4760     1.2940 C.ar  1 <1>  -0.1500 
 27 C        8.6930     4.6680     0.8080 C.ar  1 <1>  -0.1430 
 28 C        8.3610     5.9820     1.4910 C.3   1 <1>  -0.0970 
 29 H        5.2180     0.1840     0.8020 H     1 <1>   0.0800 
 30 H        4.7130     0.7810    -0.7760 H     1 <1>   0.0800 
 31 H        4.5220    -3.2260    -1.1200 H     1 <1>   0.0800 
 32 H        5.0600    -2.9540     0.5350 H     1 <1>   0.0800 
 33 H        5.3130    -1.1920    -1.8620 H     1 <1>   0.0800 
 34 H        0.7880    -1.3950    -0.6590 H     1 <1>   0.1500 
 35 H        3.2590    -4.4010     1.0780 H     1 <1>   0.1500 
 36 H       -1.1520    -2.8810    -0.4440 H     1 <1>   0.1500 
 37 H        1.3520    -5.8720     1.2830 H     1 <1>   0.1500 
 38 H        9.4750    -1.1380    -1.2630 H     1 <1>   0.0800 
 39 H        9.2720    -0.4980     0.3540 H     1 <1>   0.0800 
 40 H       -0.8030    -6.4290     2.0940 H     1 <1>   0.0800 
 41 H       -0.4690    -7.1320     0.5060 H     1 <1>   0.0800 
 42 H       -3.2270    -6.4550     1.5890 H     1 <1>   0.0800 
 43 H       -2.5710    -8.0690     1.4640 H     1 <1>   0.0800 
 44 H       -2.8960    -7.1530     0.0120 H     1 <1>   0.0800 
 45 H       10.4470     3.4510    -1.7960 H     1 <1>   0.1500 
 46 H        8.0750     1.3800     1.0870 H     1 <1>   0.1500 
 47 H        9.9160     5.5600    -0.7010 H     1 <1>   0.1500 
 48 H        7.5530     3.4790     2.1640 H     1 <1>   0.1500 
 49 H        7.3870     5.9360     1.9440 H     1 <1>   0.0800 
 50 H        8.3650     6.7880     0.7790 H     1 <1>   0.0800 
 51 H        9.0900     6.1900     2.2540 H     1 <1>   0.0800 
@<TRIPOS>BOND
  1   1   2  2   
  2   2   3  am  
  3   2   4  1   
  4   3   5  1   
  5   3   6  1   
  6   4   7  1   
  7   4  29  1   
  8   4  30  1   
  9   5   8  ar  
 10   5   9  ar  
 11   6   7  1   
 12   6  31  1   
 13   6  32  1   
 14   7  10  1   
 15   7  33  1   
 16   8  11  ar  
 17   8  34  1   
 18   9  12  ar  
 19   9  35  1   
 20  10  13  2   
 21  10  14  1   
 22  11  15  ar  
 23  11  36  1   
 24  12  15  ar  
 25  12  37  1   
 26  14  16  1   
 27  15  17  1   
 28  16  18  1   
 29  16  38  1   
 30  16  39  1   
 31  17  19  1   
 32  18  20  2   
 33  18  21  1   
 34  19  22  1   
 35  19  40  1   
 36  19  41  1   
 37  21  23  ar  
 38  21  24  ar  
 39  22  42  1   
 40  22  43  1   
 41  22  44  1   
 42  23  25  ar  
 43  23  45  1   
 44  24  26  ar  
 45  24  46  1   
 46  25  27  ar  
 47  25  47  1   
 48  26  27  ar  
 49  26  48  1   
 50  27  28  1   
 51  28  49  1   
 52  28  50  1   
 53  28  51  1   
@<TRIPOS>SUBSTRUCTURE
  1 ****   4 GROUP 4 **** **** 0

# MOE 2024.06 (io_trps.svl 2023.06)
