@<TRIPOS>MOLECULE
5,5-Dimethyl-2-piperidin-1-ylmethyl-5,6-dihydro-3H-benzo[h]quinazolin-4-one
50 53 1 0 0 
SMALL
USER_CHARGES


@<TRIPOS>ATOM
  1 O        0.4140     0.8810    -1.4220 O.2   1 <1>  -0.5700 
  2 C        0.1790     1.9840    -0.9580 C.2   1 <1>   0.7670 
  3 N        1.2750     2.7930    -0.8200 N.2   1 <1>  -0.6610 
  4 C       -1.1240     2.4430    -0.5930 C.2   1 <1>  -0.1240 
  5 C        1.1080     3.9940    -0.4110 C.2   1 <1>   0.4390 
  6 C       -1.2670     3.7500    -0.2230 C.2   1 <1>   0.0720 
  7 C       -2.3770     1.5370    -0.6420 C.3   1 <1>   0.1380 
  8 N       -0.1220     4.5040    -0.1150 N.pl3 1 <1>  -0.5500 
  9 C        2.3560     4.8860    -0.2590 C.3   1 <1>   0.4040 
 10 C       -2.5490     4.3670     0.0460 C.ar  1 <1>   0.0280 
 11 C       -3.4260     2.0420     0.3800 C.3   1 <1>  -0.0160 
 12 C       -2.9620     1.5990    -2.0620 C.3   1 <1>  -0.2400 
 13 C       -2.1120     0.0600    -0.2830 C.3   1 <1>  -0.2400 
 14 N        3.6330     4.0920    -0.3490 N.4   1 <1>  -0.9590 
 15 C       -3.6370     3.5470     0.3330 C.ar  1 <1>  -0.1440 
 16 C       -2.7640     5.7460     0.0050 C.ar  1 <1>  -0.1500 
 17 C        3.9170     3.3480     0.9130 C.3   1 <1>   0.3430 
 18 C        4.7940     4.8910    -0.8280 C.3   1 <1>   0.3430 
 19 C       -4.8870     4.0850     0.5870 C.ar  1 <1>  -0.1500 
 20 C       -4.0110     6.2850     0.2600 C.ar  1 <1>  -0.1500 
 21 C        5.0980     2.4020     0.6940 C.3   1 <1>  -0.1600 
 22 C        5.9880     3.9660    -1.0700 C.3   1 <1>  -0.1600 
 23 C       -5.0760     5.4540     0.5540 C.ar  1 <1>  -0.1500 
 24 C        6.3370     3.1450     0.1780 C.3   1 <1>  -0.1600 
 25 H       -0.2370     5.4630     0.2210 H     1 <1>   0.4000 
 26 H        2.3150     5.4060     0.6820 H     1 <1>   0.0800 
 27 H        2.3330     5.6160    -1.0510 H     1 <1>   0.0800 
 28 H       -3.0960     1.7960     1.3740 H     1 <1>   0.0800 
 29 H       -4.3620     1.5380     0.2180 H     1 <1>   0.0800 
 30 H       -3.2170     2.6110    -2.3240 H     1 <1>   0.0800 
 31 H       -3.8480     0.9950    -2.1360 H     1 <1>   0.0800 
 32 H       -2.2440     1.2360    -2.7770 H     1 <1>   0.0800 
 33 H       -3.0380    -0.4690    -0.1420 H     1 <1>   0.0800 
 34 H       -1.5810    -0.4480    -1.0680 H     1 <1>   0.0800 
 35 H       -1.5370    -0.0120     0.6220 H     1 <1>   0.0800 
 36 H        3.4280     3.3550    -1.0480 H     1 <1>   0.4500 
 37 H       -1.9640     6.4180    -0.2400 H     1 <1>   0.1500 
 38 H        3.0520     2.7730     1.2050 H     1 <1>   0.0800 
 39 H        4.1520     4.0420     1.7040 H     1 <1>   0.0800 
 40 H        5.0580     5.6320    -0.0900 H     1 <1>   0.0800 
 41 H        4.5430     5.3970    -1.7470 H     1 <1>   0.0800 
 42 H       -5.7220     3.4440     0.8140 H     1 <1>   0.1500 
 43 H       -4.1600     7.3500     0.2270 H     1 <1>   0.1500 
 44 H        4.8110     1.6350    -0.0050 H     1 <1>   0.0800 
 45 H        5.3350     1.9140     1.6240 H     1 <1>   0.0800 
 46 H        6.8400     4.5580    -1.3570 H     1 <1>   0.0800 
 47 H        5.7660     3.3060    -1.8910 H     1 <1>   0.0800 
 48 H       -6.0490     5.8700     0.7520 H     1 <1>   0.1500 
 49 H        7.1160     2.4370    -0.0570 H     1 <1>   0.0800 
 50 H        6.7120     3.8000     0.9480 H     1 <1>   0.0800 
@<TRIPOS>BOND
  1   1   2  2   
  2   2   3  1   
  3   2   4  1   
  4   3   5  2   
  5   4   6  2   
  6   4   7  1   
  7   5   8  1   
  8   5   9  1   
  9   6   8  1   
 10   6  10  1   
 11   7  11  1   
 12   7  12  1   
 13   7  13  1   
 14   8  25  1   
 15   9  14  1   
 16   9  26  1   
 17   9  27  1   
 18  10  15  ar  
 19  10  16  ar  
 20  11  15  1   
 21  11  28  1   
 22  11  29  1   
 23  12  30  1   
 24  12  31  1   
 25  12  32  1   
 26  13  33  1   
 27  13  34  1   
 28  13  35  1   
 29  14  17  1   
 30  14  18  1   
 31  14  36  1   
 32  15  19  ar  
 33  16  20  ar  
 34  16  37  1   
 35  17  21  1   
 36  17  38  1   
 37  17  39  1   
 38  18  22  1   
 39  18  40  1   
 40  18  41  1   
 41  19  23  ar  
 42  19  42  1   
 43  20  23  ar  
 44  20  43  1   
 45  21  24  1   
 46  21  44  1   
 47  21  45  1   
 48  22  24  1   
 49  22  46  1   
 50  22  47  1   
 51  23  48  1   
 52  24  49  1   
 53  24  50  1   
@<TRIPOS>SUBSTRUCTURE
  1 ****   8 GROUP 4 **** **** 0

# MOE 2024.06 (io_trps.svl 2023.06)
