@<TRIPOS>MOLECULE
1-(2,5-Dimethoxy-benzenesulfonyl)-piperidine-4-carboxylic acid (pyridin-2-ylmeth
54 56 1 0 0 
SMALL
USER_CHARGES


@<TRIPOS>ATOM
  1 S       -0.0150     0.3020    -1.5920 S.o2  1 <1>   1.4470 
  2 O        0.3740    -0.7770    -2.4760 O.2   1 <1>  -0.6500 
  3 O       -0.7840     1.3870    -2.1650 O.2   1 <1>  -0.6500 
  4 N        1.4310     0.9780    -1.0110 N.am  1 <1>  -0.8490 
  5 C       -0.8030    -0.4400    -0.1350 C.ar  1 <1>  -0.0090 
  6 C        1.1870     2.1500    -0.1620 C.3   1 <1>   0.1960 
  7 C        2.3270     1.3090    -2.1240 C.3   1 <1>   0.1960 
  8 C       -1.6690     0.2690     0.6940 C.ar  1 <1>   0.0820 
  9 C       -0.5320    -1.7640     0.1950 C.ar  1 <1>  -0.1500 
 10 C        2.5010     2.6590     0.4360 C.3   1 <1>  -0.1600 
 11 C        3.6820     1.7860    -1.5980 C.3   1 <1>  -0.1600 
 12 O       -1.9460     1.5670     0.4530 O.3   1 <1>  -0.3620 
 13 C       -2.2470    -0.3240     1.8080 C.ar  1 <1>  -0.1500 
 14 C       -1.1110    -2.3710     1.3060 C.ar  1 <1>   0.0820 
 15 C        3.5170     2.9980    -0.6660 C.3   1 <1>  -0.0190 
 16 C       -3.2030     1.8430    -0.1260 C.3   1 <1>   0.0400 
 17 C       -1.9700    -1.6420     2.1090 C.ar  1 <1>  -0.1500 
 18 O       -0.8870    -3.6610     1.6650 O.3   1 <1>  -0.3630 
 19 C        4.8490     3.4730    -0.0920 C.2   1 <1>   0.5690 
 20 C       -0.0690    -4.5060     0.8850 C.3   1 <1>   0.0400 
 21 O        5.2180     4.5980    -0.3240 O.2   1 <1>  -0.5700 
 22 N        5.5890     2.6270     0.6620 N.am  1 <1>  -0.7300 
 23 C        6.9230     2.9240     1.2260 C.3   1 <1>   0.2840 
 24 C        7.8400     1.7190     1.0410 C.ar  1 <1>   0.1670 
 25 N        7.4430     0.5750     1.5890 N.ar  1 <1>  -0.6200 
 26 C        9.0190     1.8650     0.3240 C.ar  1 <1>  -0.1500 
 27 C        8.2590    -0.4550     1.4200 C.ar  1 <1>   0.1600 
 28 C        9.8560     0.7820     0.1560 C.ar  1 <1>  -0.1500 
 29 C        9.4550    -0.4060     0.7250 C.ar  1 <1>  -0.1500 
 30 H        0.5330     1.8840     0.6490 H     1 <1>   0.0800 
 31 H        0.7130     2.9320    -0.7350 H     1 <1>   0.0800 
 32 H        1.8770     2.0710    -2.7410 H     1 <1>   0.0800 
 33 H        2.4880     0.4360    -2.7360 H     1 <1>   0.0800 
 34 H        0.1420    -2.3130    -0.4360 H     1 <1>   0.1500 
 35 H        2.8960     1.9030     1.0910 H     1 <1>   0.0800 
 36 H        2.3050     3.5370     1.0260 H     1 <1>   0.0800 
 37 H        4.3110     2.0540    -2.4280 H     1 <1>   0.0800 
 38 H        4.1540     0.9710    -1.0770 H     1 <1>   0.0800 
 39 H       -2.9050     0.2480     2.4370 H     1 <1>   0.1500 
 40 H        3.1160     3.8090    -1.2470 H     1 <1>   0.0800 
 41 H       -3.2650     2.9010    -0.3050 H     1 <1>   0.0800 
 42 H       -3.9800     1.5340     0.5490 H     1 <1>   0.0800 
 43 H       -3.2810     1.3120    -1.0590 H     1 <1>   0.0800 
 44 H       -2.4130    -2.1140     2.9680 H     1 <1>   0.1500 
 45 H       -0.0560    -5.4770     1.3470 H     1 <1>   0.0800 
 46 H        0.9270    -4.1010     0.8580 H     1 <1>   0.0800 
 47 H       -0.4840    -4.5780    -0.1050 H     1 <1>   0.0800 
 48 H        5.3040     1.6550     0.8100 H     1 <1>   0.3700 
 49 H        6.8220     3.1280     2.2770 H     1 <1>   0.0800 
 50 H        7.3400     3.7930     0.7480 H     1 <1>   0.0800 
 51 H        9.2820     2.8160    -0.1030 H     1 <1>   0.1500 
 52 H        7.9570    -1.3900     1.8600 H     1 <1>   0.1500 
 53 H       10.7780     0.8620    -0.3940 H     1 <1>   0.1500 
 54 H       10.0610    -1.2890     0.6330 H     1 <1>   0.1500 
@<TRIPOS>BOND
  1   1   2  2   
  2   1   3  2   
  3   1   4  am  
  4   1   5  1   
  5   4   6  1   
  6   4   7  1   
  7   5   8  ar  
  8   5   9  ar  
  9   6  10  1   
 10   6  30  1   
 11   6  31  1   
 12   7  11  1   
 13   7  32  1   
 14   7  33  1   
 15   8  12  1   
 16   8  13  ar  
 17   9  14  ar  
 18   9  34  1   
 19  10  15  1   
 20  10  35  1   
 21  10  36  1   
 22  11  15  1   
 23  11  37  1   
 24  11  38  1   
 25  12  16  1   
 26  13  17  ar  
 27  13  39  1   
 28  14  17  ar  
 29  14  18  1   
 30  15  19  1   
 31  15  40  1   
 32  16  41  1   
 33  16  42  1   
 34  16  43  1   
 35  17  44  1   
 36  18  20  1   
 37  19  21  2   
 38  19  22  am  
 39  20  45  1   
 40  20  46  1   
 41  20  47  1   
 42  22  23  1   
 43  22  48  1   
 44  23  24  1   
 45  23  49  1   
 46  23  50  1   
 47  24  25  ar  
 48  24  26  ar  
 49  25  27  ar  
 50  26  28  ar  
 51  26  51  1   
 52  27  29  ar  
 53  27  52  1   
 54  28  29  ar  
 55  28  53  1   
 56  29  54  1   
@<TRIPOS>SUBSTRUCTURE
  1 ****   4 GROUP 4 **** **** 0

# MOE 2024.06 (io_trps.svl 2023.06)
