@<TRIPOS>MOLECULE
N-[2-Methyl-5-(3-methyl-[1,2,4]triazolo[3,4-b][1,3,4]thiadiazol-6-yl)-phenyl]-is
39 41 1 0 0 
SMALL
USER_CHARGES


@<TRIPOS>ATOM
  1 S        0.2450     0.4520    -0.4460 S.3   1 <1>  -0.1970 
  2 C       -1.3070    -0.3310    -0.2970 C.2   1 <1>   0.2420 
  3 C        1.0430    -1.1330    -0.2110 C.2   1 <1>   0.5050 
  4 N       -2.5400     0.0300    -0.3340 N.2   1 <1>  -0.3380 
  5 N       -1.1060    -1.6190    -0.0990 N.pl3 1 <1>   0.5050 
  6 N        0.2030    -2.0950    -0.0490 N.2   1 <1>  -0.6520 
  7 C        2.4930    -1.1940    -0.2250 C.ar  1 <1>   0.0860 
  8 N       -3.2300    -1.1130    -0.1440 N.2   1 <1>  -0.3380 
  9 C       -2.3670    -2.0740    -0.0080 C.2   1 <1>   0.0060 
 10 C        3.3100    -0.0780    -0.4170 C.ar  1 <1>  -0.1500 
 11 C        3.1370    -2.4180    -0.0370 C.ar  1 <1>  -0.1500 
 12 C       -2.7110    -3.5320     0.2250 C.3   1 <1>  -0.0600 
 13 C        4.6940    -0.1630    -0.4190 C.ar  1 <1>   0.1170 
 14 C        4.5150    -2.5210    -0.0370 C.ar  1 <1>  -0.1500 
 15 N        5.4360     1.0050    -0.6270 N.am  1 <1>  -0.5470 
 16 C        5.3050    -1.4020    -0.2270 C.ar  1 <1>  -0.1430 
 17 C        6.1880     1.6790     0.2930 C.2   1 <1>   0.5690 
 18 C        6.8210    -1.5500    -0.2140 C.3   1 <1>  -0.0960 
 19 O        6.2690     1.3270     1.4440 O.2   1 <1>  -0.5700 
 20 C        6.9530     2.9220    -0.1740 C.3   1 <1>  -0.0190 
 21 C        8.4710     2.6840    -0.1430 C.3   1 <1>  -0.2400 
 22 C        6.5960     4.1600     0.6660 C.3   1 <1>  -0.2400 
 23 H        2.8760     0.8930    -0.5590 H     1 <1>   0.1500 
 24 H        2.5490    -3.3070     0.1150 H     1 <1>   0.1500 
 25 H       -2.3180    -4.1340    -0.5740 H     1 <1>   0.0800 
 26 H       -3.7780    -3.6570     0.2620 H     1 <1>   0.0800 
 27 H       -2.2890    -3.8640     1.1560 H     1 <1>   0.0800 
 28 H        4.9710    -3.4840     0.1170 H     1 <1>   0.1500 
 29 H        5.3840     1.4080    -1.5600 H     1 <1>   0.3700 
 30 H        7.2540    -1.0550    -1.0630 H     1 <1>   0.0800 
 31 H        7.1100    -2.5850    -0.2430 H     1 <1>   0.0800 
 32 H        7.2200    -1.1120     0.6840 H     1 <1>   0.0800 
 33 H        6.6740     3.1290    -1.1920 H     1 <1>   0.0800 
 34 H        8.7950     2.4850     0.8650 H     1 <1>   0.0800 
 35 H        8.9970     3.5470    -0.5100 H     1 <1>   0.0800 
 36 H        8.7280     1.8380    -0.7550 H     1 <1>   0.0800 
 37 H        6.8780     4.0050     1.6940 H     1 <1>   0.0800 
 38 H        5.5370     4.3410     0.6290 H     1 <1>   0.0800 
 39 H        7.1080     5.0300     0.2950 H     1 <1>   0.0800 
@<TRIPOS>BOND
  1   1   2  1   
  2   1   3  1   
  3   2   4  2   
  4   2   5  1   
  5   3   6  2   
  6   3   7  1   
  7   4   8  1   
  8   5   6  1   
  9   5   9  1   
 10   7  10  ar  
 11   7  11  ar  
 12   8   9  2   
 13   9  12  1   
 14  10  13  ar  
 15  10  23  1   
 16  11  14  ar  
 17  11  24  1   
 18  12  25  1   
 19  12  26  1   
 20  12  27  1   
 21  13  15  1   
 22  13  16  ar  
 23  14  16  ar  
 24  14  28  1   
 25  15  17  am  
 26  15  29  1   
 27  16  18  1   
 28  17  19  2   
 29  17  20  1   
 30  18  30  1   
 31  18  31  1   
 32  18  32  1   
 33  20  21  1   
 34  20  22  1   
 35  20  33  1   
 36  21  34  1   
 37  21  35  1   
 38  21  36  1   
 39  22  37  1   
 40  22  38  1   
 41  22  39  1   
@<TRIPOS>SUBSTRUCTURE
  1 ****  10 GROUP 4 **** **** 0

# MOE 2024.06 (io_trps.svl 2023.06)
