@<TRIPOS>MOLECULE
5,7-Dichloro-1,2,3,4-tetrahydro-quinolin-8-ol
22 23 1 0 0 
SMALL
USER_CHARGES


@<TRIPOS>ATOM
  1 CL      -0.0560    -0.0680     0.5100 Cl    1 <1>  -0.1770 
  2 C        1.4610     0.7680     0.2530 C.ar  1 <1>   0.1770 
  3 C        2.6650     0.0810     0.2690 C.ar  1 <1>   0.0830 
  4 C        1.4320     2.1330     0.0440 C.ar  1 <1>  -0.1500 
  5 O        2.7230    -1.2410     0.5420 O.3   1 <1>  -0.5330 
  6 C        3.8730     0.7490     0.0430 C.ar  1 <1>   0.1000 
  7 C        2.6290     2.7980    -0.1380 C.ar  1 <1>   0.1770 
  8 N        5.0660     0.0040    -0.0230 N.pl3 1 <1>  -0.8690 
  9 C        3.8510     2.1350    -0.1290 C.ar  1 <1>  -0.1430 
 10 CL       2.5580     4.5280    -0.3940 Cl    1 <1>  -0.1770 
 11 C        6.3610     0.6930    -0.2600 C.3   1 <1>   0.2090 
 12 C        5.1580     2.9000    -0.3100 C.3   1 <1>  -0.0170 
 13 C        6.3250     2.1150     0.2920 C.3   1 <1>  -0.1600 
 14 H        0.4990     2.6630     0.0290 H     1 <1>   0.1500 
 15 H        3.6520    -1.4650     0.7510 H     1 <1>   0.4500 
 16 H        4.9790    -0.7970    -0.6610 H     1 <1>   0.4000 
 17 H        6.5590     0.7190    -1.3190 H     1 <1>   0.0800 
 18 H        7.1490     0.1380     0.2210 H     1 <1>   0.0800 
 19 H        5.1040     3.8590     0.1730 H     1 <1>   0.0800 
 20 H        5.3260     3.0590    -1.3610 H     1 <1>   0.0800 
 21 H        7.2520     2.6130     0.0700 H     1 <1>   0.0800 
 22 H        6.2180     2.0710     1.3620 H     1 <1>   0.0800 
@<TRIPOS>BOND
  1   1   2  1   
  2   2   3  ar  
  3   2   4  ar  
  4   3   5  1   
  5   3   6  ar  
  6   4   7  ar  
  7   4  14  1   
  8   5  15  1   
  9   6   8  1   
 10   6   9  ar  
 11   7   9  ar  
 12   7  10  1   
 13   8  11  1   
 14   8  16  1   
 15   9  12  1   
 16  11  13  1   
 17  11  17  1   
 18  11  18  1   
 19  12  13  1   
 20  12  19  1   
 21  12  20  1   
 22  13  21  1   
 23  13  22  1   
@<TRIPOS>SUBSTRUCTURE
  1 ****   6 GROUP 4 **** **** 0

# MOE 2024.06 (io_trps.svl 2023.06)
