@<TRIPOS>MOLECULE
5-[3-(3,5-Dimethyl-pyrazol-1-yl)-2-hydroxy-propoxy]-1,2-dimethyl-1H-indole-3-car
55 57 1 0 0 
SMALL
USER_CHARGES


@<TRIPOS>ATOM
  1 O       -0.8690    -1.2550    -1.3320 O.2   1 <1>  -0.5700 
  2 C        0.0550    -1.8130    -0.7690 C.2   1 <1>   0.8060 
  3 O        1.2550    -1.2200    -0.8060 O.3   1 <1>  -0.4300 
  4 C       -0.0710    -3.0620    -0.0500 C.2   1 <1>  -0.0860 
  5 C        1.4620     0.0030    -1.4750 C.3   1 <1>   0.1200 
  6 C       -1.3240    -3.6100     0.3550 C.ar  1 <1>   0.0000 
  7 C        0.8860    -3.9480     0.4000 C.2   1 <1>  -0.3320 
  8 C        2.9340     0.3750    -1.3300 C.3   1 <1>  -0.2400 
  9 C       -1.0570    -4.7850     1.0480 C.ar  1 <1>  -0.1520 
 10 C       -2.6560    -3.2060     0.1940 C.ar  1 <1>  -0.1500 
 11 N        0.3010    -4.9740     1.0750 N.pl3 1 <1>   0.0480 
 12 C        2.3990    -3.8890     0.2120 C.3   1 <1>  -0.0600 
 13 C       -2.0900    -5.5620     1.5820 C.ar  1 <1>  -0.1500 
 14 C       -3.6810    -3.9690     0.7230 C.ar  1 <1>   0.0830 
 15 C        0.9600    -6.1180     1.7380 C.3   1 <1>   0.0160 
 16 C       -3.3900    -5.1470     1.4160 C.ar  1 <1>  -0.1500 
 17 O       -5.0010    -3.6530     0.6220 O.3   1 <1>  -0.3630 
 18 C       -5.4190    -2.5450    -0.1490 C.3   1 <1>   0.1200 
 19 C       -6.9460    -2.3970    -0.0760 C.3   1 <1>   0.2000 
 20 O       -7.5560    -3.4270    -0.7790 O.3   1 <1>  -0.6800 
 21 C       -7.4140    -1.0600    -0.6600 C.3   1 <1>   0.0960 
 22 N       -8.8680    -0.8860    -0.4550 N.pl3 1 <1>   0.3140 
 23 N       -9.7600    -1.6650    -1.0990 N.2   1 <1>  -0.7070 
 24 C       -9.4900    -0.0120     0.3710 C.2   1 <1>  -0.3320 
 25 C      -10.9180    -1.2680    -0.6790 C.2   1 <1>   0.1080 
 26 C      -10.8150    -0.2350     0.2430 C.2   1 <1>  -0.1500 
 27 C       -8.8020     1.0100     1.2600 C.3   1 <1>  -0.0600 
 28 C      -12.2090    -1.8850    -1.1610 C.3   1 <1>  -0.0590 
 29 H        0.8280     0.7490    -1.0260 H     1 <1>   0.0800 
 30 H        1.1960    -0.1240    -2.5110 H     1 <1>   0.0800 
 31 H        3.1870     0.4860    -0.2910 H     1 <1>   0.0800 
 32 H        3.1230     1.3080    -1.8290 H     1 <1>   0.0800 
 33 H        3.5540    -0.3830    -1.7740 H     1 <1>   0.0800 
 34 H       -2.8490    -2.3010    -0.3450 H     1 <1>   0.1500 
 35 H        2.6820    -3.1710    -0.5330 H     1 <1>   0.0800 
 36 H        2.7710    -4.8450    -0.1090 H     1 <1>   0.0800 
 37 H        2.8740    -3.6230     1.1400 H     1 <1>   0.0800 
 38 H       -1.8700    -6.4700     2.1120 H     1 <1>   0.1500 
 39 H        0.4720    -6.3130     2.6750 H     1 <1>   0.0800 
 40 H        1.9930    -5.8940     1.9250 H     1 <1>   0.0800 
 41 H        0.8840    -6.9820     1.1050 H     1 <1>   0.0800 
 42 H       -4.2070    -5.7210     1.8120 H     1 <1>   0.1500 
 43 H       -5.1010    -2.6920    -1.1670 H     1 <1>   0.0800 
 44 H       -4.9470    -1.6700     0.2600 H     1 <1>   0.0800 
 45 H       -7.2580    -2.4630     0.9530 H     1 <1>   0.0800 
 46 H       -8.5020    -3.1760    -0.9430 H     1 <1>   0.4000 
 47 H       -7.2080    -1.0260    -1.7140 H     1 <1>   0.0800 
 48 H       -6.8970    -0.2510    -0.1840 H     1 <1>   0.0800 
 49 H      -11.6340     0.2580     0.7340 H     1 <1>   0.1500 
 50 H       -8.2340     1.7020     0.6630 H     1 <1>   0.0800 
 51 H       -8.1460     0.5180     1.9560 H     1 <1>   0.0800 
 52 H       -9.5350     1.5660     1.8180 H     1 <1>   0.0800 
 53 H      -12.2210    -2.9300    -0.9130 H     1 <1>   0.0800 
 54 H      -12.2800    -1.7790    -2.2280 H     1 <1>   0.0800 
 55 H      -13.0510    -1.4030    -0.7010 H     1 <1>   0.0800 
@<TRIPOS>BOND
  1   1   2  2   
  2   2   3  1   
  3   2   4  1   
  4   3   5  1   
  5   4   6  1   
  6   4   7  2   
  7   5   8  1   
  8   5  29  1   
  9   5  30  1   
 10   6   9  ar  
 11   6  10  ar  
 12   7  11  1   
 13   7  12  1   
 14   8  31  1   
 15   8  32  1   
 16   8  33  1   
 17   9  11  1   
 18   9  13  ar  
 19  10  14  ar  
 20  10  34  1   
 21  11  15  1   
 22  12  35  1   
 23  12  36  1   
 24  12  37  1   
 25  13  16  ar  
 26  13  38  1   
 27  14  16  ar  
 28  14  17  1   
 29  15  39  1   
 30  15  40  1   
 31  15  41  1   
 32  16  42  1   
 33  17  18  1   
 34  18  19  1   
 35  18  43  1   
 36  18  44  1   
 37  19  20  1   
 38  19  21  1   
 39  19  45  1   
 40  20  46  1   
 41  21  22  1   
 42  21  47  1   
 43  21  48  1   
 44  22  23  1   
 45  22  24  1   
 46  23  25  2   
 47  24  26  2   
 48  24  27  1   
 49  25  26  1   
 50  25  28  1   
 51  26  49  1   
 52  27  50  1   
 53  27  51  1   
 54  27  52  1   
 55  28  53  1   
 56  28  54  1   
 57  28  55  1   
@<TRIPOS>SUBSTRUCTURE
  1 ****  10 GROUP 4 **** **** 0

# MOE 2024.06 (io_trps.svl 2023.06)
