@<TRIPOS>MOLECULE
1-[2-(4-Methoxy-phenyl)-acetyl]-piperidine-4-carboxylic acid amide
40 41 1 0 0 
SMALL
USER_CHARGES


@<TRIPOS>ATOM
  1 O       -1.6030    -0.7800    -0.0680 O.2   1 <1>  -0.5700 
  2 C       -1.6410    -1.6450     0.7680 C.2   1 <1>   0.5690 
  3 N       -0.8230    -1.5770     1.8340 N.am  1 <1>  -0.8000 
  4 C       -2.6060    -2.8210     0.6290 C.3   1 <1>  -0.0190 
  5 C       -2.1440    -3.7890    -0.4750 C.3   1 <1>  -0.1600 
  6 C       -4.0440    -2.3490     0.3450 C.3   1 <1>  -0.1600 
  7 C       -3.1170    -4.9590    -0.6440 C.3   1 <1>   0.1400 
  8 C       -5.0030    -3.5290     0.1670 C.3   1 <1>   0.1400 
  9 N       -4.4910    -4.4400    -0.8950 N.am  1 <1>  -0.6600 
 10 C       -5.2120    -4.8550    -1.9920 C.2   1 <1>   0.5690 
 11 O       -4.7650    -5.6640    -2.7730 O.2   1 <1>  -0.5700 
 12 C       -6.6060    -4.3130    -2.2910 C.3   1 <1>   0.0440 
 13 C       -7.6670    -4.7470    -1.2820 C.ar  1 <1>  -0.1430 
 14 C       -7.7120    -6.0560    -0.8270 C.ar  1 <1>  -0.1500 
 15 C       -8.6010    -3.8350    -0.8110 C.ar  1 <1>  -0.1500 
 16 C       -8.6700    -6.4440     0.0920 C.ar  1 <1>  -0.1500 
 17 C       -9.5610    -4.2200     0.1080 C.ar  1 <1>  -0.1500 
 18 C       -9.5990    -5.5330     0.5680 C.ar  1 <1>   0.0830 
 19 O      -10.5020    -5.9940     1.4690 O.3   1 <1>  -0.3630 
 20 C      -11.5120    -5.1580     1.9870 C.3   1 <1>   0.0400 
 21 H       -0.1800    -0.7880     1.9100 H     1 <1>   0.3700 
 22 H       -0.7850    -2.2700     2.5800 H     1 <1>   0.3700 
 23 H       -2.6130    -3.3570     1.5610 H     1 <1>   0.0800 
 24 H       -1.1670    -4.1710    -0.2380 H     1 <1>   0.0800 
 25 H       -2.0690    -3.2620    -1.4120 H     1 <1>   0.0800 
 26 H       -4.0600    -1.7520    -0.5510 H     1 <1>   0.0800 
 27 H       -4.3870    -1.7300     1.1540 H     1 <1>   0.0800 
 28 H       -3.1290    -5.5620     0.2470 H     1 <1>   0.0800 
 29 H       -2.7870    -5.5790    -1.4600 H     1 <1>   0.0800 
 30 H       -5.9790    -3.1510    -0.0740 H     1 <1>   0.0800 
 31 H       -5.0830    -4.0800     1.0880 H     1 <1>   0.0800 
 32 H       -6.9030    -4.6590    -3.2640 H     1 <1>   0.0800 
 33 H       -6.5460    -3.2420    -2.3400 H     1 <1>   0.0800 
 34 H       -7.0020    -6.7820    -1.1870 H     1 <1>   0.1500 
 35 H       -8.5870    -2.8170    -1.1600 H     1 <1>   0.1500 
 36 H       -8.7040    -7.4580     0.4460 H     1 <1>   0.1500 
 37 H      -10.2680    -3.4900     0.4520 H     1 <1>   0.1500 
 38 H      -12.1110    -5.7390     2.6650 H     1 <1>   0.0800 
 39 H      -12.1210    -4.8010     1.1750 H     1 <1>   0.0800 
 40 H      -11.0520    -4.3410     2.5140 H     1 <1>   0.0800 
@<TRIPOS>BOND
  1   1   2  2   
  2   2   3  am  
  3   2   4  1   
  4   3  21  1   
  5   3  22  1   
  6   4   5  1   
  7   4   6  1   
  8   4  23  1   
  9   5   7  1   
 10   5  24  1   
 11   5  25  1   
 12   6   8  1   
 13   6  26  1   
 14   6  27  1   
 15   7   9  1   
 16   7  28  1   
 17   7  29  1   
 18   8   9  1   
 19   8  30  1   
 20   8  31  1   
 21   9  10  am  
 22  10  11  2   
 23  10  12  1   
 24  12  13  1   
 25  12  32  1   
 26  12  33  1   
 27  13  14  ar  
 28  13  15  ar  
 29  14  16  ar  
 30  14  34  1   
 31  15  17  ar  
 32  15  35  1   
 33  16  18  ar  
 34  16  36  1   
 35  17  18  ar  
 36  17  37  1   
 37  18  19  1   
 38  19  20  1   
 39  20  38  1   
 40  20  39  1   
 41  20  40  1   
@<TRIPOS>SUBSTRUCTURE
  1 ****   8 GROUP 4 **** **** 0

# MOE 2024.06 (io_trps.svl 2023.06)
