@<TRIPOS>MOLECULE
1-Morpholin-4-yl-4-(3-m-tolyl-[1,2,4]oxadiazol-5-yl)-butan-1-one
44 46 1 0 0 
SMALL
USER_CHARGES


@<TRIPOS>ATOM
  1 O       -0.6990    -0.9190    -1.5100 O.2   1 <1>  -0.5700 
  2 C       -1.4160    -1.5950    -0.8120 C.2   1 <1>   0.5690 
  3 N       -1.0080    -2.8040    -0.3050 N.am  1 <1>  -0.6600 
  4 C       -2.7990    -1.0430    -0.5060 C.3   1 <1>  -0.0990 
  5 C        0.3460    -3.3540    -0.6160 C.3   1 <1>   0.1400 
  6 C       -1.8110    -3.7160     0.5700 C.3   1 <1>   0.1400 
  7 C       -2.8680    -0.4140     0.9010 C.3   1 <1>  -0.1600 
  8 C        0.2410    -4.8090    -1.1010 C.3   1 <1>   0.1200 
  9 C       -1.7930    -5.1520     0.0190 C.3   1 <1>   0.1200 
 10 C       -4.3130    -0.2060     1.3820 C.3   1 <1>   0.0200 
 11 O       -0.4790    -5.5870    -0.1850 O.3   1 <1>  -0.5600 
 12 C       -5.0360    -1.5300     1.5490 C.2   1 <1>   0.2980 
 13 O       -4.6000    -2.3740     2.4480 O.3   1 <1>  -0.0190 
 14 N       -6.0280    -1.9250     0.8670 N.2   1 <1>  -0.5650 
 15 N       -5.3740    -3.4040     2.3140 N.2   1 <1>  -0.4100 
 16 C       -6.2280    -3.1410     1.3890 C.2   1 <1>   0.4620 
 17 C       -7.2830    -4.0310     0.9290 C.ar  1 <1>   0.0540 
 18 C       -8.1920    -3.6460    -0.0590 C.ar  1 <1>  -0.1500 
 19 C       -7.4270    -5.3140     1.4610 C.ar  1 <1>  -0.1500 
 20 C       -9.1960    -4.4910    -0.5000 C.ar  1 <1>  -0.1440 
 21 C       -8.4240    -6.1670     1.0270 C.ar  1 <1>  -0.1500 
 22 C       -9.3080    -5.7580     0.0460 C.ar  1 <1>  -0.1500 
 23 C      -10.1690    -4.0420    -1.5750 C.3   1 <1>  -0.0970 
 24 H       -3.5170    -1.8290    -0.6320 H     1 <1>   0.0800 
 25 H       -3.0360    -0.2910    -1.2370 H     1 <1>   0.0800 
 26 H        0.9550    -3.3190     0.2700 H     1 <1>   0.0800 
 27 H        0.8320    -2.7650    -1.3740 H     1 <1>   0.0800 
 28 H       -2.8300    -3.3920     0.6520 H     1 <1>   0.0800 
 29 H       -1.3870    -3.7180     1.5590 H     1 <1>   0.0800 
 30 H       -2.3540     0.5320     0.8830 H     1 <1>   0.0800 
 31 H       -2.3530    -1.0430     1.6070 H     1 <1>   0.0800 
 32 H        1.2220    -5.2390    -1.1980 H     1 <1>   0.0800 
 33 H       -0.2530    -4.8530    -2.0560 H     1 <1>   0.0800 
 34 H       -2.3240    -5.2050    -0.9160 H     1 <1>   0.0800 
 35 H       -2.2570    -5.8230     0.7190 H     1 <1>   0.0800 
 36 H       -4.8490     0.4050     0.6760 H     1 <1>   0.0800 
 37 H       -4.3100     0.3050     2.3280 H     1 <1>   0.0800 
 38 H       -8.1070    -2.6630    -0.4880 H     1 <1>   0.1500 
 39 H       -6.7490    -5.6490     2.2260 H     1 <1>   0.1500 
 40 H       -8.5120    -7.1520     1.4520 H     1 <1>   0.1500 
 41 H      -10.0830    -6.4260    -0.2880 H     1 <1>   0.1500 
 42 H      -10.1760    -2.9700    -1.6600 H     1 <1>   0.0800 
 43 H      -11.1640    -4.3690    -1.3350 H     1 <1>   0.0800 
 44 H       -9.8840    -4.4620    -2.5230 H     1 <1>   0.0800 
@<TRIPOS>BOND
  1   1   2  2   
  2   2   3  am  
  3   2   4  1   
  4   3   5  1   
  5   3   6  1   
  6   4   7  1   
  7   4  24  1   
  8   4  25  1   
  9   5   8  1   
 10   5  26  1   
 11   5  27  1   
 12   6   9  1   
 13   6  28  1   
 14   6  29  1   
 15   7  10  1   
 16   7  30  1   
 17   7  31  1   
 18   8  11  1   
 19   8  32  1   
 20   8  33  1   
 21   9  11  1   
 22   9  34  1   
 23   9  35  1   
 24  10  12  1   
 25  10  36  1   
 26  10  37  1   
 27  12  13  1   
 28  12  14  2   
 29  13  15  1   
 30  14  16  1   
 31  15  16  2   
 32  16  17  1   
 33  17  18  ar  
 34  17  19  ar  
 35  18  20  ar  
 36  18  38  1   
 37  19  21  ar  
 38  19  39  1   
 39  20  22  ar  
 40  20  23  1   
 41  21  22  ar  
 42  21  40  1   
 43  22  41  1   
 44  23  42  1   
 45  23  43  1   
 46  23  44  1   
@<TRIPOS>SUBSTRUCTURE
  1 ****  16 GROUP 4 **** **** 0

# MOE 2024.06 (io_trps.svl 2023.06)
