@<TRIPOS>MOLECULE
8-(4-Ethyl-piperazin-1-yl)-7-[2-(4-methoxy-phenyl)-ethyl]-3-methyl-3,7-dihydro-p
60 63 1 0 0 
SMALL
USER_CHARGES


@<TRIPOS>ATOM
  1 O        1.1630     0.4750     1.3440 O.2   1 <1>  -0.5740 
  2 C        2.0840     1.0040     0.7690 C.2   1 <1>   0.6870 
  3 N        3.4000     0.6040     0.9480 N.am  1 <1>  -0.4410 
  4 N        1.8130     2.0350    -0.0820 N.am  1 <1>  -0.4940 
  5 C        4.3830     1.2920     0.2500 C.2   1 <1>   0.4210 
  6 C        3.7380    -0.5230     1.8680 C.3   1 <1>   0.0530 
  7 C        2.7690     2.7200    -0.7750 C.2   1 <1>   0.7000 
  8 N        5.7240     1.0900     0.2970 N.pl3 1 <1>  -0.7030 
  9 C        4.1350     2.3090    -0.6020 C.2   1 <1>   0.2720 
 10 O        2.4270     3.6420    -1.4870 O.2   1 <1>  -0.5740 
 11 C        6.3280     1.9570    -0.5220 C.cat 1 <1>   1.0690 
 12 N        5.3870     2.7320    -1.1060 N.pl3 1 <1>  -0.7670 
 13 N        7.6870     1.9640    -0.6520 N.pl3 1 <1>  -0.5960 
 14 C        5.4470     3.9660    -1.9590 C.3   1 <1>   0.3490 
 15 C        8.5410     1.5080     0.5170 C.3   1 <1>   0.1620 
 16 C        8.3840     2.5840    -1.8390 C.3   1 <1>   0.1620 
 17 C        5.5170     5.2440    -1.1040 C.3   1 <1>  -0.0230 
 18 C       10.0790     1.6030     0.3790 C.3   1 <1>   0.3380 
 19 C        9.9220     2.4720    -1.8760 C.3   1 <1>   0.3380 
 20 C        6.8360     5.3220    -0.3530 C.ar  1 <1>  -0.1500 
 21 N       10.5280     2.6890    -0.5300 N.4   1 <1>  -0.9610 
 22 C        6.9570     4.7840     0.9210 C.ar  1 <1>  -0.1560 
 23 C        7.9400     5.9070    -0.9570 C.ar  1 <1>  -0.1560 
 24 C       12.0140     2.7480    -0.5630 C.3   1 <1>   0.3380 
 25 C        8.1890     4.7510     1.5460 C.ar  1 <1>  -0.1560 
 26 C        9.1750     5.8730    -0.3360 C.ar  1 <1>  -0.1560 
 27 C       12.4760     4.0060    -1.2900 C.3   1 <1>  -0.2460 
 28 C        9.3020     5.2610     0.9010 C.ar  1 <1>   0.0760 
 29 O       10.5090     5.1030     1.4740 O.3   1 <1>  -0.3670 
 30 C       11.1930     6.2830     1.8450 C.3   1 <1>   0.0330 
 31 H        0.8380     2.3080    -0.1900 H     1 <1>   0.3650 
 32 H        2.8450    -1.0280     2.1990 H     1 <1>   0.0730 
 33 H        4.2540    -0.1460     2.7340 H     1 <1>   0.0730 
 34 H        4.3570    -1.2420     1.3610 H     1 <1>   0.0730 
 35 H        6.1780     0.3600     0.8340 H     1 <1>   0.4460 
 36 H        4.5700     4.0140    -2.5820 H     1 <1>   0.0730 
 37 H        6.2820     3.9300    -2.6310 H     1 <1>   0.0730 
 38 H        8.3080     0.4820     0.7470 H     1 <1>   0.0730 
 39 H        8.2630     2.0870     1.3810 H     1 <1>   0.0730 
 40 H        8.1660     3.6280    -1.8630 H     1 <1>   0.0730 
 41 H        7.9890     2.1550    -2.7440 H     1 <1>   0.0730 
 42 H        4.6860     5.2820    -0.4210 H     1 <1>   0.0730 
 43 H        5.4280     6.0990    -1.7510 H     1 <1>   0.0730 
 44 H       10.4480     0.6610     0.0060 H     1 <1>   0.0730 
 45 H       10.5090     1.7480     1.3580 H     1 <1>   0.0730 
 46 H       10.3010     3.2000    -2.5730 H     1 <1>   0.0730 
 47 H       10.1990     1.4970    -2.2420 H     1 <1>   0.0730 
 48 H       10.2110     3.5980    -0.1360 H     1 <1>   0.4460 
 49 H        6.0940     4.3900     1.4300 H     1 <1>   0.1440 
 50 H        7.8500     6.3840    -1.9200 H     1 <1>   0.1440 
 51 H       12.4140     1.8730    -1.0510 H     1 <1>   0.0730 
 52 H       12.3930     2.7760     0.4470 H     1 <1>   0.0730 
 53 H        8.2950     4.3370     2.5340 H     1 <1>   0.1440 
 54 H       10.0300     6.3160    -0.8150 H     1 <1>   0.1440 
 55 H       12.2160     3.9840    -2.3320 H     1 <1>   0.0730 
 56 H       13.5480     4.0690    -1.2260 H     1 <1>   0.0730 
 57 H       12.0690     4.8860    -0.8280 H     1 <1>   0.0730 
 58 H       12.0770     6.0050     2.3910 H     1 <1>   0.0730 
 59 H       10.5500     6.8780     2.4700 H     1 <1>   0.0730 
 60 H       11.4660     6.8320     0.9620 H     1 <1>   0.0730 
@<TRIPOS>BOND
  1   1   2  2   
  2   2   3  am  
  3   2   4  am  
  4   3   5  1   
  5   3   6  1   
  6   4   7  am  
  7   4  31  1   
  8   5   8  1   
  9   5   9  2   
 10   6  32  1   
 11   6  33  1   
 12   6  34  1   
 13   7   9  1   
 14   7  10  2   
 15   8  11  ar  
 16   8  35  1   
 17   9  12  1   
 18  11  12  ar  
 19  11  13  ar  
 20  12  14  1   
 21  13  15  1   
 22  13  16  1   
 23  14  17  1   
 24  14  36  1   
 25  14  37  1   
 26  15  18  1   
 27  15  38  1   
 28  15  39  1   
 29  16  19  1   
 30  16  40  1   
 31  16  41  1   
 32  17  20  1   
 33  17  42  1   
 34  17  43  1   
 35  18  21  1   
 36  18  44  1   
 37  18  45  1   
 38  19  21  1   
 39  19  46  1   
 40  19  47  1   
 41  20  22  ar  
 42  20  23  ar  
 43  21  24  1   
 44  21  48  1   
 45  22  25  ar  
 46  22  49  1   
 47  23  26  ar  
 48  23  50  1   
 49  24  27  1   
 50  24  51  1   
 51  24  52  1   
 52  25  28  ar  
 53  25  53  1   
 54  26  28  ar  
 55  26  54  1   
 56  27  55  1   
 57  27  56  1   
 58  27  57  1   
 59  28  29  1   
 60  29  30  1   
 61  30  58  1   
 62  30  59  1   
 63  30  60  1   
@<TRIPOS>SUBSTRUCTURE
  1 ****  11 GROUP 4 **** **** 0

# MOE 2024.06 (io_trps.svl 2023.06)
