@<TRIPOS>MOLECULE
7-(3-Ethoxy-4-hydroxy-phenyl)-5-methyl-4,7-dihydro-tetrazolo[1,5-a]pyrimidine-6-
44 46 1 0 0 
SMALL
USER_CHARGES


@<TRIPOS>ATOM
  1 O       -1.2230    -1.7740    -0.0860 O.2   1 <1>  -0.5700 
  2 C       -0.0730    -1.8260    -0.4760 C.2   1 <1>   0.7060 
  3 O        0.1440    -1.8580    -1.7990 O.3   1 <1>  -0.4300 
  4 C        1.0680    -1.8560     0.3890 C.2   1 <1>  -0.1240 
  5 C       -0.9000    -1.8070    -2.7520 C.3   1 <1>   0.1200 
  6 C        1.1060    -2.1800     1.7200 C.2   1 <1>  -0.0380 
  7 C        2.3680    -1.4330    -0.3280 C.3   1 <1>   0.4570 
  8 C       -1.4130    -3.2250    -2.9990 C.3   1 <1>  -0.2400 
  9 N        2.2890    -2.1570     2.4270 N.pl3 1 <1>  -0.5840 
 10 C       -0.0830    -2.6040     2.5700 C.3   1 <1>  -0.1020 
 11 N        3.5630    -1.6090     0.5260 N.pl3 1 <1>   0.3140 
 12 C        2.2880     0.0290    -0.7750 C.ar  1 <1>  -0.1440 
 13 C        3.5030    -1.9310     1.7990 C.2   1 <1>   0.2700 
 14 N        4.8390    -1.5170     0.1900 N.2   1 <1>  -0.4180 
 15 C        1.8800     1.0190     0.1090 C.ar  1 <1>  -0.1500 
 16 C        2.6210     0.3830    -2.0740 C.ar  1 <1>  -0.1500 
 17 N        4.6830    -2.0250     2.2870 N.2   1 <1>  -0.3380 
 18 N        5.5010    -1.7620     1.2650 N.2   1 <1>   0.0000 
 19 C        1.7880     2.3460    -0.2770 C.ar  1 <1>   0.0830 
 20 C        2.5430     1.7040    -2.4790 C.ar  1 <1>  -0.1500 
 21 O        1.3580     3.1860     0.7080 O.3   1 <1>  -0.3630 
 22 C        2.1310     2.6890    -1.5960 C.ar  1 <1>   0.0830 
 23 C        1.0350     4.5360     0.4810 C.3   1 <1>   0.1200 
 24 O        2.0930     3.9510    -2.0730 O.3   1 <1>  -0.5330 
 25 C        0.4570     5.1070     1.7730 C.3   1 <1>  -0.2400 
 26 H       -0.4930    -1.3940    -3.6580 H     1 <1>   0.0800 
 27 H       -1.6830    -1.1580    -2.3950 H     1 <1>   0.0800 
 28 H        2.5170    -2.0630    -1.1860 H     1 <1>   0.0800 
 29 H       -0.6150    -3.8570    -3.3440 H     1 <1>   0.0800 
 30 H       -2.1820    -3.2030    -3.7500 H     1 <1>   0.0800 
 31 H       -1.8350    -3.6320    -2.0970 H     1 <1>   0.0800 
 32 H        2.3300    -2.3840     3.4270 H     1 <1>   0.4000 
 33 H       -0.4410    -1.7650     3.1390 H     1 <1>   0.0800 
 34 H        0.2050    -3.3850     3.2510 H     1 <1>   0.0800 
 35 H       -0.8920    -2.9860     1.9770 H     1 <1>   0.0800 
 36 H        1.6220     0.7750     1.1250 H     1 <1>   0.1500 
 37 H        2.9450    -0.3630    -2.7790 H     1 <1>   0.1500 
 38 H        2.8100     1.9570    -3.4890 H     1 <1>   0.1500 
 39 H        0.3110     4.5840    -0.3150 H     1 <1>   0.0800 
 40 H        1.9330     5.0580     0.2020 H     1 <1>   0.0800 
 41 H        2.4080     4.0170    -2.9910 H     1 <1>   0.4500 
 42 H       -0.4290     4.5650     2.0510 H     1 <1>   0.0800 
 43 H        0.1980     6.1400     1.6290 H     1 <1>   0.0800 
 44 H        1.1840     5.0400     2.5620 H     1 <1>   0.0800 
@<TRIPOS>BOND
  1   1   2  2   
  2   2   3  1   
  3   2   4  1   
  4   3   5  1   
  5   4   6  2   
  6   4   7  1   
  7   5   8  1   
  8   5  26  1   
  9   5  27  1   
 10   6   9  1   
 11   6  10  1   
 12   7  11  1   
 13   7  12  1   
 14   7  28  1   
 15   8  29  1   
 16   8  30  1   
 17   8  31  1   
 18   9  13  1   
 19   9  32  1   
 20  10  33  1   
 21  10  34  1   
 22  10  35  1   
 23  11  13  1   
 24  11  14  1   
 25  12  15  ar  
 26  12  16  ar  
 27  13  17  2   
 28  14  18  2   
 29  15  19  ar  
 30  15  36  1   
 31  16  20  ar  
 32  16  37  1   
 33  17  18  1   
 34  19  21  1   
 35  19  22  ar  
 36  20  22  ar  
 37  20  38  1   
 38  21  23  1   
 39  22  24  1   
 40  23  25  1   
 41  23  39  1   
 42  23  40  1   
 43  24  41  1   
 44  25  42  1   
 45  25  43  1   
 46  25  44  1   
@<TRIPOS>SUBSTRUCTURE
  1 ****  12 GROUP 4 **** **** 0

# MOE 2024.06 (io_trps.svl 2023.06)
