@<TRIPOS>MOLECULE
1-Methanesulfonyl-piperidine-3-carboxylic acid (3-fluoro-phenyl)-amide
37 38 1 0 0 
SMALL
USER_CHARGES


@<TRIPOS>ATOM
  1 S        0.2050     0.0720     0.9470 S.o2  1 <1>   1.3330 
  2 O        0.6550     1.1860     1.7480 O.2   1 <1>  -0.6500 
  3 O       -0.8510    -0.7930     1.4170 O.2   1 <1>  -0.6500 
  4 N        1.5550    -0.8930     0.6000 N.am  1 <1>  -0.8490 
  5 C       -0.2950     0.7160    -0.6390 C.3   1 <1>  -0.1350 
  6 C        2.7130    -0.1510     0.0900 C.3   1 <1>   0.1960 
  7 C        1.2570    -2.1080    -0.1610 C.3   1 <1>   0.1960 
  8 C        3.9680    -1.0330     0.1220 C.3   1 <1>  -0.0190 
  9 C        2.4710    -3.0430    -0.1530 C.3   1 <1>  -0.1600 
 10 C        5.1540    -0.2560    -0.4290 C.2   1 <1>   0.5690 
 11 C        3.7370    -2.3390    -0.6610 C.3   1 <1>  -0.1600 
 12 O        5.0150     0.3500    -1.4630 O.2   1 <1>  -0.5700 
 13 N        6.3270    -0.3000     0.2750 N.am  1 <1>  -0.5470 
 14 C        7.5660     0.3160     0.0380 C.ar  1 <1>   0.1170 
 15 C        8.6990    -0.2230     0.6340 C.ar  1 <1>  -0.1500 
 16 C        7.7130     1.4560    -0.7550 C.ar  1 <1>  -0.1500 
 17 C        9.9250     0.3740     0.4210 C.ar  1 <1>   0.1900 
 18 C        8.9520     2.0410    -0.9580 C.ar  1 <1>  -0.1500 
 19 F       10.9810    -0.1460     0.9870 F     1 <1>  -0.1900 
 20 C       10.0790     1.4980    -0.3660 C.ar  1 <1>  -0.1500 
 21 H       -0.5480    -0.0830    -1.3070 H     1 <1>   0.0800 
 22 H        0.4890     1.3040    -1.0720 H     1 <1>   0.0800 
 23 H       -1.1580     1.3410    -0.5160 H     1 <1>   0.0800 
 24 H        2.8870     0.7190     0.7020 H     1 <1>   0.0800 
 25 H        2.5230     0.1780    -0.9180 H     1 <1>   0.0800 
 26 H        0.9990    -1.8540    -1.1760 H     1 <1>   0.0800 
 27 H        0.4210    -2.6230     0.2850 H     1 <1>   0.0800 
 28 H        4.1620    -1.2730     1.1520 H     1 <1>   0.0800 
 29 H        2.2630    -3.9020    -0.7660 H     1 <1>   0.0800 
 30 H        2.6270    -3.3920     0.8540 H     1 <1>   0.0800 
 31 H        4.5880    -2.9900    -0.5520 H     1 <1>   0.0800 
 32 H        3.6240    -2.1130    -1.7080 H     1 <1>   0.0800 
 33 H        6.3130    -0.9090     1.0910 H     1 <1>   0.3700 
 34 H        8.6390    -1.0980     1.2530 H     1 <1>   0.1500 
 35 H        6.8520     1.9000    -1.2200 H     1 <1>   0.1500 
 36 H        9.0360     2.9180    -1.5770 H     1 <1>   0.1500 
 37 H       11.0520     1.9330    -0.5080 H     1 <1>   0.1500 
@<TRIPOS>BOND
  1   1   2  2   
  2   1   3  2   
  3   1   4  am  
  4   1   5  1   
  5   4   6  1   
  6   4   7  1   
  7   5  21  1   
  8   5  22  1   
  9   5  23  1   
 10   6   8  1   
 11   6  24  1   
 12   6  25  1   
 13   7   9  1   
 14   7  26  1   
 15   7  27  1   
 16   8  10  1   
 17   8  11  1   
 18   8  28  1   
 19   9  11  1   
 20   9  29  1   
 21   9  30  1   
 22  10  12  2   
 23  10  13  am  
 24  11  31  1   
 25  11  32  1   
 26  13  14  1   
 27  13  33  1   
 28  14  15  ar  
 29  14  16  ar  
 30  15  17  ar  
 31  15  34  1   
 32  16  18  ar  
 33  16  35  1   
 34  17  19  1   
 35  17  20  ar  
 36  18  20  ar  
 37  18  36  1   
 38  20  37  1   
@<TRIPOS>SUBSTRUCTURE
  1 ****  10 GROUP 4 **** **** 0

# MOE 2024.06 (io_trps.svl 2023.06)
