@<TRIPOS>MOLECULE
N-[5-(4-Chloro-benzyl)-[1,3,4]thiadiazol-2-yl]-butyramide
33 34 1 0 0 
SMALL
USER_CHARGES


@<TRIPOS>ATOM
  1 CL       0.2720    -4.1220     0.2010 Cl    1 <1>  -0.1770 
  2 C        1.7290    -3.1610     0.1880 C.ar  1 <1>   0.1770 
  3 C        2.3030    -2.7850     1.3870 C.ar  1 <1>  -0.1500 
  4 C        2.2860    -2.7890    -1.0200 C.ar  1 <1>  -0.1500 
  5 C        3.4570    -2.0190     1.3750 C.ar  1 <1>  -0.1500 
  6 C        3.4400    -2.0240    -1.0270 C.ar  1 <1>  -0.1500 
  7 C        4.0280    -1.6330     0.1690 C.ar  1 <1>  -0.1430 
  8 C        5.2960    -0.7880     0.1450 C.3   1 <1>   0.1640 
  9 C        6.4890    -1.5950    -0.3270 C.2   1 <1>   0.1980 
 10 S        7.0810    -2.8530     0.7020 S.3   1 <1>  -0.0800 
 11 N        7.1560    -1.4830    -1.4040 N.2   1 <1>  -0.3380 
 12 C        8.2920    -3.1650    -0.5040 C.2   1 <1>   0.4420 
 13 N        8.1840    -2.3780    -1.5120 N.2   1 <1>  -0.3380 
 14 N        9.2400    -4.1540    -0.3620 N.am  1 <1>  -0.4940 
 15 C        9.5150    -5.0100     0.6650 C.2   1 <1>   0.5690 
 16 O        8.9210    -5.0160     1.7110 O.2   1 <1>  -0.5700 
 17 C       10.6450    -6.0030     0.4630 C.3   1 <1>  -0.0990 
 18 C       12.0280    -5.3350     0.5240 C.3   1 <1>  -0.1600 
 19 C       13.1490    -6.3590     0.3250 C.3   1 <1>  -0.2400 
 20 H        1.8520    -3.0900     2.3140 H     1 <1>   0.1500 
 21 H        1.8220    -3.0970    -1.9400 H     1 <1>   0.1500 
 22 H        3.9050    -1.7300     2.3110 H     1 <1>   0.1500 
 23 H        3.8800    -1.7370    -1.9670 H     1 <1>   0.1500 
 24 H        5.5050    -0.3930     1.1220 H     1 <1>   0.0800 
 25 H        5.1530     0.0440    -0.5210 H     1 <1>   0.0800 
 26 H        9.8480    -4.2310    -1.1720 H     1 <1>   0.3700 
 27 H       10.5120    -6.4950    -0.4840 H     1 <1>   0.0800 
 28 H       10.5770    -6.7520     1.2320 H     1 <1>   0.0800 
 29 H       12.1490    -4.8590     1.4840 H     1 <1>   0.0800 
 30 H       12.1060    -4.5740    -0.2340 H     1 <1>   0.0800 
 31 H       13.1100    -7.1150     1.0910 H     1 <1>   0.0800 
 32 H       14.1070    -5.8720     0.3790 H     1 <1>   0.0800 
 33 H       13.0630    -6.8360    -0.6360 H     1 <1>   0.0800 
@<TRIPOS>BOND
  1   1   2  1   
  2   2   3  ar  
  3   2   4  ar  
  4   3   5  ar  
  5   3  20  1   
  6   4   6  ar  
  7   4  21  1   
  8   5   7  ar  
  9   5  22  1   
 10   6   7  ar  
 11   6  23  1   
 12   7   8  1   
 13   8   9  1   
 14   8  24  1   
 15   8  25  1   
 16   9  10  1   
 17   9  11  2   
 18  10  12  1   
 19  11  13  1   
 20  12  13  2   
 21  12  14  1   
 22  14  15  am  
 23  14  26  1   
 24  15  16  2   
 25  15  17  1   
 26  17  18  1   
 27  17  27  1   
 28  17  28  1   
 29  18  19  1   
 30  18  29  1   
 31  18  30  1   
 32  19  31  1   
 33  19  32  1   
 34  19  33  1   
@<TRIPOS>SUBSTRUCTURE
  1 ****  10 GROUP 4 **** **** 0

# MOE 2024.06 (io_trps.svl 2023.06)
