@<TRIPOS>MOLECULE
3-(2-Methoxy-ethyl)-1,7-dimethyl-8-(tetrahydro-furan-2-ylmethyl)-1H,8H-imidazo[2
50 53 1 0 0 
SMALL
USER_CHARGES


@<TRIPOS>ATOM
  1 O        1.8980    -0.5690     0.9150 O.2   1 <1>  -0.5740 
  2 C        2.6240     0.4030     0.9320 C.2   1 <1>   0.6860 
  3 N        2.0790     1.6830     0.9140 N.am  1 <1>  -0.4260 
  4 N        4.0030     0.2320     0.9520 N.am  1 <1>  -0.4410 
  5 C        2.8880     2.8090     0.8300 C.2   1 <1>   0.6990 
  6 C        0.5920     1.8460     0.9690 C.3   1 <1>   0.1330 
  7 C        4.8000     1.3570     0.8890 C.2   1 <1>   0.4210 
  8 C        4.6030    -1.1330     1.0090 C.3   1 <1>   0.0520 
  9 O        2.4070     3.9270     0.7500 O.2   1 <1>  -0.5740 
 10 C        4.2990     2.6140     0.8230 C.2   1 <1>   0.2710 
 11 C       -0.0130     1.7670    -0.4320 C.3   1 <1>   0.1130 
 12 N        6.1600     1.4180     0.8530 N.pl3 1 <1>  -0.7040 
 13 N        5.4060     3.4740     0.7310 N.pl3 1 <1>  -0.6330 
 14 O       -1.3800     1.9880    -0.3230 O.3   1 <1>  -0.5650 
 15 C        6.4860     2.7040     0.7430 C.cat 1 <1>   1.0690 
 16 C        5.8440     4.7760     0.5970 C.2   1 <1>   0.2220 
 17 C       -2.0600     1.9150    -1.5340 C.3   1 <1>   0.0320 
 18 N        7.6110     3.4230     0.6270 N.pl3 1 <1>  -0.5720 
 19 C        7.1950     4.7450     0.5350 C.2   1 <1>   0.1580 
 20 C        9.0150     2.9060     0.6820 C.3   1 <1>   0.1600 
 21 C        8.1660     5.9030     0.3920 C.3   1 <1>  -0.1090 
 22 C        9.3210     1.8370    -0.3860 C.3   1 <1>   0.1930 
 23 O        8.5150     0.7100    -0.2170 O.3   1 <1>  -0.5650 
 24 C       10.7400     1.2920    -0.3070 C.3   1 <1>  -0.1670 
 25 C        9.1030    -0.3830    -0.8580 C.3   1 <1>   0.1130 
 26 C       10.6050    -0.1150    -0.8650 C.3   1 <1>  -0.1670 
 27 H        0.3400     2.7950     1.4110 H     1 <1>   0.0720 
 28 H        0.1640     1.0710     1.5820 H     1 <1>   0.0720 
 29 H        4.7880    -1.4900     0.0110 H     1 <1>   0.0720 
 30 H        3.9320    -1.8170     1.5010 H     1 <1>   0.0720 
 31 H        5.5270    -1.1170     1.5600 H     1 <1>   0.0720 
 32 H        0.1440     0.7900    -0.8560 H     1 <1>   0.0720 
 33 H        0.4030     2.5300    -1.0680 H     1 <1>   0.0720 
 34 H        6.8720     0.7000     0.6590 H     1 <1>   0.4450 
 35 H        5.1650     5.6150     0.5560 H     1 <1>   0.1430 
 36 H       -3.1030     2.0980    -1.3420 H     1 <1>   0.0720 
 37 H       -1.9360     0.9310    -1.9520 H     1 <1>   0.0720 
 38 H       -1.6770     2.6650    -2.2030 H     1 <1>   0.0720 
 39 H        9.2010     2.4910     1.6580 H     1 <1>   0.0720 
 40 H        9.7030     3.7210     0.5450 H     1 <1>   0.0720 
 41 H        8.8250     5.9440     1.2410 H     1 <1>   0.0720 
 42 H        7.6310     6.8350     0.3320 H     1 <1>   0.0720 
 43 H        8.7520     5.7890    -0.5020 H     1 <1>   0.0720 
 44 H        9.1390     2.2280    -1.3740 H     1 <1>   0.0720 
 45 H       11.0700     1.2490     0.7170 H     1 <1>   0.0720 
 46 H       11.4310     1.8910    -0.8750 H     1 <1>   0.0720 
 47 H        8.7160    -0.4360    -1.8620 H     1 <1>   0.0720 
 48 H        8.8560    -1.2810    -0.3170 H     1 <1>   0.0720 
 49 H       11.1300    -0.8310    -0.2570 H     1 <1>   0.0720 
 50 H       10.9800    -0.1740    -1.8720 H     1 <1>   0.0720 
@<TRIPOS>BOND
  1   1   2  2   
  2   2   3  am  
  3   2   4  am  
  4   3   5  am  
  5   3   6  1   
  6   4   7  1   
  7   4   8  1   
  8   5   9  2   
  9   5  10  1   
 10   6  11  1   
 11   6  27  1   
 12   6  28  1   
 13   7  10  2   
 14   7  12  1   
 15   8  29  1   
 16   8  30  1   
 17   8  31  1   
 18  10  13  1   
 19  11  14  1   
 20  11  32  1   
 21  11  33  1   
 22  12  15  ar  
 23  12  34  1   
 24  13  15  ar  
 25  13  16  1   
 26  14  17  1   
 27  15  18  ar  
 28  16  19  2   
 29  16  35  1   
 30  17  36  1   
 31  17  37  1   
 32  17  38  1   
 33  18  19  1   
 34  18  20  1   
 35  19  21  1   
 36  20  22  1   
 37  20  39  1   
 38  20  40  1   
 39  21  41  1   
 40  21  42  1   
 41  21  43  1   
 42  22  23  1   
 43  22  24  1   
 44  22  44  1   
 45  23  25  1   
 46  24  26  1   
 47  24  45  1   
 48  24  46  1   
 49  25  26  1   
 50  25  47  1   
 51  25  48  1   
 52  26  49  1   
 53  26  50  1   
@<TRIPOS>SUBSTRUCTURE
  1 ****   7 GROUP 4 **** **** 0

# MOE 2024.06 (io_trps.svl 2023.06)
