@<TRIPOS>MOLECULE
N-Allyl-4-(3-m-tolyl-[1,2,4]oxadiazol-5-yl)-butyramide
40 41 1 0 0 
SMALL
USER_CHARGES


@<TRIPOS>ATOM
  1 O       -1.1900    -3.2410     1.6830 O.2   1 <1>  -0.5700 
  2 C       -1.0100    -2.8200     0.5680 C.2   1 <1>   0.5690 
  3 N        0.1920    -2.3500     0.1600 N.am  1 <1>  -0.7300 
  4 C       -2.1680    -2.7980    -0.4100 C.3   1 <1>  -0.0990 
  5 C        1.4020    -2.3320     0.9890 C.3   1 <1>   0.2780 
  6 C       -3.0230    -1.5280    -0.2460 C.3   1 <1>  -0.1600 
  7 C        2.5760    -2.5740     0.0660 C.2   1 <1>  -0.2880 
  8 C       -4.1220    -1.3840    -1.3130 C.3   1 <1>   0.0200 
  9 C        3.5480    -1.6950    -0.2010 C.2   1 <1>  -0.3000 
 10 C       -5.1250    -2.5230    -1.2990 C.2   1 <1>   0.2980 
 11 O       -4.8440    -3.6210    -1.9520 O.3   1 <1>  -0.0190 
 12 N       -6.2450    -2.5130    -0.7070 N.2   1 <1>  -0.5650 
 13 N       -5.8740    -4.3790    -1.7520 N.2   1 <1>  -0.4100 
 14 C       -6.7070    -3.7310    -1.0150 C.2   1 <1>   0.4620 
 15 C       -7.9950    -4.2240    -0.5560 C.ar  1 <1>   0.0540 
 16 C       -8.8240    -3.4600     0.2700 C.ar  1 <1>  -0.1500 
 17 C       -8.4580    -5.4890    -0.9240 C.ar  1 <1>  -0.1500 
 18 C      -10.0520    -3.9250     0.7070 C.ar  1 <1>  -0.1440 
 19 C       -9.6820    -5.9640    -0.4920 C.ar  1 <1>  -0.1500 
 20 C      -10.4800    -5.1830     0.3230 C.ar  1 <1>  -0.1500 
 21 C      -10.9280    -3.0690     1.6050 C.3   1 <1>  -0.0970 
 22 H        0.3260    -1.9920    -0.7850 H     1 <1>   0.3700 
 23 H       -2.7680    -3.6720    -0.2270 H     1 <1>   0.0800 
 24 H       -1.7850    -2.8640    -1.4120 H     1 <1>   0.0800 
 25 H        1.3520    -3.0970     1.7460 H     1 <1>   0.0800 
 26 H        1.4890    -1.3730     1.4710 H     1 <1>   0.0800 
 27 H       -2.3830    -0.6640    -0.2930 H     1 <1>   0.0800 
 28 H       -3.4790    -1.5410     0.7300 H     1 <1>   0.0800 
 29 H        2.5500    -3.5600    -0.3670 H     1 <1>   0.1500 
 30 H       -3.6820    -1.3180    -2.2910 H     1 <1>   0.0800 
 31 H       -4.6560    -0.4670    -1.1350 H     1 <1>   0.0800 
 32 H        4.3730    -1.8970    -0.8620 H     1 <1>   0.1500 
 33 H        3.6040    -0.7040     0.2160 H     1 <1>   0.1500 
 34 H       -8.4920    -2.4830     0.5730 H     1 <1>   0.1500 
 35 H       -7.8500    -6.1090    -1.5580 H     1 <1>   0.1500 
 36 H      -10.0160    -6.9430    -0.7910 H     1 <1>   0.1500 
 37 H      -11.4320    -5.5590     0.6570 H     1 <1>   0.1500 
 38 H      -10.6180    -2.0400     1.5720 H     1 <1>   0.0800 
 39 H      -10.8610    -3.4190     2.6190 H     1 <1>   0.0800 
 40 H      -11.9530    -3.1240     1.2840 H     1 <1>   0.0800 
@<TRIPOS>BOND
  1   1   2  2   
  2   2   3  am  
  3   2   4  1   
  4   3   5  1   
  5   3  22  1   
  6   4   6  1   
  7   4  23  1   
  8   4  24  1   
  9   5   7  1   
 10   5  25  1   
 11   5  26  1   
 12   6   8  1   
 13   6  27  1   
 14   6  28  1   
 15   7   9  2   
 16   7  29  1   
 17   8  10  1   
 18   8  30  1   
 19   8  31  1   
 20   9  32  1   
 21   9  33  1   
 22  10  11  1   
 23  10  12  2   
 24  11  13  1   
 25  12  14  1   
 26  13  14  2   
 27  14  15  1   
 28  15  16  ar  
 29  15  17  ar  
 30  16  18  ar  
 31  16  34  1   
 32  17  19  ar  
 33  17  35  1   
 34  18  20  ar  
 35  18  21  1   
 36  19  20  ar  
 37  19  36  1   
 38  20  37  1   
 39  21  38  1   
 40  21  39  1   
 41  21  40  1   
@<TRIPOS>SUBSTRUCTURE
  1 ****  10 GROUP 4 **** **** 0

# MOE 2024.06 (io_trps.svl 2023.06)
