@<TRIPOS>MOLECULE
7-[3-(4,6-Dimethyl-pyrimidin-2-ylsulfanyl)-propyl]-3-methyl-8-pyrrolidin-1-yl-3,
55 58 1 0 0 
SMALL
USER_CHARGES


@<TRIPOS>ATOM
  1 S       -0.5900    -0.2730    -0.1130 S.3   1 <1>  -0.3370 
  2 C        0.3700     1.2310    -0.0040 C.ar  1 <1>   0.7180 
  3 C       -2.3000     0.2880    -0.5330 C.3   1 <1>   0.0630 
  4 N       -0.2940     2.3540    -0.2210 N.ar  1 <1>  -0.6240 
  5 N        1.6440     1.0450     0.2880 N.ar  1 <1>  -0.6240 
  6 C       -3.1920    -0.9510    -0.6540 C.3   1 <1>  -0.1670 
  7 C        0.4380     3.4400    -0.1350 C.ar  1 <1>   0.1600 
  8 C        2.3490     2.1490     0.3680 C.ar  1 <1>   0.1600 
  9 C       -3.3240    -1.6870     0.6820 C.3   1 <1>   0.3490 
 10 C        1.7820     3.3870     0.1610 C.ar  1 <1>  -0.1570 
 11 C       -0.2610     4.7620    -0.3750 C.3   1 <1>  -0.1040 
 12 C        3.8190     2.0030     0.6980 C.3   1 <1>  -0.1040 
 13 N       -4.0370    -2.9760     0.4730 N.pl3 1 <1>  -0.7670 
 14 C       -3.5820    -4.2170     0.2160 C.cat 1 <1>   1.0690 
 15 C       -5.4430    -3.0490     0.5260 C.2   1 <1>   0.2710 
 16 N       -4.6240    -5.0490     0.1300 N.pl3 1 <1>  -0.7030 
 17 N       -2.3100    -4.6510     0.0450 N.pl3 1 <1>  -0.5960 
 18 C       -6.5080    -2.1090     0.7300 C.2   1 <1>   0.7000 
 19 C       -5.7690    -4.3430     0.3160 C.2   1 <1>   0.4210 
 20 C       -1.0690    -3.8300     0.1010 C.3   1 <1>   0.1610 
 21 C       -1.9580    -6.0430    -0.3430 C.3   1 <1>   0.1610 
 22 O       -6.3390    -0.9210     0.9170 O.2   1 <1>  -0.5740 
 23 N       -7.7840    -2.5940     0.7040 N.am  1 <1>  -0.4950 
 24 N       -7.0710    -4.8210     0.2950 N.am  1 <1>  -0.4410 
 25 C        0.0820    -4.7910    -0.1690 C.3   1 <1>  -0.1670 
 26 C       -0.5510    -5.9580    -0.9120 C.3   1 <1>  -0.1670 
 27 C       -8.0940    -3.9050     0.4920 C.2   1 <1>   0.6870 
 28 C       -7.3640    -6.2660     0.0620 C.3   1 <1>   0.0530 
 29 O       -9.2590    -4.2260     0.4800 O.2   1 <1>  -0.5740 
 30 H       -2.2360     0.8220    -1.4660 H     1 <1>   0.0730 
 31 H       -2.6270     0.9540     0.2470 H     1 <1>   0.0730 
 32 H       -2.7770    -1.6000    -1.4040 H     1 <1>   0.0730 
 33 H       -4.1670    -0.6340    -0.9800 H     1 <1>   0.0730 
 34 H       -3.8720    -1.0720     1.3770 H     1 <1>   0.0730 
 35 H       -2.3650    -1.8640     1.1290 H     1 <1>   0.0730 
 36 H        2.3700     4.2820     0.2280 H     1 <1>   0.1430 
 37 H       -1.0410     4.8940     0.3520 H     1 <1>   0.0730 
 38 H       -0.6990     4.7640    -1.3570 H     1 <1>   0.0730 
 39 H        0.4280     5.5830    -0.3000 H     1 <1>   0.0730 
 40 H        3.9280     1.5130     1.6480 H     1 <1>   0.0730 
 41 H        4.3030     2.9610     0.7430 H     1 <1>   0.0730 
 42 H        4.2990     1.4050    -0.0560 H     1 <1>   0.0730 
 43 H       -4.5500    -6.0450    -0.0450 H     1 <1>   0.4450 
 44 H       -0.9410    -3.3730     1.0670 H     1 <1>   0.0730 
 45 H       -1.0970    -3.0770    -0.6680 H     1 <1>   0.0730 
 46 H       -2.6380    -6.4410    -1.0780 H     1 <1>   0.0730 
 47 H       -1.9570    -6.6680     0.5350 H     1 <1>   0.0730 
 48 H       -8.5570    -1.9470     0.8450 H     1 <1>   0.3650 
 49 H        0.4900    -5.1280     0.7680 H     1 <1>   0.0730 
 50 H        0.8680    -4.3210    -0.7360 H     1 <1>   0.0730 
 51 H       -0.6020    -5.7370    -1.9650 H     1 <1>   0.0730 
 52 H       -0.0020    -6.8740    -0.7750 H     1 <1>   0.0730 
 53 H       -7.0820    -6.5380    -0.9400 H     1 <1>   0.0730 
 54 H       -8.4150    -6.4690     0.1850 H     1 <1>   0.0730 
 55 H       -6.8210    -6.8700     0.7670 H     1 <1>   0.0730 
@<TRIPOS>BOND
  1   1   2  1   
  2   1   3  1   
  3   2   4  ar  
  4   2   5  ar  
  5   3   6  1   
  6   3  30  1   
  7   3  31  1   
  8   4   7  ar  
  9   5   8  ar  
 10   6   9  1   
 11   6  32  1   
 12   6  33  1   
 13   7  10  ar  
 14   7  11  1   
 15   8  10  ar  
 16   8  12  1   
 17   9  13  1   
 18   9  34  1   
 19   9  35  1   
 20  10  36  1   
 21  11  37  1   
 22  11  38  1   
 23  11  39  1   
 24  12  40  1   
 25  12  41  1   
 26  12  42  1   
 27  13  14  ar  
 28  13  15  1   
 29  14  16  ar  
 30  14  17  ar  
 31  15  18  1   
 32  15  19  2   
 33  16  19  1   
 34  16  43  1   
 35  17  20  1   
 36  17  21  1   
 37  18  22  2   
 38  18  23  am  
 39  19  24  1   
 40  20  25  1   
 41  20  44  1   
 42  20  45  1   
 43  21  26  1   
 44  21  46  1   
 45  21  47  1   
 46  23  27  am  
 47  23  48  1   
 48  24  27  am  
 49  24  28  1   
 50  25  26  1   
 51  25  49  1   
 52  25  50  1   
 53  26  51  1   
 54  26  52  1   
 55  27  29  2   
 56  28  53  1   
 57  28  54  1   
 58  28  55  1   
@<TRIPOS>SUBSTRUCTURE
  1 ****   9 GROUP 4 **** **** 0

# MOE 2024.06 (io_trps.svl 2023.06)
