@<TRIPOS>MOLECULE
4-Benzo[1,3]dioxol-5-ylmethyl-morpholine-2,3-dione
29 31 1 0 0 
SMALL
USER_CHARGES


@<TRIPOS>ATOM
  1 O       -0.9890    -1.6830     1.6120 O.2   1 <1>  -0.5700 
  2 C       -1.8930    -1.4890     0.8250 C.2   1 <1>   0.7200 
  3 O       -1.8890    -2.2580    -0.2760 O.3   1 <1>  -0.4300 
  4 C       -2.9760    -0.4980     0.9880 C.2   1 <1>   0.6300 
  5 C       -2.6630    -1.9270    -1.4150 C.3   1 <1>   0.1200 
  6 O       -2.9920     0.3140     1.9000 O.2   1 <1>  -0.5700 
  7 N       -4.0240    -0.4700     0.0830 N.am  1 <1>  -0.6600 
  8 C       -4.0770    -1.4710    -1.0190 C.3   1 <1>   0.1400 
  9 C       -5.2270     0.3910     0.2680 C.3   1 <1>   0.2840 
 10 C       -6.4600    -0.4820     0.4380 C.ar  1 <1>  -0.1440 
 11 C       -7.4110    -0.5630    -0.5750 C.ar  1 <1>  -0.1500 
 12 C       -6.6320    -1.2100     1.6160 C.ar  1 <1>  -0.1500 
 13 C       -8.5070    -1.3780    -0.3760 C.ar  1 <1>   0.0830 
 14 C       -7.7430    -2.0240     1.7980 C.ar  1 <1>  -0.1500 
 15 O       -9.5300    -1.6060    -1.2060 O.3   1 <1>  -0.3630 
 16 C       -8.6690    -2.0890     0.7770 C.ar  1 <1>   0.0830 
 17 C      -10.4070    -2.5100    -0.5340 C.3   1 <1>   0.4000 
 18 O       -9.8030    -2.7960     0.7260 O.3   1 <1>  -0.3630 
 19 H       -2.7100    -2.7950    -2.0490 H     1 <1>   0.0800 
 20 H       -2.1540    -1.1410    -1.9450 H     1 <1>   0.0800 
 21 H       -4.6560    -2.3220    -0.6990 H     1 <1>   0.0800 
 22 H       -4.5650    -1.0430    -1.8780 H     1 <1>   0.0800 
 23 H       -5.3380     1.0310    -0.5900 H     1 <1>   0.0800 
 24 H       -5.1200     1.0230     1.1330 H     1 <1>   0.0800 
 25 H       -7.3170    -0.0150    -1.4950 H     1 <1>   0.1500 
 26 H       -5.8930    -1.1430     2.3970 H     1 <1>   0.1500 
 27 H       -7.8880    -2.5900     2.7000 H     1 <1>   0.1500 
 28 H      -10.4990    -3.4160    -1.1050 H     1 <1>   0.0800 
 29 H      -11.3610    -2.0380    -0.3780 H     1 <1>   0.0800 
@<TRIPOS>BOND
  1   1   2  2   
  2   2   3  1   
  3   2   4  1   
  4   3   5  1   
  5   4   6  2   
  6   4   7  am  
  7   5   8  1   
  8   5  19  1   
  9   5  20  1   
 10   7   8  1   
 11   7   9  1   
 12   8  21  1   
 13   8  22  1   
 14   9  10  1   
 15   9  23  1   
 16   9  24  1   
 17  10  11  ar  
 18  10  12  ar  
 19  11  13  ar  
 20  11  25  1   
 21  12  14  ar  
 22  12  26  1   
 23  13  15  1   
 24  13  16  ar  
 25  14  16  ar  
 26  14  27  1   
 27  15  17  1   
 28  16  18  1   
 29  17  18  1   
 30  17  28  1   
 31  17  29  1   
@<TRIPOS>SUBSTRUCTURE
  1 ****  10 GROUP 4 **** **** 0

# MOE 2024.06 (io_trps.svl 2023.06)
