@<TRIPOS>MOLECULE
3-(4-Methoxy-phenyl)-2-methyl-5-propyl-4H-pyrazolo[1,5-a]pyrimidin-7-one
41 43 1 0 0 
SMALL
USER_CHARGES


@<TRIPOS>ATOM
  1 O        0.2030     0.1770     0.3080 O.2   1 <1>  -0.5700 
  2 C        1.2830     0.7230     0.1190 C.2   1 <1>   0.5650 
  3 N        1.4560     2.1340     0.1640 N.pl3 1 <1>   0.5610 
  4 C        2.4430    -0.0570    -0.1620 C.2   1 <1>  -0.1360 
  5 N        0.5480     3.1390     0.4050 N.2   1 <1>  -0.7070 
  6 C        2.6930     2.6820    -0.0490 C.2   1 <1>  -0.0680 
  7 C        3.6630     0.5020    -0.3800 C.2   1 <1>  -0.0380 
  8 C        1.2270     4.2360     0.3400 C.2   1 <1>   0.1080 
  9 N        3.7980     1.8690    -0.3310 N.pl3 1 <1>  -0.5840 
 10 C        2.5840     4.0330     0.0570 C.2   1 <1>  -0.0540 
 11 C        4.9110    -0.3100    -0.6860 C.3   1 <1>  -0.0220 
 12 C        0.5820     5.5870     0.5640 C.3   1 <1>  -0.0590 
 13 C        3.6240     5.0190    -0.0820 C.ar  1 <1>   0.0540 
 14 C        5.9190    -0.2370     0.4690 C.3   1 <1>  -0.1600 
 15 C        4.7440     4.9900     0.7440 C.ar  1 <1>  -0.1500 
 16 C        3.5460     6.0210    -1.0450 C.ar  1 <1>  -0.1500 
 17 C        7.1700    -1.0720     0.1750 C.3   1 <1>  -0.2400 
 18 C        5.7530     5.9280     0.6190 C.ar  1 <1>  -0.1500 
 19 C        4.5500     6.9610    -1.1760 C.ar  1 <1>  -0.1500 
 20 C        5.6600     6.9250    -0.3480 C.ar  1 <1>   0.0830 
 21 O        6.6000     7.8840    -0.5410 O.3   1 <1>  -0.3620 
 22 C        7.7590     7.9430     0.2600 C.3   1 <1>   0.0400 
 23 H        2.2930    -1.1190    -0.1900 H     1 <1>   0.1500 
 24 H        4.7050     2.3190    -0.5210 H     1 <1>   0.4000 
 25 H        5.3610     0.0610    -1.5910 H     1 <1>   0.0800 
 26 H        4.6390    -1.3370    -0.8530 H     1 <1>   0.0800 
 27 H       -0.2880     5.4750     1.1840 H     1 <1>   0.0800 
 28 H        0.2850     6.0060    -0.3790 H     1 <1>   0.0800 
 29 H        1.2700     6.2540     1.0490 H     1 <1>   0.0800 
 30 H        5.4540    -0.5980     1.3700 H     1 <1>   0.0800 
 31 H        6.2090     0.7860     0.6350 H     1 <1>   0.0800 
 32 H        4.8150     4.2230     1.4960 H     1 <1>   0.1500 
 33 H        2.6920     6.0560    -1.6990 H     1 <1>   0.1500 
 34 H        6.9090    -2.1060     0.0340 H     1 <1>   0.0800 
 35 H        7.8580    -1.0050     0.9990 H     1 <1>   0.0800 
 36 H        7.6640    -0.7140    -0.7110 H     1 <1>   0.0800 
 37 H        6.5980     5.8690     1.2790 H     1 <1>   0.1500 
 38 H        4.4830     7.7320    -1.9230 H     1 <1>   0.1500 
 39 H        8.3490     8.7800    -0.0690 H     1 <1>   0.0800 
 40 H        8.3170     7.0320     0.1350 H     1 <1>   0.0800 
 41 H        7.4690     8.0820     1.2860 H     1 <1>   0.0800 
@<TRIPOS>BOND
  1   1   2  2   
  2   2   3  1   
  3   2   4  1   
  4   3   5  1   
  5   3   6  1   
  6   4   7  2   
  7   4  23  1   
  8   5   8  2   
  9   6   9  1   
 10   6  10  2   
 11   7   9  1   
 12   7  11  1   
 13   8  10  1   
 14   8  12  1   
 15   9  24  1   
 16  10  13  1   
 17  11  14  1   
 18  11  25  1   
 19  11  26  1   
 20  12  27  1   
 21  12  28  1   
 22  12  29  1   
 23  13  15  ar  
 24  13  16  ar  
 25  14  17  1   
 26  14  30  1   
 27  14  31  1   
 28  15  18  ar  
 29  15  32  1   
 30  16  19  ar  
 31  16  33  1   
 32  17  34  1   
 33  17  35  1   
 34  17  36  1   
 35  18  20  ar  
 36  18  37  1   
 37  19  20  ar  
 38  19  38  1   
 39  20  21  1   
 40  21  22  1   
 41  22  39  1   
 42  22  40  1   
 43  22  41  1   
@<TRIPOS>SUBSTRUCTURE
  1 ****   6 GROUP 4 **** **** 0

# MOE 2024.06 (io_trps.svl 2023.06)
