@<TRIPOS>MOLECULE
4-[3-(4-Methoxy-phenyl)-[1,2,4]oxadiazol-5-ylmethyl]-piperazine-1-carboxylic aci
47 49 1 0 0 
SMALL
USER_CHARGES


@<TRIPOS>ATOM
  1 O       -0.4920    -0.5000     0.7090 O.2   1 <1>  -0.5700 
  2 C       -0.6290    -1.7010     0.5740 C.2   1 <1>   0.7800 
  3 O        0.4420    -2.4680     0.3600 O.3   1 <1>  -0.4300 
  4 N       -1.8510    -2.3140     0.6250 N.am  1 <1>  -0.6600 
  5 C        1.7320    -1.9060     0.3030 C.3   1 <1>   0.1200 
  6 C       -2.0660    -3.7700     0.4000 C.3   1 <1>   0.1400 
  7 C       -3.1150    -1.5550     0.8370 C.3   1 <1>   0.1400 
  8 C        2.7280    -3.0320     0.0460 C.3   1 <1>  -0.2400 
  9 C       -3.0780    -3.9920    -0.7380 C.3   1 <1>   0.1100 
 10 C       -4.1130    -1.8300    -0.3010 C.3   1 <1>   0.1100 
 11 N       -4.3520    -3.2810    -0.4940 N.3   1 <1>  -0.8100 
 12 C       -5.3220    -3.5600    -1.5840 C.3   1 <1>   0.2900 
 13 C       -6.7390    -3.0550    -1.3180 C.2   1 <1>   0.2980 
 14 O       -7.0080    -1.7960    -1.5490 O.3   1 <1>  -0.0190 
 15 N       -7.7200    -3.7520    -0.9100 N.2   1 <1>  -0.5650 
 16 N       -8.2630    -1.6780    -1.2490 N.2   1 <1>  -0.4100 
 17 C       -8.6880    -2.8300    -0.8650 C.2   1 <1>   0.4620 
 18 C      -10.0410    -3.1350    -0.4310 C.ar  1 <1>   0.0540 
 19 C      -11.0470    -2.1670    -0.4610 C.ar  1 <1>  -0.1500 
 20 C      -10.3960    -4.4040     0.0350 C.ar  1 <1>  -0.1500 
 21 C      -12.3360    -2.4500    -0.0490 C.ar  1 <1>  -0.1500 
 22 C      -11.6820    -4.6960     0.4490 C.ar  1 <1>  -0.1500 
 23 C      -12.6670    -3.7140     0.4090 C.ar  1 <1>   0.0820 
 24 O      -13.9500    -3.9120     0.7950 O.3   1 <1>  -0.3620 
 25 C      -14.3880    -5.1630     1.2750 C.3   1 <1>   0.0400 
 26 H        1.9330    -1.4180     1.2420 H     1 <1>   0.0800 
 27 H        1.7540    -1.1800    -0.4930 H     1 <1>   0.0800 
 28 H       -2.4480    -4.2130     1.3030 H     1 <1>   0.0800 
 29 H       -1.1410    -4.2610     0.1540 H     1 <1>   0.0800 
 30 H       -2.9180    -0.4980     0.8900 H     1 <1>   0.0800 
 31 H       -3.5550    -1.8570     1.7720 H     1 <1>   0.0800 
 32 H        2.6870    -3.7520     0.8440 H     1 <1>   0.0800 
 33 H        3.7240    -2.6310    -0.0020 H     1 <1>   0.0800 
 34 H        2.5080    -3.5160    -0.8890 H     1 <1>   0.0800 
 35 H       -3.2680    -5.0480    -0.8230 H     1 <1>   0.0800 
 36 H       -2.6390    -3.6540    -1.6620 H     1 <1>   0.0800 
 37 H       -3.7340    -1.3940    -1.2100 H     1 <1>   0.0800 
 38 H       -5.0370    -1.3390    -0.0520 H     1 <1>   0.0800 
 39 H       -5.3870    -4.6250    -1.7190 H     1 <1>   0.0800 
 40 H       -4.9660    -3.1330    -2.5060 H     1 <1>   0.0800 
 41 H      -10.8170    -1.1760    -0.8120 H     1 <1>   0.1500 
 42 H       -9.6470    -5.1760     0.0740 H     1 <1>   0.1500 
 43 H      -13.0970    -1.6910    -0.0790 H     1 <1>   0.1500 
 44 H      -11.8990    -5.6870     0.7980 H     1 <1>   0.1500 
 45 H      -15.4330    -5.0810     1.5160 H     1 <1>   0.0800 
 46 H      -13.8280    -5.4140     2.1580 H     1 <1>   0.0800 
 47 H      -14.2480    -5.9010     0.5050 H     1 <1>   0.0800 
@<TRIPOS>BOND
  1   1   2  2   
  2   2   3  1   
  3   2   4  am  
  4   3   5  1   
  5   4   6  1   
  6   4   7  1   
  7   5   8  1   
  8   5  26  1   
  9   5  27  1   
 10   6   9  1   
 11   6  28  1   
 12   6  29  1   
 13   7  10  1   
 14   7  30  1   
 15   7  31  1   
 16   8  32  1   
 17   8  33  1   
 18   8  34  1   
 19   9  11  1   
 20   9  35  1   
 21   9  36  1   
 22  10  11  1   
 23  10  37  1   
 24  10  38  1   
 25  11  12  1   
 26  12  13  1   
 27  12  39  1   
 28  12  40  1   
 29  13  14  1   
 30  13  15  2   
 31  14  16  1   
 32  15  17  1   
 33  16  17  2   
 34  17  18  1   
 35  18  19  ar  
 36  18  20  ar  
 37  19  21  ar  
 38  19  41  1   
 39  20  22  ar  
 40  20  42  1   
 41  21  23  ar  
 42  21  43  1   
 43  22  23  ar  
 44  22  44  1   
 45  23  24  1   
 46  24  25  1   
 47  25  45  1   
 48  25  46  1   
 49  25  47  1   
@<TRIPOS>SUBSTRUCTURE
  1 ****  13 GROUP 4 **** **** 0

# MOE 2024.06 (io_trps.svl 2023.06)
