@<TRIPOS>MOLECULE
1-(4-tert-Butyl-phenyl)-2-[5-(5-methyl-isoxazol-3-yl)-[1,3,4]oxadiazol-2-ylsulfa
44 46 1 0 0 
SMALL
USER_CHARGES


@<TRIPOS>ATOM
  1 S        0.2580    -0.6320     2.1270 S.3   1 <1>  -0.2860 
  2 C       -0.6520    -2.1570     1.9190 C.2   1 <1>   0.5340 
  3 C       -0.6720     0.5880     1.0870 C.3   1 <1>   0.1310 
  4 O       -1.7170    -2.1600     1.1960 O.3   1 <1>  -0.2800 
  5 N       -0.3540    -3.2890     2.4200 N.2   1 <1>  -0.3380 
  6 C       -0.1470     1.9950     1.3270 C.2   1 <1>   0.4230 
  7 C       -2.1170    -3.4030     1.2570 C.2   1 <1>   0.4790 
  8 N       -1.3110    -4.1110     1.9880 N.2   1 <1>  -0.3380 
  9 O       -0.8820     2.7400     1.9240 O.2   1 <1>  -0.5700 
 10 C        1.1510     2.4010     0.8210 C.ar  1 <1>   0.0860 
 11 C       -3.3150    -3.8170     0.5580 C.2   1 <1>   0.2880 
 12 C        2.0110     1.5540     0.1170 C.ar  1 <1>  -0.1500 
 13 C        1.6020     3.7060     1.0210 C.ar  1 <1>  -0.1500 
 14 N       -3.7860    -5.0280     0.4880 N.2   1 <1>  -0.4100 
 15 C       -4.1600    -2.9570    -0.1600 C.2   1 <1>  -0.1500 
 16 C        3.2370     1.9850    -0.3560 C.ar  1 <1>  -0.1500 
 17 C        2.8260     4.1390     0.5490 C.ar  1 <1>  -0.1500 
 18 O       -4.8680    -4.9680    -0.2290 O.3   1 <1>  -0.0190 
 19 C       -5.1240    -3.7550    -0.6330 C.2   1 <1>  -0.0400 
 20 C        3.6740     3.2900    -0.1520 C.ar  1 <1>  -0.1430 
 21 C       -6.3490    -3.4860    -1.4820 C.3   1 <1>  -0.0600 
 22 C        5.0330     3.8190    -0.6600 C.3   1 <1>   0.1440 
 23 C        5.8520     2.7570    -1.4140 C.3   1 <1>  -0.2400 
 24 C        5.8780     4.2940     0.5310 C.3   1 <1>  -0.2400 
 25 C        4.8000     4.9930    -1.6220 C.3   1 <1>  -0.2400 
 26 H       -1.7040     0.5270     1.3790 H     1 <1>   0.0800 
 27 H       -0.5650     0.2970     0.0590 H     1 <1>   0.0800 
 28 H        1.7380     0.5330    -0.0710 H     1 <1>   0.1500 
 29 H        0.9770     4.3970     1.5600 H     1 <1>   0.1500 
 30 H       -4.0310    -1.8980    -0.2800 H     1 <1>   0.1500 
 31 H        3.8430     1.2740    -0.8860 H     1 <1>   0.1500 
 32 H        3.1130     5.1580     0.7370 H     1 <1>   0.1500 
 33 H       -6.4130    -2.4410    -1.7250 H     1 <1>   0.0800 
 34 H       -7.2340    -3.7760    -0.9460 H     1 <1>   0.0800 
 35 H       -6.2920    -4.0550    -2.3930 H     1 <1>   0.0800 
 36 H        6.7880     3.1680    -1.7490 H     1 <1>   0.0800 
 37 H        5.3150     2.4090    -2.2790 H     1 <1>   0.0800 
 38 H        6.0670     1.9200    -0.7740 H     1 <1>   0.0800 
 39 H        6.0190     3.4870     1.2270 H     1 <1>   0.0800 
 40 H        5.3980     5.1050     1.0480 H     1 <1>   0.0800 
 41 H        6.8430     4.6340     0.2010 H     1 <1>   0.0800 
 42 H        4.1820     4.6790    -2.4440 H     1 <1>   0.0800 
 43 H        5.7340     5.3540    -2.0150 H     1 <1>   0.0800 
 44 H        4.3110     5.8100    -1.1260 H     1 <1>   0.0800 
@<TRIPOS>BOND
  1   1   2  1   
  2   1   3  1   
  3   2   4  1   
  4   2   5  2   
  5   3   6  1   
  6   3  26  1   
  7   3  27  1   
  8   4   7  1   
  9   5   8  1   
 10   6   9  2   
 11   6  10  1   
 12   7   8  2   
 13   7  11  1   
 14  10  12  ar  
 15  10  13  ar  
 16  11  14  2   
 17  11  15  1   
 18  12  16  ar  
 19  12  28  1   
 20  13  17  ar  
 21  13  29  1   
 22  14  18  1   
 23  15  19  2   
 24  15  30  1   
 25  16  20  ar  
 26  16  31  1   
 27  17  20  ar  
 28  17  32  1   
 29  18  19  1   
 30  19  21  1   
 31  20  22  1   
 32  21  33  1   
 33  21  34  1   
 34  21  35  1   
 35  22  23  1   
 36  22  24  1   
 37  22  25  1   
 38  23  36  1   
 39  23  37  1   
 40  23  38  1   
 41  24  39  1   
 42  24  40  1   
 43  24  41  1   
 44  25  42  1   
 45  25  43  1   
 46  25  44  1   
@<TRIPOS>SUBSTRUCTURE
  1 ****   3 GROUP 4 **** **** 0

# MOE 2024.06 (io_trps.svl 2023.06)
