@<TRIPOS>MOLECULE
8-Cyclohexyl-1,6-dimethyl-3-(2-methyl-allyl)-5,6,7,8-tetrahydro-1H-1,3,4b,8,9-pe
57 60 1 0 0 
SMALL
USER_CHARGES


@<TRIPOS>ATOM
  1 O        0.8860     0.6660    -0.5640 O.2   1 <1>  -0.5740 
  2 C        1.8690     1.2020    -0.0950 C.2   1 <1>   0.6870 
  3 N        1.7430     2.3500     0.6750 N.am  1 <1>  -0.4250 
  4 N        3.1270     0.6560    -0.3250 N.am  1 <1>  -0.4410 
  5 C        2.8290     2.9070     1.3290 C.2   1 <1>   0.7000 
  6 C        0.4530     3.0860     0.6870 C.3   1 <1>   0.2730 
  7 C        4.2150     1.2580     0.2770 C.2   1 <1>   0.4210 
  8 C        3.2930    -0.5570    -1.1790 C.3   1 <1>   0.0530 
  9 O        2.6960     3.8330     2.1130 O.2   1 <1>  -0.5740 
 10 C        4.1170     2.3400     1.0780 C.2   1 <1>   0.2710 
 11 C        0.5090     4.2040    -0.3490 C.2   1 <1>  -0.2820 
 12 N        5.5270     0.8950     0.1980 N.pl3 1 <1>  -0.7030 
 13 N        5.4260     2.6370     1.4890 N.pl3 1 <1>  -0.7670 
 14 C        0.6820     5.4880    -0.0200 C.2   1 <1>  -0.3050 
 15 C        0.3370     3.7500    -1.7920 C.3   1 <1>  -0.1080 
 16 C        6.2400     1.7420     0.9400 C.cat 1 <1>   1.0690 
 17 C        5.8520     3.7390     2.3750 C.3   1 <1>   0.3490 
 18 N        7.5710     1.7430     1.1470 N.pl3 1 <1>  -0.5960 
 19 C        7.3290     4.0580     2.0970 C.3   1 <1>  -0.0870 
 20 C        8.5340     0.7370     0.6160 C.3   1 <1>   0.2420 
 21 C        8.1830     2.7770     2.0370 C.3   1 <1>   0.1610 
 22 C        7.8880     5.0280     3.1490 C.3   1 <1>  -0.2460 
 23 C        8.6000     0.7880    -0.9190 C.3   1 <1>  -0.1660 
 24 C        8.2210    -0.6730     1.1450 C.3   1 <1>  -0.1660 
 25 C        9.5970    -0.2480    -1.4560 C.3   1 <1>  -0.1660 
 26 C        9.2220    -1.6960     0.5910 C.3   1 <1>  -0.1660 
 27 C        9.2700    -1.6560    -0.9420 C.3   1 <1>  -0.1660 
 28 H        0.2910     3.5060     1.6650 H     1 <1>   0.0730 
 29 H       -0.3740     2.4290     0.4820 H     1 <1>   0.0730 
 30 H        2.4450    -0.6810    -1.8320 H     1 <1>   0.0730 
 31 H        3.3750    -1.4310    -0.5560 H     1 <1>   0.0730 
 32 H        4.1730    -0.4680    -1.7910 H     1 <1>   0.0730 
 33 H        5.9310     0.1190    -0.3190 H     1 <1>   0.4450 
 34 H        0.7170     6.2960    -0.7300 H     1 <1>   0.1440 
 35 H        0.8040     5.8430     0.9900 H     1 <1>   0.1440 
 36 H       -0.5880     3.2120    -1.9040 H     1 <1>   0.0730 
 37 H        1.1460     3.1090    -2.0910 H     1 <1>   0.0730 
 38 H        0.3160     4.5970    -2.4540 H     1 <1>   0.0730 
 39 H        5.7180     3.4380     3.4010 H     1 <1>   0.0730 
 40 H        5.2480     4.6140     2.1950 H     1 <1>   0.0730 
 41 H        7.3920     4.5490     1.1410 H     1 <1>   0.0730 
 42 H        9.5190     0.9860     0.9750 H     1 <1>   0.0730 
 43 H        9.1640     3.0350     1.6730 H     1 <1>   0.0730 
 44 H        8.2930     2.3600     3.0250 H     1 <1>   0.0730 
 45 H        7.8570     4.5940     4.1340 H     1 <1>   0.0730 
 46 H        7.3160     5.9410     3.1610 H     1 <1>   0.0730 
 47 H        8.9100     5.2820     2.9210 H     1 <1>   0.0730 
 48 H        8.9180     1.7680    -1.2320 H     1 <1>   0.0730 
 49 H        7.6440     0.5850    -1.3600 H     1 <1>   0.0730 
 50 H        7.2370    -0.9900     0.8610 H     1 <1>   0.0730 
 51 H        8.2830    -0.6760     2.2190 H     1 <1>   0.0730 
 52 H       10.5950     0.0180    -1.1470 H     1 <1>   0.0730 
 53 H        9.5800    -0.2450    -2.5330 H     1 <1>   0.0730 
 54 H        8.9490    -2.6850     0.9160 H     1 <1>   0.0730 
 55 H       10.2050    -1.4860     0.9800 H     1 <1>   0.0730 
 56 H       10.0200    -2.3450    -1.2920 H     1 <1>   0.0730 
 57 H        8.3230    -1.9760    -1.3420 H     1 <1>   0.0730 
@<TRIPOS>BOND
  1   1   2  2   
  2   2   3  am  
  3   2   4  am  
  4   3   5  am  
  5   3   6  1   
  6   4   7  1   
  7   4   8  1   
  8   5   9  2   
  9   5  10  1   
 10   6  11  1   
 11   6  28  1   
 12   6  29  1   
 13   7  10  2   
 14   7  12  1   
 15   8  30  1   
 16   8  31  1   
 17   8  32  1   
 18  10  13  1   
 19  11  14  2   
 20  11  15  1   
 21  12  16  ar  
 22  12  33  1   
 23  13  16  ar  
 24  13  17  1   
 25  14  34  1   
 26  14  35  1   
 27  15  36  1   
 28  15  37  1   
 29  15  38  1   
 30  16  18  ar  
 31  17  19  1   
 32  17  39  1   
 33  17  40  1   
 34  18  20  1   
 35  18  21  1   
 36  19  21  1   
 37  19  22  1   
 38  19  41  1   
 39  20  23  1   
 40  20  24  1   
 41  20  42  1   
 42  21  43  1   
 43  21  44  1   
 44  22  45  1   
 45  22  46  1   
 46  22  47  1   
 47  23  25  1   
 48  23  48  1   
 49  23  49  1   
 50  24  26  1   
 51  24  50  1   
 52  24  51  1   
 53  25  27  1   
 54  25  52  1   
 55  25  53  1   
 56  26  27  1   
 57  26  54  1   
 58  26  55  1   
 59  27  56  1   
 60  27  57  1   
@<TRIPOS>SUBSTRUCTURE
  1 ****   7 GROUP 4 **** **** 0

# MOE 2024.06 (io_trps.svl 2023.06)
