@<TRIPOS>MOLECULE
1-(4-Fluoro-phenyl)-cyclopropanecarboxylic acid
21 22 1 0 0 
SMALL
USER_CHARGES


@<TRIPOS>ATOM
  1 F        0.4650     0.6550     0.8090 F     1 <1>  -0.1900 
  2 C        1.7300     0.3720     0.6410 C.ar  1 <1>   0.1900 
  3 C        2.4290     1.0150    -0.3630 C.ar  1 <1>  -0.1500 
  4 C        2.3190    -0.5630     1.4710 C.ar  1 <1>  -0.1500 
  5 C        3.7700     0.7120    -0.5320 C.ar  1 <1>  -0.1500 
  6 C        3.6620    -0.8540     1.2890 C.ar  1 <1>  -0.1500 
  7 C        4.3910    -0.2120     0.2970 C.ar  1 <1>  -0.0320 
  8 C        5.8670    -0.5300     0.1120 C.3   1 <1>  -0.1150 
  9 C        6.1070    -1.6860    -0.8680 C.2   1 <1>   0.9470 
 10 C        6.8510     0.6110     0.1650 C.3   1 <1>  -0.2000 
 11 C        6.7830    -0.3630     1.2970 C.3   1 <1>  -0.2000 
 12 O        6.1650    -2.8420    -0.4280 O.co2 1 <1>  -0.9000 
 13 O        6.2620    -1.4290    -2.0700 O.co2 1 <1>  -0.9000 
 14 H        1.9370     1.7280    -0.9980 H     1 <1>   0.1500 
 15 H        1.7450    -1.0520     2.2350 H     1 <1>   0.1500 
 16 H        4.3440     1.1810    -1.3120 H     1 <1>   0.1500 
 17 H        4.1520    -1.5870     1.9060 H     1 <1>   0.1500 
 18 H        6.4740     1.6070     0.3070 H     1 <1>   0.1000 
 19 H        7.6780     0.5720    -0.5220 H     1 <1>   0.1000 
 20 H        7.5630    -1.0960     1.4160 H     1 <1>   0.1000 
 21 H        6.3590    -0.0500     2.2330 H     1 <1>   0.1000 
@<TRIPOS>BOND
  1   1   2  1   
  2   2   3  ar  
  3   2   4  ar  
  4   3   5  ar  
  5   3  14  1   
  6   4   6  ar  
  7   4  15  1   
  8   5   7  ar  
  9   5  16  1   
 10   6   7  ar  
 11   6  17  1   
 12   7   8  1   
 13   8   9  1   
 14   8  10  1   
 15   8  11  1   
 16   9  12  ar  
 17   9  13  ar  
 18  10  11  1   
 19  10  18  1   
 20  10  19  1   
 21  11  20  1   
 22  11  21  1   
@<TRIPOS>SUBSTRUCTURE
  1 ****   7 GROUP 4 **** **** 0

# MOE 2024.06 (io_trps.svl 2023.06)
