@<TRIPOS>MOLECULE
N-[4-(4-Dimethylsulfamoyl-piperazine-1-sulfonyl)-phenyl]-acetamide
47 48 1 0 0 
SMALL
USER_CHARGES


@<TRIPOS>ATOM
  1 S        0.5500     0.5940     0.8140 S.o2  1 <1>   1.5760 
  2 O        0.6650     0.1920     2.1960 O.2   1 <1>  -0.6500 
  3 O        0.2440     1.9630     0.4620 O.2   1 <1>  -0.6500 
  4 N        1.9550     0.1330     0.0050 N.am  1 <1>  -0.8490 
  5 N       -0.5700    -0.4120     0.0400 N.am  1 <1>  -0.8490 
  6 C        2.3830    -1.2210     0.3840 C.3   1 <1>   0.1960 
  7 C        3.0440     1.0840     0.2560 C.3   1 <1>   0.1960 
  8 C       -1.8300    -0.4790     0.7790 C.3   1 <1>   0.1160 
  9 C       -0.8180    -0.0100    -1.3470 C.3   1 <1>   0.1160 
 10 C        3.6190    -1.6400    -0.4340 C.3   1 <1>   0.1960 
 11 C        4.3440     0.6770    -0.4830 C.3   1 <1>   0.1960 
 12 N        4.7640    -0.7240    -0.2520 N.am  1 <1>  -0.8490 
 13 S        5.6220    -0.9740     1.1930 S.o2  1 <1>   1.4470 
 14 O        5.6810    -2.4020     1.4140 O.2   1 <1>  -0.6500 
 15 O        5.0420    -0.1220     2.2080 O.2   1 <1>  -0.6500 
 16 C        7.2850    -0.3780     0.7780 C.ar  1 <1>  -0.0090 
 17 C        7.9490     0.5400     1.5850 C.ar  1 <1>  -0.1500 
 18 C        7.9450    -0.8330    -0.3580 C.ar  1 <1>  -0.1500 
 19 C        9.2180     0.9900     1.2680 C.ar  1 <1>  -0.1500 
 20 C        9.2140    -0.3840    -0.6810 C.ar  1 <1>  -0.1500 
 21 C        9.8650     0.5380     0.1250 C.ar  1 <1>   0.1170 
 22 N       11.1510     0.9690    -0.2140 N.am  1 <1>  -0.5470 
 23 C       11.6840     2.2150    -0.3000 C.2   1 <1>   0.5690 
 24 O       12.8470     2.3510    -0.5740 O.2   1 <1>  -0.5700 
 25 C       10.8370     3.4470    -0.0810 C.3   1 <1>  -0.1790 
 26 H        1.5860    -1.9180     0.1880 H     1 <1>   0.0800 
 27 H        2.6100    -1.2670     1.4370 H     1 <1>   0.0800 
 28 H        3.2210     1.1660     1.3150 H     1 <1>   0.0800 
 29 H        2.7480     2.0590    -0.0930 H     1 <1>   0.0800 
 30 H       -1.6530    -0.8510     1.7740 H     1 <1>   0.0800 
 31 H       -2.5150    -1.1470     0.2860 H     1 <1>   0.0800 
 32 H       -2.2770     0.5000     0.8500 H     1 <1>   0.0800 
 33 H        0.1090     0.0070    -1.8960 H     1 <1>   0.0800 
 34 H       -1.2590     0.9720    -1.3840 H     1 <1>   0.0800 
 35 H       -1.4800    -0.7130    -1.8220 H     1 <1>   0.0800 
 36 H        3.3430    -1.6450    -1.4740 H     1 <1>   0.0800 
 37 H        3.8970    -2.6480    -0.1800 H     1 <1>   0.0800 
 38 H        5.1370     1.3480    -0.2040 H     1 <1>   0.0800 
 39 H        4.1730     0.8080    -1.5370 H     1 <1>   0.0800 
 40 H        7.4650     0.9020     2.4780 H     1 <1>   0.1500 
 41 H        7.4540    -1.5490    -0.9960 H     1 <1>   0.1500 
 42 H        9.7130     1.6870     1.9190 H     1 <1>   0.1500 
 43 H        9.7010    -0.7510    -1.5670 H     1 <1>   0.1500 
 44 H       11.8180     0.2460    -0.4870 H     1 <1>   0.3700 
 45 H        9.8500     3.3000    -0.4780 H     1 <1>   0.0800 
 46 H       11.2880     4.2840    -0.5830 H     1 <1>   0.0800 
 47 H       10.7790     3.6640     0.9680 H     1 <1>   0.0800 
@<TRIPOS>BOND
  1   1   2  2   
  2   1   3  2   
  3   1   4  am  
  4   1   5  am  
  5   4   6  1   
  6   4   7  1   
  7   5   8  1   
  8   5   9  1   
  9   6  10  1   
 10   6  26  1   
 11   6  27  1   
 12   7  11  1   
 13   7  28  1   
 14   7  29  1   
 15   8  30  1   
 16   8  31  1   
 17   8  32  1   
 18   9  33  1   
 19   9  34  1   
 20   9  35  1   
 21  10  12  1   
 22  10  36  1   
 23  10  37  1   
 24  11  12  1   
 25  11  38  1   
 26  11  39  1   
 27  12  13  am  
 28  13  14  2   
 29  13  15  2   
 30  13  16  1   
 31  16  17  ar  
 32  16  18  ar  
 33  17  19  ar  
 34  17  40  1   
 35  18  20  ar  
 36  18  41  1   
 37  19  21  ar  
 38  19  42  1   
 39  20  21  ar  
 40  20  43  1   
 41  21  22  1   
 42  22  23  am  
 43  22  44  1   
 44  23  24  2   
 45  23  25  1   
 46  25  45  1   
 47  25  46  1   
 48  25  47  1   
@<TRIPOS>SUBSTRUCTURE
  1 ****  12 GROUP 4 **** **** 0

# MOE 2024.06 (io_trps.svl 2023.06)
