@<TRIPOS>MOLECULE
[1-(2,5-Dimethoxy-benzenesulfonyl)-piperidin-4-yl]-pyrrolidin-1-yl-methanone
52 54 1 0 0 
SMALL
USER_CHARGES


@<TRIPOS>ATOM
  1 S       -0.3570     0.0170    -1.1540 S.o2  1 <1>   1.4470 
  2 O        0.2740    -1.0410    -1.9180 O.2   1 <1>  -0.6500 
  3 O       -1.2320     0.9310    -1.8590 O.2   1 <1>  -0.6500 
  4 N        0.9160     0.9180    -0.4870 N.am  1 <1>  -0.8490 
  5 C       -1.2390    -0.7170     0.2470 C.ar  1 <1>  -0.0090 
  6 C        1.5160     1.8080    -1.4810 C.3   1 <1>   0.1960 
  7 C        1.9120     0.0700     0.1700 C.3   1 <1>   0.1960 
  8 C       -1.7370     0.0630     1.2870 C.ar  1 <1>   0.0830 
  9 C       -1.4500    -2.0910     0.3060 C.ar  1 <1>  -0.1500 
 10 C        2.5570     2.7170    -0.8220 C.3   1 <1>  -0.1600 
 11 C        2.9560     0.9330     0.8820 C.3   1 <1>  -0.1600 
 12 O       -1.5560     1.3990     1.2890 O.3   1 <1>  -0.3620 
 13 C       -2.4080    -0.5090     2.3580 C.ar  1 <1>  -0.1500 
 14 C       -2.1280    -2.6750     1.3720 C.ar  1 <1>   0.0830 
 15 C        3.6400     1.8970    -0.1000 C.3   1 <1>  -0.0190 
 16 C       -2.6480     2.1820     0.8640 C.3   1 <1>   0.0400 
 17 C       -2.6030    -1.8760     2.3980 C.ar  1 <1>  -0.1500 
 18 O       -2.3620    -4.0080     1.4790 O.3   1 <1>  -0.3630 
 19 C        4.6770     2.7720     0.6140 C.2   1 <1>   0.5690 
 20 C       -1.9630    -4.9060     0.4660 C.3   1 <1>   0.0400 
 21 O        4.3170     3.8150     1.1110 O.2   1 <1>  -0.5700 
 22 N        5.9850     2.3720     0.6930 N.am  1 <1>  -0.6600 
 23 C        6.5690     1.1110     0.1850 C.3   1 <1>   0.1400 
 24 C        7.0110     3.1930     1.3720 C.3   1 <1>   0.1400 
 25 C        7.9590     1.0470     0.8070 C.3   1 <1>  -0.1600 
 26 C        8.3350     2.5050     1.0600 C.3   1 <1>  -0.1600 
 27 H        0.7520     2.4270    -1.9210 H     1 <1>   0.0800 
 28 H        1.9710     1.2260    -2.2660 H     1 <1>   0.0800 
 29 H        2.3930    -0.5630    -0.5570 H     1 <1>   0.0800 
 30 H        1.4270    -0.5580     0.8990 H     1 <1>   0.0800 
 31 H       -1.0740    -2.6960    -0.4980 H     1 <1>   0.1500 
 32 H        2.0530     3.3610    -0.1210 H     1 <1>   0.0800 
 33 H        3.0130     3.3420    -1.5690 H     1 <1>   0.0800 
 34 H        3.6890     0.2970     1.3440 H     1 <1>   0.0800 
 35 H        2.4710     1.4940     1.6630 H     1 <1>   0.0800 
 36 H       -2.7690     0.1160     3.1540 H     1 <1>   0.1500 
 37 H        4.1450     1.3170    -0.8490 H     1 <1>   0.0800 
 38 H       -2.3390     3.2120     0.8620 H     1 <1>   0.0800 
 39 H       -3.4680     2.0420     1.5460 H     1 <1>   0.0800 
 40 H       -2.9300     1.8840    -0.1300 H     1 <1>   0.0800 
 41 H       -3.1230    -2.3310     3.2220 H     1 <1>   0.1500 
 42 H       -2.2690    -5.8940     0.7580 H     1 <1>   0.0800 
 43 H       -0.8930    -4.8690     0.3670 H     1 <1>   0.0800 
 44 H       -2.4460    -4.6310    -0.4550 H     1 <1>   0.0800 
 45 H        6.6450     1.1650    -0.8880 H     1 <1>   0.0800 
 46 H        5.9750     0.2600     0.4710 H     1 <1>   0.0800 
 47 H        6.8180     3.1880     2.4310 H     1 <1>   0.0800 
 48 H        6.9920     4.2080     1.0090 H     1 <1>   0.0800 
 49 H        8.6640     0.5470     0.1660 H     1 <1>   0.0800 
 50 H        7.9000     0.5190     1.7430 H     1 <1>   0.0800 
 51 H        9.0400     2.6150     1.8650 H     1 <1>   0.0800 
 52 H        8.7500     2.9370     0.1670 H     1 <1>   0.0800 
@<TRIPOS>BOND
  1   1   2  2   
  2   1   3  2   
  3   1   4  am  
  4   1   5  1   
  5   4   6  1   
  6   4   7  1   
  7   5   8  ar  
  8   5   9  ar  
  9   6  10  1   
 10   6  27  1   
 11   6  28  1   
 12   7  11  1   
 13   7  29  1   
 14   7  30  1   
 15   8  12  1   
 16   8  13  ar  
 17   9  14  ar  
 18   9  31  1   
 19  10  15  1   
 20  10  32  1   
 21  10  33  1   
 22  11  15  1   
 23  11  34  1   
 24  11  35  1   
 25  12  16  1   
 26  13  17  ar  
 27  13  36  1   
 28  14  17  ar  
 29  14  18  1   
 30  15  19  1   
 31  15  37  1   
 32  16  38  1   
 33  16  39  1   
 34  16  40  1   
 35  17  41  1   
 36  18  20  1   
 37  19  21  2   
 38  19  22  am  
 39  20  42  1   
 40  20  43  1   
 41  20  44  1   
 42  22  23  1   
 43  22  24  1   
 44  23  25  1   
 45  23  45  1   
 46  23  46  1   
 47  24  26  1   
 48  24  47  1   
 49  24  48  1   
 50  25  26  1   
 51  25  49  1   
 52  25  50  1   
 53  26  51  1   
 54  26  52  1   
@<TRIPOS>SUBSTRUCTURE
  1 ****   7 GROUP 4 **** **** 0

# MOE 2024.06 (io_trps.svl 2023.06)
