@<TRIPOS>MOLECULE
3-tert-Butyl-6-(2-chloro-phenyl)-[1,2,4]triazolo[3,4-b][1,3,4]thiadiazole
32 34 1 0 0 
SMALL
USER_CHARGES


@<TRIPOS>ATOM
  1 CL      -0.3070    -0.2250     1.3920 Cl    1 <1>  -0.1770 
  2 C       -0.6210    -1.6040     0.3650 C.ar  1 <1>   0.1770 
  3 C        0.4330    -2.3390    -0.1830 C.ar  1 <1>   0.0860 
  4 C       -1.9430    -1.9390     0.1450 C.ar  1 <1>  -0.1500 
  5 C        1.8130    -1.9810     0.0330 C.2   1 <1>   0.5050 
  6 C        0.0910    -3.4470    -0.9620 C.ar  1 <1>  -0.1500 
  7 C       -2.2520    -3.0390    -0.6360 C.ar  1 <1>  -0.1500 
  8 S        2.9250    -3.2980     0.4980 S.3   1 <1>  -0.1970 
  9 N        2.3950    -0.8410    -0.0680 N.2   1 <1>  -0.6520 
 10 C       -1.2300    -3.7930    -1.1870 C.ar  1 <1>  -0.1500 
 11 C        4.2300    -2.1380     0.5530 C.2   1 <1>   0.2420 
 12 N        3.7530    -0.9480     0.2390 N.pl3 1 <1>   0.5050 
 13 N        5.4850    -2.1750     0.8160 N.2   1 <1>  -0.3380 
 14 C        4.8580    -0.1820     0.3290 C.2   1 <1>   0.0060 
 15 N        5.8920    -0.9010     0.6690 N.2   1 <1>  -0.3380 
 16 C        4.8550     1.3290     0.0610 C.3   1 <1>   0.1800 
 17 C        6.2610     1.9220     0.2560 C.3   1 <1>  -0.2400 
 18 C        3.8980     2.0350     1.0340 C.3   1 <1>  -0.2400 
 19 C        4.4140     1.6080    -1.3830 C.3   1 <1>  -0.2400 
 20 H       -2.7250    -1.3450     0.5850 H     1 <1>   0.1500 
 21 H        0.8680    -4.0470    -1.4060 H     1 <1>   0.1500 
 22 H       -3.2800    -3.3070    -0.8120 H     1 <1>   0.1500 
 23 H       -1.4680    -4.6510    -1.7930 H     1 <1>   0.1500 
 24 H        6.6010     1.7520     1.2630 H     1 <1>   0.0800 
 25 H        6.2610     2.9810     0.0700 H     1 <1>   0.0800 
 26 H        6.9590     1.4560    -0.4160 H     1 <1>   0.0800 
 27 H        4.1820     1.8250     2.0500 H     1 <1>   0.0800 
 28 H        2.8860     1.7020     0.8890 H     1 <1>   0.0800 
 29 H        3.9240     3.1000     0.8850 H     1 <1>   0.0800 
 30 H        5.0620     1.0970    -2.0730 H     1 <1>   0.0800 
 31 H        4.4520     2.6620    -1.5940 H     1 <1>   0.0800 
 32 H        3.4070     1.2700    -1.5490 H     1 <1>   0.0800 
@<TRIPOS>BOND
  1   1   2  1   
  2   2   3  ar  
  3   2   4  ar  
  4   3   5  1   
  5   3   6  ar  
  6   4   7  ar  
  7   4  20  1   
  8   5   8  1   
  9   5   9  2   
 10   6  10  ar  
 11   6  21  1   
 12   7  10  ar  
 13   7  22  1   
 14   8  11  1   
 15   9  12  1   
 16  10  23  1   
 17  11  12  1   
 18  11  13  2   
 19  12  14  1   
 20  13  15  1   
 21  14  15  2   
 22  14  16  1   
 23  16  17  1   
 24  16  18  1   
 25  16  19  1   
 26  17  24  1   
 27  17  25  1   
 28  17  26  1   
 29  18  27  1   
 30  18  28  1   
 31  18  29  1   
 32  19  30  1   
 33  19  31  1   
 34  19  32  1   
@<TRIPOS>SUBSTRUCTURE
  1 ****   9 GROUP 4 **** **** 0

# MOE 2024.06 (io_trps.svl 2023.06)
