@<TRIPOS>MOLECULE
2-(4-Ethyl-piperazin-1-yl)-6-oxo-3,4,5,6-tetrahydro-pyrimidine-4-carboxylic acid
52 54 1 0 0 
SMALL
USER_CHARGES


@<TRIPOS>ATOM
  1 O       -1.1030    -0.0910    -1.1320 O.2   1 <1>  -0.5700 
  2 C       -0.9120    -1.0750    -0.4870 C.2   1 <1>   0.8520 
  3 N       -1.8420    -2.0500    -0.5070 N.pl3 1 <1>  -0.8600 
  4 C        0.3220    -1.2350     0.3610 C.3   1 <1>  -0.0990 
  5 C       -1.7240    -3.2120     0.0860 C.cat 1 <1>   1.2000 
  6 C        0.7190    -2.7100     0.4030 C.3   1 <1>   0.3090 
  7 N       -2.7790    -4.0260     0.2520 N.pl3 1 <1>  -0.7220 
  8 N       -0.5280    -3.5300     0.5120 N.pl3 1 <1>  -0.8440 
  9 C        1.6810    -3.0550     1.5620 C.2   1 <1>   0.5690 
 10 C       -4.2030    -3.6510    -0.0960 C.3   1 <1>   0.1680 
 11 C       -2.6920    -5.3740     0.9360 C.3   1 <1>   0.1680 
 12 O        1.2920    -3.8460     2.3900 O.2   1 <1>  -0.5700 
 13 N        2.9260    -2.5210     1.6530 N.am  1 <1>  -0.5470 
 14 C       -4.9630    -4.7800    -0.8320 C.3   1 <1>   0.3430 
 15 C       -3.4730    -6.4840     0.1900 C.3   1 <1>   0.3430 
 16 C        3.5660    -1.6640     0.7560 C.ar  1 <1>   0.1170 
 17 N       -4.8950    -6.0930    -0.0980 N.4   1 <1>  -0.9590 
 18 C        4.1130    -2.1270    -0.4430 C.ar  1 <1>  -0.1440 
 19 C        3.6420    -0.3120     1.0640 C.ar  1 <1>  -0.1500 
 20 C       -5.5900    -7.1840    -0.8400 C.3   1 <1>   0.3430 
 21 C        4.6840    -1.2220    -1.3230 C.ar  1 <1>  -0.1500 
 22 C        4.1290    -3.6060    -0.8140 C.3   1 <1>  -0.0970 
 23 C        4.2180     0.5820     0.1820 C.ar  1 <1>  -0.1500 
 24 C       -7.0970    -6.9600    -0.7930 C.3   1 <1>  -0.2400 
 25 C        4.7340     0.1270    -1.0170 C.ar  1 <1>  -0.1500 
 26 H       -2.6610    -1.7960    -1.0370 H     1 <1>   0.4500 
 27 H        0.1180    -0.8700     1.3510 H     1 <1>   0.0800 
 28 H        1.1150    -0.6440    -0.0590 H     1 <1>   0.0800 
 29 H        1.2100    -2.9640    -0.5210 H     1 <1>   0.0800 
 30 H       -0.3810    -4.3220     1.1460 H     1 <1>   0.4500 
 31 H       -4.2380    -2.7720    -0.7140 H     1 <1>   0.0800 
 32 H       -4.7340    -3.4160     0.8130 H     1 <1>   0.0800 
 33 H       -3.0860    -5.2860     1.9360 H     1 <1>   0.0800 
 34 H       -1.6710    -5.7010     1.0260 H     1 <1>   0.0800 
 35 H        3.4610    -2.8050     2.4790 H     1 <1>   0.3700 
 36 H       -4.5430    -4.8970    -1.8180 H     1 <1>   0.0800 
 37 H       -5.9930    -4.4840    -0.9530 H     1 <1>   0.0800 
 38 H       -3.4580    -7.3830     0.7850 H     1 <1>   0.0800 
 39 H       -2.9640    -6.7000    -0.7360 H     1 <1>   0.0800 
 40 H       -5.3920    -5.9910     0.8000 H     1 <1>   0.4500 
 41 H        3.2470     0.0470     1.9980 H     1 <1>   0.1500 
 42 H       -5.3700    -8.1360    -0.3810 H     1 <1>   0.0800 
 43 H       -5.2530    -7.2200    -1.8650 H     1 <1>   0.0800 
 44 H        5.1030    -1.5600    -2.2550 H     1 <1>   0.1500 
 45 H        3.2150    -3.8820    -1.3050 H     1 <1>   0.0800 
 46 H        4.2610    -4.2200     0.0600 H     1 <1>   0.0800 
 47 H        4.9460    -3.8140    -1.4820 H     1 <1>   0.0800 
 48 H        4.2690     1.6300     0.4260 H     1 <1>   0.1500 
 49 H       -7.4490    -6.9070     0.2220 H     1 <1>   0.0800 
 50 H       -7.5880    -7.7940    -1.2640 H     1 <1>   0.0800 
 51 H       -7.3870    -6.0740    -1.3280 H     1 <1>   0.0800 
 52 H        5.1830     0.8210    -1.7080 H     1 <1>   0.1500 
@<TRIPOS>BOND
  1   1   2  2   
  2   2   3  1   
  3   2   4  1   
  4   3   5  ar  
  5   3  26  1   
  6   4   6  1   
  7   4  27  1   
  8   4  28  1   
  9   5   7  ar  
 10   5   8  ar  
 11   6   8  1   
 12   6   9  1   
 13   6  29  1   
 14   7  10  1   
 15   7  11  1   
 16   8  30  1   
 17   9  12  2   
 18   9  13  am  
 19  10  14  1   
 20  10  31  1   
 21  10  32  1   
 22  11  15  1   
 23  11  33  1   
 24  11  34  1   
 25  13  16  1   
 26  13  35  1   
 27  14  17  1   
 28  14  36  1   
 29  14  37  1   
 30  15  17  1   
 31  15  38  1   
 32  15  39  1   
 33  16  18  ar  
 34  16  19  ar  
 35  17  20  1   
 36  17  40  1   
 37  18  21  ar  
 38  18  22  1   
 39  19  23  ar  
 40  19  41  1   
 41  20  24  1   
 42  20  42  1   
 43  20  43  1   
 44  21  25  ar  
 45  21  44  1   
 46  22  45  1   
 47  22  46  1   
 48  22  47  1   
 49  23  25  ar  
 50  23  48  1   
 51  24  49  1   
 52  24  50  1   
 53  24  51  1   
 54  25  52  1   
@<TRIPOS>SUBSTRUCTURE
  1 ****   8 GROUP 4 **** **** 0

# MOE 2024.06 (io_trps.svl 2023.06)
