@<TRIPOS>MOLECULE
N-(2-Hydroxy-quinolin-3-ylmethyl)-N-(tetrahydro-furan-2-ylmethyl)-isobutyramide
48 50 1 0 0 
SMALL
USER_CHARGES


@<TRIPOS>ATOM
  1 O        0.8870    -1.0530    -1.9010 O.2   1 <1>  -0.5700 
  2 C        1.6610    -0.9700    -0.9740 C.2   1 <1>   0.5690 
  3 N        2.2570     0.2280    -0.6610 N.am  1 <1>  -0.6600 
  4 C        1.9330    -2.2450    -0.1530 C.3   1 <1>  -0.0190 
  5 C        1.9390     1.4480    -1.4580 C.3   1 <1>   0.2780 
  6 C        3.1250     0.4590     0.5410 C.3   1 <1>   0.1400 
  7 C        1.9910    -3.5090    -1.0290 C.3   1 <1>  -0.2400 
  8 C        0.8710    -2.4250     0.9440 C.3   1 <1>  -0.2400 
  9 C        0.8970     2.2820    -0.7340 C.2   1 <1>  -0.1240 
 10 C        4.6090     0.2080     0.2340 C.3   1 <1>   0.2000 
 11 C        1.3300     3.4800    -0.0840 C.2   1 <1>   0.6160 
 12 C       -0.4090     1.9120    -0.6980 C.2   1 <1>  -0.1780 
 13 O        5.3220     0.1840     1.4310 O.3   1 <1>  -0.5600 
 14 C        5.2840     1.2790    -0.6120 C.3   1 <1>  -0.1600 
 15 O        2.4840     3.8710    -0.0770 O.2   1 <1>  -0.5700 
 16 N        0.3970     4.2270     0.5690 N.am  1 <1>  -0.5470 
 17 C       -1.3790     2.7070    -0.0080 C.ar  1 <1>   0.0280 
 18 C        6.6060     0.7090     1.2800 C.3   1 <1>   0.1200 
 19 C        6.7270     1.1760    -0.1660 C.3   1 <1>  -0.1600 
 20 C       -0.9490     3.8820     0.6310 C.ar  1 <1>   0.1170 
 21 C       -2.7300     2.3620     0.0570 C.ar  1 <1>  -0.1500 
 22 C       -1.8690     4.6750     1.3130 C.ar  1 <1>  -0.1500 
 23 C       -3.6300     3.1570     0.7350 C.ar  1 <1>  -0.1500 
 24 C       -3.1990     4.3170     1.3650 C.ar  1 <1>  -0.1500 
 25 H        2.8940    -2.1610     0.3190 H     1 <1>   0.0800 
 26 H        1.5520     1.1690    -2.4230 H     1 <1>   0.0800 
 27 H        2.8340     2.0160    -1.6360 H     1 <1>   0.0800 
 28 H        2.8190    -0.1950     1.3380 H     1 <1>   0.0800 
 29 H        3.0050     1.4670     0.8950 H     1 <1>   0.0800 
 30 H        1.0400    -3.6830    -1.5020 H     1 <1>   0.0800 
 31 H        2.2440    -4.3690    -0.4350 H     1 <1>   0.0800 
 32 H        2.7340    -3.3910    -1.7970 H     1 <1>   0.0800 
 33 H       -0.1020    -2.5470     0.5000 H     1 <1>   0.0800 
 34 H        0.8450    -1.5620     1.5850 H     1 <1>   0.0800 
 35 H        1.0900    -3.2910     1.5430 H     1 <1>   0.0800 
 36 H        4.7380    -0.7600    -0.2190 H     1 <1>   0.0800 
 37 H       -0.7510     1.0120    -1.1800 H     1 <1>   0.1500 
 38 H        4.8880     2.2480    -0.3630 H     1 <1>   0.0800 
 39 H        5.1600     1.0980    -1.6650 H     1 <1>   0.0800 
 40 H        0.7480     5.0700     1.0190 H     1 <1>   0.3700 
 41 H        7.3270    -0.0530     1.5210 H     1 <1>   0.0800 
 42 H        6.7020     1.5350     1.9640 H     1 <1>   0.0800 
 43 H        7.2520     2.1120    -0.2450 H     1 <1>   0.0800 
 44 H        7.2460     0.4280    -0.7390 H     1 <1>   0.0800 
 45 H       -3.0650     1.4640    -0.4300 H     1 <1>   0.1500 
 46 H       -1.5340     5.5720     1.8000 H     1 <1>   0.1500 
 47 H       -4.6700     2.8820     0.7790 H     1 <1>   0.1500 
 48 H       -3.9080     4.9320     1.8920 H     1 <1>   0.1500 
@<TRIPOS>BOND
  1   1   2  2   
  2   2   3  am  
  3   2   4  1   
  4   3   5  1   
  5   3   6  1   
  6   4   7  1   
  7   4   8  1   
  8   4  25  1   
  9   5   9  1   
 10   5  26  1   
 11   5  27  1   
 12   6  10  1   
 13   6  28  1   
 14   6  29  1   
 15   7  30  1   
 16   7  31  1   
 17   7  32  1   
 18   8  33  1   
 19   8  34  1   
 20   8  35  1   
 21   9  11  1   
 22   9  12  2   
 23  10  13  1   
 24  10  14  1   
 25  10  36  1   
 26  11  15  2   
 27  11  16  am  
 28  12  17  1   
 29  12  37  1   
 30  13  18  1   
 31  14  19  1   
 32  14  38  1   
 33  14  39  1   
 34  16  20  1   
 35  16  40  1   
 36  17  20  ar  
 37  17  21  ar  
 38  18  19  1   
 39  18  41  1   
 40  18  42  1   
 41  19  43  1   
 42  19  44  1   
 43  20  22  ar  
 44  21  23  ar  
 45  21  45  1   
 46  22  24  ar  
 47  22  46  1   
 48  23  24  ar  
 49  23  47  1   
 50  24  48  1   
@<TRIPOS>SUBSTRUCTURE
  1 ****   9 GROUP 4 **** **** 0

# MOE 2024.06 (io_trps.svl 2023.06)
