@<TRIPOS>MOLECULE
1-(5-Hydroxy-3-isopropyl-5-trifluoromethyl-4,5-dihydro-pyrazol-1-yl)-3-(2-hydrox
43 44 1 0 0 
SMALL
USER_CHARGES


@<TRIPOS>ATOM
  1 F       -1.8030    -0.5720    -1.4700 F     1 <1>  -0.3400 
  2 C       -1.3810    -0.8470    -0.2370 C.3   1 <1>   1.0200 
  3 F       -0.3690    -0.0090    -0.0180 F     1 <1>  -0.3400 
  4 F       -0.8300    -2.0550    -0.3040 F     1 <1>  -0.3400 
  5 C       -2.5300    -0.6990     0.8470 C.3   1 <1>   0.5800 
  6 O       -2.1540    -1.0890     2.1380 O.3   1 <1>  -0.6800 
  7 N       -3.7720    -1.4600     0.5260 N.am  1 <1>  -0.2980 
  8 C       -3.0510     0.7460     0.9360 C.3   1 <1>  -0.0990 
  9 N       -4.8360    -0.6100     0.3030 N.2   1 <1>  -0.5120 
 10 C       -3.8360    -2.8350     0.5890 C.2   1 <1>   0.5690 
 11 C       -4.4910     0.5820     0.5170 C.2   1 <1>   0.3280 
 12 O       -2.9040    -3.4910     0.9950 O.2   1 <1>  -0.5700 
 13 C       -5.1290    -3.5190     0.1670 C.3   1 <1>  -0.0990 
 14 C       -5.3740     1.8290     0.4000 C.3   1 <1>  -0.0190 
 15 C       -5.0610    -5.0550     0.1830 C.3   1 <1>  -0.0170 
 16 C       -6.8700     1.4780     0.3390 C.3   1 <1>  -0.2400 
 17 C       -4.9950     2.6640    -0.8320 C.3   1 <1>  -0.2400 
 18 C       -6.3480    -5.7770    -0.2330 C.ar  1 <1>  -0.1440 
 19 C       -6.3730    -7.1690    -0.2110 C.ar  1 <1>   0.0820 
 20 C       -7.4990    -5.1070    -0.6350 C.ar  1 <1>  -0.1500 
 21 O       -5.2840    -7.8600     0.1690 O.3   1 <1>  -0.5320 
 22 C       -7.5090    -7.8730    -0.5760 C.ar  1 <1>  -0.1500 
 23 C       -8.6360    -5.8070    -1.0010 C.ar  1 <1>  -0.1500 
 24 C       -8.6440    -7.1900    -0.9720 C.ar  1 <1>  -0.1500 
 25 H       -2.1380    -2.0760     2.1430 H     1 <1>   0.4000 
 26 H       -2.5380     1.4020     0.2580 H     1 <1>   0.0800 
 27 H       -2.9870     1.1370     1.9350 H     1 <1>   0.0800 
 28 H       -5.3680    -3.1860    -0.8260 H     1 <1>   0.0800 
 29 H       -5.9060    -3.1920     0.8330 H     1 <1>   0.0800 
 30 H       -5.2170     2.4260     1.2810 H     1 <1>   0.0800 
 31 H       -4.8010    -5.3770     1.1770 H     1 <1>   0.0800 
 32 H       -4.2680    -5.3730    -0.4730 H     1 <1>   0.0800 
 33 H       -7.0850     0.8930    -0.5390 H     1 <1>   0.0800 
 34 H       -7.4680     2.3720     0.3140 H     1 <1>   0.0800 
 35 H       -7.1510     0.9050     1.2050 H     1 <1>   0.0800 
 36 H       -5.1090     2.0800    -1.7290 H     1 <1>   0.0800 
 37 H       -3.9770     3.0040    -0.7690 H     1 <1>   0.0800 
 38 H       -5.6300     3.5300    -0.9060 H     1 <1>   0.0800 
 39 H       -7.5380    -4.0340    -0.6720 H     1 <1>   0.1500 
 40 H       -5.4190    -8.8230     0.1480 H     1 <1>   0.4500 
 41 H       -7.5170    -8.9470    -0.5550 H     1 <1>   0.1500 
 42 H       -9.5180    -5.2730    -1.3080 H     1 <1>   0.1500 
 43 H       -9.5300    -7.7300    -1.2570 H     1 <1>   0.1500 
@<TRIPOS>BOND
  1   1   2  1   
  2   2   3  1   
  3   2   4  1   
  4   2   5  1   
  5   5   6  1   
  6   5   7  1   
  7   5   8  1   
  8   6  25  1   
  9   7   9  1   
 10   7  10  am  
 11   8  11  1   
 12   8  26  1   
 13   8  27  1   
 14   9  11  2   
 15  10  12  2   
 16  10  13  1   
 17  11  14  1   
 18  13  15  1   
 19  13  28  1   
 20  13  29  1   
 21  14  16  1   
 22  14  17  1   
 23  14  30  1   
 24  15  18  1   
 25  15  31  1   
 26  15  32  1   
 27  16  33  1   
 28  16  34  1   
 29  16  35  1   
 30  17  36  1   
 31  17  37  1   
 32  17  38  1   
 33  18  19  ar  
 34  18  20  ar  
 35  19  21  1   
 36  19  22  ar  
 37  20  23  ar  
 38  20  39  1   
 39  21  40  1   
 40  22  24  ar  
 41  22  41  1   
 42  23  24  ar  
 43  23  42  1   
 44  24  43  1   
@<TRIPOS>SUBSTRUCTURE
  1 ****  10 GROUP 4 **** **** 0

# MOE 2024.06 (io_trps.svl 2023.06)
