@<TRIPOS>MOLECULE
Cyclohexanecarboxylic acid {1-[3-(2-chloro-phenyl)-[1,2,4]oxadiazol-5-yl]-ethyl}
43 45 1 0 0 
SMALL
USER_CHARGES


@<TRIPOS>ATOM
  1 CL       0.6320    -0.8890     2.1590 Cl    1 <1>  -0.1770 
  2 C        0.4790    -0.6800     0.4300 C.ar  1 <1>   0.1770 
  3 C        1.6010    -0.4150    -0.3550 C.ar  1 <1>   0.0540 
  4 C       -0.7850    -0.8020    -0.1180 C.ar  1 <1>  -0.1500 
  5 C        2.9230    -0.2640     0.2050 C.2   1 <1>   0.4620 
  6 C        1.4020    -0.2950    -1.7300 C.ar  1 <1>  -0.1500 
  7 C       -0.9560    -0.6690    -1.4840 C.ar  1 <1>  -0.1500 
  8 N        3.9580    -0.9420    -0.1380 N.2   1 <1>  -0.4100 
  9 N        3.2110     0.6590     1.1220 N.2   1 <1>  -0.5650 
 10 C        0.1420    -0.4170    -2.2900 C.ar  1 <1>  -0.1500 
 11 O        4.9660    -0.4960     0.5440 O.3   1 <1>  -0.0190 
 12 C        4.4580     0.4640     1.2730 C.2   1 <1>   0.2980 
 13 C        5.3780     1.2630     2.2000 C.3   1 <1>   0.4000 
 14 N        6.4650     1.9380     1.4570 N.am  1 <1>  -0.7300 
 15 C        6.0190     0.3740     3.2640 C.3   1 <1>  -0.2400 
 16 C        6.3890     2.8750     0.4820 C.2   1 <1>   0.5690 
 17 O        7.4150     3.2600    -0.0180 O.2   1 <1>  -0.5700 
 18 C        5.0510     3.4440    -0.0070 C.3   1 <1>  -0.0190 
 19 C        4.6630     2.8390    -1.3700 C.3   1 <1>  -0.1600 
 20 C        5.0690     4.9830    -0.0980 C.3   1 <1>  -0.1600 
 21 C        3.3050     3.3700    -1.8490 C.3   1 <1>  -0.1600 
 22 C        3.7150     5.5280    -0.5790 C.3   1 <1>  -0.1600 
 23 C        3.3090     4.9030    -1.9210 C.3   1 <1>  -0.1600 
 24 H       -1.6250    -1.0030     0.5220 H     1 <1>   0.1500 
 25 H        2.2490    -0.0990    -2.3650 H     1 <1>   0.1500 
 26 H       -1.9370    -0.7630    -1.9200 H     1 <1>   0.1500 
 27 H        0.0140    -0.3170    -3.3540 H     1 <1>   0.1500 
 28 H        4.7840     2.0140     2.6930 H     1 <1>   0.0800 
 29 H        7.4070     1.6020     1.6580 H     1 <1>   0.3700 
 30 H        6.6310    -0.3830     2.8080 H     1 <1>   0.0800 
 31 H        5.2490    -0.1120     3.8360 H     1 <1>   0.0800 
 32 H        6.6160     0.9670     3.9350 H     1 <1>   0.0800 
 33 H        4.2850     3.1890     0.7000 H     1 <1>   0.0800 
 34 H        4.6230     1.7670    -1.2990 H     1 <1>   0.0800 
 35 H        5.4200     3.0880    -2.0950 H     1 <1>   0.0800 
 36 H        5.8400     5.2910    -0.7840 H     1 <1>   0.0800 
 37 H        5.3030     5.3990     0.8660 H     1 <1>   0.0800 
 38 H        2.5350     3.0440    -1.1700 H     1 <1>   0.0800 
 39 H        3.0810     2.9640    -2.8210 H     1 <1>   0.0800 
 40 H        3.7750     6.5970    -0.6840 H     1 <1>   0.0800 
 41 H        2.9600     5.3110     0.1570 H     1 <1>   0.0800 
 42 H        2.3300     5.2540    -2.2000 H     1 <1>   0.0800 
 43 H        4.0010     5.2190    -2.6820 H     1 <1>   0.0800 
@<TRIPOS>BOND
  1   1   2  1   
  2   2   3  ar  
  3   2   4  ar  
  4   3   5  1   
  5   3   6  ar  
  6   4   7  ar  
  7   4  24  1   
  8   5   8  2   
  9   5   9  1   
 10   6  10  ar  
 11   6  25  1   
 12   7  10  ar  
 13   7  26  1   
 14   8  11  1   
 15   9  12  2   
 16  10  27  1   
 17  11  12  1   
 18  12  13  1   
 19  13  14  1   
 20  13  15  1   
 21  13  28  1   
 22  14  16  am  
 23  14  29  1   
 24  15  30  1   
 25  15  31  1   
 26  15  32  1   
 27  16  17  2   
 28  16  18  1   
 29  18  19  1   
 30  18  20  1   
 31  18  33  1   
 32  19  21  1   
 33  19  34  1   
 34  19  35  1   
 35  20  22  1   
 36  20  36  1   
 37  20  37  1   
 38  21  23  1   
 39  21  38  1   
 40  21  39  1   
 41  22  23  1   
 42  22  40  1   
 43  22  41  1   
 44  23  42  1   
 45  23  43  1   
@<TRIPOS>SUBSTRUCTURE
  1 ****   9 GROUP 4 **** **** 0

# MOE 2024.06 (io_trps.svl 2023.06)
