@<TRIPOS>MOLECULE
Pyridine-2-carboxylic acid [2-(4-tert-butyl-benzoylamino)-ethyl]-amide
47 48 1 0 0 
SMALL
USER_CHARGES


@<TRIPOS>ATOM
  1 O       -0.8180     0.5610     0.0980 O.2   1 <1>  -0.5700 
  2 C       -0.6100     1.7460    -0.1050 C.2   1 <1>   0.5440 
  3 N       -1.6860     2.5380    -0.4070 N.am  1 <1>  -0.7300 
  4 C        0.7370     2.3190    -0.0220 C.ar  1 <1>   0.3960 
  5 C       -3.0880     2.0800    -0.5690 C.3   1 <1>   0.1400 
  6 N        0.8930     3.6430    -0.2110 N.ar  1 <1>  -0.6200 
  7 C        1.8310     1.4930     0.2490 C.ar  1 <1>  -0.1500 
  8 C       -3.7640     1.9480     0.7970 C.3   1 <1>   0.1400 
  9 C        2.1220     4.1210    -0.1280 C.ar  1 <1>   0.1600 
 10 C        3.1070     2.0050     0.3320 C.ar  1 <1>  -0.1500 
 11 N       -5.1380     1.4070     0.6420 N.am  1 <1>  -0.7300 
 12 C        3.2460     3.3600     0.1360 C.ar  1 <1>  -0.1500 
 13 C       -6.2340     2.1450     0.2900 C.2   1 <1>   0.5440 
 14 O       -6.0810     3.3300     0.0680 O.2   1 <1>  -0.5700 
 15 C       -7.5450     1.5270     0.1900 C.ar  1 <1>   0.0860 
 16 C       -7.7090     0.1780    -0.1220 C.ar  1 <1>  -0.1500 
 17 C       -8.7060     2.2660     0.4040 C.ar  1 <1>  -0.1500 
 18 C       -8.9620    -0.4030    -0.2010 C.ar  1 <1>  -0.1500 
 19 C       -9.9590     1.6880     0.3240 C.ar  1 <1>  -0.1500 
 20 C      -10.1180     0.3400     0.0230 C.ar  1 <1>  -0.1430 
 21 C      -11.5390    -0.2620    -0.0520 C.3   1 <1>   0.1430 
 22 C      -11.5440    -1.7620    -0.3910 C.3   1 <1>  -0.2400 
 23 C      -12.3460     0.4620    -1.1400 C.3   1 <1>  -0.2400 
 24 C      -12.2410    -0.0910     1.3030 C.3   1 <1>  -0.2400 
 25 H       -1.5020     3.5370    -0.5430 H     1 <1>   0.3700 
 26 H       -3.0890     1.1230    -1.0630 H     1 <1>   0.0800 
 27 H       -3.6270     2.7880    -1.1750 H     1 <1>   0.0800 
 28 H        1.6680     0.4400     0.3940 H     1 <1>   0.1500 
 29 H       -3.8140     2.9160     1.2670 H     1 <1>   0.0800 
 30 H       -3.1910     1.2850     1.4220 H     1 <1>   0.0800 
 31 H        2.2440     5.1800    -0.2790 H     1 <1>   0.1500 
 32 H        3.9550     1.3740     0.5400 H     1 <1>   0.1500 
 33 H       -5.2550     0.4260     0.8980 H     1 <1>   0.3700 
 34 H        4.2150     3.8240     0.1870 H     1 <1>   0.1500 
 35 H       -6.8450    -0.4300    -0.3160 H     1 <1>   0.1500 
 36 H       -8.6170     3.3130     0.6360 H     1 <1>   0.1500 
 37 H       -9.0100    -1.4480    -0.4450 H     1 <1>   0.1500 
 38 H      -10.8180     2.3090     0.5020 H     1 <1>   0.1500 
 39 H      -11.0880    -1.9350    -1.3500 H     1 <1>   0.0800 
 40 H      -12.5510    -2.1370    -0.4310 H     1 <1>   0.0800 
 41 H      -11.0110    -2.3210     0.3570 H     1 <1>   0.0800 
 42 H      -11.8440     0.3770    -2.0880 H     1 <1>   0.0800 
 43 H      -12.4570     1.5060    -0.9110 H     1 <1>   0.0800 
 44 H      -13.3280     0.0350    -1.2330 H     1 <1>   0.0800 
 45 H      -11.6660    -0.5660     2.0780 H     1 <1>   0.0800 
 46 H      -13.2200    -0.5360     1.2830 H     1 <1>   0.0800 
 47 H      -12.3530     0.9470     1.5550 H     1 <1>   0.0800 
@<TRIPOS>BOND
  1   1   2  2   
  2   2   3  am  
  3   2   4  1   
  4   3   5  1   
  5   3  25  1   
  6   4   6  ar  
  7   4   7  ar  
  8   5   8  1   
  9   5  26  1   
 10   5  27  1   
 11   6   9  ar  
 12   7  10  ar  
 13   7  28  1   
 14   8  11  1   
 15   8  29  1   
 16   8  30  1   
 17   9  12  ar  
 18   9  31  1   
 19  10  12  ar  
 20  10  32  1   
 21  11  13  am  
 22  11  33  1   
 23  12  34  1   
 24  13  14  2   
 25  13  15  1   
 26  15  16  ar  
 27  15  17  ar  
 28  16  18  ar  
 29  16  35  1   
 30  17  19  ar  
 31  17  36  1   
 32  18  20  ar  
 33  18  37  1   
 34  19  20  ar  
 35  19  38  1   
 36  20  21  1   
 37  21  22  1   
 38  21  23  1   
 39  21  24  1   
 40  22  39  1   
 41  22  40  1   
 42  22  41  1   
 43  23  42  1   
 44  23  43  1   
 45  23  44  1   
 46  24  45  1   
 47  24  46  1   
 48  24  47  1   
@<TRIPOS>SUBSTRUCTURE
  1 ****  11 GROUP 4 **** **** 0

# MOE 2024.06 (io_trps.svl 2023.06)
