@<TRIPOS>MOLECULE
N-(2-Hydroxy-quinolin-3-ylmethyl)-3-methoxy-N-(tetrahydro-furan-2-ylmethyl)-benz
53 56 1 0 0 
SMALL
USER_CHARGES


@<TRIPOS>ATOM
  1 O       -0.1850    -0.3790    -1.6010 O.2   1 <1>  -0.5700 
  2 C        0.6640    -0.5410    -0.7450 C.2   1 <1>   0.5440 
  3 N        1.5380     0.4870    -0.4620 N.am  1 <1>  -0.6600 
  4 C        0.7370    -1.8130    -0.0550 C.ar  1 <1>   0.0860 
  5 C        1.3850     1.8210    -1.1060 C.3   1 <1>   0.2780 
  6 C        2.6580     0.3690     0.5280 C.3   1 <1>   0.1400 
  7 C        1.2040    -2.9500    -0.7050 C.ar  1 <1>  -0.1500 
  8 C        0.3470    -1.9390     1.2780 C.ar  1 <1>  -0.1500 
  9 C        0.6150     2.7460    -0.1820 C.2   1 <1>  -0.1240 
 10 C        3.8330    -0.4500    -0.0250 C.3   1 <1>   0.2000 
 11 C        1.3070    -4.1670    -0.0550 C.ar  1 <1>   0.0830 
 12 C        0.4400    -3.1500     1.9400 C.ar  1 <1>  -0.1500 
 13 C        1.3490     3.7420     0.5370 C.2   1 <1>   0.6160 
 14 C       -0.7300     2.6400    -0.0320 C.2   1 <1>  -0.1780 
 15 O        4.8420    -0.5080     0.9270 O.3   1 <1>  -0.5600 
 16 C        4.5100     0.1450    -1.2510 C.3   1 <1>  -0.1600 
 17 O        1.7900    -5.2060    -0.7790 O.3   1 <1>  -0.3630 
 18 C        0.9220    -4.2660     1.2790 C.ar  1 <1>  -0.1500 
 19 O        2.5530     3.9030     0.4410 O.2   1 <1>  -0.5700 
 20 N        0.6590     4.5650     1.3750 N.am  1 <1>  -0.5470 
 21 C       -1.4430     3.5150     0.8490 C.ar  1 <1>   0.0280 
 22 C        6.0720    -0.7640     0.3240 C.3   1 <1>   0.1200 
 23 C        5.9140    -0.4250    -1.1570 C.3   1 <1>  -0.1600 
 24 C        1.8980    -6.4990    -0.2270 C.3   1 <1>   0.0400 
 25 C       -0.7180     4.4870     1.5580 C.ar  1 <1>   0.1170 
 26 C       -2.8250     3.4390     1.0340 C.ar  1 <1>  -0.1500 
 27 C       -1.3830     5.3510     2.4250 C.ar  1 <1>  -0.1500 
 28 C       -3.4710     4.3010     1.8950 C.ar  1 <1>  -0.1500 
 29 C       -2.7480     5.2600     2.5930 C.ar  1 <1>  -0.1500 
 30 H        0.8490     1.7250    -2.0340 H     1 <1>   0.0800 
 31 H        2.3540     2.2260    -1.3440 H     1 <1>   0.0800 
 32 H        2.2980    -0.1010     1.4250 H     1 <1>   0.0800 
 33 H        3.0140     1.3490     0.7930 H     1 <1>   0.0800 
 34 H        1.4940    -2.8840    -1.7380 H     1 <1>   0.1500 
 35 H       -0.0310    -1.0730     1.7940 H     1 <1>   0.1500 
 36 H        3.5280    -1.4640    -0.2190 H     1 <1>   0.0800 
 37 H        0.1370    -3.2240     2.9700 H     1 <1>   0.1500 
 38 H       -1.2970     1.8940    -0.5630 H     1 <1>   0.1500 
 39 H        4.5410     1.2170    -1.1630 H     1 <1>   0.0800 
 40 H        4.0060    -0.1280    -2.1600 H     1 <1>   0.0800 
 41 H        0.9880    -5.1950     1.8130 H     1 <1>   0.1500 
 42 H        1.2200     5.2580     1.8660 H     1 <1>   0.3700 
 43 H        6.3120    -1.8040     0.4680 H     1 <1>   0.0800 
 44 H        6.8130    -0.1450     0.8000 H     1 <1>   0.0800 
 45 H        6.6590     0.2780    -1.4850 H     1 <1>   0.0800 
 46 H        5.9980    -1.3250    -1.7400 H     1 <1>   0.0800 
 47 H        2.2860    -7.1540    -0.9860 H     1 <1>   0.0800 
 48 H        0.9210    -6.8310     0.0780 H     1 <1>   0.0800 
 49 H        2.5740    -6.4670     0.6090 H     1 <1>   0.0800 
 50 H       -3.3850     2.6970     0.4950 H     1 <1>   0.1500 
 51 H       -0.8230     6.0930     2.9640 H     1 <1>   0.1500 
 52 H       -4.5370     4.2340     2.0310 H     1 <1>   0.1500 
 53 H       -3.2600     5.9290     3.2640 H     1 <1>   0.1500 
@<TRIPOS>BOND
  1   1   2  2   
  2   2   3  am  
  3   2   4  1   
  4   3   5  1   
  5   3   6  1   
  6   4   7  ar  
  7   4   8  ar  
  8   5   9  1   
  9   5  30  1   
 10   5  31  1   
 11   6  10  1   
 12   6  32  1   
 13   6  33  1   
 14   7  11  ar  
 15   7  34  1   
 16   8  12  ar  
 17   8  35  1   
 18   9  13  1   
 19   9  14  2   
 20  10  15  1   
 21  10  16  1   
 22  10  36  1   
 23  11  17  1   
 24  11  18  ar  
 25  12  18  ar  
 26  12  37  1   
 27  13  19  2   
 28  13  20  am  
 29  14  21  1   
 30  14  38  1   
 31  15  22  1   
 32  16  23  1   
 33  16  39  1   
 34  16  40  1   
 35  17  24  1   
 36  18  41  1   
 37  20  25  1   
 38  20  42  1   
 39  21  25  ar  
 40  21  26  ar  
 41  22  23  1   
 42  22  43  1   
 43  22  44  1   
 44  23  45  1   
 45  23  46  1   
 46  24  47  1   
 47  24  48  1   
 48  24  49  1   
 49  25  27  ar  
 50  26  28  ar  
 51  26  50  1   
 52  27  29  ar  
 53  27  51  1   
 54  28  29  ar  
 55  28  52  1   
 56  29  53  1   
@<TRIPOS>SUBSTRUCTURE
  1 ****   3 GROUP 4 **** **** 0

# MOE 2024.06 (io_trps.svl 2023.06)
