@<TRIPOS>MOLECULE
7-((Z)-3-Chloro-but-2-enyl)-8-(4-ethyl-piperazin-1-yl)-1,3-dimethyl-3,7-dihydro-
53 55 1 0 0 
SMALL
USER_CHARGES


@<TRIPOS>ATOM
  1 CL       1.7080    -1.0370     0.8410 Cl    1 <1>  -0.1470 
  2 C        0.8040    -1.3910    -0.6100 C.2   1 <1>  -0.0060 
  3 C       -0.3330    -2.0930    -0.5850 C.2   1 <1>  -0.2940 
  4 C        1.4620    -0.7940    -1.8380 C.3   1 <1>  -0.1090 
  5 C       -0.9990    -2.6610     0.6500 C.3   1 <1>   0.4870 
  6 N       -1.3090    -4.1000     0.4160 N.pl3 1 <1>  -0.7670 
  7 C       -0.5150    -5.1180     0.0430 C.cat 1 <1>   1.0690 
  8 C       -2.6490    -4.5550     0.3170 C.2   1 <1>   0.2710 
  9 N       -1.2780    -6.1540    -0.3100 N.pl3 1 <1>  -0.7040 
 10 N        0.8470    -5.1920     0.0120 N.pl3 1 <1>  -0.5960 
 11 C       -3.9490    -4.0030     0.5850 C.2   1 <1>   0.6990 
 12 C       -2.5830    -5.8200    -0.1430 C.2   1 <1>   0.4210 
 13 C        1.7640    -4.3240     0.8260 C.3   1 <1>   0.1610 
 14 C        1.5950    -6.1070    -0.9240 C.3   1 <1>   0.1610 
 15 O       -4.0790    -2.8610     0.9890 O.2   1 <1>  -0.5740 
 16 N       -5.0630    -4.8050     0.3790 N.am  1 <1>  -0.4250 
 17 N       -3.6830    -6.6180    -0.3880 N.am  1 <1>  -0.4410 
 18 C        2.9010    -5.1170     1.5090 C.3   1 <1>   0.3370 
 19 C        2.7350    -6.8850    -0.2260 C.3   1 <1>   0.3370 
 20 C       -4.9390    -6.0990    -0.1100 C.2   1 <1>   0.6860 
 21 C       -6.4340    -4.2690     0.6600 C.3   1 <1>   0.0530 
 22 C       -3.5460    -8.0060    -0.9260 C.3   1 <1>   0.0530 
 23 N        3.6550    -5.9790     0.5410 N.4   1 <1>  -0.9610 
 24 O       -5.9260    -6.7790    -0.2930 O.2   1 <1>  -0.5740 
 25 C        4.7190    -6.7390     1.2540 C.3   1 <1>   0.3370 
 26 C        5.7170    -7.2890     0.2430 C.3   1 <1>  -0.2460 
 27 H       -0.8980    -2.2860    -1.4790 H     1 <1>   0.1430 
 28 H        1.5270     0.2740    -1.7320 H     1 <1>   0.0730 
 29 H        0.8910    -1.0140    -2.7230 H     1 <1>   0.0730 
 30 H        2.4550    -1.1890    -1.9580 H     1 <1>   0.0730 
 31 H       -1.8940    -2.0960     0.8250 H     1 <1>   0.0730 
 32 H       -0.3900    -2.5420     1.5270 H     1 <1>   0.0730 
 33 H       -0.9590    -7.0690    -0.6090 H     1 <1>   0.4450 
 34 H        2.2060    -3.5830     0.1840 H     1 <1>   0.0730 
 35 H        1.2190    -3.8210     1.6020 H     1 <1>   0.0730 
 36 H        0.9320    -6.8150    -1.3890 H     1 <1>   0.0730 
 37 H        2.0230    -5.5140    -1.7150 H     1 <1>   0.0730 
 38 H        2.4780    -5.7330     2.2850 H     1 <1>   0.0730 
 39 H        3.5790    -4.4220     1.9780 H     1 <1>   0.0730 
 40 H        3.2970    -7.4240    -0.9710 H     1 <1>   0.0730 
 41 H        2.3060    -7.6100     0.4460 H     1 <1>   0.0730 
 42 H       -6.3960    -3.4560     1.3640 H     1 <1>   0.0730 
 43 H       -7.0570    -5.0420     1.0770 H     1 <1>   0.0730 
 44 H       -6.8790    -3.9210    -0.2550 H     1 <1>   0.0730 
 45 H       -2.7130    -8.0730    -1.6020 H     1 <1>   0.0730 
 46 H       -4.4330    -8.2890    -1.4680 H     1 <1>   0.0730 
 47 H       -3.4100    -8.6990    -0.1130 H     1 <1>   0.0730 
 48 H        4.1460    -5.3640    -0.1270 H     1 <1>   0.4450 
 49 H        5.2410    -6.0840     1.9330 H     1 <1>   0.0730 
 50 H        4.2870    -7.5450     1.8260 H     1 <1>   0.0730 
 51 H        6.1400    -6.4980    -0.3510 H     1 <1>   0.0730 
 52 H        5.2710    -8.0280    -0.3970 H     1 <1>   0.0730 
 53 H        6.5220    -7.7660     0.7740 H     1 <1>   0.0730 
@<TRIPOS>BOND
  1   1   2  1   
  2   2   3  2   
  3   2   4  1   
  4   3   5  1   
  5   3  27  1   
  6   4  28  1   
  7   4  29  1   
  8   4  30  1   
  9   5   6  1   
 10   5  31  1   
 11   5  32  1   
 12   6   7  ar  
 13   6   8  1   
 14   7   9  ar  
 15   7  10  ar  
 16   8  11  1   
 17   8  12  2   
 18   9  12  1   
 19   9  33  1   
 20  10  13  1   
 21  10  14  1   
 22  11  15  2   
 23  11  16  am  
 24  12  17  1   
 25  13  18  1   
 26  13  34  1   
 27  13  35  1   
 28  14  19  1   
 29  14  36  1   
 30  14  37  1   
 31  16  20  am  
 32  16  21  1   
 33  17  20  am  
 34  17  22  1   
 35  18  23  1   
 36  18  38  1   
 37  18  39  1   
 38  19  23  1   
 39  19  40  1   
 40  19  41  1   
 41  20  24  2   
 42  21  42  1   
 43  21  43  1   
 44  21  44  1   
 45  22  45  1   
 46  22  46  1   
 47  22  47  1   
 48  23  25  1   
 49  23  48  1   
 50  25  26  1   
 51  25  49  1   
 52  25  50  1   
 53  26  51  1   
 54  26  52  1   
 55  26  53  1   
@<TRIPOS>SUBSTRUCTURE
  1 ****   7 GROUP 4 **** **** 0

# MOE 2024.06 (io_trps.svl 2023.06)
