@<TRIPOS>MOLECULE
2-(4-Methyl-pyrimidin-2-ylsulfanyl)-propionic acid
22 22 1 0 0 
SMALL
USER_CHARGES


@<TRIPOS>ATOM
  1 S       -0.1720     0.0900     0.6160 S.3   1 <1>  -0.3320 
  2 C       -1.5450    -0.8320    -0.0610 C.ar  1 <1>   0.7220 
  3 C       -0.1330     1.7220    -0.2950 C.3   1 <1>   0.0440 
  4 N       -1.7050    -2.0380     0.4640 N.ar  1 <1>  -0.6200 
  5 N       -2.2650    -0.2350    -1.0020 N.ar  1 <1>  -0.6200 
  6 C        1.2970     2.2760    -0.3860 C.2   1 <1>   0.9060 
  7 C       -1.1320     2.6600     0.4060 C.3   1 <1>  -0.2400 
  8 C       -2.7080    -2.7290    -0.0230 C.ar  1 <1>   0.1660 
  9 C       -3.2590    -0.9540    -1.4680 C.ar  1 <1>   0.1600 
 10 O        1.7960     2.8740     0.5790 O.co2 1 <1>  -0.9000 
 11 O        1.9050     2.1620    -1.4590 O.co2 1 <1>  -0.9000 
 12 C       -3.5260    -2.2220    -1.0060 C.ar  1 <1>  -0.1500 
 13 C       -2.9230    -4.1140     0.5490 C.3   1 <1>  -0.0960 
 14 H       -0.4530     1.5220    -1.2990 H     1 <1>   0.0800 
 15 H       -0.8190     2.8250     1.4220 H     1 <1>   0.0800 
 16 H       -2.1180     2.2350     0.3980 H     1 <1>   0.0800 
 17 H       -1.1510     3.6060    -0.1020 H     1 <1>   0.0800 
 18 H       -3.8740    -0.5200    -2.2370 H     1 <1>   0.1500 
 19 H       -4.3450    -2.7900    -1.4040 H     1 <1>   0.1500 
 20 H       -2.0460    -4.7110     0.3800 H     1 <1>   0.0800 
 21 H       -3.7680    -4.5960     0.0920 H     1 <1>   0.0800 
 22 H       -3.0920    -4.0410     1.6080 H     1 <1>   0.0800 
@<TRIPOS>BOND
  1   1   2  1   
  2   1   3  1   
  3   2   4  ar  
  4   2   5  ar  
  5   3   6  1   
  6   3   7  1   
  7   3  14  1   
  8   4   8  ar  
  9   5   9  ar  
 10   6  10  ar  
 11   6  11  ar  
 12   7  15  1   
 13   7  16  1   
 14   7  17  1   
 15   8  12  ar  
 16   8  13  1   
 17   9  12  ar  
 18   9  18  1   
 19  12  19  1   
 20  13  20  1   
 21  13  21  1   
 22  13  22  1   
@<TRIPOS>SUBSTRUCTURE
  1 ****   2 GROUP 4 **** **** 0

# MOE 2024.06 (io_trps.svl 2023.06)
