@<TRIPOS>MOLECULE
(5,6-Dimethyl-7-oxo-4,7-dihydro-[1,2,4]triazolo[1,5-a]pyrimidin-2-yl)-acetic aci
26 27 1 0 0 
SMALL
USER_CHARGES


@<TRIPOS>ATOM
  1 O       -0.0780    -0.6840    -1.6560 O.2   1 <1>  -0.5800 
  2 C       -0.1800    -1.6380    -0.9120 C.2   1 <1>   0.9690 
  3 N       -1.4490    -2.0630    -0.5300 N.pl3 1 <1>  -0.3750 
  4 C        0.9630    -2.3550    -0.4090 C.2   1 <1>  -0.1400 
  5 N       -2.7070    -1.5660    -0.8170 N.2   1 <1>  -0.2740 
  6 C       -1.5630    -3.1000     0.2740 C.cat 1 <1>   1.0660 
  7 C        0.7750    -3.4060     0.4370 C.2   1 <1>   0.1490 
  8 C        2.3430    -1.8710    -0.8730 C.3   1 <1>  -0.1180 
  9 C       -3.5020    -2.3410    -0.1730 C.2   1 <1>   0.4730 
 10 N       -2.8210    -3.3090     0.4900 N.pl3 1 <1>  -0.7090 
 11 N       -0.5120    -3.7680     0.7610 N.pl3 1 <1>  -0.6990 
 12 C        1.8410    -4.2640     1.0990 C.3   1 <1>  -0.1180 
 13 C       -5.0060    -2.2740    -0.1020 C.3   1 <1>  -0.1140 
 14 C       -5.4210    -2.7510     1.2600 C.2   1 <1>   0.9000 
 15 O       -5.9340    -1.9540     2.0380 O.co2 1 <1>  -0.9060 
 16 O       -5.1140    -3.9080     1.5880 O.co2 1 <1>  -0.9060 
 17 H        2.3330    -1.6830    -1.9340 H     1 <1>   0.0630 
 18 H        3.1220    -2.5860    -0.6900 H     1 <1>   0.0630 
 19 H        2.5960    -0.9520    -0.3740 H     1 <1>   0.0630 
 20 H       -3.3740    -3.9430     1.1040 H     1 <1>   0.4380 
 21 H       -0.7060    -4.5420     1.3990 H     1 <1>   0.4380 
 22 H        1.6280    -4.3710     2.1480 H     1 <1>   0.0630 
 23 H        2.8220    -3.8370     1.0180 H     1 <1>   0.0630 
 24 H        1.8560    -5.2410     0.6510 H     1 <1>   0.0630 
 25 H       -5.4430    -2.9150    -0.8420 H     1 <1>   0.0630 
 26 H       -5.3470    -1.2680    -0.2540 H     1 <1>   0.0630 
@<TRIPOS>BOND
  1   1   2  2   
  2   2   3  1   
  3   2   4  1   
  4   3   5  1   
  5   3   6  ar  
  6   4   7  2   
  7   4   8  1   
  8   5   9  2   
  9   6  10  ar  
 10   6  11  ar  
 11   7  11  1   
 12   7  12  1   
 13   8  17  1   
 14   8  18  1   
 15   8  19  1   
 16   9  10  1   
 17   9  13  1   
 18  10  20  1   
 19  11  21  1   
 20  12  22  1   
 21  12  23  1   
 22  12  24  1   
 23  13  14  1   
 24  13  25  1   
 25  13  26  1   
 26  14  15  ar  
 27  14  16  ar  
@<TRIPOS>SUBSTRUCTURE
  1 ****   6 GROUP 4 **** **** 0

# MOE 2024.06 (io_trps.svl 2023.06)
