@<TRIPOS>MOLECULE
2-(2-Fluoro-phenyl)-thiazolidine-3,4-dicarboxylic acid 3-tert-butyl ester
39 40 1 0 0 
SMALL
USER_CHARGES


@<TRIPOS>ATOM
  1 S       -0.0380     0.2600    -0.9790 S.3   1 <1>  -0.4600 
  2 C       -1.7960     0.6830    -0.9650 C.3   1 <1>   0.5940 
  3 C        0.5450     1.6620    -0.0120 C.3   1 <1>   0.0700 
  4 N       -1.9130     1.8080    -0.0250 N.am  1 <1>  -0.6600 
  5 C       -2.5840    -0.5640    -0.5630 C.ar  1 <1>  -0.1440 
  6 C       -0.6400     2.6210     0.0580 C.3   1 <1>   0.1140 
  7 C       -3.1110     2.4470     0.0620 C.2   1 <1>   0.7800 
  8 C       -2.4700    -1.1730     0.6800 C.ar  1 <1>   0.1900 
  9 C       -3.4660    -1.1290    -1.4750 C.ar  1 <1>  -0.1500 
 10 C       -0.4860     3.6970    -1.0320 C.2   1 <1>   0.9060 
 11 O       -4.1370     1.9970    -0.4170 O.2   1 <1>  -0.5700 
 12 O       -3.1130     3.6180     0.7020 O.3   1 <1>  -0.4300 
 13 F       -1.6620    -0.6890     1.5880 F     1 <1>  -0.1900 
 14 C       -3.1910    -2.3030     1.0220 C.ar  1 <1>  -0.1500 
 15 C       -4.1970    -2.2620    -1.1500 C.ar  1 <1>  -0.1500 
 16 O       -1.0750     3.5770    -2.1160 O.co2 1 <1>  -0.9000 
 17 O        0.2590     4.6580    -0.7980 O.co2 1 <1>  -0.9000 
 18 C       -4.0980     4.6200     0.6380 C.3   1 <1>   0.2800 
 19 C       -4.0600    -2.8520     0.0960 C.ar  1 <1>  -0.1500 
 20 C       -5.3780     4.1530     1.3390 C.3   1 <1>  -0.2400 
 21 C       -4.3370     5.0260    -0.8220 C.3   1 <1>  -0.2400 
 22 C       -3.5020     5.8060     1.3970 C.3   1 <1>  -0.2400 
 23 H       -2.0450     1.0140    -1.9590 H     1 <1>   0.0800 
 24 H        1.4020     2.0950    -0.4980 H     1 <1>   0.0800 
 25 H        0.8040     1.2940     0.9630 H     1 <1>   0.0800 
 26 H       -0.6100     3.1370     1.0000 H     1 <1>   0.0800 
 27 H       -3.5920    -0.6790    -2.4460 H     1 <1>   0.1500 
 28 H       -3.0690    -2.7380     1.9960 H     1 <1>   0.1500 
 29 H       -4.8760    -2.6830    -1.8710 H     1 <1>   0.1500 
 30 H       -4.6300    -3.7310     0.3440 H     1 <1>   0.1500 
 31 H       -5.8520     3.3620     0.7880 H     1 <1>   0.0800 
 32 H       -6.0760     4.9670     1.4090 H     1 <1>   0.0800 
 33 H       -5.1520     3.8070     2.3310 H     1 <1>   0.0800 
 34 H       -3.3980     5.2500    -1.3000 H     1 <1>   0.0800 
 35 H       -4.9630     5.8970    -0.8680 H     1 <1>   0.0800 
 36 H       -4.8240     4.2400    -1.3680 H     1 <1>   0.0800 
 37 H       -2.5840     6.1150     0.9270 H     1 <1>   0.0800 
 38 H       -3.2980     5.5310     2.4160 H     1 <1>   0.0800 
 39 H       -4.1840     6.6360     1.3940 H     1 <1>   0.0800 
@<TRIPOS>BOND
  1   1   2  1   
  2   1   3  1   
  3   2   4  1   
  4   2   5  1   
  5   2  23  1   
  6   3   6  1   
  7   3  24  1   
  8   3  25  1   
  9   4   6  1   
 10   4   7  am  
 11   5   8  ar  
 12   5   9  ar  
 13   6  10  1   
 14   6  26  1   
 15   7  11  2   
 16   7  12  1   
 17   8  13  1   
 18   8  14  ar  
 19   9  15  ar  
 20   9  27  1   
 21  10  16  ar  
 22  10  17  ar  
 23  12  18  1   
 24  14  19  ar  
 25  14  28  1   
 26  15  19  ar  
 27  15  29  1   
 28  18  20  1   
 29  18  21  1   
 30  18  22  1   
 31  19  30  1   
 32  20  31  1   
 33  20  32  1   
 34  20  33  1   
 35  21  34  1   
 36  21  35  1   
 37  21  36  1   
 38  22  37  1   
 39  22  38  1   
 40  22  39  1   
@<TRIPOS>SUBSTRUCTURE
  1 ****   4 GROUP 4 **** **** 0

# MOE 2024.06 (io_trps.svl 2023.06)
