@<TRIPOS>MOLECULE
2-(5-Cyclohexyl-4-methyl-4H-[1,2,4]triazol-3-ylsulfanyl)-1-(2-methyl-2,3-dihydro
52 55 1 0 0 
SMALL
USER_CHARGES


@<TRIPOS>ATOM
  1 S       -0.2630     0.0140     1.1310 S.3   1 <1>  -0.2860 
  2 C       -0.0080    -1.4450     0.1110 C.2   1 <1>   0.2420 
  3 C       -1.2450     1.1710     0.0560 C.3   1 <1>   0.1310 
  4 N       -0.3860    -1.5460    -1.1120 N.2   1 <1>  -0.3380 
  5 N        0.5800    -2.5440     0.5830 N.pl3 1 <1>   0.0480 
  6 C       -2.6430     1.4060     0.6190 C.2   1 <1>   0.5690 
  7 N       -0.0500    -2.7780    -1.4940 N.2   1 <1>  -0.3380 
  8 C        0.5200    -3.3600    -0.4870 C.2   1 <1>   0.0060 
  9 C        1.1070    -2.7160     1.9540 C.3   1 <1>   0.0160 
 10 O       -2.7640     2.3680     1.3410 O.2   1 <1>  -0.5700 
 11 N       -3.7140     0.6010     0.2710 N.am  1 <1>  -0.4770 
 12 C        1.0330    -4.7970    -0.5750 C.3   1 <1>   0.1000 
 13 C       -5.0780     0.9170     0.3740 C.ar  1 <1>   0.1170 
 14 C       -3.6080    -0.6820    -0.4840 C.3   1 <1>   0.2200 
 15 C        0.3000    -5.7390     0.3990 C.3   1 <1>  -0.1600 
 16 C        2.5620    -4.8800    -0.4210 C.3   1 <1>  -0.1600 
 17 C       -5.8410     0.1320    -0.4640 C.ar  1 <1>  -0.1430 
 18 C       -5.7090     1.8640     1.1730 C.ar  1 <1>  -0.1500 
 19 C       -4.9520    -0.8170    -1.2240 C.3   1 <1>  -0.0170 
 20 C       -3.4310    -1.8310     0.5150 C.3   1 <1>  -0.2400 
 21 C        0.8160    -7.1800     0.2800 C.3   1 <1>  -0.1600 
 22 C        3.0590    -6.3290    -0.5310 C.3   1 <1>  -0.1600 
 23 C       -7.2150     0.2620    -0.5360 C.ar  1 <1>  -0.1500 
 24 C       -7.0860     2.0070     1.1120 C.ar  1 <1>  -0.1500 
 25 C        2.3370    -7.2430     0.4670 C.3   1 <1>  -0.1600 
 26 C       -7.8380     1.2100     0.2610 C.ar  1 <1>  -0.1500 
 27 H       -1.2740     0.7880    -0.9430 H     1 <1>   0.0800 
 28 H       -0.7060     2.0990     0.0510 H     1 <1>   0.0800 
 29 H        0.2960    -2.6370     2.6560 H     1 <1>   0.0800 
 30 H        1.8260    -1.9420     2.1550 H     1 <1>   0.0800 
 31 H        1.5800    -3.6710     2.0670 H     1 <1>   0.0800 
 32 H        0.8040    -5.1440    -1.5690 H     1 <1>   0.0800 
 33 H       -2.8030    -0.6610    -1.1940 H     1 <1>   0.0800 
 34 H       -0.7540    -5.7180     0.1810 H     1 <1>   0.0800 
 35 H        0.4310    -5.4100     1.4110 H     1 <1>   0.0800 
 36 H        2.8680    -4.4820     0.5270 H     1 <1>   0.0800 
 37 H        3.0250    -4.2850    -1.1900 H     1 <1>   0.0800 
 38 H       -5.1340     2.4810     1.8380 H     1 <1>   0.1500 
 39 H       -5.3280    -1.8240    -1.2130 H     1 <1>   0.0800 
 40 H       -4.8470    -0.4860    -2.2420 H     1 <1>   0.0800 
 41 H       -4.2990    -1.9200     1.1450 H     1 <1>   0.0800 
 42 H       -2.5740    -1.6690     1.1370 H     1 <1>   0.0800 
 43 H       -3.2920    -2.7560    -0.0160 H     1 <1>   0.0800 
 44 H        0.5610    -7.5710    -0.6910 H     1 <1>   0.0800 
 45 H        0.3350    -7.7980     1.0180 H     1 <1>   0.0800 
 46 H        4.1200    -6.3610    -0.3500 H     1 <1>   0.0800 
 47 H        2.8870    -6.6890    -1.5320 H     1 <1>   0.0800 
 48 H       -7.7910    -0.3600    -1.1970 H     1 <1>   0.1500 
 49 H       -7.5730     2.7410     1.7300 H     1 <1>   0.1500 
 50 H        2.6730    -8.2570     0.3320 H     1 <1>   0.0800 
 51 H        2.5880    -6.9460     1.4710 H     1 <1>   0.0800 
 52 H       -8.9060     1.3270     0.2200 H     1 <1>   0.1500 
@<TRIPOS>BOND
  1   1   2  1   
  2   1   3  1   
  3   2   4  2   
  4   2   5  1   
  5   3   6  1   
  6   3  27  1   
  7   3  28  1   
  8   4   7  1   
  9   5   8  1   
 10   5   9  1   
 11   6  10  2   
 12   6  11  am  
 13   7   8  2   
 14   8  12  1   
 15   9  29  1   
 16   9  30  1   
 17   9  31  1   
 18  11  13  1   
 19  11  14  1   
 20  12  15  1   
 21  12  16  1   
 22  12  32  1   
 23  13  17  ar  
 24  13  18  ar  
 25  14  19  1   
 26  14  20  1   
 27  14  33  1   
 28  15  21  1   
 29  15  34  1   
 30  15  35  1   
 31  16  22  1   
 32  16  36  1   
 33  16  37  1   
 34  17  19  1   
 35  17  23  ar  
 36  18  24  ar  
 37  18  38  1   
 38  19  39  1   
 39  19  40  1   
 40  20  41  1   
 41  20  42  1   
 42  20  43  1   
 43  21  25  1   
 44  21  44  1   
 45  21  45  1   
 46  22  25  1   
 47  22  46  1   
 48  22  47  1   
 49  23  26  ar  
 50  23  48  1   
 51  24  26  ar  
 52  24  49  1   
 53  25  50  1   
 54  25  51  1   
 55  26  52  1   
@<TRIPOS>SUBSTRUCTURE
  1 ****  20 GROUP 4 **** **** 0

# MOE 2024.06 (io_trps.svl 2023.06)
