@<TRIPOS>MOLECULE
N-(5-Ethyl-[1,3,4]thiadiazol-2-yl)-4-isobutyrylamino-benzamide
40 41 1 0 0 
SMALL
USER_CHARGES


@<TRIPOS>ATOM
  1 S       -0.4420    -0.5220    -0.6450 S.3   1 <1>  -0.0800 
  2 C       -1.9210     0.0340     0.0670 C.2   1 <1>   0.4420 
  3 C        0.2780     0.9720    -0.1520 C.2   1 <1>   0.1980 
  4 N       -1.7960     1.2000     0.5890 N.2   1 <1>  -0.3380 
  5 N       -2.9960    -0.8270    -0.0040 N.am  1 <1>  -0.4940 
  6 N       -0.5410     1.7280     0.4600 N.2   1 <1>  -0.3380 
  7 C        1.7430     1.1880    -0.4970 C.3   1 <1>   0.0200 
  8 C       -4.3100    -0.6260     0.3440 C.2   1 <1>   0.5440 
  9 C        2.2800     2.5410    -0.0090 C.3   1 <1>  -0.2400 
 10 O       -4.7110     0.4910     0.5920 O.2   1 <1>  -0.5700 
 11 C       -5.2150    -1.7550     0.3700 C.ar  1 <1>   0.0860 
 12 C       -4.8140    -3.0210     0.8060 C.ar  1 <1>  -0.1500 
 13 C       -6.5390    -1.6210    -0.0490 C.ar  1 <1>  -0.1500 
 14 C       -5.6840    -4.0940     0.8010 C.ar  1 <1>  -0.1500 
 15 C       -7.4100    -2.6930    -0.0550 C.ar  1 <1>  -0.1500 
 16 C       -6.9960    -3.9540     0.3630 C.ar  1 <1>   0.1170 
 17 N       -7.8430    -5.0670     0.3790 N.am  1 <1>  -0.5470 
 18 C       -8.9590    -5.3440    -0.3640 C.2   1 <1>   0.5690 
 19 O       -9.3630    -4.6230    -1.2430 O.2   1 <1>  -0.5700 
 20 C       -9.7060    -6.6490    -0.0650 C.3   1 <1>  -0.0190 
 21 C       -9.5780    -7.6450    -1.2290 C.3   1 <1>  -0.2400 
 22 C      -11.1900    -6.3960     0.2480 C.3   1 <1>  -0.2400 
 23 H       -2.7920    -1.7310    -0.4170 H     1 <1>   0.3700 
 24 H        1.8580     1.1280    -1.5640 H     1 <1>   0.0800 
 25 H        2.3220     0.3980    -0.0520 H     1 <1>   0.0800 
 26 H        1.7220     3.3450    -0.4560 H     1 <1>   0.0800 
 27 H        3.3160     2.6490    -0.2740 H     1 <1>   0.0800 
 28 H        2.1860     2.6130     1.0610 H     1 <1>   0.0800 
 29 H       -3.8100    -3.1650     1.1650 H     1 <1>   0.1500 
 30 H       -6.8860    -0.6540    -0.3750 H     1 <1>   0.1500 
 31 H       -5.3420    -5.0550     1.1400 H     1 <1>   0.1500 
 32 H       -8.4220    -2.5440    -0.3850 H     1 <1>   0.1500 
 33 H       -7.5660    -5.8070     1.0200 H     1 <1>   0.3700 
 34 H       -9.2650    -7.1010     0.8050 H     1 <1>   0.0800 
 35 H      -10.0220    -7.2350    -2.1200 H     1 <1>   0.0800 
 36 H      -10.0720    -8.5710    -0.9920 H     1 <1>   0.0800 
 37 H       -8.5420    -7.8510    -1.4310 H     1 <1>   0.0800 
 38 H      -11.6830    -5.9610    -0.6050 H     1 <1>   0.0800 
 39 H      -11.2840    -5.7150     1.0760 H     1 <1>   0.0800 
 40 H      -11.6870    -7.3160     0.5020 H     1 <1>   0.0800 
@<TRIPOS>BOND
  1   1   2  1   
  2   1   3  1   
  3   2   4  2   
  4   2   5  1   
  5   3   6  2   
  6   3   7  1   
  7   4   6  1   
  8   5   8  am  
  9   5  23  1   
 10   7   9  1   
 11   7  24  1   
 12   7  25  1   
 13   8  10  2   
 14   8  11  1   
 15   9  26  1   
 16   9  27  1   
 17   9  28  1   
 18  11  12  ar  
 19  11  13  ar  
 20  12  14  ar  
 21  12  29  1   
 22  13  15  ar  
 23  13  30  1   
 24  14  16  ar  
 25  14  31  1   
 26  15  16  ar  
 27  15  32  1   
 28  16  17  1   
 29  17  18  am  
 30  17  33  1   
 31  18  19  2   
 32  18  20  1   
 33  20  21  1   
 34  20  22  1   
 35  20  34  1   
 36  21  35  1   
 37  21  36  1   
 38  21  37  1   
 39  22  38  1   
 40  22  39  1   
 41  22  40  1   
@<TRIPOS>SUBSTRUCTURE
  1 ****  11 GROUP 4 **** **** 0

# MOE 2024.06 (io_trps.svl 2023.06)
