@<TRIPOS>MOLECULE
2-(Tetrahydro-furan-2-ylmethoxy)-phenylamine
29 30 1 0 0 
SMALL
USER_CHARGES


@<TRIPOS>ATOM
  1 O        0.1980     0.5020     0.1970 O.3   1 <1>  -0.5600 
  2 C        0.2680     1.8650     0.4540 C.3   1 <1>   0.2000 
  3 C       -1.1300     0.1070     0.0630 C.3   1 <1>   0.1200 
  4 C       -0.8670     2.4570    -0.3710 C.3   1 <1>  -0.1600 
  5 C        1.6620     2.3770     0.0870 C.3   1 <1>   0.1200 
  6 C       -1.9050     1.3470    -0.3770 C.3   1 <1>  -0.1600 
  7 O        1.7050     3.7810     0.2530 O.3   1 <1>  -0.3630 
  8 C        2.8670     4.4740     0.0470 C.ar  1 <1>   0.0820 
  9 C        2.8600     5.8410     0.3510 C.ar  1 <1>   0.1000 
 10 C        4.0250     3.8850    -0.4500 C.ar  1 <1>  -0.1500 
 11 N        1.7170     6.4600     0.8430 N.pl3 1 <1>  -0.9000 
 12 C        4.0110     6.5880     0.1510 C.ar  1 <1>  -0.1500 
 13 C        5.1670     4.6450    -0.6440 C.ar  1 <1>  -0.1500 
 14 C        5.1600     5.9960    -0.3440 C.ar  1 <1>  -0.1500 
 15 H        0.0860     2.0020     1.5070 H     1 <1>   0.0800 
 16 H       -1.4720    -0.2500     1.0200 H     1 <1>   0.0800 
 17 H       -1.1790    -0.6840    -0.6650 H     1 <1>   0.0800 
 18 H       -0.5250     2.6520    -1.3730 H     1 <1>   0.0800 
 19 H       -1.2350     3.3710     0.0600 H     1 <1>   0.0800 
 20 H        1.8780     2.1510    -0.9420 H     1 <1>   0.0800 
 21 H        2.3970     1.9360     0.7370 H     1 <1>   0.0800 
 22 H       -2.6940     1.5490     0.3270 H     1 <1>   0.0800 
 23 H       -2.3330     1.2110    -1.3540 H     1 <1>   0.0800 
 24 H        4.0640     2.8410    -0.6940 H     1 <1>   0.1500 
 25 H        1.4780     7.3420     0.3850 H     1 <1>   0.4000 
 26 H        0.9180     5.8160     0.8380 H     1 <1>   0.4000 
 27 H        4.0060     7.6350     0.3910 H     1 <1>   0.1500 
 28 H        6.0610     4.1850    -1.0290 H     1 <1>   0.1500 
 29 H        6.0470     6.5860    -0.4940 H     1 <1>   0.1500 
@<TRIPOS>BOND
  1   1   2  1   
  2   1   3  1   
  3   2   4  1   
  4   2   5  1   
  5   2  15  1   
  6   3   6  1   
  7   3  16  1   
  8   3  17  1   
  9   4   6  1   
 10   4  18  1   
 11   4  19  1   
 12   5   7  1   
 13   5  20  1   
 14   5  21  1   
 15   6  22  1   
 16   6  23  1   
 17   7   8  1   
 18   8   9  ar  
 19   8  10  ar  
 20   9  11  1   
 21   9  12  ar  
 22  10  13  ar  
 23  10  24  1   
 24  11  25  1   
 25  11  26  1   
 26  12  14  ar  
 27  12  27  1   
 28  13  14  ar  
 29  13  28  1   
 30  14  29  1   
@<TRIPOS>SUBSTRUCTURE
  1 ****   7 GROUP 4 **** **** 0

# MOE 2024.06 (io_trps.svl 2023.06)
