@<TRIPOS>MOLECULE
[1-(4-Ethoxy-3-methyl-benzenesulfonyl)-piperidin-4-yl]-pyrrolidin-1-yl-methanone
54 56 1 0 0 
SMALL
USER_CHARGES


@<TRIPOS>ATOM
  1 S       -0.4350     0.2860    -2.3360 S.o2  1 <1>   1.4470 
  2 O        0.3340    -0.6280    -3.1560 O.2   1 <1>  -0.6500 
  3 O       -1.2370     1.3030    -2.9810 O.2   1 <1>  -0.6500 
  4 N        0.6790     1.0800    -1.3320 N.am  1 <1>  -0.8490 
  5 C       -1.4660    -0.6410    -1.1670 C.ar  1 <1>  -0.0090 
  6 C        1.3480     2.1770    -2.0360 C.3   1 <1>   0.1960 
  7 C        1.6420     0.1490    -0.7370 C.3   1 <1>   0.1960 
  8 C       -1.9360    -0.0470    -0.0010 C.ar  1 <1>  -0.1500 
  9 C       -1.8180    -1.9630    -1.4070 C.ar  1 <1>  -0.1500 
 10 C        2.2310     2.9680    -1.0680 C.3   1 <1>  -0.1600 
 11 C        2.5260     0.8770     0.2770 C.3   1 <1>  -0.1600 
 12 C       -2.7190    -0.7400     0.9070 C.ar  1 <1>  -0.1430 
 13 C       -2.6020    -2.6720    -0.5130 C.ar  1 <1>  -0.1500 
 14 C        3.2620     2.0580    -0.3740 C.3   1 <1>  -0.0190 
 15 C       -3.0570    -2.0650     0.6530 C.ar  1 <1>   0.0830 
 16 C       -3.2040    -0.0450     2.1720 C.3   1 <1>  -0.0970 
 17 C        4.1190     2.8080     0.6530 C.2   1 <1>   0.5690 
 18 O       -3.8270    -2.7080     1.5690 O.3   1 <1>  -0.3630 
 19 O        3.5960     3.6640     1.3290 O.2   1 <1>  -0.5700 
 20 N        5.4440     2.5010     0.8090 N.am  1 <1>  -0.6600 
 21 C       -4.2480    -4.0390     1.3870 C.3   1 <1>   0.1200 
 22 C        6.2070     1.4380     0.1170 C.3   1 <1>   0.1400 
 23 C        6.2990     3.2120     1.7860 C.3   1 <1>   0.1400 
 24 C       -5.1020    -4.4320     2.5890 C.3   1 <1>  -0.2400 
 25 C        7.5150     1.3290     0.8910 C.3   1 <1>  -0.1600 
 26 C        7.7110     2.7100     1.5100 C.3   1 <1>  -0.1600 
 27 H        0.6130     2.8460    -2.4510 H     1 <1>   0.0800 
 28 H        1.9400     1.7840    -2.8470 H     1 <1>   0.0800 
 29 H        2.2550    -0.2890    -1.5090 H     1 <1>   0.0800 
 30 H        1.1170    -0.6450    -0.2330 H     1 <1>   0.0800 
 31 H       -1.6750     0.9810     0.1920 H     1 <1>   0.1500 
 32 H       -1.4720    -2.4450    -2.3070 H     1 <1>   0.1500 
 33 H        1.5980     3.4350    -0.3320 H     1 <1>   0.0800 
 34 H        2.7400     3.7500    -1.6020 H     1 <1>   0.0800 
 35 H        3.2390     0.1860     0.6900 H     1 <1>   0.0800 
 36 H        1.9110     1.2340     1.0860 H     1 <1>   0.0800 
 37 H       -2.8450    -3.6920    -0.7440 H     1 <1>   0.1500 
 38 H        3.9060     1.6750    -1.1430 H     1 <1>   0.0800 
 39 H       -2.8380     0.9640     2.2280 H     1 <1>   0.0800 
 40 H       -2.8610    -0.5840     3.0370 H     1 <1>   0.0800 
 41 H       -4.2790    -0.0230     2.1840 H     1 <1>   0.0800 
 42 H       -3.3760    -4.6660     1.3190 H     1 <1>   0.0800 
 43 H       -4.8220    -4.0930     0.4790 H     1 <1>   0.0800 
 44 H        6.4000     1.7470    -0.8970 H     1 <1>   0.0800 
 45 H        5.6710     0.5040     0.1220 H     1 <1>   0.0800 
 46 H        5.9870     2.9450     2.7820 H     1 <1>   0.0800 
 47 H        6.2200     4.2790     1.6590 H     1 <1>   0.0800 
 48 H       -4.5240    -4.3580     3.4930 H     1 <1>   0.0800 
 49 H       -5.4400    -5.4470     2.4800 H     1 <1>   0.0800 
 50 H       -5.9610    -3.7890     2.6580 H     1 <1>   0.0800 
 51 H        8.3350     1.0440     0.2560 H     1 <1>   0.0800 
 52 H        7.4010     0.5950     1.6690 H     1 <1>   0.0800 
 53 H        8.3050     2.6800     2.4060 H     1 <1>   0.0800 
 54 H        8.1810     3.3680     0.8000 H     1 <1>   0.0800 
@<TRIPOS>BOND
  1   1   2  2   
  2   1   3  2   
  3   1   4  am  
  4   1   5  1   
  5   4   6  1   
  6   4   7  1   
  7   5   8  ar  
  8   5   9  ar  
  9   6  10  1   
 10   6  27  1   
 11   6  28  1   
 12   7  11  1   
 13   7  29  1   
 14   7  30  1   
 15   8  12  ar  
 16   8  31  1   
 17   9  13  ar  
 18   9  32  1   
 19  10  14  1   
 20  10  33  1   
 21  10  34  1   
 22  11  14  1   
 23  11  35  1   
 24  11  36  1   
 25  12  15  ar  
 26  12  16  1   
 27  13  15  ar  
 28  13  37  1   
 29  14  17  1   
 30  14  38  1   
 31  15  18  1   
 32  16  39  1   
 33  16  40  1   
 34  16  41  1   
 35  17  19  2   
 36  17  20  am  
 37  18  21  1   
 38  20  22  1   
 39  20  23  1   
 40  21  24  1   
 41  21  42  1   
 42  21  43  1   
 43  22  25  1   
 44  22  44  1   
 45  22  45  1   
 46  23  26  1   
 47  23  46  1   
 48  23  47  1   
 49  24  48  1   
 50  24  49  1   
 51  24  50  1   
 52  25  26  1   
 53  25  51  1   
 54  25  52  1   
 55  26  53  1   
 56  26  54  1   
@<TRIPOS>SUBSTRUCTURE
  1 ****   7 GROUP 4 **** **** 0

# MOE 2024.06 (io_trps.svl 2023.06)
