@<TRIPOS>MOLECULE
4-(5-Chloro-2-methyl-phenyl)-piperazine-1-sulfonic acid dimethylamide
40 41 1 0 0 
SMALL
USER_CHARGES


@<TRIPOS>ATOM
  1 CL       1.6590    -0.7260    -2.9290 Cl    1 <1>  -0.1770 
  2 C        1.9060    -1.8340    -1.6020 C.ar  1 <1>   0.1770 
  3 C        3.1860    -2.0730    -1.1510 C.ar  1 <1>  -0.1500 
  4 C        0.8120    -2.4500    -1.0260 C.ar  1 <1>  -0.1500 
  5 C        3.3960    -2.9520    -0.0950 C.ar  1 <1>   0.1000 
  6 C        1.0130    -3.3270     0.0260 C.ar  1 <1>  -0.1500 
  7 N        4.6880    -3.1960     0.3680 N.pl3 1 <1>  -0.8380 
  8 C        2.2940    -3.5800     0.4920 C.ar  1 <1>  -0.1430 
  9 C        5.3130    -2.2060     1.2920 C.3   1 <1>   0.2090 
 10 C        5.6600    -3.9050    -0.5190 C.3   1 <1>   0.2090 
 11 C        2.4940    -4.5510     1.6480 C.3   1 <1>  -0.0970 
 12 C        6.2790    -1.2650     0.5420 C.3   1 <1>   0.1960 
 13 C        6.6990    -2.9510    -1.1590 C.3   1 <1>   0.1960 
 14 N        7.3110    -1.9730    -0.2360 N.am  1 <1>  -0.8490 
 15 S        8.5430    -2.6140     0.7260 S.o2  1 <1>   1.5760 
 16 O        8.9950    -1.5900     1.6420 O.2   1 <1>  -0.6500 
 17 O        8.1510    -3.9130     1.2210 O.2   1 <1>  -0.6500 
 18 N        9.7430    -2.8260    -0.4490 N.am  1 <1>  -0.8490 
 19 C       10.2620    -1.5530    -0.9550 C.3   1 <1>   0.1160 
 20 C       10.8420    -3.6520     0.0520 C.3   1 <1>   0.1160 
 21 H        4.0140    -1.5790    -1.6160 H     1 <1>   0.1500 
 22 H       -0.1770    -2.2460    -1.3970 H     1 <1>   0.1500 
 23 H        0.1640    -3.8100     0.4780 H     1 <1>   0.1500 
 24 H        5.8420    -2.7320     2.0670 H     1 <1>   0.0800 
 25 H        4.5400    -1.6220     1.7610 H     1 <1>   0.0800 
 26 H        5.1210    -4.4110    -1.3020 H     1 <1>   0.0800 
 27 H        6.1620    -4.6630     0.0540 H     1 <1>   0.0800 
 28 H        2.9360    -4.0360     2.4810 H     1 <1>   0.0800 
 29 H        3.1570    -5.3420     1.3450 H     1 <1>   0.0800 
 30 H        1.5630    -4.9840     1.9620 H     1 <1>   0.0800 
 31 H        6.7440    -0.5970     1.2470 H     1 <1>   0.0800 
 32 H        5.6990    -0.6560    -0.1280 H     1 <1>   0.0800 
 33 H        6.2040    -2.4070    -1.9420 H     1 <1>   0.0800 
 34 H        7.4700    -3.5380    -1.6290 H     1 <1>   0.0800 
 35 H        9.4580    -0.9600    -1.3580 H     1 <1>   0.0800 
 36 H       10.9760    -1.7310    -1.7400 H     1 <1>   0.0800 
 37 H       10.7390    -0.9960    -0.1650 H     1 <1>   0.0800 
 38 H       10.4680    -4.6180     0.3510 H     1 <1>   0.0800 
 39 H       11.3080    -3.1830     0.9020 H     1 <1>   0.0800 
 40 H       11.5770    -3.8000    -0.7200 H     1 <1>   0.0800 
@<TRIPOS>BOND
  1   1   2  1   
  2   2   3  ar  
  3   2   4  ar  
  4   3   5  ar  
  5   3  21  1   
  6   4   6  ar  
  7   4  22  1   
  8   5   7  1   
  9   5   8  ar  
 10   6   8  ar  
 11   6  23  1   
 12   7   9  1   
 13   7  10  1   
 14   8  11  1   
 15   9  12  1   
 16   9  24  1   
 17   9  25  1   
 18  10  13  1   
 19  10  26  1   
 20  10  27  1   
 21  11  28  1   
 22  11  29  1   
 23  11  30  1   
 24  12  14  1   
 25  12  31  1   
 26  12  32  1   
 27  13  14  1   
 28  13  33  1   
 29  13  34  1   
 30  14  15  am  
 31  15  16  2   
 32  15  17  2   
 33  15  18  am  
 34  18  19  1   
 35  18  20  1   
 36  19  35  1   
 37  19  36  1   
 38  19  37  1   
 39  20  38  1   
 40  20  39  1   
 41  20  40  1   
@<TRIPOS>SUBSTRUCTURE
  1 ****   7 GROUP 4 **** **** 0

# MOE 2024.06 (io_trps.svl 2023.06)
