@<TRIPOS>MOLECULE
1-(2-Cyano-ethyl)-3-(2,3-dihydro-benzo[1,4]dioxin-6-yl)-1H-pyrazole-4-carboxylic
48 50 1 0 0 
SMALL
USER_CHARGES


@<TRIPOS>ATOM
  1 O        0.8660    -0.1560    -1.6870 O.2   1 <1>  -0.5700 
  2 C        1.2570    -0.9930    -0.8950 C.2   1 <1>   0.7160 
  3 N        2.3690    -0.7250    -0.1190 N.am  1 <1>  -0.6600 
  4 C        0.5480    -2.2410    -0.7800 C.2   1 <1>  -0.0860 
  5 C        2.7140    -1.5200     1.0910 C.3   1 <1>   0.1400 
  6 C        3.1440     0.5310    -0.3150 C.3   1 <1>   0.1400 
  7 C       -0.7970    -2.4060    -0.4050 C.2   1 <1>   0.2350 
  8 C        0.9850    -3.5080    -1.0140 C.2   1 <1>  -0.3020 
  9 C        3.9870    -2.3260     0.8490 C.3   1 <1>  -0.2400 
 10 C        4.1040     0.3700    -1.4930 C.3   1 <1>  -0.2400 
 11 N       -1.1350    -3.6710    -0.4200 N.2   1 <1>  -0.7070 
 12 C       -1.7240    -1.3570    -0.0300 C.ar  1 <1>   0.0540 
 13 N       -0.0400    -4.3380    -0.7990 N.pl3 1 <1>   0.3140 
 14 C       -3.0490    -1.4100    -0.4620 C.ar  1 <1>  -0.1500 
 15 C       -1.3500    -0.2800     0.7780 C.ar  1 <1>  -0.1500 
 16 C       -0.0380    -5.8040    -0.9580 C.3   1 <1>   0.0960 
 17 C       -3.9600    -0.4320    -0.1120 C.ar  1 <1>   0.0830 
 18 C       -2.2510     0.7110     1.1280 C.ar  1 <1>  -0.1500 
 19 C       -0.7890    -6.4790     0.1950 C.3   1 <1>   0.0400 
 20 O       -5.2420    -0.5420    -0.5460 O.3   1 <1>  -0.3630 
 21 C       -3.5570     0.6440     0.6800 C.ar  1 <1>   0.0830 
 22 C       -0.6860    -7.9530     0.0620 C.1   1 <1>   0.3570 
 23 C       -6.2020     0.2840     0.0840 C.3   1 <1>   0.1200 
 24 O       -4.4230     1.6330     1.0190 O.3   1 <1>  -0.3630 
 25 N       -0.5790    -9.0770    -0.0650 N.1   1 <1>  -0.5570 
 26 C       -5.6350     1.6950     0.2910 C.3   1 <1>   0.1200 
 27 H        1.9090    -2.1900     1.3440 H     1 <1>   0.0800 
 28 H        2.8540    -0.8570     1.9280 H     1 <1>   0.0800 
 29 H        3.6970     0.7700     0.5770 H     1 <1>   0.0800 
 30 H        2.4660     1.3460    -0.5120 H     1 <1>   0.0800 
 31 H        1.9590    -3.8310    -1.3320 H     1 <1>   0.1500 
 32 H        3.8810    -2.9420    -0.0250 H     1 <1>   0.0800 
 33 H        4.1780    -2.9620     1.6950 H     1 <1>   0.0800 
 34 H        4.8300    -1.6710     0.7250 H     1 <1>   0.0800 
 35 H        4.7910    -0.4370    -1.3190 H     1 <1>   0.0800 
 36 H        4.6670     1.2760    -1.6250 H     1 <1>   0.0800 
 37 H        3.5510     0.1810    -2.3960 H     1 <1>   0.0800 
 38 H       -3.3700    -2.2320    -1.0750 H     1 <1>   0.1500 
 39 H       -0.3410    -0.2140     1.1410 H     1 <1>   0.1500 
 40 H        0.9810    -6.1440    -0.9870 H     1 <1>   0.0800 
 41 H       -0.5110    -6.0400    -1.8940 H     1 <1>   0.0800 
 42 H       -1.9480     1.5370     1.7440 H     1 <1>   0.1500 
 43 H       -1.8280    -6.2050     0.1760 H     1 <1>   0.0800 
 44 H       -0.3650    -6.1850     1.1380 H     1 <1>   0.0800 
 45 H       -6.4560    -0.1600     1.0300 H     1 <1>   0.0800 
 46 H       -7.0770     0.3110    -0.5410 H     1 <1>   0.0800 
 47 H       -6.3230     2.3080     0.8440 H     1 <1>   0.0800 
 48 H       -5.4300     2.1580    -0.6580 H     1 <1>   0.0800 
@<TRIPOS>BOND
  1   1   2  2   
  2   2   3  am  
  3   2   4  1   
  4   3   5  1   
  5   3   6  1   
  6   4   7  1   
  7   4   8  2   
  8   5   9  1   
  9   5  27  1   
 10   5  28  1   
 11   6  10  1   
 12   6  29  1   
 13   6  30  1   
 14   7  11  2   
 15   7  12  1   
 16   8  13  1   
 17   8  31  1   
 18   9  32  1   
 19   9  33  1   
 20   9  34  1   
 21  10  35  1   
 22  10  36  1   
 23  10  37  1   
 24  11  13  1   
 25  12  14  ar  
 26  12  15  ar  
 27  13  16  1   
 28  14  17  ar  
 29  14  38  1   
 30  15  18  ar  
 31  15  39  1   
 32  16  19  1   
 33  16  40  1   
 34  16  41  1   
 35  17  20  1   
 36  17  21  ar  
 37  18  21  ar  
 38  18  42  1   
 39  19  22  1   
 40  19  43  1   
 41  19  44  1   
 42  20  23  1   
 43  21  24  1   
 44  22  25  3   
 45  23  26  1   
 46  23  45  1   
 47  23  46  1   
 48  24  26  1   
 49  26  47  1   
 50  26  48  1   
@<TRIPOS>SUBSTRUCTURE
  1 ****   7 GROUP 4 **** **** 0

# MOE 2024.06 (io_trps.svl 2023.06)
