@<TRIPOS>MOLECULE
2-(4-Chloro-3-methyl-phenoxy)-ethylamine
25 25 1 0 0 
SMALL
USER_CHARGES


@<TRIPOS>ATOM
  1 CL      -0.0550     0.1970    -0.1080 Cl    1 <1>  -0.1770 
  2 C        1.6830     0.0030    -0.0620 C.ar  1 <1>   0.1770 
  3 C        2.5110     1.1140     0.0230 C.ar  1 <1>  -0.1440 
  4 C        2.1990    -1.2790    -0.1140 C.ar  1 <1>  -0.1500 
  5 C        3.8820     0.9130     0.0560 C.ar  1 <1>  -0.1500 
  6 C        1.9360     2.5210     0.0790 C.3   1 <1>  -0.0960 
  7 C        3.5700    -1.4690    -0.0800 C.ar  1 <1>  -0.1500 
  8 C        4.4180    -0.3660     0.0060 C.ar  1 <1>   0.0820 
  9 O        5.7720    -0.4570     0.0440 O.3   1 <1>  -0.3630 
 10 C        6.4290    -1.6970    -0.0010 C.3   1 <1>   0.1200 
 11 C        7.9310    -1.4070     0.0630 C.3   1 <1>   0.3430 
 12 N        8.7490    -2.6550     0.0230 N.4   1 <1>  -0.8530 
 13 H        1.5260    -2.1150    -0.1800 H     1 <1>   0.1500 
 14 H        4.5500     1.7530     0.1220 H     1 <1>   0.1500 
 15 H        1.3000     2.6240     0.9410 H     1 <1>   0.0800 
 16 H        1.3560     2.7160    -0.8050 H     1 <1>   0.0800 
 17 H        2.7180     3.2570     0.1430 H     1 <1>   0.0800 
 18 H        3.9430    -2.4740    -0.1220 H     1 <1>   0.1500 
 19 H        6.1630    -2.1810    -0.9250 H     1 <1>   0.0800 
 20 H        6.1060    -2.2750     0.8480 H     1 <1>   0.0800 
 21 H        8.1380    -0.8680     0.9740 H     1 <1>   0.0800 
 22 H        8.1940    -0.7750    -0.7710 H     1 <1>   0.0800 
 23 H        8.5370    -3.2690     0.8190 H     1 <1>   0.4500 
 24 H        9.7510    -2.4290     0.0670 H     1 <1>   0.4500 
 25 H        8.5900    -3.1810    -0.8450 H     1 <1>   0.4500 
@<TRIPOS>BOND
  1   1   2  1   
  2   2   3  ar  
  3   2   4  ar  
  4   3   5  ar  
  5   3   6  1   
  6   4   7  ar  
  7   4  13  1   
  8   5   8  ar  
  9   5  14  1   
 10   6  15  1   
 11   6  16  1   
 12   6  17  1   
 13   7   8  ar  
 14   7  18  1   
 15   8   9  1   
 16   9  10  1   
 17  10  11  1   
 18  10  19  1   
 19  10  20  1   
 20  11  12  1   
 21  11  21  1   
 22  11  22  1   
 23  12  23  1   
 24  12  24  1   
 25  12  25  1   
@<TRIPOS>SUBSTRUCTURE
  1 ****   8 GROUP 4 **** **** 0

# MOE 2024.06 (io_trps.svl 2023.06)
