@<TRIPOS>MOLECULE
1-(2-Cyano-ethyl)-3-phenyl-1H-pyrazole-4-carboxylic acid diethylamide
42 43 1 0 0 
SMALL
USER_CHARGES


@<TRIPOS>ATOM
  1 O        0.7690    -0.2510    -1.5790 O.2   1 <1>  -0.5700 
  2 C        1.2500    -1.0180    -0.7660 C.2   1 <1>   0.7160 
  3 N        2.3400    -0.6140    -0.0170 N.am  1 <1>  -0.6600 
  4 C        0.6730    -2.3270    -0.6020 C.2   1 <1>  -0.0860 
  5 C        2.9820     0.7060    -0.2640 C.3   1 <1>   0.1400 
  6 C        2.7810    -1.3340     1.2090 C.3   1 <1>   0.1400 
  7 C       -0.6380    -2.6160    -0.1830 C.2   1 <1>   0.2350 
  8 C        1.2300    -3.5490    -0.8170 C.2   1 <1>  -0.3020 
  9 C        3.9380     0.6050    -1.4510 C.3   1 <1>  -0.2400 
 10 C        4.1190    -2.0260     0.9630 C.3   1 <1>  -0.2400 
 11 N       -0.8470    -3.9090    -0.1590 N.2   1 <1>  -0.7070 
 12 C       -1.6520    -1.6510     0.1940 C.ar  1 <1>   0.0540 
 13 N        0.3010    -4.4710    -0.5520 N.pl3 1 <1>   0.3140 
 14 C       -2.9750    -1.8290    -0.2090 C.ar  1 <1>  -0.1500 
 15 C       -1.3660    -0.5310     0.9750 C.ar  1 <1>  -0.1500 
 16 C        0.4490    -5.9330    -0.6620 C.3   1 <1>   0.0960 
 17 C       -3.9660    -0.9300     0.1390 C.ar  1 <1>  -0.1500 
 18 C       -2.3510     0.3740     1.3260 C.ar  1 <1>  -0.1500 
 19 C       -0.0520    -6.6220     0.6100 C.3   1 <1>   0.0400 
 20 C       -3.6540     0.1770     0.9080 C.ar  1 <1>  -0.1500 
 21 C        0.2020    -8.0820     0.5220 C.1   1 <1>   0.3570 
 22 N        0.4210    -9.1920     0.4260 N.1   1 <1>  -0.5570 
 23 H        3.5200     1.0270     0.6110 H     1 <1>   0.0800 
 24 H        2.2230     1.4420    -0.4750 H     1 <1>   0.0800 
 25 H        2.0470    -2.0670     1.4990 H     1 <1>   0.0800 
 26 H        2.8740    -0.6350     2.0220 H     1 <1>   0.0800 
 27 H        2.2240    -3.7800    -1.1540 H     1 <1>   0.1500 
 28 H        4.7040    -0.1240    -1.2650 H     1 <1>   0.0800 
 29 H        4.4040     1.5580    -1.6210 H     1 <1>   0.0800 
 30 H        3.3950     0.3320    -2.3390 H     1 <1>   0.0800 
 31 H        4.0530    -2.6760     0.1100 H     1 <1>   0.0800 
 32 H        4.3840    -2.6140     1.8230 H     1 <1>   0.0800 
 33 H        4.8940    -1.3000     0.8010 H     1 <1>   0.0800 
 34 H       -3.2200    -2.6900    -0.8060 H     1 <1>   0.1500 
 35 H       -0.3610    -0.3640     1.3150 H     1 <1>   0.1500 
 36 H        1.4860    -6.1620    -0.8260 H     1 <1>   0.0800 
 37 H       -0.1200    -6.2650    -1.5110 H     1 <1>   0.0800 
 38 H       -4.9780    -1.0900    -0.1890 H     1 <1>   0.1500 
 39 H       -2.1040     1.2330     1.9250 H     1 <1>   0.1500 
 40 H       -1.1090    -6.4630     0.7290 H     1 <1>   0.0800 
 41 H        0.4610    -6.2340     1.4710 H     1 <1>   0.0800 
 42 H       -4.4220     0.8800     1.1790 H     1 <1>   0.1500 
@<TRIPOS>BOND
  1   1   2  2   
  2   2   3  am  
  3   2   4  1   
  4   3   5  1   
  5   3   6  1   
  6   4   7  1   
  7   4   8  2   
  8   5   9  1   
  9   5  23  1   
 10   5  24  1   
 11   6  10  1   
 12   6  25  1   
 13   6  26  1   
 14   7  11  2   
 15   7  12  1   
 16   8  13  1   
 17   8  27  1   
 18   9  28  1   
 19   9  29  1   
 20   9  30  1   
 21  10  31  1   
 22  10  32  1   
 23  10  33  1   
 24  11  13  1   
 25  12  14  ar  
 26  12  15  ar  
 27  13  16  1   
 28  14  17  ar  
 29  14  34  1   
 30  15  18  ar  
 31  15  35  1   
 32  16  19  1   
 33  16  36  1   
 34  16  37  1   
 35  17  20  ar  
 36  17  38  1   
 37  18  20  ar  
 38  18  39  1   
 39  19  21  1   
 40  19  40  1   
 41  19  41  1   
 42  20  42  1   
 43  21  22  3   
@<TRIPOS>SUBSTRUCTURE
  1 ****   4 GROUP 4 **** **** 0

# MOE 2024.06 (io_trps.svl 2023.06)
