@<TRIPOS>MOLECULE
3,4-Dichloro-N-[1-(4-ethyl-5-mercapto-4H-[1,2,4]triazol-3-yl)-ethyl]-benzamide
35 36 1 0 0 
SMALL
USER_CHARGES


@<TRIPOS>ATOM
  1 CL      -1.4310     1.1290    -0.8860 Cl    1 <1>  -0.1770 
  2 C       -0.1180     2.2730    -0.7500 C.ar  1 <1>   0.1770 
  3 C       -0.2790     3.5890    -1.1490 C.ar  1 <1>   0.1770 
  4 C        1.0870     1.8360    -0.2340 C.ar  1 <1>  -0.1500 
  5 CL      -1.7970     4.1500    -1.8050 Cl    1 <1>  -0.1770 
  6 C        0.7720     4.4780    -1.0280 C.ar  1 <1>  -0.1500 
  7 C        2.1710     2.7100    -0.1100 C.ar  1 <1>   0.0860 
  8 C        1.9790     4.0370    -0.5120 C.ar  1 <1>  -0.1500 
  9 C        3.4510     2.2700     0.4160 C.2   1 <1>   0.5440 
 10 O        4.2030     3.0500     0.9610 O.2   1 <1>  -0.5700 
 11 N        3.8520     0.9720     0.2960 N.am  1 <1>  -0.7300 
 12 C        5.1920     0.4790     0.7060 C.3   1 <1>   0.3880 
 13 C        5.6780    -0.6730    -0.1950 C.2   1 <1>   0.4850 
 14 C        5.1380     0.0780     2.1830 C.3   1 <1>  -0.2400 
 15 N        6.8500    -0.6990    -0.7260 N.2   1 <1>  -0.2600 
 16 N        4.9250    -1.7880    -0.5290 N.pl3 1 <1>  -0.7640 
 17 N        6.8700    -1.8720    -1.4210 N.pl3 1 <1>  -0.3930 
 18 C        5.7300    -2.5100    -1.2880 C.cat 1 <1>   0.7360 
 19 C        3.5790    -2.2470    -0.1330 C.3   1 <1>   0.3540 
 20 S        5.4030    -3.9560    -1.9440 S.3   1 <1>  -0.9360 
 21 C        2.5770    -1.9140    -1.2370 C.3   1 <1>  -0.2400 
 22 H        1.1710     0.8130     0.0810 H     1 <1>   0.1500 
 23 H        0.6430     5.5020    -1.3340 H     1 <1>   0.1500 
 24 H        2.7970     4.7330    -0.4150 H     1 <1>   0.1500 
 25 H        3.3690     0.3590    -0.3600 H     1 <1>   0.3700 
 26 H        5.9000     1.2850     0.6060 H     1 <1>   0.0800 
 27 H        4.4290    -0.7090     2.3510 H     1 <1>   0.0800 
 28 H        4.8690     0.9310     2.7810 H     1 <1>   0.0800 
 29 H        6.1070    -0.2610     2.5010 H     1 <1>   0.0800 
 30 H        7.6310    -2.2680    -1.9740 H     1 <1>   0.4500 
 31 H        3.2820    -1.7790     0.7870 H     1 <1>   0.0800 
 32 H        3.5960    -3.3140     0.0290 H     1 <1>   0.0800 
 33 H        1.5900    -2.2060    -0.9290 H     1 <1>   0.0800 
 34 H        2.8240    -2.4700    -2.1260 H     1 <1>   0.0800 
 35 H        2.5750    -0.8680    -1.4700 H     1 <1>   0.0800 
@<TRIPOS>BOND
  1   1   2  1   
  2   2   3  ar  
  3   2   4  ar  
  4   3   5  1   
  5   3   6  ar  
  6   4   7  ar  
  7   4  22  1   
  8   6   8  ar  
  9   6  23  1   
 10   7   8  ar  
 11   7   9  1   
 12   8  24  1   
 13   9  10  2   
 14   9  11  am  
 15  11  12  1   
 16  11  25  1   
 17  12  13  1   
 18  12  14  1   
 19  12  26  1   
 20  13  15  2   
 21  13  16  1   
 22  14  27  1   
 23  14  28  1   
 24  14  29  1   
 25  15  17  1   
 26  16  18  ar  
 27  16  19  1   
 28  17  18  ar  
 29  17  30  1   
 30  18  20  1   
 31  19  21  1   
 32  19  31  1   
 33  19  32  1   
 34  21  33  1   
 35  21  34  1   
 36  21  35  1   
@<TRIPOS>SUBSTRUCTURE
  1 ****  11 GROUP 4 **** **** 0

# MOE 2024.06 (io_trps.svl 2023.06)
