@<TRIPOS>MOLECULE
8-(3,5-Dimethyl-piperidin-1-yl)-7-(2-ethoxy-ethyl)-3-methyl-3,7-dihydro-purine-2
53 55 1 0 0 
SMALL
USER_CHARGES


@<TRIPOS>ATOM
  1 O        0.7780     0.6540    -0.8950 O.2   1 <1>  -0.5740 
  2 C        1.7990     1.1540    -0.4830 C.2   1 <1>   0.6870 
  3 N        3.0470     0.6090    -0.7440 N.am  1 <1>  -0.4410 
  4 N        1.7100     2.2930     0.2620 N.am  1 <1>  -0.4950 
  5 C        4.1560     1.2720    -0.2370 C.2   1 <1>   0.4210 
  6 C        3.1910    -0.6310    -1.5610 C.3   1 <1>   0.0530 
  7 C        2.7920     2.9520     0.7730 C.2   1 <1>   0.7000 
  8 N        5.4620     0.9400    -0.3900 N.pl3 1 <1>  -0.7030 
  9 C        4.0870     2.3990     0.5030 C.2   1 <1>   0.2710 
 10 O        2.6090     3.9620     1.4260 O.2   1 <1>  -0.5740 
 11 C        6.2190     1.8560     0.2230 C.cat 1 <1>   1.0690 
 12 N        5.4110     2.7570     0.8150 N.pl3 1 <1>  -0.7670 
 13 N        7.5740     1.7770     0.2000 N.pl3 1 <1>  -0.5960 
 14 C        5.7070     4.0480     1.5040 C.3   1 <1>   0.3480 
 15 C        8.2710     0.5060    -0.1930 C.3   1 <1>   0.1610 
 16 C        8.4880     2.9280     0.5050 C.3   1 <1>   0.1610 
 17 C        5.5780     5.2410     0.5380 C.3   1 <1>   0.1130 
 18 C        9.6050     0.3540     0.5500 C.3   1 <1>  -0.0870 
 19 C        9.8440     2.7950    -0.2030 C.3   1 <1>  -0.0870 
 20 O        6.0620     4.8910    -0.7290 O.3   1 <1>  -0.5640 
 21 C       10.5730     1.5010     0.2040 C.3   1 <1>  -0.1670 
 22 C       10.2500    -1.0050     0.2550 C.3   1 <1>  -0.2460 
 23 C       10.7290     4.0170     0.0690 C.3   1 <1>  -0.2460 
 24 C        6.1760     5.9480    -1.6270 C.3   1 <1>   0.1130 
 25 C        7.5650     6.5660    -1.4860 C.3   1 <1>  -0.2460 
 26 H        0.7800     2.6680     0.4360 H     1 <1>   0.3650 
 27 H        2.2350    -1.1070    -1.7050 H     1 <1>   0.0730 
 28 H        3.8410    -1.3280    -1.0620 H     1 <1>   0.0730 
 29 H        3.5980    -0.3860    -2.5260 H     1 <1>   0.0730 
 30 H        5.8340     0.1830    -0.9500 H     1 <1>   0.4450 
 31 H        6.6910     4.0350     1.9320 H     1 <1>   0.0730 
 32 H        5.0240     4.1870     2.3250 H     1 <1>   0.0730 
 33 H        8.4550     0.5130    -1.2550 H     1 <1>   0.0730 
 34 H        7.6560    -0.3450     0.0430 H     1 <1>   0.0730 
 35 H        8.6520     2.9770     1.5680 H     1 <1>   0.0730 
 36 H        8.0410     3.8480     0.1800 H     1 <1>   0.0730 
 37 H        6.1330     6.0810     0.9180 H     1 <1>   0.0730 
 38 H        4.5450     5.5260     0.4360 H     1 <1>   0.0730 
 39 H        9.3960     0.3900     1.6070 H     1 <1>   0.0730 
 40 H        9.6550     2.7640    -1.2640 H     1 <1>   0.0730 
 41 H       11.2210     1.2140    -0.6070 H     1 <1>   0.0730 
 42 H       11.2000     1.6780     1.0620 H     1 <1>   0.0730 
 43 H       10.4630    -1.1100    -0.7950 H     1 <1>   0.0730 
 44 H        9.6010    -1.8080     0.5570 H     1 <1>   0.0730 
 45 H       11.1740    -1.1010     0.7990 H     1 <1>   0.0730 
 46 H       10.9370     4.1140     1.1200 H     1 <1>   0.0730 
 47 H       10.2450     4.9160    -0.2700 H     1 <1>   0.0730 
 48 H       11.6640     3.9220    -0.4560 H     1 <1>   0.0730 
 49 H        5.3960     6.6710    -1.4490 H     1 <1>   0.0730 
 50 H        6.0570     5.5460    -2.6190 H     1 <1>   0.0730 
 51 H        7.7050     6.9890    -0.5080 H     1 <1>   0.0730 
 52 H        7.6810     7.3530    -2.2090 H     1 <1>   0.0730 
 53 H        8.3200     5.8240    -1.6730 H     1 <1>   0.0730 
@<TRIPOS>BOND
  1   1   2  2   
  2   2   3  am  
  3   2   4  am  
  4   3   5  1   
  5   3   6  1   
  6   4   7  am  
  7   4  26  1   
  8   5   8  1   
  9   5   9  2   
 10   6  27  1   
 11   6  28  1   
 12   6  29  1   
 13   7   9  1   
 14   7  10  2   
 15   8  11  ar  
 16   8  30  1   
 17   9  12  1   
 18  11  12  ar  
 19  11  13  ar  
 20  12  14  1   
 21  13  15  1   
 22  13  16  1   
 23  14  17  1   
 24  14  31  1   
 25  14  32  1   
 26  15  18  1   
 27  15  33  1   
 28  15  34  1   
 29  16  19  1   
 30  16  35  1   
 31  16  36  1   
 32  17  20  1   
 33  17  37  1   
 34  17  38  1   
 35  18  21  1   
 36  18  22  1   
 37  18  39  1   
 38  19  21  1   
 39  19  23  1   
 40  19  40  1   
 41  20  24  1   
 42  21  41  1   
 43  21  42  1   
 44  22  43  1   
 45  22  44  1   
 46  22  45  1   
 47  23  46  1   
 48  23  47  1   
 49  23  48  1   
 50  24  25  1   
 51  24  49  1   
 52  24  50  1   
 53  25  51  1   
 54  25  52  1   
 55  25  53  1   
@<TRIPOS>SUBSTRUCTURE
  1 ****  11 GROUP 4 **** **** 0

# MOE 2024.06 (io_trps.svl 2023.06)
