@<TRIPOS>MOLECULE
6,8-Dichloro-3-[4-(2-methyl-allyl)-piperazine-1-carbonyl]-chromen-2-one
44 46 1 0 0 
SMALL
USER_CHARGES


@<TRIPOS>ATOM
  1 CL      -0.6810     0.9310    -1.5840 Cl    1 <1>  -0.1770 
  2 C       -0.1930     2.2500    -0.5470 C.ar  1 <1>   0.1770 
  3 C        1.1170     2.7170    -0.5850 C.ar  1 <1>   0.0830 
  4 C       -1.1280     2.8070     0.3000 C.ar  1 <1>  -0.1500 
  5 O        2.0160     2.1580    -1.4260 O.3   1 <1>  -0.2330 
  6 C        1.5100     3.7700     0.2500 C.ar  1 <1>   0.0280 
  7 C       -0.7320     3.8510     1.1200 C.ar  1 <1>   0.1770 
  8 C        3.2910     2.5500    -1.5200 C.2   1 <1>   0.7060 
  9 C        2.8620     4.2090     0.1770 C.2   1 <1>  -0.1780 
 10 C        0.5610     4.3330     1.1050 C.ar  1 <1>  -0.1500 
 11 CL      -1.9010     4.5690     2.1970 Cl    1 <1>  -0.1770 
 12 O        3.9920     1.9480    -2.3080 O.2   1 <1>  -0.5700 
 13 C        3.7480     3.6200    -0.6740 C.2   1 <1>   0.0290 
 14 C        5.1160     4.0650    -0.7830 C.2   1 <1>   0.6160 
 15 O        5.3360     5.2600    -0.7530 O.2   1 <1>  -0.5700 
 16 N        6.2130     3.2290    -0.8610 N.am  1 <1>  -0.6600 
 17 C        7.4880     3.6990    -1.4900 C.3   1 <1>   0.1400 
 18 C        6.2430     1.8170    -0.3710 C.3   1 <1>   0.1400 
 19 C        8.6870     3.4460    -0.5610 C.3   1 <1>   0.3430 
 20 C        7.4720     1.5640     0.5270 C.3   1 <1>   0.3430 
 21 N        8.7520     2.0090    -0.1240 N.4   1 <1>  -0.9590 
 22 C        9.9320     1.7500     0.7220 C.3   1 <1>   0.4810 
 23 C       10.6380     0.5680     0.0900 C.2   1 <1>  -0.2760 
 24 C       11.7170     0.7050    -0.6880 C.2   1 <1>  -0.3000 
 25 C       10.0490    -0.8000     0.4110 C.3   1 <1>  -0.1020 
 26 H       -2.1390     2.4430     0.3250 H     1 <1>   0.1500 
 27 H        3.1570     5.0320     0.8080 H     1 <1>   0.1500 
 28 H        0.8310     5.1450     1.7560 H     1 <1>   0.1500 
 29 H        7.4390     4.7500    -1.7190 H     1 <1>   0.0800 
 30 H        7.6340     3.1770    -2.4200 H     1 <1>   0.0800 
 31 H        6.2690     1.1500    -1.2160 H     1 <1>   0.0800 
 32 H        5.3520     1.5980     0.1920 H     1 <1>   0.0800 
 33 H        8.5910     4.0870     0.3000 H     1 <1>   0.0800 
 34 H        9.5940     3.7150    -1.0770 H     1 <1>   0.0800 
 35 H        7.5250     0.5140     0.7630 H     1 <1>   0.0800 
 36 H        7.3330     2.1020     1.4500 H     1 <1>   0.0800 
 37 H        8.9100     1.4330    -0.9620 H     1 <1>   0.4500 
 38 H        9.6560     1.5400     1.7430 H     1 <1>   0.0800 
 39 H       10.5910     2.6030     0.7090 H     1 <1>   0.0800 
 40 H       12.2420    -0.1200    -1.1430 H     1 <1>   0.1500 
 41 H       12.1840     1.6430    -0.9410 H     1 <1>   0.1500 
 42 H       10.0150    -0.9560     1.4760 H     1 <1>   0.0800 
 43 H       10.6570    -1.5800    -0.0140 H     1 <1>   0.0800 
 44 H        9.0570    -0.9040     0.0090 H     1 <1>   0.0800 
@<TRIPOS>BOND
  1   1   2  1   
  2   2   3  ar  
  3   2   4  ar  
  4   3   5  1   
  5   3   6  ar  
  6   4   7  ar  
  7   4  26  1   
  8   5   8  1   
  9   6   9  1   
 10   6  10  ar  
 11   7  10  ar  
 12   7  11  1   
 13   8  12  2   
 14   8  13  1   
 15   9  13  2   
 16   9  27  1   
 17  10  28  1   
 18  13  14  1   
 19  14  15  2   
 20  14  16  am  
 21  16  17  1   
 22  16  18  1   
 23  17  19  1   
 24  17  29  1   
 25  17  30  1   
 26  18  20  1   
 27  18  31  1   
 28  18  32  1   
 29  19  21  1   
 30  19  33  1   
 31  19  34  1   
 32  20  21  1   
 33  20  35  1   
 34  20  36  1   
 35  21  22  1   
 36  21  37  1   
 37  22  23  1   
 38  22  38  1   
 39  22  39  1   
 40  23  24  2   
 41  23  25  1   
 42  24  40  1   
 43  24  41  1   
 44  25  42  1   
 45  25  43  1   
 46  25  44  1   
@<TRIPOS>SUBSTRUCTURE
  1 ****  13 GROUP 4 **** **** 0

# MOE 2024.06 (io_trps.svl 2023.06)
