@<TRIPOS>MOLECULE
1-(3-Methyl-but-2-enyl)-3,6-diaza-tricyclo[4.3.1.1*3,8*]undecan-9-ol
42 44 1 0 0 
SMALL
USER_CHARGES


@<TRIPOS>ATOM
  1 O       -1.3770     0.5590     0.4030 O.3   1 <1>  -0.6800 
  2 C       -2.0570    -0.2070    -0.5390 C.3   1 <1>   0.2000 
  3 C       -1.3260    -1.5400    -0.7750 C.3   1 <1>   0.0000 
  4 C       -3.4570    -0.5000    -0.0030 C.3   1 <1>  -0.0800 
  5 C       -1.1970    -2.2650     0.5750 C.3   1 <1>   0.3430 
  6 C       -2.1390    -2.3780    -1.7910 C.3   1 <1>   0.1100 
  7 C        0.0930    -1.2970    -1.3360 C.3   1 <1>  -0.0220 
  8 C       -3.3730    -1.2580     1.3330 C.3   1 <1>   0.3430 
  9 C       -4.2400    -1.2740    -1.0670 C.3   1 <1>   0.1100 
 10 N       -2.4960    -2.4810     1.3050 N.4   1 <1>  -0.9590 
 11 N       -3.5590    -2.5230    -1.4230 N.3   1 <1>  -0.8100 
 12 C        0.8760    -2.5980    -1.4700 C.2   1 <1>  -0.2880 
 13 C       -3.1900    -3.7240     0.8270 C.3   1 <1>   0.3430 
 14 C       -3.8790    -3.6690    -0.5540 C.3   1 <1>   0.1100 
 15 C        1.8270    -3.0790    -0.6600 C.2   1 <1>  -0.2760 
 16 C        2.5220    -4.3990    -0.9540 C.3   1 <1>  -0.1020 
 17 C        2.3580    -2.4270     0.6110 C.3   1 <1>  -0.1020 
 18 H       -1.5730     1.5120     0.2850 H     1 <1>   0.4000 
 19 H       -2.1070     0.3570    -1.4560 H     1 <1>   0.0800 
 20 H       -3.9720     0.4290     0.1610 H     1 <1>   0.0800 
 21 H       -0.5530    -1.6640     1.1950 H     1 <1>   0.0800 
 22 H       -0.7030    -3.2100     0.4220 H     1 <1>   0.0800 
 23 H       -1.7010    -3.3540    -1.9150 H     1 <1>   0.0800 
 24 H       -2.0990    -1.8910    -2.7510 H     1 <1>   0.0800 
 25 H        0.0360    -0.8230    -2.3010 H     1 <1>   0.0800 
 26 H        0.6280    -0.6170    -0.6990 H     1 <1>   0.0800 
 27 H       -2.9690    -0.5720     2.0600 H     1 <1>   0.0800 
 28 H       -4.3650    -1.5270     1.6550 H     1 <1>   0.0800 
 29 H       -4.3230    -0.6700    -1.9550 H     1 <1>   0.0800 
 30 H       -5.2420    -1.4810    -0.7290 H     1 <1>   0.0800 
 31 H       -2.2310    -2.6620     2.2810 H     1 <1>   0.4500 
 32 H        0.5810    -3.1420    -2.3530 H     1 <1>   0.1500 
 33 H       -2.4710    -4.5270     0.7980 H     1 <1>   0.0800 
 34 H       -3.9350    -4.0110     1.5500 H     1 <1>   0.0800 
 35 H       -4.9450    -3.7000    -0.4040 H     1 <1>   0.0800 
 36 H       -3.6320    -4.5730    -1.0840 H     1 <1>   0.0800 
 37 H        3.5790    -4.2390    -1.0790 H     1 <1>   0.0800 
 38 H        2.1420    -4.8440    -1.8560 H     1 <1>   0.0800 
 39 H        2.3720    -5.0920    -0.1450 H     1 <1>   0.0800 
 40 H        3.4050    -2.2080     0.4950 H     1 <1>   0.0800 
 41 H        2.2440    -3.0950     1.4460 H     1 <1>   0.0800 
 42 H        1.8550    -1.5090     0.8470 H     1 <1>   0.0800 
@<TRIPOS>BOND
  1   1   2  1   
  2   1  18  1   
  3   2   3  1   
  4   2   4  1   
  5   2  19  1   
  6   3   5  1   
  7   3   6  1   
  8   3   7  1   
  9   4   8  1   
 10   4   9  1   
 11   4  20  1   
 12   5  10  1   
 13   5  21  1   
 14   5  22  1   
 15   6  11  1   
 16   6  23  1   
 17   6  24  1   
 18   7  12  1   
 19   7  25  1   
 20   7  26  1   
 21   8  10  1   
 22   8  27  1   
 23   8  28  1   
 24   9  11  1   
 25   9  29  1   
 26   9  30  1   
 27  10  13  1   
 28  10  31  1   
 29  11  14  1   
 30  12  15  2   
 31  12  32  1   
 32  13  14  1   
 33  13  33  1   
 34  13  34  1   
 35  14  35  1   
 36  14  36  1   
 37  15  16  1   
 38  15  17  1   
 39  16  37  1   
 40  16  38  1   
 41  16  39  1   
 42  17  40  1   
 43  17  41  1   
 44  17  42  1   
@<TRIPOS>SUBSTRUCTURE
  1 ****   3 GROUP 4 **** **** 0

# MOE 2024.06 (io_trps.svl 2023.06)
