@<TRIPOS>MOLECULE
8-(3,5-Dimethyl-piperidin-1-yl)-3-methyl-7-[2-(pyrimidin-2-ylsulfanyl)-ethyl]-3,
55 58 1 0 0 
SMALL
USER_CHARGES


@<TRIPOS>ATOM
  1 S       -0.7880     0.3270     0.7480 S.3   1 <1>  -0.3370 
  2 C        0.9530     0.1720     1.1210 C.ar  1 <1>   0.7180 
  3 C       -1.4700    -1.3890     0.8180 C.3   1 <1>   0.0630 
  4 N        1.6180     1.3110     1.1230 N.ar  1 <1>  -0.6240 
  5 N        1.3880    -1.0620     1.3440 N.ar  1 <1>  -0.6240 
  6 C       -1.1600    -2.0810    -0.5130 C.3   1 <1>   0.3480 
  7 C        2.8950     1.1990     1.4090 C.ar  1 <1>   0.1530 
  8 C        2.6710    -1.1310     1.6360 C.ar  1 <1>   0.1530 
  9 N       -1.4260    -3.5520    -0.4310 N.pl3 1 <1>  -0.7670 
 10 C        3.4760    -0.0170     1.6800 C.ar  1 <1>  -0.1570 
 11 C       -0.5910    -4.5940    -0.2560 C.cat 1 <1>   1.0690 
 12 C       -2.7410    -4.0590    -0.3570 C.2   1 <1>   0.2710 
 13 N       -1.3130    -5.6970    -0.0390 N.pl3 1 <1>  -0.7030 
 14 N        0.7590    -4.6300    -0.2930 N.pl3 1 <1>  -0.5960 
 15 C       -4.0600    -3.5070    -0.4800 C.2   1 <1>   0.7000 
 16 C       -2.6310    -5.3830    -0.1110 C.2   1 <1>   0.4210 
 17 C        1.5830    -3.6630    -1.0890 C.3   1 <1>   0.1610 
 18 C        1.5270    -5.7330     0.3750 C.3   1 <1>   0.1610 
 19 O       -4.2800    -2.3310    -0.6900 O.2   1 <1>  -0.5740 
 20 N       -5.1150    -4.3630    -0.3470 N.am  1 <1>  -0.4950 
 21 N       -3.7120    -6.2410     0.0270 N.am  1 <1>  -0.4410 
 22 C        2.9020    -4.2890    -1.5630 C.3   1 <1>  -0.0870 
 23 C        2.9080    -5.2400     0.8240 C.3   1 <1>  -0.0870 
 24 C       -4.9830    -5.6990    -0.1030 C.2   1 <1>   0.6870 
 25 C       -3.5180    -7.6950     0.2990 C.3   1 <1>   0.0530 
 26 C        3.7560    -4.7710    -0.3740 C.3   1 <1>  -0.1670 
 27 C        3.6960    -3.3030    -2.4280 C.3   1 <1>  -0.2460 
 28 C        3.6490    -6.3220     1.6190 C.3   1 <1>  -0.2460 
 29 O       -5.9840    -6.3690    -0.0080 O.2   1 <1>  -0.5740 
 30 H       -2.5290    -1.2910     0.9760 H     1 <1>   0.0730 
 31 H       -1.0110    -1.8840     1.6540 H     1 <1>   0.0730 
 32 H       -0.1380    -1.8880    -0.7680 H     1 <1>   0.0730 
 33 H       -1.7710    -1.6460    -1.2870 H     1 <1>   0.0730 
 34 H        3.4880     2.0990     1.4300 H     1 <1>   0.1430 
 35 H        3.0960    -2.0970     1.8470 H     1 <1>   0.1430 
 36 H        4.5210    -0.0910     1.9180 H     1 <1>   0.1430 
 37 H       -0.9140    -6.6200     0.0890 H     1 <1>   0.4450 
 38 H        1.8140    -2.8090    -0.4810 H     1 <1>   0.0730 
 39 H        1.0260    -3.3350    -1.9500 H     1 <1>   0.0730 
 40 H        1.6490    -6.5530    -0.3130 H     1 <1>   0.0730 
 41 H        0.9890    -6.0840     1.2390 H     1 <1>   0.0730 
 42 H       -6.0610    -3.9950    -0.4370 H     1 <1>   0.3650 
 43 H        2.6610    -5.1390    -2.1810 H     1 <1>   0.0730 
 44 H        2.7530    -4.4050     1.4850 H     1 <1>   0.0730 
 45 H       -2.9530    -7.8270     1.2050 H     1 <1>   0.0730 
 46 H       -2.9950    -8.1540    -0.5220 H     1 <1>   0.0730 
 47 H       -4.4650    -8.1950     0.4180 H     1 <1>   0.0730 
 48 H        4.4040    -3.9800    -0.0360 H     1 <1>   0.0730 
 49 H        4.3890    -5.5700    -0.7230 H     1 <1>   0.0730 
 50 H        3.9420    -2.4150    -1.8710 H     1 <1>   0.0730 
 51 H        3.1250    -3.0150    -3.2940 H     1 <1>   0.0730 
 52 H        4.6110    -3.7580    -2.7660 H     1 <1>   0.0730 
 53 H        3.8120    -7.1990     1.0170 H     1 <1>   0.0730 
 54 H        3.0870    -6.6030     2.4920 H     1 <1>   0.0730 
 55 H        4.6060    -5.9520     1.9440 H     1 <1>   0.0730 
@<TRIPOS>BOND
  1   1   2  1   
  2   1   3  1   
  3   2   4  ar  
  4   2   5  ar  
  5   3   6  1   
  6   3  30  1   
  7   3  31  1   
  8   4   7  ar  
  9   5   8  ar  
 10   6   9  1   
 11   6  32  1   
 12   6  33  1   
 13   7  10  ar  
 14   7  34  1   
 15   8  10  ar  
 16   8  35  1   
 17   9  11  ar  
 18   9  12  1   
 19  10  36  1   
 20  11  13  ar  
 21  11  14  ar  
 22  12  15  1   
 23  12  16  2   
 24  13  16  1   
 25  13  37  1   
 26  14  17  1   
 27  14  18  1   
 28  15  19  2   
 29  15  20  am  
 30  16  21  1   
 31  17  22  1   
 32  17  38  1   
 33  17  39  1   
 34  18  23  1   
 35  18  40  1   
 36  18  41  1   
 37  20  24  am  
 38  20  42  1   
 39  21  24  am  
 40  21  25  1   
 41  22  26  1   
 42  22  27  1   
 43  22  43  1   
 44  23  26  1   
 45  23  28  1   
 46  23  44  1   
 47  24  29  2   
 48  25  45  1   
 49  25  46  1   
 50  25  47  1   
 51  26  48  1   
 52  26  49  1   
 53  27  50  1   
 54  27  51  1   
 55  27  52  1   
 56  28  53  1   
 57  28  54  1   
 58  28  55  1   
@<TRIPOS>SUBSTRUCTURE
  1 ****   9 GROUP 4 **** **** 0

# MOE 2024.06 (io_trps.svl 2023.06)
