@<TRIPOS>MOLECULE
2-Benzenesulfonyl-N-(5-cyclohexyl-[1,3,4]thiadiazol-2-yl)-acetamide
43 45 1 0 0 
SMALL
USER_CHARGES


@<TRIPOS>ATOM
  1 S        0.6670    -1.0990     1.1020 S.o2  1 <1>   1.2040 
  2 O        0.0210    -2.3570     1.3980 O.2   1 <1>  -0.6500 
  3 O        1.6970    -0.6140     2.0000 O.2   1 <1>  -0.6500 
  4 C       -0.5830     0.1810     0.8270 C.ar  1 <1>  -0.0090 
  5 C        1.4360    -1.2830    -0.4850 C.3   1 <1>   0.0060 
  6 C       -0.2800     1.5310     0.9690 C.ar  1 <1>  -0.1500 
  7 C       -1.8740    -0.1580     0.4360 C.ar  1 <1>  -0.1500 
  8 C        2.0500     0.0200    -0.9000 C.2   1 <1>   0.5690 
  9 C       -1.2290     2.5080     0.7240 C.ar  1 <1>  -0.1500 
 10 C       -2.8290     0.8130     0.1920 C.ar  1 <1>  -0.1500 
 11 O        1.6450     0.5110    -1.9190 O.2   1 <1>  -0.5700 
 12 N        3.0270     0.5810    -0.1240 N.am  1 <1>  -0.4940 
 13 C       -2.5060     2.1490     0.3340 C.ar  1 <1>  -0.1500 
 14 C        3.7650     1.7260    -0.3400 C.2   1 <1>   0.4420 
 15 S        4.8110     2.2270     0.9470 S.3   1 <1>  -0.0800 
 16 N        3.8230     2.5150    -1.3480 N.2   1 <1>  -0.3380 
 17 C        5.2810     3.5630    -0.0490 C.2   1 <1>   0.1980 
 18 N        4.6880     3.5600    -1.1750 N.2   1 <1>  -0.3380 
 19 C        6.3040     4.5420     0.5180 C.3   1 <1>   0.1000 
 20 C        6.2650     5.8970    -0.2150 C.3   1 <1>  -0.1600 
 21 C        7.7200     3.9410     0.4580 C.3   1 <1>  -0.1600 
 22 C        7.3130     6.8730     0.3370 C.3   1 <1>  -0.1600 
 23 C        8.7750     4.9140     1.0070 C.3   1 <1>  -0.1600 
 24 C        8.7190     6.2620     0.2770 C.3   1 <1>  -0.1600 
 25 H        0.7090    -1.5780    -1.2160 H     1 <1>   0.0800 
 26 H        2.1990    -2.0340    -0.4450 H     1 <1>   0.0800 
 27 H        0.7070     1.8320     1.2740 H     1 <1>   0.1500 
 28 H       -2.1410    -1.1960     0.3240 H     1 <1>   0.1500 
 29 H       -0.9730     3.5480     0.8350 H     1 <1>   0.1500 
 30 H       -3.8230     0.5300    -0.1090 H     1 <1>   0.1500 
 31 H        3.1630     0.1610     0.8020 H     1 <1>   0.3700 
 32 H       -3.2450     2.9080     0.1420 H     1 <1>   0.1500 
 33 H        6.0520     4.7190     1.5490 H     1 <1>   0.0800 
 34 H        5.2840     6.3290    -0.1180 H     1 <1>   0.0800 
 35 H        6.4490     5.7380    -1.2650 H     1 <1>   0.0800 
 36 H        7.9570     3.7020    -0.5650 H     1 <1>   0.0800 
 37 H        7.7530     3.0280     1.0250 H     1 <1>   0.0800 
 38 H        7.0740     7.1190     1.3570 H     1 <1>   0.0800 
 39 H        7.2920     7.7840    -0.2350 H     1 <1>   0.0800 
 40 H        9.7550     4.4850     0.8930 H     1 <1>   0.0800 
 41 H        8.6050     5.0720     2.0580 H     1 <1>   0.0800 
 42 H        9.4270     6.9420     0.7200 H     1 <1>   0.0800 
 43 H        9.0010     6.1210    -0.7530 H     1 <1>   0.0800 
@<TRIPOS>BOND
  1   1   2  2   
  2   1   3  2   
  3   1   4  1   
  4   1   5  1   
  5   4   6  ar  
  6   4   7  ar  
  7   5   8  1   
  8   5  25  1   
  9   5  26  1   
 10   6   9  ar  
 11   6  27  1   
 12   7  10  ar  
 13   7  28  1   
 14   8  11  2   
 15   8  12  am  
 16   9  13  ar  
 17   9  29  1   
 18  10  13  ar  
 19  10  30  1   
 20  12  14  1   
 21  12  31  1   
 22  13  32  1   
 23  14  15  1   
 24  14  16  2   
 25  15  17  1   
 26  16  18  1   
 27  17  18  2   
 28  17  19  1   
 29  19  20  1   
 30  19  21  1   
 31  19  33  1   
 32  20  22  1   
 33  20  34  1   
 34  20  35  1   
 35  21  23  1   
 36  21  36  1   
 37  21  37  1   
 38  22  24  1   
 39  22  38  1   
 40  22  39  1   
 41  23  24  1   
 42  23  40  1   
 43  23  41  1   
 44  24  42  1   
 45  24  43  1   
@<TRIPOS>SUBSTRUCTURE
  1 ****  14 GROUP 4 **** **** 0

# MOE 2024.06 (io_trps.svl 2023.06)
