@<TRIPOS>MOLECULE
4-(4-Ethyl-piperazine-1-carbonyl)-1-p-tolyl-pyrrolidin-2-one
49 51 1 0 0 
SMALL
USER_CHARGES


@<TRIPOS>ATOM
  1 O        0.6920     0.0940    -0.4640 O.2   1 <1>  -0.5700 
  2 C        1.8590     0.1820    -0.1750 C.2   1 <1>   0.5690 
  3 N        2.6990    -0.8310     0.1940 N.am  1 <1>  -0.4770 
  4 C        2.5840     1.4980    -0.2180 C.3   1 <1>  -0.0990 
  5 C        2.4220    -2.2090     0.2950 C.ar  1 <1>   0.1170 
  6 C        4.0560    -0.3090     0.4410 C.3   1 <1>   0.1400 
  7 C        4.0600     1.0700    -0.2300 C.3   1 <1>  -0.0190 
  8 C        1.5580    -2.8360    -0.5970 C.ar  1 <1>  -0.1500 
  9 C        3.0180    -2.9870     1.2830 C.ar  1 <1>  -0.1500 
 10 C        4.9930     2.0530     0.4710 C.2   1 <1>   0.5690 
 11 C        1.3080    -4.1940    -0.5140 C.ar  1 <1>  -0.1500 
 12 C        2.7710    -4.3450     1.3680 C.ar  1 <1>  -0.1500 
 13 O        4.7620     2.3080     1.6270 O.2   1 <1>  -0.5700 
 14 N        6.0640     2.6400    -0.1640 N.am  1 <1>  -0.6600 
 15 C        1.9170    -4.9590     0.4670 C.ar  1 <1>  -0.1430 
 16 C        6.6910     3.8720     0.4180 C.3   1 <1>   0.1400 
 17 C        6.7890     2.0960    -1.3560 C.3   1 <1>   0.1400 
 18 C        1.6410    -6.4480     0.5590 C.3   1 <1>  -0.0970 
 19 C        8.1800     3.6440     0.7250 C.3   1 <1>   0.3430 
 20 C        8.2960     1.9210    -1.0600 C.3   1 <1>   0.3430 
 21 N        8.9330     3.1630    -0.4920 N.4   1 <1>  -0.9590 
 22 C       10.3720     2.9250    -0.1980 C.3   1 <1>   0.3430 
 23 C       11.0850     4.2590    -0.0100 C.3   1 <1>  -0.2400 
 24 H        2.3320     2.0530     0.6680 H     1 <1>   0.0800 
 25 H        2.3160     2.0600    -1.0940 H     1 <1>   0.0800 
 26 H        4.7990    -0.9610     0.0160 H     1 <1>   0.0800 
 27 H        4.2060    -0.2210     1.5040 H     1 <1>   0.0800 
 28 H        4.3390     0.9380    -1.2560 H     1 <1>   0.0800 
 29 H        1.0750    -2.2570    -1.3630 H     1 <1>   0.1500 
 30 H        3.6740    -2.5310     2.0010 H     1 <1>   0.1500 
 31 H        0.6340    -4.6510    -1.2160 H     1 <1>   0.1500 
 32 H        3.2440    -4.9240     2.1420 H     1 <1>   0.1500 
 33 H        6.1900     4.1640     1.3260 H     1 <1>   0.0800 
 34 H        6.5840     4.6860    -0.2780 H     1 <1>   0.0800 
 35 H        6.6570     2.7660    -2.1880 H     1 <1>   0.0800 
 36 H        6.3960     1.1370    -1.6410 H     1 <1>   0.0800 
 37 H        0.7810    -6.6200     1.1800 H     1 <1>   0.0800 
 38 H        2.4850    -6.9630     0.9830 H     1 <1>   0.0800 
 39 H        1.4520    -6.8550    -0.4180 H     1 <1>   0.0800 
 40 H        8.2570     2.9160     1.5160 H     1 <1>   0.0800 
 41 H        8.6060     4.5660     1.0820 H     1 <1>   0.0800 
 42 H        8.8010     1.6370    -1.9690 H     1 <1>   0.0800 
 43 H        8.4090     1.1110    -0.3580 H     1 <1>   0.0800 
 44 H        8.8800     3.9020    -1.2050 H     1 <1>   0.4500 
 45 H       10.8300     2.4020    -1.0230 H     1 <1>   0.0800 
 46 H       10.4790     2.3180     0.6880 H     1 <1>   0.0800 
 47 H       10.9720     4.8830    -0.8780 H     1 <1>   0.0800 
 48 H       12.1370     4.0760     0.1280 H     1 <1>   0.0800 
 49 H       10.7310     4.7790     0.8620 H     1 <1>   0.0800 
@<TRIPOS>BOND
  1   1   2  2   
  2   2   3  am  
  3   2   4  1   
  4   3   5  1   
  5   3   6  1   
  6   4   7  1   
  7   4  24  1   
  8   4  25  1   
  9   5   8  ar  
 10   5   9  ar  
 11   6   7  1   
 12   6  26  1   
 13   6  27  1   
 14   7  10  1   
 15   7  28  1   
 16   8  11  ar  
 17   8  29  1   
 18   9  12  ar  
 19   9  30  1   
 20  10  13  2   
 21  10  14  am  
 22  11  15  ar  
 23  11  31  1   
 24  12  15  ar  
 25  12  32  1   
 26  14  16  1   
 27  14  17  1   
 28  15  18  1   
 29  16  19  1   
 30  16  33  1   
 31  16  34  1   
 32  17  20  1   
 33  17  35  1   
 34  17  36  1   
 35  18  37  1   
 36  18  38  1   
 37  18  39  1   
 38  19  21  1   
 39  19  40  1   
 40  19  41  1   
 41  20  21  1   
 42  20  42  1   
 43  20  43  1   
 44  21  22  1   
 45  21  44  1   
 46  22  23  1   
 47  22  45  1   
 48  22  46  1   
 49  23  47  1   
 50  23  48  1   
 51  23  49  1   
@<TRIPOS>SUBSTRUCTURE
  1 ****   6 GROUP 4 **** **** 0

# MOE 2024.06 (io_trps.svl 2023.06)
