@<TRIPOS>MOLECULE
N-(1-Propyl-1H-pyrazolo[3,4-b]quinolin-3-yl)-succinamic acid
41 43 1 0 0 
SMALL
USER_CHARGES


@<TRIPOS>ATOM
  1 O        0.4660    -0.5990    -1.1560 O.co2 1 <1>  -0.9000 
  2 C        0.4070    -1.8250    -1.0540 C.2   1 <1>   0.9060 
  3 O        1.4000    -2.5550    -1.0060 O.co2 1 <1>  -0.9000 
  4 C       -0.9430    -2.4830    -0.9650 C.3   1 <1>  -0.2660 
  5 C       -1.2270    -2.9550     0.4740 C.3   1 <1>  -0.0990 
  6 C       -2.3940    -3.9180     0.5540 C.2   1 <1>   0.5690 
  7 O       -3.3870    -3.5930     1.1590 O.2   1 <1>  -0.5700 
  8 N       -2.2360    -5.1240    -0.0500 N.am  1 <1>  -0.4930 
  9 C       -3.0760    -6.2250    -0.1580 C.2   1 <1>   0.3520 
 10 N       -2.5440    -7.3860    -0.3000 N.2   1 <1>  -0.7070 
 11 C       -4.4980    -6.2520    -0.1700 C.ar  1 <1>   0.0000 
 12 N       -3.5960    -8.2480    -0.3820 N.pl3 1 <1>   0.3140 
 13 C       -4.7990    -7.6040    -0.3130 C.ar  1 <1>   0.1050 
 14 C       -5.5440    -5.3570    -0.1090 C.ar  1 <1>  -0.1500 
 15 C       -3.4020    -9.7040    -0.5340 C.3   1 <1>   0.0960 
 16 N       -6.0070    -8.1440    -0.3790 N.ar  1 <1>  -0.5670 
 17 C       -6.8410    -5.8610    -0.1670 C.ar  1 <1>   0.0000 
 18 C       -3.3520   -10.3940     0.8370 C.3   1 <1>  -0.1600 
 19 C       -7.0210    -7.2680    -0.3010 C.ar  1 <1>   0.3100 
 20 C       -7.9840    -5.0290    -0.0980 C.ar  1 <1>  -0.1500 
 21 C       -3.1470   -11.9060     0.6940 C.3   1 <1>  -0.2400 
 22 C       -8.3430    -7.7590    -0.3590 C.ar  1 <1>  -0.1500 
 23 C       -9.2450    -5.5470    -0.1580 C.ar  1 <1>  -0.1500 
 24 C       -9.4280    -6.9330    -0.2910 C.ar  1 <1>  -0.1500 
 25 H       -0.9330    -3.3090    -1.6480 H     1 <1>   0.0800 
 26 H       -1.6930    -1.7840    -1.2830 H     1 <1>   0.0800 
 27 H       -1.4210    -2.0990     1.0960 H     1 <1>   0.0800 
 28 H       -0.3550    -3.4490     0.8670 H     1 <1>   0.0800 
 29 H       -1.3010    -5.3170    -0.4050 H     1 <1>   0.3700 
 30 H       -5.3720    -4.3010    -0.0200 H     1 <1>   0.1500 
 31 H       -2.4820    -9.8670    -1.0650 H     1 <1>   0.0800 
 32 H       -4.2140   -10.0960    -1.1180 H     1 <1>   0.0800 
 33 H       -4.2750   -10.2100     1.3610 H     1 <1>   0.0800 
 34 H       -2.5420    -9.9790     1.4140 H     1 <1>   0.0800 
 35 H       -7.8330    -3.9690     0.0060 H     1 <1>   0.1500 
 36 H       -3.9560   -12.3450     0.1360 H     1 <1>   0.0800 
 37 H       -3.1160   -12.3660     1.6660 H     1 <1>   0.0800 
 38 H       -2.2210   -12.1160     0.1880 H     1 <1>   0.0800 
 39 H       -8.4640    -8.8220    -0.4590 H     1 <1>   0.1500 
 40 H      -10.1110    -4.9110    -0.1050 H     1 <1>   0.1500 
 41 H      -10.4290    -7.3240    -0.3360 H     1 <1>   0.1500 
@<TRIPOS>BOND
  1   1   2  ar  
  2   2   3  ar  
  3   2   4  1   
  4   4   5  1   
  5   4  25  1   
  6   4  26  1   
  7   5   6  1   
  8   5  27  1   
  9   5  28  1   
 10   6   7  2   
 11   6   8  am  
 12   8   9  1   
 13   8  29  1   
 14   9  10  2   
 15   9  11  1   
 16  10  12  1   
 17  11  13  ar  
 18  11  14  ar  
 19  12  13  1   
 20  12  15  1   
 21  13  16  ar  
 22  14  17  ar  
 23  14  30  1   
 24  15  18  1   
 25  15  31  1   
 26  15  32  1   
 27  16  19  ar  
 28  17  19  ar  
 29  17  20  ar  
 30  18  21  1   
 31  18  33  1   
 32  18  34  1   
 33  19  22  ar  
 34  20  23  ar  
 35  20  35  1   
 36  21  36  1   
 37  21  37  1   
 38  21  38  1   
 39  22  24  ar  
 40  22  39  1   
 41  23  24  ar  
 42  23  40  1   
 43  24  41  1   
@<TRIPOS>SUBSTRUCTURE
  1 ****  11 GROUP 4 **** **** 0

# MOE 2024.06 (io_trps.svl 2023.06)
