@<TRIPOS>MOLECULE
[1-(2,5-Dimethoxy-benzenesulfonyl)-piperidin-4-yl]-(4-methyl-piperazin-1-yl)-met
58 60 1 0 0 
SMALL
USER_CHARGES


@<TRIPOS>ATOM
  1 S       -0.5200     0.1340    -1.3530 S.o2  1 <1>   1.4470 
  2 O       -0.1030    -0.8070    -2.3730 O.2   1 <1>  -0.6500 
  3 O       -1.4840     1.1510    -1.7200 O.2   1 <1>  -0.6500 
  4 N        0.9000     0.9180    -0.8580 N.am  1 <1>  -0.8490 
  5 C       -1.1290    -0.7900     0.0820 C.ar  1 <1>  -0.0090 
  6 C        1.3330     1.9080    -1.8430 C.3   1 <1>   0.1960 
  7 C        1.9650    -0.0220    -0.5160 C.3   1 <1>   0.1960 
  8 C       -1.2620    -0.2030     1.3370 C.ar  1 <1>   0.0830 
  9 C       -1.5020    -2.1240    -0.0530 C.ar  1 <1>  -0.1500 
 10 C        2.5080     2.7190    -1.2900 C.3   1 <1>  -0.1600 
 11 C        3.1540     0.7310     0.0890 C.3   1 <1>  -0.1600 
 12 O       -0.9100     1.0830     1.5380 O.3   1 <1>  -0.3620 
 13 C       -1.7310    -0.9260     2.4230 C.ar  1 <1>  -0.1500 
 14 C       -1.9800    -2.8570     1.0290 C.ar  1 <1>   0.0830 
 15 C        3.6800     1.8100    -0.8740 C.3   1 <1>  -0.0190 
 16 C       -1.9490     2.0340     1.4910 C.3   1 <1>   0.0400 
 17 C       -2.0910    -2.2500     2.2680 C.ar  1 <1>  -0.1500 
 18 O       -2.3550    -4.1590     0.9520 O.3   1 <1>  -0.3630 
 19 C        4.8370     2.6060    -0.2560 C.2   1 <1>   0.5690 
 20 C       -2.3100    -4.8640    -0.2690 C.3   1 <1>   0.0400 
 21 O        4.5760     3.5090     0.5010 O.2   1 <1>  -0.5700 
 22 N        6.1500     2.3040    -0.5350 N.am  1 <1>  -0.6600 
 23 C        7.2340     3.2670    -0.1610 C.3   1 <1>   0.1400 
 24 C        6.6570     0.9700    -0.9780 C.3   1 <1>   0.1400 
 25 C        8.1430     2.6580     0.9190 C.3   1 <1>   0.3430 
 26 C        7.6120     0.3740     0.0810 C.3   1 <1>   0.3430 
 27 N        8.7090     1.3290     0.4840 N.4   1 <1>  -0.9590 
 28 C        9.5660     0.7420     1.5580 C.3   1 <1>   0.2630 
 29 H        0.5220     2.5850    -2.0580 H     1 <1>   0.0800 
 30 H        1.6120     1.4160    -2.7600 H     1 <1>   0.0800 
 31 H        2.2750    -0.5640    -1.3950 H     1 <1>   0.0800 
 32 H        1.6010    -0.7320     0.2090 H     1 <1>   0.0800 
 33 H       -1.4100    -2.5790    -1.0220 H     1 <1>   0.1500 
 34 H        2.1580     3.2820    -0.4410 H     1 <1>   0.0800 
 35 H        2.8370     3.4230    -2.0330 H     1 <1>   0.0800 
 36 H        3.9320     0.0310     0.3280 H     1 <1>   0.0800 
 37 H        2.8330     1.1930     1.0080 H     1 <1>   0.0800 
 38 H       -1.8090    -0.4490     3.3850 H     1 <1>   0.1500 
 39 H        4.0310     1.3340    -1.7700 H     1 <1>   0.0800 
 40 H       -1.5150     3.0090     1.6190 H     1 <1>   0.0800 
 41 H       -2.6470     1.8310     2.2840 H     1 <1>   0.0800 
 42 H       -2.4390     1.9750     0.5350 H     1 <1>   0.0800 
 43 H       -2.4570    -2.8200     3.1020 H     1 <1>   0.1500 
 44 H       -2.6610    -5.8650    -0.0900 H     1 <1>   0.0800 
 45 H       -1.2940    -4.8920    -0.6210 H     1 <1>   0.0800 
 46 H       -2.9520    -4.3750    -0.9800 H     1 <1>   0.0800 
 47 H        6.8170     4.1890     0.2100 H     1 <1>   0.0800 
 48 H        7.8130     3.5100    -1.0350 H     1 <1>   0.0800 
 49 H        7.1740     1.0800    -1.9160 H     1 <1>   0.0800 
 50 H        5.8460     0.2820    -1.1320 H     1 <1>   0.0800 
 51 H        7.5620     2.5340     1.8180 H     1 <1>   0.0800 
 52 H        8.9440     3.3470     1.1340 H     1 <1>   0.0800 
 53 H        8.0440    -0.5350    -0.3050 H     1 <1>   0.0800 
 54 H        7.0290     0.1160     0.9500 H     1 <1>   0.0800 
 55 H        9.2940     1.5020    -0.3470 H     1 <1>   0.4500 
 56 H        8.9810     0.5540     2.4440 H     1 <1>   0.0800 
 57 H       10.3660     1.4200     1.8120 H     1 <1>   0.0800 
 58 H       10.0000    -0.1880     1.2270 H     1 <1>   0.0800 
@<TRIPOS>BOND
  1   1   2  2   
  2   1   3  2   
  3   1   4  am  
  4   1   5  1   
  5   4   6  1   
  6   4   7  1   
  7   5   8  ar  
  8   5   9  ar  
  9   6  10  1   
 10   6  29  1   
 11   6  30  1   
 12   7  11  1   
 13   7  31  1   
 14   7  32  1   
 15   8  12  1   
 16   8  13  ar  
 17   9  14  ar  
 18   9  33  1   
 19  10  15  1   
 20  10  34  1   
 21  10  35  1   
 22  11  15  1   
 23  11  36  1   
 24  11  37  1   
 25  12  16  1   
 26  13  17  ar  
 27  13  38  1   
 28  14  17  ar  
 29  14  18  1   
 30  15  19  1   
 31  15  39  1   
 32  16  40  1   
 33  16  41  1   
 34  16  42  1   
 35  17  43  1   
 36  18  20  1   
 37  19  21  2   
 38  19  22  am  
 39  20  44  1   
 40  20  45  1   
 41  20  46  1   
 42  22  23  1   
 43  22  24  1   
 44  23  25  1   
 45  23  47  1   
 46  23  48  1   
 47  24  26  1   
 48  24  49  1   
 49  24  50  1   
 50  25  27  1   
 51  25  51  1   
 52  25  52  1   
 53  26  27  1   
 54  26  53  1   
 55  26  54  1   
 56  27  28  1   
 57  27  55  1   
 58  28  56  1   
 59  28  57  1   
 60  28  58  1   
@<TRIPOS>SUBSTRUCTURE
  1 ****   7 GROUP 4 **** **** 0

# MOE 2024.06 (io_trps.svl 2023.06)
