@<TRIPOS>MOLECULE
3-(3-Chloro-benzyl)-1,6,7-trimethyl-8-(tetrahydro-furan-2-ylmethyl)-1H,8H-imidaz
56 60 1 0 0 
SMALL
USER_CHARGES


@<TRIPOS>ATOM
  1 CL       4.0250     1.1980    -2.5430 Cl    1 <1>  -0.1830 
  2 C        4.2860    -0.2800    -1.6530 C.ar  1 <1>   0.1710 
  3 C        4.7430    -0.2110    -0.3500 C.ar  1 <1>  -0.1560 
  4 C        4.0360    -1.4930    -2.2640 C.ar  1 <1>  -0.1560 
  5 C        4.9610    -1.3820     0.3620 C.ar  1 <1>  -0.1500 
  6 C        4.2500    -2.6620    -1.5550 C.ar  1 <1>  -0.1560 
  7 C        4.7110    -2.6040    -0.2490 C.ar  1 <1>  -0.1560 
  8 C        5.4760    -1.3310     1.7920 C.3   1 <1>   0.2780 
  9 N        6.9620    -1.3980     1.7670 N.am  1 <1>  -0.4250 
 10 C        7.5810    -2.6410     1.7940 C.2   1 <1>   0.6870 
 11 C        7.6830    -0.2320     1.5650 C.2   1 <1>   0.7000 
 12 O        6.9400    -3.6380     2.0540 O.2   1 <1>  -0.5740 
 13 N        8.9420    -2.7430     1.5350 N.am  1 <1>  -0.4410 
 14 O        7.1360     0.8560     1.6250 O.2   1 <1>  -0.5740 
 15 C        9.0800    -0.3510     1.3010 C.2   1 <1>   0.2710 
 16 C        9.6510    -1.5810     1.3050 C.2   1 <1>   0.4210 
 17 C        9.6250    -4.0700     1.5370 C.3   1 <1>   0.0530 
 18 N       10.1120     0.5590     1.0040 N.pl3 1 <1>  -0.6330 
 19 N       10.9810    -1.4550     1.0440 N.pl3 1 <1>  -0.7030 
 20 C       11.2170    -0.1590     0.8550 C.cat 1 <1>   1.0690 
 21 C       10.4580     1.8730     0.7700 C.2   1 <1>   0.2350 
 22 N       12.2740     0.6030     0.5450 N.pl3 1 <1>  -0.5710 
 23 C       11.7850     1.9010     0.4910 C.2   1 <1>   0.1580 
 24 C        9.4140     2.9700     0.8490 C.3   1 <1>  -0.1090 
 25 C       13.6940     0.1490     0.3940 C.3   1 <1>   0.1610 
 26 C       12.6810     3.0830     0.1630 C.3   1 <1>  -0.1090 
 27 C       13.8830    -0.9500    -0.6690 C.3   1 <1>   0.1940 
 28 O       13.1950    -2.1130    -0.3210 O.3   1 <1>  -0.5640 
 29 C       15.3280    -1.4060    -0.8150 C.3   1 <1>  -0.1660 
 30 C       13.7380    -3.2020    -1.0050 C.3   1 <1>   0.1130 
 31 C       15.1910    -2.8400    -1.3000 C.3   1 <1>  -0.1660 
 32 H        4.9240     0.7530     0.0920 H     1 <1>   0.1440 
 33 H        3.6790    -1.5190    -3.2780 H     1 <1>   0.1440 
 34 H        4.0570    -3.6160    -2.0160 H     1 <1>   0.1440 
 35 H        4.8750    -3.5230     0.2910 H     1 <1>   0.1440 
 36 H        5.0690    -2.1510     2.3590 H     1 <1>   0.0730 
 37 H        5.1510    -0.4220     2.2690 H     1 <1>   0.0730 
 38 H        8.9230    -4.8560     1.3120 H     1 <1>   0.0730 
 39 H       10.0510    -4.2570     2.5080 H     1 <1>   0.0730 
 40 H       10.4030    -4.0950     0.7950 H     1 <1>   0.0730 
 41 H       11.6970    -2.1430     0.7720 H     1 <1>   0.4450 
 42 H        8.9840     2.9970     1.8350 H     1 <1>   0.0730 
 43 H        8.6290     2.7820     0.1390 H     1 <1>   0.0730 
 44 H        9.8440     3.9310     0.6370 H     1 <1>   0.0730 
 45 H       14.0520    -0.2130     1.3430 H     1 <1>   0.0730 
 46 H       14.3090     0.9870     0.1190 H     1 <1>   0.0730 
 47 H       12.1220     4.0010     0.1590 H     1 <1>   0.0730 
 48 H       13.4640     3.1690     0.8950 H     1 <1>   0.0730 
 49 H       13.1240     2.9540    -0.8090 H     1 <1>   0.0730 
 50 H       13.5120    -0.6190    -1.6250 H     1 <1>   0.0730 
 51 H       15.8250    -1.3910     0.1400 H     1 <1>   0.0730 
 52 H       15.8760    -0.7910    -1.5070 H     1 <1>   0.0730 
 53 H       13.1830    -3.3430    -1.9170 H     1 <1>   0.0730 
 54 H       13.6600    -4.0790    -0.3850 H     1 <1>   0.0730 
 55 H       15.8690    -3.4980    -0.7850 H     1 <1>   0.0730 
 56 H       15.3760    -2.9120    -2.3580 H     1 <1>   0.0730 
@<TRIPOS>BOND
  1   1   2  1   
  2   2   3  ar  
  3   2   4  ar  
  4   3   5  ar  
  5   3  32  1   
  6   4   6  ar  
  7   4  33  1   
  8   5   7  ar  
  9   5   8  1   
 10   6   7  ar  
 11   6  34  1   
 12   7  35  1   
 13   8   9  1   
 14   8  36  1   
 15   8  37  1   
 16   9  10  am  
 17   9  11  am  
 18  10  12  2   
 19  10  13  am  
 20  11  14  2   
 21  11  15  1   
 22  13  16  1   
 23  13  17  1   
 24  15  16  2   
 25  15  18  1   
 26  16  19  1   
 27  17  38  1   
 28  17  39  1   
 29  17  40  1   
 30  18  20  ar  
 31  18  21  1   
 32  19  20  ar  
 33  19  41  1   
 34  20  22  ar  
 35  21  23  2   
 36  21  24  1   
 37  22  23  1   
 38  22  25  1   
 39  23  26  1   
 40  24  42  1   
 41  24  43  1   
 42  24  44  1   
 43  25  27  1   
 44  25  45  1   
 45  25  46  1   
 46  26  47  1   
 47  26  48  1   
 48  26  49  1   
 49  27  28  1   
 50  27  29  1   
 51  27  50  1   
 52  28  30  1   
 53  29  31  1   
 54  29  51  1   
 55  29  52  1   
 56  30  31  1   
 57  30  53  1   
 58  30  54  1   
 59  31  55  1   
 60  31  56  1   
@<TRIPOS>SUBSTRUCTURE
  1 ****  15 GROUP 4 **** **** 0

# MOE 2024.06 (io_trps.svl 2023.06)
