@<TRIPOS>MOLECULE
Cyclohexanecarboxylic acid [3-(4-chloro-phenyl)-[1,2,4]oxadiazol-5-ylmethyl]-ami
40 42 1 0 0 
SMALL
USER_CHARGES


@<TRIPOS>ATOM
  1 CL       0.0550     2.9400    -0.6210 Cl    1 <1>  -0.1770 
  2 C        1.7760     3.1960    -0.5060 C.ar  1 <1>   0.1770 
  3 C        2.2700     4.1020     0.4110 C.ar  1 <1>  -0.1500 
  4 C        2.6270     2.4900    -1.3340 C.ar  1 <1>  -0.1500 
  5 C        3.6370     4.3020     0.4980 C.ar  1 <1>  -0.1500 
  6 C        3.9920     2.6990    -1.2390 C.ar  1 <1>  -0.1500 
  7 C        4.5320     3.6070    -0.3230 C.ar  1 <1>   0.0540 
  8 C        5.9680     3.8200    -0.2360 C.2   1 <1>   0.4620 
  9 N        6.8550     3.2800    -0.9940 N.2   1 <1>  -0.4100 
 10 N        6.5230     4.6360     0.6660 N.2   1 <1>  -0.5650 
 11 O        8.0170     3.7250    -0.6310 O.3   1 <1>  -0.0190 
 12 C        7.7510     4.5360     0.3590 C.2   1 <1>   0.2980 
 13 C        8.9020     5.2730     1.0310 C.3   1 <1>   0.3200 
 14 N        9.6140     6.1920     0.1010 N.am  1 <1>  -0.7300 
 15 C        9.1510     7.2860    -0.5500 C.2   1 <1>   0.5690 
 16 O        9.9050     7.8740    -1.2830 O.2   1 <1>  -0.5700 
 17 C        7.7080     7.7820    -0.3910 C.3   1 <1>  -0.0190 
 18 C        6.8560     7.3890    -1.6130 C.3   1 <1>  -0.1600 
 19 C        7.6350     9.3040    -0.1630 C.3   1 <1>  -0.1600 
 20 C        5.4000     7.8460    -1.4490 C.3   1 <1>  -0.1600 
 21 C        6.1820     9.7750     0.0020 C.3   1 <1>  -0.1600 
 22 C        5.3230     9.3580    -1.2000 C.3   1 <1>  -0.1600 
 23 H        1.5910     4.6410     1.0470 H     1 <1>   0.1500 
 24 H        2.2220     1.7890    -2.0420 H     1 <1>   0.1500 
 25 H        4.0160     5.0110     1.2140 H     1 <1>   0.1500 
 26 H        4.6510     2.1460    -1.8870 H     1 <1>   0.1500 
 27 H        9.6000     4.5500     1.4140 H     1 <1>   0.0800 
 28 H        8.5200     5.8380     1.8620 H     1 <1>   0.0800 
 29 H       10.5750     5.9370    -0.1340 H     1 <1>   0.3700 
 30 H        7.2770     7.3200     0.4760 H     1 <1>   0.0800 
 31 H        6.8820     6.3230    -1.7530 H     1 <1>   0.0800 
 32 H        7.2750     7.8410    -2.4960 H     1 <1>   0.0800 
 33 H        8.0800     9.8130    -1.0020 H     1 <1>   0.0800 
 34 H        8.2010     9.5650     0.7150 H     1 <1>   0.0800 
 35 H        4.9530     7.3220    -0.6210 H     1 <1>   0.0800 
 36 H        4.8420     7.5970    -2.3350 H     1 <1>   0.0800 
 37 H        6.1610    10.8470     0.1040 H     1 <1>   0.0800 
 38 H        5.7670     9.3500     0.9000 H     1 <1>   0.0800 
 39 H        4.3000     9.6450    -1.0290 H     1 <1>   0.0800 
 40 H        5.6680     9.8780    -2.0780 H     1 <1>   0.0800 
@<TRIPOS>BOND
  1   1   2  1   
  2   2   3  ar  
  3   2   4  ar  
  4   3   5  ar  
  5   3  23  1   
  6   4   6  ar  
  7   4  24  1   
  8   5   7  ar  
  9   5  25  1   
 10   6   7  ar  
 11   6  26  1   
 12   7   8  1   
 13   8   9  2   
 14   8  10  1   
 15   9  11  1   
 16  10  12  2   
 17  11  12  1   
 18  12  13  1   
 19  13  14  1   
 20  13  27  1   
 21  13  28  1   
 22  14  15  am  
 23  14  29  1   
 24  15  16  2   
 25  15  17  1   
 26  17  18  1   
 27  17  19  1   
 28  17  30  1   
 29  18  20  1   
 30  18  31  1   
 31  18  32  1   
 32  19  21  1   
 33  19  33  1   
 34  19  34  1   
 35  20  22  1   
 36  20  35  1   
 37  20  36  1   
 38  21  22  1   
 39  21  37  1   
 40  21  38  1   
 41  22  39  1   
 42  22  40  1   
@<TRIPOS>SUBSTRUCTURE
  1 ****  10 GROUP 4 **** **** 0

# MOE 2024.06 (io_trps.svl 2023.06)
