@<TRIPOS>MOLECULE
3-Ethyl-1,6,7-trimethyl-8-(tetrahydro-furan-2-ylmethyl)-1H,8H-imidazo[2,1-f]puri
49 52 1 0 0 
SMALL
USER_CHARGES


@<TRIPOS>ATOM
  1 O        1.7910    -0.7530     0.4220 O.2   1 <1>  -0.5750 
  2 C        2.4750     0.2500     0.4020 C.2   1 <1>   0.6860 
  3 N        1.8810     1.5060     0.3080 N.am  1 <1>  -0.4260 
  4 N        3.8580     0.1390     0.4800 N.am  1 <1>  -0.4420 
  5 C        2.6440     2.6680     0.3170 C.2   1 <1>   0.6990 
  6 C        0.3970     1.6050     0.1770 C.3   1 <1>   0.1330 
  7 C        4.6050     1.2980     0.5050 C.2   1 <1>   0.4200 
  8 C        4.5130    -1.1990     0.5790 C.3   1 <1>   0.0520 
  9 O        2.1130     3.7640     0.2420 O.2   1 <1>  -0.5750 
 10 C        4.0610     2.5360     0.4190 C.2   1 <1>   0.2700 
 11 C        0.0050     1.5930    -1.3000 C.3   1 <1>  -0.2470 
 12 N        5.9580     1.4110     0.6010 N.pl3 1 <1>  -0.7040 
 13 N        5.1380     3.4410     0.4460 N.pl3 1 <1>  -0.6330 
 14 C        6.2410     2.7110     0.5490 C.cat 1 <1>   1.0690 
 15 C        5.5410     4.7580     0.3880 C.2   1 <1>   0.2340 
 16 N        7.3460     3.4660     0.5670 N.pl3 1 <1>  -0.5720 
 17 C        6.8940     4.7750     0.4650 C.2   1 <1>   0.1570 
 18 C        4.5180     5.8710     0.2630 C.3   1 <1>  -0.1100 
 19 C        8.7530     2.9940     0.7650 C.3   1 <1>   0.1600 
 20 C        7.8520     5.9550     0.4510 C.3   1 <1>  -0.1100 
 21 C        9.2070     1.9460    -0.2690 C.3   1 <1>   0.1930 
 22 O        8.4470     0.7800    -0.1730 O.3   1 <1>  -0.5650 
 23 C       10.6380     1.4720    -0.0590 C.3   1 <1>  -0.1670 
 24 C        9.1450    -0.2830    -0.7490 C.3   1 <1>   0.1120 
 25 C       10.6260     0.0670    -0.6380 C.3   1 <1>  -0.1670 
 26 H        0.0440     2.5110     0.6400 H     1 <1>   0.0720 
 27 H       -0.0750     0.7800     0.6840 H     1 <1>   0.0720 
 28 H        3.8960    -1.9550     0.1230 H     1 <1>   0.0720 
 29 H        4.6620    -1.4540     1.6140 H     1 <1>   0.0720 
 30 H        5.4620    -1.1930     0.0720 H     1 <1>   0.0720 
 31 H        0.4370     2.4330    -1.8140 H     1 <1>   0.0720 
 32 H       -1.0650     1.6600    -1.3870 H     1 <1>   0.0720 
 33 H        0.3240     0.6780    -1.7670 H     1 <1>   0.0720 
 34 H        6.7170     0.7250     0.4900 H     1 <1>   0.4450 
 35 H        3.9460     5.7430    -0.6390 H     1 <1>   0.0720 
 36 H        4.9930     6.8330     0.2330 H     1 <1>   0.0720 
 37 H        3.8450     5.8470     1.1010 H     1 <1>   0.0720 
 38 H        8.8510     2.5790     1.7540 H     1 <1>   0.0720 
 39 H        9.4230     3.8330     0.7040 H     1 <1>   0.0720 
 40 H        8.4180     5.9840     1.3650 H     1 <1>   0.0720 
 41 H        7.3170     6.8830     0.3570 H     1 <1>   0.0720 
 42 H        8.5310     5.8720    -0.3780 H     1 <1>   0.0720 
 43 H        9.0980     2.3310    -1.2700 H     1 <1>   0.0720 
 44 H       10.8700     1.4320     0.9910 H     1 <1>   0.0720 
 45 H       11.3500     2.1100    -0.5530 H     1 <1>   0.0720 
 46 H        8.8450    -0.3680    -1.7800 H     1 <1>   0.0720 
 47 H        8.9040    -1.1880    -0.2180 H     1 <1>   0.0720 
 48 H       11.1430    -0.6280     0.0010 H     1 <1>   0.0720 
 49 H       11.0790     0.0430    -1.6130 H     1 <1>   0.0720 
@<TRIPOS>BOND
  1   1   2  2   
  2   2   3  am  
  3   2   4  am  
  4   3   5  am  
  5   3   6  1   
  6   4   7  1   
  7   4   8  1   
  8   5   9  2   
  9   5  10  1   
 10   6  11  1   
 11   6  26  1   
 12   6  27  1   
 13   7  10  2   
 14   7  12  1   
 15   8  28  1   
 16   8  29  1   
 17   8  30  1   
 18  10  13  1   
 19  11  31  1   
 20  11  32  1   
 21  11  33  1   
 22  12  14  ar  
 23  12  34  1   
 24  13  14  ar  
 25  13  15  1   
 26  14  16  ar  
 27  15  17  2   
 28  15  18  1   
 29  16  17  1   
 30  16  19  1   
 31  17  20  1   
 32  18  35  1   
 33  18  36  1   
 34  18  37  1   
 35  19  21  1   
 36  19  38  1   
 37  19  39  1   
 38  20  40  1   
 39  20  41  1   
 40  20  42  1   
 41  21  22  1   
 42  21  23  1   
 43  21  43  1   
 44  22  24  1   
 45  23  25  1   
 46  23  44  1   
 47  23  45  1   
 48  24  25  1   
 49  24  46  1   
 50  24  47  1   
 51  25  48  1   
 52  25  49  1   
@<TRIPOS>SUBSTRUCTURE
  1 ****  12 GROUP 4 **** **** 0

# MOE 2024.06 (io_trps.svl 2023.06)
