@<TRIPOS>MOLECULE
1-[2-Methyl-3-(toluene-4-sulfonyl)-imidazolidin-1-yl]-ethanone
37 38 1 0 0 
SMALL
USER_CHARGES


@<TRIPOS>ATOM
  1 S        0.1190     0.5760    -1.1880 S.o2  1 <1>   1.4470 
  2 O       -0.4860     1.7380    -1.8020 O.2   1 <1>  -0.6500 
  3 O        1.0660    -0.1770    -1.9820 O.2   1 <1>  -0.6500 
  4 N        0.9000     1.1500     0.2080 N.am  1 <1>  -0.8490 
  5 C       -1.2320    -0.4820    -0.5970 C.ar  1 <1>  -0.0090 
  6 C        1.7680     0.2190     0.9330 C.3   1 <1>   0.5760 
  7 C        1.7820     2.2680    -0.1230 C.3   1 <1>   0.1960 
  8 C       -1.4210    -1.7640    -1.1010 C.ar  1 <1>  -0.1500 
  9 C       -2.1170    -0.0320     0.3760 C.ar  1 <1>  -0.1500 
 10 N        3.1190     0.4320     0.3940 N.am  1 <1>  -0.6600 
 11 C        1.3610    -1.2560     0.9350 C.3   1 <1>  -0.2400 
 12 C        3.1140     1.6240    -0.4680 C.3   1 <1>   0.1400 
 13 C       -2.4470    -2.5720    -0.6430 C.ar  1 <1>  -0.1500 
 14 C       -3.1450    -0.8350     0.8390 C.ar  1 <1>  -0.1500 
 15 C        4.2320    -0.0470     1.0160 C.2   1 <1>   0.5690 
 16 C       -3.3130    -2.1120     0.3330 C.ar  1 <1>  -0.1430 
 17 O        4.1810    -0.6360     2.0670 O.2   1 <1>  -0.5700 
 18 C        5.5900     0.1750     0.3950 C.3   1 <1>  -0.1790 
 19 C       -4.4400    -2.9960     0.8380 C.3   1 <1>  -0.0970 
 20 H        1.7880     0.5400     1.9630 H     1 <1>   0.0800 
 21 H        1.9060     2.8890     0.7480 H     1 <1>   0.0800 
 22 H        1.4150     2.8850    -0.9260 H     1 <1>   0.0800 
 23 H       -0.7550    -2.1350    -1.8620 H     1 <1>   0.1500 
 24 H       -1.9980     0.9610     0.7740 H     1 <1>   0.1500 
 25 H        1.4560    -1.7050    -0.0340 H     1 <1>   0.0800 
 26 H        0.3610    -1.3670     1.3100 H     1 <1>   0.0800 
 27 H        1.9980    -1.8000     1.6060 H     1 <1>   0.0800 
 28 H        3.9330     2.2880    -0.2520 H     1 <1>   0.0800 
 29 H        3.1390     1.3300    -1.5040 H     1 <1>   0.0800 
 30 H       -2.5670    -3.5610    -1.0510 H     1 <1>   0.1500 
 31 H       -3.8150    -0.4590     1.5930 H     1 <1>   0.1500 
 32 H        5.9460     1.1570     0.6420 H     1 <1>   0.0800 
 33 H        5.5330     0.0650    -0.6710 H     1 <1>   0.0800 
 34 H        6.2820    -0.5510     0.7800 H     1 <1>   0.0800 
 35 H       -4.1590    -4.0320     0.7810 H     1 <1>   0.0800 
 36 H       -5.3190    -2.8400     0.2400 H     1 <1>   0.0800 
 37 H       -4.6700    -2.7640     1.8620 H     1 <1>   0.0800 
@<TRIPOS>BOND
  1   1   2  2   
  2   1   3  2   
  3   1   4  am  
  4   1   5  1   
  5   4   6  1   
  6   4   7  1   
  7   5   8  ar  
  8   5   9  ar  
  9   6  10  1   
 10   6  11  1   
 11   6  20  1   
 12   7  12  1   
 13   7  21  1   
 14   7  22  1   
 15   8  13  ar  
 16   8  23  1   
 17   9  14  ar  
 18   9  24  1   
 19  10  12  1   
 20  10  15  am  
 21  11  25  1   
 22  11  26  1   
 23  11  27  1   
 24  12  28  1   
 25  12  29  1   
 26  13  16  ar  
 27  13  30  1   
 28  14  16  ar  
 29  14  31  1   
 30  15  17  2   
 31  15  18  1   
 32  16  19  1   
 33  18  32  1   
 34  18  33  1   
 35  18  34  1   
 36  19  35  1   
 37  19  36  1   
 38  19  37  1   
@<TRIPOS>SUBSTRUCTURE
  1 ****   4 GROUP 4 **** **** 0

# MOE 2024.06 (io_trps.svl 2023.06)
