@<TRIPOS>MOLECULE
N-Cyclohexyl-3-[3-(3-ethoxy-4-methoxy-phenyl)-[1,2,4]oxadiazol-5-yl]-propionamid
54 56 1 0 0 
SMALL
USER_CHARGES


@<TRIPOS>ATOM
  1 O        0.0500    -0.9830    -2.4580 O.2   1 <1>  -0.5700 
  2 C        0.5010    -1.9280    -1.8670 C.2   1 <1>   0.5690 
  3 N        1.7360    -1.8510    -1.3210 N.am  1 <1>  -0.7300 
  4 C       -0.3460    -3.1750    -1.7400 C.3   1 <1>  -0.0990 
  5 C        2.4860    -2.8400    -0.5300 C.3   1 <1>   0.2200 
  6 C       -1.1200    -3.1700    -0.4160 C.3   1 <1>   0.0200 
  7 C        2.9130    -2.1940     0.7920 C.3   1 <1>  -0.1600 
  8 C        3.7010    -3.3050    -1.3380 C.3   1 <1>  -0.1600 
  9 C       -1.8680    -4.4710    -0.2120 C.2   1 <1>   0.2980 
 10 C        3.7820    -3.1530     1.6190 C.3   1 <1>  -0.1600 
 11 C        4.5740    -4.2670    -0.5180 C.3   1 <1>  -0.1600 
 12 O       -1.1810    -5.5590     0.0170 O.3   1 <1>  -0.0190 
 13 N       -3.1260    -4.6160    -0.2410 N.2   1 <1>  -0.5650 
 14 C        4.9970    -3.6340     0.8140 C.3   1 <1>  -0.1600 
 15 N       -2.0830    -6.4800     0.1430 N.2   1 <1>  -0.4100 
 16 C       -3.2360    -5.9280    -0.0090 C.2   1 <1>   0.4620 
 17 C       -4.5170    -6.6120     0.0560 C.ar  1 <1>   0.0540 
 18 C       -5.7210    -5.9410    -0.1550 C.ar  1 <1>  -0.1500 
 19 C       -4.5980    -7.9750     0.3370 C.ar  1 <1>  -0.1500 
 20 C       -6.9470    -6.5780    -0.0910 C.ar  1 <1>   0.0820 
 21 C       -5.8110    -8.6370     0.3960 C.ar  1 <1>  -0.1500 
 22 O       -8.0280    -5.7780    -0.3100 O.3   1 <1>  -0.3630 
 23 C       -7.0050    -7.9550     0.1760 C.ar  1 <1>   0.0820 
 24 C       -9.2180    -5.9660     0.4200 C.3   1 <1>   0.1200 
 25 O       -8.2080    -8.5970     0.1970 O.3   1 <1>  -0.3630 
 26 C       -9.9820    -4.6450     0.4260 C.3   1 <1>  -0.2400 
 27 C       -8.3080   -10.0020     0.2740 C.3   1 <1>   0.0400 
 28 H        2.2260    -0.9700    -1.4860 H     1 <1>   0.3700 
 29 H        0.2760    -4.0470    -1.8180 H     1 <1>   0.0800 
 30 H       -1.0450    -3.2020    -2.5570 H     1 <1>   0.0800 
 31 H        1.8670    -3.6930    -0.3100 H     1 <1>   0.0800 
 32 H       -1.8210    -2.3540    -0.4170 H     1 <1>   0.0800 
 33 H       -0.4460    -3.0270     0.4100 H     1 <1>   0.0800 
 34 H        2.0400    -1.9260     1.3600 H     1 <1>   0.0800 
 35 H        3.4760    -1.3000     0.5900 H     1 <1>   0.0800 
 36 H        4.2920    -2.4530    -1.6220 H     1 <1>   0.0800 
 37 H        3.3680    -3.8020    -2.2320 H     1 <1>   0.0800 
 38 H        3.1930    -4.0040     1.9170 H     1 <1>   0.0800 
 39 H        4.1170    -2.6560     2.5140 H     1 <1>   0.0800 
 40 H        5.4490    -4.5320    -1.0860 H     1 <1>   0.0800 
 41 H        4.0230    -5.1720    -0.3230 H     1 <1>   0.0800 
 42 H        5.5520    -4.3510     1.3940 H     1 <1>   0.0800 
 43 H        5.6480    -2.7980     0.6190 H     1 <1>   0.0800 
 44 H       -5.7100    -4.8880    -0.3740 H     1 <1>   0.1500 
 45 H       -3.6920    -8.5300     0.5110 H     1 <1>   0.1500 
 46 H       -5.8000    -9.6870     0.6140 H     1 <1>   0.1500 
 47 H       -8.9650    -6.2670     1.4230 H     1 <1>   0.0800 
 48 H       -9.7940    -6.7350    -0.0630 H     1 <1>   0.0800 
 49 H       -9.3910    -3.8800     0.8960 H     1 <1>   0.0800 
 50 H      -10.8990    -4.7580     0.9730 H     1 <1>   0.0800 
 51 H      -10.2150    -4.3510    -0.5820 H     1 <1>   0.0800 
 52 H       -9.3470   -10.2670     0.1960 H     1 <1>   0.0800 
 53 H       -7.9190   -10.3290     1.2220 H     1 <1>   0.0800 
 54 H       -7.7580   -10.4370    -0.5420 H     1 <1>   0.0800 
@<TRIPOS>BOND
  1   1   2  2   
  2   2   3  am  
  3   2   4  1   
  4   3   5  1   
  5   3  28  1   
  6   4   6  1   
  7   4  29  1   
  8   4  30  1   
  9   5   7  1   
 10   5   8  1   
 11   5  31  1   
 12   6   9  1   
 13   6  32  1   
 14   6  33  1   
 15   7  10  1   
 16   7  34  1   
 17   7  35  1   
 18   8  11  1   
 19   8  36  1   
 20   8  37  1   
 21   9  12  1   
 22   9  13  2   
 23  10  14  1   
 24  10  38  1   
 25  10  39  1   
 26  11  14  1   
 27  11  40  1   
 28  11  41  1   
 29  12  15  1   
 30  13  16  1   
 31  14  42  1   
 32  14  43  1   
 33  15  16  2   
 34  16  17  1   
 35  17  18  ar  
 36  17  19  ar  
 37  18  20  ar  
 38  18  44  1   
 39  19  21  ar  
 40  19  45  1   
 41  20  22  1   
 42  20  23  ar  
 43  21  23  ar  
 44  21  46  1   
 45  22  24  1   
 46  23  25  1   
 47  24  26  1   
 48  24  47  1   
 49  24  48  1   
 50  25  27  1   
 51  26  49  1   
 52  26  50  1   
 53  26  51  1   
 54  27  52  1   
 55  27  53  1   
 56  27  54  1   
@<TRIPOS>SUBSTRUCTURE
  1 ****  13 GROUP 4 **** **** 0

# MOE 2024.06 (io_trps.svl 2023.06)
