@<TRIPOS>MOLECULE
3-tert-Butyl-6-(4-tert-butyl-phenoxymethyl)-[1,2,4]triazolo[3,4-b][1,3,4]thiadia
48 50 1 0 0 
SMALL
USER_CHARGES


@<TRIPOS>ATOM
  1 S       -0.4620    -0.3650     1.1330 S.3   1 <1>  -0.1970 
  2 C        0.4580     1.1120     0.9360 C.2   1 <1>   0.2420 
  3 C       -1.9160     0.5340     0.6540 C.2   1 <1>   0.5300 
  4 N        1.6880     1.4530     1.0720 N.2   1 <1>  -0.3380 
  5 N       -0.3570     2.0810     0.5540 N.pl3 1 <1>   0.5050 
  6 N       -1.7100     1.7630     0.3900 N.2   1 <1>  -0.6520 
  7 C       -3.1970    -0.2890     0.6270 C.3   1 <1>   0.1810 
  8 N        1.7050     2.7620     0.7550 N.2   1 <1>  -0.3380 
  9 C        0.4900     3.1220     0.4500 C.2   1 <1>   0.0060 
 10 O       -4.3030     0.5020     0.2360 O.3   1 <1>  -0.3630 
 11 C        0.0410     4.5280     0.0260 C.3   1 <1>   0.1800 
 12 C       -5.5470    -0.0260     0.1430 C.ar  1 <1>   0.0830 
 13 C       -0.9980     5.0710     1.0180 C.3   1 <1>  -0.2400 
 14 C        1.2350     5.4980     0.0020 C.3   1 <1>  -0.2400 
 15 C       -0.5690     4.4840    -1.3820 C.3   1 <1>  -0.2400 
 16 C       -5.8520    -1.3550     0.4140 C.ar  1 <1>  -0.1500 
 17 C       -6.5600     0.8290    -0.2470 C.ar  1 <1>  -0.1500 
 18 C       -7.1560    -1.8030     0.2910 C.ar  1 <1>  -0.1500 
 19 C       -7.8610     0.3740    -0.3680 C.ar  1 <1>  -0.1500 
 20 C       -8.1860    -0.9540    -0.1010 C.ar  1 <1>  -0.1430 
 21 C       -9.6230    -1.5080    -0.2220 C.3   1 <1>   0.1430 
 22 C      -10.6470    -0.4490    -0.6640 C.3   1 <1>  -0.2400 
 23 C      -10.0790    -2.0530     1.1400 C.3   1 <1>  -0.2400 
 24 C       -9.6510    -2.6400    -1.2600 C.3   1 <1>  -0.2400 
 25 H       -3.3950    -0.6790     1.6080 H     1 <1>   0.0800 
 26 H       -3.0940    -1.0920    -0.0800 H     1 <1>   0.0800 
 27 H       -0.5890     5.0830     2.0130 H     1 <1>   0.0800 
 28 H       -1.8830     4.4610     1.0210 H     1 <1>   0.0800 
 29 H       -1.2840     6.0740     0.7550 H     1 <1>   0.0800 
 30 H        1.9820     5.1530    -0.6900 H     1 <1>   0.0800 
 31 H        1.6850     5.5610     0.9780 H     1 <1>   0.0800 
 32 H        0.9240     6.4840    -0.2940 H     1 <1>   0.0800 
 33 H        0.1420     4.0820    -2.0820 H     1 <1>   0.0800 
 34 H       -0.8450     5.4720    -1.7060 H     1 <1>   0.0800 
 35 H       -1.4510     3.8680    -1.4000 H     1 <1>   0.0800 
 36 H       -5.1000    -2.0560     0.7200 H     1 <1>   0.1500 
 37 H       -6.3250     1.8570    -0.4570 H     1 <1>   0.1500 
 38 H       -7.3620    -2.8360     0.5070 H     1 <1>   0.1500 
 39 H       -8.6050     1.0840    -0.6750 H     1 <1>   0.1500 
 40 H      -11.6300    -0.8780    -0.7340 H     1 <1>   0.0800 
 41 H      -10.6860     0.3570     0.0470 H     1 <1>   0.0800 
 42 H      -10.3870    -0.0530    -1.6290 H     1 <1>   0.0800 
 43 H      -10.0290    -1.2750     1.8820 H     1 <1>   0.0800 
 44 H       -9.4560    -2.8660     1.4630 H     1 <1>   0.0800 
 45 H      -11.0920    -2.4100     1.0870 H     1 <1>   0.0800 
 46 H       -9.2990    -2.2760    -2.2090 H     1 <1>   0.0800 
 47 H      -10.6510    -3.0150    -1.3860 H     1 <1>   0.0800 
 48 H       -9.0240    -3.4590    -0.9600 H     1 <1>   0.0800 
@<TRIPOS>BOND
  1   1   2  1   
  2   1   3  1   
  3   2   4  2   
  4   2   5  1   
  5   3   6  2   
  6   3   7  1   
  7   4   8  1   
  8   5   6  1   
  9   5   9  1   
 10   7  10  1   
 11   7  25  1   
 12   7  26  1   
 13   8   9  2   
 14   9  11  1   
 15  10  12  1   
 16  11  13  1   
 17  11  14  1   
 18  11  15  1   
 19  12  16  ar  
 20  12  17  ar  
 21  13  27  1   
 22  13  28  1   
 23  13  29  1   
 24  14  30  1   
 25  14  31  1   
 26  14  32  1   
 27  15  33  1   
 28  15  34  1   
 29  15  35  1   
 30  16  18  ar  
 31  16  36  1   
 32  17  19  ar  
 33  17  37  1   
 34  18  20  ar  
 35  18  38  1   
 36  19  20  ar  
 37  19  39  1   
 38  20  21  1   
 39  21  22  1   
 40  21  23  1   
 41  21  24  1   
 42  22  40  1   
 43  22  41  1   
 44  22  42  1   
 45  23  43  1   
 46  23  44  1   
 47  23  45  1   
 48  24  46  1   
 49  24  47  1   
 50  24  48  1   
@<TRIPOS>SUBSTRUCTURE
  1 ****  10 GROUP 4 **** **** 0

# MOE 2024.06 (io_trps.svl 2023.06)
