@<TRIPOS>MOLECULE
N-{1-[3-(2-Chloro-phenyl)-[1,2,4]oxadiazol-5-yl]-ethyl}-2,2-dimethyl-propionamid
39 40 1 0 0 
SMALL
USER_CHARGES


@<TRIPOS>ATOM
  1 CL      -0.6190    -0.3310     0.4500 Cl    1 <1>  -0.1770 
  2 C        0.0630    -1.8670    -0.0320 C.ar  1 <1>   0.1770 
  3 C        1.4100    -2.1500     0.1980 C.ar  1 <1>   0.0540 
  4 C       -0.7870    -2.7820    -0.6240 C.ar  1 <1>  -0.1500 
  5 C        2.3130    -1.1990     0.8020 C.2   1 <1>   0.4620 
  6 C        1.8670    -3.4130    -0.1820 C.ar  1 <1>  -0.1500 
  7 C       -0.3060    -4.0240    -0.9990 C.ar  1 <1>  -0.1500 
  8 N        3.0190    -1.4120     1.8530 N.2   1 <1>  -0.4100 
  9 N        2.5280     0.0150     0.2940 N.2   1 <1>  -0.5650 
 10 C        1.0240    -4.3380    -0.7740 C.ar  1 <1>  -0.1500 
 11 O        3.7130    -0.3430     2.0870 O.3   1 <1>  -0.0190 
 12 C        3.3770     0.4740     1.1210 C.2   1 <1>   0.2980 
 13 C        4.0150     1.8620     1.0760 C.3   1 <1>   0.4000 
 14 N        5.4910     1.7570     1.0720 N.am  1 <1>  -0.7300 
 15 C        3.5910     2.7020     2.2820 C.3   1 <1>  -0.2400 
 16 C        6.5150     2.4850     0.5580 C.2   1 <1>   0.5690 
 17 O        7.6140     2.0150     0.7210 O.2   1 <1>  -0.5700 
 18 C        6.4160     3.8660    -0.1640 C.3   1 <1>   0.0610 
 19 C        5.0780     4.1610    -0.8720 C.3   1 <1>  -0.2400 
 20 C        6.6700     4.9880     0.8590 C.3   1 <1>  -0.2400 
 21 C        7.5080     3.9700    -1.2520 C.3   1 <1>  -0.2400 
 22 H       -1.8180    -2.5230    -0.7870 H     1 <1>   0.1500 
 23 H        2.8990    -3.6680    -0.0090 H     1 <1>   0.1500 
 24 H       -0.9610    -4.7430    -1.4620 H     1 <1>   0.1500 
 25 H        1.4020    -5.3040    -1.0600 H     1 <1>   0.1500 
 26 H        3.6720     2.3240     0.1720 H     1 <1>   0.0800 
 27 H        5.8200     0.9060     1.5330 H     1 <1>   0.3700 
 28 H        3.9970     3.6930     2.2120 H     1 <1>   0.0800 
 29 H        2.5190     2.7750     2.3100 H     1 <1>   0.0800 
 30 H        3.9260     2.2440     3.1950 H     1 <1>   0.0800 
 31 H        4.8080     3.3440    -1.5190 H     1 <1>   0.0800 
 32 H        5.1570     5.0490    -1.4740 H     1 <1>   0.0800 
 33 H        4.2930     4.3370    -0.1610 H     1 <1>   0.0800 
 34 H        5.9250     4.9710     1.6330 H     1 <1>   0.0800 
 35 H        6.6520     5.9530     0.3850 H     1 <1>   0.0800 
 36 H        7.6330     4.8530     1.3210 H     1 <1>   0.0800 
 37 H        7.3800     3.1900    -1.9820 H     1 <1>   0.0800 
 38 H        8.4870     3.8610    -0.8180 H     1 <1>   0.0800 
 39 H        7.4730     4.9200    -1.7540 H     1 <1>   0.0800 
@<TRIPOS>BOND
  1   1   2  1   
  2   2   3  ar  
  3   2   4  ar  
  4   3   5  1   
  5   3   6  ar  
  6   4   7  ar  
  7   4  22  1   
  8   5   8  2   
  9   5   9  1   
 10   6  10  ar  
 11   6  23  1   
 12   7  10  ar  
 13   7  24  1   
 14   8  11  1   
 15   9  12  2   
 16  10  25  1   
 17  11  12  1   
 18  12  13  1   
 19  13  14  1   
 20  13  15  1   
 21  13  26  1   
 22  14  16  am  
 23  14  27  1   
 24  15  28  1   
 25  15  29  1   
 26  15  30  1   
 27  16  17  2   
 28  16  18  1   
 29  18  19  1   
 30  18  20  1   
 31  18  21  1   
 32  19  31  1   
 33  19  32  1   
 34  19  33  1   
 35  20  34  1   
 36  20  35  1   
 37  20  36  1   
 38  21  37  1   
 39  21  38  1   
 40  21  39  1   
@<TRIPOS>SUBSTRUCTURE
  1 ****  12 GROUP 4 **** **** 0

# MOE 2024.06 (io_trps.svl 2023.06)
