@<TRIPOS>MOLECULE
1-Cyclopropyl-4-hydroxy-2-oxo-1,2,5,6,7,8-hexahydro-quinoline-3-carboxylic acid
42 45 1 0 0 
SMALL
USER_CHARGES


@<TRIPOS>ATOM
  1 O       -0.3810     0.4470    -0.8610 O.3   1 <1>  -0.8500 
  2 C       -1.3850     0.9960    -0.3920 C.2   1 <1>  -0.0500 
  3 N       -2.5550     0.2370    -0.3080 N.pl3 1 <1>  -0.3690 
  4 C       -1.3800     2.3590     0.0280 C.2   1 <1>   0.0290 
  5 C       -3.7860     0.8770    -0.1630 C.2   1 <1>  -0.0380 
  6 C       -2.4530    -1.2450    -0.4690 C.3   1 <1>   0.0690 
  7 C       -2.6120     2.9150     0.4320 C.2   1 <1>   0.5410 
  8 C       -0.1850     3.1330     0.0420 C.2   1 <1>   0.6160 
  9 C       -3.8240     2.1890     0.1840 C.2   1 <1>  -0.1240 
 10 C       -5.0630     0.0800    -0.4550 C.3   1 <1>  -0.0220 
 11 C       -2.9070    -2.1490     0.6430 C.3   1 <1>  -0.2000 
 12 C       -1.4540    -2.0100     0.3510 C.3   1 <1>  -0.2000 
 13 O       -2.7150     4.0050     1.0230 O.2   1 <1>  -0.5700 
 14 O       -0.1560     4.3640     0.0700 O.2   1 <1>  -0.5700 
 15 N        1.0300     2.4850    -0.0150 N.am  1 <1>  -0.5470 
 16 C       -5.1380     2.9620     0.3200 C.3   1 <1>  -0.0220 
 17 C       -6.3490     0.7960    -0.0210 C.3   1 <1>  -0.1600 
 18 C        2.3620     2.8870    -0.0110 C.ar  1 <1>   0.1170 
 19 C       -6.3030     2.2750    -0.3980 C.3   1 <1>  -0.1600 
 20 C        2.8120     4.1190     0.4290 C.ar  1 <1>  -0.1500 
 21 C        3.3390     2.0190    -0.4610 C.ar  1 <1>  -0.1500 
 22 C        4.1620     4.4100     0.3960 C.ar  1 <1>   0.1600 
 23 C        4.6640     2.4070    -0.4520 C.ar  1 <1>   0.1600 
 24 N        5.1070     3.5840    -0.0330 N.ar  1 <1>  -0.6200 
 25 H       -2.5480    -1.5390    -1.4990 H     1 <1>   0.1000 
 26 H       -5.0490    -0.8670     0.0440 H     1 <1>   0.0800 
 27 H       -5.0960    -0.1060    -1.5130 H     1 <1>   0.0800 
 28 H       -3.3900    -3.0750     0.3930 H     1 <1>   0.1000 
 29 H       -3.2820    -1.7040     1.5460 H     1 <1>   0.1000 
 30 H       -0.8180    -1.4240     0.9910 H     1 <1>   0.1000 
 31 H       -0.9240    -2.8040    -0.1400 H     1 <1>   0.1000 
 32 H        0.8230     1.5050    -0.3070 H     1 <1>   0.3700 
 33 H       -5.0210     3.9500    -0.0920 H     1 <1>   0.0800 
 34 H       -5.3630     3.0680     1.3670 H     1 <1>   0.0800 
 35 H       -6.4560     0.7080     1.0470 H     1 <1>   0.0800 
 36 H       -7.1970     0.3220    -0.4820 H     1 <1>   0.0800 
 37 H       -6.1690     2.3690    -1.4630 H     1 <1>   0.0800 
 38 H       -7.2270     2.7560    -0.1300 H     1 <1>   0.0800 
 39 H        2.1140     4.8460     0.7970 H     1 <1>   0.1500 
 40 H        3.0530     1.0460    -0.8160 H     1 <1>   0.1500 
 41 H        4.4840     5.3770     0.7420 H     1 <1>   0.1500 
 42 H        5.4040     1.7110    -0.8090 H     1 <1>   0.1500 
@<TRIPOS>BOND
  1   1   2  1   
  2   2   3  1   
  3   2   4  2   
  4   3   5  1   
  5   3   6  1   
  6   4   7  1   
  7   4   8  1   
  8   5   9  2   
  9   5  10  1   
 10   6  11  1   
 11   6  12  1   
 12   6  25  1   
 13   7   9  1   
 14   7  13  2   
 15   8  14  2   
 16   8  15  am  
 17   9  16  1   
 18  10  17  1   
 19  10  26  1   
 20  10  27  1   
 21  11  12  1   
 22  11  28  1   
 23  11  29  1   
 24  12  30  1   
 25  12  31  1   
 26  15  18  1   
 27  15  32  1   
 28  16  19  1   
 29  16  33  1   
 30  16  34  1   
 31  17  19  1   
 32  17  35  1   
 33  17  36  1   
 34  18  20  ar  
 35  18  21  ar  
 36  19  37  1   
 37  19  38  1   
 38  20  22  ar  
 39  20  39  1   
 40  21  23  ar  
 41  21  40  1   
 42  22  24  ar  
 43  22  41  1   
 44  23  24  ar  
 45  23  42  1   
@<TRIPOS>SUBSTRUCTURE
  1 ****   4 GROUP 4 **** **** 0

# MOE 2024.06 (io_trps.svl 2023.06)
