@<TRIPOS>MOLECULE
4-(2-Methyl-imidazol-1-yl)-butyric acid
23 23 1 0 0 
SMALL
USER_CHARGES


@<TRIPOS>ATOM
  1 O       -0.6100    -0.7790     0.0550 O.co2 1 <1>  -0.9000 
  2 C       -1.8200    -0.6330     0.2400 C.2   1 <1>   0.9060 
  3 O       -2.4450    -1.2030     1.1380 O.co2 1 <1>  -0.9000 
  4 C       -2.5790     0.2970    -0.6740 C.3   1 <1>  -0.2660 
  5 C       -2.7060     1.7090    -0.0780 C.3   1 <1>  -0.1600 
  6 C       -3.5470     2.6080    -0.9880 C.3   1 <1>   0.0960 
  7 N       -3.7120     3.9550    -0.4020 N.pl3 1 <1>   0.0480 
  8 C       -4.6440     4.3940     0.4820 C.2   1 <1>   0.0060 
  9 C       -2.9640     5.0400    -0.6740 C.2   1 <1>  -0.3020 
 10 N       -4.5370     5.6500     0.7710 N.2   1 <1>  -0.5650 
 11 C       -5.7120     3.5000     1.0810 C.3   1 <1>  -0.0600 
 12 C       -3.4790     6.0580     0.0470 C.2   1 <1>   0.0770 
 13 H       -3.5500    -0.1320    -0.8320 H     1 <1>   0.0800 
 14 H       -2.0610     0.3310    -1.6130 H     1 <1>   0.0800 
 15 H       -1.7210     2.1260     0.0460 H     1 <1>   0.0800 
 16 H       -3.1660     1.6310     0.8920 H     1 <1>   0.0800 
 17 H       -4.5180     2.1730    -1.1370 H     1 <1>   0.0800 
 18 H       -3.0680     2.7040    -1.9450 H     1 <1>   0.0800 
 19 H       -2.1270     5.0260    -1.3460 H     1 <1>   0.1500 
 20 H       -5.2550     2.6940     1.6260 H     1 <1>   0.0800 
 21 H       -6.3360     3.0990     0.3050 H     1 <1>   0.0800 
 22 H       -6.3230     4.0690     1.7570 H     1 <1>   0.0800 
 23 H       -3.1390     7.0780     0.0850 H     1 <1>   0.1500 
@<TRIPOS>BOND
  1   1   2  ar  
  2   2   3  ar  
  3   2   4  1   
  4   4   5  1   
  5   4  13  1   
  6   4  14  1   
  7   5   6  1   
  8   5  15  1   
  9   5  16  1   
 10   6   7  1   
 11   6  17  1   
 12   6  18  1   
 13   7   8  1   
 14   7   9  1   
 15   8  10  2   
 16   8  11  1   
 17   9  12  2   
 18   9  19  1   
 19  10  12  1   
 20  11  20  1   
 21  11  21  1   
 22  11  22  1   
 23  12  23  1   
@<TRIPOS>SUBSTRUCTURE
  1 ****   5 GROUP 4 **** **** 0

# MOE 2024.06 (io_trps.svl 2023.06)
