@<TRIPOS>MOLECULE
1-(2,6-Dimethyl-phenyl)-5-oxo-pyrrolidine-3-carboxylic acid (2-methoxy-phenyl)-a
47 49 1 0 0 
SMALL
USER_CHARGES


@<TRIPOS>ATOM
  1 O        1.0280    -0.8300     2.0750 O.2   1 <1>  -0.5700 
  2 C        1.7720    -0.6800     1.1380 C.2   1 <1>   0.5690 
  3 N        1.9190    -1.5130     0.0740 N.am  1 <1>  -0.4770 
  4 C        2.6550     0.5290     1.0170 C.3   1 <1>  -0.0990 
  5 C        1.3540    -2.7870    -0.0970 C.ar  1 <1>   0.1170 
  6 C        2.8860    -0.9930    -0.9030 C.3   1 <1>   0.1400 
  7 C        3.4820     0.2690    -0.2570 C.3   1 <1>  -0.0190 
  8 C        2.0480    -3.9290     0.3160 C.ar  1 <1>  -0.1440 
  9 C        0.1000    -2.9270    -0.6970 C.ar  1 <1>  -0.1440 
 10 C        4.9590     0.0770     0.0610 C.2   1 <1>   0.5690 
 11 C        1.5010    -5.1820     0.1010 C.ar  1 <1>  -0.1500 
 12 C        3.4020    -3.8260     1.0120 C.3   1 <1>  -0.0970 
 13 C       -0.4310    -4.1890    -0.9010 C.ar  1 <1>  -0.1500 
 14 C       -0.7070    -1.7070    -1.1230 C.3   1 <1>  -0.0960 
 15 O        5.3040    -0.9280     0.6320 O.2   1 <1>  -0.5700 
 16 N        5.8190     1.0680    -0.3190 N.am  1 <1>  -0.5470 
 17 C        0.2680    -5.3150    -0.5080 C.ar  1 <1>  -0.1500 
 18 C        7.2120     1.2350    -0.2080 C.ar  1 <1>   0.1170 
 19 C        7.7730     2.3930    -0.7590 C.ar  1 <1>   0.0820 
 20 C        8.0500     0.3180     0.4180 C.ar  1 <1>  -0.1500 
 21 O        6.9180     3.2720    -1.3660 O.3   1 <1>  -0.3630 
 22 C        9.1460     2.6110    -0.6770 C.ar  1 <1>  -0.1500 
 23 C        9.4130     0.5400     0.4970 C.ar  1 <1>  -0.1500 
 24 C        7.3940     4.4610    -1.9610 C.3   1 <1>   0.0400 
 25 C        9.9610     1.6850    -0.0510 C.ar  1 <1>  -0.1500 
 26 H        3.2710     0.6150     1.8940 H     1 <1>   0.0800 
 27 H        2.0420     1.4040     0.9150 H     1 <1>   0.0800 
 28 H        2.3680    -0.7500    -1.8140 H     1 <1>   0.0800 
 29 H        3.6370    -1.7360    -1.1130 H     1 <1>   0.0800 
 30 H        3.3740     1.0930    -0.9390 H     1 <1>   0.0800 
 31 H        2.0310    -6.0650     0.4110 H     1 <1>   0.1500 
 32 H        3.3620    -3.0930     1.7970 H     1 <1>   0.0800 
 33 H        4.1610    -3.5370     0.3090 H     1 <1>   0.0800 
 34 H        3.6830    -4.7660     1.4500 H     1 <1>   0.0800 
 35 H       -1.3950    -4.3060    -1.3650 H     1 <1>   0.1500 
 36 H       -0.1670    -1.1490    -1.8660 H     1 <1>   0.0800 
 37 H       -0.8840    -1.0760    -0.2700 H     1 <1>   0.0800 
 38 H       -1.6570    -1.9940    -1.5340 H     1 <1>   0.0800 
 39 H        5.4020     1.8730    -0.7890 H     1 <1>   0.3700 
 40 H       -0.1500    -6.2930    -0.6700 H     1 <1>   0.1500 
 41 H        7.6490    -0.5780     0.8530 H     1 <1>   0.1500 
 42 H        9.6030     3.4890    -1.0910 H     1 <1>   0.1500 
 43 H       10.0460    -0.1810     0.9850 H     1 <1>   0.1500 
 44 H        6.5550     4.9890    -2.3760 H     1 <1>   0.0800 
 45 H        8.0870     4.2070    -2.7440 H     1 <1>   0.0800 
 46 H        7.8680     5.0650    -1.2080 H     1 <1>   0.0800 
 47 H       11.0230     1.8550     0.0120 H     1 <1>   0.1500 
@<TRIPOS>BOND
  1   1   2  2   
  2   2   3  am  
  3   2   4  1   
  4   3   5  1   
  5   3   6  1   
  6   4   7  1   
  7   4  26  1   
  8   4  27  1   
  9   5   8  ar  
 10   5   9  ar  
 11   6   7  1   
 12   6  28  1   
 13   6  29  1   
 14   7  10  1   
 15   7  30  1   
 16   8  11  ar  
 17   8  12  1   
 18   9  13  ar  
 19   9  14  1   
 20  10  15  2   
 21  10  16  am  
 22  11  17  ar  
 23  11  31  1   
 24  12  32  1   
 25  12  33  1   
 26  12  34  1   
 27  13  17  ar  
 28  13  35  1   
 29  14  36  1   
 30  14  37  1   
 31  14  38  1   
 32  16  18  1   
 33  16  39  1   
 34  17  40  1   
 35  18  19  ar  
 36  18  20  ar  
 37  19  21  1   
 38  19  22  ar  
 39  20  23  ar  
 40  20  41  1   
 41  21  24  1   
 42  22  25  ar  
 43  22  42  1   
 44  23  25  ar  
 45  23  43  1   
 46  24  44  1   
 47  24  45  1   
 48  24  46  1   
 49  25  47  1   
@<TRIPOS>SUBSTRUCTURE
  1 ****  10 GROUP 4 **** **** 0

# MOE 2024.06 (io_trps.svl 2023.06)
