@<TRIPOS>MOLECULE
5-(4-Methoxycarbonyl-phenyl)-4,6-dioxo-1,3a,4,5,6,6a-hexahydro-pyrrolo[3,4-c]pyr
40 42 1 0 0 
SMALL
USER_CHARGES


@<TRIPOS>ATOM
  1 O        0.0640    -0.4370    -0.8040 O.2   1 <1>  -0.5700 
  2 C        0.3790    -1.5190    -0.3770 C.2   1 <1>   0.5690 
  3 N       -0.4350    -2.6120    -0.1440 N.am  1 <1>  -0.2370 
  4 C        1.7750    -1.9160     0.0540 C.3   1 <1>   0.2510 
  5 C       -1.8460    -2.6160    -0.1380 C.ar  1 <1>   0.1170 
  6 C        0.3840    -3.7010     0.1070 C.2   1 <1>   0.5690 
  7 N        3.1380    -1.5970    -0.3660 N.pl3 1 <1>  -0.5280 
  8 C        1.7680    -3.3600    -0.3590 C.3   1 <1>   0.0420 
  9 C       -2.5640    -3.7200    -0.5890 C.ar  1 <1>  -0.1500 
 10 C       -2.5700    -1.5180     0.3160 C.ar  1 <1>  -0.1500 
 11 O        0.0740    -4.7440     0.6170 O.2   1 <1>  -0.5700 
 12 N        3.9380    -2.6640    -0.1300 N.2   1 <1>  -0.5030 
 13 C        3.1960    -3.7260    -0.0180 C.2   1 <1>   0.3890 
 14 C       -3.9450    -3.7220    -0.5860 C.ar  1 <1>  -0.1500 
 15 C       -3.9520    -1.5240     0.3180 C.ar  1 <1>  -0.1500 
 16 C        3.5590    -5.0830     0.2790 C.2   1 <1>   0.7200 
 17 C       -4.6830    -2.6260    -0.1340 C.ar  1 <1>   0.0860 
 18 O        4.6370    -5.4360     0.7300 O.2   1 <1>  -0.5700 
 19 O        2.6460    -6.0330     0.0360 O.3   1 <1>  -0.4300 
 20 C       -6.1330    -2.6440    -0.1400 C.2   1 <1>   0.6340 
 21 C        2.8810    -7.3900     0.3390 C.3   1 <1>   0.1200 
 22 O       -6.7850    -3.5870    -0.5420 O.2   1 <1>  -0.5700 
 23 O       -6.7790    -1.5670     0.3210 O.3   1 <1>  -0.4300 
 24 C        1.6220    -8.1720    -0.0220 C.3   1 <1>  -0.2400 
 25 C       -8.1910    -1.5010     0.3490 C.3   1 <1>   0.0400 
 26 H        1.7760    -1.8450     1.1290 H     1 <1>   0.0800 
 27 H        3.4700    -0.6180    -0.3700 H     1 <1>   0.3110 
 28 H        1.7180    -3.4210    -1.4340 H     1 <1>   0.0800 
 29 H       -2.0430    -4.5920    -0.9450 H     1 <1>   0.1500 
 30 H       -2.0540    -0.6430     0.6720 H     1 <1>   0.1500 
 31 H       -4.4730    -4.5930    -0.9400 H     1 <1>   0.1500 
 32 H       -4.4760    -0.6540     0.6750 H     1 <1>   0.1500 
 33 H        3.0970    -7.4740     1.3910 H     1 <1>   0.0800 
 34 H        3.7270    -7.7300    -0.2340 H     1 <1>   0.0800 
 35 H        0.7830    -7.8020     0.5420 H     1 <1>   0.0800 
 36 H        1.7600    -9.2120     0.2130 H     1 <1>   0.0800 
 37 H        1.4160    -8.0820    -1.0730 H     1 <1>   0.0800 
 38 H       -8.4800    -0.5490     0.7570 H     1 <1>   0.0800 
 39 H       -8.5640    -2.2990     0.9680 H     1 <1>   0.0800 
 40 H       -8.5640    -1.6040    -0.6550 H     1 <1>   0.0800 
@<TRIPOS>BOND
  1   1   2  2   
  2   2   3  am  
  3   2   4  1   
  4   3   5  1   
  5   3   6  am  
  6   4   7  1   
  7   4   8  1   
  8   4  26  1   
  9   5   9  ar  
 10   5  10  ar  
 11   6   8  1   
 12   6  11  2   
 13   7  12  1   
 14   7  27  1   
 15   8  13  1   
 16   8  28  1   
 17   9  14  ar  
 18   9  29  1   
 19  10  15  ar  
 20  10  30  1   
 21  12  13  2   
 22  13  16  1   
 23  14  17  ar  
 24  14  31  1   
 25  15  17  ar  
 26  15  32  1   
 27  16  18  2   
 28  16  19  1   
 29  17  20  1   
 30  19  21  1   
 31  20  22  2   
 32  20  23  1   
 33  21  24  1   
 34  21  33  1   
 35  21  34  1   
 36  23  25  1   
 37  24  35  1   
 38  24  36  1   
 39  24  37  1   
 40  25  38  1   
 41  25  39  1   
 42  25  40  1   
@<TRIPOS>SUBSTRUCTURE
  1 ****   3 GROUP 4 **** **** 0

# MOE 2024.06 (io_trps.svl 2023.06)
