@<TRIPOS>MOLECULE
N-[5-(2-Ethoxy-ethyl)-[1,3,4]thiadiazol-2-yl]-benzenesulfonamide
35 36 1 0 0 
SMALL
USER_CHARGES


@<TRIPOS>ATOM
  1 S       -0.6300     1.0430    -0.9260 S.o2  1 <1>   1.4970 
  2 O       -1.0190     2.3210    -1.4890 O.2   1 <1>  -0.6500 
  3 O        0.0610     0.1060    -1.7850 O.2   1 <1>  -0.6500 
  4 N        0.3850     1.3590     0.3600 N.2   1 <1>  -0.6380 
  5 C       -2.0580     0.2370    -0.1450 C.ar  1 <1>  -0.0090 
  6 C        1.3830     2.0820     0.1040 C.2   1 <1>   0.6410 
  7 C       -2.0710    -1.1350     0.0810 C.ar  1 <1>  -0.1500 
  8 C       -3.1630     0.9740     0.2690 C.ar  1 <1>  -0.1500 
  9 S        2.5730     2.4320     1.3430 S.3   1 <1>  -0.2820 
 10 N        1.8180     2.7400    -1.0270 N.pl3 1 <1>  -0.4080 
 11 C       -3.1490    -1.7520     0.6930 C.ar  1 <1>  -0.1500 
 12 C       -4.2440     0.3650     0.8810 C.ar  1 <1>  -0.1500 
 13 C        3.5130     3.4040     0.2000 C.2   1 <1>   0.5300 
 14 N        2.9980     3.4680    -0.9590 N.2   1 <1>  -0.4920 
 15 C       -4.2380    -1.0010     1.0930 C.ar  1 <1>  -0.1500 
 16 C        4.7820     4.0240     0.7400 C.3   1 <1>  -0.0990 
 17 C        5.5050     4.8330    -0.3330 C.3   1 <1>   0.1200 
 18 O        6.6500     5.3660     0.2430 O.3   1 <1>  -0.5600 
 19 C        7.4120     6.1330    -0.6270 C.3   1 <1>   0.1200 
 20 C        8.6210     6.6400     0.1480 C.3   1 <1>  -0.2400 
 21 H       -1.2270    -1.7300    -0.2260 H     1 <1>   0.1500 
 22 H       -3.1790     2.0400     0.1110 H     1 <1>   0.1500 
 23 H        1.2310     2.7600    -1.8730 H     1 <1>   0.4000 
 24 H       -3.1390    -2.8170     0.8570 H     1 <1>   0.1500 
 25 H       -5.0900     0.9540     1.1930 H     1 <1>   0.1500 
 26 H       -5.0780    -1.4780     1.5690 H     1 <1>   0.1500 
 27 H        5.4280     3.2410     1.0910 H     1 <1>   0.0800 
 28 H        4.5300     4.6680     1.5620 H     1 <1>   0.0800 
 29 H        4.8840     5.6400    -0.6850 H     1 <1>   0.0800 
 30 H        5.7910     4.2020    -1.1580 H     1 <1>   0.0800 
 31 H        6.8140     6.9570    -0.9810 H     1 <1>   0.0800 
 32 H        7.7220     5.5180    -1.4550 H     1 <1>   0.0800 
 33 H        8.3000     7.2410     0.9800 H     1 <1>   0.0800 
 34 H        9.2390     7.2410    -0.4930 H     1 <1>   0.0800 
 35 H        9.2020     5.8100     0.5080 H     1 <1>   0.0800 
@<TRIPOS>BOND
  1   1   2  2   
  2   1   3  2   
  3   1   4  1   
  4   1   5  1   
  5   4   6  2   
  6   5   7  ar  
  7   5   8  ar  
  8   6   9  1   
  9   6  10  1   
 10   7  11  ar  
 11   7  21  1   
 12   8  12  ar  
 13   8  22  1   
 14   9  13  1   
 15  10  14  1   
 16  10  23  1   
 17  11  15  ar  
 18  11  24  1   
 19  12  15  ar  
 20  12  25  1   
 21  13  14  2   
 22  13  16  1   
 23  15  26  1   
 24  16  17  1   
 25  16  27  1   
 26  16  28  1   
 27  17  18  1   
 28  17  29  1   
 29  17  30  1   
 30  18  19  1   
 31  19  20  1   
 32  19  31  1   
 33  19  32  1   
 34  20  33  1   
 35  20  34  1   
 36  20  35  1   
@<TRIPOS>SUBSTRUCTURE
  1 ****   6 GROUP 4 **** **** 0

# MOE 2024.06 (io_trps.svl 2023.06)
