@<TRIPOS>MOLECULE
1-(5-p-Tolyl-1H-pyrazol-4-ylmethyl)-piperidine-4-carboxylic acid ethyl ester
50 52 1 0 0 
SMALL
USER_CHARGES


@<TRIPOS>ATOM
  1 O       -0.0080    -1.1290     3.3560 O.2   1 <1>  -0.5700 
  2 C        0.2830    -0.8040     2.2340 C.2   1 <1>   0.6590 
  3 O        0.2210     0.4490     1.8120 O.3   1 <1>  -0.4300 
  4 C        0.7440    -1.8350     1.2080 C.3   1 <1>  -0.0190 
  5 C       -0.1940     1.4920     2.6640 C.3   1 <1>   0.1200 
  6 C       -0.3490    -2.8910     0.9580 C.3   1 <1>  -0.1600 
  7 C        2.0490    -2.5180     1.6590 C.3   1 <1>  -0.1600 
  8 C       -0.1520     2.7950     1.8730 C.3   1 <1>  -0.2400 
  9 C        0.1250    -3.9960     0.0160 C.3   1 <1>   0.3430 
 10 C        2.4740    -3.6380     0.7120 C.3   1 <1>   0.3430 
 11 N        1.3600    -4.6220     0.5610 N.4   1 <1>  -0.9590 
 12 C        1.7720    -5.7950    -0.2550 C.3   1 <1>   0.5240 
 13 C        2.8000    -6.5890     0.5200 C.2   1 <1>  -0.1810 
 14 C        4.1860    -6.4500     0.3930 C.2   1 <1>   0.2350 
 15 C        2.6160    -7.5420     1.4590 C.2   1 <1>  -0.3020 
 16 N        4.8050    -7.2460     1.2210 N.2   1 <1>  -0.7070 
 17 C        4.8500    -5.5280    -0.5000 C.ar  1 <1>   0.0540 
 18 N        3.8430    -7.9270     1.8610 N.pl3 1 <1>   0.3000 
 19 C        5.7050    -4.5510     0.0030 C.ar  1 <1>  -0.1500 
 20 C        4.6380    -5.5610    -1.8760 C.ar  1 <1>  -0.1500 
 21 C        6.2850    -3.6110    -0.8280 C.ar  1 <1>  -0.1500 
 22 C        5.2170    -4.6230    -2.7110 C.ar  1 <1>  -0.1500 
 23 C        6.0370    -3.6360    -2.1900 C.ar  1 <1>  -0.1440 
 24 C        6.6800    -2.6080    -3.1040 C.3   1 <1>  -0.0970 
 25 H        0.9340    -1.3150     0.2840 H     1 <1>   0.0800 
 26 H        0.4730     1.5310     3.5090 H     1 <1>   0.0800 
 27 H       -1.1940     1.2780     3.0050 H     1 <1>   0.0800 
 28 H       -1.2140    -2.4130     0.5320 H     1 <1>   0.0800 
 29 H       -0.6560    -3.3310     1.8920 H     1 <1>   0.0800 
 30 H        1.9290    -2.9240     2.6500 H     1 <1>   0.0800 
 31 H        2.8360    -1.7860     1.7100 H     1 <1>   0.0800 
 32 H        0.8480     2.9920     1.5330 H     1 <1>   0.0800 
 33 H       -0.4660     3.6090     2.5010 H     1 <1>   0.0800 
 34 H       -0.8170     2.7400     1.0290 H     1 <1>   0.0800 
 35 H        0.3260    -3.5760    -0.9570 H     1 <1>   0.0800 
 36 H       -0.6530    -4.7350    -0.0860 H     1 <1>   0.0800 
 37 H        3.3460    -4.1240     1.1190 H     1 <1>   0.0800 
 38 H        2.7370    -3.2250    -0.2500 H     1 <1>   0.0800 
 39 H        1.1580    -4.9880     1.5000 H     1 <1>   0.4500 
 40 H        2.1770    -5.4730    -1.2000 H     1 <1>   0.0800 
 41 H        0.9200    -6.4260    -0.4460 H     1 <1>   0.0800 
 42 H        1.7160    -7.9690     1.8650 H     1 <1>   0.1500 
 43 H        4.0600    -8.6460     2.5660 H     1 <1>   0.2700 
 44 H        5.9190    -4.5380     1.0580 H     1 <1>   0.1500 
 45 H        4.0270    -6.3370    -2.3000 H     1 <1>   0.1500 
 46 H        6.9420    -2.8650    -0.4140 H     1 <1>   0.1500 
 47 H        5.0410    -4.6690    -3.7730 H     1 <1>   0.1500 
 48 H        7.6570    -2.9470    -3.4000 H     1 <1>   0.0800 
 49 H        6.7820    -1.6640    -2.5980 H     1 <1>   0.0800 
 50 H        6.0850    -2.4570    -3.9860 H     1 <1>   0.0800 
@<TRIPOS>BOND
  1   1   2  2   
  2   2   3  1   
  3   2   4  1   
  4   3   5  1   
  5   4   6  1   
  6   4   7  1   
  7   4  25  1   
  8   5   8  1   
  9   5  26  1   
 10   5  27  1   
 11   6   9  1   
 12   6  28  1   
 13   6  29  1   
 14   7  10  1   
 15   7  30  1   
 16   7  31  1   
 17   8  32  1   
 18   8  33  1   
 19   8  34  1   
 20   9  11  1   
 21   9  35  1   
 22   9  36  1   
 23  10  11  1   
 24  10  37  1   
 25  10  38  1   
 26  11  12  1   
 27  11  39  1   
 28  12  13  1   
 29  12  40  1   
 30  12  41  1   
 31  13  14  1   
 32  13  15  2   
 33  14  16  2   
 34  14  17  1   
 35  15  18  1   
 36  15  42  1   
 37  16  18  1   
 38  17  19  ar  
 39  17  20  ar  
 40  18  43  1   
 41  19  21  ar  
 42  19  44  1   
 43  20  22  ar  
 44  20  45  1   
 45  21  23  ar  
 46  21  46  1   
 47  22  23  ar  
 48  22  47  1   
 49  23  24  1   
 50  24  48  1   
 51  24  49  1   
 52  24  50  1   
@<TRIPOS>SUBSTRUCTURE
  1 ****  10 GROUP 4 **** **** 0

# MOE 2024.06 (io_trps.svl 2023.06)
