@<TRIPOS>MOLECULE
2,6-Dimethoxy-N-[2-(4-propionyl-piperazin-1-yl)-phenyl]-benzamide
56 58 1 0 0 
SMALL
USER_CHARGES


@<TRIPOS>ATOM
  1 O        0.2160     0.2800    -1.2270 O.2   1 <1>  -0.5700 
  2 C        0.9260     0.7990    -0.3830 C.2   1 <1>   0.5440 
  3 N        2.1180     0.2170    -0.0320 N.am  1 <1>  -0.5470 
  4 C        0.5400     2.0400     0.2420 C.ar  1 <1>   0.0860 
  5 C        2.7730    -0.9530    -0.4490 C.ar  1 <1>   0.1170 
  6 C       -0.5680     2.1020     1.0950 C.ar  1 <1>   0.0830 
  7 C        1.2590     3.2240     0.0200 C.ar  1 <1>   0.0830 
  8 C        4.1730    -0.9890    -0.3360 C.ar  1 <1>   0.1000 
  9 C        2.0940    -2.0620    -0.9330 C.ar  1 <1>  -0.1500 
 10 O       -1.2740     0.9930     1.3870 O.3   1 <1>  -0.3630 
 11 C       -0.9530     3.2890     1.6950 C.ar  1 <1>  -0.1500 
 12 O        2.3410     3.1650    -0.7980 O.3   1 <1>  -0.3620 
 13 C        0.8630     4.4150     0.6250 C.ar  1 <1>  -0.1500 
 14 N        4.8750     0.1380     0.1390 N.pl3 1 <1>  -0.8380 
 15 C        4.8460    -2.1430    -0.7200 C.ar  1 <1>  -0.1500 
 16 C        2.7800    -3.2040    -1.3100 C.ar  1 <1>  -0.1500 
 17 C       -2.4240     0.7470     0.6100 C.3   1 <1>   0.0400 
 18 C       -0.2400     4.4480     1.4580 C.ar  1 <1>  -0.1500 
 19 C        3.0240     4.3200    -1.2390 C.3   1 <1>   0.0400 
 20 C        5.0180     1.2910    -0.8070 C.3   1 <1>   0.2090 
 21 C        5.9920    -0.0150     1.1250 C.3   1 <1>   0.2090 
 22 C        4.1580    -3.2440    -1.2030 C.ar  1 <1>  -0.1500 
 23 C        6.4110     1.3370    -1.4470 C.3   1 <1>   0.1400 
 24 C        7.3900     0.1260     0.4860 C.3   1 <1>   0.1400 
 25 N        7.4740     1.3320    -0.3950 N.am  1 <1>  -0.6600 
 26 C        8.3020     2.4100    -0.2150 C.2   1 <1>   0.5690 
 27 O        8.1750     3.4160    -0.8740 O.2   1 <1>  -0.5700 
 28 C        9.4030     2.3600     0.8430 C.3   1 <1>  -0.0990 
 29 C       10.3860     3.5450     0.8130 C.3   1 <1>  -0.2400 
 30 H        2.7640     0.8190     0.4820 H     1 <1>   0.3700 
 31 H        1.0220    -2.0370    -1.0130 H     1 <1>   0.1500 
 32 H       -1.8050     3.2980     2.3510 H     1 <1>   0.1500 
 33 H        1.4010     5.3300     0.4650 H     1 <1>   0.1500 
 34 H        5.9140    -2.1840    -0.6520 H     1 <1>   0.1500 
 35 H        2.2390    -4.0550    -1.6840 H     1 <1>   0.1500 
 36 H       -2.8420    -0.1940     0.9170 H     1 <1>   0.0800 
 37 H       -2.1460     0.7010    -0.4280 H     1 <1>   0.0800 
 38 H       -3.1320     1.5400     0.7720 H     1 <1>   0.0800 
 39 H       -0.5410     5.3700     1.9250 H     1 <1>   0.1500 
 40 H        3.4870     4.7980    -0.3930 H     1 <1>   0.0800 
 41 H        2.3230     4.9790    -1.7200 H     1 <1>   0.0800 
 42 H        3.7780     4.0170    -1.9420 H     1 <1>   0.0800 
 43 H        4.8480     2.2080    -0.2710 H     1 <1>   0.0800 
 44 H        4.2740     1.2200    -1.5830 H     1 <1>   0.0800 
 45 H        5.9120    -0.9720     1.6120 H     1 <1>   0.0800 
 46 H        5.8800     0.7410     1.8830 H     1 <1>   0.0800 
 47 H        4.6940    -4.1290    -1.4970 H     1 <1>   0.1500 
 48 H        6.4870     2.2150    -2.0650 H     1 <1>   0.0800 
 49 H        6.5340     0.4790    -2.0830 H     1 <1>   0.0800 
 50 H        7.5940    -0.7470    -0.1070 H     1 <1>   0.0800 
 51 H        8.1240     0.1630     1.2680 H     1 <1>   0.0800 
 52 H        9.9640     1.4550     0.7030 H     1 <1>   0.0800 
 53 H        8.9370     2.3260     1.8110 H     1 <1>   0.0800 
 54 H       10.8710     3.5990    -0.1460 H     1 <1>   0.0800 
 55 H       11.1350     3.4300     1.5750 H     1 <1>   0.0800 
 56 H        9.8590     4.4680     0.9810 H     1 <1>   0.0800 
@<TRIPOS>BOND
  1   1   2  2   
  2   2   3  am  
  3   2   4  1   
  4   3   5  1   
  5   3  30  1   
  6   4   6  ar  
  7   4   7  ar  
  8   5   8  ar  
  9   5   9  ar  
 10   6  10  1   
 11   6  11  ar  
 12   7  12  1   
 13   7  13  ar  
 14   8  14  1   
 15   8  15  ar  
 16   9  16  ar  
 17   9  31  1   
 18  10  17  1   
 19  11  18  ar  
 20  11  32  1   
 21  12  19  1   
 22  13  18  ar  
 23  13  33  1   
 24  14  20  1   
 25  14  21  1   
 26  15  22  ar  
 27  15  34  1   
 28  16  22  ar  
 29  16  35  1   
 30  17  36  1   
 31  17  37  1   
 32  17  38  1   
 33  18  39  1   
 34  19  40  1   
 35  19  41  1   
 36  19  42  1   
 37  20  23  1   
 38  20  43  1   
 39  20  44  1   
 40  21  24  1   
 41  21  45  1   
 42  21  46  1   
 43  22  47  1   
 44  23  25  1   
 45  23  48  1   
 46  23  49  1   
 47  24  25  1   
 48  24  50  1   
 49  24  51  1   
 50  25  26  am  
 51  26  27  2   
 52  26  28  1   
 53  28  29  1   
 54  28  52  1   
 55  28  53  1   
 56  29  54  1   
 57  29  55  1   
 58  29  56  1   
@<TRIPOS>SUBSTRUCTURE
  1 ****   3 GROUP 4 **** **** 0

# MOE 2024.06 (io_trps.svl 2023.06)
