@<TRIPOS>MOLECULE
5-Oxo-1-(toluene-4-sulfonyl)-pyrrolidine-2-carboxylic acid (5,6,7,8-tetrahydro-n
53 56 1 0 0 
SMALL
USER_CHARGES


@<TRIPOS>ATOM
  1 S        1.1480     0.9180    -1.5000 S.o2  1 <1>   1.4470 
  2 O        2.5600     0.9390    -1.8150 O.2   1 <1>  -0.6500 
  3 O        0.2360     1.6480    -2.3460 O.2   1 <1>  -0.6500 
  4 N        1.0680     1.6780     0.0370 N.am  1 <1>  -0.7300 
  5 C        0.6170    -0.7870    -1.1870 C.ar  1 <1>  -0.0090 
  6 C       -0.0860     1.8250     0.6900 C.2   1 <1>   0.7450 
  7 C        2.0850     2.6760     0.4290 C.3   1 <1>   0.3370 
  8 C        1.4680    -1.6960    -0.5680 C.ar  1 <1>  -0.1500 
  9 C       -0.6530    -1.2260    -1.5400 C.ar  1 <1>  -0.1500 
 10 O       -1.0850     1.1800     0.5130 O.2   1 <1>  -0.5700 
 11 C        0.0010     2.9470     1.6860 C.3   1 <1>  -0.0990 
 12 C        3.2470     2.0220     1.2170 C.2   1 <1>   0.5690 
 13 C        1.2540     3.7070     1.2270 C.3   1 <1>  -0.1600 
 14 C        1.0700    -2.9980    -0.3210 C.ar  1 <1>  -0.1500 
 15 C       -1.0570    -2.5270    -1.2960 C.ar  1 <1>  -0.1500 
 16 O        3.4270     2.3320     2.3710 O.2   1 <1>  -0.5700 
 17 N        4.0270     1.1030     0.5600 N.am  1 <1>  -0.5470 
 18 C       -0.1960    -3.4210    -0.6840 C.ar  1 <1>  -0.1430 
 19 C        5.0900     0.2750     0.9690 C.ar  1 <1>   0.1170 
 20 C       -0.6340    -4.8490    -0.4140 C.3   1 <1>  -0.0970 
 21 C        5.8970    -0.3400     0.0030 C.ar  1 <1>  -0.1430 
 22 C        5.3450     0.0260     2.3140 C.ar  1 <1>  -0.1500 
 23 C        6.9310    -1.1880     0.3990 C.ar  1 <1>  -0.1430 
 24 C        5.6290    -0.0940    -1.4870 C.3   1 <1>  -0.0170 
 25 C        6.3740    -0.8070     2.7020 C.ar  1 <1>  -0.1500 
 26 C        7.1640    -1.4120     1.7460 C.ar  1 <1>  -0.1500 
 27 C        7.8490    -1.8860    -0.5980 C.3   1 <1>  -0.0170 
 28 C        6.7780    -0.5260    -2.4040 C.3   1 <1>  -0.1600 
 29 C        7.2710    -1.9190    -2.0150 C.3   1 <1>  -0.1600 
 30 H        2.4940     3.1540    -0.4450 H     1 <1>   0.0800 
 31 H        2.4570    -1.3880    -0.2730 H     1 <1>   0.1500 
 32 H       -1.3390    -0.5380    -2.0070 H     1 <1>   0.1500 
 33 H        0.1360     2.5320     2.6680 H     1 <1>   0.0800 
 34 H       -0.8810     3.5600     1.6570 H     1 <1>   0.0800 
 35 H        0.9640     4.4970     0.5570 H     1 <1>   0.0800 
 36 H        1.7900     4.1500     2.0490 H     1 <1>   0.0800 
 37 H        1.7520    -3.6800     0.1570 H     1 <1>   0.1500 
 38 H       -2.0470    -2.8370    -1.5820 H     1 <1>   0.1500 
 39 H        3.7870     0.9840    -0.4320 H     1 <1>   0.3700 
 40 H       -0.1830    -5.2140     0.4910 H     1 <1>   0.0800 
 41 H       -0.3350    -5.4820    -1.2310 H     1 <1>   0.0800 
 42 H       -1.7020    -4.9030    -0.3060 H     1 <1>   0.0800 
 43 H        4.7390     0.4770     3.0760 H     1 <1>   0.1500 
 44 H        5.4410     0.9510    -1.6640 H     1 <1>   0.0800 
 45 H        4.7470    -0.6430    -1.7640 H     1 <1>   0.0800 
 46 H        6.5580    -0.9840     3.7470 H     1 <1>   0.1500 
 47 H        7.9660    -2.0590     2.0570 H     1 <1>   0.1500 
 48 H        8.0380    -2.8950    -0.2740 H     1 <1>   0.0800 
 49 H        8.7890    -1.3630    -0.6130 H     1 <1>   0.0800 
 50 H        7.5880     0.1780    -2.3180 H     1 <1>   0.0800 
 51 H        6.4410    -0.5250    -3.4260 H     1 <1>   0.0800 
 52 H        6.4520    -2.6160    -2.0530 H     1 <1>   0.0800 
 53 H        8.0270    -2.2500    -2.7060 H     1 <1>   0.0800 
@<TRIPOS>BOND
  1   1   2  2   
  2   1   3  2   
  3   1   4  am  
  4   1   5  1   
  5   4   6  am  
  6   4   7  1   
  7   5   8  ar  
  8   5   9  ar  
  9   6  10  2   
 10   6  11  1   
 11   7  12  1   
 12   7  13  1   
 13   7  30  1   
 14   8  14  ar  
 15   8  31  1   
 16   9  15  ar  
 17   9  32  1   
 18  11  13  1   
 19  11  33  1   
 20  11  34  1   
 21  12  16  2   
 22  12  17  am  
 23  13  35  1   
 24  13  36  1   
 25  14  18  ar  
 26  14  37  1   
 27  15  18  ar  
 28  15  38  1   
 29  17  19  1   
 30  17  39  1   
 31  18  20  1   
 32  19  21  ar  
 33  19  22  ar  
 34  20  40  1   
 35  20  41  1   
 36  20  42  1   
 37  21  23  ar  
 38  21  24  1   
 39  22  25  ar  
 40  22  43  1   
 41  23  26  ar  
 42  23  27  1   
 43  24  28  1   
 44  24  44  1   
 45  24  45  1   
 46  25  26  ar  
 47  25  46  1   
 48  26  47  1   
 49  27  29  1   
 50  27  48  1   
 51  27  49  1   
 52  28  29  1   
 53  28  50  1   
 54  28  51  1   
 55  29  52  1   
 56  29  53  1   
@<TRIPOS>SUBSTRUCTURE
  1 ****  17 GROUP 4 **** **** 0

# MOE 2024.06 (io_trps.svl 2023.06)
