@<TRIPOS>MOLECULE
8-(3,5-Dimethyl-piperidin-1-ylmethyl)-7-ethyl-1,3-dimethyl-3,7-dihydro-purine-2,
52 54 1 0 0 
SMALL
USER_CHARGES


@<TRIPOS>ATOM
  1 O        0.2790     0.6210     0.8970 O.2   1 <1>  -0.5700 
  2 C        1.3620     1.1450     0.7320 C.2   1 <1>   0.6900 
  3 N        1.4380     2.4280     0.2010 N.am  1 <1>  -0.4200 
  4 N        2.5200     0.4590     1.0650 N.am  1 <1>  -0.4360 
  5 C        2.6640     3.0260    -0.0660 C.2   1 <1>   0.7030 
  6 C        0.1690     3.1520    -0.1240 C.3   1 <1>   0.0600 
  7 C        3.7330     1.0630     0.7980 C.2   1 <1>   0.4260 
  8 C        2.4590    -0.9090     1.6610 C.3   1 <1>   0.0600 
  9 O        2.7150     4.1390    -0.5620 O.2   1 <1>  -0.5700 
 10 C        3.8590     2.2970     0.2540 C.2   1 <1>   0.2770 
 11 N        4.9760     0.5650     1.0050 N.pl3 1 <1>  -0.7000 
 12 N        5.2340     2.5430     0.1330 N.pl3 1 <1>  -0.7640 
 13 C        5.8610     1.4660     0.5960 C.cat 1 <1>   0.6560 
 14 C        5.8060     3.7890    -0.4370 C.3   1 <1>   0.3540 
 15 C        7.3750     1.2110     0.6740 C.3   1 <1>   0.2540 
 16 C        5.8660     3.6550    -1.9540 C.3   1 <1>  -0.2400 
 17 N        7.6980    -0.2420     0.6780 N.3   1 <1>  -0.8100 
 18 C        7.4850    -0.8490    -0.6640 C.3   1 <1>   0.1100 
 19 C        9.0360    -0.5170     1.2640 C.3   1 <1>   0.1100 
 20 C        8.2840    -2.1480    -0.8350 C.3   1 <1>  -0.0800 
 21 C       10.1180    -0.6740     0.1830 C.3   1 <1>  -0.0800 
 22 C        9.7980    -1.8720    -0.7340 C.3   1 <1>  -0.1600 
 23 C        7.9460    -2.8380    -2.1630 C.3   1 <1>  -0.2400 
 24 C       11.5090    -0.8290     0.8100 C.3   1 <1>  -0.2400 
 25 H       -0.1900     2.8350    -1.0880 H     1 <1>   0.0800 
 26 H        0.3230     4.2170    -0.1400 H     1 <1>   0.0800 
 27 H       -0.5840     2.9350     0.6150 H     1 <1>   0.0800 
 28 H        1.4990    -1.0840     2.1160 H     1 <1>   0.0800 
 29 H        3.2130    -1.0190     2.4210 H     1 <1>   0.0800 
 30 H        2.6140    -1.6470     0.8930 H     1 <1>   0.0800 
 31 H        5.2660    -0.3470     1.3700 H     1 <1>   0.4500 
 32 H        6.7960     3.9550    -0.0450 H     1 <1>   0.0800 
 33 H        5.1960     4.6350    -0.1630 H     1 <1>   0.0800 
 34 H        7.7230     1.6570     1.5890 H     1 <1>   0.0800 
 35 H        7.8760     1.6950    -0.1450 H     1 <1>   0.0800 
 36 H        6.4770     2.8190    -2.2410 H     1 <1>   0.0800 
 37 H        6.2930     4.5480    -2.3760 H     1 <1>   0.0800 
 38 H        4.8780     3.5360    -2.3600 H     1 <1>   0.0800 
 39 H        7.7960    -0.1640    -1.4350 H     1 <1>   0.0800 
 40 H        6.4370    -1.0540    -0.8020 H     1 <1>   0.0800 
 41 H        8.9800    -1.4370     1.8220 H     1 <1>   0.0800 
 42 H        9.3170     0.2560     1.9590 H     1 <1>   0.0800 
 43 H        7.9970    -2.8140    -0.0380 H     1 <1>   0.0800 
 44 H       10.1260     0.2250    -0.4090 H     1 <1>   0.0800 
 45 H       10.2090    -1.6690    -1.7080 H     1 <1>   0.0800 
 46 H       10.2740    -2.7640    -0.3650 H     1 <1>   0.0800 
 47 H        8.1910    -2.2030    -2.9970 H     1 <1>   0.0800 
 48 H        6.8980    -3.0760    -2.2080 H     1 <1>   0.0800 
 49 H        8.5040    -3.7540    -2.2560 H     1 <1>   0.0800 
 50 H       11.5490    -1.7020     1.4380 H     1 <1>   0.0800 
 51 H       11.7520     0.0330     1.4060 H     1 <1>   0.0800 
 52 H       12.2540    -0.9280     0.0400 H     1 <1>   0.0800 
@<TRIPOS>BOND
  1   1   2  2   
  2   2   3  am  
  3   2   4  am  
  4   3   5  am  
  5   3   6  1   
  6   4   7  1   
  7   4   8  1   
  8   5   9  2   
  9   5  10  1   
 10   6  25  1   
 11   6  26  1   
 12   6  27  1   
 13   7  10  2   
 14   7  11  1   
 15   8  28  1   
 16   8  29  1   
 17   8  30  1   
 18  10  12  1   
 19  11  13  ar  
 20  11  31  1   
 21  12  13  ar  
 22  12  14  1   
 23  13  15  1   
 24  14  16  1   
 25  14  32  1   
 26  14  33  1   
 27  15  17  1   
 28  15  34  1   
 29  15  35  1   
 30  16  36  1   
 31  16  37  1   
 32  16  38  1   
 33  17  18  1   
 34  17  19  1   
 35  18  20  1   
 36  18  39  1   
 37  18  40  1   
 38  19  21  1   
 39  19  41  1   
 40  19  42  1   
 41  20  22  1   
 42  20  23  1   
 43  20  43  1   
 44  21  22  1   
 45  21  24  1   
 46  21  44  1   
 47  22  45  1   
 48  22  46  1   
 49  23  47  1   
 50  23  48  1   
 51  23  49  1   
 52  24  50  1   
 53  24  51  1   
 54  24  52  1   
@<TRIPOS>SUBSTRUCTURE
  1 ****  13 GROUP 4 **** **** 0

# MOE 2024.06 (io_trps.svl 2023.06)
