@<TRIPOS>MOLECULE
2-(4-Chloro-3,5-dimethyl-phenoxy)-N-(2-ethyl-2H-tetrazol-5-yl)-acetamide
37 38 1 0 0 
SMALL
USER_CHARGES


@<TRIPOS>ATOM
  1 CL      -1.0430    -0.1490     0.8270 Cl    1 <1>  -0.1770 
  2 C       -2.5430     0.7030     0.5120 C.ar  1 <1>   0.1770 
  3 C       -3.7160     0.2480     1.1000 C.ar  1 <1>  -0.1440 
  4 C       -2.5280     1.8170    -0.3190 C.ar  1 <1>  -0.1440 
  5 C       -4.8940     0.9300     0.8430 C.ar  1 <1>  -0.1500 
  6 C       -3.7210    -0.9730     2.0080 C.3   1 <1>  -0.0960 
  7 C       -3.7180     2.4850    -0.5640 C.ar  1 <1>  -0.1500 
  8 C       -1.2330     2.3020    -0.9550 C.3   1 <1>  -0.0960 
  9 C       -4.9050     2.0430     0.0170 C.ar  1 <1>   0.0830 
 10 O       -6.1060     2.6430    -0.1740 O.3   1 <1>  -0.3630 
 11 C       -6.2330     3.7920    -1.0040 C.3   1 <1>   0.1810 
 12 C       -7.6750     4.2770    -1.0590 C.2   1 <1>   0.5690 
 13 O       -7.9150     5.2460    -1.7360 O.2   1 <1>  -0.5700 
 14 N       -8.6120     3.5960    -0.3480 N.am  1 <1>  -0.4930 
 15 C       -9.9730     3.7980    -0.2050 C.2   1 <1>   0.5790 
 16 N      -10.6810     4.7690    -0.7770 N.2   1 <1>  -0.2270 
 17 N      -10.6530     3.0050     0.5310 N.2   1 <1>  -0.7070 
 18 N      -11.8840     4.5970    -0.3890 N.2   1 <1>  -0.4180 
 19 N      -11.8560     3.5360     0.3990 N.pl3 1 <1>   0.5800 
 20 C      -13.0560     2.9880     1.0660 C.3   1 <1>   0.0960 
 21 C      -13.1990     3.5180     2.5010 C.3   1 <1>  -0.2400 
 22 H       -5.8190     0.6030     1.2820 H     1 <1>   0.1500 
 23 H       -3.0760    -0.8050     2.8520 H     1 <1>   0.0800 
 24 H       -3.3690    -1.8340     1.4690 H     1 <1>   0.0800 
 25 H       -4.7110    -1.1810     2.3720 H     1 <1>   0.0800 
 26 H       -3.7020     3.3450    -1.2060 H     1 <1>   0.1500 
 27 H       -0.8140     1.5270    -1.5730 H     1 <1>   0.0800 
 28 H       -0.5210     2.5550    -0.1890 H     1 <1>   0.0800 
 29 H       -1.3980     3.1710    -1.5660 H     1 <1>   0.0800 
 30 H       -5.9090     3.5340    -1.9950 H     1 <1>   0.0800 
 31 H       -5.6130     4.5720    -0.6030 H     1 <1>   0.0800 
 32 H       -8.2790     2.7950     0.1820 H     1 <1>   0.3700 
 33 H      -12.9730     1.9170     1.0740 H     1 <1>   0.0800 
 34 H      -13.9170     3.2620     0.4840 H     1 <1>   0.0800 
 35 H      -12.3420     3.2370     3.0890 H     1 <1>   0.0800 
 36 H      -14.0780     3.1020     2.9580 H     1 <1>   0.0800 
 37 H      -13.2900     4.5900     2.4950 H     1 <1>   0.0800 
@<TRIPOS>BOND
  1   1   2  1   
  2   2   3  ar  
  3   2   4  ar  
  4   3   5  ar  
  5   3   6  1   
  6   4   7  ar  
  7   4   8  1   
  8   5   9  ar  
  9   5  22  1   
 10   6  23  1   
 11   6  24  1   
 12   6  25  1   
 13   7   9  ar  
 14   7  26  1   
 15   8  27  1   
 16   8  28  1   
 17   8  29  1   
 18   9  10  1   
 19  10  11  1   
 20  11  12  1   
 21  11  30  1   
 22  11  31  1   
 23  12  13  2   
 24  12  14  am  
 25  14  15  1   
 26  14  32  1   
 27  15  16  1   
 28  15  17  2   
 29  16  18  2   
 30  17  19  1   
 31  18  19  1   
 32  19  20  1   
 33  20  21  1   
 34  20  33  1   
 35  20  34  1   
 36  21  35  1   
 37  21  36  1   
 38  21  37  1   
@<TRIPOS>SUBSTRUCTURE
  1 ****  10 GROUP 4 **** **** 0

# MOE 2024.06 (io_trps.svl 2023.06)
