@<TRIPOS>MOLECULE
8-(3-Methoxy-propyl)-1,6,7-trimethyl-3-(2-oxo-propyl)-1H,8H-imidazo[2,1-f]purine
50 52 1 0 0 
SMALL
USER_CHARGES


@<TRIPOS>ATOM
  1 O        1.1630    -0.3030    -1.3190 O.2   1 <1>  -0.5750 
  2 C        2.0420     0.4880    -1.0480 C.2   1 <1>   0.6860 
  3 N        1.7760     1.8500    -1.0800 N.am  1 <1>  -0.4260 
  4 N        3.3070     0.0320    -0.6980 N.am  1 <1>  -0.4420 
  5 C        2.7660     2.7840    -0.8200 C.2   1 <1>   0.6990 
  6 C        0.3600     2.2850    -0.8710 C.3   1 <1>   0.1940 
  7 C        4.2510     0.9670    -0.3230 C.2   1 <1>   0.4210 
  8 C        3.6000    -1.4310    -0.6500 C.3   1 <1>   0.0520 
  9 O        2.5400     3.9730    -0.9740 O.2   1 <1>  -0.5750 
 10 C        4.0340     2.3050    -0.3770 C.2   1 <1>   0.2710 
 11 C        0.0390     2.3440     0.6220 C.2   1 <1>   0.4430 
 12 N        5.5120     0.7320     0.1430 N.pl3 1 <1>  -0.7040 
 13 N        5.2200     2.9140     0.0660 N.pl3 1 <1>  -0.6330 
 14 O        0.8840     2.1840     1.4570 O.2   1 <1>  -0.5750 
 15 C       -1.3980     2.6200     1.0050 C.3   1 <1>  -0.1860 
 16 C        6.0570     1.9330     0.3680 C.cat 1 <1>   1.0690 
 17 C        5.8810     4.0960     0.3270 C.2   1 <1>   0.2340 
 18 N        7.2320     2.3960     0.8090 N.pl3 1 <1>  -0.5720 
 19 C        7.1180     3.7780     0.7810 C.2   1 <1>   0.1580 
 20 C        5.1960     5.4290     0.0930 C.3   1 <1>  -0.1090 
 21 C        8.3950     1.5760     1.2280 C.3   1 <1>   0.1600 
 22 C        8.2600     4.6840     1.2110 C.3   1 <1>  -0.1090 
 23 C        9.0010     0.8860     0.0060 C.3   1 <1>  -0.1670 
 24 C       10.0380    -0.1570     0.4210 C.3   1 <1>   0.1120 
 25 O       10.1710    -1.0630    -0.6210 O.3   1 <1>  -0.5650 
 26 C       11.1460    -0.7400    -1.5640 C.3   1 <1>   0.0320 
 27 H       -0.3150     1.6010    -1.3550 H     1 <1>   0.0720 
 28 H        0.2060     3.2560    -1.3070 H     1 <1>   0.0720 
 29 H        2.9520    -1.9670    -1.3230 H     1 <1>   0.0720 
 30 H        3.4380    -1.7990     0.3480 H     1 <1>   0.0720 
 31 H        4.6170    -1.6220    -0.9440 H     1 <1>   0.0720 
 32 H        5.9770    -0.1620     0.2870 H     1 <1>   0.4450 
 33 H       -2.0360     1.8460     0.6210 H     1 <1>   0.0720 
 34 H       -1.7100     3.5690     0.6100 H     1 <1>   0.0720 
 35 H       -1.4900     2.6440     2.0760 H     1 <1>   0.0720 
 36 H        4.3050     5.4930     0.6910 H     1 <1>   0.0720 
 37 H        4.9210     5.5230    -0.9430 H     1 <1>   0.0720 
 38 H        5.8420     6.2470     0.3520 H     1 <1>   0.0720 
 39 H        8.0630     0.8380     1.9400 H     1 <1>   0.0720 
 40 H        9.1360     2.1910     1.7090 H     1 <1>   0.0720 
 41 H        9.1300     4.4930     0.6070 H     1 <1>   0.0720 
 42 H        8.5050     4.5060     2.2430 H     1 <1>   0.0720 
 43 H        7.9930     5.7190     1.1000 H     1 <1>   0.0720 
 44 H        9.4670     1.6190    -0.6300 H     1 <1>   0.0720 
 45 H        8.2300     0.3810    -0.5480 H     1 <1>   0.0720 
 46 H        9.6910    -0.7200     1.2710 H     1 <1>   0.0720 
 47 H       10.9930     0.2820     0.6600 H     1 <1>   0.0720 
 48 H       11.1430    -1.5030    -2.3220 H     1 <1>   0.0720 
 49 H       12.1090    -0.7140    -1.0840 H     1 <1>   0.0720 
 50 H       10.9170     0.2130    -2.0080 H     1 <1>   0.0720 
@<TRIPOS>BOND
  1   1   2  2   
  2   2   3  am  
  3   2   4  am  
  4   3   5  am  
  5   3   6  1   
  6   4   7  1   
  7   4   8  1   
  8   5   9  2   
  9   5  10  1   
 10   6  11  1   
 11   6  27  1   
 12   6  28  1   
 13   7  10  2   
 14   7  12  1   
 15   8  29  1   
 16   8  30  1   
 17   8  31  1   
 18  10  13  1   
 19  11  14  2   
 20  11  15  1   
 21  12  16  ar  
 22  12  32  1   
 23  13  16  ar  
 24  13  17  1   
 25  15  33  1   
 26  15  34  1   
 27  15  35  1   
 28  16  18  ar  
 29  17  19  2   
 30  17  20  1   
 31  18  19  1   
 32  18  21  1   
 33  19  22  1   
 34  20  36  1   
 35  20  37  1   
 36  20  38  1   
 37  21  23  1   
 38  21  39  1   
 39  21  40  1   
 40  22  41  1   
 41  22  42  1   
 42  22  43  1   
 43  23  24  1   
 44  23  44  1   
 45  23  45  1   
 46  24  25  1   
 47  24  46  1   
 48  24  47  1   
 49  25  26  1   
 50  26  48  1   
 51  26  49  1   
 52  26  50  1   
@<TRIPOS>SUBSTRUCTURE
  1 ****  10 GROUP 4 **** **** 0

# MOE 2024.06 (io_trps.svl 2023.06)
