@<TRIPOS>MOLECULE
3-Chloro-4-methoxy-N-(tetrahydro-furan-2-ylmethyl)-benzenesulfonamide
35 36 1 0 0 
SMALL
USER_CHARGES


@<TRIPOS>ATOM
  1 CL      -0.0440    -0.3180     1.2580 Cl    1 <1>  -0.1770 
  2 C        1.4580    -0.8860     0.5610 C.ar  1 <1>   0.1770 
  3 C        1.7060    -2.2480     0.4400 C.ar  1 <1>   0.0830 
  4 C        2.3770     0.0550     0.1390 C.ar  1 <1>  -0.1500 
  5 O        0.7600    -3.1210     0.8730 O.3   1 <1>  -0.3630 
  6 C        2.9160    -2.6490    -0.1210 C.ar  1 <1>  -0.1500 
  7 C        3.5870    -0.3360    -0.4220 C.ar  1 <1>  -0.0090 
  8 C        0.9360    -4.5180     0.7800 C.3   1 <1>   0.0400 
  9 C        3.8350    -1.7000    -0.5420 C.ar  1 <1>  -0.1500 
 10 S        4.7940     0.9000    -0.9730 S.o2  1 <1>   1.4470 
 11 O        6.0150     0.2530    -1.3930 O.2   1 <1>  -0.6500 
 12 O        4.1480     1.8530    -1.8480 O.2   1 <1>  -0.6500 
 13 N        5.1750     1.7140     0.4430 N.am  1 <1>  -0.9140 
 14 C        5.7750     3.0300     0.2350 C.3   1 <1>   0.1960 
 15 C        7.2560     2.8950    -0.1640 C.3   1 <1>   0.2000 
 16 O        7.8860     1.9980     0.6950 O.3   1 <1>  -0.5600 
 17 C        8.0750     4.1710    -0.0340 C.3   1 <1>  -0.1600 
 18 C        9.2630     2.1810     0.6270 C.3   1 <1>   0.1200 
 19 C        9.4750     3.6500     0.2620 C.3   1 <1>  -0.1600 
 20 H        2.1500     1.1020     0.2490 H     1 <1>   0.1500 
 21 H        3.1590    -3.6880    -0.2370 H     1 <1>   0.1500 
 22 H        0.0580    -4.9910     1.1830 H     1 <1>   0.0800 
 23 H        1.7990    -4.8000     1.3560 H     1 <1>   0.0800 
 24 H        1.0530    -4.7870    -0.2540 H     1 <1>   0.0800 
 25 H        4.7670    -2.0280    -0.9740 H     1 <1>   0.1500 
 26 H        5.9570     1.1730     0.8310 H     1 <1>   0.4200 
 27 H        5.7220     3.5730     1.1620 H     1 <1>   0.0800 
 28 H        5.2320     3.5960    -0.5030 H     1 <1>   0.0800 
 29 H        7.3430     2.5060    -1.1650 H     1 <1>   0.0800 
 30 H        7.7190     4.7590     0.7940 H     1 <1>   0.0800 
 31 H        8.0360     4.7610    -0.9330 H     1 <1>   0.0800 
 32 H        9.6490     1.5290    -0.1390 H     1 <1>   0.0800 
 33 H        9.6930     1.9280     1.5800 H     1 <1>   0.0800 
 34 H        9.9290     4.1860     1.0770 H     1 <1>   0.0800 
 35 H       10.1120     3.7220    -0.6020 H     1 <1>   0.0800 
@<TRIPOS>BOND
  1   1   2  1   
  2   2   3  ar  
  3   2   4  ar  
  4   3   5  1   
  5   3   6  ar  
  6   4   7  ar  
  7   4  20  1   
  8   5   8  1   
  9   6   9  ar  
 10   6  21  1   
 11   7   9  ar  
 12   7  10  1   
 13   8  22  1   
 14   8  23  1   
 15   8  24  1   
 16   9  25  1   
 17  10  11  2   
 18  10  12  2   
 19  10  13  am  
 20  13  14  1   
 21  13  26  1   
 22  14  15  1   
 23  14  27  1   
 24  14  28  1   
 25  15  16  1   
 26  15  17  1   
 27  15  29  1   
 28  16  18  1   
 29  17  19  1   
 30  17  30  1   
 31  17  31  1   
 32  18  19  1   
 33  18  32  1   
 34  18  33  1   
 35  19  34  1   
 36  19  35  1   
@<TRIPOS>SUBSTRUCTURE
  1 ****  10 GROUP 4 **** **** 0

# MOE 2024.06 (io_trps.svl 2023.06)
