@<TRIPOS>MOLECULE
1-(4-Fluoro-benzenesulfonyl)-piperidine-3-carboxylic acid cyclopentylamide
47 49 1 0 0 
SMALL
USER_CHARGES


@<TRIPOS>ATOM
  1 S       -0.4520    -0.0270     0.3740 S.o2  1 <1>   1.4470 
  2 O       -0.8960     0.2580     1.7220 O.2   1 <1>  -0.6500 
  3 O       -0.3070     1.0600    -0.5680 O.2   1 <1>  -0.6500 
  4 N       -1.5780    -1.1130    -0.2810 N.am  1 <1>  -0.8490 
  5 C        1.0880    -0.9910     0.4080 C.ar  1 <1>  -0.0090 
  6 C       -2.7870    -0.4060    -0.7340 C.3   1 <1>   0.1960 
  7 C       -1.9070    -2.1920     0.6570 C.3   1 <1>   0.1960 
  8 C        1.5740    -1.5920    -0.7510 C.ar  1 <1>  -0.1500 
  9 C        1.8120    -1.1480     1.5890 C.ar  1 <1>  -0.1500 
 10 C       -3.7740    -1.3600    -1.4180 C.3   1 <1>  -0.0190 
 11 C       -2.8190    -3.2210    -0.0180 C.3   1 <1>  -0.1600 
 12 C        2.7440    -2.3340    -0.7410 C.ar  1 <1>  -0.1500 
 13 C        2.9840    -1.8870     1.6200 C.ar  1 <1>  -0.1500 
 14 C       -5.0140    -0.5900    -1.8440 C.2   1 <1>   0.5690 
 15 C       -4.1110    -2.5670    -0.5200 C.3   1 <1>  -0.1600 
 16 C        3.4290    -2.4680     0.4500 C.ar  1 <1>   0.1900 
 17 O       -5.2430    -0.4600    -3.0210 O.2   1 <1>  -0.5700 
 18 N       -5.8250    -0.0610    -0.8920 N.am  1 <1>  -0.7300 
 19 F        4.5310    -3.1660     0.4700 F     1 <1>  -0.1900 
 20 C       -7.0390     0.7310    -1.1480 C.3   1 <1>   0.2200 
 21 C       -6.8920     2.0810    -0.4600 C.3   1 <1>  -0.1600 
 22 C       -8.2050     0.0860    -0.4110 C.3   1 <1>  -0.1600 
 23 C       -7.2470     1.8400     1.0120 C.3   1 <1>  -0.1600 
 24 C       -8.0970     0.5630     1.0420 C.3   1 <1>  -0.1600 
 25 H       -2.5140     0.3610    -1.4410 H     1 <1>   0.0800 
 26 H       -3.2560     0.0750     0.1090 H     1 <1>   0.0800 
 27 H       -2.3960    -1.7890     1.5290 H     1 <1>   0.0800 
 28 H       -1.0040    -2.6850     0.9770 H     1 <1>   0.0800 
 29 H        1.0250    -1.4750    -1.6720 H     1 <1>   0.1500 
 30 H        1.4540    -0.6870     2.4960 H     1 <1>   0.1500 
 31 H       -3.3000    -1.7240    -2.3120 H     1 <1>   0.0800 
 32 H       -3.0570    -4.0010     0.6830 H     1 <1>   0.0800 
 33 H       -2.2890    -3.6700    -0.8410 H     1 <1>   0.0800 
 34 H        3.1200    -2.7980    -1.6360 H     1 <1>   0.1500 
 35 H        3.5440    -2.0100     2.5300 H     1 <1>   0.1500 
 36 H       -4.6930    -3.2810    -1.0770 H     1 <1>   0.0800 
 37 H       -4.6940    -2.2480     0.3260 H     1 <1>   0.0800 
 38 H       -5.6270    -0.1980     0.0980 H     1 <1>   0.3700 
 39 H       -7.2210     0.8250    -2.2070 H     1 <1>   0.0800 
 40 H       -7.6120     2.7580    -0.8860 H     1 <1>   0.0800 
 41 H       -5.9100     2.5010    -0.5910 H     1 <1>   0.0800 
 42 H       -8.2020    -0.9860    -0.5020 H     1 <1>   0.0800 
 43 H       -9.1210     0.4620    -0.8340 H     1 <1>   0.0800 
 44 H       -7.7840     2.6800     1.4190 H     1 <1>   0.0800 
 45 H       -6.3490     1.6930     1.5860 H     1 <1>   0.0800 
 46 H       -7.6070    -0.1860     1.6400 H     1 <1>   0.0800 
 47 H       -9.0730     0.7500     1.4560 H     1 <1>   0.0800 
@<TRIPOS>BOND
  1   1   2  2   
  2   1   3  2   
  3   1   4  am  
  4   1   5  1   
  5   4   6  1   
  6   4   7  1   
  7   5   8  ar  
  8   5   9  ar  
  9   6  10  1   
 10   6  25  1   
 11   6  26  1   
 12   7  11  1   
 13   7  27  1   
 14   7  28  1   
 15   8  12  ar  
 16   8  29  1   
 17   9  13  ar  
 18   9  30  1   
 19  10  14  1   
 20  10  15  1   
 21  10  31  1   
 22  11  15  1   
 23  11  32  1   
 24  11  33  1   
 25  12  16  ar  
 26  12  34  1   
 27  13  16  ar  
 28  13  35  1   
 29  14  17  2   
 30  14  18  am  
 31  15  36  1   
 32  15  37  1   
 33  16  19  1   
 34  18  20  1   
 35  18  38  1   
 36  20  21  1   
 37  20  22  1   
 38  20  39  1   
 39  21  23  1   
 40  21  40  1   
 41  21  41  1   
 42  22  24  1   
 43  22  42  1   
 44  22  43  1   
 45  23  24  1   
 46  23  44  1   
 47  23  45  1   
 48  24  46  1   
 49  24  47  1   
@<TRIPOS>SUBSTRUCTURE
  1 ****   4 GROUP 4 **** **** 0

# MOE 2024.06 (io_trps.svl 2023.06)
