@<TRIPOS>MOLECULE
C-(4-p-Tolyl-tetrahydro-pyran-4-yl)-methylamine
35 36 1 0 0 
SMALL
USER_CHARGES


@<TRIPOS>ATOM
  1 O        0.5920    -1.1410     0.2030 O.3   1 <1>  -0.5600 
  2 C        0.9650    -0.9880    -1.1310 C.3   1 <1>   0.1200 
  3 C        0.3910     0.0720     0.8630 C.3   1 <1>   0.1200 
  4 C        2.4070    -0.4550    -1.1890 C.3   1 <1>  -0.1600 
  5 C        1.6330     0.9730     0.7230 C.3   1 <1>  -0.1600 
  6 C        2.8770     0.2870     0.0960 C.3   1 <1>   0.1440 
  7 C        3.9780     1.3040    -0.2680 C.ar  1 <1>  -0.1440 
  8 C        3.5610    -0.6510     1.1300 C.3   1 <1>   0.3430 
  9 C        4.0130     2.5970     0.2490 C.ar  1 <1>  -0.1500 
 10 C        5.0110     0.9220    -1.1200 C.ar  1 <1>  -0.1500 
 11 N        2.8800    -1.9600     1.3400 N.4   1 <1>  -0.8530 
 12 C        5.0340     3.4700    -0.0800 C.ar  1 <1>  -0.1500 
 13 C        6.0310     1.7960    -1.4490 C.ar  1 <1>  -0.1500 
 14 C        6.0490     3.0780    -0.9320 C.ar  1 <1>  -0.1440 
 15 C        7.1670     4.0400    -1.2920 C.3   1 <1>  -0.0970 
 16 H        0.2770    -0.3040    -1.6040 H     1 <1>   0.0800 
 17 H        0.8840    -1.9440    -1.6210 H     1 <1>   0.0800 
 18 H        0.1920    -0.1470     1.8990 H     1 <1>   0.0800 
 19 H       -0.4810     0.5500     0.4460 H     1 <1>   0.0800 
 20 H        2.4490     0.2240    -2.0230 H     1 <1>   0.0800 
 21 H        3.0730    -1.2650    -1.4280 H     1 <1>   0.0800 
 22 H        1.8650     1.3870     1.6880 H     1 <1>   0.0800 
 23 H        1.3470     1.7990     0.0940 H     1 <1>   0.0800 
 24 H        3.6180    -0.1210     2.0670 H     1 <1>   0.0800 
 25 H        4.5740    -0.8340     0.8110 H     1 <1>   0.0800 
 26 H        3.2600     2.9680     0.9190 H     1 <1>   0.1500 
 27 H        5.0500    -0.0620    -1.5510 H     1 <1>   0.1500 
 28 H        1.8670    -1.8280     1.1500 H     1 <1>   0.4500 
 29 H        2.9950    -2.3220     2.2910 H     1 <1>   0.4500 
 30 H        3.2000    -2.6620     0.6680 H     1 <1>   0.4500 
 31 H        5.0360     4.4650     0.3310 H     1 <1>   0.1500 
 32 H        6.8160     1.4760    -2.1130 H     1 <1>   0.1500 
 33 H        6.8060     5.0530    -1.2910 H     1 <1>   0.0800 
 34 H        7.5520     3.8200    -2.2720 H     1 <1>   0.0800 
 35 H        7.9660     3.9550    -0.5780 H     1 <1>   0.0800 
@<TRIPOS>BOND
  1   1   2  1   
  2   1   3  1   
  3   2   4  1   
  4   2  16  1   
  5   2  17  1   
  6   3   5  1   
  7   3  18  1   
  8   3  19  1   
  9   4   6  1   
 10   4  20  1   
 11   4  21  1   
 12   5   6  1   
 13   5  22  1   
 14   5  23  1   
 15   6   7  1   
 16   6   8  1   
 17   7   9  ar  
 18   7  10  ar  
 19   8  11  1   
 20   8  24  1   
 21   8  25  1   
 22   9  12  ar  
 23   9  26  1   
 24  10  13  ar  
 25  10  27  1   
 26  11  28  1   
 27  11  29  1   
 28  11  30  1   
 29  12  14  ar  
 30  12  31  1   
 31  13  14  ar  
 32  13  32  1   
 33  14  15  1   
 34  15  33  1   
 35  15  34  1   
 36  15  35  1   
@<TRIPOS>SUBSTRUCTURE
  1 ****   7 GROUP 4 **** **** 0

# MOE 2024.06 (io_trps.svl 2023.06)
