@<TRIPOS>MOLECULE
1-(4-Methoxy-3-methyl-benzenesulfonyl)-piperidine-4-carboxylic acid phenylamide
51 53 1 0 0 
SMALL
USER_CHARGES


@<TRIPOS>ATOM
  1 S       -0.0660    -0.0220    -2.3890 S.o2  1 <1>   1.4470 
  2 O        0.6640    -1.0790    -3.0580 O.2   1 <1>  -0.6500 
  3 O       -0.7590     0.9680    -3.1840 O.2   1 <1>  -0.6500 
  4 N        1.0680     0.8040    -1.4330 N.am  1 <1>  -0.8490 
  5 C       -1.2110    -0.7260    -1.1710 C.ar  1 <1>  -0.0090 
  6 C        1.8540     1.7450    -2.2340 C.3   1 <1>   0.1960 
  7 C        1.9230    -0.1160    -0.6780 C.3   1 <1>   0.1960 
  8 C       -1.6780     0.0350    -0.1060 C.ar  1 <1>  -0.1500 
  9 C       -1.6540    -2.0390    -1.2730 C.ar  1 <1>  -0.1500 
 10 C        2.7630     2.5830    -1.3300 C.3   1 <1>  -0.1600 
 11 C        2.8200     0.6650     0.2830 C.3   1 <1>  -0.1600 
 12 C       -2.5480    -0.4870     0.8380 C.ar  1 <1>  -0.1430 
 13 C       -2.5240    -2.5780    -0.3420 C.ar  1 <1>  -0.1500 
 14 C        3.6780     1.6950    -0.4710 C.3   1 <1>  -0.0190 
 15 C       -2.9770    -1.8050     0.7230 C.ar  1 <1>   0.0820 
 16 C       -3.0270     0.3870     1.9890 C.3   1 <1>  -0.0970 
 17 C        4.5340     2.5300     0.4820 C.2   1 <1>   0.5690 
 18 O       -3.8290    -2.2790     1.6680 O.3   1 <1>  -0.3630 
 19 O        3.9910     3.1330     1.3740 O.2   1 <1>  -0.5700 
 20 N        5.8870     2.5430     0.2700 N.am  1 <1>  -0.5470 
 21 C       -4.3420    -3.5910     1.6180 C.3   1 <1>   0.0400 
 22 C        6.9260     3.2080     0.9410 C.ar  1 <1>   0.1170 
 23 C        8.2270     2.7450     0.7730 C.ar  1 <1>  -0.1500 
 24 C        6.7240     4.3200     1.7550 C.ar  1 <1>  -0.1500 
 25 C        9.2930     3.3660     1.3980 C.ar  1 <1>  -0.1500 
 26 C        7.7870     4.9440     2.3830 C.ar  1 <1>  -0.1500 
 27 C        9.0740     4.4680     2.2060 C.ar  1 <1>  -0.1500 
 28 H        1.1940     2.4110    -2.7660 H     1 <1>   0.0800 
 29 H        2.4410     1.2050    -2.9600 H     1 <1>   0.0800 
 30 H        2.5290    -0.6970    -1.3560 H     1 <1>   0.0800 
 31 H        1.3120    -0.7960    -0.1070 H     1 <1>   0.0800 
 32 H       -1.3470     1.0570    -0.0210 H     1 <1>   0.1500 
 33 H       -1.3110    -2.6470    -2.0930 H     1 <1>   0.1500 
 34 H        2.1450     3.1930    -0.6920 H     1 <1>   0.0800 
 35 H        3.3570     3.2430    -1.9360 H     1 <1>   0.0800 
 36 H        3.4570    -0.0190     0.8150 H     1 <1>   0.0800 
 37 H        2.1990     1.1640     1.0080 H     1 <1>   0.0800 
 38 H       -2.8360    -3.5970    -0.4640 H     1 <1>   0.1500 
 39 H        4.3320     1.1570    -1.1330 H     1 <1>   0.0800 
 40 H       -2.5880     1.3670     1.9440 H     1 <1>   0.0800 
 41 H       -2.7590    -0.0670     2.9260 H     1 <1>   0.0800 
 42 H       -4.0960     0.4870     1.9480 H     1 <1>   0.0800 
 43 H        6.2080     1.9430    -0.4850 H     1 <1>   0.3700 
 44 H       -4.9970    -3.7250     2.4600 H     1 <1>   0.0800 
 45 H       -3.5250    -4.2880     1.6770 H     1 <1>   0.0800 
 46 H       -4.8930    -3.7160     0.7030 H     1 <1>   0.0800 
 47 H        8.4120     1.8890     0.1510 H     1 <1>   0.1500 
 48 H        5.7340     4.7100     1.9020 H     1 <1>   0.1500 
 49 H       10.2930     2.9940     1.2590 H     1 <1>   0.1500 
 50 H        7.6110     5.8000     3.0100 H     1 <1>   0.1500 
 51 H        9.9010     4.9530     2.6950 H     1 <1>   0.1500 
@<TRIPOS>BOND
  1   1   2  2   
  2   1   3  2   
  3   1   4  am  
  4   1   5  1   
  5   4   6  1   
  6   4   7  1   
  7   5   8  ar  
  8   5   9  ar  
  9   6  10  1   
 10   6  28  1   
 11   6  29  1   
 12   7  11  1   
 13   7  30  1   
 14   7  31  1   
 15   8  12  ar  
 16   8  32  1   
 17   9  13  ar  
 18   9  33  1   
 19  10  14  1   
 20  10  34  1   
 21  10  35  1   
 22  11  14  1   
 23  11  36  1   
 24  11  37  1   
 25  12  15  ar  
 26  12  16  1   
 27  13  15  ar  
 28  13  38  1   
 29  14  17  1   
 30  14  39  1   
 31  15  18  1   
 32  16  40  1   
 33  16  41  1   
 34  16  42  1   
 35  17  19  2   
 36  17  20  am  
 37  18  21  1   
 38  20  22  1   
 39  20  43  1   
 40  21  44  1   
 41  21  45  1   
 42  21  46  1   
 43  22  23  ar  
 44  22  24  ar  
 45  23  25  ar  
 46  23  47  1   
 47  24  26  ar  
 48  24  48  1   
 49  25  27  ar  
 50  25  49  1   
 51  26  27  ar  
 52  26  50  1   
 53  27  51  1   
@<TRIPOS>SUBSTRUCTURE
  1 ****  11 GROUP 4 **** **** 0

# MOE 2024.06 (io_trps.svl 2023.06)
