@<TRIPOS>MOLECULE
8-(2-Methoxy-phenyl)-1,6,7-trimethyl-3-(2-oxo-propyl)-1H,8H-imidazo[2,1-f]purine
51 54 1 0 0 
SMALL
USER_CHARGES


@<TRIPOS>ATOM
  1 O        0.7850     0.2420     1.3930 O.2   1 <1>  -0.5740 
  2 C        1.7960     0.9060     1.2820 C.2   1 <1>   0.6860 
  3 N        1.7040     2.2860     1.1730 N.am  1 <1>  -0.4260 
  4 N        3.0380     0.2850     1.2570 N.am  1 <1>  -0.4410 
  5 C        2.8370     3.0800     1.0740 C.2   1 <1>   0.6990 
  6 C        0.4170     2.8640     0.6730 C.3   1 <1>   0.1940 
  7 C        4.1530     1.0740     1.0580 C.2   1 <1>   0.4210 
  8 C        3.1480    -1.2000     1.3580 C.3   1 <1>   0.0520 
  9 O        2.7340     4.2960     1.0840 O.2   1 <1>  -0.5740 
 10 C        4.1000     2.4260     0.9670 C.2   1 <1>   0.2710 
 11 C        0.3810     2.8430    -0.8550 C.2   1 <1>   0.4430 
 12 N        5.4450     0.6630     0.9100 N.pl3 1 <1>  -0.7040 
 13 N        5.4200     2.8580     0.7530 N.pl3 1 <1>  -0.6330 
 14 O        1.3350     2.5270    -1.5060 O.2   1 <1>  -0.5740 
 15 C       -0.9200     3.2450    -1.5150 C.3   1 <1>  -0.1860 
 16 C        6.1700     1.7670     0.7130 C.cat 1 <1>   1.0690 
 17 C        6.2480     3.9180     0.4580 C.2   1 <1>   0.2340 
 18 N        7.4560     2.0420     0.4630 N.pl3 1 <1>  -0.5550 
 19 C        7.4940     3.4200     0.2750 C.2   1 <1>   0.1580 
 20 C        5.6940     5.3270     0.3750 C.3   1 <1>  -0.1090 
 21 C        8.4850     1.0810     0.3200 C.ar  1 <1>   0.3050 
 22 C        8.7820     4.1360    -0.0990 C.3   1 <1>  -0.1090 
 23 C        8.3730     0.0220    -0.5910 C.ar  1 <1>   0.0750 
 24 C        9.6230     1.1780     1.1080 C.ar  1 <1>  -0.1570 
 25 O        7.2310    -0.0740    -1.3310 O.3   1 <1>  -0.3680 
 26 C        9.4080    -0.9020    -0.7060 C.ar  1 <1>  -0.1570 
 27 C       10.6460     0.2550     0.9900 C.ar  1 <1>  -0.1570 
 28 C        7.1890    -0.8590    -2.5070 C.3   1 <1>   0.0320 
 29 C       10.5390    -0.7810     0.0820 C.ar  1 <1>  -0.1570 
 30 H        0.3110     3.8770     1.0170 H     1 <1>   0.0720 
 31 H       -0.4160     2.3020     1.0570 H     1 <1>   0.0720 
 32 H        2.3160    -1.6010     1.9120 H     1 <1>   0.0720 
 33 H        4.0530    -1.4770     1.8670 H     1 <1>   0.0720 
 34 H        3.1430    -1.6300     0.3710 H     1 <1>   0.0720 
 35 H        5.8180    -0.2740     0.7720 H     1 <1>   0.4450 
 36 H       -1.7070     2.5780    -1.2150 H     1 <1>   0.0720 
 37 H       -0.8140     3.1970    -2.5840 H     1 <1>   0.0720 
 38 H       -1.1780     4.2510    -1.2380 H     1 <1>   0.0720 
 39 H        4.9390     5.3800    -0.3890 H     1 <1>   0.0720 
 40 H        6.4680     6.0340     0.1410 H     1 <1>   0.0720 
 41 H        5.2510     5.6030     1.3150 H     1 <1>   0.0720 
 42 H        9.2150     3.6800    -0.9720 H     1 <1>   0.0720 
 43 H        9.4890     4.0820     0.7080 H     1 <1>   0.0720 
 44 H        8.5960     5.1710    -0.3170 H     1 <1>   0.0720 
 45 H        9.7150     1.9750     1.8240 H     1 <1>   0.1430 
 46 H        9.3570    -1.7240    -1.3960 H     1 <1>   0.1430 
 47 H       11.5280     0.3400     1.6050 H     1 <1>   0.1430 
 48 H        6.2550    -0.6700    -3.0060 H     1 <1>   0.0720 
 49 H        7.2540    -1.9000    -2.2410 H     1 <1>   0.0720 
 50 H        8.0060    -0.5770    -3.1480 H     1 <1>   0.0720 
 51 H       11.3380    -1.4980    -0.0110 H     1 <1>   0.1430 
@<TRIPOS>BOND
  1   1   2  2   
  2   2   3  am  
  3   2   4  am  
  4   3   5  am  
  5   3   6  1   
  6   4   7  1   
  7   4   8  1   
  8   5   9  2   
  9   5  10  1   
 10   6  11  1   
 11   6  30  1   
 12   6  31  1   
 13   7  10  2   
 14   7  12  1   
 15   8  32  1   
 16   8  33  1   
 17   8  34  1   
 18  10  13  1   
 19  11  14  2   
 20  11  15  1   
 21  12  16  ar  
 22  12  35  1   
 23  13  16  ar  
 24  13  17  1   
 25  15  36  1   
 26  15  37  1   
 27  15  38  1   
 28  16  18  ar  
 29  17  19  2   
 30  17  20  1   
 31  18  19  1   
 32  18  21  1   
 33  19  22  1   
 34  20  39  1   
 35  20  40  1   
 36  20  41  1   
 37  21  23  ar  
 38  21  24  ar  
 39  22  42  1   
 40  22  43  1   
 41  22  44  1   
 42  23  25  1   
 43  23  26  ar  
 44  24  27  ar  
 45  24  45  1   
 46  25  28  1   
 47  26  29  ar  
 48  26  46  1   
 49  27  29  ar  
 50  27  47  1   
 51  28  48  1   
 52  28  49  1   
 53  28  50  1   
 54  29  51  1   
@<TRIPOS>SUBSTRUCTURE
  1 ****  16 GROUP 4 **** **** 0

# MOE 2024.06 (io_trps.svl 2023.06)
