@<TRIPOS>MOLECULE
1-(4-Ethoxy-3-methyl-benzenesulfonyl)-piperidine-3-carboxylic acid (3-methoxy-pr
57 58 1 0 0 
SMALL
USER_CHARGES


@<TRIPOS>ATOM
  1 S       -0.2850    -1.9530     1.1440 S.o2  1 <1>   1.4470 
  2 O       -1.1510    -3.0870     1.3830 O.2   1 <1>  -0.6500 
  3 O        0.7180    -1.6170     2.1330 O.2   1 <1>  -0.6500 
  4 N        0.5000    -2.2200    -0.3410 N.am  1 <1>  -0.8490 
  5 C       -1.3130    -0.4970     0.8060 C.ar  1 <1>  -0.0090 
  6 C        1.5550    -1.2560    -0.7030 C.3   1 <1>   0.1960 
  7 C        0.8840    -3.6090    -0.6100 C.3   1 <1>   0.1960 
  8 C       -2.0680    -0.4070    -0.3580 C.ar  1 <1>  -0.1500 
  9 C       -1.3820     0.5610     1.7040 C.ar  1 <1>  -0.1500 
 10 C        2.9180    -1.5720    -0.0580 C.3   1 <1>  -0.0190 
 11 C        2.1860    -3.9800     0.1090 C.3   1 <1>  -0.1600 
 12 C       -2.8590     0.6970    -0.6330 C.ar  1 <1>  -0.1430 
 13 C       -2.1670     1.6720     1.4490 C.ar  1 <1>  -0.1500 
 14 C        3.9700    -0.6100    -0.5860 C.2   1 <1>   0.5690 
 15 C        3.3250    -3.0370    -0.2980 C.3   1 <1>  -0.1600 
 16 C       -2.9120     1.7480     0.2760 C.ar  1 <1>   0.0830 
 17 C       -3.6630     0.7480    -1.9240 C.3   1 <1>  -0.0960 
 18 O        4.0790    -0.4440    -1.7770 O.2   1 <1>  -0.5700 
 19 N        4.7610     0.0400     0.3060 N.am  1 <1>  -0.7300 
 20 O       -3.7020     2.8100    -0.0310 O.3   1 <1>  -0.3630 
 21 C        5.8470     0.9740    -0.0490 C.3   1 <1>   0.1400 
 22 C       -3.8530     3.9050     0.8410 C.3   1 <1>   0.1200 
 23 C        7.1000     0.6050     0.7410 C.3   1 <1>  -0.1600 
 24 C       -4.8180     4.8940     0.1950 C.3   1 <1>  -0.2400 
 25 C        8.2610     1.5200     0.3660 C.3   1 <1>   0.1200 
 26 O        9.3480     1.1640     1.1510 O.3   1 <1>  -0.5600 
 27 C       10.4970     1.9040     0.8970 C.3   1 <1>   0.0400 
 28 H        1.2490    -0.2580    -0.4370 H     1 <1>   0.0800 
 29 H        1.6700    -1.2780    -1.7750 H     1 <1>   0.0800 
 30 H        1.0260    -3.7260    -1.6710 H     1 <1>   0.0800 
 31 H        0.0940    -4.2820    -0.3190 H     1 <1>   0.0800 
 32 H       -2.0280    -1.2240    -1.0590 H     1 <1>   0.1500 
 33 H       -0.8120     0.5140     2.6170 H     1 <1>   0.1500 
 34 H        2.8460    -1.4120     0.9990 H     1 <1>   0.0800 
 35 H        2.4500    -4.9920    -0.1430 H     1 <1>   0.0800 
 36 H        2.0320    -3.9420     1.1740 H     1 <1>   0.0800 
 37 H       -2.1860     2.4620     2.1740 H     1 <1>   0.1500 
 38 H        4.2130    -3.2680     0.2660 H     1 <1>   0.0800 
 39 H        3.5490    -3.1780    -1.3420 H     1 <1>   0.0800 
 40 H       -3.5120    -0.1370    -2.5150 H     1 <1>   0.0800 
 41 H       -3.3650     1.6040    -2.5030 H     1 <1>   0.0800 
 42 H       -4.7100     0.8350    -1.6960 H     1 <1>   0.0800 
 43 H        4.6380    -0.1300     1.3060 H     1 <1>   0.3700 
 44 H        5.5400     1.9790     0.1870 H     1 <1>   0.0800 
 45 H        6.0480     0.9170    -1.1070 H     1 <1>   0.0800 
 46 H       -2.8880     4.3570     0.9910 H     1 <1>   0.0800 
 47 H       -4.2470     3.5440     1.7760 H     1 <1>   0.0800 
 48 H        7.3750    -0.4110     0.5180 H     1 <1>   0.0800 
 49 H        6.9050     0.7030     1.7940 H     1 <1>   0.0800 
 50 H       -4.4220     5.2350    -0.7450 H     1 <1>   0.0800 
 51 H       -4.9540     5.7440     0.8380 H     1 <1>   0.0800 
 52 H       -5.7730     4.4270     0.0340 H     1 <1>   0.0800 
 53 H        8.0160     2.5500     0.5640 H     1 <1>   0.0800 
 54 H        8.5250     1.3950    -0.6710 H     1 <1>   0.0800 
 55 H       11.2730     1.5520     1.5550 H     1 <1>   0.0800 
 56 H       10.3010     2.9440     1.0920 H     1 <1>   0.0800 
 57 H       10.7960     1.7570    -0.1260 H     1 <1>   0.0800 
@<TRIPOS>BOND
  1   1   2  2   
  2   1   3  2   
  3   1   4  am  
  4   1   5  1   
  5   4   6  1   
  6   4   7  1   
  7   5   8  ar  
  8   5   9  ar  
  9   6  10  1   
 10   6  28  1   
 11   6  29  1   
 12   7  11  1   
 13   7  30  1   
 14   7  31  1   
 15   8  12  ar  
 16   8  32  1   
 17   9  13  ar  
 18   9  33  1   
 19  10  14  1   
 20  10  15  1   
 21  10  34  1   
 22  11  15  1   
 23  11  35  1   
 24  11  36  1   
 25  12  16  ar  
 26  12  17  1   
 27  13  16  ar  
 28  13  37  1   
 29  14  18  2   
 30  14  19  am  
 31  15  38  1   
 32  15  39  1   
 33  16  20  1   
 34  17  40  1   
 35  17  41  1   
 36  17  42  1   
 37  19  21  1   
 38  19  43  1   
 39  20  22  1   
 40  21  23  1   
 41  21  44  1   
 42  21  45  1   
 43  22  24  1   
 44  22  46  1   
 45  22  47  1   
 46  23  25  1   
 47  23  48  1   
 48  23  49  1   
 49  24  50  1   
 50  24  51  1   
 51  24  52  1   
 52  25  26  1   
 53  25  53  1   
 54  25  54  1   
 55  26  27  1   
 56  27  55  1   
 57  27  56  1   
 58  27  57  1   
@<TRIPOS>SUBSTRUCTURE
  1 ****   6 GROUP 4 **** **** 0

# MOE 2024.06 (io_trps.svl 2023.06)
