@<TRIPOS>MOLECULE
N-Allyl-4-[3-(4-tert-butyl-phenyl)-[1,2,4]oxadiazol-5-yl]-butyramide
49 50 1 0 0 
SMALL
USER_CHARGES


@<TRIPOS>ATOM
  1 O       -0.2460    -0.4300    -1.0610 O.2   1 <1>  -0.5700 
  2 C       -1.1140    -1.2360    -0.8390 C.2   1 <1>   0.5690 
  3 N       -0.9190    -2.3070    -0.0360 N.am  1 <1>  -0.7300 
  4 C       -2.4790    -1.0370    -1.4640 C.3   1 <1>  -0.0990 
  5 C        0.3510    -2.6360     0.6210 C.3   1 <1>   0.2780 
  6 C       -3.4030    -0.2110    -0.5500 C.3   1 <1>  -0.1600 
  7 C        0.4460    -4.1450     0.6760 C.2   1 <1>  -0.2880 
  8 C       -4.7740     0.0870    -1.1800 C.3   1 <1>   0.0200 
  9 C        0.4470    -4.8820     1.7910 C.2   1 <1>  -0.3000 
 10 C       -5.5730    -1.1730    -1.4590 C.2   1 <1>   0.2980 
 11 O       -5.4230    -1.7760    -2.6090 O.3   1 <1>  -0.0190 
 12 N       -6.3940    -1.7180    -0.6610 N.2   1 <1>  -0.5650 
 13 N       -6.2140    -2.7980    -2.5340 N.2   1 <1>  -0.4100 
 14 C       -6.7950    -2.7680    -1.3860 C.2   1 <1>   0.4620 
 15 C       -7.7660    -3.7340    -0.9000 C.ar  1 <1>   0.0540 
 16 C       -8.1700    -4.8140    -1.6820 C.ar  1 <1>  -0.1500 
 17 C       -8.3400    -3.6310     0.3650 C.ar  1 <1>  -0.1500 
 18 C       -9.0930    -5.7360    -1.2250 C.ar  1 <1>  -0.1500 
 19 C       -9.2640    -4.5520     0.8250 C.ar  1 <1>  -0.1500 
 20 C       -9.6620    -5.6280     0.0380 C.ar  1 <1>  -0.1430 
 21 C      -10.6900    -6.6820     0.5050 C.3   1 <1>   0.1430 
 22 C      -10.0370    -8.0720     0.5050 C.3   1 <1>  -0.2400 
 23 C      -11.2240    -6.4210     1.9240 C.3   1 <1>  -0.2400 
 24 C      -11.8940    -6.6830    -0.4500 C.3   1 <1>  -0.2400 
 25 H       -1.6740    -2.9670     0.1500 H     1 <1>   0.3700 
 26 H       -2.9090    -2.0020    -1.6640 H     1 <1>   0.0800 
 27 H       -2.3480    -0.5310    -2.4040 H     1 <1>   0.0800 
 28 H        0.3560    -2.2190     1.6140 H     1 <1>   0.0800 
 29 H        1.1780    -2.2240     0.0670 H     1 <1>   0.0800 
 30 H       -2.9170     0.7230    -0.3220 H     1 <1>   0.0800 
 31 H       -3.5490    -0.7360     0.3790 H     1 <1>   0.0800 
 32 H        0.5170    -4.5790    -0.3070 H     1 <1>   0.1500 
 33 H       -4.6500     0.6380    -2.0950 H     1 <1>   0.0800 
 34 H       -5.3400     0.7010    -0.5030 H     1 <1>   0.0800 
 35 H        0.5180    -5.9570     1.7980 H     1 <1>   0.1500 
 36 H        0.3790    -4.4800     2.7870 H     1 <1>   0.1500 
 37 H       -7.7550    -4.9360    -2.6670 H     1 <1>   0.1500 
 38 H       -8.0590    -2.8120     1.0050 H     1 <1>   0.1500 
 39 H       -9.3660    -6.5490    -1.8740 H     1 <1>   0.1500 
 40 H       -9.6610    -4.4030     1.8120 H     1 <1>   0.1500 
 41 H       -9.1730    -8.0710     1.1450 H     1 <1>   0.0800 
 42 H       -9.7240    -8.3540    -0.4840 H     1 <1>   0.0800 
 43 H      -10.7260    -8.8160     0.8610 H     1 <1>   0.0800 
 44 H      -11.7180    -5.4660     1.9710 H     1 <1>   0.0800 
 45 H      -10.4200    -6.4360     2.6380 H     1 <1>   0.0800 
 46 H      -11.9340    -7.1770     2.2070 H     1 <1>   0.0800 
 47 H      -11.5980    -6.9520    -1.4470 H     1 <1>   0.0800 
 48 H      -12.3360    -5.7030    -0.4830 H     1 <1>   0.0800 
 49 H      -12.6390    -7.3850    -0.1220 H     1 <1>   0.0800 
@<TRIPOS>BOND
  1   1   2  2   
  2   2   3  am  
  3   2   4  1   
  4   3   5  1   
  5   3  25  1   
  6   4   6  1   
  7   4  26  1   
  8   4  27  1   
  9   5   7  1   
 10   5  28  1   
 11   5  29  1   
 12   6   8  1   
 13   6  30  1   
 14   6  31  1   
 15   7   9  2   
 16   7  32  1   
 17   8  10  1   
 18   8  33  1   
 19   8  34  1   
 20   9  35  1   
 21   9  36  1   
 22  10  11  1   
 23  10  12  2   
 24  11  13  1   
 25  12  14  1   
 26  13  14  2   
 27  14  15  1   
 28  15  16  ar  
 29  15  17  ar  
 30  16  18  ar  
 31  16  37  1   
 32  17  19  ar  
 33  17  38  1   
 34  18  20  ar  
 35  18  39  1   
 36  19  20  ar  
 37  19  40  1   
 38  20  21  1   
 39  21  22  1   
 40  21  23  1   
 41  21  24  1   
 42  22  41  1   
 43  22  42  1   
 44  22  43  1   
 45  23  44  1   
 46  23  45  1   
 47  23  46  1   
 48  24  47  1   
 49  24  48  1   
 50  24  49  1   
@<TRIPOS>SUBSTRUCTURE
  1 ****  14 GROUP 4 **** **** 0

# MOE 2024.06 (io_trps.svl 2023.06)
