@<TRIPOS>MOLECULE
4-Chloro-3-(morpholine-4-sulfonyl)-N-propyl-benzamide
41 42 1 0 0 
SMALL
USER_CHARGES


@<TRIPOS>ATOM
  1 CL       0.5990     0.3440     2.4230 Cl    1 <1>  -0.1770 
  2 C        1.8070    -0.7120     1.7380 C.ar  1 <1>   0.1770 
  3 C        1.5200    -2.0080     1.3270 C.ar  1 <1>  -0.0090 
  4 C        3.0790    -0.1810     1.6200 C.ar  1 <1>  -0.1500 
  5 S       -0.1320    -2.7490     1.4440 S.o2  1 <1>   1.4470 
  6 C        2.5660    -2.7400     0.7750 C.ar  1 <1>  -0.1500 
  7 C        4.0960    -0.9390     1.0750 C.ar  1 <1>  -0.1500 
  8 O        0.0240    -4.1870     1.4390 O.2   1 <1>  -0.6500 
  9 O       -0.9490    -2.1650     2.4840 O.2   1 <1>  -0.6500 
 10 N       -0.8590    -2.3470    -0.0330 N.am  1 <1>  -0.8490 
 11 C        3.8620    -2.2400     0.6310 C.ar  1 <1>   0.0860 
 12 C       -1.4500    -1.0040    -0.0700 C.3   1 <1>   0.1960 
 13 C       -1.8440    -3.3630    -0.4580 C.3   1 <1>   0.1960 
 14 C        4.9160    -3.0500     0.0460 C.2   1 <1>   0.5440 
 15 C       -2.0060    -0.6580    -1.4720 C.3   1 <1>   0.1200 
 16 C       -2.9130    -2.8370    -1.4440 C.3   1 <1>   0.1200 
 17 O        4.9040    -4.2580     0.1680 O.2   1 <1>  -0.5700 
 18 N        5.9300    -2.4690    -0.6640 N.am  1 <1>  -0.7300 
 19 O       -2.4200    -1.7790    -2.2100 O.3   1 <1>  -0.5600 
 20 C        7.0650    -3.1930    -1.2750 C.3   1 <1>   0.1400 
 21 C        8.3500    -2.4020    -1.0320 C.3   1 <1>  -0.1600 
 22 C        9.5630    -3.1080    -1.6490 C.3   1 <1>  -0.2400 
 23 H        3.2670     0.8240     1.9590 H     1 <1>   0.1500 
 24 H        2.3770    -3.7490     0.4410 H     1 <1>   0.1500 
 25 H        5.0850    -0.5200     1.0010 H     1 <1>   0.1500 
 26 H       -0.7150    -0.2660     0.1930 H     1 <1>   0.0800 
 27 H       -2.2490    -0.9390     0.6500 H     1 <1>   0.0800 
 28 H       -2.3570    -3.7640     0.4010 H     1 <1>   0.0800 
 29 H       -1.3140    -4.1790    -0.9200 H     1 <1>   0.0800 
 30 H       -1.2430    -0.1680    -2.0510 H     1 <1>   0.0800 
 31 H       -2.8420     0.0130    -1.3820 H     1 <1>   0.0800 
 32 H       -3.7780    -2.4890    -0.9080 H     1 <1>   0.0800 
 33 H       -3.2200    -3.6210    -2.1130 H     1 <1>   0.0800 
 34 H        5.8730    -1.4780    -0.8970 H     1 <1>   0.3700 
 35 H        6.8880    -3.3040    -2.3320 H     1 <1>   0.0800 
 36 H        7.1520    -4.1760    -0.8400 H     1 <1>   0.0800 
 37 H        8.5070    -2.2990     0.0280 H     1 <1>   0.0800 
 38 H        8.2590    -1.4220    -1.4660 H     1 <1>   0.0800 
 39 H        9.6870    -4.0860    -1.2170 H     1 <1>   0.0800 
 40 H       10.4560    -2.5380    -1.4620 H     1 <1>   0.0800 
 41 H        9.4390    -3.2120    -2.7130 H     1 <1>   0.0800 
@<TRIPOS>BOND
  1   1   2  1   
  2   2   3  ar  
  3   2   4  ar  
  4   3   5  1   
  5   3   6  ar  
  6   4   7  ar  
  7   4  23  1   
  8   5   8  2   
  9   5   9  2   
 10   5  10  am  
 11   6  11  ar  
 12   6  24  1   
 13   7  11  ar  
 14   7  25  1   
 15  10  12  1   
 16  10  13  1   
 17  11  14  1   
 18  12  15  1   
 19  12  26  1   
 20  12  27  1   
 21  13  16  1   
 22  13  28  1   
 23  13  29  1   
 24  14  17  2   
 25  14  18  am  
 26  15  19  1   
 27  15  30  1   
 28  15  31  1   
 29  16  19  1   
 30  16  32  1   
 31  16  33  1   
 32  18  20  1   
 33  18  34  1   
 34  20  21  1   
 35  20  35  1   
 36  20  36  1   
 37  21  22  1   
 38  21  37  1   
 39  21  38  1   
 40  22  39  1   
 41  22  40  1   
 42  22  41  1   
@<TRIPOS>SUBSTRUCTURE
  1 ****   6 GROUP 4 **** **** 0

# MOE 2024.06 (io_trps.svl 2023.06)
