@<TRIPOS>MOLECULE
4-(7-Methyl-1-propyl-1H-pyrazolo[3,4-b]quinolin-3-ylcarbamoyl)-butyric acid
47 49 1 0 0 
SMALL
USER_CHARGES


@<TRIPOS>ATOM
  1 O       -2.2070     1.7230    -1.5620 O.co2 1 <1>  -0.9000 
  2 C       -2.2010     0.5170    -1.3030 C.2   1 <1>   0.9060 
  3 O       -1.7640    -0.3380    -2.0790 O.co2 1 <1>  -0.9000 
  4 C       -2.7530     0.0570     0.0270 C.3   1 <1>  -0.2660 
  5 C       -3.9850    -0.8510    -0.1350 C.3   1 <1>  -0.1600 
  6 C       -4.4660    -1.3860     1.2230 C.3   1 <1>  -0.0990 
  7 C       -5.6650    -2.3120     1.1170 C.2   1 <1>   0.5690 
  8 O       -6.6320    -2.0790     1.8000 O.2   1 <1>  -0.5700 
  9 N       -5.5700    -3.3820     0.2850 N.am  1 <1>  -0.4930 
 10 C       -6.4430    -4.4350     0.0380 C.2   1 <1>   0.3520 
 11 N       -5.9440    -5.5690    -0.3070 N.2   1 <1>  -0.7070 
 12 C       -7.8640    -4.4350     0.0810 C.ar  1 <1>   0.0000 
 13 N       -7.0200    -6.3880    -0.4820 N.pl3 1 <1>   0.3140 
 14 C       -8.2040    -5.7420    -0.2620 C.ar  1 <1>   0.1050 
 15 C       -8.8840    -3.5440     0.3290 C.ar  1 <1>  -0.1500 
 16 C       -6.8670    -7.8030    -0.8750 C.3   1 <1>   0.0960 
 17 N       -9.4260    -6.2420    -0.3630 N.ar  1 <1>  -0.5670 
 18 C      -10.1950    -4.0080     0.2450 C.ar  1 <1>   0.0000 
 19 C       -6.7850    -8.7080     0.3620 C.3   1 <1>  -0.1600 
 20 C      -10.4160    -5.3710    -0.1040 C.ar  1 <1>   0.3100 
 21 C      -11.3140    -3.1790     0.4930 C.ar  1 <1>  -0.1500 
 22 C       -6.6180   -10.1800    -0.0330 C.3   1 <1>  -0.2400 
 23 C      -11.7500    -5.8220    -0.1850 C.ar  1 <1>  -0.1500 
 24 C      -12.5880    -3.6600     0.4020 C.ar  1 <1>  -0.1500 
 25 C      -12.8170    -5.0020     0.0580 C.ar  1 <1>  -0.1440 
 26 C      -14.2470    -5.5020    -0.0330 C.3   1 <1>  -0.0970 
 27 H       -3.0040     0.9270     0.6030 H     1 <1>   0.0800 
 28 H       -1.9650    -0.4700     0.5270 H     1 <1>   0.0800 
 29 H       -3.7200    -1.6660    -0.7870 H     1 <1>   0.0800 
 30 H       -4.7730    -0.2910    -0.6110 H     1 <1>   0.0800 
 31 H       -4.7290    -0.5560     1.8540 H     1 <1>   0.0800 
 32 H       -3.6680    -1.9220     1.7030 H     1 <1>   0.0800 
 33 H       -4.6650    -3.5300    -0.1570 H     1 <1>   0.3700 
 34 H       -8.6840    -2.5190     0.5800 H     1 <1>   0.1500 
 35 H       -5.9720    -7.8930    -1.4620 H     1 <1>   0.0800 
 36 H       -7.7090    -8.0800    -1.4830 H     1 <1>   0.0800 
 37 H       -7.6850    -8.5980     0.9440 H     1 <1>   0.0800 
 38 H       -5.9470    -8.4060     0.9690 H     1 <1>   0.0800 
 39 H      -11.1340    -2.1530     0.7590 H     1 <1>   0.1500 
 40 H       -7.4560   -10.5080    -0.6240 H     1 <1>   0.0800 
 41 H       -6.5640   -10.7920     0.8510 H     1 <1>   0.0800 
 42 H       -5.7150   -10.3190    -0.6000 H     1 <1>   0.0800 
 43 H      -11.8920    -6.8530    -0.4490 H     1 <1>   0.1500 
 44 H      -13.4310    -3.0190     0.5930 H     1 <1>   0.1500 
 45 H      -14.2740    -6.5420    -0.3040 H     1 <1>   0.0800 
 46 H      -14.7850    -4.9400    -0.7760 H     1 <1>   0.0800 
 47 H      -14.7380    -5.3830     0.9170 H     1 <1>   0.0800 
@<TRIPOS>BOND
  1   1   2  ar  
  2   2   3  ar  
  3   2   4  1   
  4   4   5  1   
  5   4  27  1   
  6   4  28  1   
  7   5   6  1   
  8   5  29  1   
  9   5  30  1   
 10   6   7  1   
 11   6  31  1   
 12   6  32  1   
 13   7   8  2   
 14   7   9  am  
 15   9  10  1   
 16   9  33  1   
 17  10  11  2   
 18  10  12  1   
 19  11  13  1   
 20  12  14  ar  
 21  12  15  ar  
 22  13  14  1   
 23  13  16  1   
 24  14  17  ar  
 25  15  18  ar  
 26  15  34  1   
 27  16  19  1   
 28  16  35  1   
 29  16  36  1   
 30  17  20  ar  
 31  18  20  ar  
 32  18  21  ar  
 33  19  22  1   
 34  19  37  1   
 35  19  38  1   
 36  20  23  ar  
 37  21  24  ar  
 38  21  39  1   
 39  22  40  1   
 40  22  41  1   
 41  22  42  1   
 42  23  25  ar  
 43  23  43  1   
 44  24  25  ar  
 45  24  44  1   
 46  25  26  1   
 47  26  45  1   
 48  26  46  1   
 49  26  47  1   
@<TRIPOS>SUBSTRUCTURE
  1 ****  12 GROUP 4 **** **** 0

# MOE 2024.06 (io_trps.svl 2023.06)
