@<TRIPOS>MOLECULE
2,4-Dichloro-5-(pyrrolidine-1-sulfonyl)-N-(tetrahydro-furan-2-ylmethyl)-benzamid
45 47 1 0 0 
SMALL
USER_CHARGES


@<TRIPOS>ATOM
  1 CL      -1.0650     0.6680    -0.8010 Cl    1 <1>  -0.1770 
  2 C       -0.5840    -1.0080    -0.7650 C.ar  1 <1>   0.1770 
  3 C       -1.3990    -2.0240    -1.2510 C.ar  1 <1>  -0.0090 
  4 C        0.6560    -1.2730    -0.2180 C.ar  1 <1>  -0.1500 
  5 S       -3.0410    -1.7180    -1.9600 S.o2  1 <1>   1.4470 
  6 C       -0.9150    -3.3250    -1.1480 C.ar  1 <1>  -0.1500 
  7 C        1.1020    -2.5760    -0.1400 C.ar  1 <1>   0.1770 
  8 O       -3.4290    -2.9030    -2.6940 O.2   1 <1>  -0.6500 
  9 O       -3.1250    -0.4440    -2.6370 O.2   1 <1>  -0.6500 
 10 N       -4.0540    -1.6560    -0.6020 N.am  1 <1>  -0.8490 
 11 C        0.3290    -3.6440    -0.5950 C.ar  1 <1>   0.0860 
 12 CL       2.6900    -2.8240     0.5470 Cl    1 <1>  -0.1770 
 13 C       -5.4400    -1.9520    -0.9270 C.3   1 <1>   0.1960 
 14 C       -4.0890    -0.3800     0.0960 C.3   1 <1>   0.1960 
 15 C        0.7500    -5.0290    -0.5240 C.2   1 <1>   0.5440 
 16 C       -6.2320    -1.4870     0.2890 C.3   1 <1>  -0.1600 
 17 C       -5.3350    -0.4550     0.9710 C.3   1 <1>  -0.1600 
 18 O        0.5240    -5.7760    -1.4540 O.2   1 <1>  -0.5700 
 19 N        1.3800    -5.5360     0.5760 N.am  1 <1>  -0.7300 
 20 C        1.8460    -6.9450     0.7150 C.3   1 <1>   0.1400 
 21 C        3.1210    -7.2070    -0.1000 C.3   1 <1>   0.2000 
 22 O        3.6480    -8.4430     0.2540 O.3   1 <1>  -0.5600 
 23 C        4.2680    -6.2350     0.1570 C.3   1 <1>  -0.1600 
 24 C        4.9820    -8.5130    -0.1310 C.3   1 <1>   0.1200 
 25 C        5.5040    -7.0780    -0.1150 C.3   1 <1>  -0.1600 
 26 H        1.2710    -0.4670     0.1420 H     1 <1>   0.1500 
 27 H       -1.5250    -4.1380    -1.5140 H     1 <1>   0.1500 
 28 H       -5.5760    -3.0030    -1.1200 H     1 <1>   0.0800 
 29 H       -5.7390    -1.3880    -1.7970 H     1 <1>   0.0800 
 30 H       -4.1940     0.4320    -0.6060 H     1 <1>   0.0800 
 31 H       -3.2020    -0.2340     0.6890 H     1 <1>   0.0800 
 32 H       -6.4070    -2.3210     0.9460 H     1 <1>   0.0800 
 33 H       -7.1770    -1.0700    -0.0100 H     1 <1>   0.0800 
 34 H       -5.8080     0.5080     1.0440 H     1 <1>   0.0800 
 35 H       -5.0650    -0.7900     1.9570 H     1 <1>   0.0800 
 36 H        1.7170    -4.8950     1.2970 H     1 <1>   0.3700 
 37 H        2.0380    -7.1490     1.7540 H     1 <1>   0.0800 
 38 H        1.0720    -7.6090     0.3700 H     1 <1>   0.0800 
 39 H        2.8840    -7.2440    -1.1500 H     1 <1>   0.0800 
 40 H        4.2550    -5.9170     1.1840 H     1 <1>   0.0800 
 41 H        4.2040    -5.3740    -0.4850 H     1 <1>   0.0800 
 42 H        5.0220    -8.9320    -1.1220 H     1 <1>   0.0800 
 43 H        5.5070    -9.1480     0.5620 H     1 <1>   0.0800 
 44 H        6.2460    -6.9460     0.6520 H     1 <1>   0.0800 
 45 H        5.9380    -6.8390    -1.0700 H     1 <1>   0.0800 
@<TRIPOS>BOND
  1   1   2  1   
  2   2   3  ar  
  3   2   4  ar  
  4   3   5  1   
  5   3   6  ar  
  6   4   7  ar  
  7   4  26  1   
  8   5   8  2   
  9   5   9  2   
 10   5  10  am  
 11   6  11  ar  
 12   6  27  1   
 13   7  11  ar  
 14   7  12  1   
 15  10  13  1   
 16  10  14  1   
 17  11  15  1   
 18  13  16  1   
 19  13  28  1   
 20  13  29  1   
 21  14  17  1   
 22  14  30  1   
 23  14  31  1   
 24  15  18  2   
 25  15  19  am  
 26  16  17  1   
 27  16  32  1   
 28  16  33  1   
 29  17  34  1   
 30  17  35  1   
 31  19  20  1   
 32  19  36  1   
 33  20  21  1   
 34  20  37  1   
 35  20  38  1   
 36  21  22  1   
 37  21  23  1   
 38  21  39  1   
 39  22  24  1   
 40  23  25  1   
 41  23  40  1   
 42  23  41  1   
 43  24  25  1   
 44  24  42  1   
 45  24  43  1   
 46  25  44  1   
 47  25  45  1   
@<TRIPOS>SUBSTRUCTURE
  1 ****  11 GROUP 4 **** **** 0

# MOE 2024.06 (io_trps.svl 2023.06)
