@<TRIPOS>MOLECULE
8-(3-Methoxy-propyl)-1,6,7-trimethyl-3-phenethyl-1H,8H-imidazo[2,1-f]purine-2,4-
58 61 1 0 0 
SMALL
USER_CHARGES


@<TRIPOS>ATOM
  1 O        1.2850    -0.1640     1.2150 O.2   1 <1>  -0.5740 
  2 C        2.0850     0.7210     0.9910 C.2   1 <1>   0.6870 
  3 N        1.6600     2.0430     0.9010 N.am  1 <1>  -0.4250 
  4 N        3.4270     0.4090     0.8190 N.am  1 <1>  -0.4410 
  5 C        2.5510     3.0710     0.6190 C.2   1 <1>   0.7000 
  6 C        0.2130     2.3610     1.1110 C.3   1 <1>   0.1340 
  7 C        4.3110     1.4410     0.5810 C.2   1 <1>   0.4210 
  8 C        3.9080    -1.0020     0.9030 C.3   1 <1>   0.0530 
  9 O        2.1580     4.2200     0.4980 O.2   1 <1>  -0.5740 
 10 C        3.9300     2.7380     0.4700 C.2   1 <1>   0.2720 
 11 C       -0.5550     2.2780    -0.2100 C.3   1 <1>  -0.0230 
 12 N        5.6580     1.3560     0.4100 N.pl3 1 <1>  -0.7030 
 13 N        5.1030     3.4700     0.2070 N.pl3 1 <1>  -0.6320 
 14 C       -2.0170     2.6120     0.0280 C.ar  1 <1>  -0.1500 
 15 C        6.0960     2.5910     0.1820 C.cat 1 <1>   1.0690 
 16 C        5.6610     4.7030    -0.0600 C.2   1 <1>   0.2350 
 17 C       -2.4670     3.9170    -0.0930 C.ar  1 <1>  -0.1560 
 18 C       -2.9120     1.6120     0.3770 C.ar  1 <1>  -0.1560 
 19 N        7.2720     3.1680    -0.0820 N.pl3 1 <1>  -0.5710 
 20 C        6.9930     4.5180    -0.2370 C.2   1 <1>   0.1590 
 21 C        4.7940     5.9460    -0.1110 C.3   1 <1>  -0.1080 
 22 C       -3.7990     4.2210     0.1310 C.ar  1 <1>  -0.1560 
 23 C       -4.2440     1.9150     0.6010 C.ar  1 <1>  -0.1560 
 24 C        8.5910     2.4840    -0.1550 C.3   1 <1>   0.1620 
 25 C        8.0810     5.5300    -0.5550 C.3   1 <1>  -0.1080 
 26 C       -4.6880     3.2190     0.4780 C.ar  1 <1>  -0.1560 
 27 C        8.6360     1.4790    -1.3170 C.3   1 <1>  -0.1660 
 28 C        8.8070     0.0290    -0.8510 C.3   1 <1>   0.1140 
 29 O        7.7660    -0.3090     0.0130 O.3   1 <1>  -0.5640 
 30 C        7.8860    -1.6030     0.5220 C.3   1 <1>   0.0330 
 31 H        0.1070     3.3490     1.5250 H     1 <1>   0.0730 
 32 H       -0.2170     1.6720     1.8180 H     1 <1>   0.0730 
 33 H        3.1020    -1.6900     0.7110 H     1 <1>   0.0730 
 34 H        4.2960    -1.1940     1.8880 H     1 <1>   0.0730 
 35 H        4.6790    -1.1790     0.1740 H     1 <1>   0.0730 
 36 H       -0.4780     1.2850    -0.6160 H     1 <1>   0.0730 
 37 H       -0.1420     2.9720    -0.9200 H     1 <1>   0.0730 
 38 H        6.2900     0.5430     0.3580 H     1 <1>   0.4460 
 39 H       -1.7850     4.7050    -0.3620 H     1 <1>   0.1440 
 40 H       -2.5770     0.5940     0.4760 H     1 <1>   0.1440 
 41 H        4.0460     5.8410    -0.8760 H     1 <1>   0.0730 
 42 H        5.3810     6.8190    -0.3230 H     1 <1>   0.0730 
 43 H        4.2990     6.0870     0.8340 H     1 <1>   0.0730 
 44 H       -4.1420     5.2350     0.0350 H     1 <1>   0.1440 
 45 H       -4.9330     1.1350     0.8720 H     1 <1>   0.1440 
 46 H        8.7830     1.9860     0.7820 H     1 <1>   0.0730 
 47 H        9.3700     3.2140    -0.2920 H     1 <1>   0.0730 
 48 H        8.5670     5.2720    -1.4790 H     1 <1>   0.0730 
 49 H        8.8130     5.5460     0.2330 H     1 <1>   0.0730 
 50 H        7.6710     6.5180    -0.6540 H     1 <1>   0.0730 
 51 H       -5.7230     3.4550     0.6530 H     1 <1>   0.1440 
 52 H        9.4860     1.7160    -1.9310 H     1 <1>   0.0730 
 53 H        7.7680     1.5570    -1.9470 H     1 <1>   0.0730 
 54 H        9.7420    -0.0870    -0.3280 H     1 <1>   0.0730 
 55 H        8.7870    -0.6410    -1.6960 H     1 <1>   0.0730 
 56 H        7.8640    -2.3100    -0.2910 H     1 <1>   0.0730 
 57 H        7.0620    -1.7900     1.1870 H     1 <1>   0.0730 
 58 H        8.8120    -1.6890     1.0660 H     1 <1>   0.0730 
@<TRIPOS>BOND
  1   1   2  2   
  2   2   3  am  
  3   2   4  am  
  4   3   5  am  
  5   3   6  1   
  6   4   7  1   
  7   4   8  1   
  8   5   9  2   
  9   5  10  1   
 10   6  11  1   
 11   6  31  1   
 12   6  32  1   
 13   7  10  2   
 14   7  12  1   
 15   8  33  1   
 16   8  34  1   
 17   8  35  1   
 18  10  13  1   
 19  11  14  1   
 20  11  36  1   
 21  11  37  1   
 22  12  15  ar  
 23  12  38  1   
 24  13  15  ar  
 25  13  16  1   
 26  14  17  ar  
 27  14  18  ar  
 28  15  19  ar  
 29  16  20  2   
 30  16  21  1   
 31  17  22  ar  
 32  17  39  1   
 33  18  23  ar  
 34  18  40  1   
 35  19  20  1   
 36  19  24  1   
 37  20  25  1   
 38  21  41  1   
 39  21  42  1   
 40  21  43  1   
 41  22  26  ar  
 42  22  44  1   
 43  23  26  ar  
 44  23  45  1   
 45  24  27  1   
 46  24  46  1   
 47  24  47  1   
 48  25  48  1   
 49  25  49  1   
 50  25  50  1   
 51  26  51  1   
 52  27  28  1   
 53  27  52  1   
 54  27  53  1   
 55  28  29  1   
 56  28  54  1   
 57  28  55  1   
 58  29  30  1   
 59  30  56  1   
 60  30  57  1   
 61  30  58  1   
@<TRIPOS>SUBSTRUCTURE
  1 ****  10 GROUP 4 **** **** 0

# MOE 2024.06 (io_trps.svl 2023.06)
