@<TRIPOS>MOLECULE
N-[2-(4-Ethyl-piperazin-1-yl)-2-oxo-ethyl]-N-phenethyl-methanesulfonamide
52 53 1 0 0 
SMALL
USER_CHARGES


@<TRIPOS>ATOM
  1 S        0.1650    -0.7330    -0.7790 S.o2  1 <1>   1.3330 
  2 O        1.3190    -1.3360    -1.4070 O.2   1 <1>  -0.6500 
  3 O       -0.9810    -0.4050    -1.5930 O.2   1 <1>  -0.6500 
  4 N       -0.3310    -1.7560     0.4800 N.am  1 <1>  -0.8490 
  5 C        0.6550     0.7460     0.0840 C.3   1 <1>  -0.1350 
  6 C        0.7190    -2.6960     0.9530 C.3   1 <1>   0.2570 
  7 C       -1.6060    -2.4470     0.2300 C.3   1 <1>   0.1960 
  8 C        2.0100    -2.0470     1.5070 C.2   1 <1>   0.5690 
  9 C       -2.7870    -1.5870     0.6900 C.3   1 <1>  -0.0160 
 10 O        1.8920    -1.3910     2.5160 O.2   1 <1>  -0.5700 
 11 N        3.2600    -2.1870     0.9300 N.am  1 <1>  -0.6600 
 12 C       -4.0880    -2.3420     0.4740 C.ar  1 <1>  -0.1430 
 13 C        4.4310    -1.4340     1.4910 C.3   1 <1>   0.1400 
 14 C        3.5660    -2.9020    -0.3540 C.3   1 <1>   0.1400 
 15 C       -4.6940    -2.3310    -0.7720 C.ar  1 <1>  -0.1500 
 16 C       -4.6750    -3.0500     1.5110 C.ar  1 <1>  -0.1500 
 17 C        5.6860    -2.3200     1.5850 C.3   1 <1>   0.3430 
 18 C        4.8430    -3.7580    -0.2460 C.3   1 <1>   0.3430 
 19 C       -5.8750    -3.0230    -0.9810 C.ar  1 <1>  -0.1500 
 20 C       -5.8560    -3.7410     1.3030 C.ar  1 <1>  -0.1500 
 21 N        6.0190    -2.9680     0.2690 N.4   1 <1>  -0.9590 
 22 C       -6.4560    -3.7290     0.0570 C.ar  1 <1>  -0.1500 
 23 C        7.2490    -3.7950     0.3880 C.3   1 <1>   0.3430 
 24 C        7.7860    -4.1210    -1.0010 C.3   1 <1>  -0.2400 
 25 H        1.4660     0.5450     0.7530 H     1 <1>   0.0800 
 26 H       -0.1710     1.1270     0.6520 H     1 <1>   0.0800 
 27 H        0.9630     1.4950    -0.6180 H     1 <1>   0.0800 
 28 H        0.9420    -3.3900     0.1680 H     1 <1>   0.0800 
 29 H        0.3120    -3.2680     1.7670 H     1 <1>   0.0800 
 30 H       -1.6470    -3.3690     0.7840 H     1 <1>   0.0800 
 31 H       -1.7060    -2.6920    -0.8150 H     1 <1>   0.0800 
 32 H       -2.8220    -0.6650     0.1390 H     1 <1>   0.0800 
 33 H       -2.6720    -1.3500     1.7320 H     1 <1>   0.0800 
 34 H        4.2100    -1.0600     2.4760 H     1 <1>   0.0800 
 35 H        4.6340    -0.5830     0.8640 H     1 <1>   0.0800 
 36 H        3.6970    -2.1730    -1.1360 H     1 <1>   0.0800 
 37 H        2.7560    -3.5400    -0.6510 H     1 <1>   0.0800 
 38 H       -4.2470    -1.7830    -1.5850 H     1 <1>   0.1500 
 39 H       -4.2180    -3.0660     2.4850 H     1 <1>   0.1500 
 40 H        5.5110    -3.0790     2.3310 H     1 <1>   0.0800 
 41 H        6.5150    -1.7170     1.9170 H     1 <1>   0.0800 
 42 H        5.0700    -4.1620    -1.2180 H     1 <1>   0.0800 
 43 H        4.6460    -4.5840     0.4170 H     1 <1>   0.0800 
 44 H       -6.3400    -3.0100    -1.9520 H     1 <1>   0.1500 
 45 H       -6.3090    -4.2890     2.1120 H     1 <1>   0.1500 
 46 H        6.2100    -2.2160    -0.4080 H     1 <1>   0.4500 
 47 H       -7.3750    -4.2650    -0.1050 H     1 <1>   0.1500 
 48 H        7.0390    -4.7040     0.9300 H     1 <1>   0.0800 
 49 H        8.0040    -3.2470     0.9310 H     1 <1>   0.0800 
 50 H        7.1100    -4.7510    -1.5490 H     1 <1>   0.0800 
 51 H        8.7150    -4.6550    -0.9000 H     1 <1>   0.0800 
 52 H        7.9820    -3.2230    -1.5580 H     1 <1>   0.0800 
@<TRIPOS>BOND
  1   1   2  2   
  2   1   3  2   
  3   1   4  am  
  4   1   5  1   
  5   4   6  1   
  6   4   7  1   
  7   5  25  1   
  8   5  26  1   
  9   5  27  1   
 10   6   8  1   
 11   6  28  1   
 12   6  29  1   
 13   7   9  1   
 14   7  30  1   
 15   7  31  1   
 16   8  10  2   
 17   8  11  am  
 18   9  12  1   
 19   9  32  1   
 20   9  33  1   
 21  11  13  1   
 22  11  14  1   
 23  12  15  ar  
 24  12  16  ar  
 25  13  17  1   
 26  13  34  1   
 27  13  35  1   
 28  14  18  1   
 29  14  36  1   
 30  14  37  1   
 31  15  19  ar  
 32  15  38  1   
 33  16  20  ar  
 34  16  39  1   
 35  17  21  1   
 36  17  40  1   
 37  17  41  1   
 38  18  21  1   
 39  18  42  1   
 40  18  43  1   
 41  19  22  ar  
 42  19  44  1   
 43  20  22  ar  
 44  20  45  1   
 45  21  23  1   
 46  21  46  1   
 47  22  47  1   
 48  23  24  1   
 49  23  48  1   
 50  23  49  1   
 51  24  50  1   
 52  24  51  1   
 53  24  52  1   
@<TRIPOS>SUBSTRUCTURE
  1 ****   6 GROUP 4 **** **** 0

# MOE 2024.06 (io_trps.svl 2023.06)
