@<TRIPOS>MOLECULE
5-Amino-7-(4-methoxy-phenyl)-2-methyl-3-oxo-2,3-dihydro-7H-thiazolo[3,2-a]pyridi
51 53 1 0 0 
SMALL
USER_CHARGES


@<TRIPOS>ATOM
  1 S        0.2010     0.0150     0.8550 S.3   1 <1>  -0.3310 
  2 C        1.4840     1.1440     0.3710 C.2   1 <1>   0.2100 
  3 C        1.1910    -0.8630     2.1120 C.3   1 <1>   0.2110 
  4 N        2.6490     0.8460     1.0730 N.am  1 <1>  -0.2780 
  5 C        1.3280     2.1320    -0.5410 C.2   1 <1>  -0.1240 
  6 C        2.5210    -0.1200     2.0790 C.2   1 <1>   0.5690 
  7 C        1.2690    -2.3380     1.7010 C.3   1 <1>  -0.2400 
  8 C        3.8380     1.4710     0.6670 C.2   1 <1>   0.2090 
  9 C        0.1380     2.4820    -1.2570 C.2   1 <1>   0.7060 
 10 C        2.5380     3.0160    -0.8270 C.3   1 <1>   0.3400 
 11 O        3.3580    -0.3850     2.9130 O.2   1 <1>  -0.5700 
 12 N        4.9810     0.9760     1.2170 N.pl3 1 <1>  -0.9000 
 13 C        3.8560     2.4920    -0.2500 C.2   1 <1>  -0.1240 
 14 O       -0.9830     2.1580    -0.9210 O.2   1 <1>  -0.5700 
 15 O        0.2630     3.2200    -2.3680 O.3   1 <1>  -0.4300 
 16 C        2.2690     4.4110    -0.2560 C.ar  1 <1>  -0.1440 
 17 C        5.0030     3.1650    -0.7580 C.2   1 <1>   0.7060 
 18 C       -0.8630     3.6600    -3.1030 C.3   1 <1>   0.0400 
 19 C        2.2680     5.5210    -1.0890 C.ar  1 <1>  -0.1500 
 20 C        2.0220     4.5870     1.1000 C.ar  1 <1>  -0.1500 
 21 O        4.9770     3.8650    -1.7600 O.2   1 <1>  -0.5700 
 22 O        6.1860     3.0370    -0.1340 O.3   1 <1>  -0.4300 
 23 C        2.0180     6.7810    -0.5770 C.ar  1 <1>  -0.1500 
 24 C        1.7710     5.8470     1.6140 C.ar  1 <1>  -0.1500 
 25 C        7.3390     3.7060    -0.5950 C.3   1 <1>   0.1200 
 26 C        1.7670     6.9550     0.7730 C.ar  1 <1>   0.0820 
 27 C        8.4990     3.3340     0.3230 C.3   1 <1>  -0.2400 
 28 O        1.5290     8.2220     1.1930 O.3   1 <1>  -0.3620 
 29 C        1.2560     8.5060     2.5470 C.3   1 <1>   0.0400 
 30 H        0.7050    -0.7330     3.0620 H     1 <1>   0.0800 
 31 H        1.7150    -2.4330     0.7270 H     1 <1>   0.0800 
 32 H        0.2830    -2.7680     1.6810 H     1 <1>   0.0800 
 33 H        1.8690    -2.8820     2.4090 H     1 <1>   0.0800 
 34 H        2.6550     3.0730    -1.8960 H     1 <1>   0.0800 
 35 H        5.8900     1.4420     1.0910 H     1 <1>   0.4000 
 36 H        4.9240     0.3310     2.0230 H     1 <1>   0.4000 
 37 H       -1.4770     4.2710    -2.4640 H     1 <1>   0.0800 
 38 H       -1.4170     2.8010    -3.4410 H     1 <1>   0.0800 
 39 H       -0.5190     4.2350    -3.9440 H     1 <1>   0.0800 
 40 H        2.4660     5.4120    -2.1420 H     1 <1>   0.1500 
 41 H        2.0230     3.7430     1.7690 H     1 <1>   0.1500 
 42 H        2.0180     7.6400    -1.2230 H     1 <1>   0.1500 
 43 H        1.5830     5.9450     2.6660 H     1 <1>   0.1500 
 44 H        7.1510     4.7660    -0.5710 H     1 <1>   0.0800 
 45 H        7.5340     3.3950    -1.6090 H     1 <1>   0.0800 
 46 H        8.2860     3.6390     1.3320 H     1 <1>   0.0800 
 47 H        9.3930     3.8340    -0.0030 H     1 <1>   0.0800 
 48 H        8.6710     2.2730     0.2940 H     1 <1>   0.0800 
 49 H        1.0980     9.5650     2.6410 H     1 <1>   0.0800 
 50 H        2.1010     8.2090     3.1430 H     1 <1>   0.0800 
 51 H        0.3680     7.9760     2.8430 H     1 <1>   0.0800 
@<TRIPOS>BOND
  1   1   2  1   
  2   1   3  1   
  3   2   4  1   
  4   2   5  2   
  5   3   6  1   
  6   3   7  1   
  7   3  30  1   
  8   4   6  am  
  9   4   8  1   
 10   5   9  1   
 11   5  10  1   
 12   6  11  2   
 13   7  31  1   
 14   7  32  1   
 15   7  33  1   
 16   8  12  1   
 17   8  13  2   
 18   9  14  2   
 19   9  15  1   
 20  10  13  1   
 21  10  16  1   
 22  10  34  1   
 23  12  35  1   
 24  12  36  1   
 25  13  17  1   
 26  15  18  1   
 27  16  19  ar  
 28  16  20  ar  
 29  17  21  2   
 30  17  22  1   
 31  18  37  1   
 32  18  38  1   
 33  18  39  1   
 34  19  23  ar  
 35  19  40  1   
 36  20  24  ar  
 37  20  41  1   
 38  22  25  1   
 39  23  26  ar  
 40  23  42  1   
 41  24  26  ar  
 42  24  43  1   
 43  25  27  1   
 44  25  44  1   
 45  25  45  1   
 46  26  28  1   
 47  27  46  1   
 48  27  47  1   
 49  27  48  1   
 50  28  29  1   
 51  29  49  1   
 52  29  50  1   
 53  29  51  1   
@<TRIPOS>SUBSTRUCTURE
  1 ****  10 GROUP 4 **** **** 0

# MOE 2024.06 (io_trps.svl 2023.06)
