@<TRIPOS>MOLECULE
N-[4-(2-Ethyl-piperidin-1-ylmethyl)-phenyl]-succinamic acid
49 50 1 0 0 
SMALL
USER_CHARGES


@<TRIPOS>ATOM
  1 O       -3.3990    -1.0860    -1.9590 O.co2 1 <1>  -0.9000 
  2 C       -2.3440    -0.8180    -1.3740 C.2   1 <1>   0.9060 
  3 O       -1.7610     0.2570    -1.5020 O.co2 1 <1>  -0.9000 
  4 C       -1.7850    -1.8410    -0.4160 C.3   1 <1>  -0.2660 
  5 C       -2.4430    -1.7790     0.9830 C.3   1 <1>  -0.0990 
  6 C       -3.8140    -2.4360     1.1160 C.2   1 <1>   0.5690 
  7 O       -4.0720    -2.9880     2.1590 O.2   1 <1>  -0.5700 
  8 N       -4.6880    -2.3670     0.0710 N.am  1 <1>  -0.5470 
  9 C       -5.9860    -2.8450    -0.1420 C.ar  1 <1>   0.1170 
 10 C       -6.5820    -2.5640    -1.3630 C.ar  1 <1>  -0.1500 
 11 C       -6.7090    -3.5830     0.7890 C.ar  1 <1>  -0.1500 
 12 C       -7.8660    -2.9910    -1.6480 C.ar  1 <1>  -0.1500 
 13 C       -7.9930    -4.0150     0.5130 C.ar  1 <1>  -0.1500 
 14 C       -8.5860    -3.7120    -0.7050 C.ar  1 <1>  -0.1430 
 15 C      -10.0060    -4.1540    -0.9980 C.3   1 <1>   0.4860 
 16 N      -10.9490    -3.3450    -0.1730 N.4   1 <1>  -0.9590 
 17 C      -12.3790    -3.7800    -0.2430 C.3   1 <1>   0.4230 
 18 C      -10.7910    -1.8890    -0.4820 C.3   1 <1>   0.3430 
 19 C      -13.1880    -2.9650     0.7780 C.3   1 <1>  -0.1600 
 20 C      -12.5500    -5.2880     0.0370 C.3   1 <1>  -0.1600 
 21 C      -11.5770    -1.0520     0.5260 C.3   1 <1>  -0.1600 
 22 C      -13.0540    -1.4530     0.5570 C.3   1 <1>  -0.1600 
 23 C      -12.5400    -6.1650    -1.2290 C.3   1 <1>  -0.2400 
 24 H       -0.7350    -1.6380    -0.3210 H     1 <1>   0.0800 
 25 H       -1.8990    -2.8180    -0.8450 H     1 <1>   0.0800 
 26 H       -2.5300    -0.7510     1.2860 H     1 <1>   0.0800 
 27 H       -1.7870    -2.2640     1.6820 H     1 <1>   0.0800 
 28 H       -4.2960    -1.8610    -0.7490 H     1 <1>   0.3700 
 29 H       -6.0190    -2.0010    -2.0920 H     1 <1>   0.1500 
 30 H       -6.2640    -3.8240     1.7370 H     1 <1>   0.1500 
 31 H       -8.2860    -2.7500    -2.6100 H     1 <1>   0.1500 
 32 H       -8.5120    -4.5880     1.2610 H     1 <1>   0.1500 
 33 H      -10.0940    -5.1980    -0.7470 H     1 <1>   0.0800 
 34 H      -10.2260    -4.0320    -2.0450 H     1 <1>   0.0800 
 35 H      -10.6440    -3.4610     0.7990 H     1 <1>   0.4500 
 36 H      -12.7700    -3.5670    -1.2250 H     1 <1>   0.0800 
 37 H      -11.1490    -1.6860    -1.4780 H     1 <1>   0.0800 
 38 H       -9.7510    -1.6050    -0.4310 H     1 <1>   0.0800 
 39 H      -12.8690    -3.2150     1.7760 H     1 <1>   0.0800 
 40 H      -14.2290    -3.2270     0.6990 H     1 <1>   0.0800 
 41 H      -13.5120    -5.4460     0.4950 H     1 <1>   0.0800 
 42 H      -11.8160    -5.6310     0.7460 H     1 <1>   0.0800 
 43 H      -11.4940    -0.0130     0.2580 H     1 <1>   0.0800 
 44 H      -11.1400    -1.1670     1.5030 H     1 <1>   0.0800 
 45 H      -13.5620    -0.9210     1.3450 H     1 <1>   0.0800 
 46 H      -13.5220    -1.1820    -0.3750 H     1 <1>   0.0800 
 47 H      -13.3100    -5.8460    -1.9110 H     1 <1>   0.0800 
 48 H      -12.7480    -7.1870    -0.9590 H     1 <1>   0.0800 
 49 H      -11.6000    -6.1510    -1.7460 H     1 <1>   0.0800 
@<TRIPOS>BOND
  1   1   2  ar  
  2   2   3  ar  
  3   2   4  1   
  4   4   5  1   
  5   4  24  1   
  6   4  25  1   
  7   5   6  1   
  8   5  26  1   
  9   5  27  1   
 10   6   7  2   
 11   6   8  am  
 12   8   9  1   
 13   8  28  1   
 14   9  10  ar  
 15   9  11  ar  
 16  10  12  ar  
 17  10  29  1   
 18  11  13  ar  
 19  11  30  1   
 20  12  14  ar  
 21  12  31  1   
 22  13  14  ar  
 23  13  32  1   
 24  14  15  1   
 25  15  16  1   
 26  15  33  1   
 27  15  34  1   
 28  16  17  1   
 29  16  18  1   
 30  16  35  1   
 31  17  19  1   
 32  17  20  1   
 33  17  36  1   
 34  18  21  1   
 35  18  37  1   
 36  18  38  1   
 37  19  22  1   
 38  19  39  1   
 39  19  40  1   
 40  20  23  1   
 41  20  41  1   
 42  20  42  1   
 43  21  22  1   
 44  21  43  1   
 45  21  44  1   
 46  22  45  1   
 47  22  46  1   
 48  23  47  1   
 49  23  48  1   
 50  23  49  1   
@<TRIPOS>SUBSTRUCTURE
  1 ****  14 GROUP 4 **** **** 0

# MOE 2024.06 (io_trps.svl 2023.06)
