@<TRIPOS>MOLECULE
N-(3-Chloro-4-fluoro-phenyl)-2-pyrrolidin-1-yl-acetamide
32 33 1 0 0 
SMALL
USER_CHARGES


@<TRIPOS>ATOM
  1 CL       0.1980    -0.3930     0.3440 Cl    1 <1>  -0.1770 
  2 C        1.5270     0.7180     0.1000 C.ar  1 <1>   0.1770 
  3 C        1.2990     2.0330    -0.2650 C.ar  1 <1>   0.1900 
  4 C        2.8210     0.2660     0.2770 C.ar  1 <1>  -0.1500 
  5 F        0.0750     2.4660    -0.4340 F     1 <1>  -0.1900 
  6 C        2.3470     2.9130    -0.4560 C.ar  1 <1>  -0.1500 
  7 C        3.8980     1.1290     0.0880 C.ar  1 <1>   0.1170 
  8 C        3.6420     2.4540    -0.2760 C.ar  1 <1>  -0.1500 
  9 N        5.1970     0.6300     0.2880 N.am  1 <1>  -0.5470 
 10 C        6.3850     1.0380    -0.2690 C.2   1 <1>   0.5690 
 11 O        6.4660     1.9340    -1.0760 O.2   1 <1>  -0.5700 
 12 C        7.7010     0.3380     0.1270 C.3   1 <1>   0.4040 
 13 N        8.9370     1.1220    -0.2510 N.4   1 <1>  -0.9590 
 14 C       10.2160     0.3790    -0.1760 C.3   1 <1>   0.3430 
 15 C        9.1190     2.3690     0.5310 C.3   1 <1>   0.3430 
 16 C       11.2820     1.4660    -0.1500 C.3   1 <1>  -0.1600 
 17 C       10.5700     2.7530     0.2810 C.3   1 <1>  -0.1600 
 18 H        2.9760    -0.7590     0.5570 H     1 <1>   0.1500 
 19 H        2.1500     3.9320    -0.7390 H     1 <1>   0.1500 
 20 H        4.4540     3.1440    -0.4200 H     1 <1>   0.1500 
 21 H        5.2200    -0.1940     0.8910 H     1 <1>   0.3700 
 22 H        7.7230    -0.6150    -0.3730 H     1 <1>   0.0800 
 23 H        7.6970     0.1610     1.1880 H     1 <1>   0.0800 
 24 H        8.7920     1.4360    -1.2260 H     1 <1>   0.4500 
 25 H       10.3440    -0.2850    -1.0170 H     1 <1>   0.0800 
 26 H       10.2590    -0.1870     0.7410 H     1 <1>   0.0800 
 27 H        8.9730     2.1720     1.5810 H     1 <1>   0.0800 
 28 H        8.4380     3.1430     0.2100 H     1 <1>   0.0800 
 29 H       11.7080     1.5840    -1.1310 H     1 <1>   0.0800 
 30 H       12.0710     1.1990     0.5330 H     1 <1>   0.0800 
 31 H       11.0070     3.1760     1.1700 H     1 <1>   0.0800 
 32 H       10.6190     3.4890    -0.5040 H     1 <1>   0.0800 
@<TRIPOS>BOND
  1   1   2  1   
  2   2   3  ar  
  3   2   4  ar  
  4   3   5  1   
  5   3   6  ar  
  6   4   7  ar  
  7   4  18  1   
  8   6   8  ar  
  9   6  19  1   
 10   7   8  ar  
 11   7   9  1   
 12   8  20  1   
 13   9  10  am  
 14   9  21  1   
 15  10  11  2   
 16  10  12  1   
 17  12  13  1   
 18  12  22  1   
 19  12  23  1   
 20  13  14  1   
 21  13  15  1   
 22  13  24  1   
 23  14  16  1   
 24  14  25  1   
 25  14  26  1   
 26  15  17  1   
 27  15  27  1   
 28  15  28  1   
 29  16  17  1   
 30  16  29  1   
 31  16  30  1   
 32  17  31  1   
 33  17  32  1   
@<TRIPOS>SUBSTRUCTURE
  1 ****   9 GROUP 4 **** **** 0

# MOE 2024.06 (io_trps.svl 2023.06)
