@<TRIPOS>MOLECULE
2-(5-Amino-[1,3,4]thiadiazol-2-ylsulfanyl)-N-(2,6-dimethyl-phenyl)-butyramide
39 40 1 0 0 
SMALL
USER_CHARGES


@<TRIPOS>ATOM
  1 S       -1.1890     0.2790    -1.2450 S.3   1 <1>  -0.0800 
  2 C        0.3300     0.1770    -0.4330 C.2   1 <1>   0.4340 
  3 C       -1.4880     1.6790    -0.2630 C.2   1 <1>   0.4620 
  4 S        1.3940    -1.1790    -0.9110 S.3   1 <1>  -0.2860 
  5 N        0.5310     1.0840     0.4360 N.2   1 <1>  -0.3380 
  6 N       -0.5210     1.9550     0.5370 N.2   1 <1>  -0.3380 
  7 N       -2.6690     2.3420    -0.4110 N.pl3 1 <1>  -0.8840 
  8 C        2.9160    -0.9530     0.1330 C.3   1 <1>   0.2110 
  9 C        4.1570    -1.0600    -0.7710 C.2   1 <1>   0.5690 
 10 C        2.8320    -1.9040     1.3470 C.3   1 <1>  -0.1600 
 11 O        4.6010    -0.0370    -1.2320 O.2   1 <1>  -0.5700 
 12 N        4.8000    -2.2230    -1.0850 N.am  1 <1>  -0.5470 
 13 C        1.7400    -1.5110     2.3530 C.3   1 <1>  -0.2400 
 14 C        4.6450    -3.5320    -0.6140 C.ar  1 <1>   0.1170 
 15 C        3.7020    -4.3990    -1.1750 C.ar  1 <1>  -0.1430 
 16 C        5.4600    -3.9820     0.4280 C.ar  1 <1>  -0.1430 
 17 C        3.5590    -5.6770    -0.6640 C.ar  1 <1>  -0.1500 
 18 C        2.8080    -4.0120    -2.3480 C.3   1 <1>  -0.0970 
 19 C        5.3010    -5.2660     0.9220 C.ar  1 <1>  -0.1500 
 20 C        6.5380    -3.0900     1.0350 C.3   1 <1>  -0.0970 
 21 C        4.3500    -6.1110     0.3830 C.ar  1 <1>  -0.1500 
 22 H       -2.8560     3.1830     0.1390 H     1 <1>   0.4000 
 23 H       -3.3720     2.0680    -1.0990 H     1 <1>   0.4000 
 24 H        2.8860     0.0600     0.4900 H     1 <1>   0.0800 
 25 H        3.7770    -1.8910     1.8570 H     1 <1>   0.0800 
 26 H        2.6500    -2.9090     1.0130 H     1 <1>   0.0800 
 27 H        5.5990    -2.0710    -1.6990 H     1 <1>   0.3700 
 28 H        0.7620    -1.5990     1.9130 H     1 <1>   0.0800 
 29 H        1.8780    -0.4970     2.6870 H     1 <1>   0.0800 
 30 H        1.7810    -2.1610     3.2090 H     1 <1>   0.0800 
 31 H        2.8280    -6.3470    -1.0820 H     1 <1>   0.1500 
 32 H        3.1190    -3.0950    -2.8130 H     1 <1>   0.0800 
 33 H        1.7950    -3.8990    -2.0090 H     1 <1>   0.0800 
 34 H        2.8340    -4.7850    -3.0950 H     1 <1>   0.0800 
 35 H        5.9180    -5.6210     1.7290 H     1 <1>   0.1500 
 36 H        7.2820    -2.8620     0.2930 H     1 <1>   0.0800 
 37 H        7.0230    -3.5750     1.8620 H     1 <1>   0.0800 
 38 H        6.1110    -2.1690     1.3890 H     1 <1>   0.0800 
 39 H        4.2300    -7.1060     0.7730 H     1 <1>   0.1500 
@<TRIPOS>BOND
  1   1   2  1   
  2   1   3  1   
  3   2   4  1   
  4   2   5  2   
  5   3   6  2   
  6   3   7  1   
  7   4   8  1   
  8   5   6  1   
  9   7  22  1   
 10   7  23  1   
 11   8   9  1   
 12   8  10  1   
 13   8  24  1   
 14   9  11  2   
 15   9  12  am  
 16  10  13  1   
 17  10  25  1   
 18  10  26  1   
 19  12  14  1   
 20  12  27  1   
 21  13  28  1   
 22  13  29  1   
 23  13  30  1   
 24  14  15  ar  
 25  14  16  ar  
 26  15  17  ar  
 27  15  18  1   
 28  16  19  ar  
 29  16  20  1   
 30  17  21  ar  
 31  17  31  1   
 32  18  32  1   
 33  18  33  1   
 34  18  34  1   
 35  19  21  ar  
 36  19  35  1   
 37  20  36  1   
 38  20  37  1   
 39  20  38  1   
 40  21  39  1   
@<TRIPOS>SUBSTRUCTURE
  1 ****   8 GROUP 4 **** **** 0

# MOE 2024.06 (io_trps.svl 2023.06)
