@<TRIPOS>MOLECULE
[4-(4-Methyl-benzoyl)-piperazin-1-yl]-morpholin-4-yl-methanone
46 48 1 0 0 
SMALL
USER_CHARGES


@<TRIPOS>ATOM
  1 O       -0.9960     0.2720    -0.3170 O.2   1 <1>  -0.5700 
  2 C       -1.2730     1.3710     0.1320 C.2   1 <1>   0.6900 
  3 N       -0.3190     2.3530     0.1670 N.am  1 <1>  -0.6600 
  4 N       -2.5440     1.6150     0.5810 N.am  1 <1>  -0.6600 
  5 C       -0.2540     3.3860     1.2390 C.3   1 <1>   0.1400 
  6 C        0.9580     2.2110    -0.5850 C.3   1 <1>   0.1400 
  7 C       -3.3120     2.7850     0.0570 C.3   1 <1>   0.1400 
  8 C       -3.4110     0.4790     1.0110 C.3   1 <1>   0.1400 
  9 C        0.3170     4.7010     0.6820 C.3   1 <1>   0.1200 
 10 C        1.4740     3.5880    -1.0360 C.3   1 <1>   0.1200 
 11 C       -4.2600     2.3540    -1.0710 C.3   1 <1>   0.1400 
 12 C       -4.3680     0.0520    -0.1140 C.3   1 <1>   0.1400 
 13 O        1.5440     4.4770     0.0460 O.3   1 <1>  -0.5600 
 14 N       -5.1380     1.2290    -0.6260 N.am  1 <1>  -0.6600 
 15 C       -6.4930     1.3980    -0.4340 C.2   1 <1>   0.5440 
 16 O       -6.9430     2.5280    -0.4230 O.2   1 <1>  -0.5700 
 17 C       -7.3860     0.2720    -0.2270 C.ar  1 <1>   0.0860 
 18 C       -8.3140     0.2760     0.8120 C.ar  1 <1>  -0.1500 
 19 C       -7.3560    -0.8500    -1.0560 C.ar  1 <1>  -0.1500 
 20 C       -9.1620    -0.7960     1.0270 C.ar  1 <1>  -0.1500 
 21 C       -8.2010    -1.9250    -0.8460 C.ar  1 <1>  -0.1500 
 22 C       -9.1100    -1.9040     0.1990 C.ar  1 <1>  -0.1440 
 23 C      -10.0390    -3.0820     0.4340 C.3   1 <1>  -0.0970 
 24 H        0.3870     3.0320     2.0280 H     1 <1>   0.0800 
 25 H       -1.2270     3.5620     1.6610 H     1 <1>   0.0800 
 26 H        0.8100     1.5840    -1.4470 H     1 <1>   0.0800 
 27 H        1.6920     1.7420     0.0470 H     1 <1>   0.0800 
 28 H       -2.6380     3.5330    -0.3210 H     1 <1>   0.0800 
 29 H       -3.8860     3.2210     0.8560 H     1 <1>   0.0800 
 30 H       -3.9840     0.7800     1.8700 H     1 <1>   0.0800 
 31 H       -2.8000    -0.3590     1.2990 H     1 <1>   0.0800 
 32 H        0.4850     5.4000     1.4810 H     1 <1>   0.0800 
 33 H       -0.3640     5.1400    -0.0260 H     1 <1>   0.0800 
 34 H        0.8230     4.0070    -1.7840 H     1 <1>   0.0800 
 35 H        2.4620     3.4960    -1.4500 H     1 <1>   0.0800 
 36 H       -3.6790     2.0310    -1.9170 H     1 <1>   0.0800 
 37 H       -4.8520     3.1960    -1.3840 H     1 <1>   0.0800 
 38 H       -5.0290    -0.7070     0.2640 H     1 <1>   0.0800 
 39 H       -3.7950    -0.3760    -0.9190 H     1 <1>   0.0800 
 40 H       -8.3670     1.1380     1.4540 H     1 <1>   0.1500 
 41 H       -6.6610    -0.8720    -1.8770 H     1 <1>   0.1500 
 42 H       -9.8650    -0.7610     1.8410 H     1 <1>   0.1500 
 43 H       -8.1520    -2.7770    -1.5010 H     1 <1>   0.1500 
 44 H      -10.9660    -2.7490     0.8650 H     1 <1>   0.0800 
 45 H       -9.5760    -3.7830     1.1050 H     1 <1>   0.0800 
 46 H      -10.2570    -3.5810    -0.4930 H     1 <1>   0.0800 
@<TRIPOS>BOND
  1   1   2  2   
  2   2   3  am  
  3   2   4  am  
  4   3   5  1   
  5   3   6  1   
  6   4   7  1   
  7   4   8  1   
  8   5   9  1   
  9   5  24  1   
 10   5  25  1   
 11   6  10  1   
 12   6  26  1   
 13   6  27  1   
 14   7  11  1   
 15   7  28  1   
 16   7  29  1   
 17   8  12  1   
 18   8  30  1   
 19   8  31  1   
 20   9  13  1   
 21   9  32  1   
 22   9  33  1   
 23  10  13  1   
 24  10  34  1   
 25  10  35  1   
 26  11  14  1   
 27  11  36  1   
 28  11  37  1   
 29  12  14  1   
 30  12  38  1   
 31  12  39  1   
 32  14  15  am  
 33  15  16  2   
 34  15  17  1   
 35  17  18  ar  
 36  17  19  ar  
 37  18  20  ar  
 38  18  40  1   
 39  19  21  ar  
 40  19  41  1   
 41  20  22  ar  
 42  20  42  1   
 43  21  22  ar  
 44  21  43  1   
 45  22  23  1   
 46  23  44  1   
 47  23  45  1   
 48  23  46  1   
@<TRIPOS>SUBSTRUCTURE
  1 ****  12 GROUP 4 **** **** 0

# MOE 2024.06 (io_trps.svl 2023.06)
