@<TRIPOS>MOLECULE
4-(2,4-Dimethyl-phenyl)-2-oxo-6-pyrrolidin-1-ylmethyl-1,2,3,4-tetrahydro-pyrimid
51 53 1 0 0 
SMALL
USER_CHARGES


@<TRIPOS>ATOM
  1 O        0.3100     0.8840     0.9590 O.2   1 <1>  -0.5700 
  2 C       -0.5130     1.7530     0.8120 C.2   1 <1>   0.6900 
  3 N       -1.5630     1.5450    -0.0190 N.am  1 <1>  -0.5390 
  4 N       -0.4030     2.9360     1.4310 N.am  1 <1>  -0.7300 
  5 C       -2.5360     2.4950    -0.2980 C.2   1 <1>  -0.0290 
  6 C       -1.2930     4.0850     1.1930 C.3   1 <1>   0.5020 
  7 C       -2.4760     3.7320     0.2780 C.2   1 <1>  -0.1240 
  8 C       -3.6330     2.0290    -1.2600 C.3   1 <1>   0.4810 
  9 C       -0.4430     5.2690     0.7110 C.ar  1 <1>  -0.1440 
 10 C       -3.4460     4.7790     0.1480 C.2   1 <1>   0.7060 
 11 N       -4.5910     1.1590    -0.5240 N.4   1 <1>  -0.9590 
 12 C        0.1870     5.3490    -0.5350 C.ar  1 <1>  -0.1430 
 13 C       -0.3020     6.3320     1.5960 C.ar  1 <1>  -0.1500 
 14 O       -4.4090     4.6820    -0.5870 O.2   1 <1>  -0.5700 
 15 O       -3.3360     5.8730     0.9040 O.3   1 <1>  -0.4300 
 16 C       -5.4760     0.3700    -1.4100 C.3   1 <1>   0.3430 
 17 C       -5.4950     1.9330     0.3620 C.3   1 <1>   0.3430 
 18 C        0.9210     6.4820    -0.8570 C.ar  1 <1>  -0.1500 
 19 C        0.1250     4.2460    -1.5840 C.3   1 <1>  -0.0970 
 20 C        0.4330     7.4530     1.2630 C.ar  1 <1>  -0.1500 
 21 C       -4.2200     6.9720     0.7810 C.3   1 <1>   0.0400 
 22 C       -6.6420    -0.0290    -0.5160 C.3   1 <1>  -0.1600 
 23 C       -6.6590     0.9890     0.6280 C.3   1 <1>  -0.1600 
 24 C        1.0500     7.5340     0.0300 C.ar  1 <1>  -0.1430 
 25 C        1.8590     8.7600    -0.3510 C.3   1 <1>  -0.0970 
 26 H       -1.4930     0.6340    -0.4790 H     1 <1>   0.3700 
 27 H        0.4930     3.1500     1.8700 H     1 <1>   0.3700 
 28 H       -1.7090     4.3410     2.1530 H     1 <1>   0.0800 
 29 H       -3.1730     1.4740    -2.0610 H     1 <1>   0.0800 
 30 H       -4.1530     2.8610    -1.7020 H     1 <1>   0.0800 
 31 H       -4.0540     0.5160     0.0710 H     1 <1>   0.4500 
 32 H       -0.7700     6.3060     2.5640 H     1 <1>   0.1500 
 33 H       -4.9740    -0.4910    -1.8200 H     1 <1>   0.0800 
 34 H       -5.8390     0.9930    -2.2130 H     1 <1>   0.0800 
 35 H       -5.8540     2.8090    -0.1550 H     1 <1>   0.0800 
 36 H       -5.0030     2.2330     1.2740 H     1 <1>   0.0800 
 37 H        1.4060     6.5530    -1.8140 H     1 <1>   0.1500 
 38 H        0.7340     4.4920    -2.4350 H     1 <1>   0.0800 
 39 H        0.4990     3.3240    -1.1820 H     1 <1>   0.0800 
 40 H       -0.8810     4.1140    -1.9320 H     1 <1>   0.0800 
 41 H        0.5220     8.2620     1.9670 H     1 <1>   0.1500 
 42 H       -3.9100     7.7360     1.4720 H     1 <1>   0.0800 
 43 H       -5.2200     6.6490     1.0110 H     1 <1>   0.0800 
 44 H       -4.1700     7.3490    -0.2260 H     1 <1>   0.0800 
 45 H       -6.4840    -1.0220    -0.1320 H     1 <1>   0.0800 
 46 H       -7.5630    -0.0210    -1.0730 H     1 <1>   0.0800 
 47 H       -7.5850     1.5390     0.6610 H     1 <1>   0.0800 
 48 H       -6.5220     0.4960     1.5750 H     1 <1>   0.0800 
 49 H        2.7310     8.4720    -0.9110 H     1 <1>   0.0800 
 50 H        2.1810     9.2910     0.5270 H     1 <1>   0.0800 
 51 H        1.2600     9.4180    -0.9540 H     1 <1>   0.0800 
@<TRIPOS>BOND
  1   1   2  2   
  2   2   3  am  
  3   2   4  am  
  4   3   5  1   
  5   3  26  1   
  6   4   6  1   
  7   4  27  1   
  8   5   7  2   
  9   5   8  1   
 10   6   7  1   
 11   6   9  1   
 12   6  28  1   
 13   7  10  1   
 14   8  11  1   
 15   8  29  1   
 16   8  30  1   
 17   9  12  ar  
 18   9  13  ar  
 19  10  14  2   
 20  10  15  1   
 21  11  16  1   
 22  11  17  1   
 23  11  31  1   
 24  12  18  ar  
 25  12  19  1   
 26  13  20  ar  
 27  13  32  1   
 28  15  21  1   
 29  16  22  1   
 30  16  33  1   
 31  16  34  1   
 32  17  23  1   
 33  17  35  1   
 34  17  36  1   
 35  18  24  ar  
 36  18  37  1   
 37  19  38  1   
 38  19  39  1   
 39  19  40  1   
 40  20  24  ar  
 41  20  41  1   
 42  21  42  1   
 43  21  43  1   
 44  21  44  1   
 45  22  23  1   
 46  22  45  1   
 47  22  46  1   
 48  23  47  1   
 49  23  48  1   
 50  24  25  1   
 51  25  49  1   
 52  25  50  1   
 53  25  51  1   
@<TRIPOS>SUBSTRUCTURE
  1 ****   7 GROUP 4 **** **** 0

# MOE 2024.06 (io_trps.svl 2023.06)
