@<TRIPOS>MOLECULE
1-[3-(2-Hydroxy-phenyl)-4,5-dihydro-isoxazole-5-carbonyl]-piperidine-4-carboxyli
42 44 1 0 0 
SMALL
USER_CHARGES


@<TRIPOS>ATOM
  1 O       -2.3780     2.0800    -1.9600 O.2   1 <1>  -0.5700 
  2 C       -2.3180     0.9890    -1.4560 C.2   1 <1>   0.5690 
  3 N       -1.5520     0.0400    -2.0240 N.am  1 <1>  -0.8000 
  4 C       -3.0950     0.6560    -0.1810 C.3   1 <1>  -0.0190 
  5 C       -4.3690    -0.1500    -0.5020 C.3   1 <1>  -0.1600 
  6 C       -3.4580     1.9100     0.6430 C.3   1 <1>  -0.1600 
  7 C       -5.1500    -0.4840     0.7710 C.3   1 <1>   0.1400 
  8 C       -4.2720     1.5600     1.8920 C.3   1 <1>   0.1400 
  9 N       -5.4750     0.7790     1.4900 N.am  1 <1>  -0.6600 
 10 C       -6.7480     1.2760     1.6890 C.2   1 <1>   0.5690 
 11 O       -6.9210     2.2550     2.3820 O.2   1 <1>  -0.5700 
 12 C       -7.9930     0.5850     1.1000 C.3   1 <1>   0.2610 
 13 O       -7.8660     0.3330    -0.2860 O.3   1 <1>  -0.2170 
 14 C       -9.3100     1.3540     1.1640 C.3   1 <1>  -0.0990 
 15 N       -8.9880     0.5240    -0.9420 N.2   1 <1>  -0.5130 
 16 C       -9.8630     1.0910    -0.2140 C.2   1 <1>   0.3030 
 17 C      -11.2150     1.4370    -0.6260 C.ar  1 <1>   0.0860 
 18 C      -12.1290     2.2110     0.1150 C.ar  1 <1>   0.0820 
 19 C      -11.6700     0.9730    -1.8660 C.ar  1 <1>  -0.1500 
 20 O      -11.8150     2.7290     1.3150 O.3   1 <1>  -0.5330 
 21 C      -13.4030     2.4860    -0.3600 C.ar  1 <1>  -0.1500 
 22 C      -12.9390     1.2450    -2.3420 C.ar  1 <1>  -0.1500 
 23 C      -13.8120     2.0040    -1.5870 C.ar  1 <1>  -0.1500 
 24 H       -1.0480     0.2660    -2.8830 H     1 <1>   0.3700 
 25 H       -1.4580    -0.9120    -1.6750 H     1 <1>   0.3700 
 26 H       -2.4550     0.0440     0.4280 H     1 <1>   0.0800 
 27 H       -4.1090    -1.0630    -1.0060 H     1 <1>   0.0800 
 28 H       -5.0030     0.4180    -1.1620 H     1 <1>   0.0800 
 29 H       -4.0370     2.5880     0.0380 H     1 <1>   0.0800 
 30 H       -2.5600     2.4250     0.9350 H     1 <1>   0.0800 
 31 H       -4.5500    -1.1040     1.4140 H     1 <1>   0.0800 
 32 H       -6.0360    -1.0400     0.5230 H     1 <1>   0.0800 
 33 H       -4.5540     2.4670     2.4000 H     1 <1>   0.0800 
 34 H       -3.6790     0.9710     2.5700 H     1 <1>   0.0800 
 35 H       -8.1160    -0.3700     1.5740 H     1 <1>   0.0800 
 36 H       -9.1530     2.4090     1.2970 H     1 <1>   0.0800 
 37 H       -9.9400     0.9680     1.9430 H     1 <1>   0.0800 
 38 H      -11.0110     0.3810    -2.4770 H     1 <1>   0.1500 
 39 H      -12.5200     3.2790     1.7030 H     1 <1>   0.4500 
 40 H      -14.0870     3.0770     0.2220 H     1 <1>   0.1500 
 41 H      -13.2460     0.8670    -3.3030 H     1 <1>   0.1500 
 42 H      -14.8010     2.2170    -1.9560 H     1 <1>   0.1500 
@<TRIPOS>BOND
  1   1   2  2   
  2   2   3  am  
  3   2   4  1   
  4   3  24  1   
  5   3  25  1   
  6   4   5  1   
  7   4   6  1   
  8   4  26  1   
  9   5   7  1   
 10   5  27  1   
 11   5  28  1   
 12   6   8  1   
 13   6  29  1   
 14   6  30  1   
 15   7   9  1   
 16   7  31  1   
 17   7  32  1   
 18   8   9  1   
 19   8  33  1   
 20   8  34  1   
 21   9  10  am  
 22  10  11  2   
 23  10  12  1   
 24  12  13  1   
 25  12  14  1   
 26  12  35  1   
 27  13  15  1   
 28  14  16  1   
 29  14  36  1   
 30  14  37  1   
 31  15  16  2   
 32  16  17  1   
 33  17  18  ar  
 34  17  19  ar  
 35  18  20  1   
 36  18  21  ar  
 37  19  22  ar  
 38  19  38  1   
 39  20  39  1   
 40  21  23  ar  
 41  21  40  1   
 42  22  23  ar  
 43  22  41  1   
 44  23  42  1   
@<TRIPOS>SUBSTRUCTURE
  1 ****  13 GROUP 4 **** **** 0

# MOE 2024.06 (io_trps.svl 2023.06)
