@<TRIPOS>MOLECULE
1-[4-(3,4-Dimethyl-benzenesulfonyl)-piperazin-1-yl]-3-(3,5-dimethyl-pyrazol-1-yl
56 58 1 0 0 
SMALL
USER_CHARGES


@<TRIPOS>ATOM
  1 S        0.5100     0.6650     1.7620 S.o2  1 <1>   1.4470 
  2 O       -0.5880     0.4220     2.6740 O.2   1 <1>  -0.6500 
  3 O        1.8040     1.0360     2.2900 O.2   1 <1>  -0.6500 
  4 N        0.0170     1.9360     0.7540 N.am  1 <1>  -0.8490 
  5 C        0.6940    -0.7200     0.6050 C.ar  1 <1>  -0.0090 
  6 C        0.0990     3.2300     1.4590 C.3   1 <1>   0.1960 
  7 C       -1.3430     1.7250     0.2220 C.3   1 <1>   0.1960 
  8 C       -0.1290    -1.8370     0.6770 C.ar  1 <1>  -0.1500 
  9 C        1.6510    -0.6850    -0.3990 C.ar  1 <1>  -0.1500 
 10 C       -0.3060     4.4080     0.5560 C.3   1 <1>   0.1400 
 11 C       -1.7610     2.8610    -0.7260 C.3   1 <1>   0.1400 
 12 C       -0.0140    -2.8880    -0.2200 C.ar  1 <1>  -0.1440 
 13 C        1.7790    -1.7250    -1.3000 C.ar  1 <1>  -0.1500 
 14 N       -1.6630     4.1800    -0.0280 N.am  1 <1>  -0.6600 
 15 C        0.9490    -2.8310    -1.2200 C.ar  1 <1>  -0.1430 
 16 C       -0.9480    -4.0820    -0.0820 C.3   1 <1>  -0.0970 
 17 C       -2.6960     5.0510     0.2000 C.2   1 <1>   0.5690 
 18 C        1.1180    -3.9590    -2.2290 C.3   1 <1>  -0.0970 
 19 O       -2.5180     6.1120     0.7520 O.2   1 <1>  -0.5700 
 20 C       -4.1040     4.6970    -0.2350 C.3   1 <1>  -0.0990 
 21 C       -5.1650     5.6150     0.3860 C.3   1 <1>   0.0960 
 22 N       -6.5150     5.2000    -0.0460 N.pl3 1 <1>   0.3140 
 23 N       -6.9750     3.9630     0.2240 N.2   1 <1>  -0.7070 
 24 C       -7.4260     5.9210    -0.7410 C.2   1 <1>  -0.3320 
 25 C       -8.1600     3.9260    -0.2960 C.2   1 <1>   0.1080 
 26 C       -8.5000     5.1210    -0.9160 C.2   1 <1>  -0.1500 
 27 C       -7.2390     7.3520    -1.2160 C.3   1 <1>  -0.0600 
 28 C       -9.0400     2.7020    -0.2150 C.3   1 <1>  -0.0590 
 29 H        1.1090     3.3930     1.7970 H     1 <1>   0.0800 
 30 H       -0.5390     3.2160     2.3280 H     1 <1>   0.0800 
 31 H       -2.0540     1.6660     1.0300 H     1 <1>   0.0800 
 32 H       -1.3780     0.7960    -0.3210 H     1 <1>   0.0800 
 33 H       -0.8730    -1.8790     1.4540 H     1 <1>   0.1500 
 34 H        2.3040     0.1690    -0.4740 H     1 <1>   0.1500 
 35 H        0.4110     4.5090    -0.2400 H     1 <1>   0.0800 
 36 H       -0.2870     5.3160     1.1330 H     1 <1>   0.0800 
 37 H       -2.7550     2.6770    -1.0880 H     1 <1>   0.0800 
 38 H       -1.1010     2.8660    -1.5770 H     1 <1>   0.0800 
 39 H        2.5330    -1.6670    -2.0660 H     1 <1>   0.1500 
 40 H       -1.6170    -3.9580     0.7500 H     1 <1>   0.0800 
 41 H       -0.3770    -4.9790     0.0760 H     1 <1>   0.0800 
 42 H       -1.5370    -4.1950    -0.9750 H     1 <1>   0.0800 
 43 H        1.3690    -4.8730    -1.7210 H     1 <1>   0.0800 
 44 H        1.9030    -3.7370    -2.9290 H     1 <1>   0.0800 
 45 H        0.2060    -4.1010    -2.7800 H     1 <1>   0.0800 
 46 H       -4.3130     3.6900     0.0760 H     1 <1>   0.0800 
 47 H       -4.1590     4.7580    -1.3060 H     1 <1>   0.0800 
 48 H       -4.9930     6.6340     0.0950 H     1 <1>   0.0800 
 49 H       -5.1230     5.5520     1.4580 H     1 <1>   0.0800 
 50 H       -9.4260     5.3340    -1.4170 H     1 <1>   0.1500 
 51 H       -7.0840     8.0050    -0.3760 H     1 <1>   0.0800 
 52 H       -8.1130     7.6820    -1.7490 H     1 <1>   0.0800 
 53 H       -6.3910     7.4180    -1.8750 H     1 <1>   0.0800 
 54 H       -9.2500     2.4820     0.8150 H     1 <1>   0.0800 
 55 H       -8.5290     1.8650    -0.6540 H     1 <1>   0.0800 
 56 H       -9.9630     2.8670    -0.7370 H     1 <1>   0.0800 
@<TRIPOS>BOND
  1   1   2  2   
  2   1   3  2   
  3   1   4  am  
  4   1   5  1   
  5   4   6  1   
  6   4   7  1   
  7   5   8  ar  
  8   5   9  ar  
  9   6  10  1   
 10   6  29  1   
 11   6  30  1   
 12   7  11  1   
 13   7  31  1   
 14   7  32  1   
 15   8  12  ar  
 16   8  33  1   
 17   9  13  ar  
 18   9  34  1   
 19  10  14  1   
 20  10  35  1   
 21  10  36  1   
 22  11  14  1   
 23  11  37  1   
 24  11  38  1   
 25  12  15  ar  
 26  12  16  1   
 27  13  15  ar  
 28  13  39  1   
 29  14  17  am  
 30  15  18  1   
 31  16  40  1   
 32  16  41  1   
 33  16  42  1   
 34  17  19  2   
 35  17  20  1   
 36  18  43  1   
 37  18  44  1   
 38  18  45  1   
 39  20  21  1   
 40  20  46  1   
 41  20  47  1   
 42  21  22  1   
 43  21  48  1   
 44  21  49  1   
 45  22  23  1   
 46  22  24  1   
 47  23  25  2   
 48  24  26  2   
 49  24  27  1   
 50  25  26  1   
 51  25  28  1   
 52  26  50  1   
 53  27  51  1   
 54  27  52  1   
 55  27  53  1   
 56  28  54  1   
 57  28  55  1   
 58  28  56  1   
@<TRIPOS>SUBSTRUCTURE
  1 ****   7 GROUP 4 **** **** 0

# MOE 2024.06 (io_trps.svl 2023.06)
