@<TRIPOS>MOLECULE
NONAME
39 41 1 0 0 
SMALL
USER_CHARGES


@<TRIPOS>ATOM
  1 CL       1.7100    -0.0080     2.9910 Cl    1 <1>  -0.1770 
  2 C        1.1800    -1.3870     2.0610 C.ar  1 <1>   0.1770 
  3 C        1.5930    -1.5750     0.7580 C.ar  1 <1>  -0.1440 
  4 C        0.3330    -2.2990     2.6580 C.ar  1 <1>  -0.1500 
  5 C        1.1740    -2.6800     0.0310 C.ar  1 <1>   0.1170 
  6 C        2.5070    -0.7190    -0.0960 C.3   1 <1>   0.7350 
  7 C       -0.0940    -3.4040     1.9390 C.ar  1 <1>  -0.1500 
  8 N        1.7300    -2.6370    -1.2610 N.am  1 <1>  -0.4770 
  9 C        0.3150    -3.6110     0.6270 C.ar  1 <1>  -0.1440 
 10 S        4.1750    -0.7230     0.6550 S.3   1 <1>  -0.3710 
 11 N        2.1610     0.7390    -0.1830 N.am  1 <1>  -0.2980 
 12 C        2.5090    -1.5170    -1.4070 C.2   1 <1>   0.5690 
 13 C        1.5540    -3.6320    -2.3520 C.3   1 <1>   0.0600 
 14 C       -0.2010    -4.8520    -0.0890 C.3   1 <1>  -0.0970 
 15 C        4.1980     1.0380     0.7700 C.2   1 <1>   0.6510 
 16 N        3.1620     1.6040     0.3170 N.2   1 <1>  -0.5120 
 17 C        0.9750     1.2130    -0.7190 C.2   1 <1>   0.5690 
 18 O        3.0860    -1.1970    -2.4240 O.2   1 <1>  -0.5700 
 19 N        5.2930     1.6840     1.3000 N.am  1 <1>  -0.4900 
 20 O        0.7170     2.3920    -0.7670 O.2   1 <1>  -0.5700 
 21 C       -0.0940     0.2950    -1.2830 C.3   1 <1>  -0.1790 
 22 C        6.3960     1.3310     2.0000 C.2   1 <1>   0.5690 
 23 O        7.2000     2.1810     2.2820 O.2   1 <1>  -0.5700 
 24 C        6.6670    -0.0790     2.4740 C.3   1 <1>  -0.1790 
 25 H        0.0130    -2.1460     3.6740 H     1 <1>   0.1500 
 26 H       -0.7540    -4.1070     2.4190 H     1 <1>   0.1500 
 27 H        0.5170    -3.6940    -2.6280 H     1 <1>   0.0800 
 28 H        1.9060    -4.5950    -2.0290 H     1 <1>   0.0800 
 29 H        2.1200    -3.3390    -3.2200 H     1 <1>   0.0800 
 30 H        0.6200    -5.4840    -0.3740 H     1 <1>   0.0800 
 31 H       -0.7630    -4.5730    -0.9610 H     1 <1>   0.0800 
 32 H       -0.8490    -5.4260     0.5490 H     1 <1>   0.0800 
 33 H        5.2370     2.6890     1.1540 H     1 <1>   0.3700 
 34 H        0.2740    -0.2320    -2.1420 H     1 <1>   0.0800 
 35 H       -0.9340     0.8870    -1.6000 H     1 <1>   0.0800 
 36 H       -0.4440    -0.3910    -0.5370 H     1 <1>   0.0800 
 37 H        5.8200    -0.4580     3.0130 H     1 <1>   0.0800 
 38 H        7.5170    -0.0810     3.1310 H     1 <1>   0.0800 
 39 H        6.8840    -0.7120     1.6350 H     1 <1>   0.0800 
@<TRIPOS>BOND
  1   1   2  1   
  2   2   3  ar  
  3   2   4  ar  
  4   3   5  ar  
  5   3   6  1   
  6   4   7  ar  
  7   4  25  1   
  8   5   8  1   
  9   5   9  ar  
 10   6  10  1   
 11   6  11  1   
 12   6  12  1   
 13   7   9  ar  
 14   7  26  1   
 15   8  12  am  
 16   8  13  1   
 17   9  14  1   
 18  10  15  1   
 19  11  16  1   
 20  11  17  am  
 21  12  18  2   
 22  13  27  1   
 23  13  28  1   
 24  13  29  1   
 25  14  30  1   
 26  14  31  1   
 27  14  32  1   
 28  15  16  2   
 29  15  19  1   
 30  17  20  2   
 31  17  21  1   
 32  19  22  am  
 33  19  33  1   
 34  21  34  1   
 35  21  35  1   
 36  21  36  1   
 37  22  23  2   
 38  22  24  1   
 39  24  37  1   
 40  24  38  1   
 41  24  39  1   
@<TRIPOS>SUBSTRUCTURE
  1 ****   6 GROUP 4 **** **** 0

# MOE 2024.06 (io_trps.svl 2023.06)
