@<TRIPOS>MOLECULE
4-Chloro-N-(2-methoxy-ethyl)-3-(morpholine-4-sulfonyl)-benzamide
42 43 1 0 0 
SMALL
USER_CHARGES


@<TRIPOS>ATOM
  1 CL       0.0860     0.0460     2.5260 Cl    1 <1>  -0.1770 
  2 C        1.4550    -0.8320     1.8950 C.ar  1 <1>   0.1770 
  3 C        1.3270    -2.0820     1.3000 C.ar  1 <1>  -0.0090 
  4 C        2.6820    -0.2040     2.0040 C.ar  1 <1>  -0.1500 
  5 S       -0.2550    -2.9450     1.1090 S.o2  1 <1>   1.4470 
  6 C        2.4880    -2.6620     0.8000 C.ar  1 <1>  -0.1500 
  7 C        3.8170    -0.8140     1.5030 C.ar  1 <1>  -0.1500 
  8 O        0.0300    -4.3600     1.0070 O.2   1 <1>  -0.6500 
  9 O       -1.2580    -2.5240     2.0600 O.2   1 <1>  -0.6500 
 10 N       -0.7750    -2.4500    -0.4270 N.am  1 <1>  -0.8490 
 11 C        3.7450    -2.0620     0.8870 C.ar  1 <1>   0.0860 
 12 C       -1.3780    -1.1060    -0.4280 C.3   1 <1>   0.1960 
 13 C       -1.7290    -3.4080    -1.0090 C.3   1 <1>   0.1960 
 14 C        4.9200    -2.7190     0.3410 C.2   1 <1>   0.5440 
 15 C       -1.8490    -0.7090    -1.8390 C.3   1 <1>   0.1200 
 16 C       -2.1980    -2.9530    -2.4030 C.3   1 <1>   0.1200 
 17 O        4.8260    -3.4390    -0.6310 O.2   1 <1>  -0.5700 
 18 N        6.1510    -2.5420     0.9090 N.am  1 <1>  -0.7300 
 19 O       -2.7370    -1.6620    -2.3470 O.3   1 <1>  -0.5600 
 20 C        7.3940    -3.2290     0.4660 C.3   1 <1>   0.1400 
 21 C        7.9040    -2.6360    -0.8480 C.3   1 <1>   0.1200 
 22 O        9.1830    -3.1340    -1.0900 O.3   1 <1>  -0.5600 
 23 C        9.7170    -2.7360    -2.3100 C.3   1 <1>   0.0400 
 24 H        2.7430     0.7620     2.4740 H     1 <1>   0.1500 
 25 H        2.4220    -3.6250     0.3170 H     1 <1>   0.1500 
 26 H        4.7640    -0.3090     1.5810 H     1 <1>   0.1500 
 27 H       -0.6570    -0.3830    -0.0920 H     1 <1>   0.0800 
 28 H       -2.2230    -1.0720     0.2410 H     1 <1>   0.0800 
 29 H       -2.5860    -3.5150    -0.3640 H     1 <1>   0.0800 
 30 H       -1.2630    -4.3740    -1.1050 H     1 <1>   0.0800 
 31 H       -1.0100    -0.6270    -2.5080 H     1 <1>   0.0800 
 32 H       -2.3630     0.2350    -1.8090 H     1 <1>   0.0800 
 33 H       -2.9620    -3.6130    -2.7730 H     1 <1>   0.0800 
 34 H       -1.3740    -2.9530    -3.0950 H     1 <1>   0.0800 
 35 H        6.2280    -2.0360     1.7920 H     1 <1>   0.3700 
 36 H        7.1910    -4.2770     0.3240 H     1 <1>   0.0800 
 37 H        8.1490    -3.1180     1.2240 H     1 <1>   0.0800 
 38 H        7.9660    -1.5650    -0.7780 H     1 <1>   0.0800 
 39 H        7.2560    -2.9240    -1.6590 H     1 <1>   0.0800 
 40 H       10.7000    -3.1630    -2.4010 H     1 <1>   0.0800 
 41 H        9.7830    -1.6620    -2.3360 H     1 <1>   0.0800 
 42 H        9.0890    -3.0970    -3.1070 H     1 <1>   0.0800 
@<TRIPOS>BOND
  1   1   2  1   
  2   2   3  ar  
  3   2   4  ar  
  4   3   5  1   
  5   3   6  ar  
  6   4   7  ar  
  7   4  24  1   
  8   5   8  2   
  9   5   9  2   
 10   5  10  am  
 11   6  11  ar  
 12   6  25  1   
 13   7  11  ar  
 14   7  26  1   
 15  10  12  1   
 16  10  13  1   
 17  11  14  1   
 18  12  15  1   
 19  12  27  1   
 20  12  28  1   
 21  13  16  1   
 22  13  29  1   
 23  13  30  1   
 24  14  17  2   
 25  14  18  am  
 26  15  19  1   
 27  15  31  1   
 28  15  32  1   
 29  16  19  1   
 30  16  33  1   
 31  16  34  1   
 32  18  20  1   
 33  18  35  1   
 34  20  21  1   
 35  20  36  1   
 36  20  37  1   
 37  21  22  1   
 38  21  38  1   
 39  21  39  1   
 40  22  23  1   
 41  23  40  1   
 42  23  41  1   
 43  23  42  1   
@<TRIPOS>SUBSTRUCTURE
  1 ****   6 GROUP 4 **** **** 0

# MOE 2024.06 (io_trps.svl 2023.06)
