@<TRIPOS>MOLECULE
NONAME
58 61 1 0 0 
SMALL
USER_CHARGES


@<TRIPOS>ATOM
  1 S       -0.3930     0.3030     1.1920 S.3   1 <1>  -0.3710 
  2 C       -0.3980     0.9720    -0.4450 C.2   1 <1>   0.6510 
  3 C       -1.4370    -1.1120     0.6950 C.3   1 <1>   0.7350 
  4 N       -1.0310     0.2720    -1.2940 N.2   1 <1>  -0.5120 
  5 N        0.2410     2.1660    -0.7110 N.am  1 <1>  -0.4900 
  6 N       -1.6010    -0.9120    -0.7770 N.am  1 <1>  -0.2980 
  7 C       -0.8720    -2.4700     1.1550 C.2   1 <1>   0.5690 
  8 C       -2.7450    -1.0680     1.4630 C.ar  1 <1>  -0.1440 
  9 C        0.9820     3.0660    -0.0220 C.2   1 <1>   0.5690 
 10 C       -2.2610    -1.8580    -1.5260 C.2   1 <1>   0.5690 
 11 O        0.1670    -2.9740     0.7820 O.2   1 <1>  -0.5700 
 12 N       -1.7670    -3.0750     2.0000 N.am  1 <1>  -0.4770 
 13 C       -2.8650    -2.2310     2.2000 C.ar  1 <1>   0.1170 
 14 C       -3.7290    -0.0960     1.4890 C.ar  1 <1>  -0.1500 
 15 O        1.3730     4.0470    -0.5990 O.2   1 <1>  -0.5700 
 16 C        1.3530     2.9100     1.4350 C.3   1 <1>  -0.1790 
 17 O       -2.6630    -2.9060    -1.0670 O.2   1 <1>  -0.5700 
 18 C       -2.4870    -1.6010    -2.9990 C.3   1 <1>  -0.1790 
 19 C       -1.8100    -4.5370     2.2620 C.3   1 <1>   0.1400 
 20 C       -3.9830    -2.4300     2.9970 C.ar  1 <1>  -0.1500 
 21 C       -4.8510    -0.2970     2.2790 C.ar  1 <1>  -0.1430 
 22 C       -2.7140    -5.2240     1.2150 C.3   1 <1>   0.3430 
 23 C       -4.9710    -1.4600     3.0290 C.ar  1 <1>  -0.1500 
 24 C       -5.9470     0.7540     2.3230 C.3   1 <1>  -0.0970 
 25 N       -2.0290    -6.0430     0.1520 N.4   1 <1>  -0.9590 
 26 C       -0.7870    -5.4190    -0.4040 C.3   1 <1>   0.3430 
 27 C       -3.0100    -6.2850    -0.9460 C.3   1 <1>   0.3430 
 28 C       -0.1380    -6.3540    -1.4250 C.3   1 <1>  -0.1600 
 29 C       -2.4220    -7.2480    -1.9790 C.3   1 <1>  -0.1600 
 30 C       -1.1060    -6.7150    -2.5570 C.3   1 <1>  -0.1600 
 31 H        0.1300     2.4450    -1.6820 H     1 <1>   0.3700 
 32 H       -3.6270     0.8020     0.9040 H     1 <1>   0.1500 
 33 H        0.4700     2.9150     2.0450 H     1 <1>   0.0800 
 34 H        1.9780     3.7310     1.7370 H     1 <1>   0.0800 
 35 H        1.9000     1.9980     1.5830 H     1 <1>   0.0800 
 36 H       -1.5410    -1.5220    -3.5020 H     1 <1>   0.0800 
 37 H       -3.0300    -0.6830    -3.1260 H     1 <1>   0.0800 
 38 H       -3.0520    -2.4030    -3.4360 H     1 <1>   0.0800 
 39 H       -2.2260    -4.6880     3.2420 H     1 <1>   0.0800 
 40 H       -0.8160    -4.9480     2.2640 H     1 <1>   0.0800 
 41 H       -4.0890    -3.3180     3.5930 H     1 <1>   0.1500 
 42 H       -3.3010    -4.4540     0.7400 H     1 <1>   0.0800 
 43 H       -3.4020    -5.8650     1.7410 H     1 <1>   0.0800 
 44 H       -5.8420    -1.6100     3.6450 H     1 <1>   0.1500 
 45 H       -5.5310     1.7370     2.1940 H     1 <1>   0.0800 
 46 H       -6.4590     0.7270     3.2680 H     1 <1>   0.0800 
 47 H       -6.6580     0.5730     1.5380 H     1 <1>   0.0800 
 48 H       -1.7570    -6.9540     0.5400 H     1 <1>   0.4500 
 49 H       -0.0790    -5.2240     0.3840 H     1 <1>   0.0800 
 50 H       -1.0260    -4.4810    -0.8780 H     1 <1>   0.0800 
 51 H       -3.2500    -5.3480    -1.4250 H     1 <1>   0.0800 
 52 H       -3.9200    -6.7030    -0.5460 H     1 <1>   0.0800 
 53 H        0.2020    -7.2460    -0.9290 H     1 <1>   0.0800 
 54 H        0.7280    -5.8670    -1.8400 H     1 <1>   0.0800 
 55 H       -3.1310    -7.3820    -2.7770 H     1 <1>   0.0800 
 56 H       -2.2630    -8.2100    -1.5240 H     1 <1>   0.0800 
 57 H       -0.6600    -7.4530    -3.2030 H     1 <1>   0.0800 
 58 H       -1.3050    -5.8370    -3.1490 H     1 <1>   0.0800 
@<TRIPOS>BOND
  1   1   2  1   
  2   1   3  1   
  3   2   4  2   
  4   2   5  1   
  5   3   6  1   
  6   3   7  1   
  7   3   8  1   
  8   4   6  1   
  9   5   9  am  
 10   5  31  1   
 11   6  10  am  
 12   7  11  2   
 13   7  12  am  
 14   8  13  ar  
 15   8  14  ar  
 16   9  15  2   
 17   9  16  1   
 18  10  17  2   
 19  10  18  1   
 20  12  13  1   
 21  12  19  1   
 22  13  20  ar  
 23  14  21  ar  
 24  14  32  1   
 25  16  33  1   
 26  16  34  1   
 27  16  35  1   
 28  18  36  1   
 29  18  37  1   
 30  18  38  1   
 31  19  22  1   
 32  19  39  1   
 33  19  40  1   
 34  20  23  ar  
 35  20  41  1   
 36  21  23  ar  
 37  21  24  1   
 38  22  25  1   
 39  22  42  1   
 40  22  43  1   
 41  23  44  1   
 42  24  45  1   
 43  24  46  1   
 44  24  47  1   
 45  25  26  1   
 46  25  27  1   
 47  25  48  1   
 48  26  28  1   
 49  26  49  1   
 50  26  50  1   
 51  27  29  1   
 52  27  51  1   
 53  27  52  1   
 54  28  30  1   
 55  28  53  1   
 56  28  54  1   
 57  29  30  1   
 58  29  55  1   
 59  29  56  1   
 60  30  57  1   
 61  30  58  1   
@<TRIPOS>SUBSTRUCTURE
  1 ****   3 GROUP 4 **** **** 0

# MOE 2024.06 (io_trps.svl 2023.06)
