@<TRIPOS>MOLECULE
N-[2-(4-Isobutyryl-piperazin-1-yl)-phenyl]-3,4-dimethyl-benzamide
57 59 1 0 0 
SMALL
USER_CHARGES


@<TRIPOS>ATOM
  1 O       -0.2050     0.1260    -0.2400 O.2   1 <1>  -0.5700 
  2 C       -0.1920    -1.0490     0.0740 C.2   1 <1>   0.5440 
  3 N        0.9760    -1.7640     0.0230 N.am  1 <1>  -0.5470 
  4 C       -1.4130    -1.7190     0.4870 C.ar  1 <1>   0.0860 
  5 C        2.3160    -1.4660    -0.2700 C.ar  1 <1>   0.1170 
  6 C       -2.6590    -1.2800     0.0390 C.ar  1 <1>  -0.1500 
  7 C       -1.4000    -2.8240     1.3390 C.ar  1 <1>  -0.1500 
  8 C        3.2000    -2.5550    -0.2860 C.ar  1 <1>   0.1000 
  9 C        2.7950    -0.1900    -0.5310 C.ar  1 <1>  -0.1500 
 10 C       -3.8390    -1.9100     0.4010 C.ar  1 <1>  -0.1440 
 11 C       -2.5690    -3.4630     1.7060 C.ar  1 <1>  -0.1500 
 12 N        2.7200    -3.8530    -0.0220 N.pl3 1 <1>  -0.8380 
 13 C        4.5420    -2.3320    -0.5680 C.ar  1 <1>  -0.1500 
 14 C        4.1360     0.0160    -0.8090 C.ar  1 <1>  -0.1500 
 15 C       -3.7950    -3.0160     1.2410 C.ar  1 <1>  -0.1430 
 16 C       -5.1580    -1.3700    -0.1350 C.3   1 <1>  -0.0970 
 17 C        2.5620    -4.7770    -1.1900 C.3   1 <1>   0.2090 
 18 C        3.1370    -4.5070     1.2610 C.3   1 <1>   0.2090 
 19 C        5.0100    -1.0560    -0.8280 C.ar  1 <1>  -0.1500 
 20 C       -5.0620    -3.7440     1.6680 C.3   1 <1>  -0.0970 
 21 C        3.7270    -5.7760    -1.3270 C.3   1 <1>   0.1400 
 22 C        4.2890    -5.5090     1.0740 C.3   1 <1>   0.1400 
 23 N        3.9930    -6.4730    -0.0300 N.am  1 <1>  -0.6600 
 24 C        3.8060    -7.8100     0.2300 C.2   1 <1>   0.5690 
 25 O        3.8030    -8.2220     1.3670 O.2   1 <1>  -0.5700 
 26 C        3.5770    -8.8210    -0.9080 C.3   1 <1>  -0.0190 
 27 C        2.0840    -8.9340    -1.2590 C.3   1 <1>  -0.2400 
 28 C        4.1310   -10.2200    -0.5810 C.3   1 <1>  -0.2400 
 29 H        0.8940    -2.7700     0.1870 H     1 <1>   0.3700 
 30 H       -2.6880    -0.4220    -0.6100 H     1 <1>   0.1500 
 31 H       -0.4670    -3.1900     1.7280 H     1 <1>   0.1500 
 32 H        2.1270     0.6510    -0.5180 H     1 <1>   0.1500 
 33 H       -2.5190    -4.3130     2.3630 H     1 <1>   0.1500 
 34 H        5.2240    -3.1590    -0.5850 H     1 <1>   0.1500 
 35 H        4.4940     1.0110    -1.0100 H     1 <1>   0.1500 
 36 H       -4.9980    -0.5090    -0.7580 H     1 <1>   0.0800 
 37 H       -5.7960    -1.0810     0.6810 H     1 <1>   0.0800 
 38 H       -5.6540    -2.1230    -0.7200 H     1 <1>   0.0800 
 39 H        2.4830    -4.1980    -2.0940 H     1 <1>   0.0800 
 40 H        1.6440    -5.3250    -1.0730 H     1 <1>   0.0800 
 41 H        2.2930    -5.0290     1.6770 H     1 <1>   0.0800 
 42 H        3.4350    -3.7520     1.9680 H     1 <1>   0.0800 
 43 H        6.0520    -0.8960    -1.0440 H     1 <1>   0.1500 
 44 H       -5.5820    -4.1150     0.8030 H     1 <1>   0.0800 
 45 H       -5.7070    -3.0750     2.2070 H     1 <1>   0.0800 
 46 H       -4.8320    -4.5780     2.3060 H     1 <1>   0.0800 
 47 H        4.6120    -5.2440    -1.6280 H     1 <1>   0.0800 
 48 H        3.4870    -6.4730    -2.1070 H     1 <1>   0.0800 
 49 H        4.4550    -6.0280     2.0020 H     1 <1>   0.0800 
 50 H        5.1920    -4.9740     0.8430 H     1 <1>   0.0800 
 51 H        4.1140    -8.4810    -1.7740 H     1 <1>   0.0800 
 52 H        1.5340    -9.3050    -0.4110 H     1 <1>   0.0800 
 53 H        1.9400    -9.6090    -2.0840 H     1 <1>   0.0800 
 54 H        1.6820    -7.9740    -1.5270 H     1 <1>   0.0800 
 55 H        3.6140   -10.6420     0.2640 H     1 <1>   0.0800 
 56 H        5.1770   -10.1540    -0.3360 H     1 <1>   0.0800 
 57 H        4.0160   -10.8810    -1.4210 H     1 <1>   0.0800 
@<TRIPOS>BOND
  1   1   2  2   
  2   2   3  am  
  3   2   4  1   
  4   3   5  1   
  5   3  29  1   
  6   4   6  ar  
  7   4   7  ar  
  8   5   8  ar  
  9   5   9  ar  
 10   6  10  ar  
 11   6  30  1   
 12   7  11  ar  
 13   7  31  1   
 14   8  12  1   
 15   8  13  ar  
 16   9  14  ar  
 17   9  32  1   
 18  10  15  ar  
 19  10  16  1   
 20  11  15  ar  
 21  11  33  1   
 22  12  17  1   
 23  12  18  1   
 24  13  19  ar  
 25  13  34  1   
 26  14  19  ar  
 27  14  35  1   
 28  15  20  1   
 29  16  36  1   
 30  16  37  1   
 31  16  38  1   
 32  17  21  1   
 33  17  39  1   
 34  17  40  1   
 35  18  22  1   
 36  18  41  1   
 37  18  42  1   
 38  19  43  1   
 39  20  44  1   
 40  20  45  1   
 41  20  46  1   
 42  21  23  1   
 43  21  47  1   
 44  21  48  1   
 45  22  23  1   
 46  22  49  1   
 47  22  50  1   
 48  23  24  am  
 49  24  25  2   
 50  24  26  1   
 51  26  27  1   
 52  26  28  1   
 53  26  51  1   
 54  27  52  1   
 55  27  53  1   
 56  27  54  1   
 57  28  55  1   
 58  28  56  1   
 59  28  57  1   
@<TRIPOS>SUBSTRUCTURE
  1 ****  12 GROUP 4 **** **** 0

# MOE 2024.06 (io_trps.svl 2023.06)
