@<TRIPOS>MOLECULE
1-(3-Chloro-4-ethoxy-benzenesulfonyl)-piperidine-4-carboxylic acid (furan-2-ylme
51 53 1 0 0 
SMALL
USER_CHARGES


@<TRIPOS>ATOM
  1 CL       3.0590     1.2210     1.3770 Cl    1 <1>  -0.1770 
  2 C        1.9980     2.4120     0.6550 C.ar  1 <1>   0.1770 
  3 C        0.6590     2.4990     1.0230 C.ar  1 <1>   0.0820 
  4 C        2.5320     3.2760    -0.2800 C.ar  1 <1>  -0.1500 
  5 O        0.0980     1.6760     1.9370 O.3   1 <1>  -0.3630 
  6 C       -0.1290     3.4830     0.4510 C.ar  1 <1>  -0.1500 
  7 C        1.7490     4.2650    -0.8650 C.ar  1 <1>  -0.0090 
  8 C       -0.1230     0.3300     1.5740 C.3   1 <1>   0.1200 
  9 C        0.4120     4.3510    -0.4840 C.ar  1 <1>  -0.1500 
 10 S        2.4610     5.4050    -2.0820 S.o2  1 <1>   1.4470 
 11 C       -1.4360     0.2290     0.7990 C.3   1 <1>  -0.2400 
 12 O        2.8940     4.6470    -3.2350 O.2   1 <1>  -0.6500 
 13 O        1.5950     6.5500    -2.2630 O.2   1 <1>  -0.6500 
 14 N        3.8540     5.9670    -1.2920 N.am  1 <1>  -0.8490 
 15 C        3.5300     6.8840    -0.1950 C.3   1 <1>   0.1960 
 16 C        4.7910     6.5840    -2.2340 C.3   1 <1>   0.1960 
 17 C        4.7940     7.1980     0.6060 C.3   1 <1>  -0.1600 
 18 C        6.1080     6.9020    -1.5240 C.3   1 <1>  -0.1600 
 19 C        5.8830     7.8030    -0.2960 C.3   1 <1>  -0.0190 
 20 C        7.1790     8.0580     0.4660 C.2   1 <1>   0.5690 
 21 O        7.5960     9.1870     0.5540 O.2   1 <1>  -0.5700 
 22 N        7.8330     7.0150     1.0270 N.am  1 <1>  -0.7300 
 23 C        9.1350     7.1020     1.7090 C.3   1 <1>   0.3200 
 24 C        9.9220     5.8440     1.3970 C.2   1 <1>  -0.0400 
 25 O        9.4230     4.6720     1.7470 O.3   1 <1>  -0.2800 
 26 C       11.1150     5.6840     0.7820 C.2   1 <1>  -0.1500 
 27 C       10.2810     3.7450     1.3700 C.2   1 <1>  -0.0100 
 28 C       11.3510     4.3030     0.7660 C.2   1 <1>  -0.1500 
 29 H        3.5700     3.1850    -0.5510 H     1 <1>   0.1500 
 30 H       -1.1630     3.5640     0.7410 H     1 <1>   0.1500 
 31 H       -0.1780    -0.2440     2.4830 H     1 <1>   0.0800 
 32 H        0.7030    -0.0260     0.9840 H     1 <1>   0.0800 
 33 H       -0.2150     5.1100    -0.9240 H     1 <1>   0.1500 
 34 H       -2.2460     0.6130     1.3930 H     1 <1>   0.0800 
 35 H       -1.6400    -0.8000     0.5670 H     1 <1>   0.0800 
 36 H       -1.3720     0.7780    -0.1230 H     1 <1>   0.0800 
 37 H        2.8060     6.4310     0.4610 H     1 <1>   0.0800 
 38 H        3.1050     7.7950    -0.5870 H     1 <1>   0.0800 
 39 H        4.3590     7.4820    -2.6480 H     1 <1>   0.0800 
 40 H        4.9960     5.9070    -3.0470 H     1 <1>   0.0800 
 41 H        5.1450     6.2890     1.0620 H     1 <1>   0.0800 
 42 H        4.5540     7.8910     1.3930 H     1 <1>   0.0800 
 43 H        6.7740     7.3930    -2.2120 H     1 <1>   0.0800 
 44 H        6.5670     5.9750    -1.2300 H     1 <1>   0.0800 
 45 H        5.5280     8.7560    -0.6480 H     1 <1>   0.0800 
 46 H        7.4920     6.0580     0.9200 H     1 <1>   0.3700 
 47 H        8.9790     7.1780     2.7700 H     1 <1>   0.0800 
 48 H        9.6730     7.9720     1.3720 H     1 <1>   0.0800 
 49 H       11.7710     6.4330     0.3770 H     1 <1>   0.1500 
 50 H       10.0530     2.7130     1.5710 H     1 <1>   0.1500 
 51 H       12.2170     3.8210     0.3490 H     1 <1>   0.1500 
@<TRIPOS>BOND
  1   1   2  1   
  2   2   3  ar  
  3   2   4  ar  
  4   3   5  1   
  5   3   6  ar  
  6   4   7  ar  
  7   4  29  1   
  8   5   8  1   
  9   6   9  ar  
 10   6  30  1   
 11   7   9  ar  
 12   7  10  1   
 13   8  11  1   
 14   8  31  1   
 15   8  32  1   
 16   9  33  1   
 17  10  12  2   
 18  10  13  2   
 19  10  14  am  
 20  11  34  1   
 21  11  35  1   
 22  11  36  1   
 23  14  15  1   
 24  14  16  1   
 25  15  17  1   
 26  15  37  1   
 27  15  38  1   
 28  16  18  1   
 29  16  39  1   
 30  16  40  1   
 31  17  19  1   
 32  17  41  1   
 33  17  42  1   
 34  18  19  1   
 35  18  43  1   
 36  18  44  1   
 37  19  20  1   
 38  19  45  1   
 39  20  21  2   
 40  20  22  am  
 41  22  23  1   
 42  22  46  1   
 43  23  24  1   
 44  23  47  1   
 45  23  48  1   
 46  24  25  1   
 47  24  26  2   
 48  25  27  1   
 49  26  28  1   
 50  26  49  1   
 51  27  28  2   
 52  27  50  1   
 53  28  51  1   
@<TRIPOS>SUBSTRUCTURE
  1 ****  14 GROUP 4 **** **** 0

# MOE 2024.06 (io_trps.svl 2023.06)
