@<TRIPOS>MOLECULE
N-[3-(2-Methoxy-phenyl)-[1,2,4]oxadiazol-5-ylmethyl]-2,2-dimethyl-propionamide
40 41 1 0 0 
SMALL
USER_CHARGES


@<TRIPOS>ATOM
  1 O       -0.9200    -0.8580    -0.5970 O.2   1 <1>  -0.5700 
  2 C       -2.1180    -0.7160    -0.6320 C.2   1 <1>   0.5690 
  3 N       -2.7800    -1.4770    -1.5400 N.am  1 <1>  -0.7300 
  4 C       -2.7920     0.3060     0.3360 C.3   1 <1>   0.0610 
  5 C       -4.2210    -1.6270    -1.8780 C.3   1 <1>   0.3200 
  6 C       -3.3880     1.4980    -0.4400 C.3   1 <1>  -0.2400 
  7 C       -3.8850    -0.3480     1.2060 C.3   1 <1>  -0.2400 
  8 C       -1.7520     0.8940     1.3180 C.3   1 <1>  -0.2400 
  9 C       -4.8080    -2.9090    -1.3050 C.2   1 <1>   0.2980 
 10 O       -4.2850    -4.0520    -1.6660 O.3   1 <1>  -0.0190 
 11 N       -5.7840    -2.9840    -0.4990 N.2   1 <1>  -0.5650 
 12 N       -4.9890    -4.9350    -1.0300 N.2   1 <1>  -0.4100 
 13 C       -5.8800    -4.3090    -0.3470 C.2   1 <1>   0.4620 
 14 C       -6.8530    -4.9320     0.5230 C.ar  1 <1>   0.0540 
 15 C       -8.2330    -4.7700     0.3450 C.ar  1 <1>   0.0820 
 16 C       -6.4160    -5.7290     1.5800 C.ar  1 <1>  -0.1500 
 17 O       -8.6520    -4.0210    -0.7100 O.3   1 <1>  -0.3630 
 18 C       -9.1270    -5.3780     1.2230 C.ar  1 <1>  -0.1500 
 19 C       -7.3070    -6.3340     2.4460 C.ar  1 <1>  -0.1500 
 20 C      -10.0170    -3.7900    -0.9780 C.3   1 <1>   0.0400 
 21 C       -8.6660    -6.1550     2.2690 C.ar  1 <1>  -0.1500 
 22 H       -2.1670    -2.1330    -2.0290 H     1 <1>   0.3700 
 23 H       -4.3250    -1.6500    -2.9480 H     1 <1>   0.0800 
 24 H       -4.7890    -0.7940    -1.5160 H     1 <1>   0.0800 
 25 H       -2.6200     1.9750    -1.0240 H     1 <1>   0.0800 
 26 H       -3.7960     2.2250     0.2400 H     1 <1>   0.0800 
 27 H       -4.1700     1.1910    -1.1050 H     1 <1>   0.0800 
 28 H       -4.7430    -0.6340     0.6310 H     1 <1>   0.0800 
 29 H       -4.2240     0.3330     1.9660 H     1 <1>   0.0800 
 30 H       -3.4950    -1.2270     1.6890 H     1 <1>   0.0800 
 31 H       -0.9660     1.3940     0.7780 H     1 <1>   0.0800 
 32 H       -1.3060     0.1090     1.9020 H     1 <1>   0.0800 
 33 H       -2.2040     1.6030     1.9880 H     1 <1>   0.0800 
 34 H       -5.3580    -5.8720     1.7210 H     1 <1>   0.1500 
 35 H      -10.1880    -5.2610     1.1090 H     1 <1>   0.1500 
 36 H       -6.9450    -6.9440     3.2560 H     1 <1>   0.1500 
 37 H      -10.0850    -3.1700    -1.8540 H     1 <1>   0.0800 
 38 H      -10.4580    -3.2840    -0.1380 H     1 <1>   0.0800 
 39 H      -10.5020    -4.7330    -1.1600 H     1 <1>   0.0800 
 40 H       -9.3620    -6.6230     2.9430 H     1 <1>   0.1500 
@<TRIPOS>BOND
  1   1   2  2   
  2   2   3  am  
  3   2   4  1   
  4   3   5  1   
  5   3  22  1   
  6   4   6  1   
  7   4   7  1   
  8   4   8  1   
  9   5   9  1   
 10   5  23  1   
 11   5  24  1   
 12   6  25  1   
 13   6  26  1   
 14   6  27  1   
 15   7  28  1   
 16   7  29  1   
 17   7  30  1   
 18   8  31  1   
 19   8  32  1   
 20   8  33  1   
 21   9  10  1   
 22   9  11  2   
 23  10  12  1   
 24  11  13  1   
 25  12  13  2   
 26  13  14  1   
 27  14  15  ar  
 28  14  16  ar  
 29  15  17  1   
 30  15  18  ar  
 31  16  19  ar  
 32  16  34  1   
 33  17  20  1   
 34  18  21  ar  
 35  18  35  1   
 36  19  21  ar  
 37  19  36  1   
 38  20  37  1   
 39  20  38  1   
 40  20  39  1   
 41  21  40  1   
@<TRIPOS>SUBSTRUCTURE
  1 ****  11 GROUP 4 **** **** 0

# MOE 2024.06 (io_trps.svl 2023.06)
