@<TRIPOS>MOLECULE
2-Benzenesulfonyl-N-[5-(1-methyl-butyl)-[1,3,4]thiadiazol-2-yl]-acetamide
42 43 1 0 0 
SMALL
USER_CHARGES


@<TRIPOS>ATOM
  1 S        0.7680    -0.9570     0.8260 S.o2  1 <1>   1.2040 
  2 O        0.0560    -2.1950     1.0450 O.2   1 <1>  -0.6500 
  3 O        1.8060    -0.5740     1.7620 O.2   1 <1>  -0.6500 
  4 C       -0.4140     0.3970     0.6080 C.ar  1 <1>  -0.0090 
  5 C        1.5490    -1.0920    -0.7600 C.3   1 <1>   0.0060 
  6 C       -0.0490     1.7200     0.8350 C.ar  1 <1>  -0.1500 
  7 C       -1.7110     0.1450     0.1750 C.ar  1 <1>  -0.1500 
  8 C        2.2290     0.2010    -1.0970 C.2   1 <1>   0.5690 
  9 C       -0.9450     2.7550     0.6330 C.ar  1 <1>  -0.1500 
 10 C       -2.6130     1.1750    -0.0270 C.ar  1 <1>  -0.1500 
 11 O        1.8680     0.7610    -2.0960 O.2   1 <1>  -0.5700 
 12 N        3.2130     0.6770    -0.2750 N.am  1 <1>  -0.4940 
 13 C       -2.2290     2.4830     0.2000 C.ar  1 <1>  -0.1500 
 14 C        4.0010     1.8000    -0.4130 C.2   1 <1>   0.4420 
 15 S        5.0350     2.1900     0.9210 S.3   1 <1>  -0.0800 
 16 N        4.1150     2.6380    -1.3760 N.2   1 <1>  -0.3380 
 17 C        5.5820     3.5560     0.0080 C.2   1 <1>   0.1980 
 18 N        5.0170     3.6360    -1.1300 N.2   1 <1>  -0.3380 
 19 C        6.6320     4.4600     0.6470 C.3   1 <1>   0.1000 
 20 C        6.5770     5.8790     0.0430 C.3   1 <1>  -0.1600 
 21 C        8.0230     3.8240     0.4940 C.3   1 <1>  -0.2400 
 22 C        7.4750     6.8990     0.7620 C.3   1 <1>  -0.1600 
 23 C        7.2720     8.3040     0.1890 C.3   1 <1>  -0.2400 
 24 H        0.8190    -1.3120    -1.5130 H     1 <1>   0.0800 
 25 H        2.2760    -1.8790    -0.7510 H     1 <1>   0.0800 
 26 H        0.9450     1.9530     1.1750 H     1 <1>   0.1500 
 27 H       -2.0260    -0.8700    -0.0030 H     1 <1>   0.1500 
 28 H       -0.6410     3.7730     0.8100 H     1 <1>   0.1500 
 29 H       -3.6140     0.9600    -0.3620 H     1 <1>   0.1500 
 30 H        3.3140     0.2020     0.6290 H     1 <1>   0.3700 
 31 H       -2.9270     3.2880     0.0410 H     1 <1>   0.1500 
 32 H        6.4020     4.5350     1.6960 H     1 <1>   0.0800 
 33 H        5.5580     6.2250     0.0930 H     1 <1>   0.0800 
 34 H        6.8470     5.8330    -0.9980 H     1 <1>   0.0800 
 35 H        8.3000     3.7830    -0.5450 H     1 <1>   0.0800 
 36 H        8.0210     2.8220     0.8840 H     1 <1>   0.0800 
 37 H        8.7650     4.3850     1.0310 H     1 <1>   0.0800 
 38 H        8.5100     6.6280     0.6480 H     1 <1>   0.0800 
 39 H        7.2440     6.9110     1.8140 H     1 <1>   0.0800 
 40 H        7.5120     8.3200    -0.8600 H     1 <1>   0.0800 
 41 H        7.9120     9.0050     0.6960 H     1 <1>   0.0800 
 42 H        6.2510     8.6200     0.3150 H     1 <1>   0.0800 
@<TRIPOS>BOND
  1   1   2  2   
  2   1   3  2   
  3   1   4  1   
  4   1   5  1   
  5   4   6  ar  
  6   4   7  ar  
  7   5   8  1   
  8   5  24  1   
  9   5  25  1   
 10   6   9  ar  
 11   6  26  1   
 12   7  10  ar  
 13   7  27  1   
 14   8  11  2   
 15   8  12  am  
 16   9  13  ar  
 17   9  28  1   
 18  10  13  ar  
 19  10  29  1   
 20  12  14  1   
 21  12  30  1   
 22  13  31  1   
 23  14  15  1   
 24  14  16  2   
 25  15  17  1   
 26  16  18  1   
 27  17  18  2   
 28  17  19  1   
 29  19  20  1   
 30  19  21  1   
 31  19  32  1   
 32  20  22  1   
 33  20  33  1   
 34  20  34  1   
 35  21  35  1   
 36  21  36  1   
 37  21  37  1   
 38  22  23  1   
 39  22  38  1   
 40  22  39  1   
 41  23  40  1   
 42  23  41  1   
 43  23  42  1   
@<TRIPOS>SUBSTRUCTURE
  1 ****  14 GROUP 4 **** **** 0

# MOE 2024.06 (io_trps.svl 2023.06)
