@<TRIPOS>MOLECULE
N-[1-(3-p-Tolyl-[1,2,4]oxadiazol-5-yl)-ethyl]-acetamide
33 34 1 0 0 
SMALL
USER_CHARGES


@<TRIPOS>ATOM
  1 O       -1.5790    -0.6410    -2.0750 O.2   1 <1>  -0.5700 
  2 C       -2.0230    -0.8420    -0.9770 C.2   1 <1>   0.5690 
  3 N       -3.3570    -0.8250    -0.7810 N.am  1 <1>  -0.7300 
  4 C       -1.0700    -1.1120     0.1610 C.3   1 <1>  -0.1790 
  5 C       -4.1190    -1.0910     0.4560 C.3   1 <1>   0.4000 
  6 C       -4.6640    -2.5230     0.4620 C.2   1 <1>   0.2980 
  7 C       -5.2170    -0.0300     0.5520 C.3   1 <1>  -0.2400 
  8 O       -3.8100    -3.4900     0.6740 O.3   1 <1>  -0.0190 
  9 N       -5.8680    -2.8950     0.2870 N.2   1 <1>  -0.5650 
 10 N       -4.5290    -4.5660     0.6310 N.2   1 <1>  -0.4100 
 11 C       -5.7460    -4.2220     0.3970 C.2   1 <1>   0.4620 
 12 C       -6.8750    -5.1290     0.2640 C.ar  1 <1>   0.0540 
 13 C       -8.1680    -4.6640     0.0150 C.ar  1 <1>  -0.1500 
 14 C       -6.7120    -6.5110     0.3800 C.ar  1 <1>  -0.1500 
 15 C       -9.2380    -5.5300    -0.1120 C.ar  1 <1>  -0.1500 
 16 C       -7.7790    -7.3810     0.2550 C.ar  1 <1>  -0.1500 
 17 C       -9.0510    -6.8960     0.0060 C.ar  1 <1>  -0.1430 
 18 C      -10.2250    -7.8490    -0.1310 C.3   1 <1>  -0.0970 
 19 H       -3.9240    -0.7070    -1.6220 H     1 <1>   0.3700 
 20 H       -1.1640    -0.3460     0.9080 H     1 <1>   0.0800 
 21 H       -0.0610    -1.1100    -0.2080 H     1 <1>   0.0800 
 22 H       -1.2750    -2.0730     0.5930 H     1 <1>   0.0800 
 23 H       -3.4720    -0.9820     1.3090 H     1 <1>   0.0800 
 24 H       -5.8900    -0.1060    -0.2830 H     1 <1>   0.0800 
 25 H       -4.7840     0.9540     0.5750 H     1 <1>   0.0800 
 26 H       -5.7820    -0.1750     1.4550 H     1 <1>   0.0800 
 27 H       -8.3390    -3.6070    -0.0820 H     1 <1>   0.1500 
 28 H       -5.7320    -6.9110     0.5730 H     1 <1>   0.1500 
 29 H      -10.2210    -5.1350    -0.3020 H     1 <1>   0.1500 
 30 H       -7.6140    -8.4400     0.3520 H     1 <1>   0.1500 
 31 H      -10.9610    -7.4430    -0.8010 H     1 <1>   0.0800 
 32 H      -10.6790    -8.0060     0.8310 H     1 <1>   0.0800 
 33 H       -9.8980    -8.7960    -0.5190 H     1 <1>   0.0800 
@<TRIPOS>BOND
  1   1   2  2   
  2   2   3  am  
  3   2   4  1   
  4   3   5  1   
  5   3  19  1   
  6   4  20  1   
  7   4  21  1   
  8   4  22  1   
  9   5   6  1   
 10   5   7  1   
 11   5  23  1   
 12   6   8  1   
 13   6   9  2   
 14   7  24  1   
 15   7  25  1   
 16   7  26  1   
 17   8  10  1   
 18   9  11  1   
 19  10  11  2   
 20  11  12  1   
 21  12  13  ar  
 22  12  14  ar  
 23  13  15  ar  
 24  13  27  1   
 25  14  16  ar  
 26  14  28  1   
 27  15  17  ar  
 28  15  29  1   
 29  16  17  ar  
 30  16  30  1   
 31  17  18  1   
 32  18  31  1   
 33  18  32  1   
 34  18  33  1   
@<TRIPOS>SUBSTRUCTURE
  1 ****  11 GROUP 4 **** **** 0

# MOE 2024.06 (io_trps.svl 2023.06)
