@<TRIPOS>MOLECULE
7-(3-Allyloxy-2-hydroxy-propyl)-8-cyclohexylamino-1,3-dimethyl-3,7-dihydro-purin
58 60 1 0 0 
SMALL
USER_CHARGES


@<TRIPOS>ATOM
  1 O        1.1660     1.8730     1.9310 O.2   1 <1>  -0.5740 
  2 C        2.1630     2.0470     1.2610 C.2   1 <1>   0.6870 
  3 N        2.2230     3.1100     0.3650 N.am  1 <1>  -0.4250 
  4 N        3.2420     1.1820     1.3880 N.am  1 <1>  -0.4410 
  5 C        3.3510     3.3310    -0.4150 C.2   1 <1>   0.7000 
  6 C        1.0550     4.0420     0.2720 C.3   1 <1>   0.0530 
  7 C        4.3420     1.3920     0.5790 C.2   1 <1>   0.4210 
  8 C        3.1990     0.0450     2.3570 C.3   1 <1>   0.0530 
  9 O        3.4130     4.2820    -1.1730 O.2   1 <1>  -0.5740 
 10 C        4.4420     2.4100    -0.3010 C.2   1 <1>   0.2710 
 11 N        5.4820     0.6500     0.5130 N.pl3 1 <1>  -0.7030 
 12 N        5.7020     2.2750    -0.9230 N.pl3 1 <1>  -0.7670 
 13 C        6.2810     1.2000    -0.3940 C.cat 1 <1>   1.0690 
 14 C        6.2020     3.1960    -1.9950 C.3   1 <1>   0.3490 
 15 N        7.4900     0.7550    -0.7090 N.pl3 1 <1>  -0.7170 
 16 C        6.7730     4.5110    -1.4350 C.3   1 <1>   0.1940 
 17 C        8.2220    -0.3920    -0.1510 C.3   1 <1>   0.2420 
 18 O        7.3900     5.1860    -2.4720 O.3   1 <1>  -0.6830 
 19 C        7.8180     4.3130    -0.3290 C.3   1 <1>   0.1130 
 20 C        9.0710     0.0880     1.0340 C.3   1 <1>  -0.1660 
 21 C        9.1110    -0.9730    -1.2570 C.3   1 <1>  -0.1660 
 22 O        8.3410     5.5530     0.0330 O.3   1 <1>  -0.5640 
 23 C       10.1870     1.0590     0.6150 C.3   1 <1>  -0.1660 
 24 C       10.2270    -0.0090    -1.6960 C.3   1 <1>  -0.1660 
 25 C        9.4810     5.5290     0.8400 C.3   1 <1>   0.2520 
 26 C       11.0600     0.4560    -0.4930 C.3   1 <1>  -0.1660 
 27 C        9.1890     4.8400     2.1650 C.2   1 <1>  -0.2940 
 28 C        9.0570     5.4640     3.3390 C.2   1 <1>  -0.3060 
 29 H        1.0670     4.5910    -0.6540 H     1 <1>   0.0730 
 30 H        1.0830     4.7380     1.0920 H     1 <1>   0.0730 
 31 H        0.1330     3.4870     0.3200 H     1 <1>   0.0730 
 32 H        2.4770     0.2360     3.1330 H     1 <1>   0.0730 
 33 H        4.1590    -0.0870     2.8230 H     1 <1>   0.0730 
 34 H        2.9190    -0.8580     1.8430 H     1 <1>   0.0730 
 35 H        5.7040    -0.1780     1.0570 H     1 <1>   0.4450 
 36 H        5.3950     3.4300    -2.6690 H     1 <1>   0.0730 
 37 H        6.9690     2.7000    -2.5640 H     1 <1>   0.0730 
 38 H        8.0500     1.2660    -1.3880 H     1 <1>   0.4450 
 39 H        5.9710     5.1320    -1.0720 H     1 <1>   0.0730 
 40 H        7.5290    -1.1480     0.1800 H     1 <1>   0.0730 
 41 H        7.8510     5.9660    -2.0870 H     1 <1>   0.3950 
 42 H        8.6200     3.6910    -0.6850 H     1 <1>   0.0730 
 43 H        7.3640     3.8720     0.5410 H     1 <1>   0.0730 
 44 H        9.5290    -0.7730     1.4910 H     1 <1>   0.0730 
 45 H        8.4480     0.5460     1.7820 H     1 <1>   0.0730 
 46 H        9.5710    -1.8720    -0.8830 H     1 <1>   0.0730 
 47 H        8.5110    -1.2570    -2.1040 H     1 <1>   0.0730 
 48 H        9.7680     1.9870     0.2750 H     1 <1>   0.0730 
 49 H       10.8070     1.2810     1.4690 H     1 <1>   0.0730 
 50 H        9.8160     0.8460    -2.2030 H     1 <1>   0.0730 
 51 H       10.8740    -0.5120    -2.3950 H     1 <1>   0.0730 
 52 H        9.7660     6.5530     1.0120 H     1 <1>   0.0730 
 53 H       10.2780     5.0360     0.3090 H     1 <1>   0.0730 
 54 H       11.6010    -0.3850    -0.0950 H     1 <1>   0.0730 
 55 H       11.7870     1.1820    -0.8160 H     1 <1>   0.0730 
 56 H        9.1050     3.7730     2.0750 H     1 <1>   0.1440 
 57 H        8.8570     4.9630     4.2710 H     1 <1>   0.1440 
 58 H        9.1360     6.5310     3.4690 H     1 <1>   0.1440 
@<TRIPOS>BOND
  1   1   2  2   
  2   2   3  am  
  3   2   4  am  
  4   3   5  am  
  5   3   6  1   
  6   4   7  1   
  7   4   8  1   
  8   5   9  2   
  9   5  10  1   
 10   6  29  1   
 11   6  30  1   
 12   6  31  1   
 13   7  10  2   
 14   7  11  1   
 15   8  32  1   
 16   8  33  1   
 17   8  34  1   
 18  10  12  1   
 19  11  13  ar  
 20  11  35  1   
 21  12  13  ar  
 22  12  14  1   
 23  13  15  ar  
 24  14  16  1   
 25  14  36  1   
 26  14  37  1   
 27  15  17  1   
 28  15  38  1   
 29  16  18  1   
 30  16  19  1   
 31  16  39  1   
 32  17  20  1   
 33  17  21  1   
 34  17  40  1   
 35  18  41  1   
 36  19  22  1   
 37  19  42  1   
 38  19  43  1   
 39  20  23  1   
 40  20  44  1   
 41  20  45  1   
 42  21  24  1   
 43  21  46  1   
 44  21  47  1   
 45  22  25  1   
 46  23  26  1   
 47  23  48  1   
 48  23  49  1   
 49  24  26  1   
 50  24  50  1   
 51  24  51  1   
 52  25  27  1   
 53  25  52  1   
 54  25  53  1   
 55  26  54  1   
 56  26  55  1   
 57  27  28  2   
 58  27  56  1   
 59  28  57  1   
 60  28  58  1   
@<TRIPOS>SUBSTRUCTURE
  1 ****  12 GROUP 4 **** **** 0

# MOE 2024.06 (io_trps.svl 2023.06)
