@<TRIPOS>MOLECULE
Piperidine-1-sulfonic acid pyridin-2-ylamide
31 32 1 0 0 
SMALL
USER_CHARGES


@<TRIPOS>ATOM
  1 S       -0.3730     0.1300     0.8720 S.o2  1 <1>   1.6260 
  2 O       -1.1190     1.3280     1.1940 O.2   1 <1>  -0.6500 
  3 O        0.1090    -0.6930     1.9610 O.2   1 <1>  -0.6500 
  4 N        0.9780     0.6090    -0.0350 N.am  1 <1>  -0.8490 
  5 N       -1.2600    -0.7210    -0.2650 N.2   1 <1>  -0.6380 
  6 C        1.9320    -0.4800    -0.2650 C.3   1 <1>   0.1960 
  7 C        1.6350     1.7710     0.5740 C.3   1 <1>   0.1960 
  8 C       -1.1970    -1.9830    -0.4270 C.2   1 <1>   0.4860 
  9 C        3.0560    -0.0260    -1.2010 C.3   1 <1>  -0.1600 
 10 C        2.7550     2.2970    -0.3290 C.3   1 <1>  -0.1600 
 11 N       -2.0280    -2.4430    -1.4240 N.pl3 1 <1>  -0.5500 
 12 C       -0.4200    -3.0130     0.2180 C.2   1 <1>  -0.1360 
 13 C        3.7810     1.2050    -0.6480 C.3   1 <1>  -0.1600 
 14 C       -2.1370    -3.7660    -1.8020 C.2   1 <1>  -0.0500 
 15 C       -0.5100    -4.3220    -0.1370 C.2   1 <1>  -0.1500 
 16 C       -1.3940    -4.7100    -1.1760 C.2   1 <1>  -0.1500 
 17 H        1.4300    -1.3110    -0.7270 H     1 <1>   0.0800 
 18 H        2.3480    -0.8100     0.6740 H     1 <1>   0.0800 
 19 H        2.0320     1.5010     1.5390 H     1 <1>   0.0800 
 20 H        0.9180     2.5630     0.7160 H     1 <1>   0.0800 
 21 H        2.6320     0.2020    -2.1630 H     1 <1>   0.0800 
 22 H        3.7580    -0.8300    -1.3330 H     1 <1>   0.0800 
 23 H        3.2440     3.1240     0.1540 H     1 <1>   0.0800 
 24 H        2.3170     2.6630    -1.2420 H     1 <1>   0.0800 
 25 H       -2.5780    -1.7070    -1.8740 H     1 <1>   0.4000 
 26 H        0.2560    -2.7530     1.0020 H     1 <1>   0.1500 
 27 H        4.4950     1.5680    -1.3680 H     1 <1>   0.0800 
 28 H        4.3120     0.9380     0.2490 H     1 <1>   0.0800 
 29 H       -2.8250    -4.0050    -2.5980 H     1 <1>   0.1500 
 30 H        0.0710    -5.0860     0.3500 H     1 <1>   0.1500 
 31 H       -1.4520    -5.7510    -1.4430 H     1 <1>   0.1500 
@<TRIPOS>BOND
  1   1   2  2   
  2   1   3  2   
  3   1   4  am  
  4   1   5  1   
  5   4   6  1   
  6   4   7  1   
  7   5   8  2   
  8   6   9  1   
  9   6  17  1   
 10   6  18  1   
 11   7  10  1   
 12   7  19  1   
 13   7  20  1   
 14   8  11  1   
 15   8  12  1   
 16   9  13  1   
 17   9  21  1   
 18   9  22  1   
 19  10  13  1   
 20  10  23  1   
 21  10  24  1   
 22  11  14  1   
 23  11  25  1   
 24  12  15  2   
 25  12  26  1   
 26  13  27  1   
 27  13  28  1   
 28  14  16  2   
 29  14  29  1   
 30  15  16  1   
 31  15  30  1   
 32  16  31  1   
@<TRIPOS>SUBSTRUCTURE
  1 ****   5 GROUP 4 **** **** 0

# MOE 2024.06 (io_trps.svl 2023.06)
