@<TRIPOS>MOLECULE
8-(2-Methoxy-ethyl)-1,3,6,7-tetramethyl-1H,8H-imidazo[2,1-f]purine-2,4-dione
42 44 1 0 0 
SMALL
USER_CHARGES


@<TRIPOS>ATOM
  1 O        1.1870    -0.3570     0.2600 O.2   1 <1>  -0.5750 
  2 C        2.0840     0.4590     0.1930 C.2   1 <1>   0.6860 
  3 N        1.8270     1.8010     0.4560 N.am  1 <1>  -0.4270 
  4 N        3.3680     0.0470    -0.1380 N.am  1 <1>  -0.4430 
  5 C        2.8500     2.7430     0.4650 C.2   1 <1>   0.6990 
  6 C        0.4290     2.2230     0.7810 C.3   1 <1>   0.0510 
  7 C        4.3750     0.9900    -0.1390 C.2   1 <1>   0.4190 
  8 C        3.6550    -1.3830    -0.4570 C.3   1 <1>   0.0510 
  9 O        2.6190     3.9090     0.7390 O.2   1 <1>  -0.5750 
 10 C        4.1700     2.2980     0.1530 C.2   1 <1>   0.2690 
 11 N        5.6970     0.7910    -0.3940 N.pl3 1 <1>  -0.7040 
 12 N        5.4320     2.9180     0.0850 N.pl3 1 <1>  -0.6340 
 13 C        6.2990     1.9670    -0.2350 C.cat 1 <1>   1.0690 
 14 C        6.1590     4.0780     0.2420 C.2   1 <1>   0.2330 
 15 N        7.5540     2.4300    -0.3040 N.pl3 1 <1>  -0.5730 
 16 C        7.4600     3.7810     0.0010 C.2   1 <1>   0.1560 
 17 C        5.4680     5.3740     0.6190 C.3   1 <1>  -0.1110 
 18 C        8.7670     1.6620    -0.7220 C.3   1 <1>   0.1590 
 19 C        8.6820     4.6830     0.0310 C.3   1 <1>  -0.1110 
 20 C        9.0640     0.4510     0.1770 C.3   1 <1>   0.1110 
 21 O        8.0130    -0.4690     0.1200 O.3   1 <1>  -0.5660 
 22 C        8.2660    -1.6370     0.8410 C.3   1 <1>   0.0300 
 23 H        0.2460     2.0800     1.8320 H     1 <1>   0.0710 
 24 H       -0.2780     1.6370     0.2210 H     1 <1>   0.0710 
 25 H        0.2740     3.2600     0.5350 H     1 <1>   0.0710 
 26 H        2.7740    -1.8640    -0.8490 H     1 <1>   0.0710 
 27 H        3.9600    -1.8990     0.4370 H     1 <1>   0.0710 
 28 H        4.4320    -1.4550    -1.1970 H     1 <1>   0.0710 
 29 H        6.2680    -0.0640    -0.4190 H     1 <1>   0.4440 
 30 H        4.7330     5.6280    -0.1240 H     1 <1>   0.0710 
 31 H        6.1720     6.1820     0.6940 H     1 <1>   0.0710 
 32 H        4.9710     5.2630     1.5660 H     1 <1>   0.0710 
 33 H        9.6250     2.3100    -0.7070 H     1 <1>   0.0710 
 34 H        8.6410     1.3230    -1.7370 H     1 <1>   0.0710 
 35 H        9.3930     4.3190     0.7520 H     1 <1>   0.0710 
 36 H        8.4130     5.6880     0.3010 H     1 <1>   0.0710 
 37 H        9.1480     4.7080    -0.9380 H     1 <1>   0.0710 
 38 H        9.2020     0.7640     1.1980 H     1 <1>   0.0710 
 39 H        9.9610    -0.0380    -0.1660 H     1 <1>   0.0710 
 40 H        7.4120    -2.2850     0.7530 H     1 <1>   0.0710 
 41 H        8.4290    -1.3910     1.8770 H     1 <1>   0.0710 
 42 H        9.1330    -2.1280     0.4320 H     1 <1>   0.0710 
@<TRIPOS>BOND
  1   1   2  2   
  2   2   3  am  
  3   2   4  am  
  4   3   5  am  
  5   3   6  1   
  6   4   7  1   
  7   4   8  1   
  8   5   9  2   
  9   5  10  1   
 10   6  23  1   
 11   6  24  1   
 12   6  25  1   
 13   7  10  2   
 14   7  11  1   
 15   8  26  1   
 16   8  27  1   
 17   8  28  1   
 18  10  12  1   
 19  11  13  ar  
 20  11  29  1   
 21  12  13  ar  
 22  12  14  1   
 23  13  15  ar  
 24  14  16  2   
 25  14  17  1   
 26  15  16  1   
 27  15  18  1   
 28  16  19  1   
 29  17  30  1   
 30  17  31  1   
 31  17  32  1   
 32  18  20  1   
 33  18  33  1   
 34  18  34  1   
 35  19  35  1   
 36  19  36  1   
 37  19  37  1   
 38  20  21  1   
 39  20  38  1   
 40  20  39  1   
 41  21  22  1   
 42  22  40  1   
 43  22  41  1   
 44  22  42  1   
@<TRIPOS>SUBSTRUCTURE
  1 ****  10 GROUP 4 **** **** 0

# MOE 2024.06 (io_trps.svl 2023.06)
