@<TRIPOS>MOLECULE
NONAME
47 49 1 0 0 
SMALL
USER_CHARGES


@<TRIPOS>ATOM
  1 O        3.6210    -0.7880    -3.1000 O.2   1 <1>  -0.5700 
  2 C        4.0740    -0.0890    -2.2260 C.2   1 <1>   0.5690 
  3 N        4.5510     1.1670    -2.4240 N.am  1 <1>  -0.5390 
  4 C        4.2240    -0.4580    -0.7380 C.3   1 <1>   0.4810 
  5 C        5.0770     1.6750    -1.2640 C.2   1 <1>  -0.0290 
  6 C        5.0160    -1.7660    -0.5710 C.2   1 <1>  -0.1240 
  7 C        2.8320    -0.5050    -0.0970 C.ar  1 <1>  -0.1440 
  8 C        4.9430     0.8040    -0.2330 C.2   1 <1>  -0.1240 
  9 C        5.7110     3.0520    -1.3140 C.3   1 <1>  -0.1020 
 10 C        4.4400    -2.8010     0.1170 C.2   1 <1>   0.1770 
 11 C        6.3070    -1.7920    -1.1730 C.2   1 <1>   0.7060 
 12 C        2.4200    -1.6510     0.5670 C.ar  1 <1>   0.0830 
 13 C        1.9620     0.5790    -0.1560 C.ar  1 <1>  -0.1500 
 14 C        5.3300     0.8900     1.1390 C.2   1 <1>   0.7060 
 15 O        3.2190    -2.7330     0.6560 O.3   1 <1>  -0.1590 
 16 N        5.0140    -4.0150     0.3480 N.pl3 1 <1>  -0.9000 
 17 O        6.8450    -0.8150    -1.6680 O.2   1 <1>  -0.5700 
 18 O        6.9970    -2.9450    -1.2080 O.3   1 <1>  -0.4300 
 19 C        1.1710    -1.7170     1.1620 C.ar  1 <1>  -0.1500 
 20 C        0.7130     0.5160     0.4390 C.ar  1 <1>  -0.1500 
 21 O        5.8070     1.8880     1.6400 O.2   1 <1>  -0.5700 
 22 O        5.1530    -0.1840     1.9140 O.3   1 <1>  -0.4300 
 23 C        8.2550    -3.0750    -1.8310 C.3   1 <1>   0.2000 
 24 C        0.3150    -0.6330     1.0990 C.ar  1 <1>  -0.1500 
 25 C        5.4880    -0.1860     3.2860 C.3   1 <1>   0.0400 
 26 C        8.0320    -3.3090    -3.3250 C.3   1 <1>  -0.2400 
 27 C        8.9560    -4.2640    -1.1800 C.3   1 <1>  -0.2400 
 28 H        4.6020     1.5700    -3.3610 H     1 <1>   0.3700 
 29 H        4.9830     3.7820    -1.6190 H     1 <1>   0.0800 
 30 H        6.5230     3.0530    -2.0180 H     1 <1>   0.0800 
 31 H        6.0990     3.3410    -0.3550 H     1 <1>   0.0800 
 32 H        2.2440     1.4860    -0.6630 H     1 <1>   0.1500 
 33 H        5.9280    -4.2630    -0.0540 H     1 <1>   0.4000 
 34 H        4.5180    -4.7700     0.8290 H     1 <1>   0.4000 
 35 H        0.8730    -2.6160     1.6710 H     1 <1>   0.1500 
 36 H        0.0490     1.3620     0.3860 H     1 <1>   0.1500 
 37 H        8.8290    -2.1780    -1.6620 H     1 <1>   0.0800 
 38 H       -0.6560    -0.6820     1.5600 H     1 <1>   0.1500 
 39 H        6.5400     0.0180     3.3890 H     1 <1>   0.0800 
 40 H        5.2560    -1.1550     3.6900 H     1 <1>   0.0800 
 41 H        4.9110     0.5720     3.7860 H     1 <1>   0.0800 
 42 H        7.4280    -4.1830    -3.4850 H     1 <1>   0.0800 
 43 H        8.9770    -3.4470    -3.8180 H     1 <1>   0.0800 
 44 H        7.5480    -2.4560    -3.7660 H     1 <1>   0.0800 
 45 H        8.3850    -5.1640    -1.3240 H     1 <1>   0.0800 
 46 H        9.0840    -4.0840    -0.1280 H     1 <1>   0.0800 
 47 H        9.9270    -4.4000    -1.6200 H     1 <1>   0.0800 
@<TRIPOS>BOND
  1   1   2  2   
  2   2   3  am  
  3   2   4  1   
  4   3   5  1   
  5   3  28  1   
  6   4   6  1   
  7   4   7  1   
  8   4   8  1   
  9   5   8  2   
 10   5   9  1   
 11   6  10  2   
 12   6  11  1   
 13   7  12  ar  
 14   7  13  ar  
 15   8  14  1   
 16   9  29  1   
 17   9  30  1   
 18   9  31  1   
 19  10  15  1   
 20  10  16  1   
 21  11  17  2   
 22  11  18  1   
 23  12  15  1   
 24  12  19  ar  
 25  13  20  ar  
 26  13  32  1   
 27  14  21  2   
 28  14  22  1   
 29  16  33  1   
 30  16  34  1   
 31  18  23  1   
 32  19  24  ar  
 33  19  35  1   
 34  20  24  ar  
 35  20  36  1   
 36  22  25  1   
 37  23  26  1   
 38  23  27  1   
 39  23  37  1   
 40  24  38  1   
 41  25  39  1   
 42  25  40  1   
 43  25  41  1   
 44  26  42  1   
 45  26  43  1   
 46  26  44  1   
 47  27  45  1   
 48  27  46  1   
 49  27  47  1   
@<TRIPOS>SUBSTRUCTURE
  1 ****   4 GROUP 4 **** **** 0

# MOE 2024.06 (io_trps.svl 2023.06)
