@<TRIPOS>MOLECULE
7-(4-Isopropyl-phenyl)-5-methyl-4,7-dihydro-tetrazolo[1,5-a]pyrimidine-6-carboxy
52 54 1 0 0 
SMALL
USER_CHARGES


@<TRIPOS>ATOM
  1 O       -0.4950    -1.3200     1.9830 O.2   1 <1>  -0.5700 
  2 C       -0.3700    -1.7280     0.8420 C.2   1 <1>   0.6160 
  3 N       -1.4170    -1.5670    -0.0420 N.am  1 <1>  -0.6600 
  4 C        0.8530    -2.3480     0.4480 C.2   1 <1>  -0.1240 
  5 C       -1.7670    -2.5690    -1.0870 C.3   1 <1>   0.1400 
  6 C       -2.3800    -0.4470     0.1480 C.3   1 <1>   0.1400 
  7 C        1.4380    -3.4380     1.0220 C.2   1 <1>  -0.0380 
  8 C        1.5320    -1.6170    -0.7230 C.3   1 <1>   0.4570 
  9 C       -2.1350    -3.9040    -0.4410 C.3   1 <1>  -0.2400 
 10 C       -3.6440    -0.9390     0.8500 C.3   1 <1>  -0.2400 
 11 N        2.6290    -3.9430     0.5440 N.pl3 1 <1>  -0.5840 
 12 C        0.8660    -4.2020     2.2050 C.3   1 <1>  -0.1020 
 13 N        2.7550    -2.3240    -1.1700 N.pl3 1 <1>   0.3140 
 14 C        1.8730    -0.1660    -0.3720 C.ar  1 <1>  -0.1440 
 15 C        3.2380    -3.3970    -0.5760 C.2   1 <1>   0.2700 
 16 N        3.4940    -2.0890    -2.2420 N.2   1 <1>  -0.4180 
 17 C        1.6580     0.8380    -1.3050 C.ar  1 <1>  -0.1500 
 18 C        2.3960     0.1730     0.8680 C.ar  1 <1>  -0.1500 
 19 N        4.2650    -3.8270    -1.2090 N.2   1 <1>  -0.3380 
 20 N        4.4070    -2.9950    -2.2430 N.2   1 <1>   0.0000 
 21 C        1.9520     2.1550    -1.0000 C.ar  1 <1>  -0.1500 
 22 C        2.6880     1.4910     1.1700 C.ar  1 <1>  -0.1500 
 23 C        2.4690     2.4960     0.2410 C.ar  1 <1>  -0.1440 
 24 C        2.7940     3.9460     0.5950 C.3   1 <1>   0.0630 
 25 C        1.5290     4.8110     0.5630 C.3   1 <1>  -0.2400 
 26 C        3.8660     4.5130    -0.3410 C.3   1 <1>  -0.2400 
 27 H       -0.9430    -2.7110    -1.7620 H     1 <1>   0.0800 
 28 H       -2.6040    -2.2120    -1.6630 H     1 <1>   0.0800 
 29 H       -2.6280    -0.0170    -0.8070 H     1 <1>   0.0800 
 30 H       -1.9200     0.3230     0.7460 H     1 <1>   0.0800 
 31 H        0.8650    -1.6100    -1.5610 H     1 <1>   0.0800 
 32 H       -1.2870    -4.3330     0.0590 H     1 <1>   0.0800 
 33 H       -2.4610    -4.5940    -1.1980 H     1 <1>   0.0800 
 34 H       -2.9340    -3.7730     0.2660 H     1 <1>   0.0800 
 35 H       -4.1740    -1.6440     0.2380 H     1 <1>   0.0800 
 36 H       -4.2940    -0.1060     1.0470 H     1 <1>   0.0800 
 37 H       -3.3860    -1.3970     1.7890 H     1 <1>   0.0800 
 38 H        3.0830    -4.7620     0.9630 H     1 <1>   0.4000 
 39 H        1.5340    -4.1250     3.0440 H     1 <1>   0.0800 
 40 H        0.7450    -5.2390     1.9500 H     1 <1>   0.0800 
 41 H       -0.0920    -3.8180     2.5040 H     1 <1>   0.0800 
 42 H        1.2630     0.6070    -2.2790 H     1 <1>   0.1500 
 43 H        2.5750    -0.5830     1.6140 H     1 <1>   0.1500 
 44 H        1.7770     2.9170    -1.7390 H     1 <1>   0.1500 
 45 H        3.0880     1.7280     2.1400 H     1 <1>   0.1500 
 46 H        3.1850     3.9760     1.5980 H     1 <1>   0.0800 
 47 H        1.1210     4.8570    -0.4300 H     1 <1>   0.0800 
 48 H        1.7530     5.8100     0.8900 H     1 <1>   0.0800 
 49 H        0.7870     4.3930     1.2190 H     1 <1>   0.0800 
 50 H        3.5090     4.5520    -1.3540 H     1 <1>   0.0800 
 51 H        4.7410     3.8890    -0.3110 H     1 <1>   0.0800 
 52 H        4.1410     5.5060    -0.0340 H     1 <1>   0.0800 
@<TRIPOS>BOND
  1   1   2  2   
  2   2   3  am  
  3   2   4  1   
  4   3   5  1   
  5   3   6  1   
  6   4   7  2   
  7   4   8  1   
  8   5   9  1   
  9   5  27  1   
 10   5  28  1   
 11   6  10  1   
 12   6  29  1   
 13   6  30  1   
 14   7  11  1   
 15   7  12  1   
 16   8  13  1   
 17   8  14  1   
 18   8  31  1   
 19   9  32  1   
 20   9  33  1   
 21   9  34  1   
 22  10  35  1   
 23  10  36  1   
 24  10  37  1   
 25  11  15  1   
 26  11  38  1   
 27  12  39  1   
 28  12  40  1   
 29  12  41  1   
 30  13  15  1   
 31  13  16  1   
 32  14  17  ar  
 33  14  18  ar  
 34  15  19  2   
 35  16  20  2   
 36  17  21  ar  
 37  17  42  1   
 38  18  22  ar  
 39  18  43  1   
 40  19  20  1   
 41  21  23  ar  
 42  21  44  1   
 43  22  23  ar  
 44  22  45  1   
 45  23  24  1   
 46  24  25  1   
 47  24  26  1   
 48  24  46  1   
 49  25  47  1   
 50  25  48  1   
 51  25  49  1   
 52  26  50  1   
 53  26  51  1   
 54  26  52  1   
@<TRIPOS>SUBSTRUCTURE
  1 ****  14 GROUP 4 **** **** 0

# MOE 2024.06 (io_trps.svl 2023.06)
