@<TRIPOS>MOLECULE
5-Oxo-1-p-tolyl-pyrrolidine-3-carboxylic acid (2-methoxy-1-methyl-ethyl)-amide
43 44 1 0 0 
SMALL
USER_CHARGES


@<TRIPOS>ATOM
  1 O        0.9850     0.2690    -0.2660 O.2   1 <1>  -0.5700 
  2 C        2.1890     0.1980    -0.2660 C.2   1 <1>   0.5690 
  3 N        2.9550    -0.9270    -0.1510 N.am  1 <1>  -0.4770 
  4 C        3.0400     1.4280    -0.4100 C.3   1 <1>  -0.0990 
  5 C        2.5390    -2.2700    -0.0400 C.ar  1 <1>   0.1170 
  6 C        4.3900    -0.5760    -0.1950 C.3   1 <1>   0.1400 
  7 C        4.4240     0.8560    -0.7490 C.3   1 <1>  -0.0190 
  8 C        1.3900    -2.7240    -0.6800 C.ar  1 <1>  -0.1500 
  9 C        3.2740    -3.1860     0.7070 C.ar  1 <1>  -0.1500 
 10 C        5.5880     1.6860    -0.2290 C.2   1 <1>   0.5690 
 11 C        0.9930    -4.0460    -0.5840 C.ar  1 <1>  -0.1500 
 12 C        2.8810    -4.5090     0.8030 C.ar  1 <1>  -0.1500 
 13 O        6.4970     1.1320     0.3390 O.2   1 <1>  -0.5700 
 14 N        5.5650     3.0300    -0.4370 N.am  1 <1>  -0.7300 
 15 C        1.7380    -4.9490     0.1560 C.ar  1 <1>  -0.1430 
 16 C        6.5450     4.0400     0.0360 C.3   1 <1>   0.2200 
 17 C        1.3020    -6.3990     0.2620 C.3   1 <1>  -0.0970 
 18 C        8.0020     3.6180    -0.2250 C.3   1 <1>   0.1200 
 19 C        6.2740     4.3170     1.5150 C.3   1 <1>  -0.2400 
 20 O        8.8390     4.7190    -0.0320 O.3   1 <1>  -0.5600 
 21 C       10.1910     4.4240    -0.1780 C.3   1 <1>   0.0400 
 22 H        3.0460     1.9470     0.5320 H     1 <1>   0.0800 
 23 H        2.6610     2.0660    -1.1860 H     1 <1>   0.0800 
 24 H        4.9350    -1.2550    -0.8280 H     1 <1>   0.0800 
 25 H        4.7860    -0.6130     0.8060 H     1 <1>   0.0800 
 26 H        4.5190     0.7860    -1.8180 H     1 <1>   0.0800 
 27 H        0.7990    -2.0390    -1.2590 H     1 <1>   0.1500 
 28 H        4.1580    -2.8700     1.2260 H     1 <1>   0.1500 
 29 H        0.0990    -4.3670    -1.0890 H     1 <1>   0.1500 
 30 H        3.4670    -5.1960     1.3880 H     1 <1>   0.1500 
 31 H        4.7550     3.4400    -0.9030 H     1 <1>   0.3700 
 32 H        6.3740     4.9450    -0.5230 H     1 <1>   0.0800 
 33 H        0.6300    -6.5150     1.0930 H     1 <1>   0.0800 
 34 H        2.1530    -7.0390     0.4090 H     1 <1>   0.0800 
 35 H        0.7990    -6.7050    -0.6380 H     1 <1>   0.0800 
 36 H        8.1140     3.2820    -1.2400 H     1 <1>   0.0800 
 37 H        8.2970     2.8400     0.4580 H     1 <1>   0.0800 
 38 H        6.4480     3.4320     2.1000 H     1 <1>   0.0800 
 39 H        5.2620     4.6490     1.6570 H     1 <1>   0.0800 
 40 H        6.9360     5.0890     1.8650 H     1 <1>   0.0800 
 41 H       10.7500     5.3290    -0.0180 H     1 <1>   0.0800 
 42 H       10.3700     4.0580    -1.1740 H     1 <1>   0.0800 
 43 H       10.4750     3.6880     0.5540 H     1 <1>   0.0800 
@<TRIPOS>BOND
  1   1   2  2   
  2   2   3  am  
  3   2   4  1   
  4   3   5  1   
  5   3   6  1   
  6   4   7  1   
  7   4  22  1   
  8   4  23  1   
  9   5   8  ar  
 10   5   9  ar  
 11   6   7  1   
 12   6  24  1   
 13   6  25  1   
 14   7  10  1   
 15   7  26  1   
 16   8  11  ar  
 17   8  27  1   
 18   9  12  ar  
 19   9  28  1   
 20  10  13  2   
 21  10  14  am  
 22  11  15  ar  
 23  11  29  1   
 24  12  15  ar  
 25  12  30  1   
 26  14  16  1   
 27  14  31  1   
 28  15  17  1   
 29  16  18  1   
 30  16  19  1   
 31  16  32  1   
 32  17  33  1   
 33  17  34  1   
 34  17  35  1   
 35  18  20  1   
 36  18  36  1   
 37  18  37  1   
 38  19  38  1   
 39  19  39  1   
 40  19  40  1   
 41  20  21  1   
 42  21  41  1   
 43  21  42  1   
 44  21  43  1   
@<TRIPOS>SUBSTRUCTURE
  1 ****   6 GROUP 4 **** **** 0

# MOE 2024.06 (io_trps.svl 2023.06)
