@<TRIPOS>MOLECULE
Furan-2-carboxylic acid [3-(2-adamantan-1-yl-acetylamino)-4-methoxy-phenyl]-amid
58 62 1 0 0 
SMALL
USER_CHARGES


@<TRIPOS>ATOM
  1 O       -0.2680     0.5660     1.2480 O.2   1 <1>  -0.5700 
  2 C       -0.0030     1.3400     0.3480 C.2   1 <1>   0.7150 
  3 N       -0.9160     2.3060    -0.0020 N.am  1 <1>  -0.5470 
  4 C        1.2630     1.2950    -0.3530 C.2   1 <1>   0.0550 
  5 C       -2.2440     2.4660     0.4160 C.ar  1 <1>   0.1170 
  6 O        2.2850     0.5810     0.1130 O.3   1 <1>  -0.2800 
  7 C        1.6630     1.9000    -1.5100 C.2   1 <1>  -0.1500 
  8 C       -3.1020     1.3850     0.5590 C.ar  1 <1>  -0.1500 
  9 C       -2.7270     3.7420     0.6770 C.ar  1 <1>  -0.1500 
 10 C        3.3080     0.7130    -0.7000 C.2   1 <1>  -0.0100 
 11 C        2.9880     1.5220    -1.7310 C.2   1 <1>  -0.1500 
 12 C       -4.4220     1.5570     0.9520 C.ar  1 <1>   0.1170 
 13 C       -4.0350     3.9350     1.0830 C.ar  1 <1>  -0.1500 
 14 N       -5.3100     0.4790     1.0960 N.am  1 <1>  -0.5470 
 15 C       -4.8890     2.8460     1.2260 C.ar  1 <1>   0.0830 
 16 C       -5.3890    -0.7140     0.4400 C.2   1 <1>   0.5690 
 17 O       -6.1930     2.9670     1.6310 O.3   1 <1>  -0.3630 
 18 O       -4.5990    -1.0710    -0.3990 O.2   1 <1>  -0.5700 
 19 C       -6.5390    -1.6380     0.7990 C.3   1 <1>  -0.0990 
 20 C       -6.7870     4.2370     1.7920 C.3   1 <1>   0.0400 
 21 C       -7.8680    -1.3540     0.0600 C.3   1 <1>   0.0000 
 22 C       -8.4300     0.0510     0.3920 C.3   1 <1>  -0.1600 
 23 C       -8.9120    -2.4100     0.4980 C.3   1 <1>  -0.1600 
 24 C       -7.6860    -1.4570    -1.4720 C.3   1 <1>  -0.1600 
 25 C       -9.7740     0.2850    -0.3230 C.3   1 <1>  -0.0800 
 26 C      -10.2560    -2.1870    -0.2180 C.3   1 <1>  -0.0800 
 27 C       -9.0250    -1.2280    -2.1990 C.3   1 <1>  -0.0800 
 28 C      -10.7860    -0.7840     0.1280 C.3   1 <1>  -0.1600 
 29 C       -9.5610     0.1720    -1.8440 C.3   1 <1>  -0.1600 
 30 C      -10.0410    -2.2900    -1.7390 C.3   1 <1>  -0.1600 
 31 H       -0.5490     3.0410    -0.5990 H     1 <1>   0.3700 
 32 H        1.0960     2.5430    -2.1590 H     1 <1>   0.1500 
 33 H       -2.7350     0.3940     0.3630 H     1 <1>   0.1500 
 34 H       -2.0740     4.5890     0.5720 H     1 <1>   0.1500 
 35 H        4.2240     0.1960    -0.4720 H     1 <1>   0.1500 
 36 H        3.6030     1.8240    -2.5600 H     1 <1>   0.1500 
 37 H       -4.3650     4.9360     1.2840 H     1 <1>   0.1500 
 38 H       -6.1290     0.7270     1.6510 H     1 <1>   0.3700 
 39 H       -6.6980    -1.5870     1.8600 H     1 <1>   0.0800 
 40 H       -6.2240    -2.6420     0.5770 H     1 <1>   0.0800 
 41 H       -7.8190     4.0920     2.0560 H     1 <1>   0.0800 
 42 H       -6.7210     4.7750     0.8630 H     1 <1>   0.0800 
 43 H       -6.2810     4.7630     2.5820 H     1 <1>   0.0800 
 44 H       -7.7440     0.8140     0.0710 H     1 <1>   0.0800 
 45 H       -8.5680     0.1530     1.4540 H     1 <1>   0.0800 
 46 H       -9.0640    -2.3570     1.5610 H     1 <1>   0.0800 
 47 H       -8.5510    -3.3980     0.2690 H     1 <1>   0.0800 
 48 H       -7.2980    -2.4270    -1.7320 H     1 <1>   0.0800 
 49 H       -6.9740    -0.7250    -1.8120 H     1 <1>   0.0800 
 50 H      -10.1490     1.2650    -0.0810 H     1 <1>   0.0800 
 51 H      -10.9660    -2.9330     0.0990 H     1 <1>   0.0800 
 52 H       -8.8770    -1.3010    -3.2630 H     1 <1>   0.0800 
 53 H      -11.7300    -0.6210    -0.3610 H     1 <1>   0.0800 
 54 H      -10.9500    -0.7080     1.1890 H     1 <1>   0.0800 
 55 H       -8.8610     0.9220    -2.1710 H     1 <1>   0.0800 
 56 H      -10.4900     0.3460    -2.3560 H     1 <1>   0.0800 
 57 H      -10.9760    -2.1440    -2.2510 H     1 <1>   0.0800 
 58 H       -9.6790    -3.2710    -1.9920 H     1 <1>   0.0800 
@<TRIPOS>BOND
  1   1   2  2   
  2   2   3  am  
  3   2   4  1   
  4   3   5  1   
  5   3  31  1   
  6   4   6  1   
  7   4   7  2   
  8   5   8  ar  
  9   5   9  ar  
 10   6  10  1   
 11   7  11  1   
 12   7  32  1   
 13   8  12  ar  
 14   8  33  1   
 15   9  13  ar  
 16   9  34  1   
 17  10  11  2   
 18  10  35  1   
 19  11  36  1   
 20  12  14  1   
 21  12  15  ar  
 22  13  15  ar  
 23  13  37  1   
 24  14  16  am  
 25  14  38  1   
 26  15  17  1   
 27  16  18  2   
 28  16  19  1   
 29  17  20  1   
 30  19  21  1   
 31  19  39  1   
 32  19  40  1   
 33  20  41  1   
 34  20  42  1   
 35  20  43  1   
 36  21  22  1   
 37  21  23  1   
 38  21  24  1   
 39  22  25  1   
 40  22  44  1   
 41  22  45  1   
 42  23  26  1   
 43  23  46  1   
 44  23  47  1   
 45  24  27  1   
 46  24  48  1   
 47  24  49  1   
 48  25  28  1   
 49  25  29  1   
 50  25  50  1   
 51  26  28  1   
 52  26  30  1   
 53  26  51  1   
 54  27  29  1   
 55  27  30  1   
 56  27  52  1   
 57  28  53  1   
 58  28  54  1   
 59  29  55  1   
 60  29  56  1   
 61  30  57  1   
 62  30  58  1   
@<TRIPOS>SUBSTRUCTURE
  1 ****  14 GROUP 4 **** **** 0

# MOE 2024.06 (io_trps.svl 2023.06)
