@<TRIPOS>MOLECULE
4-Fluoro-N-(4-methoxy-phenyl)-N-[2-(4-methyl-piperazin-1-yl)-2-oxo-ethyl]-benzen
54 56 1 0 0 
SMALL
USER_CHARGES


@<TRIPOS>ATOM
  1 S        0.5730    -0.2930     0.3400 S.o2  1 <1>   1.4470 
  2 O        1.4820    -1.0520    -0.4860 O.2   1 <1>  -0.6500 
  3 O        0.9810     0.0990     1.6700 O.2   1 <1>  -0.6500 
  4 N        0.2470     1.1890    -0.5050 N.am  1 <1>  -0.6930 
  5 C       -1.0550    -1.0950     0.3460 C.ar  1 <1>  -0.0090 
  6 C       -0.8030     2.0240    -0.1230 C.ar  1 <1>   0.1990 
  7 C        0.9470     1.4190    -1.8120 C.3   1 <1>   0.2570 
  8 C       -1.9950    -0.8000     1.3340 C.ar  1 <1>  -0.1500 
  9 C       -1.4130    -1.9950    -0.6570 C.ar  1 <1>  -0.1500 
 10 C       -0.8460     2.5860     1.1490 C.ar  1 <1>  -0.1500 
 11 C       -1.8400     2.3060    -1.0070 C.ar  1 <1>  -0.1500 
 12 C        2.4850     1.3430    -1.7870 C.2   1 <1>   0.5690 
 13 C       -3.2530    -1.3790     1.3270 C.ar  1 <1>  -0.1500 
 14 C       -2.6660    -2.5860    -0.6800 C.ar  1 <1>  -0.1500 
 15 C       -1.8930     3.4060     1.5240 C.ar  1 <1>  -0.1500 
 16 C       -2.8900     3.1280    -0.6370 C.ar  1 <1>  -0.1500 
 17 O        3.0290     0.9760    -2.8010 O.2   1 <1>  -0.5700 
 18 N        3.2420     1.6720    -0.6850 N.am  1 <1>  -0.6600 
 19 C       -3.5660    -2.2640     0.3150 C.ar  1 <1>   0.1900 
 20 C       -2.9200     3.6840     0.6390 C.ar  1 <1>   0.0830 
 21 C        2.8080     2.5780     0.4270 C.3   1 <1>   0.1400 
 22 C        4.5660     0.9920    -0.4830 C.3   1 <1>   0.1400 
 23 F       -4.7490    -2.8130     0.2990 F     1 <1>  -0.1900 
 24 O       -3.9100     4.4990     1.0900 O.3   1 <1>  -0.3630 
 25 C        3.8930     3.6160     0.8000 C.3   1 <1>   0.3430 
 26 C        5.5470     1.8310     0.3590 C.3   1 <1>   0.3430 
 27 C       -5.0270     4.8030     0.2820 C.3   1 <1>   0.0400 
 28 N        5.2470     3.2950     0.2220 N.4   1 <1>  -0.9590 
 29 C        6.3260     4.1600     0.7820 C.3   1 <1>   0.2630 
 30 H        0.6780     2.3850    -2.1960 H     1 <1>   0.0800 
 31 H        0.5990     0.6830    -2.5150 H     1 <1>   0.0800 
 32 H       -1.7410    -0.1060     2.1180 H     1 <1>   0.1500 
 33 H       -0.7010    -2.2390    -1.4290 H     1 <1>   0.1500 
 34 H       -0.0630     2.3810     1.8550 H     1 <1>   0.1500 
 35 H       -1.8350     1.8730    -1.9900 H     1 <1>   0.1500 
 36 H       -3.9780    -1.1500     2.0880 H     1 <1>   0.1500 
 37 H       -2.9420    -3.2820    -1.4530 H     1 <1>   0.1500 
 38 H       -1.9260     3.8380     2.5090 H     1 <1>   0.1500 
 39 H       -3.6730     3.3210    -1.3460 H     1 <1>   0.1500 
 40 H        2.5890     1.9820     1.2960 H     1 <1>   0.0800 
 41 H        1.9080     3.1030     0.1580 H     1 <1>   0.0800 
 42 H        5.0200     0.7930    -1.4390 H     1 <1>   0.0800 
 43 H        4.4050     0.0400    -0.0060 H     1 <1>   0.0800 
 44 H        3.9550     3.6690     1.8740 H     1 <1>   0.0800 
 45 H        3.5770     4.5850     0.4490 H     1 <1>   0.0800 
 46 H        6.5540     1.6180     0.0390 H     1 <1>   0.0800 
 47 H        5.4610     1.5390     1.3930 H     1 <1>   0.0800 
 48 H       -5.6820     5.4430     0.8460 H     1 <1>   0.0800 
 49 H       -5.5360     3.8890     0.0320 H     1 <1>   0.0800 
 50 H       -4.6900     5.3140    -0.6020 H     1 <1>   0.0800 
 51 H        5.1630     3.4560    -0.7960 H     1 <1>   0.4500 
 52 H        6.4280     3.9930     1.8430 H     1 <1>   0.0800 
 53 H        6.0970     5.2000     0.6160 H     1 <1>   0.0800 
 54 H        7.2680     3.9380     0.3070 H     1 <1>   0.0800 
@<TRIPOS>BOND
  1   1   2  2   
  2   1   3  2   
  3   1   4  am  
  4   1   5  1   
  5   4   6  1   
  6   4   7  1   
  7   5   8  ar  
  8   5   9  ar  
  9   6  10  ar  
 10   6  11  ar  
 11   7  12  1   
 12   7  30  1   
 13   7  31  1   
 14   8  13  ar  
 15   8  32  1   
 16   9  14  ar  
 17   9  33  1   
 18  10  15  ar  
 19  10  34  1   
 20  11  16  ar  
 21  11  35  1   
 22  12  17  2   
 23  12  18  am  
 24  13  19  ar  
 25  13  36  1   
 26  14  19  ar  
 27  14  37  1   
 28  15  20  ar  
 29  15  38  1   
 30  16  20  ar  
 31  16  39  1   
 32  18  21  1   
 33  18  22  1   
 34  19  23  1   
 35  20  24  1   
 36  21  25  1   
 37  21  40  1   
 38  21  41  1   
 39  22  26  1   
 40  22  42  1   
 41  22  43  1   
 42  24  27  1   
 43  25  28  1   
 44  25  44  1   
 45  25  45  1   
 46  26  28  1   
 47  26  46  1   
 48  26  47  1   
 49  27  48  1   
 50  27  49  1   
 51  27  50  1   
 52  28  29  1   
 53  28  51  1   
 54  29  52  1   
 55  29  53  1   
 56  29  54  1   
@<TRIPOS>SUBSTRUCTURE
  1 ****   4 GROUP 4 **** **** 0

# MOE 2024.06 (io_trps.svl 2023.06)
