@<TRIPOS>MOLECULE
2-{[5-(3,4-Dimethoxy-phenyl)-2-methyl-furan-3-carbonyl]-amino}-3-methyl-butyric
48 49 1 0 0 
SMALL
USER_CHARGES


@<TRIPOS>ATOM
  1 O       -0.2440    -0.2640    -1.6070 O.2   1 <1>  -0.5700 
  2 C        0.3790    -1.0340    -0.8980 C.2   1 <1>   0.7160 
  3 N        1.5530    -0.6390    -0.3430 N.am  1 <1>  -0.7300 
  4 C       -0.1350    -2.3540    -0.6210 C.2   1 <1>  -0.0860 
  5 C        2.4720     0.4380    -0.8440 C.3   1 <1>   0.1140 
  6 C        0.5000    -3.5270    -0.3430 C.2   1 <1>  -0.0400 
  7 C       -1.4990    -2.6920    -0.5770 C.2   1 <1>  -0.1500 
  8 C        3.9160    -0.1000    -0.9630 C.2   1 <1>   0.9060 
  9 C        2.3980     1.6910     0.0650 C.3   1 <1>  -0.0800 
 10 O       -0.3660    -4.4850    -0.1250 O.3   1 <1>  -0.2800 
 11 C        1.9750    -3.8770    -0.2760 C.3   1 <1>  -0.0600 
 12 C       -1.5940    -4.0100    -0.2640 C.2   1 <1>   0.0870 
 13 O        4.1890    -1.1760    -0.4010 O.co2 1 <1>  -0.9000 
 14 O        4.7570     0.5330    -1.6130 O.co2 1 <1>  -0.9000 
 15 C        2.7750     1.3950     1.5270 C.3   1 <1>  -0.2400 
 16 C        1.0150     2.3570     0.0100 C.3   1 <1>  -0.2400 
 17 C       -2.7410    -4.8730    -0.0850 C.ar  1 <1>   0.0530 
 18 C       -4.0380    -4.3930    -0.2620 C.ar  1 <1>  -0.1500 
 19 C       -2.5960    -6.2160     0.2650 C.ar  1 <1>  -0.1500 
 20 C       -5.1430    -5.2080    -0.0980 C.ar  1 <1>   0.0830 
 21 C       -3.6920    -7.0400     0.4480 C.ar  1 <1>  -0.1500 
 22 O       -6.3630    -4.6620    -0.3300 O.3   1 <1>  -0.3620 
 23 C       -4.9730    -6.5420     0.2860 C.ar  1 <1>   0.0830 
 24 C       -7.0620    -5.1590    -1.4500 C.3   1 <1>   0.0400 
 25 O       -6.0070    -7.3860     0.5160 O.3   1 <1>  -0.3630 
 26 C       -6.8530    -7.0680     1.6000 C.3   1 <1>   0.0400 
 27 H        2.1340    -1.3560     0.1090 H     1 <1>   0.3700 
 28 H        2.1710     0.7170    -1.8370 H     1 <1>   0.0800 
 29 H       -2.2900    -1.9900    -0.7670 H     1 <1>   0.1500 
 30 H        3.1160     2.3960    -0.3220 H     1 <1>   0.0800 
 31 H        2.5740    -3.1240    -0.7530 H     1 <1>   0.0800 
 32 H        2.1490    -4.8080    -0.7830 H     1 <1>   0.0800 
 33 H        2.2860    -3.9740     0.7480 H     1 <1>   0.0800 
 34 H        2.0750     0.7080     1.9680 H     1 <1>   0.0800 
 35 H        2.7780     2.3020     2.1030 H     1 <1>   0.0800 
 36 H        3.7580     0.9590     1.5770 H     1 <1>   0.0800 
 37 H        0.2670     1.7080     0.4290 H     1 <1>   0.0800 
 38 H        0.7480     2.5660    -1.0110 H     1 <1>   0.0800 
 39 H        1.0210     3.2800     0.5600 H     1 <1>   0.0800 
 40 H       -4.1970    -3.3680    -0.5390 H     1 <1>   0.1500 
 41 H       -1.6070    -6.6190     0.3990 H     1 <1>   0.1500 
 42 H       -3.5600    -8.0700     0.7230 H     1 <1>   0.1500 
 43 H       -6.4400    -5.0560    -2.3210 H     1 <1>   0.0800 
 44 H       -7.9610    -4.5820    -1.5680 H     1 <1>   0.0800 
 45 H       -7.3090    -6.1920    -1.2870 H     1 <1>   0.0800 
 46 H       -7.5410    -7.8820     1.7390 H     1 <1>   0.0800 
 47 H       -7.3930    -6.1660     1.3790 H     1 <1>   0.0800 
 48 H       -6.2510    -6.9380     2.4820 H     1 <1>   0.0800 
@<TRIPOS>BOND
  1   1   2  2   
  2   2   3  am  
  3   2   4  1   
  4   3   5  1   
  5   3  27  1   
  6   4   6  2   
  7   4   7  1   
  8   5   8  1   
  9   5   9  1   
 10   5  28  1   
 11   6  10  1   
 12   6  11  1   
 13   7  12  2   
 14   7  29  1   
 15   8  13  ar  
 16   8  14  ar  
 17   9  15  1   
 18   9  16  1   
 19   9  30  1   
 20  10  12  1   
 21  11  31  1   
 22  11  32  1   
 23  11  33  1   
 24  12  17  1   
 25  15  34  1   
 26  15  35  1   
 27  15  36  1   
 28  16  37  1   
 29  16  38  1   
 30  16  39  1   
 31  17  18  ar  
 32  17  19  ar  
 33  18  20  ar  
 34  18  40  1   
 35  19  21  ar  
 36  19  41  1   
 37  20  22  1   
 38  20  23  ar  
 39  21  23  ar  
 40  21  42  1   
 41  22  24  1   
 42  23  25  1   
 43  24  43  1   
 44  24  44  1   
 45  24  45  1   
 46  25  26  1   
 47  26  46  1   
 48  26  47  1   
 49  26  48  1   
@<TRIPOS>SUBSTRUCTURE
  1 ****   7 GROUP 4 **** **** 0

# MOE 2024.06 (io_trps.svl 2023.06)
