@<TRIPOS>MOLECULE
6-Methyl-10-oxo-2-[(tetrahydro-furan-2-ylmethyl)-amino]-10H-1,9,10a-triaza-anthr
62 66 1 0 0 
SMALL
USER_CHARGES


@<TRIPOS>ATOM
  1 O       -1.2660    -3.0120     1.3770 O.2   1 <1>  -0.5700 
  2 C       -0.7100    -3.4260     0.3860 C.2   1 <1>   0.8650 
  3 N       -1.4660    -4.1510    -0.5540 N.pl3 1 <1>  -0.5760 
  4 C        0.6800    -3.1790     0.1710 C.ar  1 <1>   0.0860 
  5 C       -0.8770    -4.6130    -1.6820 C.cat 1 <1>   0.7390 
  6 C       -2.8060    -4.3990    -0.3470 C.2   1 <1>   0.1910 
  7 C        1.2190    -3.6820    -1.0060 C.ar  1 <1>   0.6590 
  8 C        1.5320    -2.4830     1.0170 C.ar  1 <1>  -0.1500 
  9 N        0.4260    -4.3650    -1.8710 N.pl3 1 <1>  -0.6530 
 10 C       -1.6260    -5.3330    -2.6210 C.2   1 <1>  -0.1800 
 11 C       -3.5580    -5.1010    -1.2510 C.2   1 <1>  -0.1380 
 12 N        2.4670    -3.5650    -1.3890 N.ar  1 <1>  -0.6200 
 13 C        2.8570    -2.3300     0.6510 C.ar  1 <1>   0.0860 
 14 C       -2.9570    -5.5820    -2.4200 C.2   1 <1>  -0.1500 
 15 C       -5.0360    -5.3760    -1.0260 C.3   1 <1>  -0.1020 
 16 C        3.2770    -2.9210    -0.5630 C.ar  1 <1>   0.4100 
 17 C        3.7460    -1.5860     1.5010 C.2   1 <1>   0.5440 
 18 N        4.5540    -2.8950    -1.0250 N.pl3 1 <1>  -0.8690 
 19 O        4.1020    -2.0530     2.5610 O.2   1 <1>  -0.5700 
 20 N        4.1980    -0.3400     1.2010 N.am  1 <1>  -0.7300 
 21 C        5.7690    -3.1460    -0.2000 C.3   1 <1>   0.2090 
 22 C        4.0110     0.4220    -0.0450 C.3   1 <1>   0.2200 
 23 C        6.9540    -3.5170    -1.1080 C.3   1 <1>   0.2000 
 24 C        5.3820     0.7570    -0.6380 C.3   1 <1>  -0.1600 
 25 C        3.2140     1.6920     0.2670 C.3   1 <1>  -0.1600 
 26 O        6.5650    -4.4480    -2.0720 O.3   1 <1>  -0.5600 
 27 C        8.1180    -4.1810    -0.3880 C.3   1 <1>  -0.1600 
 28 C        5.2410     1.6340    -1.8900 C.3   1 <1>  -0.1600 
 29 C        3.0670     2.5730    -0.9820 C.3   1 <1>  -0.1600 
 30 C        7.6740    -5.1490    -2.5440 C.3   1 <1>   0.1200 
 31 C        8.7740    -4.9890    -1.4950 C.3   1 <1>  -0.1600 
 32 C        4.4370     2.9060    -1.5900 C.3   1 <1>  -0.1600 
 33 H       -3.2670    -4.0260     0.5570 H     1 <1>   0.1500 
 34 H        1.1760    -2.0640     1.9470 H     1 <1>   0.1500 
 35 H        0.9190    -4.6990    -2.7010 H     1 <1>   0.4500 
 36 H       -1.1420    -5.6940    -3.5110 H     1 <1>   0.1500 
 37 H       -3.5430    -6.1360    -3.1370 H     1 <1>   0.1500 
 38 H       -5.2160    -6.4370    -1.0020 H     1 <1>   0.0800 
 39 H       -5.6180    -4.9470    -1.8230 H     1 <1>   0.0800 
 40 H       -5.3740    -4.9550    -0.0950 H     1 <1>   0.0800 
 41 H        4.6850    -3.3710    -1.9300 H     1 <1>   0.4000 
 42 H        4.7880     0.1040     1.9080 H     1 <1>   0.3700 
 43 H        5.5740    -3.9500     0.4880 H     1 <1>   0.0800 
 44 H        6.0270    -2.2700     0.3680 H     1 <1>   0.0800 
 45 H        3.4630    -0.1670    -0.7600 H     1 <1>   0.0800 
 46 H        7.2990    -2.6420    -1.6320 H     1 <1>   0.0800 
 47 H        5.8890    -0.1540    -0.9030 H     1 <1>   0.0800 
 48 H        5.9740     1.2810     0.0920 H     1 <1>   0.0800 
 49 H        3.7200     2.2540     1.0320 H     1 <1>   0.0800 
 50 H        2.2370     1.4250     0.6310 H     1 <1>   0.0800 
 51 H        7.7500    -4.8400     0.3790 H     1 <1>   0.0800 
 52 H        8.7850    -3.4600     0.0510 H     1 <1>   0.0800 
 53 H        4.7450     1.0730    -2.6650 H     1 <1>   0.0800 
 54 H        6.2180     1.9030    -2.2550 H     1 <1>   0.0800 
 55 H        2.5570     3.4850    -0.7230 H     1 <1>   0.0800 
 56 H        2.4690     2.0590    -1.7160 H     1 <1>   0.0800 
 57 H        7.9660    -4.7250    -3.4890 H     1 <1>   0.0800 
 58 H        7.3900    -6.1800    -2.6750 H     1 <1>   0.0800 
 59 H        9.1230    -5.9440    -1.1430 H     1 <1>   0.0800 
 60 H        9.6010    -4.4510    -1.9240 H     1 <1>   0.0800 
 61 H        4.3010     3.4690    -2.4970 H     1 <1>   0.0800 
 62 H        4.9900     3.5220    -0.9020 H     1 <1>   0.0800 
@<TRIPOS>BOND
  1   1   2  2   
  2   2   3  1   
  3   2   4  1   
  4   3   5  ar  
  5   3   6  1   
  6   4   7  ar  
  7   4   8  ar  
  8   5   9  ar  
  9   5  10  1   
 10   6  11  2   
 11   6  33  1   
 12   7   9  1   
 13   7  12  ar  
 14   8  13  ar  
 15   8  34  1   
 16   9  35  1   
 17  10  14  2   
 18  10  36  1   
 19  11  14  1   
 20  11  15  1   
 21  12  16  ar  
 22  13  16  ar  
 23  13  17  1   
 24  14  37  1   
 25  15  38  1   
 26  15  39  1   
 27  15  40  1   
 28  16  18  1   
 29  17  19  2   
 30  17  20  am  
 31  18  21  1   
 32  18  41  1   
 33  20  22  1   
 34  20  42  1   
 35  21  23  1   
 36  21  43  1   
 37  21  44  1   
 38  22  24  1   
 39  22  25  1   
 40  22  45  1   
 41  23  26  1   
 42  23  27  1   
 43  23  46  1   
 44  24  28  1   
 45  24  47  1   
 46  24  48  1   
 47  25  29  1   
 48  25  49  1   
 49  25  50  1   
 50  26  30  1   
 51  27  31  1   
 52  27  51  1   
 53  27  52  1   
 54  28  32  1   
 55  28  53  1   
 56  28  54  1   
 57  29  32  1   
 58  29  55  1   
 59  29  56  1   
 60  30  31  1   
 61  30  57  1   
 62  30  58  1   
 63  31  59  1   
 64  31  60  1   
 65  32  61  1   
 66  32  62  1   
@<TRIPOS>SUBSTRUCTURE
  1 ****  16 GROUP 4 **** **** 0

# MOE 2024.06 (io_trps.svl 2023.06)
