@<TRIPOS>MOLECULE
3-Ethyl-6-phenethyl-[1,2,4]triazolo[3,4-b][1,3,4]thiadiazole
32 34 1 0 0 
SMALL
USER_CHARGES


@<TRIPOS>ATOM
  1 S       -0.4940    -0.0240    -1.1510 S.3   1 <1>  -0.1970 
  2 C        0.4420     1.4410    -0.9430 C.2   1 <1>   0.2420 
  3 C       -1.9210     0.8680    -0.5840 C.2   1 <1>   0.5300 
  4 N        1.6650     1.7930    -1.1130 N.2   1 <1>  -0.3380 
  5 N       -0.3570     2.3940    -0.4970 N.pl3 1 <1>   0.5050 
  6 N       -1.7060     2.0860    -0.2880 N.2   1 <1>  -0.6520 
  7 C       -3.2110     0.0760    -0.5230 C.3   1 <1>  -0.0990 
  8 N        1.6930     3.0910    -0.7520 N.2   1 <1>  -0.3380 
  9 C        0.4890     3.4310    -0.3910 C.2   1 <1>   0.0070 
 10 C       -4.3990     0.9100    -0.0270 C.3   1 <1>  -0.0170 
 11 C        0.0310     4.7990     0.0960 C.3   1 <1>   0.0200 
 12 C       -5.6550     0.0570     0.0090 C.ar  1 <1>  -0.1440 
 13 C        1.1620     5.8340     0.1380 C.3   1 <1>  -0.2400 
 14 C       -6.4800    -0.0210    -1.1020 C.ar  1 <1>  -0.1500 
 15 C       -5.9840    -0.6560     1.1520 C.ar  1 <1>  -0.1500 
 16 C       -7.6210    -0.8040    -1.0730 C.ar  1 <1>  -0.1500 
 17 C       -7.1240    -1.4390     1.1830 C.ar  1 <1>  -0.1500 
 18 C       -7.9430    -1.5140     0.0700 C.ar  1 <1>  -0.1500 
 19 H       -3.0690    -0.7640     0.1320 H     1 <1>   0.0800 
 20 H       -3.4290    -0.3030    -1.5060 H     1 <1>   0.0800 
 21 H       -4.5530     1.7540    -0.6780 H     1 <1>   0.0800 
 22 H       -4.1930     1.2920     0.9580 H     1 <1>   0.0800 
 23 H       -0.3860     4.6940     1.0830 H     1 <1>   0.0800 
 24 H       -0.7480     5.1560    -0.5550 H     1 <1>   0.0800 
 25 H        1.9430     5.5030     0.8000 H     1 <1>   0.0800 
 26 H        0.7900     6.7800     0.4880 H     1 <1>   0.0800 
 27 H        1.5800     5.9670    -0.8440 H     1 <1>   0.0800 
 28 H       -6.2400     0.5270    -1.9960 H     1 <1>   0.1500 
 29 H       -5.3550    -0.6050     2.0240 H     1 <1>   0.1500 
 30 H       -8.2570    -0.8610    -1.9380 H     1 <1>   0.1500 
 31 H       -7.3750    -1.9900     2.0720 H     1 <1>   0.1500 
 32 H       -8.8300    -2.1230     0.0940 H     1 <1>   0.1500 
@<TRIPOS>BOND
  1   1   2  1   
  2   1   3  1   
  3   2   4  2   
  4   2   5  1   
  5   3   6  2   
  6   3   7  1   
  7   4   8  1   
  8   5   6  1   
  9   5   9  1   
 10   7  10  1   
 11   7  19  1   
 12   7  20  1   
 13   8   9  2   
 14   9  11  1   
 15  10  12  1   
 16  10  21  1   
 17  10  22  1   
 18  11  13  1   
 19  11  23  1   
 20  11  24  1   
 21  12  14  ar  
 22  12  15  ar  
 23  13  25  1   
 24  13  26  1   
 25  13  27  1   
 26  14  16  ar  
 27  14  28  1   
 28  15  17  ar  
 29  15  29  1   
 30  16  18  ar  
 31  16  30  1   
 32  17  18  ar  
 33  17  31  1   
 34  18  32  1   
@<TRIPOS>SUBSTRUCTURE
  1 ****   3 GROUP 4 **** **** 0

# MOE 2024.06 (io_trps.svl 2023.06)
