@<TRIPOS>MOLECULE
3-Ethyl-5,7-dimethyl-quinoline-2-thiol
30 31 1 0 0 
SMALL
USER_CHARGES


@<TRIPOS>ATOM
  1 S       -0.3530    -0.0900     1.4980 S.2   1 <1>  -0.3800 
  2 C       -1.5990     0.8200     0.9880 C.2   1 <1>   0.4260 
  3 N       -2.8020     0.2100     0.9090 N.am  1 <1>  -0.5470 
  4 C       -1.5040     2.1900     0.6310 C.2   1 <1>  -0.1240 
  5 C       -3.9580     0.8560     0.4990 C.ar  1 <1>   0.1170 
  6 C       -2.6210     2.8600     0.2220 C.2   1 <1>  -0.1780 
  7 C       -0.1680     2.9240     0.6980 C.3   1 <1>  -0.0220 
  8 C       -3.8960     2.2160     0.1400 C.ar  1 <1>   0.0280 
  9 C       -5.1680     0.1690     0.4410 C.ar  1 <1>  -0.1500 
 10 C        0.6600     2.6750    -0.5660 C.3   1 <1>  -0.2400 
 11 C       -5.0800     2.8520    -0.2730 C.ar  1 <1>  -0.1430 
 12 C       -6.3200     0.8040     0.0350 C.ar  1 <1>  -0.1430 
 13 C       -6.2650     2.1470    -0.3200 C.ar  1 <1>  -0.1500 
 14 C       -5.0830     4.3210    -0.6740 C.3   1 <1>  -0.0970 
 15 C       -7.6450     0.0670    -0.0320 C.3   1 <1>  -0.0970 
 16 H       -2.8390    -0.7750     1.1710 H     1 <1>   0.3700 
 17 H       -2.5600     3.8960    -0.0530 H     1 <1>   0.1500 
 18 H        0.3860     2.6130     1.5670 H     1 <1>   0.0800 
 19 H       -0.3410     3.9810     0.7970 H     1 <1>   0.0800 
 20 H       -5.1900    -0.8680     0.7190 H     1 <1>   0.1500 
 21 H        0.8790     1.6270    -0.6710 H     1 <1>   0.0800 
 22 H        1.5880     3.2150    -0.5130 H     1 <1>   0.0800 
 23 H        0.1180     3.0010    -1.4360 H     1 <1>   0.0800 
 24 H       -7.1720     2.6330    -0.6360 H     1 <1>   0.1500 
 25 H       -4.4220     4.4750    -1.5090 H     1 <1>   0.0800 
 26 H       -4.7570     4.9280     0.1510 H     1 <1>   0.0800 
 27 H       -6.0670     4.6430    -0.9600 H     1 <1>   0.0800 
 28 H       -7.5320    -0.9590     0.2700 H     1 <1>   0.0800 
 29 H       -8.0240     0.0870    -1.0380 H     1 <1>   0.0800 
 30 H       -8.3590     0.5380     0.6190 H     1 <1>   0.0800 
@<TRIPOS>BOND
  1   1   2  2   
  2   2   3  am  
  3   2   4  1   
  4   3   5  1   
  5   3  16  1   
  6   4   6  2   
  7   4   7  1   
  8   5   8  ar  
  9   5   9  ar  
 10   6   8  1   
 11   6  17  1   
 12   7  10  1   
 13   7  18  1   
 14   7  19  1   
 15   8  11  ar  
 16   9  12  ar  
 17   9  20  1   
 18  10  21  1   
 19  10  22  1   
 20  10  23  1   
 21  11  13  ar  
 22  11  14  1   
 23  12  13  ar  
 24  12  15  1   
 25  13  24  1   
 26  14  25  1   
 27  14  26  1   
 28  14  27  1   
 29  15  28  1   
 30  15  29  1   
 31  15  30  1   
@<TRIPOS>SUBSTRUCTURE
  1 ****   8 GROUP 4 **** **** 0

# MOE 2024.06 (io_trps.svl 2023.06)
