@<TRIPOS>MOLECULE
N-[2-(4-Isobutyryl-piperazin-1-yl)-phenyl]-4-methyl-benzamide
54 56 1 0 0 
SMALL
USER_CHARGES


@<TRIPOS>ATOM
  1 O       -0.2160    -0.0150    -0.3650 O.2   1 <1>  -0.5700 
  2 C       -0.1560    -1.1710     0.0040 C.2   1 <1>   0.5440 
  3 N        1.0210    -1.8660    -0.0910 N.am  1 <1>  -0.5470 
  4 C       -1.3340    -1.8400     0.5310 C.ar  1 <1>   0.0860 
  5 C        2.3310    -1.5590    -0.4900 C.ar  1 <1>   0.1170 
  6 C       -2.6160    -1.4280     0.1650 C.ar  1 <1>  -0.1500 
  7 C       -1.2430    -2.9190     1.4150 C.ar  1 <1>  -0.1500 
  8 C        3.2380    -2.6290    -0.5090 C.ar  1 <1>   0.1000 
  9 C        2.7620    -0.2890    -0.8510 C.ar  1 <1>  -0.1500 
 10 C       -3.7480    -2.0640     0.6420 C.ar  1 <1>  -0.1500 
 11 C       -2.3720    -3.5590     1.8940 C.ar  1 <1>  -0.1500 
 12 N        2.8070    -3.9200    -0.1430 N.pl3 1 <1>  -0.8380 
 13 C        4.5520    -2.3960    -0.8930 C.ar  1 <1>  -0.1500 
 14 C        4.0760    -0.0730    -1.2310 C.ar  1 <1>  -0.1500 
 15 C       -3.6330    -3.1380     1.5070 C.ar  1 <1>  -0.1430 
 16 C        2.5880    -4.9070    -1.2480 C.3   1 <1>   0.2090 
 17 C        3.3310    -4.4970     1.1380 C.3   1 <1>   0.2090 
 18 C        4.9710    -1.1270    -1.2520 C.ar  1 <1>  -0.1500 
 19 C       -4.8720    -3.8390     2.0330 C.3   1 <1>  -0.0970 
 20 C        3.7620    -5.8900    -1.4170 C.3   1 <1>   0.1400 
 21 C        4.4880    -5.4860     0.9200 C.3   1 <1>   0.1400 
 22 N        4.1350    -6.5130    -0.1090 N.am  1 <1>  -0.6600 
 23 C        3.9940    -7.8370     0.2340 C.2   1 <1>   0.5690 
 24 O        4.0800    -8.1880     1.3880 O.2   1 <1>  -0.5700 
 25 C        3.7040    -8.9110    -0.8310 C.3   1 <1>  -0.0190 
 26 C        2.1920    -9.0660    -1.0670 C.3   1 <1>  -0.2400 
 27 C        4.3070   -10.2820    -0.4720 C.3   1 <1>  -0.2400 
 28 H        0.9750    -2.8630     0.1310 H     1 <1>   0.3700 
 29 H       -2.7210    -0.5920    -0.5060 H     1 <1>   0.1500 
 30 H       -0.2790    -3.2610     1.7440 H     1 <1>   0.1500 
 31 H        2.0780     0.5380    -0.8370 H     1 <1>   0.1500 
 32 H       -4.7190    -1.7170     0.3360 H     1 <1>   0.1500 
 33 H       -2.2670    -4.3870     2.5740 H     1 <1>   0.1500 
 34 H        5.2500    -3.2100    -0.9130 H     1 <1>   0.1500 
 35 H        4.3960     0.9160    -1.5080 H     1 <1>   0.1500 
 36 H        2.4320    -4.3790    -2.1730 H     1 <1>   0.0800 
 37 H        1.6930    -5.4670    -1.0370 H     1 <1>   0.0800 
 38 H        2.5300    -5.0110     1.6420 H     1 <1>   0.0800 
 39 H        3.6620    -3.7000     1.7810 H     1 <1>   0.0800 
 40 H        5.9920    -0.9590    -1.5480 H     1 <1>   0.1500 
 41 H       -5.1850    -3.3810     2.9540 H     1 <1>   0.0800 
 42 H       -4.6700    -4.8790     2.2120 H     1 <1>   0.0800 
 43 H       -5.6750    -3.7680     1.3210 H     1 <1>   0.0800 
 44 H        4.6110    -5.3580    -1.8070 H     1 <1>   0.0800 
 45 H        3.4840    -6.6310    -2.1410 H     1 <1>   0.0800 
 46 H        4.7310    -5.9520     1.8590 H     1 <1>   0.0800 
 47 H        5.3600    -4.9480     0.5970 H     1 <1>   0.0800 
 48 H        4.1710    -8.6090    -1.7490 H     1 <1>   0.0800 
 49 H        1.7120    -9.4000    -0.1630 H     1 <1>   0.0800 
 50 H        2.0040    -9.7860    -1.8430 H     1 <1>   0.0800 
 51 H        1.7540    -8.1280    -1.3550 H     1 <1>   0.0800 
 52 H        3.8600   -10.6660     0.4290 H     1 <1>   0.0800 
 53 H        5.3660   -10.1860    -0.3070 H     1 <1>   0.0800 
 54 H        4.1460   -10.9880    -1.2660 H     1 <1>   0.0800 
@<TRIPOS>BOND
  1   1   2  2   
  2   2   3  am  
  3   2   4  1   
  4   3   5  1   
  5   3  28  1   
  6   4   6  ar  
  7   4   7  ar  
  8   5   8  ar  
  9   5   9  ar  
 10   6  10  ar  
 11   6  29  1   
 12   7  11  ar  
 13   7  30  1   
 14   8  12  1   
 15   8  13  ar  
 16   9  14  ar  
 17   9  31  1   
 18  10  15  ar  
 19  10  32  1   
 20  11  15  ar  
 21  11  33  1   
 22  12  16  1   
 23  12  17  1   
 24  13  18  ar  
 25  13  34  1   
 26  14  18  ar  
 27  14  35  1   
 28  15  19  1   
 29  16  20  1   
 30  16  36  1   
 31  16  37  1   
 32  17  21  1   
 33  17  38  1   
 34  17  39  1   
 35  18  40  1   
 36  19  41  1   
 37  19  42  1   
 38  19  43  1   
 39  20  22  1   
 40  20  44  1   
 41  20  45  1   
 42  21  22  1   
 43  21  46  1   
 44  21  47  1   
 45  22  23  am  
 46  23  24  2   
 47  23  25  1   
 48  25  26  1   
 49  25  27  1   
 50  25  48  1   
 51  26  49  1   
 52  26  50  1   
 53  26  51  1   
 54  27  52  1   
 55  27  53  1   
 56  27  54  1   
@<TRIPOS>SUBSTRUCTURE
  1 ****  12 GROUP 4 **** **** 0

# MOE 2024.06 (io_trps.svl 2023.06)
