@<TRIPOS>MOLECULE
7-(2-Hydroxy-propyl)-8-(3-methoxy-propylamino)-3-methyl-3,7-dihydro-purine-2,6-d
44 45 1 0 0 
SMALL
USER_CHARGES


@<TRIPOS>ATOM
  1 O        1.4830     0.3820     1.8550 O.2   1 <1>  -0.5760 
  2 C        2.3700     0.9080     1.2250 C.2   1 <1>   0.6850 
  3 N        3.5030     0.2150     0.8190 N.am  1 <1>  -0.4430 
  4 N        2.2460     2.2300     0.9080 N.am  1 <1>  -0.4960 
  5 C        4.4610     0.9150     0.1000 C.2   1 <1>   0.4190 
  6 C        3.6920    -1.2250     1.1570 C.3   1 <1>   0.0510 
  7 C        3.1850     2.9350     0.2100 C.2   1 <1>   0.6980 
  8 N        5.6440     0.4510    -0.3860 N.pl3 1 <1>  -0.7050 
  9 C        4.3510     2.2240    -0.2220 C.2   1 <1>   0.2690 
 10 O        3.0040     4.1170    -0.0030 O.2   1 <1>  -0.5760 
 11 C        6.2650     1.4570    -0.9940 C.cat 1 <1>   1.0680 
 12 N        5.5170     2.5560    -0.9370 N.pl3 1 <1>  -0.7680 
 13 N        7.4690     1.3790    -1.5530 N.pl3 1 <1>  -0.7190 
 14 C        5.7980     3.9160    -1.4910 C.3   1 <1>   0.3470 
 15 C        8.3550     0.1960    -1.6230 C.3   1 <1>   0.1590 
 16 C        6.3300     4.9070    -0.4310 C.3   1 <1>   0.1920 
 17 C        8.9930    -0.0340    -0.2550 C.3   1 <1>  -0.1690 
 18 O        6.9470     5.9380    -1.1080 O.3   1 <1>  -0.6850 
 19 C        7.3790     4.3400     0.5310 C.3   1 <1>  -0.2480 
 20 C        9.8650    -1.2870    -0.2520 C.3   1 <1>   0.1110 
 21 O       10.1440    -1.5690     1.0720 O.3   1 <1>  -0.5660 
 22 C       11.0010    -2.6500     1.2530 C.3   1 <1>   0.0300 
 23 H        1.4060     2.7110     1.2240 H     1 <1>   0.3630 
 24 H        2.8210    -1.6220     1.6510 H     1 <1>   0.0710 
 25 H        4.5360    -1.3380     1.8150 H     1 <1>   0.0710 
 26 H        3.8580    -1.7940     0.2590 H     1 <1>   0.0710 
 27 H        6.0350    -0.4790    -0.2670 H     1 <1>   0.4440 
 28 H        7.8850     2.2420    -1.9050 H     1 <1>   0.4440 
 29 H        4.8970     4.3200    -1.9210 H     1 <1>   0.0710 
 30 H        6.5260     3.8300    -2.2790 H     1 <1>   0.0710 
 31 H        9.1210     0.3620    -2.3630 H     1 <1>   0.0710 
 32 H        7.7850    -0.6710    -1.9170 H     1 <1>   0.0710 
 33 H        5.5030     5.3260     0.1190 H     1 <1>   0.0710 
 34 H        8.2300    -0.1590     0.4910 H     1 <1>   0.0710 
 35 H        9.6080     0.8090     0.0100 H     1 <1>   0.0710 
 36 H        7.2260     6.6400    -0.4840 H     1 <1>   0.3930 
 37 H        8.2180     3.9380    -0.0080 H     1 <1>   0.0710 
 38 H        6.9520     3.5640     1.1400 H     1 <1>   0.0710 
 39 H        7.7270     5.1120     1.1940 H     1 <1>   0.0710 
 40 H       10.7890    -1.1200    -0.7810 H     1 <1>   0.0710 
 41 H        9.3430    -2.1300    -0.6720 H     1 <1>   0.0710 
 42 H       11.1460    -2.7890     2.3100 H     1 <1>   0.0710 
 43 H       11.9460    -2.4380     0.7830 H     1 <1>   0.0710 
 44 H       10.5560    -3.5340     0.8290 H     1 <1>   0.0710 
@<TRIPOS>BOND
  1   1   2  2   
  2   2   3  am  
  3   2   4  am  
  4   3   5  1   
  5   3   6  1   
  6   4   7  am  
  7   4  23  1   
  8   5   8  1   
  9   5   9  2   
 10   6  24  1   
 11   6  25  1   
 12   6  26  1   
 13   7   9  1   
 14   7  10  2   
 15   8  11  ar  
 16   8  27  1   
 17   9  12  1   
 18  11  12  ar  
 19  11  13  ar  
 20  12  14  1   
 21  13  15  1   
 22  13  28  1   
 23  14  16  1   
 24  14  29  1   
 25  14  30  1   
 26  15  17  1   
 27  15  31  1   
 28  15  32  1   
 29  16  18  1   
 30  16  19  1   
 31  16  33  1   
 32  17  20  1   
 33  17  34  1   
 34  17  35  1   
 35  18  36  1   
 36  19  37  1   
 37  19  38  1   
 38  19  39  1   
 39  20  21  1   
 40  20  40  1   
 41  20  41  1   
 42  21  22  1   
 43  22  42  1   
 44  22  43  1   
 45  22  44  1   
@<TRIPOS>SUBSTRUCTURE
  1 ****  11 GROUP 4 **** **** 0

# MOE 2024.06 (io_trps.svl 2023.06)
