@<TRIPOS>MOLECULE
1-(4-Ethoxy-3-methyl-benzenesulfonyl)-piperidine-4-carboxylic acid (tetrahydro-f
58 60 1 0 0 
SMALL
USER_CHARGES


@<TRIPOS>ATOM
  1 S       -0.2040     0.8380    -2.8230 S.o2  1 <1>   1.4470 
  2 O        0.2660    -0.0020    -3.9030 O.2   1 <1>  -0.6500 
  3 O       -1.0090     2.0030    -3.1290 O.2   1 <1>  -0.6500 
  4 N        1.1670     1.4040    -2.0000 N.am  1 <1>  -0.8490 
  5 C       -1.0230    -0.1940    -1.5760 C.ar  1 <1>  -0.0090 
  6 C        0.8190     2.3680    -0.9530 C.3   1 <1>   0.1960 
  7 C        2.1540     1.9630    -2.9280 C.3   1 <1>   0.1960 
  8 C       -2.3080     0.0920    -1.1290 C.ar  1 <1>  -0.1500 
  9 C       -0.3740    -1.2910    -1.0250 C.ar  1 <1>  -0.1500 
 10 C        2.0570     2.7050    -0.1210 C.3   1 <1>  -0.1600 
 11 C        3.4470     2.2960    -2.1790 C.3   1 <1>  -0.1600 
 12 C       -2.9310    -0.6800    -0.1610 C.ar  1 <1>  -0.1430 
 13 C       -0.9790    -2.0750    -0.0590 C.ar  1 <1>  -0.1500 
 14 C        3.1840     3.2600    -1.0090 C.3   1 <1>  -0.0190 
 15 C       -2.2640    -1.7730     0.3820 C.ar  1 <1>   0.0830 
 16 C       -4.3380    -0.3270     0.2980 C.3   1 <1>  -0.0970 
 17 C        4.4500     3.5540    -0.2110 C.2   1 <1>   0.5690 
 18 O       -2.9100    -2.5000     1.3300 O.3   1 <1>  -0.3630 
 19 O        4.8670     4.6860    -0.1740 O.2   1 <1>  -0.5700 
 20 N        5.0780     2.5390     0.4340 N.am  1 <1>  -0.7300 
 21 C       -2.3360    -3.6480     1.9100 C.3   1 <1>   0.1200 
 22 C        6.3340     2.6440     1.2100 C.3   1 <1>   0.1400 
 23 C       -3.3350    -4.2210     2.9110 C.3   1 <1>  -0.2400 
 24 C        7.2690     1.4760     0.8630 C.3   1 <1>   0.2000 
 25 O        6.5830     0.2630     0.9460 O.3   1 <1>  -0.5600 
 26 C        8.4460     1.3120     1.8120 C.3   1 <1>  -0.1600 
 27 C        7.4690    -0.7880     1.1810 C.3   1 <1>   0.1200 
 28 C        8.7720    -0.1640     1.6780 C.3   1 <1>  -0.1600 
 29 H        0.0680     1.9490    -0.3030 H     1 <1>   0.0800 
 30 H        0.4170     3.2660    -1.3950 H     1 <1>   0.0800 
 31 H        1.7550     2.8460    -3.4000 H     1 <1>   0.0800 
 32 H        2.3810     1.2440    -3.6990 H     1 <1>   0.0800 
 33 H       -2.8260     0.9380    -1.5490 H     1 <1>   0.1500 
 34 H        0.6220    -1.5300    -1.3600 H     1 <1>   0.1500 
 35 H        2.3830     1.8140     0.3860 H     1 <1>   0.0800 
 36 H        1.7980     3.4340     0.6260 H     1 <1>   0.0800 
 37 H        4.1490     2.7420    -2.8610 H     1 <1>   0.0800 
 38 H        3.8780     1.3790    -1.8180 H     1 <1>   0.0800 
 39 H       -0.4350    -2.9120     0.3350 H     1 <1>   0.1500 
 40 H        2.8470     4.1950    -1.4230 H     1 <1>   0.0800 
 41 H       -4.7130     0.5390    -0.2160 H     1 <1>   0.0800 
 42 H       -4.3370    -0.1270     1.3550 H     1 <1>   0.0800 
 43 H       -5.0000    -1.1530     0.1070 H     1 <1>   0.0800 
 44 H        4.7430     1.5740     0.3470 H     1 <1>   0.3700 
 45 H       -1.4240    -3.3600     2.4050 H     1 <1>   0.0800 
 46 H       -2.1300    -4.3580     1.1280 H     1 <1>   0.0800 
 47 H        6.0980     2.6180     2.2590 H     1 <1>   0.0800 
 48 H        6.8240     3.5790     0.9980 H     1 <1>   0.0800 
 49 H       -3.5460    -3.4970     3.6770 H     1 <1>   0.0800 
 50 H       -2.9250    -5.1010     3.3720 H     1 <1>   0.0800 
 51 H       -4.2470    -4.4890     2.4090 H     1 <1>   0.0800 
 52 H        7.6230     1.5770    -0.1490 H     1 <1>   0.0800 
 53 H        8.1380     1.5330     2.8190 H     1 <1>   0.0800 
 54 H        9.2720     1.9470     1.5420 H     1 <1>   0.0800 
 55 H        7.6140    -1.3240     0.2590 H     1 <1>   0.0800 
 56 H        7.0290    -1.4360     1.9190 H     1 <1>   0.0800 
 57 H        9.0860    -0.5960     2.6120 H     1 <1>   0.0800 
 58 H        9.5430    -0.3190     0.9440 H     1 <1>   0.0800 
@<TRIPOS>BOND
  1   1   2  2   
  2   1   3  2   
  3   1   4  am  
  4   1   5  1   
  5   4   6  1   
  6   4   7  1   
  7   5   8  ar  
  8   5   9  ar  
  9   6  10  1   
 10   6  29  1   
 11   6  30  1   
 12   7  11  1   
 13   7  31  1   
 14   7  32  1   
 15   8  12  ar  
 16   8  33  1   
 17   9  13  ar  
 18   9  34  1   
 19  10  14  1   
 20  10  35  1   
 21  10  36  1   
 22  11  14  1   
 23  11  37  1   
 24  11  38  1   
 25  12  15  ar  
 26  12  16  1   
 27  13  15  ar  
 28  13  39  1   
 29  14  17  1   
 30  14  40  1   
 31  15  18  1   
 32  16  41  1   
 33  16  42  1   
 34  16  43  1   
 35  17  19  2   
 36  17  20  am  
 37  18  21  1   
 38  20  22  1   
 39  20  44  1   
 40  21  23  1   
 41  21  45  1   
 42  21  46  1   
 43  22  24  1   
 44  22  47  1   
 45  22  48  1   
 46  23  49  1   
 47  23  50  1   
 48  23  51  1   
 49  24  25  1   
 50  24  26  1   
 51  24  52  1   
 52  25  27  1   
 53  26  28  1   
 54  26  53  1   
 55  26  54  1   
 56  27  28  1   
 57  27  55  1   
 58  27  56  1   
 59  28  57  1   
 60  28  58  1   
@<TRIPOS>SUBSTRUCTURE
  1 ****   4 GROUP 4 **** **** 0

# MOE 2024.06 (io_trps.svl 2023.06)
