@<TRIPOS>MOLECULE
2,2-Dimethyl-N-(3-phenyl-[1,2,4]oxadiazol-5-ylmethyl)-propionamide
36 37 1 0 0 
SMALL
USER_CHARGES


@<TRIPOS>ATOM
  1 O       -2.7100     0.2250    -2.4270 O.2   1 <1>  -0.5700 
  2 C       -3.1080     0.0460    -1.3030 C.2   1 <1>   0.5690 
  3 N       -4.3510    -0.4870    -1.1890 N.am  1 <1>  -0.7300 
  4 C       -2.1930     0.4330    -0.1000 C.3   1 <1>   0.0610 
  5 C       -5.1820    -0.8990    -0.0280 C.3   1 <1>   0.3200 
  6 C       -2.8200     1.5640     0.7420 C.3   1 <1>  -0.2400 
  7 C       -0.8300     0.9640    -0.5990 C.3   1 <1>  -0.2400 
  8 C       -1.8810    -0.7790     0.8020 C.3   1 <1>  -0.2400 
  9 C       -5.3740    -2.4080     0.0140 C.2   1 <1>   0.2980 
 10 O       -4.3380    -3.1620     0.2730 O.3   1 <1>  -0.0190 
 11 N       -6.4660    -3.0270    -0.1750 N.2   1 <1>  -0.5650 
 12 N       -4.8120    -4.3670     0.2480 N.2   1 <1>  -0.4100 
 13 C       -6.0680    -4.2950    -0.0210 C.2   1 <1>   0.4620 
 14 C       -6.9740    -5.4250    -0.1470 C.ar  1 <1>   0.0540 
 15 C       -8.3290    -5.2530    -0.4440 C.ar  1 <1>  -0.1500 
 16 C       -6.5250    -6.7370     0.0240 C.ar  1 <1>  -0.1500 
 17 C       -9.1880    -6.3300    -0.5630 C.ar  1 <1>  -0.1500 
 18 C       -7.3780    -7.8180    -0.0940 C.ar  1 <1>  -0.1500 
 19 C       -8.7140    -7.6170    -0.3880 C.ar  1 <1>  -0.1500 
 20 H       -4.7700    -0.7140    -2.0930 H     1 <1>   0.3700 
 21 H       -6.1480    -0.4330    -0.1170 H     1 <1>   0.0800 
 22 H       -4.7510    -0.5780     0.8970 H     1 <1>   0.0800 
 23 H       -3.7460     1.2660     1.1910 H     1 <1>   0.0800 
 24 H       -3.0120     2.4190     0.1180 H     1 <1>   0.0800 
 25 H       -2.1520     1.8640     1.5290 H     1 <1>   0.0800 
 26 H       -0.9700     1.8300    -1.2240 H     1 <1>   0.0800 
 27 H       -0.3270     0.2130    -1.1830 H     1 <1>   0.0800 
 28 H       -0.1910     1.2400     0.2220 H     1 <1>   0.0800 
 29 H       -2.7480    -1.1350     1.3200 H     1 <1>   0.0800 
 30 H       -1.1450    -0.5210     1.5430 H     1 <1>   0.0800 
 31 H       -1.4890    -1.5870     0.2070 H     1 <1>   0.0800 
 32 H       -8.7160    -4.2590    -0.5840 H     1 <1>   0.1500 
 33 H       -5.4880    -6.9130     0.2530 H     1 <1>   0.1500 
 34 H      -10.2270    -6.1670    -0.7930 H     1 <1>   0.1500 
 35 H       -7.0040    -8.8180     0.0430 H     1 <1>   0.1500 
 36 H       -9.3810    -8.4570    -0.4800 H     1 <1>   0.1500 
@<TRIPOS>BOND
  1   1   2  2   
  2   2   3  am  
  3   2   4  1   
  4   3   5  1   
  5   3  20  1   
  6   4   6  1   
  7   4   7  1   
  8   4   8  1   
  9   5   9  1   
 10   5  21  1   
 11   5  22  1   
 12   6  23  1   
 13   6  24  1   
 14   6  25  1   
 15   7  26  1   
 16   7  27  1   
 17   7  28  1   
 18   8  29  1   
 19   8  30  1   
 20   8  31  1   
 21   9  10  1   
 22   9  11  2   
 23  10  12  1   
 24  11  13  1   
 25  12  13  2   
 26  13  14  1   
 27  14  15  ar  
 28  14  16  ar  
 29  15  17  ar  
 30  15  32  1   
 31  16  18  ar  
 32  16  33  1   
 33  17  19  ar  
 34  17  34  1   
 35  18  19  ar  
 36  18  35  1   
 37  19  36  1   
@<TRIPOS>SUBSTRUCTURE
  1 ****   9 GROUP 4 **** **** 0

# MOE 2024.06 (io_trps.svl 2023.06)
