@<TRIPOS>MOLECULE
(3-Hydroxy-3-trifluoromethyl-3a,4,5,6,7,8-hexahydro-3H-cycloheptapyrazol-2-yl)-a
32 33 1 0 0 
SMALL
USER_CHARGES


@<TRIPOS>ATOM
  1 F       -0.3360    -0.4350    -0.7620 F     1 <1>  -0.3400 
  2 C        0.5150    -1.4520    -0.8960 C.3   1 <1>   1.0200 
  3 F        1.7190    -0.9640    -0.6030 F     1 <1>  -0.3400 
  4 F        0.5470    -1.7180    -2.2010 F     1 <1>  -0.3400 
  5 C        0.1280    -2.7160    -0.0200 C.3   1 <1>   0.5500 
  6 O       -0.0130    -2.4290     1.3380 O.3   1 <1>  -0.6800 
  7 N       -1.1690    -3.3730    -0.3740 N.pl3 1 <1>  -0.4870 
  8 C        1.1290    -3.8880    -0.1910 C.3   1 <1>  -0.0190 
  9 N       -1.0450    -4.7300    -0.3840 N.2   1 <1>  -0.5030 
 10 C       -2.5090    -2.7550    -0.1030 C.3   1 <1>   0.3100 
 11 C        0.1690    -5.0590    -0.2800 C.2   1 <1>   0.3280 
 12 C        2.2220    -4.0230     0.8950 C.3   1 <1>  -0.1600 
 13 C       -2.9930    -3.0100     1.2890 C.1   1 <1>   0.3570 
 14 C        0.6420    -6.5020    -0.2450 C.3   1 <1>  -0.0990 
 15 C        3.4210    -4.8640     0.4330 C.3   1 <1>  -0.1600 
 16 N       -3.3450    -3.1840     2.3590 N.1   1 <1>  -0.5570 
 17 C        2.0760    -6.7390    -0.7430 C.3   1 <1>  -0.1600 
 18 C        3.1430    -6.3670     0.2980 C.3   1 <1>  -0.1600 
 19 H       -0.4560    -3.1980     1.7510 H     1 <1>   0.4000 
 20 H        1.6040    -3.7970    -1.1510 H     1 <1>   0.0800 
 21 H       -3.2200    -3.1740    -0.7910 H     1 <1>   0.0800 
 22 H       -2.4640    -1.6950    -0.2700 H     1 <1>   0.0800 
 23 H        1.8070    -4.4340     1.7990 H     1 <1>   0.0800 
 24 H        2.5940    -3.0400     1.1310 H     1 <1>   0.0800 
 25 H       -0.0330    -7.0760    -0.8560 H     1 <1>   0.0800 
 26 H        0.5420    -6.8690     0.7600 H     1 <1>   0.0800 
 27 H        4.2100    -4.7410     1.1550 H     1 <1>   0.0800 
 28 H        3.7940    -4.4830    -0.5030 H     1 <1>   0.0800 
 29 H        2.2490    -6.2200    -1.6710 H     1 <1>   0.0800 
 30 H        2.1770    -7.7910    -0.9480 H     1 <1>   0.0800 
 31 H        2.8740    -6.7720     1.2590 H     1 <1>   0.0800 
 32 H        4.0660    -6.8420     0.0100 H     1 <1>   0.0800 
@<TRIPOS>BOND
  1   1   2  1   
  2   2   3  1   
  3   2   4  1   
  4   2   5  1   
  5   5   6  1   
  6   5   7  1   
  7   5   8  1   
  8   6  19  1   
  9   7   9  1   
 10   7  10  1   
 11   8  11  1   
 12   8  12  1   
 13   8  20  1   
 14   9  11  2   
 15  10  13  1   
 16  10  21  1   
 17  10  22  1   
 18  11  14  1   
 19  12  15  1   
 20  12  23  1   
 21  12  24  1   
 22  13  16  3   
 23  14  17  1   
 24  14  25  1   
 25  14  26  1   
 26  15  18  1   
 27  15  27  1   
 28  15  28  1   
 29  17  18  1   
 30  17  29  1   
 31  17  30  1   
 32  18  31  1   
 33  18  32  1   
@<TRIPOS>SUBSTRUCTURE
  1 ****   5 GROUP 4 **** **** 0

# MOE 2024.06 (io_trps.svl 2023.06)
