@<TRIPOS>MOLECULE
N-[5-Chloro-2-(4-propionyl-piperazin-1-yl)-phenyl]-3-methoxy-benzamide
52 54 1 0 0 
SMALL
USER_CHARGES


@<TRIPOS>ATOM
  1 CL      -0.5880     0.7310    -1.7420 Cl    1 <1>  -0.1770 
  2 C       -1.5640     2.0960    -1.2520 C.ar  1 <1>   0.1770 
  3 C       -2.8330     1.8780    -0.7510 C.ar  1 <1>  -0.1500 
  4 C       -1.0460     3.3710    -1.3770 C.ar  1 <1>  -0.1500 
  5 C       -3.6100     2.9600    -0.3620 C.ar  1 <1>   0.1170 
  6 C       -1.8170     4.4530    -0.9880 C.ar  1 <1>  -0.1500 
  7 N       -4.9080     2.8550     0.1590 N.am  1 <1>  -0.5470 
  8 C       -3.0960     4.2630    -0.4770 C.ar  1 <1>   0.1000 
  9 C       -5.8020     1.8300     0.3290 C.2   1 <1>   0.5440 
 10 N       -3.8820     5.3600    -0.0810 N.pl3 1 <1>  -0.8380 
 11 O       -5.5250     0.7080    -0.0460 O.2   1 <1>  -0.5700 
 12 C       -7.0880     2.1110     0.9420 C.ar  1 <1>   0.0860 
 13 C       -4.5170     6.1480    -1.1910 C.3   1 <1>   0.2090 
 14 C       -3.3660     6.1650     1.0730 C.3   1 <1>   0.2090 
 15 C       -8.2220     1.3780     0.5950 C.ar  1 <1>  -0.1500 
 16 C       -7.2480     3.1240     1.8910 C.ar  1 <1>  -0.1500 
 17 C       -4.1440     7.6430    -1.1680 C.3   1 <1>   0.1400 
 18 C       -4.2510     7.3890     1.3580 C.3   1 <1>   0.1400 
 19 C       -9.4620     1.6420     1.1480 C.ar  1 <1>   0.0830 
 20 C       -8.4820     3.3990     2.4530 C.ar  1 <1>  -0.1500 
 21 N       -4.4180     8.2780     0.1630 N.am  1 <1>  -0.6600 
 22 O      -10.4950     0.8690     0.7290 O.3   1 <1>  -0.3620 
 23 C       -9.5920     2.6630     2.0830 C.ar  1 <1>  -0.1500 
 24 C       -4.8340     9.5720     0.3430 C.2   1 <1>   0.5690 
 25 C      -11.7950     1.0300     1.2510 C.3   1 <1>   0.0400 
 26 O       -5.1310     9.9820     1.4400 O.2   1 <1>  -0.5700 
 27 C       -4.9340    10.5220    -0.8500 C.3   1 <1>  -0.0990 
 28 C       -5.0790    12.0080    -0.4800 C.3   1 <1>  -0.2400 
 29 H       -3.1990     0.8730    -0.6690 H     1 <1>   0.1500 
 30 H       -0.0560     3.5080    -1.7720 H     1 <1>   0.1500 
 31 H       -1.4260     5.4490    -1.0820 H     1 <1>   0.1500 
 32 H       -5.2500     3.7920     0.3860 H     1 <1>   0.3700 
 33 H       -5.5860     6.0590    -1.1070 H     1 <1>   0.0800 
 34 H       -4.2320     5.7280    -2.1410 H     1 <1>   0.0800 
 35 H       -2.3630     6.4990     0.8680 H     1 <1>   0.0800 
 36 H       -3.3330     5.5400     1.9480 H     1 <1>   0.0800 
 37 H       -8.1340     0.5830    -0.1250 H     1 <1>   0.1500 
 38 H       -6.3960     3.7020     2.2040 H     1 <1>   0.1500 
 39 H       -4.7010     8.1410    -1.9400 H     1 <1>   0.0800 
 40 H       -3.0970     7.7430    -1.3940 H     1 <1>   0.0800 
 41 H       -3.8160     7.9550     2.1640 H     1 <1>   0.0800 
 42 H       -5.2210     7.0550     1.6800 H     1 <1>   0.0800 
 43 H       -8.5790     4.1860     3.1810 H     1 <1>   0.1500 
 44 H      -10.5400     2.8950     2.5310 H     1 <1>   0.1500 
 45 H      -12.4340     0.3040     0.7820 H     1 <1>   0.0800 
 46 H      -12.1420     2.0220     1.0260 H     1 <1>   0.0800 
 47 H      -11.7680     0.8610     2.3130 H     1 <1>   0.0800 
 48 H       -5.7820    10.2290    -1.4400 H     1 <1>   0.0800 
 49 H       -4.0490    10.4120    -1.4500 H     1 <1>   0.0800 
 50 H       -5.9780    12.1630     0.0910 H     1 <1>   0.0800 
 51 H       -5.1250    12.6140    -1.3670 H     1 <1>   0.0800 
 52 H       -4.2400    12.3260     0.1150 H     1 <1>   0.0800 
@<TRIPOS>BOND
  1   1   2  1   
  2   2   3  ar  
  3   2   4  ar  
  4   3   5  ar  
  5   3  29  1   
  6   4   6  ar  
  7   4  30  1   
  8   5   7  1   
  9   5   8  ar  
 10   6   8  ar  
 11   6  31  1   
 12   7   9  am  
 13   7  32  1   
 14   8  10  1   
 15   9  11  2   
 16   9  12  1   
 17  10  13  1   
 18  10  14  1   
 19  12  15  ar  
 20  12  16  ar  
 21  13  17  1   
 22  13  33  1   
 23  13  34  1   
 24  14  18  1   
 25  14  35  1   
 26  14  36  1   
 27  15  19  ar  
 28  15  37  1   
 29  16  20  ar  
 30  16  38  1   
 31  17  21  1   
 32  17  39  1   
 33  17  40  1   
 34  18  21  1   
 35  18  41  1   
 36  18  42  1   
 37  19  22  1   
 38  19  23  ar  
 39  20  23  ar  
 40  20  43  1   
 41  21  24  am  
 42  22  25  1   
 43  23  44  1   
 44  24  26  2   
 45  24  27  1   
 46  25  45  1   
 47  25  46  1   
 48  25  47  1   
 49  27  28  1   
 50  27  48  1   
 51  27  49  1   
 52  28  50  1   
 53  28  51  1   
 54  28  52  1   
@<TRIPOS>SUBSTRUCTURE
  1 ****   7 GROUP 4 **** **** 0

# MOE 2024.06 (io_trps.svl 2023.06)
