@<TRIPOS>MOLECULE
1-(4-Methoxy-3-methyl-benzenesulfonyl)-piperidine-4-carboxylic acid (4-fluoro-ph
51 53 1 0 0 
SMALL
USER_CHARGES


@<TRIPOS>ATOM
  1 S       -0.1110     0.1380    -2.4450 S.o2  1 <1>   1.4470 
  2 O        0.5930    -0.9300    -3.1240 O.2   1 <1>  -0.6500 
  3 O       -0.7920     1.1430    -3.2320 O.2   1 <1>  -0.6500 
  4 N        1.0460     0.9400    -1.4970 N.am  1 <1>  -0.8490 
  5 C       -1.2580    -0.5480    -1.2200 C.ar  1 <1>  -0.0090 
  6 C        1.8430     1.8680    -2.3020 C.3   1 <1>   0.1960 
  7 C        1.8910     0.0020    -0.7530 C.3   1 <1>   0.1960 
  8 C       -1.7020     0.2180    -0.1480 C.ar  1 <1>  -0.1500 
  9 C       -1.7270    -1.8520    -1.3220 C.ar  1 <1>  -0.1500 
 10 C        2.7740     2.6870    -1.4020 C.3   1 <1>  -0.1600 
 11 C        2.8100     0.7630     0.2040 C.3   1 <1>  -0.1600 
 12 C       -2.5740    -0.2910     0.8010 C.ar  1 <1>  -0.1430 
 13 C       -2.5990    -2.3780    -0.3860 C.ar  1 <1>  -0.1500 
 14 C        3.6800     1.7810    -0.5530 C.3   1 <1>  -0.0190 
 15 C       -3.0280    -1.6000     0.6850 C.ar  1 <1>   0.0820 
 16 C       -3.0250     0.5880     1.9590 C.3   1 <1>  -0.0970 
 17 C        4.5570     2.5980     0.3970 C.2   1 <1>   0.5690 
 18 O       -3.8810    -2.0610     1.6370 O.3   1 <1>  -0.3630 
 19 O        4.0300     3.2150     1.2900 O.2   1 <1>  -0.5700 
 20 N        5.9100     2.5800     0.1880 N.am  1 <1>  -0.5470 
 21 C       -4.4190    -3.3630     1.5870 C.3   1 <1>   0.0400 
 22 C        6.9550     3.2260     0.8680 C.ar  1 <1>   0.1170 
 23 C        6.7670     4.3860     1.6210 C.ar  1 <1>  -0.1500 
 24 C        8.2390     2.6910     0.7700 C.ar  1 <1>  -0.1500 
 25 C        7.8290     4.9970     2.2660 C.ar  1 <1>  -0.1500 
 26 C        9.3120     3.2910     1.4070 C.ar  1 <1>  -0.1500 
 27 C        9.0850     4.4350     2.1460 C.ar  1 <1>   0.1900 
 28 F       10.0940     5.0060     2.7510 F     1 <1>  -0.1900 
 29 H        1.1910     2.5480    -2.8260 H     1 <1>   0.0800 
 30 H        2.4140     1.3200    -3.0340 H     1 <1>   0.0800 
 31 H        2.4800    -0.5880    -1.4370 H     1 <1>   0.0800 
 32 H        1.2720    -0.6690    -0.1790 H     1 <1>   0.0800 
 33 H       -1.3510     1.2330    -0.0630 H     1 <1>   0.1500 
 34 H       -1.4030    -2.4640    -2.1480 H     1 <1>   0.1500 
 35 H        2.1720     3.3060    -0.7590 H     1 <1>   0.0800 
 36 H        3.3750     3.3390    -2.0110 H     1 <1>   0.0800 
 37 H        3.4380     0.0660     0.7290 H     1 <1>   0.0800 
 38 H        2.2030     1.2700     0.9350 H     1 <1>   0.0800 
 39 H       -2.9320    -3.3910    -0.5090 H     1 <1>   0.1500 
 40 H        4.3200     1.2340    -1.2210 H     1 <1>   0.0800 
 41 H       -2.5680     1.5600     1.9140 H     1 <1>   0.0800 
 42 H       -2.7580     0.1260     2.8920 H     1 <1>   0.0800 
 43 H       -4.0930     0.7080     1.9280 H     1 <1>   0.0800 
 44 H        6.2200     1.9660    -0.5610 H     1 <1>   0.3700 
 45 H       -5.0690    -3.4880     2.4340 H     1 <1>   0.0800 
 46 H       -3.6150    -4.0750     1.6360 H     1 <1>   0.0800 
 47 H       -4.9800    -3.4740     0.6760 H     1 <1>   0.0800 
 48 H        5.7880     4.8230     1.7060 H     1 <1>   0.1500 
 49 H        8.4030     1.7980     0.1950 H     1 <1>   0.1500 
 50 H        7.6890     5.8890     2.8490 H     1 <1>   0.1500 
 51 H       10.3040     2.8840     1.3380 H     1 <1>   0.1500 
@<TRIPOS>BOND
  1   1   2  2   
  2   1   3  2   
  3   1   4  am  
  4   1   5  1   
  5   4   6  1   
  6   4   7  1   
  7   5   8  ar  
  8   5   9  ar  
  9   6  10  1   
 10   6  29  1   
 11   6  30  1   
 12   7  11  1   
 13   7  31  1   
 14   7  32  1   
 15   8  12  ar  
 16   8  33  1   
 17   9  13  ar  
 18   9  34  1   
 19  10  14  1   
 20  10  35  1   
 21  10  36  1   
 22  11  14  1   
 23  11  37  1   
 24  11  38  1   
 25  12  15  ar  
 26  12  16  1   
 27  13  15  ar  
 28  13  39  1   
 29  14  17  1   
 30  14  40  1   
 31  15  18  1   
 32  16  41  1   
 33  16  42  1   
 34  16  43  1   
 35  17  19  2   
 36  17  20  am  
 37  18  21  1   
 38  20  22  1   
 39  20  44  1   
 40  21  45  1   
 41  21  46  1   
 42  21  47  1   
 43  22  23  ar  
 44  22  24  ar  
 45  23  25  ar  
 46  23  48  1   
 47  24  26  ar  
 48  24  49  1   
 49  25  27  ar  
 50  25  50  1   
 51  26  27  ar  
 52  26  51  1   
 53  27  28  1   
@<TRIPOS>SUBSTRUCTURE
  1 ****  11 GROUP 4 **** **** 0

# MOE 2024.06 (io_trps.svl 2023.06)
