@<TRIPOS>MOLECULE
Thiophene-2-carboxylic acid [2-(2-methoxy-ethyl)-1,2,3,4-tetrahydro-benzo[4,5]im
45 48 1 0 0 
SMALL
USER_CHARGES


@<TRIPOS>ATOM
  1 S        0.7830    -0.1790    -0.1880 S.3   1 <1>  -0.0800 
  2 C        0.4440     1.5420     0.0430 C.2   1 <1>  -0.0450 
  3 C       -0.9150    -0.5980    -0.1280 C.2   1 <1>  -0.1100 
  4 C        1.5300     2.4870     0.0860 C.2   1 <1>   0.7150 
  5 C       -0.9000     1.7040     0.1520 C.2   1 <1>  -0.1500 
  6 C       -1.6640     0.5040     0.0560 C.2   1 <1>  -0.1500 
  7 O        1.2980     3.6690     0.2540 O.2   1 <1>  -0.5700 
  8 N        2.8210     2.0410    -0.0500 N.am  1 <1>  -0.5470 
  9 C        4.0560     2.7140    -0.0630 C.ar  1 <1>   0.1170 
 10 C        5.1940     2.0160     0.2920 C.ar  1 <1>  -0.1500 
 11 C        4.1750     4.0640    -0.4460 C.ar  1 <1>  -0.1500 
 12 C        6.4330     2.6490     0.2770 C.ar  1 <1>   0.2270 
 13 C        5.3950     4.7020    -0.4620 C.ar  1 <1>  -0.1500 
 14 N        7.6610     2.1460     0.5870 N.2   1 <1>  -0.5650 
 15 C        6.5290     3.9770    -0.0930 C.ar  1 <1>  -0.1520 
 16 C        8.4620     3.1410     0.4070 C.2   1 <1>   0.0070 
 17 N        7.8500     4.2810     0.0020 N.pl3 1 <1>   0.0480 
 18 C        9.9700     3.1160     0.6280 C.3   1 <1>   0.2900 
 19 C        8.5400     5.5440    -0.3110 C.3   1 <1>   0.0960 
 20 N       10.6490     4.2760    -0.0160 N.3   1 <1>  -0.8100 
 21 C        9.9510     5.5370     0.2950 C.3   1 <1>   0.1100 
 22 C       12.0740     4.3520     0.3660 C.3   1 <1>   0.1100 
 23 C       12.9000     3.2570    -0.3140 C.3   1 <1>   0.1200 
 24 O       14.2310     3.4170     0.0650 O.3   1 <1>  -0.5600 
 25 C       15.0960     2.5000    -0.5220 C.3   1 <1>   0.0400 
 26 H       -1.1800    -1.6350    -0.2360 H     1 <1>   0.1500 
 27 H       -1.3800     2.6570     0.2990 H     1 <1>   0.1500 
 28 H       -2.7380     0.5230     0.1290 H     1 <1>   0.1500 
 29 H        2.8920     1.0260    -0.0900 H     1 <1>   0.3700 
 30 H        5.1600     0.9860     0.5880 H     1 <1>   0.1500 
 31 H        3.2960     4.6100    -0.7350 H     1 <1>   0.1500 
 32 H        5.4780     5.7330    -0.7540 H     1 <1>   0.1500 
 33 H       10.3550     2.1970     0.2250 H     1 <1>   0.0800 
 34 H       10.1550     3.1260     1.6880 H     1 <1>   0.0800 
 35 H        7.9700     6.3670     0.0790 H     1 <1>   0.0800 
 36 H        8.6070     5.6390    -1.3790 H     1 <1>   0.0800 
 37 H        9.8890     5.6680     1.3630 H     1 <1>   0.0800 
 38 H       10.5020     6.3680    -0.1120 H     1 <1>   0.0800 
 39 H       12.1770     4.2760     1.4350 H     1 <1>   0.0800 
 40 H       12.4750     5.3000     0.0500 H     1 <1>   0.0800 
 41 H       12.8290     3.3540    -1.3830 H     1 <1>   0.0800 
 42 H       12.5760     2.2800    -0.0020 H     1 <1>   0.0800 
 43 H       16.0910     2.7050    -0.1670 H     1 <1>   0.0800 
 44 H       15.0620     2.6130    -1.5920 H     1 <1>   0.0800 
 45 H       14.8070     1.5040    -0.2350 H     1 <1>   0.0800 
@<TRIPOS>BOND
  1   1   2  1   
  2   1   3  1   
  3   2   4  1   
  4   2   5  2   
  5   3   6  2   
  6   3  26  1   
  7   4   7  2   
  8   4   8  am  
  9   5   6  1   
 10   5  27  1   
 11   6  28  1   
 12   8   9  1   
 13   8  29  1   
 14   9  10  ar  
 15   9  11  ar  
 16  10  12  ar  
 17  10  30  1   
 18  11  13  ar  
 19  11  31  1   
 20  12  14  1   
 21  12  15  ar  
 22  13  15  ar  
 23  13  32  1   
 24  14  16  2   
 25  15  17  1   
 26  16  17  1   
 27  16  18  1   
 28  17  19  1   
 29  18  20  1   
 30  18  33  1   
 31  18  34  1   
 32  19  21  1   
 33  19  35  1   
 34  19  36  1   
 35  20  21  1   
 36  20  22  1   
 37  21  37  1   
 38  21  38  1   
 39  22  23  1   
 40  22  39  1   
 41  22  40  1   
 42  23  24  1   
 43  23  41  1   
 44  23  42  1   
 45  24  25  1   
 46  25  43  1   
 47  25  44  1   
 48  25  45  1   
@<TRIPOS>SUBSTRUCTURE
  1 ****  12 GROUP 4 **** **** 0

# MOE 2024.06 (io_trps.svl 2023.06)
