@<TRIPOS>MOLECULE
N-[2-(4-Acetyl-piperazin-1-yl)-phenyl]-2-(4-chloro-3-methyl-phenoxy)-acetamide
52 54 1 0 0 
SMALL
USER_CHARGES


@<TRIPOS>ATOM
  1 CL       0.4670     2.1630    -0.2430 Cl    1 <1>  -0.1770 
  2 C        2.2100     2.1070    -0.3730 C.ar  1 <1>   0.1770 
  3 C        2.9990     2.9390     0.4110 C.ar  1 <1>  -0.1440 
  4 C        2.7690     1.2190    -1.2750 C.ar  1 <1>  -0.1500 
  5 C        4.3750     2.8670     0.2680 C.ar  1 <1>  -0.1500 
  6 C        2.3810     3.9070     1.4100 C.3   1 <1>  -0.0960 
  7 C        4.1450     1.1510    -1.4070 C.ar  1 <1>  -0.1500 
  8 C        4.9500     1.9800    -0.6310 C.ar  1 <1>   0.0830 
  9 O        6.3000     1.9740    -0.7030 O.3   1 <1>  -0.3630 
 10 C        7.0090     0.8070    -1.1130 C.3   1 <1>   0.1810 
 11 C        8.4980     0.9520    -0.8170 C.2   1 <1>   0.5690 
 12 O        9.2410     0.0460    -1.1100 O.2   1 <1>  -0.5700 
 13 N        8.9060     2.1140    -0.2380 N.am  1 <1>  -0.5470 
 14 C       10.1240     2.6660     0.1740 C.ar  1 <1>   0.1170 
 15 C       10.0740     3.9940     0.6190 C.ar  1 <1>   0.1000 
 16 C       11.3310     1.9830     0.1680 C.ar  1 <1>  -0.1500 
 17 N        8.8510     4.6850     0.6040 N.pl3 1 <1>  -0.8380 
 18 C       11.2400     4.6070     1.0530 C.ar  1 <1>  -0.1500 
 19 C       12.4880     2.6090     0.6040 C.ar  1 <1>  -0.1500 
 20 C        8.5890     5.6260    -0.5200 C.3   1 <1>   0.2090 
 21 C        8.1460     4.9690     1.8950 C.3   1 <1>   0.2090 
 22 C       12.4420     3.9200     1.0470 C.ar  1 <1>  -0.1500 
 23 C        7.0740     5.8320    -0.7030 C.3   1 <1>   0.1400 
 24 C        7.2100     6.1920     1.8150 C.3   1 <1>   0.1400 
 25 N        6.3650     6.1890     0.5720 N.am  1 <1>  -0.6600 
 26 C        5.0230     6.4510     0.6310 C.2   1 <1>   0.5690 
 27 O        4.4580     6.6920     1.6710 O.2   1 <1>  -0.5700 
 28 C        4.1910     6.4430    -0.6310 C.3   1 <1>  -0.1790 
 29 H        2.1270     0.5900    -1.8650 H     1 <1>   0.1500 
 30 H        5.0180     3.4970     0.8590 H     1 <1>   0.1500 
 31 H        1.6980     3.3870     2.0580 H     1 <1>   0.0800 
 32 H        1.8450     4.6810     0.8910 H     1 <1>   0.0800 
 33 H        3.1380     4.3670     2.0210 H     1 <1>   0.0800 
 34 H        4.5700     0.4630    -2.1140 H     1 <1>   0.1500 
 35 H        6.8660     0.6720    -2.1690 H     1 <1>   0.0800 
 36 H        6.6200    -0.0370    -0.5750 H     1 <1>   0.0800 
 37 H        8.1540     2.7940    -0.0730 H     1 <1>   0.3700 
 38 H       11.3680     0.9650    -0.1740 H     1 <1>   0.1500 
 39 H       11.2010     5.6250     1.3930 H     1 <1>   0.1500 
 40 H       13.4210     2.0720     0.5970 H     1 <1>   0.1500 
 41 H        9.0130     5.2290    -1.4260 H     1 <1>   0.0800 
 42 H        9.0620     6.5710    -0.3160 H     1 <1>   0.0800 
 43 H        8.8700     5.1220     2.6770 H     1 <1>   0.0800 
 44 H        7.5600     4.1060     2.1580 H     1 <1>   0.0800 
 45 H       13.3420     4.4040     1.3850 H     1 <1>   0.1500 
 46 H        6.6550     4.9180    -1.0880 H     1 <1>   0.0800 
 47 H        6.9150     6.6070    -1.4310 H     1 <1>   0.0800 
 48 H        7.8050     7.0880     1.8240 H     1 <1>   0.0800 
 49 H        6.5880     6.2100     2.6930 H     1 <1>   0.0800 
 50 H        4.5480     7.1940    -1.3090 H     1 <1>   0.0800 
 51 H        3.1660     6.6590    -0.3900 H     1 <1>   0.0800 
 52 H        4.2370     5.4780    -1.0970 H     1 <1>   0.0800 
@<TRIPOS>BOND
  1   1   2  1   
  2   2   3  ar  
  3   2   4  ar  
  4   3   5  ar  
  5   3   6  1   
  6   4   7  ar  
  7   4  29  1   
  8   5   8  ar  
  9   5  30  1   
 10   6  31  1   
 11   6  32  1   
 12   6  33  1   
 13   7   8  ar  
 14   7  34  1   
 15   8   9  1   
 16   9  10  1   
 17  10  11  1   
 18  10  35  1   
 19  10  36  1   
 20  11  12  2   
 21  11  13  am  
 22  13  14  1   
 23  13  37  1   
 24  14  15  ar  
 25  14  16  ar  
 26  15  17  1   
 27  15  18  ar  
 28  16  19  ar  
 29  16  38  1   
 30  17  20  1   
 31  17  21  1   
 32  18  22  ar  
 33  18  39  1   
 34  19  22  ar  
 35  19  40  1   
 36  20  23  1   
 37  20  41  1   
 38  20  42  1   
 39  21  24  1   
 40  21  43  1   
 41  21  44  1   
 42  22  45  1   
 43  23  25  1   
 44  23  46  1   
 45  23  47  1   
 46  24  25  1   
 47  24  48  1   
 48  24  49  1   
 49  25  26  am  
 50  26  27  2   
 51  26  28  1   
 52  28  50  1   
 53  28  51  1   
 54  28  52  1   
@<TRIPOS>SUBSTRUCTURE
  1 ****   9 GROUP 4 **** **** 0

# MOE 2024.06 (io_trps.svl 2023.06)
