@<TRIPOS>MOLECULE
N-[1-(5-Mercapto-4-methyl-4H-[1,2,4]triazol-3-yl)-ethyl]-3-methyl-benzamide
35 36 1 0 0 
SMALL
USER_CHARGES


@<TRIPOS>ATOM
  1 S       -0.4650     0.0660     0.6680 S.3   1 <1>  -0.9360 
  2 C       -1.1270     1.3770    -0.0200 C.cat 1 <1>   0.7360 
  3 N       -0.8170     1.8290    -1.2140 N.pl3 1 <1>  -0.3930 
  4 N       -2.0550     2.1600     0.4960 N.pl3 1 <1>  -0.7640 
  5 N       -1.5560     2.9360    -1.5180 N.2   1 <1>  -0.2600 
  6 C       -2.2930     3.1130    -0.4740 C.2   1 <1>   0.4850 
  7 C       -2.6850     1.9700     1.8240 C.3   1 <1>   0.2740 
  8 C       -3.3350     4.2410    -0.3040 C.3   1 <1>   0.3880 
  9 N       -4.7220     3.7180    -0.3930 N.am  1 <1>  -0.7300 
 10 C       -3.2070     5.3590    -1.3440 C.3   1 <1>  -0.2400 
 11 C       -5.5540     3.5290     0.6700 C.2   1 <1>   0.5440 
 12 O       -5.1470     3.8340     1.7730 O.2   1 <1>  -0.5700 
 13 C       -6.8830     2.9750     0.4850 C.ar  1 <1>   0.0860 
 14 C       -7.1610     2.0460    -0.5200 C.ar  1 <1>  -0.1500 
 15 C       -7.9360     3.3560     1.3160 C.ar  1 <1>  -0.1500 
 16 C       -8.4330     1.5310    -0.7030 C.ar  1 <1>  -0.1430 
 17 C       -9.2090     2.8470     1.1440 C.ar  1 <1>  -0.1500 
 18 C       -9.4580     1.9360     0.1340 C.ar  1 <1>  -0.1500 
 19 C       -8.7110     0.5220    -1.8030 C.3   1 <1>  -0.0970 
 20 H       -0.1120     1.3590    -1.7820 H     1 <1>   0.4500 
 21 H       -2.0890     1.3110     2.4330 H     1 <1>   0.0800 
 22 H       -3.6620     1.5360     1.7040 H     1 <1>   0.0800 
 23 H       -2.7750     2.9140     2.3310 H     1 <1>   0.0800 
 24 H       -3.1780     4.6780     0.6670 H     1 <1>   0.0800 
 25 H       -5.0510     3.5000    -1.3330 H     1 <1>   0.3700 
 26 H       -3.3590     4.9780    -2.3380 H     1 <1>   0.0800 
 27 H       -2.2240     5.7930    -1.2920 H     1 <1>   0.0800 
 28 H       -3.9270     6.1330    -1.1430 H     1 <1>   0.0800 
 29 H       -6.3660     1.7130    -1.1630 H     1 <1>   0.1500 
 30 H       -7.7480     4.0620     2.1070 H     1 <1>   0.1500 
 31 H      -10.0080     3.1570     1.7960 H     1 <1>   0.1500 
 32 H      -10.4520     1.5420     0.0050 H     1 <1>   0.1500 
 33 H       -7.9410     0.5470    -2.5530 H     1 <1>   0.0800 
 34 H       -9.6520     0.7390    -2.2780 H     1 <1>   0.0800 
 35 H       -8.7550    -0.4680    -1.3860 H     1 <1>   0.0800 
@<TRIPOS>BOND
  1   1   2  1   
  2   2   3  ar  
  3   2   4  ar  
  4   3   5  1   
  5   3  20  1   
  6   4   6  1   
  7   4   7  1   
  8   5   6  2   
  9   6   8  1   
 10   7  21  1   
 11   7  22  1   
 12   7  23  1   
 13   8   9  1   
 14   8  10  1   
 15   8  24  1   
 16   9  11  am  
 17   9  25  1   
 18  10  26  1   
 19  10  27  1   
 20  10  28  1   
 21  11  12  2   
 22  11  13  1   
 23  13  14  ar  
 24  13  15  ar  
 25  14  16  ar  
 26  14  29  1   
 27  15  17  ar  
 28  15  30  1   
 29  16  18  ar  
 30  16  19  1   
 31  17  18  ar  
 32  17  31  1   
 33  18  32  1   
 34  19  33  1   
 35  19  34  1   
 36  19  35  1   
@<TRIPOS>SUBSTRUCTURE
  1 ****   9 GROUP 4 **** **** 0

# MOE 2024.06 (io_trps.svl 2023.06)
