@<TRIPOS>MOLECULE
2-(5-Acetylamino-[1,3,4]thiadiazol-2-ylsulfanyl)-N-(2,4,6-trimethyl-phenyl)-prop
44 45 1 0 0 
SMALL
USER_CHARGES


@<TRIPOS>ATOM
  1 S       -0.4340    -1.7080    -0.5030 S.3   1 <1>  -0.0800 
  2 C        0.9030    -0.6630    -0.2030 C.2   1 <1>   0.4340 
  3 C       -1.4300    -0.2800    -0.4460 C.2   1 <1>   0.4420 
  4 S        2.5150    -1.4250    -0.0930 S.3   1 <1>  -0.2860 
  5 N        0.5990     0.5650    -0.0870 N.2   1 <1>  -0.3380 
  6 N       -0.7450     0.7850    -0.2260 N.2   1 <1>  -0.3380 
  7 N       -2.7990    -0.3270    -0.6220 N.am  1 <1>  -0.4940 
  8 C        3.6540     0.0060     0.2480 C.3   1 <1>   0.2110 
  9 C       -3.7330    -1.2870    -0.8570 C.2   1 <1>   0.5690 
 10 C        5.0730    -0.3350    -0.2130 C.2   1 <1>   0.5690 
 11 C        3.5730     0.3140     1.7490 C.3   1 <1>  -0.2400 
 12 O       -4.8840    -0.9600    -0.9590 O.2   1 <1>  -0.5700 
 13 C       -3.3940    -2.7520    -0.9970 C.3   1 <1>  -0.1790 
 14 O        5.7380     0.5410    -0.7100 O.2   1 <1>  -0.5700 
 15 N        5.5310    -1.6120    -0.0350 N.am  1 <1>  -0.5470 
 16 C        6.7620    -2.1680    -0.4140 C.ar  1 <1>   0.1170 
 17 C        6.7790    -3.1870    -1.3690 C.ar  1 <1>  -0.1430 
 18 C        7.9650    -1.7510     0.1620 C.ar  1 <1>  -0.1430 
 19 C        7.9800    -3.7680    -1.7390 C.ar  1 <1>  -0.1500 
 20 C        5.4930    -3.6710    -2.0290 C.3   1 <1>  -0.0970 
 21 C        9.1550    -2.3420    -0.2270 C.ar  1 <1>  -0.1500 
 22 C        8.0140    -0.6570     1.2220 C.3   1 <1>  -0.0970 
 23 C        9.1720    -3.3490    -1.1750 C.ar  1 <1>  -0.1430 
 24 C       10.4850    -3.9890    -1.5890 C.3   1 <1>  -0.0970 
 25 H       -3.2350     0.5920    -0.5610 H     1 <1>   0.3700 
 26 H        3.2920     0.8380    -0.3300 H     1 <1>   0.0800 
 27 H        3.8890    -0.5360     2.3270 H     1 <1>   0.0800 
 28 H        2.5680     0.5760     2.0250 H     1 <1>   0.0800 
 29 H        4.2160     1.1440     1.9810 H     1 <1>   0.0800 
 30 H       -2.9450    -3.1170    -0.0930 H     1 <1>   0.0800 
 31 H       -2.7300    -2.9010    -1.8280 H     1 <1>   0.0800 
 32 H       -4.2930    -3.3130    -1.1790 H     1 <1>   0.0800 
 33 H        4.8290    -2.2930     0.2500 H     1 <1>   0.3700 
 34 H        7.9950    -4.5520    -2.4750 H     1 <1>   0.1500 
 35 H        4.9810    -2.8420    -2.4840 H     1 <1>   0.0800 
 36 H        4.8500    -4.1250    -1.2980 H     1 <1>   0.0800 
 37 H        5.7020    -4.3970    -2.7950 H     1 <1>   0.0800 
 38 H       10.0810    -2.0180     0.2120 H     1 <1>   0.1500 
 39 H        7.2140    -0.7790     1.9290 H     1 <1>   0.0800 
 40 H        7.9210     0.3060     0.7520 H     1 <1>   0.0800 
 41 H        8.9430    -0.6850     1.7610 H     1 <1>   0.0800 
 42 H       10.4300    -4.3350    -2.6060 H     1 <1>   0.0800 
 43 H       10.7000    -4.8250    -0.9480 H     1 <1>   0.0800 
 44 H       11.2880    -3.2780    -1.5170 H     1 <1>   0.0800 
@<TRIPOS>BOND
  1   1   2  1   
  2   1   3  1   
  3   2   4  1   
  4   2   5  2   
  5   3   6  2   
  6   3   7  1   
  7   4   8  1   
  8   5   6  1   
  9   7   9  am  
 10   7  25  1   
 11   8  10  1   
 12   8  11  1   
 13   8  26  1   
 14   9  12  2   
 15   9  13  1   
 16  10  14  2   
 17  10  15  am  
 18  11  27  1   
 19  11  28  1   
 20  11  29  1   
 21  13  30  1   
 22  13  31  1   
 23  13  32  1   
 24  15  16  1   
 25  15  33  1   
 26  16  17  ar  
 27  16  18  ar  
 28  17  19  ar  
 29  17  20  1   
 30  18  21  ar  
 31  18  22  1   
 32  19  23  ar  
 33  19  34  1   
 34  20  35  1   
 35  20  36  1   
 36  20  37  1   
 37  21  23  ar  
 38  21  38  1   
 39  22  39  1   
 40  22  40  1   
 41  22  41  1   
 42  23  24  1   
 43  24  42  1   
 44  24  43  1   
 45  24  44  1   
@<TRIPOS>SUBSTRUCTURE
  1 ****   4 GROUP 4 **** **** 0

# MOE 2024.06 (io_trps.svl 2023.06)
