@<TRIPOS>MOLECULE
1-(2,5-Dichloro-benzenesulfonyl)-piperidine-3-carboxylic acid (pyridin-2-ylmethy
46 48 1 0 0 
SMALL
USER_CHARGES


@<TRIPOS>ATOM
  1 CL       0.0660     0.7490     0.2920 Cl    1 <1>  -0.1770 
  2 C        0.9470     2.2060    -0.0960 C.ar  1 <1>   0.1770 
  3 C        2.1280     2.5530     0.5570 C.ar  1 <1>  -0.0090 
  4 C        0.3990     2.9910    -1.0990 C.ar  1 <1>  -0.1500 
  5 S        2.8860     1.5440     1.8610 S.o2  1 <1>   1.4470 
  6 C        2.7480     3.7340     0.1530 C.ar  1 <1>  -0.1500 
  7 C        1.0310     4.1600    -1.4820 C.ar  1 <1>  -0.1500 
  8 O        1.8850     0.8550     2.6420 O.2   1 <1>  -0.6500 
  9 O        3.8430     2.3790     2.5520 O.2   1 <1>  -0.6500 
 10 N        3.7990     0.3730     1.0350 N.am  1 <1>  -0.8490 
 11 C        2.2040     4.5170    -0.8470 C.ar  1 <1>   0.1770 
 12 C        4.8420     0.9330     0.1650 C.3   1 <1>   0.1960 
 13 C        3.0120    -0.6730     0.3820 C.3   1 <1>   0.1960 
 14 CL       3.0140     5.9870    -1.3170 Cl    1 <1>  -0.1770 
 15 C        5.8220    -0.1640    -0.2760 C.3   1 <1>  -0.0190 
 16 C        3.9300    -1.8190    -0.0540 C.3   1 <1>  -0.1600 
 17 C        6.8940     0.4140    -1.1960 C.2   1 <1>   0.5690 
 18 C        5.0680    -1.3220    -0.9560 C.3   1 <1>  -0.1600 
 19 O        6.6450     1.4000    -1.8420 O.2   1 <1>  -0.5700 
 20 N        8.1110    -0.1640    -1.3160 N.am  1 <1>  -0.7300 
 21 C        8.6830    -1.3680    -0.6660 C.3   1 <1>   0.2840 
 22 C       10.0900    -1.0690    -0.1660 C.ar  1 <1>   0.1670 
 23 N       11.0550    -1.0680    -1.0770 N.ar  1 <1>  -0.6200 
 24 C       10.2980    -0.8130     1.1820 C.ar  1 <1>  -0.1500 
 25 C       12.2710    -0.8030    -0.6260 C.ar  1 <1>   0.1600 
 26 C       11.5700    -0.5400     1.6370 C.ar  1 <1>  -0.1500 
 27 C       12.5790    -0.5380     0.6980 C.ar  1 <1>  -0.1500 
 28 H       -0.5170     2.6850    -1.5750 H     1 <1>   0.1500 
 29 H        3.6640     4.0560     0.6210 H     1 <1>   0.1500 
 30 H        0.6260     4.7860    -2.2580 H     1 <1>   0.1500 
 31 H        5.3950     1.6910     0.6960 H     1 <1>   0.0800 
 32 H        4.3900     1.3900    -0.7000 H     1 <1>   0.0800 
 33 H        2.5050    -0.2700    -0.4780 H     1 <1>   0.0800 
 34 H        2.2750    -1.0600     1.0670 H     1 <1>   0.0800 
 35 H        6.2970    -0.5230     0.6170 H     1 <1>   0.0800 
 36 H        3.3490    -2.5590    -0.5770 H     1 <1>   0.0800 
 37 H        4.3370    -2.2860     0.8260 H     1 <1>   0.0800 
 38 H        5.7440    -2.1320    -1.1700 H     1 <1>   0.0800 
 39 H        4.6580    -0.9780    -1.8910 H     1 <1>   0.0800 
 40 H        8.7770     0.3090    -1.9340 H     1 <1>   0.3700 
 41 H        8.7340    -2.1650    -1.3870 H     1 <1>   0.0800 
 42 H        8.0670    -1.6940     0.1500 H     1 <1>   0.0800 
 43 H        9.4750    -0.8210     1.8730 H     1 <1>   0.1500 
 44 H       13.0670    -0.7980    -1.3500 H     1 <1>   0.1500 
 45 H       11.7660    -0.3360     2.6760 H     1 <1>   0.1500 
 46 H       13.5940    -0.3330     0.9850 H     1 <1>   0.1500 
@<TRIPOS>BOND
  1   1   2  1   
  2   2   3  ar  
  3   2   4  ar  
  4   3   5  1   
  5   3   6  ar  
  6   4   7  ar  
  7   4  28  1   
  8   5   8  2   
  9   5   9  2   
 10   5  10  am  
 11   6  11  ar  
 12   6  29  1   
 13   7  11  ar  
 14   7  30  1   
 15  10  12  1   
 16  10  13  1   
 17  11  14  1   
 18  12  15  1   
 19  12  31  1   
 20  12  32  1   
 21  13  16  1   
 22  13  33  1   
 23  13  34  1   
 24  15  17  1   
 25  15  18  1   
 26  15  35  1   
 27  16  18  1   
 28  16  36  1   
 29  16  37  1   
 30  17  19  2   
 31  17  20  am  
 32  18  38  1   
 33  18  39  1   
 34  20  21  1   
 35  20  40  1   
 36  21  22  1   
 37  21  41  1   
 38  21  42  1   
 39  22  23  ar  
 40  22  24  ar  
 41  23  25  ar  
 42  24  26  ar  
 43  24  43  1   
 44  25  27  ar  
 45  25  44  1   
 46  26  27  ar  
 47  26  45  1   
 48  27  46  1   
@<TRIPOS>SUBSTRUCTURE
  1 ****  12 GROUP 4 **** **** 0

# MOE 2024.06 (io_trps.svl 2023.06)
