@<TRIPOS>MOLECULE
3-Ethyl-6-o-tolyloxymethyl-[1,2,4]triazolo[3,4-b][1,3,4]thiadiazole
33 35 1 0 0 
SMALL
USER_CHARGES


@<TRIPOS>ATOM
  1 S       -0.2350    -0.1440    -0.0890 S.3   1 <1>  -0.1970 
  2 C        0.5820     1.4050    -0.0750 C.2   1 <1>   0.2420 
  3 C       -1.7850     0.7260    -0.0430 C.2   1 <1>   0.5300 
  4 N        1.8000     1.8110    -0.0900 N.2   1 <1>  -0.3380 
  5 N       -0.3270     2.3630    -0.0400 N.pl3 1 <1>   0.5050 
  6 N       -1.6740     1.9960    -0.0210 N.2   1 <1>  -0.6520 
  7 C       -3.0180    -0.1680    -0.0360 C.3   1 <1>   0.1810 
  8 N        1.7040     3.1550    -0.0630 N.2   1 <1>  -0.3380 
  9 C        0.4400     3.4650    -0.0330 C.2   1 <1>   0.0060 
 10 O       -4.2040     0.6010    -0.0010 O.3   1 <1>  -0.3630 
 11 C       -0.1620     4.8630     0.0050 C.3   1 <1>   0.0200 
 12 C       -5.4330     0.0200     0.0110 C.ar  1 <1>   0.0830 
 13 C        0.8950     5.9740     0.0070 C.3   1 <1>  -0.2400 
 14 C       -6.5400     0.8640     0.0450 C.ar  1 <1>  -0.1430 
 15 C       -5.6190    -1.3610    -0.0100 C.ar  1 <1>  -0.1500 
 16 C       -7.8150     0.3220     0.0590 C.ar  1 <1>  -0.1500 
 17 C       -6.3610     2.3760     0.0680 C.3   1 <1>  -0.0970 
 18 C       -6.8970    -1.8910     0.0040 C.ar  1 <1>  -0.1500 
 19 C       -7.9940    -1.0500     0.0380 C.ar  1 <1>  -0.1500 
 20 H       -3.0010    -0.7980     0.8340 H     1 <1>   0.0800 
 21 H       -3.0330    -0.7670    -0.9290 H     1 <1>   0.0800 
 22 H       -0.7710     4.9540     0.8870 H     1 <1>   0.0800 
 23 H       -0.8020     4.9880    -0.8510 H     1 <1>   0.0800 
 24 H        1.5340     5.8770     0.8680 H     1 <1>   0.0800 
 25 H        0.4220     6.9390     0.0340 H     1 <1>   0.0800 
 26 H        1.5020     5.9110    -0.8790 H     1 <1>   0.0800 
 27 H       -4.7920    -2.0420    -0.0360 H     1 <1>   0.1500 
 28 H       -8.6770     0.9640     0.0850 H     1 <1>   0.1500 
 29 H       -5.7960     2.6620     0.9360 H     1 <1>   0.0800 
 30 H       -7.3100     2.8800     0.0930 H     1 <1>   0.0800 
 31 H       -5.8270     2.6920    -0.8100 H     1 <1>   0.0800 
 32 H       -7.0410    -2.9570    -0.0120 H     1 <1>   0.1500 
 33 H       -8.9890    -1.4620     0.0490 H     1 <1>   0.1500 
@<TRIPOS>BOND
  1   1   2  1   
  2   1   3  1   
  3   2   4  2   
  4   2   5  1   
  5   3   6  2   
  6   3   7  1   
  7   4   8  1   
  8   5   6  1   
  9   5   9  1   
 10   7  10  1   
 11   7  20  1   
 12   7  21  1   
 13   8   9  2   
 14   9  11  1   
 15  10  12  1   
 16  11  13  1   
 17  11  22  1   
 18  11  23  1   
 19  12  14  ar  
 20  12  15  ar  
 21  13  24  1   
 22  13  25  1   
 23  13  26  1   
 24  14  16  ar  
 25  14  17  1   
 26  15  18  ar  
 27  15  27  1   
 28  16  19  ar  
 29  16  28  1   
 30  17  29  1   
 31  17  30  1   
 32  17  31  1   
 33  18  19  ar  
 34  18  32  1   
 35  19  33  1   
@<TRIPOS>SUBSTRUCTURE
  1 ****   3 GROUP 4 **** **** 0

# MOE 2024.06 (io_trps.svl 2023.06)
