@<TRIPOS>MOLECULE
N-[1-(4-Ethyl-5-mercapto-4H-[1,2,4]triazol-3-yl)-2-methyl-propyl]-3-methyl-benza
44 45 1 0 0 
SMALL
USER_CHARGES


@<TRIPOS>ATOM
  1 S       -0.7070     0.9750    -3.0670 S.3   1 <1>  -0.9360 
  2 C       -1.3580     2.1580    -2.1630 C.cat 1 <1>   0.7360 
  3 N       -1.0080     3.4210    -2.2330 N.pl3 1 <1>  -0.3930 
  4 N       -2.2870     2.0290    -1.2350 N.pl3 1 <1>  -0.7640 
  5 N       -1.7110     4.1660    -1.3330 N.2   1 <1>  -0.2600 
  6 C       -2.4820     3.3110    -0.7490 C.2   1 <1>   0.4850 
  7 C       -3.0130     0.7750    -0.9780 C.3   1 <1>   0.3540 
  8 C       -3.4490     3.6430     0.4210 C.3   1 <1>   0.3880 
  9 C       -2.4490     0.1150     0.2760 C.3   1 <1>  -0.2400 
 10 N       -4.8770     3.2170     0.2440 N.am  1 <1>  -0.7300 
 11 C       -3.3960     5.1190     0.9110 C.3   1 <1>  -0.0800 
 12 C       -5.6080     3.2680    -0.9100 C.2   1 <1>   0.5440 
 13 C       -4.0290     5.2810     2.3050 C.3   1 <1>  -0.2400 
 14 C       -4.0480     6.1290    -0.0530 C.3   1 <1>  -0.2400 
 15 O       -5.0610     3.6280    -1.9300 O.2   1 <1>  -0.5700 
 16 C       -7.0190     2.9200    -0.9030 C.ar  1 <1>   0.0860 
 17 C       -7.5590     2.0350     0.0340 C.ar  1 <1>  -0.1500 
 18 C       -7.8920     3.4680    -1.8430 C.ar  1 <1>  -0.1500 
 19 C       -8.9070     1.7200     0.0460 C.ar  1 <1>  -0.1440 
 20 C       -9.2390     3.1600    -1.8410 C.ar  1 <1>  -0.1500 
 21 C       -9.7470     2.2890    -0.8950 C.ar  1 <1>  -0.1500 
 22 C       -9.4780     0.7590     1.0740 C.3   1 <1>  -0.0970 
 23 H       -0.3110     3.7340    -2.9070 H     1 <1>   0.4500 
 24 H       -2.9020     0.1090    -1.8180 H     1 <1>   0.0800 
 25 H       -4.0620     0.9740    -0.8630 H     1 <1>   0.0800 
 26 H       -3.0670     3.0550     1.2350 H     1 <1>   0.0800 
 27 H       -1.4020    -0.0910     0.1330 H     1 <1>   0.0800 
 28 H       -2.9550    -0.8170     0.4480 H     1 <1>   0.0800 
 29 H       -2.5800     0.7440     1.1350 H     1 <1>   0.0800 
 30 H       -5.3980     3.1680     1.1180 H     1 <1>   0.3700 
 31 H       -2.3570     5.3860     1.0070 H     1 <1>   0.0800 
 32 H       -5.0870     5.0900     2.2760 H     1 <1>   0.0800 
 33 H       -3.8830     6.2870     2.6600 H     1 <1>   0.0800 
 34 H       -3.5720     4.6110     3.0120 H     1 <1>   0.0800 
 35 H       -5.1110     5.9770    -0.1130 H     1 <1>   0.0800 
 36 H       -3.6430     6.0350    -1.0450 H     1 <1>   0.0800 
 37 H       -3.8710     7.1350     0.2850 H     1 <1>   0.0800 
 38 H       -6.9130     1.5790     0.7610 H     1 <1>   0.1500 
 39 H       -7.5030     4.1440    -2.5850 H     1 <1>   0.1500 
 40 H       -9.8940     3.5980    -2.5750 H     1 <1>   0.1500 
 41 H      -10.7980     2.0540    -0.8970 H     1 <1>   0.1500 
 42 H       -8.6990     0.3100     1.6630 H     1 <1>   0.0800 
 43 H      -10.0250    -0.0240     0.5800 H     1 <1>   0.0800 
 44 H      -10.1470     1.2850     1.7320 H     1 <1>   0.0800 
@<TRIPOS>BOND
  1   1   2  1   
  2   2   3  ar  
  3   2   4  ar  
  4   3   5  1   
  5   3  23  1   
  6   4   6  1   
  7   4   7  1   
  8   5   6  2   
  9   6   8  1   
 10   7   9  1   
 11   7  24  1   
 12   7  25  1   
 13   8  10  1   
 14   8  11  1   
 15   8  26  1   
 16   9  27  1   
 17   9  28  1   
 18   9  29  1   
 19  10  12  am  
 20  10  30  1   
 21  11  13  1   
 22  11  14  1   
 23  11  31  1   
 24  12  15  2   
 25  12  16  1   
 26  13  32  1   
 27  13  33  1   
 28  13  34  1   
 29  14  35  1   
 30  14  36  1   
 31  14  37  1   
 32  16  17  ar  
 33  16  18  ar  
 34  17  19  ar  
 35  17  38  1   
 36  18  20  ar  
 37  18  39  1   
 38  19  21  ar  
 39  19  22  1   
 40  20  21  ar  
 41  20  40  1   
 42  21  41  1   
 43  22  42  1   
 44  22  43  1   
 45  22  44  1   
@<TRIPOS>SUBSTRUCTURE
  1 ****  12 GROUP 4 **** **** 0

# MOE 2024.06 (io_trps.svl 2023.06)
