@<TRIPOS>MOLECULE
8-Cyclohexyl-3-(2-fluoro-benzyl)-1,7-dimethyl-1H,8H-imidazo[2,1-f]purine-2,4-dio
55 59 1 0 0 
SMALL
USER_CHARGES


@<TRIPOS>ATOM
  1 F        0.5080    -4.8100     0.6190 F     1 <1>  -0.1960 
  2 C        0.4440    -3.7450    -0.1350 C.ar  1 <1>   0.1840 
  3 C        0.8540    -2.5210     0.3750 C.ar  1 <1>  -0.1500 
  4 C       -0.0240    -3.8960    -1.4260 C.ar  1 <1>  -0.1570 
  5 C        0.7890    -1.4180    -0.4640 C.ar  1 <1>  -0.1570 
  6 C        1.3680    -2.3790     1.8030 C.3   1 <1>   0.2780 
  7 C       -0.0840    -2.7830    -2.2470 C.ar  1 <1>  -0.1570 
  8 C        0.3240    -1.5490    -1.7640 C.ar  1 <1>  -0.1570 
  9 N        2.7280    -2.9730     1.9040 N.am  1 <1>  -0.4250 
 10 C        2.8950    -4.1870     2.5550 C.2   1 <1>   0.6870 
 11 C        3.7640    -2.3900     1.1960 C.2   1 <1>   0.7000 
 12 O        2.0800    -4.5610     3.3710 O.2   1 <1>  -0.5740 
 13 N        4.0220    -4.9600     2.2970 N.am  1 <1>  -0.4410 
 14 O        3.6930    -1.2340     0.8120 O.2   1 <1>  -0.5740 
 15 C        4.9240    -3.1820     0.9570 C.2   1 <1>   0.2710 
 16 C        5.0110    -4.4210     1.4980 C.2   1 <1>   0.4210 
 17 C        4.1560    -6.3190     2.9010 C.3   1 <1>   0.0530 
 18 N        6.1110    -2.9850     0.2370 N.pl3 1 <1>  -0.6330 
 19 N        6.2000    -4.9900     1.1360 N.pl3 1 <1>  -0.7030 
 20 C        6.8320    -4.0880     0.3710 C.cat 1 <1>   1.0690 
 21 C        6.8400    -2.1200    -0.5510 C.2   1 <1>   0.2230 
 22 N        7.9970    -4.0070    -0.2830 N.pl3 1 <1>  -0.5710 
 23 C        7.9970    -2.7410    -0.8740 C.2   1 <1>   0.1580 
 24 C        9.0170    -5.0890    -0.2620 C.3   1 <1>   0.2420 
 25 C        9.1110    -2.1720    -1.7360 C.3   1 <1>  -0.1090 
 26 C       10.2350    -4.6860     0.5780 C.3   1 <1>  -0.1670 
 27 C        9.4190    -5.5430    -1.6700 C.3   1 <1>  -0.1670 
 28 C       11.2400    -5.8450     0.6550 C.3   1 <1>  -0.1670 
 29 C       10.4130    -6.7100    -1.5890 C.3   1 <1>  -0.1670 
 30 C       11.6390    -6.3320    -0.7450 C.3   1 <1>  -0.1670 
 31 H       -0.3360    -4.8620    -1.7790 H     1 <1>   0.1430 
 32 H        1.1030    -0.4480    -0.1150 H     1 <1>   0.1430 
 33 H        0.6820    -2.8610     2.4780 H     1 <1>   0.0730 
 34 H        1.4150    -1.3390     2.0780 H     1 <1>   0.0730 
 35 H       -0.4460    -2.8750    -3.2560 H     1 <1>   0.1430 
 36 H        0.2780    -0.6850    -2.4040 H     1 <1>   0.1430 
 37 H        3.1830    -6.7380     3.0980 H     1 <1>   0.0730 
 38 H        4.6940    -6.2520     3.8300 H     1 <1>   0.0730 
 39 H        4.6730    -6.9820     2.2300 H     1 <1>   0.0730 
 40 H        6.5580    -5.9080     1.3880 H     1 <1>   0.4450 
 41 H        6.4790    -1.1380    -0.8190 H     1 <1>   0.1430 
 42 H        8.5800    -5.9470     0.2190 H     1 <1>   0.0730 
 43 H        9.1720    -2.7010    -2.6690 H     1 <1>   0.0730 
 44 H       10.0580    -2.2270    -1.2320 H     1 <1>   0.0730 
 45 H        8.9140    -1.1380    -1.9570 H     1 <1>   0.0730 
 46 H        9.9280    -4.4230     1.5750 H     1 <1>   0.0730 
 47 H       10.7310    -3.8410     0.1390 H     1 <1>   0.0730 
 48 H        9.9010    -4.7450    -2.2020 H     1 <1>   0.0730 
 49 H        8.5510    -5.8540    -2.2230 H     1 <1>   0.0730 
 50 H       10.8100    -6.6640     1.2050 H     1 <1>   0.0730 
 51 H       12.1210    -5.5240     1.1850 H     1 <1>   0.0730 
 52 H       10.7330    -6.9820    -2.5810 H     1 <1>   0.0730 
 53 H        9.9320    -7.5700    -1.1540 H     1 <1>   0.0730 
 54 H       12.2900    -7.1850    -0.6570 H     1 <1>   0.0730 
 55 H       12.1900    -5.5550    -1.2480 H     1 <1>   0.0730 
@<TRIPOS>BOND
  1   1   2  1   
  2   2   3  ar  
  3   2   4  ar  
  4   3   5  ar  
  5   3   6  1   
  6   4   7  ar  
  7   4  31  1   
  8   5   8  ar  
  9   5  32  1   
 10   6   9  1   
 11   6  33  1   
 12   6  34  1   
 13   7   8  ar  
 14   7  35  1   
 15   8  36  1   
 16   9  10  am  
 17   9  11  am  
 18  10  12  2   
 19  10  13  am  
 20  11  14  2   
 21  11  15  1   
 22  13  16  1   
 23  13  17  1   
 24  15  16  2   
 25  15  18  1   
 26  16  19  1   
 27  17  37  1   
 28  17  38  1   
 29  17  39  1   
 30  18  20  ar  
 31  18  21  1   
 32  19  20  ar  
 33  19  40  1   
 34  20  22  ar  
 35  21  23  2   
 36  21  41  1   
 37  22  23  1   
 38  22  24  1   
 39  23  25  1   
 40  24  26  1   
 41  24  27  1   
 42  24  42  1   
 43  25  43  1   
 44  25  44  1   
 45  25  45  1   
 46  26  28  1   
 47  26  46  1   
 48  26  47  1   
 49  27  29  1   
 50  27  48  1   
 51  27  49  1   
 52  28  30  1   
 53  28  50  1   
 54  28  51  1   
 55  29  30  1   
 56  29  52  1   
 57  29  53  1   
 58  30  54  1   
 59  30  55  1   
@<TRIPOS>SUBSTRUCTURE
  1 ****  15 GROUP 4 **** **** 0

# MOE 2024.06 (io_trps.svl 2023.06)
