@<TRIPOS>MOLECULE
N-[1-(5-Mercapto-4-methyl-4H-[1,2,4]triazol-3-yl)-2-methyl-propyl]-3-methyl-benz
41 42 1 0 0 
SMALL
USER_CHARGES


@<TRIPOS>ATOM
  1 S       -2.8840    -0.6710     0.4340 S.3   1 <1>  -0.9360 
  2 C       -2.9660     0.8810    -0.0260 C.cat 1 <1>   0.7360 
  3 N       -2.3960     1.3730    -1.1020 N.pl3 1 <1>  -0.3930 
  4 N       -3.6340     1.8470     0.5770 N.pl3 1 <1>  -0.7640 
  5 N       -2.7010     2.6950    -1.2470 N.2   1 <1>  -0.2600 
  6 C       -3.4480     2.9560    -0.2300 C.2   1 <1>   0.4850 
  7 C       -4.4590     1.6510     1.7950 C.3   1 <1>   0.2740 
  8 C       -4.1090     4.3200     0.0590 C.3   1 <1>   0.3880 
  9 N       -4.8940     4.8250    -1.1010 N.am  1 <1>  -0.7300 
 10 C       -3.1090     5.3980     0.5500 C.3   1 <1>  -0.0800 
 11 C       -6.2130     4.5930    -1.3240 C.2   1 <1>   0.5440 
 12 C       -3.8450     6.6260     1.1160 C.3   1 <1>  -0.2400 
 13 C       -2.1000     5.8650    -0.5180 C.3   1 <1>  -0.2400 
 14 O       -6.8030     5.4230    -1.9770 O.2   1 <1>  -0.5700 
 15 C       -6.8900     3.4380    -0.7690 C.ar  1 <1>   0.0860 
 16 C       -6.4500     2.1430    -1.0390 C.ar  1 <1>  -0.1500 
 17 C       -7.9840     3.5850     0.0810 C.ar  1 <1>  -0.1500 
 18 C       -7.0340     1.0370    -0.4460 C.ar  1 <1>  -0.1430 
 19 C       -8.5860     2.4870     0.6670 C.ar  1 <1>  -0.1500 
 20 C       -8.1060     1.2150     0.4100 C.ar  1 <1>  -0.1500 
 21 C       -6.5030    -0.3600    -0.7230 C.3   1 <1>  -0.0970 
 22 H       -1.8310     0.7840    -1.7140 H     1 <1>   0.4500 
 23 H       -4.6300     0.6030     1.9720 H     1 <1>   0.0800 
 24 H       -5.4160     2.1290     1.6790 H     1 <1>   0.0800 
 25 H       -3.9500     2.0630     2.6480 H     1 <1>   0.0800 
 26 H       -4.8050     4.1590     0.8620 H     1 <1>   0.0800 
 27 H       -4.5130     5.6570    -1.5550 H     1 <1>   0.3700 
 28 H       -2.5460     4.9630     1.3590 H     1 <1>   0.0800 
 29 H       -4.4070     7.1300     0.3480 H     1 <1>   0.0800 
 30 H       -3.1400     7.3250     1.5310 H     1 <1>   0.0800 
 31 H       -4.5240     6.3350     1.8980 H     1 <1>   0.0800 
 32 H       -2.5960     6.3130    -1.3600 H     1 <1>   0.0800 
 33 H       -1.4990     5.0460    -0.8700 H     1 <1>   0.0800 
 34 H       -1.4310     6.5970    -0.0980 H     1 <1>   0.0800 
 35 H       -5.6300     2.0070    -1.7220 H     1 <1>   0.1500 
 36 H       -8.3610     4.5740     0.2770 H     1 <1>   0.1500 
 37 H       -9.4310     2.6200     1.3220 H     1 <1>   0.1500 
 38 H       -8.5740     0.3620     0.8730 H     1 <1>   0.1500 
 39 H       -5.6860    -0.3340    -1.4220 H     1 <1>   0.0800 
 40 H       -7.2820    -0.9780    -1.1310 H     1 <1>   0.0800 
 41 H       -6.1450    -0.8070     0.1870 H     1 <1>   0.0800 
@<TRIPOS>BOND
  1   1   2  1   
  2   2   3  ar  
  3   2   4  ar  
  4   3   5  1   
  5   3  22  1   
  6   4   6  1   
  7   4   7  1   
  8   5   6  2   
  9   6   8  1   
 10   7  23  1   
 11   7  24  1   
 12   7  25  1   
 13   8   9  1   
 14   8  10  1   
 15   8  26  1   
 16   9  11  am  
 17   9  27  1   
 18  10  12  1   
 19  10  13  1   
 20  10  28  1   
 21  11  14  2   
 22  11  15  1   
 23  12  29  1   
 24  12  30  1   
 25  12  31  1   
 26  13  32  1   
 27  13  33  1   
 28  13  34  1   
 29  15  16  ar  
 30  15  17  ar  
 31  16  18  ar  
 32  16  35  1   
 33  17  19  ar  
 34  17  36  1   
 35  18  20  ar  
 36  18  21  1   
 37  19  20  ar  
 38  19  37  1   
 39  20  38  1   
 40  21  39  1   
 41  21  40  1   
 42  21  41  1   
@<TRIPOS>SUBSTRUCTURE
  1 ****   6 GROUP 4 **** **** 0

# MOE 2024.06 (io_trps.svl 2023.06)
