@<TRIPOS>MOLECULE
5-Methyl-7-pyridin-4-yl-4,7-dihydro-[1,2,4]triazolo[1,5-a]pyrimidine-6-carboxyli
40 42 1 0 0 
SMALL
USER_CHARGES


@<TRIPOS>ATOM
  1 O        0.1300    -1.1030     1.5020 O.2   1 <1>  -0.5760 
  2 C       -0.0670    -1.5790     0.4080 C.2   1 <1>   0.7010 
  3 O        0.8630    -1.5380    -0.5520 O.3   1 <1>  -0.4370 
  4 C       -1.2970    -2.2330     0.0910 C.2   1 <1>   0.0040 
  5 C        2.1530    -0.9590    -0.4660 C.3   1 <1>   0.1910 
  6 C       -1.3550    -3.5790    -0.1600 C.2   1 <1>   0.1560 
  7 C       -2.5100    -1.4350     0.1260 C.2   1 <1>   0.3720 
  8 C        3.0010    -1.6790     0.5840 C.3   1 <1>  -0.2490 
  9 C        2.0560     0.5520    -0.2400 C.3   1 <1>  -0.2490 
 10 N       -2.5770    -4.2060    -0.3230 N.pl3 1 <1>  -0.6940 
 11 C       -0.1640    -4.5260    -0.2390 C.3   1 <1>  -0.1110 
 12 N       -3.7220    -2.2170     0.1310 N.pl3 1 <1>  -0.3300 
 13 C       -2.5530    -0.0580     0.0760 C.2   1 <1>  -0.0110 
 14 C       -3.7150    -3.5160    -0.1330 C.cat 1 <1>   1.0680 
 15 N       -5.0260    -1.7970     0.2330 N.2   1 <1>  -0.2680 
 16 C       -3.5160     0.7470     0.7950 C.2   1 <1>  -0.1590 
 17 C       -1.6420     0.7280    -0.7260 C.2   1 <1>  -0.1590 
 18 N       -4.9500    -3.9510    -0.1830 N.pl3 1 <1>  -0.7050 
 19 C       -5.7260    -2.8530     0.0480 C.2   1 <1>   0.4970 
 20 C       -3.5630     2.0950     0.7060 C.2   1 <1>  -0.0600 
 21 C       -1.6980     2.0760    -0.7990 C.2   1 <1>  -0.0600 
 22 N       -2.6630     2.7790    -0.0950 N.pl3 1 <1>  -0.6060 
 23 H        2.6100    -1.1200    -1.4280 H     1 <1>   0.0700 
 24 H        2.6350    -1.4940     1.5780 H     1 <1>   0.0700 
 25 H        4.0120    -1.3150     0.5360 H     1 <1>   0.0700 
 26 H        3.0160    -2.7360     0.3930 H     1 <1>   0.0700 
 27 H        1.6430     0.7800     0.7260 H     1 <1>   0.0700 
 28 H        1.4560     1.0070    -1.0060 H     1 <1>   0.0700 
 29 H        3.0400     0.9840    -0.2860 H     1 <1>   0.0700 
 30 H       -2.6190    -5.2070    -0.5230 H     1 <1>   0.4430 
 31 H       -0.2990    -5.3490     0.4390 H     1 <1>   0.0700 
 32 H        0.7610    -4.0450     0.0200 H     1 <1>   0.0700 
 33 H       -0.0670    -4.9130    -1.2380 H     1 <1>   0.0700 
 34 H       -4.2060     0.2470     1.4480 H     1 <1>   0.1410 
 35 H       -0.9000     0.2140    -1.3070 H     1 <1>   0.1410 
 36 H       -5.2750    -4.8980    -0.3660 H     1 <1>   0.4430 
 37 H       -6.8070    -2.8880     0.0640 H     1 <1>   0.1410 
 38 H       -4.2800     2.6890     1.2500 H     1 <1>   0.1410 
 39 H       -1.0160     2.6550    -1.4000 H     1 <1>   0.1410 
 40 H       -2.6930     3.8050    -0.1450 H     1 <1>   0.3930 
@<TRIPOS>BOND
  1   1   2  2   
  2   2   3  1   
  3   2   4  1   
  4   3   5  1   
  5   4   6  2   
  6   4   7  1   
  7   5   8  1   
  8   5   9  1   
  9   5  23  1   
 10   6  10  1   
 11   6  11  1   
 12   7  12  1   
 13   7  13  2   
 14   8  24  1   
 15   8  25  1   
 16   8  26  1   
 17   9  27  1   
 18   9  28  1   
 19   9  29  1   
 20  10  14  ar  
 21  10  30  1   
 22  11  31  1   
 23  11  32  1   
 24  11  33  1   
 25  12  14  ar  
 26  12  15  1   
 27  13  16  1   
 28  13  17  1   
 29  14  18  ar  
 30  15  19  2   
 31  16  20  2   
 32  16  34  1   
 33  17  21  2   
 34  17  35  1   
 35  18  19  1   
 36  18  36  1   
 37  19  37  1   
 38  20  22  1   
 39  20  38  1   
 40  21  22  1   
 41  21  39  1   
 42  22  40  1   
@<TRIPOS>SUBSTRUCTURE
  1 ****   7 GROUP 4 **** **** 0

# MOE 2024.06 (io_trps.svl 2023.06)
