@<TRIPOS>MOLECULE
5-Methoxy-1,3-dimethyl-1H-pyrazole-4-carbaldehyde
21 21 1 0 0 
SMALL
USER_CHARGES


@<TRIPOS>ATOM
  1 O       -0.4130     0.5900    -0.1100 O.2   1 <1>  -0.5700 
  2 C       -1.5880     0.3230    -0.0460 C.2   1 <1>   0.5960 
  3 C       -2.1950    -0.9730     0.0370 C.2   1 <1>  -0.0860 
  4 C       -1.7390    -2.2710     0.0710 C.2   1 <1>  -0.0890 
  5 C       -3.5910    -1.1440     0.1090 C.2   1 <1>   0.1080 
  6 O       -0.5040    -2.8310     0.0340 O.3   1 <1>  -0.3430 
  7 N       -2.8110    -3.0790     0.1570 N.pl3 1 <1>   0.3140 
  8 N       -3.9580    -2.3780     0.1780 N.2   1 <1>  -0.7070 
  9 C       -4.6270    -0.0380     0.1090 C.3   1 <1>  -0.0590 
 10 C        0.6710    -2.0660    -0.0600 C.3   1 <1>   0.0400 
 11 C       -2.8140    -4.5470     0.2150 C.3   1 <1>   0.0160 
 12 H       -2.2590     1.1610    -0.0520 H     1 <1>   0.0600 
 13 H       -4.4800     0.6080     0.9550 H     1 <1>   0.0800 
 14 H       -5.6130    -0.4630     0.1730 H     1 <1>   0.0800 
 15 H       -4.5610     0.5320    -0.7990 H     1 <1>   0.0800 
 16 H        1.5090    -2.7380    -0.0760 H     1 <1>   0.0800 
 17 H        0.7380    -1.4220     0.7990 H     1 <1>   0.0800 
 18 H        0.6450    -1.4960    -0.9710 H     1 <1>   0.0800 
 19 H       -2.0200    -4.8770     0.8570 H     1 <1>   0.0800 
 20 H       -2.6680    -4.9340    -0.7750 H     1 <1>   0.0800 
 21 H       -3.7580    -4.8820     0.6020 H     1 <1>   0.0800 
@<TRIPOS>BOND
  1   1   2  2   
  2   2   3  1   
  3   2  12  1   
  4   3   4  2   
  5   3   5  1   
  6   4   6  1   
  7   4   7  1   
  8   5   8  2   
  9   5   9  1   
 10   6  10  1   
 11   7   8  1   
 12   7  11  1   
 13   9  13  1   
 14   9  14  1   
 15   9  15  1   
 16  10  16  1   
 17  10  17  1   
 18  10  18  1   
 19  11  19  1   
 20  11  20  1   
 21  11  21  1   
@<TRIPOS>SUBSTRUCTURE
  1 ****   3 GROUP 4 **** **** 0

# MOE 2024.06 (io_trps.svl 2023.06)
