@<TRIPOS>MOLECULE
1,3-Dimethyl-2-oxo-2,3-dihydro-1H-benzoimidazole-5-sulfonic acid cyclopentylamid
40 42 1 0 0 
SMALL
USER_CHARGES


@<TRIPOS>ATOM
  1 S       -0.0010     0.2290     0.6470 S.o2  1 <1>   1.4470 
  2 O        0.2420     1.2540     1.6360 O.2   1 <1>  -0.6500 
  3 O       -1.1220    -0.6710     0.7830 O.2   1 <1>  -0.6500 
  4 N       -0.2380     0.9290    -0.8620 N.am  1 <1>  -0.9140 
  5 C        1.5230    -0.7190     0.3970 C.ar  1 <1>  -0.0090 
  6 C       -0.8830     2.2310    -0.9700 C.3   1 <1>   0.2760 
  7 C        2.7180    -0.0660     0.1200 C.ar  1 <1>  -0.1500 
  8 C        1.5290    -2.1180     0.4710 C.ar  1 <1>  -0.1500 
  9 C       -0.0140     3.3940    -0.4810 C.3   1 <1>  -0.1600 
 10 C       -2.2340     2.3450    -0.2540 C.3   1 <1>  -0.1600 
 11 C        3.8780    -0.7980    -0.0770 C.ar  1 <1>   0.1170 
 12 C        2.6850    -2.8540     0.2750 C.ar  1 <1>  -0.1500 
 13 C       -0.8680     4.1690     0.5270 C.3   1 <1>  -0.1600 
 14 C       -2.3110     3.8040     0.1900 C.3   1 <1>  -0.1600 
 15 N        5.1780    -0.4000    -0.3620 N.am  1 <1>  -0.4770 
 16 C        3.8640    -2.1800    -0.0010 C.ar  1 <1>   0.1170 
 17 C        5.9400    -1.5340    -0.4560 C.2   1 <1>   0.6900 
 18 C        5.6590     0.9900    -0.5150 C.3   1 <1>   0.0600 
 19 N        5.1540    -2.6340    -0.2400 N.am  1 <1>  -0.4770 
 20 O        7.1380    -1.5600    -0.6970 O.2   1 <1>  -0.5700 
 21 C        5.6040    -4.0430    -0.2540 C.3   1 <1>   0.0600 
 22 H       -0.8620     0.2650    -1.3140 H     1 <1>   0.4200 
 23 H       -1.0660     2.4090    -2.0180 H     1 <1>   0.0800 
 24 H        2.7460     1.0070     0.0580 H     1 <1>   0.1500 
 25 H        0.6070    -2.6340     0.6870 H     1 <1>   0.1500 
 26 H        0.2110     4.0330    -1.3160 H     1 <1>   0.0800 
 27 H        0.9120     3.0720    -0.0390 H     1 <1>   0.0800 
 28 H       -2.2800     1.7310     0.6260 H     1 <1>   0.0800 
 29 H       -3.0510     2.0920    -0.9050 H     1 <1>   0.0800 
 30 H        2.6790    -3.9280     0.3340 H     1 <1>   0.1500 
 31 H       -0.6940     5.2300     0.4770 H     1 <1>   0.0800 
 32 H       -0.6400     3.8250     1.5230 H     1 <1>   0.0800 
 33 H       -2.9660     3.9360     1.0350 H     1 <1>   0.0800 
 34 H       -2.6560     4.4160    -0.6260 H     1 <1>   0.0800 
 35 H        5.1380     1.4630    -1.3280 H     1 <1>   0.0800 
 36 H        6.7140     0.9910    -0.7250 H     1 <1>   0.0800 
 37 H        5.4800     1.5350     0.3940 H     1 <1>   0.0800 
 38 H        5.0680    -4.5840    -1.0130 H     1 <1>   0.0800 
 39 H        5.4200    -4.4890     0.7060 H     1 <1>   0.0800 
 40 H        6.6580    -4.0880    -0.4680 H     1 <1>   0.0800 
@<TRIPOS>BOND
  1   1   2  2   
  2   1   3  2   
  3   1   4  am  
  4   1   5  1   
  5   4   6  1   
  6   4  22  1   
  7   5   7  ar  
  8   5   8  ar  
  9   6   9  1   
 10   6  10  1   
 11   6  23  1   
 12   7  11  ar  
 13   7  24  1   
 14   8  12  ar  
 15   8  25  1   
 16   9  13  1   
 17   9  26  1   
 18   9  27  1   
 19  10  14  1   
 20  10  28  1   
 21  10  29  1   
 22  11  15  1   
 23  11  16  ar  
 24  12  16  ar  
 25  12  30  1   
 26  13  14  1   
 27  13  31  1   
 28  13  32  1   
 29  14  33  1   
 30  14  34  1   
 31  15  17  am  
 32  15  18  1   
 33  16  19  1   
 34  17  19  am  
 35  17  20  2   
 36  18  35  1   
 37  18  36  1   
 38  18  37  1   
 39  19  21  1   
 40  21  38  1   
 41  21  39  1   
 42  21  40  1   
@<TRIPOS>SUBSTRUCTURE
  1 ****   7 GROUP 4 **** **** 0

# MOE 2024.06 (io_trps.svl 2023.06)
