@<TRIPOS>MOLECULE
2-(5-Cyclohexyl-4-methyl-4H-[1,2,4]triazol-3-ylsulfanyl)-N-phenethyl-acetamide
51 53 1 0 0 
SMALL
USER_CHARGES


@<TRIPOS>ATOM
  1 S       -0.4380     0.6280     2.3000 S.3   1 <1>  -0.2860 
  2 C       -0.2560    -1.0950     1.8230 C.2   1 <1>   0.2420 
  3 C        0.9230     0.8730     3.5430 C.3   1 <1>   0.1310 
  4 N        0.2570    -1.9960     2.5820 N.2   1 <1>  -0.3380 
  5 N       -0.5980    -1.5410     0.6160 N.pl3 1 <1>   0.0480 
  6 C        2.2730     0.7560     2.8500 C.2   1 <1>   0.5690 
  7 N        0.2970    -3.1070     1.8430 N.2   1 <1>  -0.3380 
  8 C       -0.2060    -2.8250     0.6820 C.2   1 <1>   0.0060 
  9 C       -1.1860    -0.7580    -0.4910 C.3   1 <1>   0.0160 
 10 O        2.8650     1.7620     2.5420 O.2   1 <1>  -0.5700 
 11 N        2.7620    -0.4810     2.5760 N.am  1 <1>  -0.7300 
 12 C       -0.3230    -3.8100    -0.4830 C.3   1 <1>   0.1000 
 13 C        3.8840    -0.7860     1.6650 C.3   1 <1>   0.1400 
 14 C       -0.2820    -5.2760    -0.0120 C.3   1 <1>  -0.1600 
 15 C        0.7930    -3.5550    -1.5120 C.3   1 <1>  -0.1600 
 16 C        3.3250    -1.5120     0.4420 C.3   1 <1>  -0.0170 
 17 C       -0.3770    -6.2530    -1.1930 C.3   1 <1>  -0.1600 
 18 C        0.7060    -4.5250    -2.6990 C.3   1 <1>  -0.1600 
 19 C        4.4230    -1.8760    -0.5420 C.ar  1 <1>  -0.1430 
 20 C        0.7280    -5.9830    -2.2220 C.3   1 <1>  -0.1600 
 21 C        4.9700    -0.9040    -1.3660 C.ar  1 <1>  -0.1500 
 22 C        4.8820    -3.1810    -0.6300 C.ar  1 <1>  -0.1500 
 23 C        5.9660    -1.2340    -2.2690 C.ar  1 <1>  -0.1500 
 24 C        5.8770    -3.5120    -1.5330 C.ar  1 <1>  -0.1500 
 25 C        6.4200    -2.5380    -2.3530 C.ar  1 <1>  -0.1500 
 26 H        0.8090     0.1250     4.3040 H     1 <1>   0.0800 
 27 H        0.7990     1.8540     3.9610 H     1 <1>   0.0800 
 28 H       -2.0080    -0.1750    -0.1160 H     1 <1>   0.0800 
 29 H       -1.5420    -1.4130    -1.2640 H     1 <1>   0.0800 
 30 H       -0.4390    -0.1000    -0.8940 H     1 <1>   0.0800 
 31 H        2.1570    -1.2910     2.7820 H     1 <1>   0.3700 
 32 H       -1.2740    -3.6560    -0.9600 H     1 <1>   0.0800 
 33 H        4.5980    -1.4130     2.1720 H     1 <1>   0.0800 
 34 H        4.3770     0.1230     1.3650 H     1 <1>   0.0800 
 35 H       -1.0930    -5.4550     0.6720 H     1 <1>   0.0800 
 36 H        0.6380    -5.4560     0.5180 H     1 <1>   0.0800 
 37 H        1.7480    -3.6790    -1.0320 H     1 <1>   0.0800 
 38 H        0.7400    -2.5450    -1.8760 H     1 <1>   0.0800 
 39 H        2.6070    -0.8790    -0.0490 H     1 <1>   0.0800 
 40 H        2.8220    -2.4050     0.7650 H     1 <1>   0.0800 
 41 H       -1.3390    -6.1520    -1.6660 H     1 <1>   0.0800 
 42 H       -0.2930    -7.2630    -0.8310 H     1 <1>   0.0800 
 43 H        1.5340    -4.3530    -3.3650 H     1 <1>   0.0800 
 44 H       -0.2020    -4.3430    -3.2480 H     1 <1>   0.0800 
 45 H        0.6050    -6.6410    -3.0660 H     1 <1>   0.0800 
 46 H        1.6860    -6.1960    -1.7780 H     1 <1>   0.0800 
 47 H        4.6230     0.1130    -1.3070 H     1 <1>   0.1500 
 48 H        4.4670    -3.9460     0.0030 H     1 <1>   0.1500 
 49 H        6.3870    -0.4750    -2.9050 H     1 <1>   0.1500 
 50 H        6.2300    -4.5260    -1.5960 H     1 <1>   0.1500 
 51 H        7.1940    -2.7950    -3.0550 H     1 <1>   0.1500 
@<TRIPOS>BOND
  1   1   2  1   
  2   1   3  1   
  3   2   4  2   
  4   2   5  1   
  5   3   6  1   
  6   3  26  1   
  7   3  27  1   
  8   4   7  1   
  9   5   8  1   
 10   5   9  1   
 11   6  10  2   
 12   6  11  am  
 13   7   8  2   
 14   8  12  1   
 15   9  28  1   
 16   9  29  1   
 17   9  30  1   
 18  11  13  1   
 19  11  31  1   
 20  12  14  1   
 21  12  15  1   
 22  12  32  1   
 23  13  16  1   
 24  13  33  1   
 25  13  34  1   
 26  14  17  1   
 27  14  35  1   
 28  14  36  1   
 29  15  18  1   
 30  15  37  1   
 31  15  38  1   
 32  16  19  1   
 33  16  39  1   
 34  16  40  1   
 35  17  20  1   
 36  17  41  1   
 37  17  42  1   
 38  18  20  1   
 39  18  43  1   
 40  18  44  1   
 41  19  21  ar  
 42  19  22  ar  
 43  20  45  1   
 44  20  46  1   
 45  21  23  ar  
 46  21  47  1   
 47  22  24  ar  
 48  22  48  1   
 49  23  25  ar  
 50  23  49  1   
 51  24  25  ar  
 52  24  50  1   
 53  25  51  1   
@<TRIPOS>SUBSTRUCTURE
  1 ****  16 GROUP 4 **** **** 0

# MOE 2024.06 (io_trps.svl 2023.06)
