@<TRIPOS>MOLECULE
7-(2-Hydroxy-2-phenyl-ethyl)-1,3-dimethyl-8-(4-methyl-piperazin-1-yl)-3,7-dihydr
57 60 1 0 0 
SMALL
USER_CHARGES


@<TRIPOS>ATOM
  1 O        1.4320     3.5530     1.2610 O.2   1 <1>  -0.5740 
  2 C        2.4210     3.3910     0.5750 C.2   1 <1>   0.6870 
  3 N        2.6770     4.2410    -0.4940 N.am  1 <1>  -0.4250 
  4 N        3.2980     2.3540     0.8670 N.am  1 <1>  -0.4410 
  5 C        3.8450     4.1270    -1.2360 C.2   1 <1>   0.7000 
  6 C        1.7110     5.3420    -0.7940 C.3   1 <1>   0.0530 
  7 C        4.4760     2.2850     0.1510 C.2   1 <1>   0.4210 
  8 C        3.0030     1.4100     1.9850 C.3   1 <1>   0.0530 
  9 O        4.0510     4.8610    -2.1900 O.2   1 <1>  -0.5740 
 10 C        4.7940     3.1180    -0.8600 C.2   1 <1>   0.2710 
 11 N        5.5130     1.4270     0.3470 N.pl3 1 <1>  -0.7030 
 12 N        6.1030     2.7690    -1.2730 N.pl3 1 <1>  -0.7670 
 13 C        6.4820     1.7300    -0.5180 C.cat 1 <1>   1.0690 
 14 C        6.9790     3.8070    -1.9270 C.3   1 <1>   0.3490 
 15 N        7.6540     1.0480    -0.5670 N.pl3 1 <1>  -0.5960 
 16 C        7.7240     4.7000    -0.9010 C.3   1 <1>   0.3380 
 17 C        8.4360     0.8140    -1.8250 C.3   1 <1>   0.1610 
 18 C        8.2910     0.4360     0.6460 C.3   1 <1>   0.1610 
 19 O        8.7320     3.9720    -0.2680 O.3   1 <1>  -0.6830 
 20 C        6.7660     5.2490     0.1580 C.ar  1 <1>  -0.1500 
 21 C        9.9120     1.2460    -1.6730 C.3   1 <1>   0.3380 
 22 C        9.7710     0.8670     0.7820 C.3   1 <1>   0.3380 
 23 C        6.6060     4.6650     1.4110 C.ar  1 <1>  -0.1570 
 24 C        5.9870     6.3520    -0.1660 C.ar  1 <1>  -0.1570 
 25 N       10.5610     0.6140    -0.4730 N.4   1 <1>  -0.9610 
 26 C        5.6710     5.1560     2.3040 C.ar  1 <1>  -0.1570 
 27 C        5.0530     6.8440     0.7270 C.ar  1 <1>  -0.1570 
 28 C       11.9620     1.1150    -0.3160 C.3   1 <1>   0.2570 
 29 C        4.8890     6.2430     1.9610 C.ar  1 <1>  -0.1570 
 30 H        0.7030     5.0200    -0.5950 H     1 <1>   0.0730 
 31 H        1.7700     5.6360    -1.8270 H     1 <1>   0.0730 
 32 H        1.9340     6.1920    -0.1730 H     1 <1>   0.0730 
 33 H        1.9390     1.3330     2.1390 H     1 <1>   0.0730 
 34 H        3.4540     1.7710     2.8920 H     1 <1>   0.0730 
 35 H        3.3760     0.4270     1.7590 H     1 <1>   0.0730 
 36 H        5.5160     0.6580     1.0070 H     1 <1>   0.4450 
 37 H        6.3730     4.4440    -2.5460 H     1 <1>   0.0730 
 38 H        7.6960     3.3540    -2.5830 H     1 <1>   0.0730 
 39 H        8.1990     5.5160    -1.4190 H     1 <1>   0.0730 
 40 H        7.9860     1.3190    -2.6600 H     1 <1>   0.0730 
 41 H        8.4100    -0.2380    -2.0570 H     1 <1>   0.0730 
 42 H        8.2370    -0.6370     0.5770 H     1 <1>   0.0730 
 43 H        7.7690     0.7370     1.5380 H     1 <1>   0.0730 
 44 H        9.1350     4.5730     0.3980 H     1 <1>   0.3950 
 45 H        9.9530     2.3190    -1.5800 H     1 <1>   0.0730 
 46 H       10.4550     0.9730    -2.5640 H     1 <1>   0.0730 
 47 H       10.2210     0.3380     1.6060 H     1 <1>   0.0730 
 48 H        9.8010     1.9200     1.0140 H     1 <1>   0.0730 
 49 H        7.1990     3.8210     1.7140 H     1 <1>   0.1430 
 50 H        6.0860     6.8390    -1.1220 H     1 <1>   0.1430 
 51 H       10.6160    -0.4050    -0.6280 H     1 <1>   0.4450 
 52 H        5.5490     4.7040     3.2740 H     1 <1>   0.1430 
 53 H        4.4520     7.6980     0.4630 H     1 <1>   0.1430 
 54 H       11.9640     2.1810    -0.1530 H     1 <1>   0.0730 
 55 H       12.5390     0.9010    -1.2020 H     1 <1>   0.0730 
 56 H       12.4400     0.6370     0.5250 H     1 <1>   0.0730 
 57 H        4.1610     6.6270     2.6550 H     1 <1>   0.1430 
@<TRIPOS>BOND
  1   1   2  2   
  2   2   3  am  
  3   2   4  am  
  4   3   5  am  
  5   3   6  1   
  6   4   7  1   
  7   4   8  1   
  8   5   9  2   
  9   5  10  1   
 10   6  30  1   
 11   6  31  1   
 12   6  32  1   
 13   7  10  2   
 14   7  11  1   
 15   8  33  1   
 16   8  34  1   
 17   8  35  1   
 18  10  12  1   
 19  11  13  ar  
 20  11  36  1   
 21  12  13  ar  
 22  12  14  1   
 23  13  15  ar  
 24  14  16  1   
 25  14  37  1   
 26  14  38  1   
 27  15  17  1   
 28  15  18  1   
 29  16  19  1   
 30  16  20  1   
 31  16  39  1   
 32  17  21  1   
 33  17  40  1   
 34  17  41  1   
 35  18  22  1   
 36  18  42  1   
 37  18  43  1   
 38  19  44  1   
 39  20  23  ar  
 40  20  24  ar  
 41  21  25  1   
 42  21  45  1   
 43  21  46  1   
 44  22  25  1   
 45  22  47  1   
 46  22  48  1   
 47  23  26  ar  
 48  23  49  1   
 49  24  27  ar  
 50  24  50  1   
 51  25  28  1   
 52  25  51  1   
 53  26  29  ar  
 54  26  52  1   
 55  27  29  ar  
 56  27  53  1   
 57  28  54  1   
 58  28  55  1   
 59  28  56  1   
 60  29  57  1   
@<TRIPOS>SUBSTRUCTURE
  1 ****  12 GROUP 4 **** **** 0

# MOE 2024.06 (io_trps.svl 2023.06)
