@<TRIPOS>MOLECULE
1-Methanesulfonyl-piperidine-3-carboxylic acid (2,4-difluoro-phenyl)-amide
37 38 1 0 0 
SMALL
USER_CHARGES


@<TRIPOS>ATOM
  1 S        0.1020    -0.0680     1.1030 S.o2  1 <1>   1.3330 
  2 O       -0.9240    -1.0110     1.4810 O.2   1 <1>  -0.6500 
  3 O        0.5240     0.9670     2.0180 O.2   1 <1>  -0.6500 
  4 N        1.4770    -0.9480     0.6480 N.am  1 <1>  -0.8490 
  5 C       -0.4300     0.7280    -0.4010 C.3   1 <1>  -0.1350 
  6 C        2.6100    -0.1210     0.2160 C.3   1 <1>   0.1960 
  7 C        1.2090    -2.0840    -0.2370 C.3   1 <1>   0.1960 
  8 C        3.8910    -0.9630     0.1430 C.3   1 <1>  -0.0190 
  9 C        2.4510    -2.9770    -0.3340 C.3   1 <1>  -0.1600 
 10 C        5.0540    -0.1040    -0.3320 C.2   1 <1>   0.5690 
 11 C        3.6910    -2.1850    -0.7720 C.3   1 <1>  -0.1600 
 12 O        4.8710     0.6620    -1.2470 O.2   1 <1>  -0.5700 
 13 N        6.2580    -0.2600     0.2980 N.am  1 <1>  -0.5470 
 14 C        7.5180     0.3460     0.1070 C.ar  1 <1>   0.1170 
 15 C        8.6260    -0.1470     0.8040 C.ar  1 <1>   0.1900 
 16 C        7.7360     1.4290    -0.7460 C.ar  1 <1>  -0.1500 
 17 F        8.4550    -1.1610     1.6180 F     1 <1>  -0.1900 
 18 C        9.8980     0.3750     0.6840 C.ar  1 <1>  -0.1500 
 19 C        9.0010     1.9790    -0.8910 C.ar  1 <1>  -0.1500 
 20 C       10.0560     1.4430    -0.1750 C.ar  1 <1>   0.1900 
 21 F       11.2460     1.9660    -0.3170 F     1 <1>  -0.1900 
 22 H        0.3330     1.3840    -0.7710 H     1 <1>   0.0800 
 23 H       -1.3100     1.3090    -0.2080 H     1 <1>   0.0800 
 24 H       -0.6630    -0.0010    -1.1510 H     1 <1>   0.0800 
 25 H        2.7640     0.6820     0.9180 H     1 <1>   0.0800 
 26 H        2.4000     0.3100    -0.7490 H     1 <1>   0.0800 
 27 H        0.9360    -1.7310    -1.2170 H     1 <1>   0.0800 
 28 H        0.3930    -2.6680     0.1560 H     1 <1>   0.0800 
 29 H        4.1030    -1.3050     1.1400 H     1 <1>   0.0800 
 30 H        2.2630    -3.7720    -1.0330 H     1 <1>   0.0800 
 31 H        2.6260    -3.4240     0.6300 H     1 <1>   0.0800 
 32 H        4.5600    -2.8190    -0.7390 H     1 <1>   0.0800 
 33 H        3.5610    -1.8520    -1.7890 H     1 <1>   0.0800 
 34 H        6.2710    -0.9760     1.0270 H     1 <1>   0.3700 
 35 H        6.9230     1.8570    -1.3050 H     1 <1>   0.1500 
 36 H       10.7280    -0.0280     1.2330 H     1 <1>   0.1500 
 37 H        9.1680     2.8130    -1.5500 H     1 <1>   0.1500 
@<TRIPOS>BOND
  1   1   2  2   
  2   1   3  2   
  3   1   4  am  
  4   1   5  1   
  5   4   6  1   
  6   4   7  1   
  7   5  22  1   
  8   5  23  1   
  9   5  24  1   
 10   6   8  1   
 11   6  25  1   
 12   6  26  1   
 13   7   9  1   
 14   7  27  1   
 15   7  28  1   
 16   8  10  1   
 17   8  11  1   
 18   8  29  1   
 19   9  11  1   
 20   9  30  1   
 21   9  31  1   
 22  10  12  2   
 23  10  13  am  
 24  11  32  1   
 25  11  33  1   
 26  13  14  1   
 27  13  34  1   
 28  14  15  ar  
 29  14  16  ar  
 30  15  17  1   
 31  15  18  ar  
 32  16  19  ar  
 33  16  35  1   
 34  18  20  ar  
 35  18  36  1   
 36  19  20  ar  
 37  19  37  1   
 38  20  21  1   
@<TRIPOS>SUBSTRUCTURE
  1 ****  10 GROUP 4 **** **** 0

# MOE 2024.06 (io_trps.svl 2023.06)
