@<TRIPOS>MOLECULE
4-[3-(4-Chloro-phenyl)-[1,2,4]oxadiazol-5-ylmethyl]-piperazine-1-carboxylic acid
43 45 1 0 0 
SMALL
USER_CHARGES


@<TRIPOS>ATOM
  1 CL       1.1870     0.7380     1.8840 Cl    1 <1>  -0.1770 
  2 C        2.7330     0.6260     1.0840 C.ar  1 <1>   0.1770 
  3 C        2.8980     1.2020    -0.1610 C.ar  1 <1>  -0.1500 
  4 C        3.7740    -0.0360     1.7030 C.ar  1 <1>  -0.1500 
  5 C        4.1270     1.1100    -0.7910 C.ar  1 <1>  -0.1500 
  6 C        4.9980    -0.1210     1.0630 C.ar  1 <1>  -0.1500 
  7 C        5.2080     0.4490    -0.1980 C.ar  1 <1>   0.0540 
  8 C        6.4950     0.3620    -0.8700 C.2   1 <1>   0.4620 
  9 N        6.7640     0.8340    -2.0350 N.2   1 <1>  -0.4100 
 10 N        7.5570    -0.2370    -0.3220 N.2   1 <1>  -0.5650 
 11 O        8.0070     0.5730    -2.2940 O.3   1 <1>  -0.0190 
 12 C        8.4260    -0.0670    -1.2340 C.2   1 <1>   0.2980 
 13 C        9.8760    -0.5390    -1.1900 C.3   1 <1>   0.2900 
 14 N       10.8560     0.5730    -1.1740 N.3   1 <1>  -0.8100 
 15 C       12.2390     0.0600    -1.2780 C.3   1 <1>   0.1100 
 16 C       10.7040     1.4120     0.0390 C.3   1 <1>   0.1100 
 17 C       13.2710     1.2010    -1.3020 C.3   1 <1>   0.1400 
 18 C       11.7020     2.5820     0.0560 C.3   1 <1>   0.1400 
 19 N       13.0960     2.0860    -0.1160 N.am  1 <1>  -0.6600 
 20 C       14.0880     2.3680     0.7820 C.2   1 <1>   0.7800 
 21 O       13.9030     3.0520     1.7710 O.2   1 <1>  -0.5700 
 22 O       15.2990     1.8570     0.5510 O.3   1 <1>  -0.4300 
 23 C       16.3700     2.1110     1.4300 C.3   1 <1>   0.1200 
 24 C       17.6040     1.3920     0.8940 C.3   1 <1>  -0.2400 
 25 H        2.0750     1.7130    -0.6260 H     1 <1>   0.1500 
 26 H        3.6250    -0.4780     2.6720 H     1 <1>   0.1500 
 27 H        4.2520     1.5610    -1.7610 H     1 <1>   0.1500 
 28 H        5.8070    -0.6390     1.5500 H     1 <1>   0.1500 
 29 H       10.0500    -1.1490    -2.0590 H     1 <1>   0.0800 
 30 H       10.0140    -1.1540    -0.3180 H     1 <1>   0.0800 
 31 H       12.3410    -0.5130    -2.1840 H     1 <1>   0.0800 
 32 H       12.4560    -0.5870    -0.4450 H     1 <1>   0.0800 
 33 H       10.8530     0.8150     0.9230 H     1 <1>   0.0800 
 34 H        9.7080     1.8200     0.0780 H     1 <1>   0.0800 
 35 H       13.1350     1.7820    -2.1970 H     1 <1>   0.0800 
 36 H       14.2620     0.7830    -1.3260 H     1 <1>   0.0800 
 37 H       11.6030     3.1210     0.9820 H     1 <1>   0.0800 
 38 H       11.4660     3.2580    -0.7470 H     1 <1>   0.0800 
 39 H       16.1030     1.7450     2.4070 H     1 <1>   0.0800 
 40 H       16.5310     3.1750     1.4740 H     1 <1>   0.0800 
 41 H       17.4240     0.3330     0.8460 H     1 <1>   0.0800 
 42 H       18.4390     1.5680     1.5470 H     1 <1>   0.0800 
 43 H       17.8510     1.7610    -0.0860 H     1 <1>   0.0800 
@<TRIPOS>BOND
  1   1   2  1   
  2   2   3  ar  
  3   2   4  ar  
  4   3   5  ar  
  5   3  25  1   
  6   4   6  ar  
  7   4  26  1   
  8   5   7  ar  
  9   5  27  1   
 10   6   7  ar  
 11   6  28  1   
 12   7   8  1   
 13   8   9  2   
 14   8  10  1   
 15   9  11  1   
 16  10  12  2   
 17  11  12  1   
 18  12  13  1   
 19  13  14  1   
 20  13  29  1   
 21  13  30  1   
 22  14  15  1   
 23  14  16  1   
 24  15  17  1   
 25  15  31  1   
 26  15  32  1   
 27  16  18  1   
 28  16  33  1   
 29  16  34  1   
 30  17  19  1   
 31  17  35  1   
 32  17  36  1   
 33  18  19  1   
 34  18  37  1   
 35  18  38  1   
 36  19  20  am  
 37  20  21  2   
 38  20  22  1   
 39  22  23  1   
 40  23  24  1   
 41  23  39  1   
 42  23  40  1   
 43  24  41  1   
 44  24  42  1   
 45  24  43  1   
@<TRIPOS>SUBSTRUCTURE
  1 ****  16 GROUP 4 **** **** 0

# MOE 2024.06 (io_trps.svl 2023.06)
