@<TRIPOS>MOLECULE
2,7,7-Trimethyl-5-oxo-4-pyridin-3-yl-1,4,5,6,7,8-hexahydro-quinoline-3-carboxyli
54 57 1 0 0 
SMALL
USER_CHARGES


@<TRIPOS>ATOM
  1 F       -0.5520    -0.4900     0.8420 F     1 <1>  -0.1900 
  2 C       -1.7700    -0.9300     0.6640 C.ar  1 <1>   0.1900 
  3 C       -2.3750    -1.6500     1.6760 C.ar  1 <1>  -0.1500 
  4 C       -2.4090    -0.6590    -0.5310 C.ar  1 <1>  -0.1500 
  5 C       -3.6640    -2.1130     1.4790 C.ar  1 <1>  -0.1500 
  6 C       -3.6990    -1.1280    -0.7120 C.ar  1 <1>  -0.1500 
  7 C       -4.3410    -1.8580     0.2870 C.ar  1 <1>   0.1170 
  8 N       -5.6390    -2.3240     0.0460 N.am  1 <1>  -0.5470 
  9 C       -6.6790    -2.5730     0.9060 C.2   1 <1>   0.6160 
 10 O       -6.5850    -2.2980     2.0870 O.2   1 <1>  -0.5700 
 11 C       -7.8940    -3.1020     0.3770 C.2   1 <1>  -0.1240 
 12 C       -8.0540    -4.2590    -0.3180 C.2   1 <1>  -0.0380 
 13 C       -9.0900    -2.1790     0.6220 C.3   1 <1>   0.3400 
 14 N       -9.2890    -4.6420    -0.7960 N.pl3 1 <1>  -0.6000 
 15 C       -6.9420    -5.2480    -0.6240 C.3   1 <1>  -0.1020 
 16 C      -10.4250    -2.7980     0.2060 C.2   1 <1>  -0.1240 
 17 C       -8.8460    -0.9110    -0.1930 C.ar  1 <1>  -0.1430 
 18 C      -10.4440    -3.9640    -0.4860 C.2   1 <1>  -0.0380 
 19 C      -11.6010    -2.0850     0.5730 C.2   1 <1>   0.4950 
 20 C       -8.7640    -0.9820    -1.5770 C.ar  1 <1>   0.1600 
 21 C       -8.6800     0.3150     0.4200 C.ar  1 <1>  -0.1500 
 22 C      -11.7500    -4.5930    -0.9540 C.3   1 <1>  -0.0220 
 23 O      -11.6130    -1.1080     1.2840 O.2   1 <1>  -0.5700 
 24 C      -12.9320    -2.5860     0.0390 C.3   1 <1>  -0.0990 
 25 N       -8.5170     0.0420    -2.3780 N.ar  1 <1>  -0.6200 
 26 C       -8.4340     1.3950    -0.3990 C.ar  1 <1>  -0.1500 
 27 C      -12.9650    -4.1210    -0.1220 C.3   1 <1>   0.0000 
 28 C       -8.3630     1.2070    -1.7690 C.ar  1 <1>   0.1600 
 29 C      -12.9410    -4.7920     1.2660 C.3   1 <1>  -0.2400 
 30 C      -14.2660    -4.5320    -0.8290 C.3   1 <1>  -0.2400 
 31 H       -1.8490    -1.8400     2.5940 H     1 <1>   0.1500 
 32 H       -1.9060    -0.0940    -1.2950 H     1 <1>   0.1500 
 33 H       -4.1470    -2.6770     2.2580 H     1 <1>   0.1500 
 34 H       -4.2130    -0.9210    -1.6340 H     1 <1>   0.1500 
 35 H       -5.9150    -2.3480    -0.9340 H     1 <1>   0.3700 
 36 H       -9.1380    -1.9440     1.6720 H     1 <1>   0.0800 
 37 H       -9.3570    -5.5230    -1.3210 H     1 <1>   0.4000 
 38 H       -7.2260    -6.2290    -0.2880 H     1 <1>   0.0800 
 39 H       -6.0250    -4.9880    -0.1270 H     1 <1>   0.0800 
 40 H       -6.7610    -5.2830    -1.6830 H     1 <1>   0.0800 
 41 H       -8.9040    -1.9380    -2.0530 H     1 <1>   0.1500 
 42 H       -8.7390     0.4270     1.4900 H     1 <1>   0.1500 
 43 H      -11.6790    -5.6650    -0.8980 H     1 <1>   0.0800 
 44 H      -11.8910    -4.3300    -1.9880 H     1 <1>   0.0800 
 45 H      -13.0970    -2.1130    -0.9120 H     1 <1>   0.0800 
 46 H      -13.7160    -2.2680     0.7020 H     1 <1>   0.0800 
 47 H       -8.2990     2.3750     0.0200 H     1 <1>   0.1500 
 48 H       -8.1690     2.0600    -2.3960 H     1 <1>   0.1500 
 49 H      -12.0370    -4.5580     1.8000 H     1 <1>   0.0800 
 50 H      -13.0020    -5.8610     1.1700 H     1 <1>   0.0800 
 51 H      -13.7750    -4.4610     1.8600 H     1 <1>   0.0800 
 52 H      -14.3310    -4.0790    -1.8030 H     1 <1>   0.0800 
 53 H      -15.1220    -4.2200    -0.2570 H     1 <1>   0.0800 
 54 H      -14.3120    -5.6000    -0.9500 H     1 <1>   0.0800 
@<TRIPOS>BOND
  1   1   2  1   
  2   2   3  ar  
  3   2   4  ar  
  4   3   5  ar  
  5   3  31  1   
  6   4   6  ar  
  7   4  32  1   
  8   5   7  ar  
  9   5  33  1   
 10   6   7  ar  
 11   6  34  1   
 12   7   8  1   
 13   8   9  am  
 14   8  35  1   
 15   9  10  2   
 16   9  11  1   
 17  11  12  2   
 18  11  13  1   
 19  12  14  1   
 20  12  15  1   
 21  13  16  1   
 22  13  17  1   
 23  13  36  1   
 24  14  18  1   
 25  14  37  1   
 26  15  38  1   
 27  15  39  1   
 28  15  40  1   
 29  16  18  2   
 30  16  19  1   
 31  17  20  ar  
 32  17  21  ar  
 33  18  22  1   
 34  19  23  2   
 35  19  24  1   
 36  20  25  ar  
 37  20  41  1   
 38  21  26  ar  
 39  21  42  1   
 40  22  27  1   
 41  22  43  1   
 42  22  44  1   
 43  24  27  1   
 44  24  45  1   
 45  24  46  1   
 46  25  28  ar  
 47  26  28  ar  
 48  26  47  1   
 49  27  29  1   
 50  27  30  1   
 51  28  48  1   
 52  29  49  1   
 53  29  50  1   
 54  29  51  1   
 55  30  52  1   
 56  30  53  1   
 57  30  54  1   
@<TRIPOS>SUBSTRUCTURE
  1 ****  11 GROUP 4 **** **** 0

# MOE 2024.06 (io_trps.svl 2023.06)
