@<TRIPOS>MOLECULE
N-Isobutyl-3-[3-(4-methoxy-phenyl)-[1,2,4]oxadiazol-5-yl]-propionamide
43 44 1 0 0 
SMALL
USER_CHARGES


@<TRIPOS>ATOM
  1 O        0.2780    -0.2700     1.4430 O.2   1 <1>  -0.5700 
  2 C        0.7800    -1.3490     1.2580 C.2   1 <1>   0.5690 
  3 N        2.0960    -1.4280     0.9620 N.am  1 <1>  -0.7300 
  4 C       -0.0660    -2.6050     1.3610 C.3   1 <1>  -0.0990 
  5 C        2.9330    -2.6240     0.7080 C.3   1 <1>   0.1400 
  6 C       -1.5740    -2.3130     1.3880 C.3   1 <1>   0.0200 
  7 C        3.1660    -2.8110    -0.8000 C.3   1 <1>  -0.0800 
  8 C       -2.3720    -3.5990     1.4510 C.2   1 <1>   0.2980 
  9 C        3.9530    -4.1030    -1.0540 C.3   1 <1>  -0.2400 
 10 C        3.9140    -1.6220    -1.4230 C.3   1 <1>  -0.2400 
 11 O       -2.3800    -4.2800     2.5670 O.3   1 <1>  -0.0190 
 12 N       -3.0420    -4.1020     0.5000 N.2   1 <1>  -0.5650 
 13 N       -3.1220    -5.3090     2.3020 N.2   1 <1>  -0.4100 
 14 C       -3.5190    -5.2070     1.0820 C.2   1 <1>   0.4620 
 15 C       -4.3740    -6.1550     0.3860 C.ar  1 <1>   0.0540 
 16 C       -4.7580    -5.9630    -0.9430 C.ar  1 <1>  -0.1500 
 17 C       -4.8500    -7.3050     1.0230 C.ar  1 <1>  -0.1500 
 18 C       -5.5700    -6.8680    -1.6000 C.ar  1 <1>  -0.1500 
 19 C       -5.6630    -8.2160     0.3730 C.ar  1 <1>  -0.1500 
 20 C       -6.0300    -8.0010    -0.9510 C.ar  1 <1>   0.0820 
 21 O       -6.8210    -8.8400    -1.6630 O.3   1 <1>  -0.3630 
 22 C       -7.3410   -10.0200    -1.0950 C.3   1 <1>   0.0400 
 23 H        2.5750    -0.5300     0.8700 H     1 <1>   0.3700 
 24 H        0.2140    -3.1290     2.2550 H     1 <1>   0.0800 
 25 H        0.1460    -3.2340     0.5160 H     1 <1>   0.0800 
 26 H        2.4550    -3.5000     1.1130 H     1 <1>   0.0800 
 27 H        3.8780    -2.5040     1.2110 H     1 <1>   0.0800 
 28 H       -1.8510    -1.7720     0.5000 H     1 <1>   0.0800 
 29 H       -1.8200    -1.7040     2.2390 H     1 <1>   0.0800 
 30 H        2.2070    -2.9080    -1.2820 H     1 <1>   0.0800 
 31 H        4.9240    -4.0550    -0.5920 H     1 <1>   0.0800 
 32 H        4.0850    -4.2580    -2.1110 H     1 <1>   0.0800 
 33 H        3.4240    -4.9510    -0.6550 H     1 <1>   0.0800 
 34 H        4.8640    -1.4750    -0.9400 H     1 <1>   0.0800 
 35 H        3.3370    -0.7200    -1.3320 H     1 <1>   0.0800 
 36 H        4.0860    -1.7980    -2.4700 H     1 <1>   0.0800 
 37 H       -4.4150    -5.0900    -1.4710 H     1 <1>   0.1500 
 38 H       -4.5770    -7.4880     2.0480 H     1 <1>   0.1500 
 39 H       -5.8540    -6.7030    -2.6240 H     1 <1>   0.1500 
 40 H       -5.9990    -9.0820     0.9100 H     1 <1>   0.1500 
 41 H       -7.9330   -10.5180    -1.8420 H     1 <1>   0.0800 
 42 H       -7.9580    -9.7600    -0.2530 H     1 <1>   0.0800 
 43 H       -6.5240   -10.6520    -0.7950 H     1 <1>   0.0800 
@<TRIPOS>BOND
  1   1   2  2   
  2   2   3  am  
  3   2   4  1   
  4   3   5  1   
  5   3  23  1   
  6   4   6  1   
  7   4  24  1   
  8   4  25  1   
  9   5   7  1   
 10   5  26  1   
 11   5  27  1   
 12   6   8  1   
 13   6  28  1   
 14   6  29  1   
 15   7   9  1   
 16   7  10  1   
 17   7  30  1   
 18   8  11  1   
 19   8  12  2   
 20   9  31  1   
 21   9  32  1   
 22   9  33  1   
 23  10  34  1   
 24  10  35  1   
 25  10  36  1   
 26  11  13  1   
 27  12  14  1   
 28  13  14  2   
 29  14  15  1   
 30  15  16  ar  
 31  15  17  ar  
 32  16  18  ar  
 33  16  37  1   
 34  17  19  ar  
 35  17  38  1   
 36  18  20  ar  
 37  18  39  1   
 38  19  20  ar  
 39  19  40  1   
 40  20  21  1   
 41  21  22  1   
 42  22  41  1   
 43  22  42  1   
 44  22  43  1   
@<TRIPOS>SUBSTRUCTURE
  1 ****  12 GROUP 4 **** **** 0

# MOE 2024.06 (io_trps.svl 2023.06)
