@<TRIPOS>MOLECULE
4-[3-(3-Bromo-5-ethoxy-4-methoxy-phenyl)-[1,2,4]oxadiazol-5-yl]-N-methyl-butyram
44 45 1 0 0 
SMALL
USER_CHARGES


@<TRIPOS>ATOM
  1 BR       0.2970    -0.3070     1.2210 Br    1 <1>  -0.1110 
  2 C        0.2070     1.5670     0.7670 C.ar  1 <1>   0.1110 
  3 C       -0.9980     2.1140     0.3550 C.ar  1 <1>   0.0830 
  4 C        1.3670     2.3090     0.8610 C.ar  1 <1>  -0.1500 
  5 O       -2.0990     1.3240     0.2650 O.3   1 <1>  -0.3630 
  6 C       -1.0180     3.4780     0.0520 C.ar  1 <1>   0.0830 
  7 C        1.3640     3.6680     0.5360 C.ar  1 <1>   0.0540 
  8 C       -2.6090     1.0990    -1.0310 C.3   1 <1>   0.0400 
  9 O       -2.1490     4.1180    -0.3290 O.3   1 <1>  -0.3630 
 10 C        0.1460     4.2250     0.1310 C.ar  1 <1>  -0.1500 
 11 C        2.5780     4.4610     0.6220 C.2   1 <1>   0.4620 
 12 C       -3.1390     4.2780     0.6610 C.3   1 <1>   0.1200 
 13 N        3.7440     4.0150     0.9310 N.2   1 <1>  -0.4100 
 14 N        2.6020     5.7750     0.3810 N.2   1 <1>  -0.5650 
 15 C       -4.3100     5.0340     0.0410 C.3   1 <1>  -0.2400 
 16 O        4.5710     5.0120     0.9050 O.3   1 <1>  -0.0190 
 17 C        3.8300     6.0360     0.5700 C.2   1 <1>   0.2980 
 18 C        4.5110     7.3910     0.4480 C.3   1 <1>   0.0200 
 19 C        3.5520     8.5420     0.0960 C.3   1 <1>  -0.1600 
 20 C        4.2920     9.8900    -0.0150 C.3   1 <1>  -0.0990 
 21 C        3.3960    11.0740    -0.3590 C.2   1 <1>   0.5690 
 22 O        2.2080    10.9210    -0.4880 O.2   1 <1>  -0.5700 
 23 N        3.9230    12.3100    -0.5230 N.am  1 <1>  -0.7300 
 24 C        5.3320    12.7670    -0.4130 C.3   1 <1>   0.0600 
 25 H        2.2740     1.8300     1.1840 H     1 <1>   0.1500 
 26 H       -3.4090     0.3860    -0.9570 H     1 <1>   0.0800 
 27 H       -1.8220     0.7080    -1.6510 H     1 <1>   0.0800 
 28 H       -2.9800     2.0240    -1.4340 H     1 <1>   0.0800 
 29 H        0.1000     5.2680    -0.1260 H     1 <1>   0.1500 
 30 H       -2.7120     4.8320     1.4790 H     1 <1>   0.0800 
 31 H       -3.4520     3.3080     1.0050 H     1 <1>   0.0800 
 32 H       -3.9840     5.9980    -0.3060 H     1 <1>   0.0800 
 33 H       -5.0810     5.1750     0.7770 H     1 <1>   0.0800 
 34 H       -4.7170     4.4730    -0.7810 H     1 <1>   0.0800 
 35 H        5.2710     7.3150    -0.3090 H     1 <1>   0.0800 
 36 H        4.9940     7.6060     1.3840 H     1 <1>   0.0800 
 37 H        2.7890     8.6150     0.8520 H     1 <1>   0.0800 
 38 H        3.0630     8.3260    -0.8400 H     1 <1>   0.0800 
 39 H        5.0460     9.8150    -0.7770 H     1 <1>   0.0800 
 40 H        4.7750    10.1050     0.9200 H     1 <1>   0.0800 
 41 H        3.2350    13.0320    -0.7540 H     1 <1>   0.3700 
 42 H        5.9830    11.9550    -0.1440 H     1 <1>   0.0800 
 43 H        5.4040    13.5330     0.3400 H     1 <1>   0.0800 
 44 H        5.6530    13.1730    -1.3560 H     1 <1>   0.0800 
@<TRIPOS>BOND
  1   1   2  1   
  2   2   3  ar  
  3   2   4  ar  
  4   3   5  1   
  5   3   6  ar  
  6   4   7  ar  
  7   4  25  1   
  8   5   8  1   
  9   6   9  1   
 10   6  10  ar  
 11   7  10  ar  
 12   7  11  1   
 13   8  26  1   
 14   8  27  1   
 15   8  28  1   
 16   9  12  1   
 17  10  29  1   
 18  11  13  2   
 19  11  14  1   
 20  12  15  1   
 21  12  30  1   
 22  12  31  1   
 23  13  16  1   
 24  14  17  2   
 25  15  32  1   
 26  15  33  1   
 27  15  34  1   
 28  16  17  1   
 29  17  18  1   
 30  18  19  1   
 31  18  35  1   
 32  18  36  1   
 33  19  20  1   
 34  19  37  1   
 35  19  38  1   
 36  20  21  1   
 37  20  39  1   
 38  20  40  1   
 39  21  22  2   
 40  21  23  am  
 41  23  24  1   
 42  23  41  1   
 43  24  42  1   
 44  24  43  1   
 45  24  44  1   
@<TRIPOS>SUBSTRUCTURE
  1 ****  14 GROUP 4 **** **** 0

# MOE 2024.06 (io_trps.svl 2023.06)
