@<TRIPOS>MOLECULE
2-(3-Methoxy-benzylamino)-5-propyl-4H-[1,2,4]triazolo[1,5-a]pyrimidin-7-one
42 44 1 0 0 
SMALL
USER_CHARGES


@<TRIPOS>ATOM
  1 O       -0.5880    -1.8030     3.3070 O.2   1 <1>  -0.5700 
  2 C       -0.8090    -2.3430     2.2310 C.2   1 <1>   0.5650 
  3 N       -2.0940    -2.7910     1.8520 N.pl3 1 <1>   0.5610 
  4 C        0.2450    -2.5420     1.2890 C.2   1 <1>  -0.1360 
  5 N       -3.3020    -2.7670     2.4700 N.2   1 <1>  -0.7070 
  6 C       -2.2860    -3.3580     0.6350 C.2   1 <1>   0.2700 
  7 C        0.0380    -3.1210     0.0740 C.2   1 <1>  -0.0380 
  8 C       -4.0590    -3.3210     1.5930 C.2   1 <1>   0.5990 
  9 N       -3.5050    -3.6930     0.4360 N.2   1 <1>  -0.5650 
 10 N       -1.2360    -3.5260    -0.2540 N.pl3 1 <1>  -0.5840 
 11 C        1.1020    -3.3740    -0.9910 C.3   1 <1>  -0.0220 
 12 N       -5.3910    -3.5460     1.7750 N.pl3 1 <1>  -0.8520 
 13 C        2.5150    -2.9120    -0.6050 C.3   1 <1>  -0.1600 
 14 C       -6.1730    -2.4160     2.3070 C.3   1 <1>   0.3530 
 15 C        3.5210    -3.2010    -1.7230 C.3   1 <1>  -0.2400 
 16 C       -7.1690    -1.9970     1.2400 C.ar  1 <1>  -0.1430 
 17 C       -6.7210    -1.3790     0.0820 C.ar  1 <1>  -0.1500 
 18 C       -8.5260    -2.2300     1.4090 C.ar  1 <1>  -0.1500 
 19 C       -7.6230    -0.9920    -0.9050 C.ar  1 <1>   0.0820 
 20 C       -9.4270    -1.8440     0.4320 C.ar  1 <1>  -0.1500 
 21 O       -7.2590    -0.3900    -2.0650 O.3   1 <1>  -0.3620 
 22 C       -8.9750    -1.2270    -0.7200 C.ar  1 <1>  -0.1500 
 23 C       -5.9020    -0.1680    -2.3790 C.3   1 <1>   0.0400 
 24 H        1.2100    -2.2000     1.6140 H     1 <1>   0.1500 
 25 H       -1.4610    -3.9830    -1.1460 H     1 <1>   0.4000 
 26 H        0.8070    -2.8680    -1.8940 H     1 <1>   0.0800 
 27 H        1.1280    -4.4300    -1.2010 H     1 <1>   0.0800 
 28 H       -5.7840    -3.8220     0.8750 H     1 <1>   0.4000 
 29 H        2.8300    -3.4240     0.2890 H     1 <1>   0.0800 
 30 H        2.5080    -1.8540    -0.4070 H     1 <1>   0.0800 
 31 H       -5.5400    -1.5820     2.5600 H     1 <1>   0.0800 
 32 H       -6.6820    -2.7330     3.2010 H     1 <1>   0.0800 
 33 H        3.5670    -4.2560    -1.9290 H     1 <1>   0.0800 
 34 H        4.5020    -2.8690    -1.4290 H     1 <1>   0.0800 
 35 H        3.2450    -2.6830    -2.6250 H     1 <1>   0.0800 
 36 H       -5.6670    -1.2090    -0.0360 H     1 <1>   0.1500 
 37 H       -8.8880    -2.7140     2.3000 H     1 <1>   0.1500 
 38 H      -10.4800    -2.0250     0.5660 H     1 <1>   0.1500 
 39 H       -9.6670    -0.9250    -1.4850 H     1 <1>   0.1500 
 40 H       -5.8550     0.2900    -3.3510 H     1 <1>   0.0800 
 41 H       -5.3880    -1.1130    -2.3940 H     1 <1>   0.0800 
 42 H       -5.4780     0.4920    -1.6440 H     1 <1>   0.0800 
@<TRIPOS>BOND
  1   1   2  2   
  2   2   3  1   
  3   2   4  1   
  4   3   5  1   
  5   3   6  1   
  6   4   7  2   
  7   4  24  1   
  8   5   8  2   
  9   6   9  2   
 10   6  10  1   
 11   7  10  1   
 12   7  11  1   
 13   8   9  1   
 14   8  12  1   
 15  10  25  1   
 16  11  13  1   
 17  11  26  1   
 18  11  27  1   
 19  12  14  1   
 20  12  28  1   
 21  13  15  1   
 22  13  29  1   
 23  13  30  1   
 24  14  16  1   
 25  14  31  1   
 26  14  32  1   
 27  15  33  1   
 28  15  34  1   
 29  15  35  1   
 30  16  17  ar  
 31  16  18  ar  
 32  17  19  ar  
 33  17  36  1   
 34  18  20  ar  
 35  18  37  1   
 36  19  21  1   
 37  19  22  ar  
 38  20  22  ar  
 39  20  38  1   
 40  21  23  1   
 41  22  39  1   
 42  23  40  1   
 43  23  41  1   
 44  23  42  1   
@<TRIPOS>SUBSTRUCTURE
  1 ****   9 GROUP 4 **** **** 0

# MOE 2024.06 (io_trps.svl 2023.06)
