@<TRIPOS>MOLECULE
N-tert-Butyl-2-[3-(3,4,5-trimethoxy-phenyl)-[1,2,4]oxadiazol-5-yl]-benzamide
55 57 1 0 0 
SMALL
USER_CHARGES


@<TRIPOS>ATOM
  1 O        1.4520    -0.7880    -1.5410 O.2   1 <1>  -0.5700 
  2 C        1.1390    -1.4380    -0.5630 C.2   1 <1>   0.5440 
  3 N       -0.1390    -1.9120    -0.4400 N.am  1 <1>  -0.7300 
  4 C        2.1240    -1.6880     0.4710 C.ar  1 <1>   0.0860 
  5 C       -1.2280    -1.9290    -1.4200 C.3   1 <1>   0.3000 
  6 C        2.3200    -2.9590     1.0400 C.ar  1 <1>   0.0530 
  7 C        2.9220    -0.6350     0.9190 C.ar  1 <1>  -0.1500 
  8 C       -2.4040    -2.6330    -0.7460 C.3   1 <1>  -0.2400 
  9 C       -1.6300    -0.4990    -1.7840 C.3   1 <1>  -0.2400 
 10 C       -0.7940    -2.7260    -2.6500 C.3   1 <1>  -0.2400 
 11 C        1.5590    -4.1000     0.6110 C.2   1 <1>   0.4250 
 12 C        3.2810    -3.1180     2.0380 C.ar  1 <1>  -0.1500 
 13 C        3.8730    -0.8090     1.9060 C.ar  1 <1>  -0.1500 
 14 O        2.0030    -4.8920    -0.3200 O.3   1 <1>  -0.0190 
 15 N        0.4070    -4.4840     1.0250 N.2   1 <1>  -0.5650 
 16 C        4.0510    -2.0570     2.4710 C.ar  1 <1>  -0.1500 
 17 N        1.1500    -5.8160    -0.5560 N.2   1 <1>  -0.4100 
 18 C        0.1780    -5.5680     0.2560 C.2   1 <1>   0.4620 
 19 C       -1.0540    -6.3330     0.3440 C.ar  1 <1>   0.0540 
 20 C       -1.3380    -7.3560    -0.5610 C.ar  1 <1>  -0.1500 
 21 C       -2.0110    -6.0710     1.3240 C.ar  1 <1>  -0.1500 
 22 C       -2.5080    -8.0920    -0.5040 C.ar  1 <1>   0.0830 
 23 C       -3.1900    -6.7890     1.4010 C.ar  1 <1>   0.0830 
 24 O       -2.6470    -9.0510    -1.4600 O.3   1 <1>  -0.3630 
 25 C       -3.4430    -7.8290     0.5040 C.ar  1 <1>   0.0830 
 26 O       -4.0570    -6.4440     2.3860 O.3   1 <1>  -0.3630 
 27 C       -3.9040    -9.2700    -2.0620 C.3   1 <1>   0.0400 
 28 O       -4.5650    -8.5860     0.6340 O.3   1 <1>  -0.3630 
 29 C       -5.3040    -5.9220     1.9820 C.3   1 <1>   0.0400 
 30 C       -4.5260    -9.5460     1.6640 C.3   1 <1>   0.0400 
 31 H       -0.3370    -2.5210     0.3590 H     1 <1>   0.3700 
 32 H        2.7890     0.3390     0.4760 H     1 <1>   0.1500 
 33 H       -2.7030    -2.1030     0.1410 H     1 <1>   0.0800 
 34 H       -2.1440    -3.6420    -0.4850 H     1 <1>   0.0800 
 35 H       -3.2450    -2.6690    -1.4150 H     1 <1>   0.0800 
 36 H       -0.8330     0.0000    -2.3030 H     1 <1>   0.0800 
 37 H       -1.8740     0.0590    -0.8990 H     1 <1>   0.0800 
 38 H       -2.4880    -0.5090    -2.4310 H     1 <1>   0.0800 
 39 H        0.0160    -2.2310    -3.1540 H     1 <1>   0.0800 
 40 H       -1.6110    -2.8120    -3.3430 H     1 <1>   0.0800 
 41 H       -0.4790    -3.7140    -2.3680 H     1 <1>   0.0800 
 42 H        3.4250    -4.0900     2.4790 H     1 <1>   0.1500 
 43 H        4.4730     0.0240     2.2330 H     1 <1>   0.1500 
 44 H        4.7890    -2.1990     3.2420 H     1 <1>   0.1500 
 45 H       -0.6310    -7.5900    -1.3380 H     1 <1>   0.1500 
 46 H       -1.8420    -5.2920     2.0460 H     1 <1>   0.1500 
 47 H       -3.7410    -9.7290    -3.0200 H     1 <1>   0.0800 
 48 H       -4.4070    -8.3270    -2.1860 H     1 <1>   0.0800 
 49 H       -4.4800    -9.9290    -1.4390 H     1 <1>   0.0800 
 50 H       -5.8130    -5.5540     2.8550 H     1 <1>   0.0800 
 51 H       -5.8870    -6.7010     1.5240 H     1 <1>   0.0800 
 52 H       -5.1380    -5.1190     1.2860 H     1 <1>   0.0800 
 53 H       -4.4100    -9.0450     2.6090 H     1 <1>   0.0800 
 54 H       -3.6980   -10.2100     1.4870 H     1 <1>   0.0800 
 55 H       -5.4500   -10.0950     1.6500 H     1 <1>   0.0800 
@<TRIPOS>BOND
  1   1   2  2   
  2   2   3  am  
  3   2   4  1   
  4   3   5  1   
  5   3  31  1   
  6   4   6  ar  
  7   4   7  ar  
  8   5   8  1   
  9   5   9  1   
 10   5  10  1   
 11   6  11  1   
 12   6  12  ar  
 13   7  13  ar  
 14   7  32  1   
 15   8  33  1   
 16   8  34  1   
 17   8  35  1   
 18   9  36  1   
 19   9  37  1   
 20   9  38  1   
 21  10  39  1   
 22  10  40  1   
 23  10  41  1   
 24  11  14  1   
 25  11  15  2   
 26  12  16  ar  
 27  12  42  1   
 28  13  16  ar  
 29  13  43  1   
 30  14  17  1   
 31  15  18  1   
 32  16  44  1   
 33  17  18  2   
 34  18  19  1   
 35  19  20  ar  
 36  19  21  ar  
 37  20  22  ar  
 38  20  45  1   
 39  21  23  ar  
 40  21  46  1   
 41  22  24  1   
 42  22  25  ar  
 43  23  25  ar  
 44  23  26  1   
 45  24  27  1   
 46  25  28  1   
 47  26  29  1   
 48  27  47  1   
 49  27  48  1   
 50  27  49  1   
 51  28  30  1   
 52  29  50  1   
 53  29  51  1   
 54  29  52  1   
 55  30  53  1   
 56  30  54  1   
 57  30  55  1   
@<TRIPOS>SUBSTRUCTURE
  1 ****  18 GROUP 4 **** **** 0

# MOE 2024.06 (io_trps.svl 2023.06)
