@<TRIPOS>MOLECULE
2-(5-Hydroxy-5H-indeno[1,2-b]pyridin-5-yl)-propionic acid ethyl ester
38 40 1 0 0 
SMALL
USER_CHARGES


@<TRIPOS>ATOM
  1 O       -1.7460     0.0920    -1.2110 O.2   1 <1>  -0.5700 
  2 C       -1.6980     0.7600    -0.2100 C.2   1 <1>   0.6590 
  3 O       -2.5520     0.5770     0.7890 O.3   1 <1>  -0.4300 
  4 C       -0.6620     1.8460     0.0140 C.3   1 <1>  -0.0190 
  5 C       -3.5780    -0.3840     0.7200 C.3   1 <1>   0.1200 
  6 C       -1.0540     3.1330    -0.7530 C.3   1 <1>   0.5670 
  7 C        0.7660     1.3090    -0.2570 C.3   1 <1>  -0.2400 
  8 C       -4.4460    -0.2350     1.9640 C.3   1 <1>  -0.2400 
  9 O       -0.8150     3.0190    -2.1040 O.3   1 <1>  -0.6800 
 10 C       -0.3040     4.3610    -0.2400 C.ar  1 <1>  -0.1440 
 11 C       -2.5060     3.5750    -0.5560 C.ar  1 <1>  -0.1440 
 12 C       -1.2000     5.2520     0.3260 C.ar  1 <1>   0.3100 
 13 C        1.0390     4.6730    -0.2800 C.ar  1 <1>  -0.1500 
 14 C       -2.5370     4.7770     0.1290 C.ar  1 <1>   0.0000 
 15 C       -3.6840     2.9720    -0.9670 C.ar  1 <1>  -0.1500 
 16 N       -0.8650     6.3980     0.9090 N.ar  1 <1>  -0.6200 
 17 C        1.4020     5.8670     0.3120 C.ar  1 <1>  -0.1500 
 18 C       -3.7530     5.3560     0.4660 C.ar  1 <1>  -0.1500 
 19 C       -4.8980     3.5550    -0.6380 C.ar  1 <1>  -0.1500 
 20 C        0.4290     6.6720     0.8880 C.ar  1 <1>   0.1600 
 21 C       -4.9320     4.7390     0.0840 C.ar  1 <1>  -0.1500 
 22 H       -0.7090     2.0890     1.0600 H     1 <1>   0.0800 
 23 H       -3.1260    -1.3610     0.6720 H     1 <1>   0.0800 
 24 H       -4.1530    -0.2070    -0.1740 H     1 <1>   0.0800 
 25 H        0.9150     1.1500    -1.3110 H     1 <1>   0.0800 
 26 H        0.9040     0.3680     0.2460 H     1 <1>   0.0800 
 27 H        1.5130     1.9880     0.1070 H     1 <1>   0.0800 
 28 H       -3.8580    -0.4040     2.8490 H     1 <1>   0.0800 
 29 H       -5.2440    -0.9540     1.9390 H     1 <1>   0.0800 
 30 H       -4.8740     0.7510     1.9990 H     1 <1>   0.0800 
 31 H       -1.1930     3.8050    -2.5380 H     1 <1>   0.4000 
 32 H        1.7650     4.0320    -0.7480 H     1 <1>   0.1500 
 33 H       -3.6650     2.0580    -1.5380 H     1 <1>   0.1500 
 34 H        2.4320     6.1750     0.3270 H     1 <1>   0.1500 
 35 H       -3.7630     6.2840     1.0100 H     1 <1>   0.1500 
 36 H       -5.8170     3.0870    -0.9440 H     1 <1>   0.1500 
 37 H        0.7360     7.5940     1.3510 H     1 <1>   0.1500 
 38 H       -5.8780     5.1830     0.3420 H     1 <1>   0.1500 
@<TRIPOS>BOND
  1   1   2  2   
  2   2   3  1   
  3   2   4  1   
  4   3   5  1   
  5   4   6  1   
  6   4   7  1   
  7   4  22  1   
  8   5   8  1   
  9   5  23  1   
 10   5  24  1   
 11   6   9  1   
 12   6  10  1   
 13   6  11  1   
 14   7  25  1   
 15   7  26  1   
 16   7  27  1   
 17   8  28  1   
 18   8  29  1   
 19   8  30  1   
 20   9  31  1   
 21  10  12  ar  
 22  10  13  ar  
 23  11  14  ar  
 24  11  15  ar  
 25  12  14  1   
 26  12  16  ar  
 27  13  17  ar  
 28  13  32  1   
 29  14  18  ar  
 30  15  19  ar  
 31  15  33  1   
 32  16  20  ar  
 33  17  20  ar  
 34  17  34  1   
 35  18  21  ar  
 36  18  35  1   
 37  19  21  ar  
 38  19  36  1   
 39  20  37  1   
 40  21  38  1   
@<TRIPOS>SUBSTRUCTURE
  1 ****  11 GROUP 4 **** **** 0

# MOE 2024.06 (io_trps.svl 2023.06)
