@<TRIPOS>MOLECULE
[4-(Azepane-1-sulfonyl)-piperazin-1-yl]-p-tolyl-methanone
52 54 1 0 0 
SMALL
USER_CHARGES


@<TRIPOS>ATOM
  1 S       -0.2910     0.3550    -1.4520 S.o2  1 <1>   1.5760 
  2 O       -0.5980    -0.6550    -2.4400 O.2   1 <1>  -0.6500 
  3 O        0.2200     1.6460    -1.8540 O.2   1 <1>  -0.6500 
  4 N        0.7450    -0.2900    -0.2830 N.am  1 <1>  -0.8490 
  5 N       -1.6790     0.5910    -0.5250 N.am  1 <1>  -0.8490 
  6 C        1.9150    -0.9140    -0.9090 C.3   1 <1>   0.1960 
  7 C        1.1040     0.7310     0.7070 C.3   1 <1>   0.1960 
  8 C       -2.2730    -0.6920    -0.1090 C.3   1 <1>   0.1960 
  9 C       -2.6650     1.3980    -1.2630 C.3   1 <1>   0.1960 
 10 C        2.4790    -2.0130    -0.0030 C.3   1 <1>  -0.1600 
 11 C        1.8450     0.1650     1.9240 C.3   1 <1>  -0.1600 
 12 C       -3.5190    -0.4830     0.7660 C.3   1 <1>   0.1400 
 13 C       -3.9320     1.6620    -0.4330 C.3   1 <1>   0.1400 
 14 C        3.5380    -1.5520     1.0110 C.3   1 <1>  -0.1600 
 15 C        3.3160    -0.1680     1.6340 C.3   1 <1>  -0.1600 
 16 N       -4.5160     0.3790     0.0620 N.am  1 <1>  -0.6600 
 17 C       -5.8410     0.0530    -0.1280 C.2   1 <1>   0.5440 
 18 O       -6.6080     0.9140    -0.5140 O.2   1 <1>  -0.5700 
 19 C       -6.3380    -1.2850     0.1230 C.ar  1 <1>   0.0860 
 20 C       -7.3030    -1.5220     1.0990 C.ar  1 <1>  -0.1500 
 21 C       -5.8670    -2.3810    -0.5990 C.ar  1 <1>  -0.1500 
 22 C       -7.7630    -2.8000     1.3580 C.ar  1 <1>  -0.1500 
 23 C       -6.3240    -3.6600    -0.3440 C.ar  1 <1>  -0.1500 
 24 C       -7.2750    -3.8780     0.6390 C.ar  1 <1>  -0.1440 
 25 C       -7.7800    -5.2810     0.9240 C.3   1 <1>  -0.0970 
 26 H        2.6630    -0.1790    -1.1580 H     1 <1>   0.0800 
 27 H        1.6160    -1.3940    -1.8270 H     1 <1>   0.0800 
 28 H        0.2020     1.1940     1.0700 H     1 <1>   0.0800 
 29 H        1.6940     1.5060     0.2430 H     1 <1>   0.0800 
 30 H       -1.5490    -1.2590     0.4520 H     1 <1>   0.0800 
 31 H       -2.5470    -1.2730    -0.9740 H     1 <1>   0.0800 
 32 H       -2.9410     0.8960    -2.1760 H     1 <1>   0.0800 
 33 H       -2.2260     2.3460    -1.5280 H     1 <1>   0.0800 
 34 H        2.9300    -2.7640    -0.6270 H     1 <1>   0.0800 
 35 H        1.6620    -2.4880     0.5110 H     1 <1>   0.0800 
 36 H        1.3200    -0.6860     2.3200 H     1 <1>   0.0800 
 37 H        1.8300     0.9280     2.6830 H     1 <1>   0.0800 
 38 H       -3.2230     0.0010     1.6810 H     1 <1>   0.0800 
 39 H       -3.9410    -1.4360     1.0230 H     1 <1>   0.0800 
 40 H       -4.6450     2.1930    -1.0390 H     1 <1>   0.0800 
 41 H       -3.6850     2.2850     0.4090 H     1 <1>   0.0800 
 42 H        4.5030    -1.5510     0.5330 H     1 <1>   0.0800 
 43 H        3.5800    -2.2850     1.7990 H     1 <1>   0.0800 
 44 H        3.8710    -0.1260     2.5560 H     1 <1>   0.0800 
 45 H        3.7300     0.5880     0.9880 H     1 <1>   0.0800 
 46 H       -7.6910    -0.6870     1.6550 H     1 <1>   0.1500 
 47 H       -5.1350    -2.2190    -1.3710 H     1 <1>   0.1500 
 48 H       -8.5070    -2.9520     2.1220 H     1 <1>   0.1500 
 49 H       -5.9390    -4.4880    -0.9150 H     1 <1>   0.1500 
 50 H       -8.8070    -5.2530     1.2400 H     1 <1>   0.0800 
 51 H       -7.1890    -5.7290     1.7020 H     1 <1>   0.0800 
 52 H       -7.7150    -5.8920     0.0420 H     1 <1>   0.0800 
@<TRIPOS>BOND
  1   1   2  2   
  2   1   3  2   
  3   1   4  am  
  4   1   5  am  
  5   4   6  1   
  6   4   7  1   
  7   5   8  1   
  8   5   9  1   
  9   6  10  1   
 10   6  26  1   
 11   6  27  1   
 12   7  11  1   
 13   7  28  1   
 14   7  29  1   
 15   8  12  1   
 16   8  30  1   
 17   8  31  1   
 18   9  13  1   
 19   9  32  1   
 20   9  33  1   
 21  10  14  1   
 22  10  34  1   
 23  10  35  1   
 24  11  15  1   
 25  11  36  1   
 26  11  37  1   
 27  12  16  1   
 28  12  38  1   
 29  12  39  1   
 30  13  16  1   
 31  13  40  1   
 32  13  41  1   
 33  14  15  1   
 34  14  42  1   
 35  14  43  1   
 36  15  44  1   
 37  15  45  1   
 38  16  17  am  
 39  17  18  2   
 40  17  19  1   
 41  19  20  ar  
 42  19  21  ar  
 43  20  22  ar  
 44  20  46  1   
 45  21  23  ar  
 46  21  47  1   
 47  22  24  ar  
 48  22  48  1   
 49  23  24  ar  
 50  23  49  1   
 51  24  25  1   
 52  25  50  1   
 53  25  51  1   
 54  25  52  1   
@<TRIPOS>SUBSTRUCTURE
  1 ****   8 GROUP 4 **** **** 0

# MOE 2024.06 (io_trps.svl 2023.06)
