@<TRIPOS>MOLECULE
Cyclohexanecarboxylic acid [3-(2-methoxy-phenyl)-[1,2,4]oxadiazol-5-ylmethyl]-am
44 46 1 0 0 
SMALL
USER_CHARGES


@<TRIPOS>ATOM
  1 O       -1.0160    -0.1860     0.8410 O.2   1 <1>  -0.5700 
  2 C       -2.1350    -0.5240     1.1370 C.2   1 <1>   0.5690 
  3 N       -2.2860    -1.4380     2.1270 N.am  1 <1>  -0.7300 
  4 C       -3.3290     0.0750     0.3840 C.3   1 <1>  -0.0190 
  5 C       -3.5310    -2.0610     2.6570 C.3   1 <1>   0.3200 
  6 C       -3.4740    -0.5630    -1.0120 C.3   1 <1>  -0.1600 
  7 C       -3.2320     1.6080     0.2550 C.3   1 <1>  -0.1600 
  8 C       -4.2970    -2.8380     1.5960 C.2   1 <1>   0.2980 
  9 C       -4.6940    -0.0030    -1.7560 C.3   1 <1>  -0.1600 
 10 C       -4.4460     2.1820    -0.4900 C.3   1 <1>  -0.1600 
 11 O       -3.7240    -3.8680     1.0300 O.3   1 <1>  -0.0190 
 12 N       -5.4660    -2.5680     1.1840 N.2   1 <1>  -0.5650 
 13 C       -4.6150     1.5250    -1.8680 C.3   1 <1>  -0.1600 
 14 N       -4.5990    -4.2810     0.1680 N.2   1 <1>  -0.4100 
 15 C       -5.6300    -3.5180     0.2600 C.2   1 <1>   0.4620 
 16 C       -6.8110    -3.6050    -0.5690 C.ar  1 <1>   0.0540 
 17 C       -8.0860    -3.8350    -0.0370 C.ar  1 <1>   0.0820 
 18 C       -6.6900    -3.4520    -1.9490 C.ar  1 <1>  -0.1500 
 19 O       -8.1880    -4.0120     1.3070 O.3   1 <1>  -0.3630 
 20 C       -9.1950    -3.8870    -0.8790 C.ar  1 <1>  -0.1500 
 21 C       -7.7920    -3.5090    -2.7810 C.ar  1 <1>  -0.1500 
 22 C       -9.4240    -4.2390     1.9470 C.3   1 <1>   0.0400 
 23 C       -9.0480    -3.7240    -2.2440 C.ar  1 <1>  -0.1500 
 24 H       -1.4090    -1.7930     2.5110 H     1 <1>   0.3700 
 25 H       -4.2250    -0.1290     0.9380 H     1 <1>   0.0800 
 26 H       -4.1680    -1.2910     3.0560 H     1 <1>   0.0800 
 27 H       -3.2760    -2.7310     3.4590 H     1 <1>   0.0800 
 28 H       -3.5710    -1.6300    -0.9190 H     1 <1>   0.0800 
 29 H       -2.5840    -0.3670    -1.5840 H     1 <1>   0.0800 
 30 H       -2.3320     1.8650    -0.2790 H     1 <1>   0.0800 
 31 H       -3.1690     2.0480     1.2350 H     1 <1>   0.0800 
 32 H       -5.5920    -0.2790    -1.2270 H     1 <1>   0.0800 
 33 H       -4.7460    -0.4350    -2.7400 H     1 <1>   0.0800 
 34 H       -4.3250     3.2440    -0.6110 H     1 <1>   0.0800 
 35 H       -5.3350     2.0150     0.0930 H     1 <1>   0.0800 
 36 H       -5.5090     1.8990    -2.3380 H     1 <1>   0.0800 
 37 H       -3.7790     1.7910    -2.4910 H     1 <1>   0.0800 
 38 H       -5.7140    -3.2850    -2.3710 H     1 <1>   0.1500 
 39 H      -10.1820    -4.0570    -0.4920 H     1 <1>   0.1500 
 40 H       -7.6740    -3.3850    -3.8440 H     1 <1>   0.1500 
 41 H       -9.2390    -4.3370     3.0020 H     1 <1>   0.0800 
 42 H       -9.8530    -5.1480     1.5650 H     1 <1>   0.0800 
 43 H      -10.0700    -3.3990     1.7670 H     1 <1>   0.0800 
 44 H       -9.9090    -3.7660    -2.8890 H     1 <1>   0.1500 
@<TRIPOS>BOND
  1   1   2  2   
  2   2   3  am  
  3   2   4  1   
  4   3   5  1   
  5   3  24  1   
  6   4   6  1   
  7   4   7  1   
  8   4  25  1   
  9   5   8  1   
 10   5  26  1   
 11   5  27  1   
 12   6   9  1   
 13   6  28  1   
 14   6  29  1   
 15   7  10  1   
 16   7  30  1   
 17   7  31  1   
 18   8  11  1   
 19   8  12  2   
 20   9  13  1   
 21   9  32  1   
 22   9  33  1   
 23  10  13  1   
 24  10  34  1   
 25  10  35  1   
 26  11  14  1   
 27  12  15  1   
 28  13  36  1   
 29  13  37  1   
 30  14  15  2   
 31  15  16  1   
 32  16  17  ar  
 33  16  18  ar  
 34  17  19  1   
 35  17  20  ar  
 36  18  21  ar  
 37  18  38  1   
 38  19  22  1   
 39  20  23  ar  
 40  20  39  1   
 41  21  23  ar  
 42  21  40  1   
 43  22  41  1   
 44  22  42  1   
 45  22  43  1   
 46  23  44  1   
@<TRIPOS>SUBSTRUCTURE
  1 ****  12 GROUP 4 **** **** 0

# MOE 2024.06 (io_trps.svl 2023.06)
