@<TRIPOS>MOLECULE
3-(3-Chloro-benzyl)-8-(3-methoxy-propyl)-1,6,7-trimethyl-1H,8H-imidazo[2,1-f]pur
55 58 1 0 0 
SMALL
USER_CHARGES


@<TRIPOS>ATOM
  1 CL       3.5360    -4.7080    -0.8620 Cl    1 <1>  -0.1830 
  2 C        3.8960    -3.0220    -0.5960 C.ar  1 <1>   0.1710 
  3 C        4.4760    -2.6340     0.5970 C.ar  1 <1>  -0.1570 
  4 C        3.6000    -2.1020    -1.5840 C.ar  1 <1>  -0.1570 
  5 C        4.7760    -1.2960     0.8100 C.ar  1 <1>  -0.1500 
  6 C        3.8950    -0.7660    -1.3710 C.ar  1 <1>  -0.1570 
  7 C        4.4800    -0.3680    -0.1800 C.ar  1 <1>  -0.1570 
  8 C        5.4340    -0.8570     2.1090 C.3   1 <1>   0.2780 
  9 N        6.9000    -1.0800     1.9930 N.am  1 <1>  -0.4250 
 10 C        7.4260    -2.3040     2.3830 C.2   1 <1>   0.6870 
 11 C        7.6680    -0.1360     1.3300 C.2   1 <1>   0.7000 
 12 O        6.7600    -3.0740     3.0430 O.2   1 <1>  -0.5740 
 13 N        8.7240    -2.6450     2.0240 N.am  1 <1>  -0.4410 
 14 O        7.2150     0.9680     1.0750 O.2   1 <1>  -0.5740 
 15 C        9.0020    -0.4960     0.9750 C.2   1 <1>   0.2710 
 16 C        9.4730    -1.7170     1.3320 C.2   1 <1>   0.4210 
 17 C        9.2960    -3.9780     2.3780 C.3   1 <1>   0.0530 
 18 N       10.0490     0.1410     0.2830 N.pl3 1 <1>  -0.6330 
 19 N       10.7560    -1.8450     0.8980 N.pl3 1 <1>  -0.7030 
 20 C       11.0620    -0.7150     0.2670 C.cat 1 <1>   1.0690 
 21 C       10.4630     1.2560    -0.4140 C.2   1 <1>   0.2350 
 22 N       12.1200    -0.2300    -0.3910 N.pl3 1 <1>  -0.5710 
 23 C       11.7350     1.0300    -0.8270 C.2   1 <1>   0.1580 
 24 C        9.5330     2.4390    -0.5950 C.3   1 <1>  -0.1090 
 25 C       13.4310    -0.9080    -0.5730 C.3   1 <1>   0.1610 
 26 C       12.6690     1.9200    -1.6310 C.3   1 <1>  -0.1090 
 27 C       13.2850    -2.1890    -1.4110 C.3   1 <1>  -0.1670 
 28 C       13.6400    -3.4600    -0.6320 C.3   1 <1>   0.1130 
 29 O       12.8300    -3.5540     0.4990 O.3   1 <1>  -0.5640 
 30 C       13.1350    -4.6620     1.2910 C.3   1 <1>   0.0330 
 31 H        4.6890    -3.3800     1.3430 H     1 <1>   0.1430 
 32 H        3.1460    -2.4290    -2.5020 H     1 <1>   0.1430 
 33 H        3.6680    -0.0370    -2.1310 H     1 <1>   0.1430 
 34 H        4.7060     0.6750    -0.0300 H     1 <1>   0.1430 
 35 H        5.0270    -1.4160     2.9340 H     1 <1>   0.0730 
 36 H        5.2300     0.1830     2.2960 H     1 <1>   0.0730 
 37 H        8.5100    -4.6930     2.5550 H     1 <1>   0.0730 
 38 H        9.8890    -3.8910     3.2720 H     1 <1>   0.0730 
 39 H        9.9090    -4.3470     1.5750 H     1 <1>   0.0730 
 40 H       11.4080    -2.6430     0.9190 H     1 <1>   0.4450 
 41 H        9.2490     2.8340     0.3650 H     1 <1>   0.0730 
 42 H        8.6430     2.1310    -1.1140 H     1 <1>   0.0730 
 43 H       10.0050     3.2210    -1.1600 H     1 <1>   0.0730 
 44 H       13.8480    -1.1370     0.3940 H     1 <1>   0.0730 
 45 H       14.1180    -0.2430    -1.0670 H     1 <1>   0.0730 
 46 H       12.9600     1.4240    -2.5390 H     1 <1>   0.0730 
 47 H       13.5500     2.1450    -1.0570 H     1 <1>   0.0730 
 48 H       12.1900     2.8460    -1.8900 H     1 <1>   0.0730 
 49 H       13.9680    -2.1250    -2.2400 H     1 <1>   0.0730 
 50 H       12.2980    -2.2840    -1.8290 H     1 <1>   0.0730 
 51 H       14.6700    -3.4300    -0.3170 H     1 <1>   0.0730 
 52 H       13.4810    -4.3320    -1.2450 H     1 <1>   0.0730 
 53 H       12.4830    -4.6660     2.1460 H     1 <1>   0.0730 
 54 H       14.1580    -4.5950     1.6210 H     1 <1>   0.0730 
 55 H       12.9870    -5.5630     0.7180 H     1 <1>   0.0730 
@<TRIPOS>BOND
  1   1   2  1   
  2   2   3  ar  
  3   2   4  ar  
  4   3   5  ar  
  5   3  31  1   
  6   4   6  ar  
  7   4  32  1   
  8   5   7  ar  
  9   5   8  1   
 10   6   7  ar  
 11   6  33  1   
 12   7  34  1   
 13   8   9  1   
 14   8  35  1   
 15   8  36  1   
 16   9  10  am  
 17   9  11  am  
 18  10  12  2   
 19  10  13  am  
 20  11  14  2   
 21  11  15  1   
 22  13  16  1   
 23  13  17  1   
 24  15  16  2   
 25  15  18  1   
 26  16  19  1   
 27  17  37  1   
 28  17  38  1   
 29  17  39  1   
 30  18  20  ar  
 31  18  21  1   
 32  19  20  ar  
 33  19  40  1   
 34  20  22  ar  
 35  21  23  2   
 36  21  24  1   
 37  22  23  1   
 38  22  25  1   
 39  23  26  1   
 40  24  41  1   
 41  24  42  1   
 42  24  43  1   
 43  25  27  1   
 44  25  44  1   
 45  25  45  1   
 46  26  46  1   
 47  26  47  1   
 48  26  48  1   
 49  27  28  1   
 50  27  49  1   
 51  27  50  1   
 52  28  29  1   
 53  28  51  1   
 54  28  52  1   
 55  29  30  1   
 56  30  53  1   
 57  30  54  1   
 58  30  55  1   
@<TRIPOS>SUBSTRUCTURE
  1 ****  15 GROUP 4 **** **** 0

# MOE 2024.06 (io_trps.svl 2023.06)
