@<TRIPOS>MOLECULE
[1-(4-Ethoxy-3-methyl-benzenesulfonyl)-piperidin-4-yl]-morpholin-4-yl-methanone
55 57 1 0 0 
SMALL
USER_CHARGES


@<TRIPOS>ATOM
  1 S       -0.2210     0.1000    -2.6800 S.o2  1 <1>   1.4470 
  2 O        0.6160    -0.8210    -3.4210 O.2   1 <1>  -0.6500 
  3 O       -0.9440     1.1270    -3.3970 O.2   1 <1>  -0.6500 
  4 N        0.7990     0.8790    -1.5690 N.am  1 <1>  -0.8490 
  5 C       -1.3720    -0.8170    -1.6190 C.ar  1 <1>  -0.0090 
  6 C        1.5490     1.9660    -2.2030 C.3   1 <1>   0.1960 
  7 C        1.6880    -0.0640    -0.8850 C.3   1 <1>   0.1960 
  8 C       -1.9710    -0.2090    -0.5230 C.ar  1 <1>  -0.1500 
  9 C       -1.6870    -2.1460    -1.8750 C.ar  1 <1>  -0.1500 
 10 C        2.3430     2.7440    -1.1520 C.3   1 <1>  -0.1600 
 11 C        2.4810     0.6520     0.2110 C.3   1 <1>  -0.1600 
 12 C       -2.8470    -0.8940     0.3040 C.ar  1 <1>  -0.1430 
 13 C       -2.5600    -2.8470    -1.0630 C.ar  1 <1>  -0.1500 
 14 C        3.2960     1.8240    -0.3630 C.3   1 <1>  -0.0190 
 15 C       -3.1470    -2.2260     0.0350 C.ar  1 <1>   0.0830 
 16 C       -3.4750    -0.1840     1.4950 C.3   1 <1>  -0.0970 
 17 C        4.0700     2.5590     0.7420 C.2   1 <1>   0.5690 
 18 O       -4.0090    -2.8600     0.8710 O.3   1 <1>  -0.3630 
 19 O        3.6010     3.5860     1.1750 O.2   1 <1>  -0.5700 
 20 N        5.2560     2.0660     1.2350 N.am  1 <1>  -0.6600 
 21 C       -4.4000    -4.1970     0.6650 C.3   1 <1>   0.1200 
 22 C        6.0070     2.7950     2.3060 C.3   1 <1>   0.1400 
 23 C        5.9430     0.8000     0.8310 C.3   1 <1>   0.1400 
 24 C       -5.3800    -4.5790     1.7700 C.3   1 <1>  -0.2400 
 25 C        7.4900     2.9430     1.9280 C.3   1 <1>   0.1200 
 26 C        7.4290     1.0620     0.5280 C.3   1 <1>   0.1200 
 27 O        8.0470     1.6990     1.6090 O.3   1 <1>  -0.5600 
 28 H        0.8660     2.6460    -2.6870 H     1 <1>   0.0800 
 29 H        2.2110     1.5650    -2.9540 H     1 <1>   0.0800 
 30 H        2.3660    -0.5110    -1.5940 H     1 <1>   0.0800 
 31 H        1.1060    -0.8510    -0.4350 H     1 <1>   0.0800 
 32 H       -1.7400     0.8230    -0.3190 H     1 <1>   0.1500 
 33 H       -1.2400    -2.6390    -2.7230 H     1 <1>   0.1500 
 34 H        1.6460     3.2160    -0.4800 H     1 <1>   0.0800 
 35 H        2.9080     3.5220    -1.6330 H     1 <1>   0.0800 
 36 H        3.1340    -0.0520     0.6920 H     1 <1>   0.0800 
 37 H        1.7940     1.0200     0.9540 H     1 <1>   0.0800 
 38 H       -2.7690    -3.8720    -1.3020 H     1 <1>   0.1500 
 39 H        4.0060     1.4440    -1.0730 H     1 <1>   0.0800 
 40 H       -3.1320     0.8320     1.5690 H     1 <1>   0.0800 
 41 H       -3.2180    -0.7000     2.4020 H     1 <1>   0.0800 
 42 H       -4.5450    -0.1800     1.3920 H     1 <1>   0.0800 
 43 H       -3.5220    -4.8190     0.7040 H     1 <1>   0.0800 
 44 H       -4.8690    -4.2700    -0.3010 H     1 <1>   0.0800 
 45 H        5.9290     2.2470     3.2290 H     1 <1>   0.0800 
 46 H        5.5900     3.7730     2.4690 H     1 <1>   0.0800 
 47 H        5.4850     0.3570    -0.0320 H     1 <1>   0.0800 
 48 H        5.8750     0.0920     1.6390 H     1 <1>   0.0800 
 49 H       -4.9070    -4.4860     2.7320 H     1 <1>   0.0800 
 50 H       -5.6980    -5.5970     1.6410 H     1 <1>   0.0800 
 51 H       -6.2450    -3.9410     1.7330 H     1 <1>   0.0800 
 52 H        8.0440     3.3490     2.7560 H     1 <1>   0.0800 
 53 H        7.6000     3.6000     1.0830 H     1 <1>   0.0800 
 54 H        7.5360     1.6820    -0.3450 H     1 <1>   0.0800 
 55 H        7.9440     0.1330     0.3590 H     1 <1>   0.0800 
@<TRIPOS>BOND
  1   1   2  2   
  2   1   3  2   
  3   1   4  am  
  4   1   5  1   
  5   4   6  1   
  6   4   7  1   
  7   5   8  ar  
  8   5   9  ar  
  9   6  10  1   
 10   6  28  1   
 11   6  29  1   
 12   7  11  1   
 13   7  30  1   
 14   7  31  1   
 15   8  12  ar  
 16   8  32  1   
 17   9  13  ar  
 18   9  33  1   
 19  10  14  1   
 20  10  34  1   
 21  10  35  1   
 22  11  14  1   
 23  11  36  1   
 24  11  37  1   
 25  12  15  ar  
 26  12  16  1   
 27  13  15  ar  
 28  13  38  1   
 29  14  17  1   
 30  14  39  1   
 31  15  18  1   
 32  16  40  1   
 33  16  41  1   
 34  16  42  1   
 35  17  19  2   
 36  17  20  am  
 37  18  21  1   
 38  20  22  1   
 39  20  23  1   
 40  21  24  1   
 41  21  43  1   
 42  21  44  1   
 43  22  25  1   
 44  22  45  1   
 45  22  46  1   
 46  23  26  1   
 47  23  47  1   
 48  23  48  1   
 49  24  49  1   
 50  24  50  1   
 51  24  51  1   
 52  25  27  1   
 53  25  52  1   
 54  25  53  1   
 55  26  27  1   
 56  26  54  1   
 57  26  55  1   
@<TRIPOS>SUBSTRUCTURE
  1 ****   7 GROUP 4 **** **** 0

# MOE 2024.06 (io_trps.svl 2023.06)
