@<TRIPOS>MOLECULE
2-(1,1-Dioxo-1H-1lambda*6*-naphtho[1,8-cd]isothiazol-2-yl)-N-(3-methoxy-propyl)-
44 46 1 0 0 
SMALL
USER_CHARGES


@<TRIPOS>ATOM
  1 S        1.8720     0.7000    -0.9210 S.o2  1 <1>   1.4470 
  2 O        3.1270     1.1060    -1.5170 O.2   1 <1>  -0.6500 
  3 O        0.7420     1.5920    -0.8300 O.2   1 <1>  -0.6500 
  4 N        2.2610     0.1850     0.6830 N.am  1 <1>  -0.6930 
  5 C        1.4280    -0.9630    -1.4160 C.ar  1 <1>  -0.0090 
  6 C        2.2170    -1.2070     0.8020 C.ar  1 <1>   0.1990 
  7 C        3.1780     1.0760     1.4430 C.3   1 <1>   0.3370 
  8 C        1.7140    -1.8250    -0.3590 C.ar  1 <1>   0.0000 
  9 C        0.9150    -1.4640    -2.5850 C.ar  1 <1>  -0.1500 
 10 C        2.5920    -2.0020     1.8600 C.ar  1 <1>  -0.1500 
 11 C        4.6300     0.5460     1.4620 C.2   1 <1>   0.5690 
 12 C        2.5650     1.3630     2.8220 C.3   1 <1>  -0.2400 
 13 C        1.5310    -3.2090    -0.4580 C.ar  1 <1>   0.0000 
 14 C        0.6950    -2.8460    -2.7040 C.ar  1 <1>  -0.1500 
 15 C        2.4300    -3.3920     1.7830 C.ar  1 <1>  -0.1500 
 16 O        5.1490     0.2150     2.5050 O.2   1 <1>  -0.5700 
 17 N        5.2970     0.4530     0.2780 N.am  1 <1>  -0.7300 
 18 C        0.9970    -3.6950    -1.6690 C.ar  1 <1>  -0.1500 
 19 C        1.9070    -3.9810     0.6570 C.ar  1 <1>  -0.1500 
 20 C        6.6670    -0.0590     0.1000 C.3   1 <1>   0.1400 
 21 C        7.3930     0.8070    -0.9260 C.3   1 <1>  -0.1600 
 22 C        8.8230     0.3140    -1.1320 C.3   1 <1>   0.1200 
 23 O        9.4160     1.1240    -2.0900 O.3   1 <1>  -0.5600 
 24 C       10.7370     0.7920    -2.3730 C.3   1 <1>   0.0400 
 25 H        3.2190     2.0220     0.9330 H     1 <1>   0.0800 
 26 H        0.6820    -0.8150    -3.4120 H     1 <1>   0.1500 
 27 H        3.0110    -1.5790     2.7540 H     1 <1>   0.1500 
 28 H        2.5120     0.4730     3.4180 H     1 <1>   0.0800 
 29 H        1.5790     1.7750     2.7080 H     1 <1>   0.0800 
 30 H        3.1770     2.0770     3.3430 H     1 <1>   0.0800 
 31 H        0.2870    -3.2290    -3.6250 H     1 <1>   0.1500 
 32 H        2.7240    -3.9940     2.6270 H     1 <1>   0.1500 
 33 H        4.7990     0.7080    -0.5900 H     1 <1>   0.3700 
 34 H        0.8320    -4.7540    -1.7650 H     1 <1>   0.1500 
 35 H        1.7810    -5.0490     0.6090 H     1 <1>   0.1500 
 36 H        6.6190    -1.0790    -0.2420 H     1 <1>   0.0800 
 37 H        7.1890    -0.0360     1.0420 H     1 <1>   0.0800 
 38 H        7.4220     1.8240    -0.5770 H     1 <1>   0.0800 
 39 H        6.8710     0.7660    -1.8650 H     1 <1>   0.0800 
 40 H        8.8290    -0.7020    -1.4880 H     1 <1>   0.0800 
 41 H        9.3870     0.3890    -0.2170 H     1 <1>   0.0800 
 42 H       11.0980     1.4750    -3.1210 H     1 <1>   0.0800 
 43 H       10.7780    -0.2150    -2.7500 H     1 <1>   0.0800 
 44 H       11.3270     0.8890    -1.4780 H     1 <1>   0.0800 
@<TRIPOS>BOND
  1   1   2  2   
  2   1   3  2   
  3   1   4  am  
  4   1   5  1   
  5   4   6  1   
  6   4   7  1   
  7   5   8  ar  
  8   5   9  ar  
  9   6   8  ar  
 10   6  10  ar  
 11   7  11  1   
 12   7  12  1   
 13   7  25  1   
 14   8  13  ar  
 15   9  14  ar  
 16   9  26  1   
 17  10  15  ar  
 18  10  27  1   
 19  11  16  2   
 20  11  17  am  
 21  12  28  1   
 22  12  29  1   
 23  12  30  1   
 24  13  18  ar  
 25  13  19  ar  
 26  14  18  ar  
 27  14  31  1   
 28  15  19  ar  
 29  15  32  1   
 30  17  20  1   
 31  17  33  1   
 32  18  34  1   
 33  19  35  1   
 34  20  21  1   
 35  20  36  1   
 36  20  37  1   
 37  21  22  1   
 38  21  38  1   
 39  21  39  1   
 40  22  23  1   
 41  22  40  1   
 42  22  41  1   
 43  23  24  1   
 44  24  42  1   
 45  24  43  1   
 46  24  44  1   
@<TRIPOS>SUBSTRUCTURE
  1 ****   4 GROUP 4 **** **** 0

# MOE 2024.06 (io_trps.svl 2023.06)
