@<TRIPOS>MOLECULE
N-{1-[3-(4-Methoxy-phenyl)-[1,2,4]oxadiazol-5-yl]-ethyl}-butyramide
40 41 1 0 0 
SMALL
USER_CHARGES


@<TRIPOS>ATOM
  1 O       -2.0900    -0.0630    -2.2140 O.2   1 <1>  -0.5700 
  2 C       -2.7650    -0.1040    -1.2180 C.2   1 <1>   0.5690 
  3 N       -4.0890    -0.3410    -1.3390 N.am  1 <1>  -0.7300 
  4 C       -2.1350     0.1110     0.1530 C.3   1 <1>  -0.0990 
  5 C       -5.1170    -0.4620    -0.2860 C.3   1 <1>   0.4000 
  6 C       -0.6000     0.2260     0.1330 C.3   1 <1>  -0.1600 
  7 C       -5.3990    -1.9350     0.0320 C.2   1 <1>   0.2980 
  8 C       -6.3550     0.2950    -0.7690 C.3   1 <1>  -0.2400 
  9 C       -0.0340     0.4230     1.5430 C.3   1 <1>  -0.2400 
 10 O       -4.4980    -2.5840     0.7220 O.3   1 <1>  -0.0190 
 11 N       -6.4220    -2.6160    -0.2960 N.2   1 <1>  -0.5650 
 12 N       -4.9880    -3.7770     0.8440 N.2   1 <1>  -0.4100 
 13 C       -6.1230    -3.8040     0.2390 C.2   1 <1>   0.4620 
 14 C       -6.9990    -4.9590     0.1300 C.ar  1 <1>   0.0540 
 15 C       -8.2210    -4.8950    -0.5420 C.ar  1 <1>  -0.1500 
 16 C       -6.6510    -6.1880     0.6970 C.ar  1 <1>  -0.1500 
 17 C       -9.0500    -5.9960    -0.6430 C.ar  1 <1>  -0.1500 
 18 C       -7.4740    -7.2950     0.6010 C.ar  1 <1>  -0.1500 
 19 C       -8.6870    -7.2050    -0.0740 C.ar  1 <1>   0.0820 
 20 O       -9.5530    -8.2360    -0.2170 O.3   1 <1>  -0.3620 
 21 C       -9.2770    -9.5080     0.3260 C.3   1 <1>   0.0400 
 22 H       -4.4120    -0.5420    -2.2870 H     1 <1>   0.3700 
 23 H       -2.4060    -0.7150     0.7840 H     1 <1>   0.0800 
 24 H       -2.5460     1.0100     0.5730 H     1 <1>   0.0800 
 25 H       -4.7670     0.0090     0.6160 H     1 <1>   0.0800 
 26 H       -0.3110     1.0570    -0.4880 H     1 <1>   0.0800 
 27 H       -0.1810    -0.6680    -0.2990 H     1 <1>   0.0800 
 28 H       -6.7400    -0.1470    -1.6710 H     1 <1>   0.0800 
 29 H       -6.1140     1.3270    -0.9490 H     1 <1>   0.0800 
 30 H       -7.1230     0.2510    -0.0170 H     1 <1>   0.0800 
 31 H       -0.4220     1.3240     1.9840 H     1 <1>   0.0800 
 32 H        1.0380     0.5000     1.4990 H     1 <1>   0.0800 
 33 H       -0.2890    -0.4120     2.1730 H     1 <1>   0.0800 
 34 H       -8.5290    -3.9680    -0.9950 H     1 <1>   0.1500 
 35 H       -5.7160    -6.2770     1.2230 H     1 <1>   0.1500 
 36 H       -9.9870    -5.9280    -1.1650 H     1 <1>   0.1500 
 37 H       -7.1570    -8.2150     1.0550 H     1 <1>   0.1500 
 38 H      -10.1000   -10.1580     0.0880 H     1 <1>   0.0800 
 39 H       -9.1780    -9.4190     1.3930 H     1 <1>   0.0800 
 40 H       -8.3730    -9.8870    -0.1160 H     1 <1>   0.0800 
@<TRIPOS>BOND
  1   1   2  2   
  2   2   3  am  
  3   2   4  1   
  4   3   5  1   
  5   3  22  1   
  6   4   6  1   
  7   4  23  1   
  8   4  24  1   
  9   5   7  1   
 10   5   8  1   
 11   5  25  1   
 12   6   9  1   
 13   6  26  1   
 14   6  27  1   
 15   7  10  1   
 16   7  11  2   
 17   8  28  1   
 18   8  29  1   
 19   8  30  1   
 20   9  31  1   
 21   9  32  1   
 22   9  33  1   
 23  10  12  1   
 24  11  13  1   
 25  12  13  2   
 26  13  14  1   
 27  14  15  ar  
 28  14  16  ar  
 29  15  17  ar  
 30  15  34  1   
 31  16  18  ar  
 32  16  35  1   
 33  17  19  ar  
 34  17  36  1   
 35  18  19  ar  
 36  18  37  1   
 37  19  20  1   
 38  20  21  1   
 39  21  38  1   
 40  21  39  1   
 41  21  40  1   
@<TRIPOS>SUBSTRUCTURE
  1 ****  13 GROUP 4 **** **** 0

# MOE 2024.06 (io_trps.svl 2023.06)
