@<TRIPOS>MOLECULE
8-(4-Fluoro-phenyl)-3-(2-methoxy-ethyl)-1-methyl-7,8-dihydro-1H,6H-imidazo[2,1-f
45 48 1 0 0 
SMALL
USER_CHARGES


@<TRIPOS>ATOM
  1 F       -0.9400     0.2840     0.3080 F     1 <1>  -0.1980 
  2 C       -1.9860     1.0620     0.2450 C.ar  1 <1>   0.1820 
  3 C       -3.0140     0.8730     1.1490 C.ar  1 <1>  -0.1580 
  4 C       -2.0290     2.0480    -0.7230 C.ar  1 <1>  -0.1580 
  5 C       -4.1230     1.7000     1.0760 C.ar  1 <1>  -0.1580 
  6 C       -3.1430     2.8680    -0.7850 C.ar  1 <1>  -0.1580 
  7 C       -4.1990     2.7000     0.1080 C.ar  1 <1>   0.3040 
  8 N       -5.3260     3.5230     0.0280 N.pl3 1 <1>  -0.5800 
  9 C       -6.6000     3.1730    -0.1550 C.cat 1 <1>   1.0690 
 10 C       -5.2680     5.0120     0.1880 C.3   1 <1>   0.1590 
 11 N       -7.2450     2.0320    -0.3730 N.pl3 1 <1>  -0.7040 
 12 N       -7.4320     4.1830    -0.1340 N.pl3 1 <1>  -0.7680 
 13 C       -6.7450     5.4680     0.0830 C.3   1 <1>   0.3470 
 14 C       -8.5720     2.3490    -0.5010 C.2   1 <1>   0.4200 
 15 C       -8.7200     3.6880    -0.3610 C.2   1 <1>   0.2700 
 16 N       -9.6320     1.4950    -0.7380 N.am  1 <1>  -0.4420 
 17 C      -10.0220     4.2680    -0.4680 C.2   1 <1>   0.6990 
 18 C      -10.9020     2.0460    -0.8660 C.2   1 <1>   0.6860 
 19 C       -9.4210     0.0230    -0.8750 C.3   1 <1>   0.0510 
 20 O      -10.1870     5.4650    -0.3110 O.2   1 <1>  -0.5750 
 21 N      -11.0850     3.4210    -0.7490 N.am  1 <1>  -0.4260 
 22 O      -11.8530     1.3220    -1.0740 O.2   1 <1>  -0.5750 
 23 C      -12.4550     3.9960    -0.9420 C.3   1 <1>   0.1320 
 24 C      -13.2490     3.9540     0.3630 C.3   1 <1>   0.1110 
 25 O      -14.4800     4.5570     0.1380 O.3   1 <1>  -0.5650 
 26 C      -15.3160     4.5610     1.2480 C.3   1 <1>   0.0310 
 27 H       -2.9350     0.0970     1.8920 H     1 <1>   0.1420 
 28 H       -1.2050     2.1640    -1.4060 H     1 <1>   0.1420 
 29 H       -4.9210     1.5690     1.7850 H     1 <1>   0.1420 
 30 H       -3.1880     3.6370    -1.5350 H     1 <1>   0.1420 
 31 H       -4.6750     5.4570    -0.5930 H     1 <1>   0.0710 
 32 H       -4.8530     5.2730     1.1470 H     1 <1>   0.0710 
 33 H       -6.8090     1.1170    -0.4580 H     1 <1>   0.4440 
 34 H       -6.8970     6.1330    -0.7510 H     1 <1>   0.0710 
 35 H       -7.0820     5.9360     0.9930 H     1 <1>   0.0710 
 36 H       -8.6620    -0.3140    -0.1920 H     1 <1>   0.0710 
 37 H       -9.1260    -0.2080    -1.8840 H     1 <1>   0.0710 
 38 H      -10.3290    -0.5130    -0.6530 H     1 <1>   0.0710 
 39 H      -12.9830     3.4340    -1.6940 H     1 <1>   0.0710 
 40 H      -12.3850     5.0160    -1.2800 H     1 <1>   0.0710 
 41 H      -12.7390     4.5050     1.1350 H     1 <1>   0.0710 
 42 H      -13.4180     2.9360     0.6690 H     1 <1>   0.0710 
 43 H      -16.2370     5.0440     0.9720 H     1 <1>   0.0710 
 44 H      -14.8450     5.1070     2.0470 H     1 <1>   0.0710 
 45 H      -15.5150     3.5460     1.5470 H     1 <1>   0.0710 
@<TRIPOS>BOND
  1   1   2  1   
  2   2   3  ar  
  3   2   4  ar  
  4   3   5  ar  
  5   3  27  1   
  6   4   6  ar  
  7   4  28  1   
  8   5   7  ar  
  9   5  29  1   
 10   6   7  ar  
 11   6  30  1   
 12   7   8  1   
 13   8   9  ar  
 14   8  10  1   
 15   9  11  ar  
 16   9  12  ar  
 17  10  13  1   
 18  10  31  1   
 19  10  32  1   
 20  11  14  1   
 21  11  33  1   
 22  12  13  1   
 23  12  15  1   
 24  13  34  1   
 25  13  35  1   
 26  14  15  2   
 27  14  16  1   
 28  15  17  1   
 29  16  18  am  
 30  16  19  1   
 31  17  20  2   
 32  17  21  am  
 33  18  21  am  
 34  18  22  2   
 35  19  36  1   
 36  19  37  1   
 37  19  38  1   
 38  21  23  1   
 39  23  24  1   
 40  23  39  1   
 41  23  40  1   
 42  24  25  1   
 43  24  41  1   
 44  24  42  1   
 45  25  26  1   
 46  26  43  1   
 47  26  44  1   
 48  26  45  1   
@<TRIPOS>SUBSTRUCTURE
  1 ****  14 GROUP 4 **** **** 0

# MOE 2024.06 (io_trps.svl 2023.06)
