@<TRIPOS>MOLECULE
[2-Isopropyl-3-(toluene-4-sulfonyl)-imidazolidin-1-yl]-morpholin-4-yl-methanone
53 55 1 0 0 
SMALL
USER_CHARGES


@<TRIPOS>ATOM
  1 S        0.4090     0.2280     0.6590 S.o2  1 <1>   1.4470 
  2 O        0.7140     1.6320     0.4830 O.2   1 <1>  -0.6500 
  3 O        0.5170    -0.3840     1.9640 O.2   1 <1>  -0.6500 
  4 N        1.4020    -0.6470    -0.3880 N.am  1 <1>  -0.8490 
  5 C       -1.2460    -0.1160    -0.0030 C.ar  1 <1>  -0.0090 
  6 C        2.7400    -0.7430     0.1760 C.3   1 <1>   0.5760 
  7 C        1.5290    -0.0530    -1.7140 C.3   1 <1>   0.1960 
  8 C       -1.7020    -1.4210    -0.1390 C.ar  1 <1>  -0.1500 
  9 C       -2.0990     0.9110    -0.3940 C.ar  1 <1>  -0.1500 
 10 N        3.5530     0.2430    -0.5580 N.am  1 <1>  -0.6600 
 11 C        3.2900    -2.1790    -0.0290 C.3   1 <1>  -0.0800 
 12 C        2.7810     0.8030    -1.6750 C.3   1 <1>   0.1400 
 13 C       -2.9580    -1.6960    -0.6520 C.ar  1 <1>  -0.1500 
 14 C       -3.3570     0.6440    -0.9070 C.ar  1 <1>  -0.1500 
 15 C        4.4780     0.9910     0.1100 C.2   1 <1>   0.6900 
 16 C        2.4190    -3.2300     0.6860 C.3   1 <1>  -0.2400 
 17 C        4.7420    -2.3370     0.4630 C.3   1 <1>  -0.2400 
 18 C       -3.7930    -0.6620    -1.0420 C.ar  1 <1>  -0.1430 
 19 O        4.6510     0.8350     1.3060 O.2   1 <1>  -0.5700 
 20 N        5.2400     1.9030    -0.5680 N.am  1 <1>  -0.6600 
 21 C       -5.1720    -0.9600    -1.6010 C.3   1 <1>  -0.0970 
 22 C        5.8520     3.0540     0.1560 C.3   1 <1>   0.1400 
 23 C        6.0200     1.4920    -1.7690 C.3   1 <1>   0.1400 
 24 C        7.3480     2.8020     0.4020 C.3   1 <1>   0.1200 
 25 C        7.5110     1.3370    -1.4190 C.3   1 <1>   0.1200 
 26 O        7.9980     2.4940    -0.8000 O.3   1 <1>  -0.5600 
 27 H        2.7430    -0.5210     1.2320 H     1 <1>   0.0800 
 28 H        0.6620     0.5200    -1.9970 H     1 <1>   0.0800 
 29 H        1.6680    -0.8400    -2.4360 H     1 <1>   0.0800 
 30 H       -1.0630    -2.2330     0.1630 H     1 <1>   0.1500 
 31 H       -1.7770     1.9340    -0.2930 H     1 <1>   0.1500 
 32 H        3.2740    -2.3940    -1.0830 H     1 <1>   0.0800 
 33 H        2.5300     1.8300    -1.4680 H     1 <1>   0.0800 
 34 H        3.3250     0.7400    -2.5990 H     1 <1>   0.0800 
 35 H       -3.2840    -2.7180    -0.7440 H     1 <1>   0.1500 
 36 H       -3.9960     1.4600    -1.2000 H     1 <1>   0.1500 
 37 H        2.3750    -3.0230     1.7420 H     1 <1>   0.0800 
 38 H        2.8210    -4.2160     0.5430 H     1 <1>   0.0800 
 39 H        1.4170    -3.2200     0.2970 H     1 <1>   0.0800 
 40 H        4.8150    -2.0740     1.5040 H     1 <1>   0.0800 
 41 H        5.4030    -1.6980    -0.0940 H     1 <1>   0.0800 
 42 H        5.0770    -3.3510     0.3380 H     1 <1>   0.0800 
 43 H       -5.1710    -1.8960    -2.1290 H     1 <1>   0.0800 
 44 H       -5.4770    -0.1870    -2.2840 H     1 <1>   0.0800 
 45 H       -5.8860    -1.0140    -0.7990 H     1 <1>   0.0800 
 46 H        5.3530     3.2070     1.0980 H     1 <1>   0.0800 
 47 H        5.7320     3.9470    -0.4300 H     1 <1>   0.0800 
 48 H        5.9090     2.2360    -2.5380 H     1 <1>   0.0800 
 49 H        5.6520     0.5550    -2.1500 H     1 <1>   0.0800 
 50 H        7.4820     1.9850     1.0910 H     1 <1>   0.0800 
 51 H        7.8110     3.6820     0.8120 H     1 <1>   0.0800 
 52 H        8.0880     1.1730    -2.3110 H     1 <1>   0.0800 
 53 H        7.6570     0.5040    -0.7530 H     1 <1>   0.0800 
@<TRIPOS>BOND
  1   1   2  2   
  2   1   3  2   
  3   1   4  am  
  4   1   5  1   
  5   4   6  1   
  6   4   7  1   
  7   5   8  ar  
  8   5   9  ar  
  9   6  10  1   
 10   6  11  1   
 11   6  27  1   
 12   7  12  1   
 13   7  28  1   
 14   7  29  1   
 15   8  13  ar  
 16   8  30  1   
 17   9  14  ar  
 18   9  31  1   
 19  10  12  1   
 20  10  15  am  
 21  11  16  1   
 22  11  17  1   
 23  11  32  1   
 24  12  33  1   
 25  12  34  1   
 26  13  18  ar  
 27  13  35  1   
 28  14  18  ar  
 29  14  36  1   
 30  15  19  2   
 31  15  20  am  
 32  16  37  1   
 33  16  38  1   
 34  16  39  1   
 35  17  40  1   
 36  17  41  1   
 37  17  42  1   
 38  18  21  1   
 39  20  22  1   
 40  20  23  1   
 41  21  43  1   
 42  21  44  1   
 43  21  45  1   
 44  22  24  1   
 45  22  46  1   
 46  22  47  1   
 47  23  25  1   
 48  23  48  1   
 49  23  49  1   
 50  24  26  1   
 51  24  50  1   
 52  24  51  1   
 53  25  26  1   
 54  25  52  1   
 55  25  53  1   
@<TRIPOS>SUBSTRUCTURE
  1 ****   4 GROUP 4 **** **** 0

# MOE 2024.06 (io_trps.svl 2023.06)
