@<TRIPOS>MOLECULE
7-(2-Fluoro-benzyl)-1,3-dimethyl-8-(3-methyl-piperidin-1-ylmethyl)-3,7-dihydro-p
56 59 1 0 0 
SMALL
USER_CHARGES


@<TRIPOS>ATOM
  1 F        0.8150    -2.6840    -0.4380 F     1 <1>  -0.1900 
  2 C       -0.2910    -1.9920    -0.4080 C.ar  1 <1>   0.1900 
  3 C       -1.4150    -2.5240     0.2060 C.ar  1 <1>  -0.1440 
  4 C       -0.2790    -0.7430    -1.0000 C.ar  1 <1>  -0.1500 
  5 C       -2.5610    -1.7380     0.2300 C.ar  1 <1>  -0.1500 
  6 C       -1.3920    -3.9100     0.8400 C.3   1 <1>   0.4980 
  7 C       -1.4350     0.0160    -0.9750 C.ar  1 <1>  -0.1500 
  8 C       -2.5710    -0.4820    -0.3580 C.ar  1 <1>  -0.1500 
  9 N       -2.1620    -4.8600    -0.0180 N.pl3 1 <1>  -0.7640 
 10 C       -3.5140    -5.1760     0.1370 C.2   1 <1>   0.2770 
 11 C       -1.7020    -5.5650    -1.0470 C.cat 1 <1>   0.6560 
 12 C       -4.5510    -4.8110     1.0610 C.2   1 <1>   0.7030 
 13 C       -3.8130    -6.0550    -0.8500 C.2   1 <1>   0.4260 
 14 N       -2.6880    -6.2900    -1.5740 N.pl3 1 <1>  -0.7000 
 15 C       -0.2490    -5.5900    -1.5610 C.3   1 <1>   0.2540 
 16 O       -4.3320    -4.0560     1.9920 O.2   1 <1>  -0.5700 
 17 N       -5.8190    -5.3460     0.8730 N.am  1 <1>  -0.4200 
 18 N       -5.0700    -6.6000    -1.0400 N.am  1 <1>  -0.4360 
 19 N        0.7180    -6.0320    -0.5280 N.3   1 <1>  -0.8100 
 20 C       -6.0880    -6.2090    -0.1830 C.2   1 <1>   0.6900 
 21 C       -6.9330    -4.9700     1.8010 C.3   1 <1>   0.0600 
 22 C       -5.3370    -7.5480    -2.1640 C.3   1 <1>   0.0600 
 23 C        0.5520    -7.4530    -0.1620 C.3   1 <1>   0.1100 
 24 C        2.1050    -5.7580    -0.9460 C.3   1 <1>   0.1100 
 25 O       -7.2180    -6.6160    -0.3600 O.2   1 <1>  -0.5700 
 26 C        1.4570    -7.8070     1.0270 C.3   1 <1>  -0.0800 
 27 C        3.0620    -6.0480     0.2120 C.3   1 <1>  -0.1600 
 28 C        2.9250    -7.4940     0.7020 C.3   1 <1>  -0.1600 
 29 C        1.2980    -9.2830     1.4120 C.3   1 <1>  -0.2400 
 30 H        0.6160    -0.3720    -1.4660 H     1 <1>   0.1500 
 31 H       -3.4590    -2.0840     0.7110 H     1 <1>   0.1500 
 32 H       -1.8300    -3.8620     1.8220 H     1 <1>   0.0800 
 33 H       -0.3810    -4.2590     0.9660 H     1 <1>   0.0800 
 34 H       -1.4510     0.9940    -1.4280 H     1 <1>   0.1500 
 35 H       -3.4670     0.1150    -0.3320 H     1 <1>   0.1500 
 36 H       -2.6210    -6.9250    -2.3690 H     1 <1>   0.4500 
 37 H        0.0010    -4.5950    -1.8820 H     1 <1>   0.0800 
 38 H       -0.1780    -6.2360    -2.4180 H     1 <1>   0.0800 
 39 H       -6.5530    -4.6540     2.7570 H     1 <1>   0.0800 
 40 H       -7.5840    -5.8130     1.9620 H     1 <1>   0.0800 
 41 H       -7.5060    -4.1680     1.3690 H     1 <1>   0.0800 
 42 H       -4.5380    -8.2630    -2.2470 H     1 <1>   0.0800 
 43 H       -5.4300    -7.0020    -3.0860 H     1 <1>   0.0800 
 44 H       -6.2520    -8.0920    -1.9960 H     1 <1>   0.0800 
 45 H        0.7990    -8.0800    -1.0030 H     1 <1>   0.0800 
 46 H       -0.4690    -7.6450     0.1200 H     1 <1>   0.0800 
 47 H        2.2080    -4.7240    -1.2290 H     1 <1>   0.0800 
 48 H        2.3650    -6.3700    -1.7940 H     1 <1>   0.0800 
 49 H        1.1540    -7.2060     1.8680 H     1 <1>   0.0800 
 50 H        2.8500    -5.3670     1.0180 H     1 <1>   0.0800 
 51 H        4.0740    -5.8700    -0.1080 H     1 <1>   0.0800 
 52 H        3.2770    -8.1620    -0.0660 H     1 <1>   0.0800 
 53 H        3.5360    -7.6400     1.5760 H     1 <1>   0.0800 
 54 H        1.5890    -9.9240     0.5970 H     1 <1>   0.0800 
 55 H        0.2770    -9.4960     1.6720 H     1 <1>   0.0800 
 56 H        1.9160    -9.5120     2.2620 H     1 <1>   0.0800 
@<TRIPOS>BOND
  1   1   2  1   
  2   2   3  ar  
  3   2   4  ar  
  4   3   5  ar  
  5   3   6  1   
  6   4   7  ar  
  7   4  30  1   
  8   5   8  ar  
  9   5  31  1   
 10   6   9  1   
 11   6  32  1   
 12   6  33  1   
 13   7   8  ar  
 14   7  34  1   
 15   8  35  1   
 16   9  10  1   
 17   9  11  ar  
 18  10  12  1   
 19  10  13  2   
 20  11  14  ar  
 21  11  15  1   
 22  12  16  2   
 23  12  17  am  
 24  13  14  1   
 25  13  18  1   
 26  14  36  1   
 27  15  19  1   
 28  15  37  1   
 29  15  38  1   
 30  17  20  am  
 31  17  21  1   
 32  18  20  am  
 33  18  22  1   
 34  19  23  1   
 35  19  24  1   
 36  20  25  2   
 37  21  39  1   
 38  21  40  1   
 39  21  41  1   
 40  22  42  1   
 41  22  43  1   
 42  22  44  1   
 43  23  26  1   
 44  23  45  1   
 45  23  46  1   
 46  24  27  1   
 47  24  47  1   
 48  24  48  1   
 49  26  28  1   
 50  26  29  1   
 51  26  49  1   
 52  27  28  1   
 53  27  50  1   
 54  27  51  1   
 55  28  52  1   
 56  28  53  1   
 57  29  54  1   
 58  29  55  1   
 59  29  56  1   
@<TRIPOS>SUBSTRUCTURE
  1 ****   9 GROUP 4 **** **** 0

# MOE 2024.06 (io_trps.svl 2023.06)
