@<TRIPOS>MOLECULE
8-(3-Methoxy-propyl)-1,7-dimethyl-3-(2-methyl-allyl)-1H,8H-imidazo[2,1-f]purine-
49 51 1 0 0 
SMALL
USER_CHARGES


@<TRIPOS>ATOM
  1 O        1.4800    -0.1670    -1.9110 O.2   1 <1>  -0.5750 
  2 C        2.1810     0.7220    -1.4720 C.2   1 <1>   0.6860 
  3 N        1.6380     1.9650    -1.1760 N.am  1 <1>  -0.4260 
  4 N        3.5380     0.4930    -1.2740 N.am  1 <1>  -0.4420 
  5 C        2.4360     3.0330    -0.7940 C.2   1 <1>   0.6990 
  6 C        0.1630     2.1340    -1.1460 C.3   1 <1>   0.2720 
  7 C        4.3200     1.5460    -0.8460 C.2   1 <1>   0.4200 
  8 C        4.1390    -0.8480    -1.5370 C.3   1 <1>   0.0520 
  9 O        1.9760     4.1560    -0.6550 O.2   1 <1>  -0.5750 
 10 C        3.8240     2.7830    -0.6000 C.2   1 <1>   0.2700 
 11 C       -0.3350     1.9690     0.2860 C.2   1 <1>  -0.2830 
 12 N        5.6600     1.5480    -0.6050 N.pl3 1 <1>  -0.7040 
 13 N        4.9130     3.5670    -0.1830 N.pl3 1 <1>  -0.6330 
 14 C       -0.7140     3.0030     1.0430 C.2   1 <1>  -0.3060 
 15 C       -0.3830     0.5330     0.7870 C.3   1 <1>  -0.1100 
 16 C        5.9780     2.7760    -0.2030 C.cat 1 <1>   1.0690 
 17 C        5.3410     4.8020     0.2590 C.2   1 <1>   0.2220 
 18 N        7.0820     3.4190     0.1950 N.pl3 1 <1>  -0.5720 
 19 C        6.6710     4.7120     0.4910 C.2   1 <1>   0.1570 
 20 C        8.4580     2.8560     0.2610 C.3   1 <1>   0.1600 
 21 C        7.6240     5.7830     0.9870 C.3   1 <1>  -0.1100 
 22 C        8.5430     1.7010     1.2710 C.3   1 <1>  -0.1670 
 23 C        8.8760     0.3550     0.6180 C.3   1 <1>   0.1120 
 24 O        7.9130     0.0540    -0.3440 O.3   1 <1>  -0.5650 
 25 C        8.1800    -1.1360    -1.0220 C.3   1 <1>   0.0320 
 26 H       -0.3220     1.4220    -1.7920 H     1 <1>   0.0720 
 27 H       -0.0910     3.1150    -1.5080 H     1 <1>   0.0720 
 28 H        3.3910    -1.6180    -1.4610 H     1 <1>   0.0720 
 29 H        4.9120    -1.0600    -0.8190 H     1 <1>   0.0720 
 30 H        4.5560    -0.8690    -2.5290 H     1 <1>   0.0720 
 31 H        6.3600     0.7910    -0.6260 H     1 <1>   0.4450 
 32 H       -1.0760     2.9140     2.0530 H     1 <1>   0.1430 
 33 H       -0.6940     4.0300     0.7190 H     1 <1>   0.1430 
 34 H        0.6040     0.1100     0.8330 H     1 <1>   0.0720 
 35 H       -0.9860    -0.0700     0.1310 H     1 <1>   0.0720 
 36 H       -0.8110     0.4910     1.7730 H     1 <1>   0.0720 
 37 H        4.6700     5.6400     0.3730 H     1 <1>   0.1430 
 38 H        9.1490     3.6280     0.5530 H     1 <1>   0.0720 
 39 H        8.7490     2.5200    -0.7210 H     1 <1>   0.0720 
 40 H        8.0850     5.4710     1.9080 H     1 <1>   0.0720 
 41 H        7.0960     6.7020     1.1650 H     1 <1>   0.0720 
 42 H        8.3910     5.9660     0.2560 H     1 <1>   0.0720 
 43 H        7.6430     1.6100     1.8530 H     1 <1>   0.0720 
 44 H        9.3380     1.9210     1.9620 H     1 <1>   0.0720 
 45 H        8.8830    -0.4290     1.3580 H     1 <1>   0.0720 
 46 H        9.8400     0.4010     0.1390 H     1 <1>   0.0720 
 47 H        8.1930    -1.9520    -0.3200 H     1 <1>   0.0720 
 48 H        9.1310    -1.0570    -1.5210 H     1 <1>   0.0720 
 49 H        7.4060    -1.2980    -1.7510 H     1 <1>   0.0720 
@<TRIPOS>BOND
  1   1   2  2   
  2   2   3  am  
  3   2   4  am  
  4   3   5  am  
  5   3   6  1   
  6   4   7  1   
  7   4   8  1   
  8   5   9  2   
  9   5  10  1   
 10   6  11  1   
 11   6  26  1   
 12   6  27  1   
 13   7  10  2   
 14   7  12  1   
 15   8  28  1   
 16   8  29  1   
 17   8  30  1   
 18  10  13  1   
 19  11  14  2   
 20  11  15  1   
 21  12  16  ar  
 22  12  31  1   
 23  13  16  ar  
 24  13  17  1   
 25  14  32  1   
 26  14  33  1   
 27  15  34  1   
 28  15  35  1   
 29  15  36  1   
 30  16  18  ar  
 31  17  19  2   
 32  17  37  1   
 33  18  19  1   
 34  18  20  1   
 35  19  21  1   
 36  20  22  1   
 37  20  38  1   
 38  20  39  1   
 39  21  40  1   
 40  21  41  1   
 41  21  42  1   
 42  22  23  1   
 43  22  43  1   
 44  22  44  1   
 45  23  24  1   
 46  23  45  1   
 47  23  46  1   
 48  24  25  1   
 49  25  47  1   
 50  25  48  1   
 51  25  49  1   
@<TRIPOS>SUBSTRUCTURE
  1 ****   7 GROUP 4 **** **** 0

# MOE 2024.06 (io_trps.svl 2023.06)
