@<TRIPOS>MOLECULE
2-Thiophen-3-yl-thiazolidine-4-carboxylic acid
22 23 1 0 0 
SMALL
USER_CHARGES


@<TRIPOS>ATOM
  1 S        0.4010     0.3620     1.5670 S.3   1 <1>  -0.0800 
  2 C        1.8310    -0.4490     0.9560 C.2   1 <1>  -0.1100 
  3 C        0.6330     1.6950     0.4530 C.2   1 <1>  -0.1100 
  4 C        2.4190     0.2690    -0.0230 C.2   1 <1>  -0.1810 
  5 C        1.7250     1.4970    -0.3070 C.2   1 <1>  -0.1500 
  6 C        3.6790    -0.0960    -0.7910 C.3   1 <1>   0.8340 
  7 S        4.2490    -1.7530    -0.3870 S.3   1 <1>  -0.4600 
  8 N        4.7710     0.7510    -0.3570 N.4   1 <1>  -0.9060 
  9 C        5.9660    -1.3610     0.0120 C.3   1 <1>   0.0700 
 10 C        6.1320     0.0970    -0.4040 C.3   1 <1>   0.3170 
 11 C        7.0960     0.7880     0.5590 C.2   1 <1>   0.9060 
 12 O        6.5620     1.5240     1.4000 O.co2 1 <1>  -0.9000 
 13 O        8.3050     0.5990     0.4550 O.co2 1 <1>  -0.9000 
 14 H        2.0770    -1.3950     1.4100 H     1 <1>   0.1500 
 15 H       -0.0870     2.4950     0.4880 H     1 <1>   0.1500 
 16 H        2.0620     2.1840    -1.0640 H     1 <1>   0.1500 
 17 H        3.5330    -0.0600    -1.8580 H     1 <1>   0.0800 
 18 H        4.6570     0.9610     0.6510 H     1 <1>   0.4500 
 19 H        4.7840     1.6710    -0.7930 H     1 <1>   0.4500 
 20 H        6.6230    -2.0190    -0.5280 H     1 <1>   0.0800 
 21 H        6.0940    -1.4920     1.0730 H     1 <1>   0.0800 
 22 H        6.5420     0.1480    -1.3960 H     1 <1>   0.0800 
@<TRIPOS>BOND
  1   1   2  1   
  2   1   3  1   
  3   2   4  2   
  4   2  14  1   
  5   3   5  2   
  6   3  15  1   
  7   4   5  1   
  8   4   6  1   
  9   5  16  1   
 10   6   7  1   
 11   6   8  1   
 12   6  17  1   
 13   7   9  1   
 14   8  10  1   
 15   8  18  1   
 16   8  19  1   
 17   9  10  1   
 18   9  20  1   
 19   9  21  1   
 20  10  11  1   
 21  10  22  1   
 22  11  12  ar  
 23  11  13  ar  
@<TRIPOS>SUBSTRUCTURE
  1 ****   8 GROUP 4 **** **** 0

# MOE 2024.06 (io_trps.svl 2023.06)
