@<TRIPOS>MOLECULE
N-Benzyl-N-methyl-4-(2-oxo-2-pyrrolidin-1-yl-ethoxy)-benzenesulfonamide
51 53 1 0 0 
SMALL
USER_CHARGES


@<TRIPOS>ATOM
  1 S       -0.4620     0.9450     1.7390 S.o2  1 <1>   1.4470 
  2 O       -0.4600     0.2460     3.0060 O.2   1 <1>  -0.6500 
  3 O       -1.2990     2.1130     1.5770 O.2   1 <1>  -0.6500 
  4 N       -0.9470    -0.1810     0.5710 N.am  1 <1>  -0.8490 
  5 C        1.2340     1.3580     1.2500 C.ar  1 <1>  -0.0090 
  6 C       -2.4000    -0.3610     0.6400 C.3   1 <1>   0.3390 
  7 C       -0.2480    -1.4690     0.7010 C.3   1 <1>   0.1160 
  8 C        2.2760     1.3280     2.1710 C.ar  1 <1>  -0.1500 
  9 C        1.5310     1.7200    -0.0580 C.ar  1 <1>  -0.1500 
 10 C       -2.9020    -1.3030    -0.4490 C.ar  1 <1>  -0.1430 
 11 C        3.5730     1.6390     1.8020 C.ar  1 <1>  -0.1500 
 12 C        2.8240     2.0320    -0.4380 C.ar  1 <1>  -0.1500 
 13 C       -2.7320    -0.9740    -1.7850 C.ar  1 <1>  -0.1500 
 14 C       -3.5320    -2.4940    -0.1180 C.ar  1 <1>  -0.1500 
 15 C        3.8530     1.9890     0.4860 C.ar  1 <1>   0.0830 
 16 C       -3.1850    -1.8230    -2.7800 C.ar  1 <1>  -0.1500 
 17 C       -3.9860    -3.3440    -1.1120 C.ar  1 <1>  -0.1500 
 18 O        5.0900     2.2950     0.0330 O.3   1 <1>  -0.3630 
 19 C       -3.8120    -3.0090    -2.4430 C.ar  1 <1>  -0.1500 
 20 C        6.2340     2.1750     0.8670 C.3   1 <1>   0.1810 
 21 C        7.5230     2.4230     0.0910 C.2   1 <1>   0.5690 
 22 O        8.2720     3.2780     0.5060 O.2   1 <1>  -0.5700 
 23 N        7.8380     1.6740    -1.0130 N.am  1 <1>  -0.6600 
 24 C        6.9880     0.6350    -1.6360 C.3   1 <1>   0.1400 
 25 C        9.0740     1.8900    -1.7930 C.3   1 <1>   0.1400 
 26 C        7.8750     0.0010    -2.7010 C.3   1 <1>  -0.1600 
 27 C        8.8670     1.0970    -3.0790 C.3   1 <1>  -0.1600 
 28 H       -2.8910     0.5880     0.5050 H     1 <1>   0.0800 
 29 H       -2.6750    -0.7380     1.6120 H     1 <1>   0.0800 
 30 H        0.8180    -1.3160     0.6910 H     1 <1>   0.0800 
 31 H       -0.4930    -2.1160    -0.1240 H     1 <1>   0.0800 
 32 H       -0.5190    -1.9590     1.6220 H     1 <1>   0.0800 
 33 H        2.0670     1.0580     3.1930 H     1 <1>   0.1500 
 34 H        0.7380     1.7570    -0.7870 H     1 <1>   0.1500 
 35 H        4.3420     1.6070     2.5510 H     1 <1>   0.1500 
 36 H        3.0410     2.3120    -1.4540 H     1 <1>   0.1500 
 37 H       -2.2400    -0.0530    -2.0500 H     1 <1>   0.1500 
 38 H       -3.6750    -2.7670     0.9130 H     1 <1>   0.1500 
 39 H       -3.0480    -1.5600    -3.8140 H     1 <1>   0.1500 
 40 H       -4.4740    -4.2670    -0.8500 H     1 <1>   0.1500 
 41 H       -4.1650    -3.6700    -3.2160 H     1 <1>   0.1500 
 42 H        6.2570     1.1840     1.2760 H     1 <1>   0.0800 
 43 H        6.1480     2.8980     1.6570 H     1 <1>   0.0800 
 44 H        6.1350     1.1070    -2.0940 H     1 <1>   0.0800 
 45 H        6.6600    -0.0890    -0.9100 H     1 <1>   0.0800 
 46 H        9.9110     1.5030    -1.2370 H     1 <1>   0.0800 
 47 H        9.2250     2.9390    -1.9890 H     1 <1>   0.0800 
 48 H        7.3030    -0.3440    -3.5440 H     1 <1>   0.0800 
 49 H        8.3990    -0.8330    -2.2680 H     1 <1>   0.0800 
 50 H        9.7930     0.7030    -3.4580 H     1 <1>   0.0800 
 51 H        8.4320     1.7450    -3.8200 H     1 <1>   0.0800 
@<TRIPOS>BOND
  1   1   2  2   
  2   1   3  2   
  3   1   4  am  
  4   1   5  1   
  5   4   6  1   
  6   4   7  1   
  7   5   8  ar  
  8   5   9  ar  
  9   6  10  1   
 10   6  28  1   
 11   6  29  1   
 12   7  30  1   
 13   7  31  1   
 14   7  32  1   
 15   8  11  ar  
 16   8  33  1   
 17   9  12  ar  
 18   9  34  1   
 19  10  13  ar  
 20  10  14  ar  
 21  11  15  ar  
 22  11  35  1   
 23  12  15  ar  
 24  12  36  1   
 25  13  16  ar  
 26  13  37  1   
 27  14  17  ar  
 28  14  38  1   
 29  15  18  1   
 30  16  19  ar  
 31  16  39  1   
 32  17  19  ar  
 33  17  40  1   
 34  18  20  1   
 35  19  41  1   
 36  20  21  1   
 37  20  42  1   
 38  20  43  1   
 39  21  22  2   
 40  21  23  am  
 41  23  24  1   
 42  23  25  1   
 43  24  26  1   
 44  24  44  1   
 45  24  45  1   
 46  25  27  1   
 47  25  46  1   
 48  25  47  1   
 49  26  27  1   
 50  26  48  1   
 51  26  49  1   
 52  27  50  1   
 53  27  51  1   
@<TRIPOS>SUBSTRUCTURE
  1 ****   9 GROUP 4 **** **** 0

# MOE 2024.06 (io_trps.svl 2023.06)
