@<TRIPOS>MOLECULE
1-Furan-2-ylmethyl-piperidine-3-carboxylic acid
30 31 1 0 0 
SMALL
USER_CHARGES


@<TRIPOS>ATOM
  1 O        0.7760    -2.3200    -0.7580 O.co2 1 <1>  -0.9000 
  2 C       -0.3910    -2.6910    -0.8200 C.2   1 <1>   0.9060 
  3 O       -0.7820    -3.6160    -1.5460 O.co2 1 <1>  -0.9000 
  4 C       -1.3920    -2.1150     0.1520 C.3   1 <1>  -0.1860 
  5 C       -1.7600    -3.2910     1.0450 C.3   1 <1>   0.3430 
  6 C       -2.6160    -1.4640    -0.5490 C.3   1 <1>  -0.1600 
  7 N       -2.6930    -4.1470     0.2740 N.4   1 <1>  -0.9590 
  8 C       -3.9440    -1.9890     0.0220 C.3   1 <1>  -0.1600 
  9 C       -4.0230    -3.5250     0.0110 C.3   1 <1>   0.3430 
 10 C       -2.7010    -5.5660     0.7090 C.3   1 <1>   0.5230 
 11 C       -3.8440    -6.3470     0.0760 C.2   1 <1>  -0.0400 
 12 O       -3.9250    -6.4180    -1.2400 O.3   1 <1>  -0.2800 
 13 C       -4.8670    -7.0230     0.6460 C.2   1 <1>  -0.1500 
 14 C       -4.9880    -7.1370    -1.5380 C.2   1 <1>  -0.0100 
 15 C       -5.6180    -7.5420    -0.4160 C.2   1 <1>  -0.1500 
 16 H       -0.8800    -1.3800     0.7450 H     1 <1>   0.0800 
 17 H       -2.2310    -2.9450     1.9490 H     1 <1>   0.0800 
 18 H       -0.8630    -3.8360     1.2950 H     1 <1>   0.0800 
 19 H       -2.5840    -1.6850    -1.6040 H     1 <1>   0.0800 
 20 H       -2.5640    -0.3940    -0.4480 H     1 <1>   0.0800 
 21 H       -2.2080    -4.1670    -0.6640 H     1 <1>   0.4500 
 22 H       -4.7680    -1.5900    -0.5440 H     1 <1>   0.0800 
 23 H       -4.0580    -1.6410     1.0340 H     1 <1>   0.0800 
 24 H       -4.7370    -3.8490     0.7490 H     1 <1>   0.0800 
 25 H       -4.3690    -3.8570    -0.9550 H     1 <1>   0.0800 
 26 H       -2.8010    -5.6130     1.7790 H     1 <1>   0.0800 
 27 H       -1.7650    -6.0250     0.4340 H     1 <1>   0.0800 
 28 H       -5.0980    -7.1650     1.6880 H     1 <1>   0.1500 
 29 H       -5.2220    -7.3130    -2.5750 H     1 <1>   0.1500 
 30 H       -6.5080    -8.1410    -0.3230 H     1 <1>   0.1500 
@<TRIPOS>BOND
  1   1   2  ar  
  2   2   3  ar  
  3   2   4  1   
  4   4   5  1   
  5   4   6  1   
  6   4  16  1   
  7   5   7  1   
  8   5  17  1   
  9   5  18  1   
 10   6   8  1   
 11   6  19  1   
 12   6  20  1   
 13   7   9  1   
 14   7  10  1   
 15   7  21  1   
 16   8   9  1   
 17   8  22  1   
 18   8  23  1   
 19   9  24  1   
 20   9  25  1   
 21  10  11  1   
 22  10  26  1   
 23  10  27  1   
 24  11  12  1   
 25  11  13  2   
 26  12  14  1   
 27  13  15  1   
 28  13  28  1   
 29  14  15  2   
 30  14  29  1   
 31  15  30  1   
@<TRIPOS>SUBSTRUCTURE
  1 ****   7 GROUP 4 **** **** 0

# MOE 2024.06 (io_trps.svl 2023.06)
