@<TRIPOS>MOLECULE
7-(3-Allyloxy-2-hydroxy-propyl)-3-methyl-8-pyrrolidin-1-yl-3,7-dihydro-purine-2,
49 51 1 0 0 
SMALL
USER_CHARGES


@<TRIPOS>ATOM
  1 O        1.7320     1.9440     3.1200 O.2   1 <1>  -0.5750 
  2 C        2.6070     2.1230     2.3060 C.2   1 <1>   0.6860 
  3 N        3.6940     1.2690     2.1850 N.am  1 <1>  -0.4420 
  4 N        2.5170     3.2060     1.4810 N.am  1 <1>  -0.4950 
  5 C        4.6490     1.5750     1.2270 C.2   1 <1>   0.4200 
  6 C        3.8340     0.0720     3.0660 C.3   1 <1>   0.0520 
  7 C        3.4460     3.5180     0.5320 C.2   1 <1>   0.6990 
  8 N        5.7920     0.8970     0.9490 N.pl3 1 <1>  -0.7040 
  9 C        4.5780     2.6440     0.4040 C.2   1 <1>   0.2700 
 10 O        3.2810     4.5080    -0.1510 O.2   1 <1>  -0.5750 
 11 C        6.4370     1.5210    -0.0400 C.cat 1 <1>   1.0690 
 12 N        5.7310     2.6060    -0.4070 N.pl3 1 <1>  -0.7680 
 13 N        7.6200     1.0670    -0.5140 N.pl3 1 <1>  -0.5970 
 14 C        6.0180     3.7050    -1.3890 C.3   1 <1>   0.3480 
 15 C        8.3360     1.5280    -1.7340 C.3   1 <1>   0.1600 
 16 C        8.3860    -0.0410     0.1180 C.3   1 <1>   0.1600 
 17 C        6.5690     4.9790    -0.7190 C.3   1 <1>   0.1930 
 18 C        9.4910     0.5550    -1.9280 C.3   1 <1>  -0.1680 
 19 C        9.7570    -0.0090    -0.5400 C.3   1 <1>  -0.1680 
 20 O        7.1290     5.7780    -1.7000 O.3   1 <1>  -0.6840 
 21 C        7.6460     4.7290     0.3460 C.3   1 <1>   0.1120 
 22 O        8.0960     5.9570     0.8260 O.3   1 <1>  -0.5650 
 23 C        9.2190     5.9220     1.6560 C.3   1 <1>   0.2510 
 24 C        8.9390     5.1010     2.9050 C.2   1 <1>  -0.2950 
 25 C        8.7170     5.6070     4.1220 C.2   1 <1>  -0.3070 
 26 H        1.7090     3.8160     1.5940 H     1 <1>   0.3640 
 27 H        2.9500    -0.0700     3.6650 H     1 <1>   0.0720 
 28 H        4.6730     0.2020     3.7270 H     1 <1>   0.0720 
 29 H        3.9790    -0.8100     2.4680 H     1 <1>   0.0720 
 30 H        6.1110     0.0440     1.3950 H     1 <1>   0.4440 
 31 H        5.1090     3.9620    -1.9070 H     1 <1>   0.0720 
 32 H        6.7140     3.3780    -2.1340 H     1 <1>   0.0720 
 33 H        8.7250     2.5190    -1.5750 H     1 <1>   0.0720 
 34 H        7.6890     1.5150    -2.5950 H     1 <1>   0.0720 
 35 H        7.9030    -0.9800    -0.0990 H     1 <1>   0.0720 
 36 H        8.4720     0.0920     1.1840 H     1 <1>   0.0720 
 37 H        5.7560     5.5310    -0.2780 H     1 <1>   0.0720 
 38 H       10.3580     1.0390    -2.3450 H     1 <1>   0.0720 
 39 H        9.1840    -0.2350    -2.5930 H     1 <1>   0.0720 
 40 H       10.2110    -0.9840    -0.5750 H     1 <1>   0.0720 
 41 H       10.4030     0.6550     0.0100 H     1 <1>   0.0720 
 42 H        7.5710     6.5330    -1.2490 H     1 <1>   0.3940 
 43 H        8.4790     4.1910    -0.0730 H     1 <1>   0.0720 
 44 H        7.2300     4.1790     1.1700 H     1 <1>   0.0720 
 45 H        9.4410     6.9400     1.9270 H     1 <1>   0.0720 
 46 H       10.0530     5.5240     1.1030 H     1 <1>   0.0720 
 47 H        8.9460     4.0420     2.7200 H     1 <1>   0.1420 
 48 H        8.5280     5.0130     5.0000 H     1 <1>   0.1420 
 49 H        8.7050     6.6610     4.3440 H     1 <1>   0.1420 
@<TRIPOS>BOND
  1   1   2  2   
  2   2   3  am  
  3   2   4  am  
  4   3   5  1   
  5   3   6  1   
  6   4   7  am  
  7   4  26  1   
  8   5   8  1   
  9   5   9  2   
 10   6  27  1   
 11   6  28  1   
 12   6  29  1   
 13   7   9  1   
 14   7  10  2   
 15   8  11  ar  
 16   8  30  1   
 17   9  12  1   
 18  11  12  ar  
 19  11  13  ar  
 20  12  14  1   
 21  13  15  1   
 22  13  16  1   
 23  14  17  1   
 24  14  31  1   
 25  14  32  1   
 26  15  18  1   
 27  15  33  1   
 28  15  34  1   
 29  16  19  1   
 30  16  35  1   
 31  16  36  1   
 32  17  20  1   
 33  17  21  1   
 34  17  37  1   
 35  18  19  1   
 36  18  38  1   
 37  18  39  1   
 38  19  40  1   
 39  19  41  1   
 40  20  42  1   
 41  21  22  1   
 42  21  43  1   
 43  21  44  1   
 44  22  23  1   
 45  23  24  1   
 46  23  45  1   
 47  23  46  1   
 48  24  25  2   
 49  24  47  1   
 50  25  48  1   
 51  25  49  1   
@<TRIPOS>SUBSTRUCTURE
  1 ****  12 GROUP 4 **** **** 0

# MOE 2024.06 (io_trps.svl 2023.06)
