@<TRIPOS>MOLECULE
N-Cyclopentyl-3-(3-m-tolyl-[1,2,4]oxadiazol-5-yl)-propionamide
43 45 1 0 0 
SMALL
USER_CHARGES


@<TRIPOS>ATOM
  1 O        0.4100    -1.2060     2.3090 O.2   1 <1>  -0.5700 
  2 C        0.7850    -2.1730     1.6980 C.2   1 <1>   0.5690 
  3 N        2.0280    -2.1930     1.1680 N.am  1 <1>  -0.7300 
  4 C       -0.1690    -3.3340     1.5240 C.3   1 <1>  -0.0990 
  5 C        2.7110    -3.2230     0.3640 C.3   1 <1>   0.2200 
  6 C       -0.8980    -3.2350     0.1790 C.3   1 <1>   0.0200 
  7 C        4.0320    -3.5700     1.0380 C.3   1 <1>  -0.1600 
  8 C        3.1430    -2.6020    -0.9580 C.3   1 <1>  -0.1600 
  9 C       -1.7590    -4.4560    -0.0690 C.2   1 <1>   0.2980 
 10 C        5.0140    -2.4690     0.6230 C.3   1 <1>  -0.1600 
 11 C        4.4440    -1.8470    -0.6590 C.3   1 <1>  -0.1600 
 12 O       -1.1710    -5.6000    -0.2970 O.3   1 <1>  -0.0190 
 13 N       -3.0260    -4.4820    -0.0780 N.2   1 <1>  -0.5650 
 14 N       -2.1510    -6.4300    -0.4640 N.2   1 <1>  -0.4100 
 15 C       -3.2510    -5.7750    -0.3360 C.2   1 <1>   0.4620 
 16 C       -4.5890    -6.3340    -0.4480 C.ar  1 <1>   0.0540 
 17 C       -5.7320    -5.5470    -0.2840 C.ar  1 <1>  -0.1500 
 18 C       -4.7860    -7.6880    -0.7270 C.ar  1 <1>  -0.1500 
 19 C       -7.0070    -6.0750    -0.3900 C.ar  1 <1>  -0.1440 
 20 C       -6.0540    -8.2270    -0.8350 C.ar  1 <1>  -0.1500 
 21 C       -7.1650    -7.4210    -0.6680 C.ar  1 <1>  -0.1500 
 22 C       -8.2290    -5.1920    -0.2070 C.3   1 <1>  -0.0970 
 23 H        2.5930    -1.3610     1.3450 H     1 <1>   0.3700 
 24 H       -0.8910    -3.3100     2.3210 H     1 <1>   0.0800 
 25 H        0.3690    -4.2600     1.6030 H     1 <1>   0.0800 
 26 H        2.0910    -4.0900     0.2190 H     1 <1>   0.0800 
 27 H       -0.1890    -3.1450    -0.6240 H     1 <1>   0.0800 
 28 H       -1.5190    -2.3560     0.1740 H     1 <1>   0.0800 
 29 H        4.3790    -4.5100     0.6460 H     1 <1>   0.0800 
 30 H        3.9360    -3.6580     2.1070 H     1 <1>   0.0800 
 31 H        2.3840    -1.9660    -1.3800 H     1 <1>   0.0800 
 32 H        3.3550    -3.3940    -1.6540 H     1 <1>   0.0800 
 33 H        5.9990    -2.8730     0.4600 H     1 <1>   0.0800 
 34 H        5.0710    -1.7190     1.3940 H     1 <1>   0.0800 
 35 H        4.2320    -0.8050    -0.4920 H     1 <1>   0.0800 
 36 H        5.1350    -1.9330    -1.4800 H     1 <1>   0.0800 
 37 H       -5.6130    -4.4990    -0.0700 H     1 <1>   0.1500 
 38 H       -3.9320    -8.3290    -0.8600 H     1 <1>   0.1500 
 39 H       -6.1780    -9.2740    -1.0510 H     1 <1>   0.1500 
 40 H       -8.1510    -7.8450    -0.7540 H     1 <1>   0.1500 
 41 H       -7.9620    -4.2600     0.2580 H     1 <1>   0.0800 
 42 H       -8.9520    -5.6870     0.4160 H     1 <1>   0.0800 
 43 H       -8.6750    -4.9860    -1.1630 H     1 <1>   0.0800 
@<TRIPOS>BOND
  1   1   2  2   
  2   2   3  am  
  3   2   4  1   
  4   3   5  1   
  5   3  23  1   
  6   4   6  1   
  7   4  24  1   
  8   4  25  1   
  9   5   7  1   
 10   5   8  1   
 11   5  26  1   
 12   6   9  1   
 13   6  27  1   
 14   6  28  1   
 15   7  10  1   
 16   7  29  1   
 17   7  30  1   
 18   8  11  1   
 19   8  31  1   
 20   8  32  1   
 21   9  12  1   
 22   9  13  2   
 23  10  11  1   
 24  10  33  1   
 25  10  34  1   
 26  11  35  1   
 27  11  36  1   
 28  12  14  1   
 29  13  15  1   
 30  14  15  2   
 31  15  16  1   
 32  16  17  ar  
 33  16  18  ar  
 34  17  19  ar  
 35  17  37  1   
 36  18  20  ar  
 37  18  38  1   
 38  19  21  ar  
 39  19  22  1   
 40  20  21  ar  
 41  20  39  1   
 42  21  40  1   
 43  22  41  1   
 44  22  42  1   
 45  22  43  1   
@<TRIPOS>SUBSTRUCTURE
  1 ****   9 GROUP 4 **** **** 0

# MOE 2024.06 (io_trps.svl 2023.06)
