@<TRIPOS>MOLECULE
2-(4-Chloro-phenoxy)-N-[2-(4-methanesulfonyl-piperazin-1-yl)-phenyl]-acetamide
50 52 1 0 0 
SMALL
USER_CHARGES


@<TRIPOS>ATOM
  1 CL      -0.7180    -1.7730    -0.7900 Cl    1 <1>  -0.1770 
  2 C       -2.4500    -1.6320    -0.6180 C.ar  1 <1>   0.1770 
  3 C       -3.1740    -2.7020    -0.1260 C.ar  1 <1>  -0.1500 
  4 C       -3.0700    -0.4490    -0.9760 C.ar  1 <1>  -0.1500 
  5 C       -4.5450    -2.5790     0.0090 C.ar  1 <1>  -0.1500 
  6 C       -4.4450    -0.3310    -0.8420 C.ar  1 <1>  -0.1500 
  7 C       -5.1880    -1.4030    -0.3490 C.ar  1 <1>   0.0830 
  8 O       -6.5330    -1.3780    -0.1920 O.3   1 <1>  -0.3630 
  9 C       -7.2890    -0.1950    -0.4290 C.3   1 <1>   0.1810 
 10 C       -8.7770    -0.4340    -0.2040 C.2   1 <1>   0.5690 
 11 O       -9.5330     0.4960    -0.3540 O.2   1 <1>  -0.5700 
 12 N       -9.1770    -1.6890     0.1440 N.am  1 <1>  -0.5470 
 13 C      -10.4130    -2.3140     0.3660 C.ar  1 <1>   0.1170 
 14 C      -10.3840    -3.7040     0.5530 C.ar  1 <1>   0.1000 
 15 C      -11.6240    -1.6390     0.4120 C.ar  1 <1>  -0.1500 
 16 N       -9.1550    -4.3860     0.5000 N.pl3 1 <1>  -0.8380 
 17 C      -11.5750    -4.3810     0.7770 C.ar  1 <1>  -0.1500 
 18 C      -12.8040    -2.3280     0.6380 C.ar  1 <1>  -0.1500 
 19 C       -8.7650    -5.2140     1.6770 C.3   1 <1>   0.2090 
 20 C       -8.8370    -5.0700    -0.7880 C.3   1 <1>   0.2090 
 21 C      -12.7790    -3.7000     0.8210 C.ar  1 <1>  -0.1500 
 22 C       -7.2780    -5.6080     1.5860 C.3   1 <1>   0.1960 
 23 C       -7.3540    -5.4880    -0.8370 C.3   1 <1>   0.1960 
 24 N       -6.9560    -6.3150     0.3250 N.am  1 <1>  -0.8490 
 25 S       -5.3330    -6.7860     0.2310 S.o2  1 <1>   1.3330 
 26 O       -4.5480    -5.8460     0.9990 O.2   1 <1>  -0.6500 
 27 O       -5.0150    -7.0280    -1.1570 O.2   1 <1>  -0.6500 
 28 C       -5.3400    -8.3560     1.0670 C.3   1 <1>  -0.1350 
 29 H       -2.6760    -3.6160     0.1490 H     1 <1>   0.1500 
 30 H       -2.4800     0.3660    -1.3550 H     1 <1>   0.1500 
 31 H       -5.1180    -3.4010     0.3950 H     1 <1>   0.1500 
 32 H       -4.9100     0.5940    -1.1260 H     1 <1>   0.1500 
 33 H       -7.1360     0.1100    -1.4470 H     1 <1>   0.0800 
 34 H       -6.9440     0.5700     0.2430 H     1 <1>   0.0800 
 35 H       -8.4210    -2.3780     0.2270 H     1 <1>   0.3700 
 36 H      -11.6520    -0.5740     0.2720 H     1 <1>   0.1500 
 37 H      -11.5600    -5.4460     0.9120 H     1 <1>   0.1500 
 38 H      -13.7380    -1.7950     0.6720 H     1 <1>   0.1500 
 39 H       -9.3680    -6.1040     1.7150 H     1 <1>   0.0800 
 40 H       -8.9340    -4.6500     2.5790 H     1 <1>   0.0800 
 41 H       -9.0490    -4.4040    -1.6070 H     1 <1>   0.0800 
 42 H       -9.4570    -5.9430    -0.8970 H     1 <1>   0.0800 
 43 H      -13.6970    -4.2350     0.9950 H     1 <1>   0.1500 
 44 H       -7.0340    -6.2380     2.4240 H     1 <1>   0.0800 
 45 H       -6.6870    -4.7110     1.6660 H     1 <1>   0.0800 
 46 H       -6.7430    -4.6020    -0.8810 H     1 <1>   0.0800 
 47 H       -7.1930    -6.0420    -1.7460 H     1 <1>   0.0800 
 48 H       -5.6520    -8.2370     2.0850 H     1 <1>   0.0800 
 49 H       -4.3560    -8.7800     1.0560 H     1 <1>   0.0800 
 50 H       -6.0110    -9.0320     0.5740 H     1 <1>   0.0800 
@<TRIPOS>BOND
  1   1   2  1   
  2   2   3  ar  
  3   2   4  ar  
  4   3   5  ar  
  5   3  29  1   
  6   4   6  ar  
  7   4  30  1   
  8   5   7  ar  
  9   5  31  1   
 10   6   7  ar  
 11   6  32  1   
 12   7   8  1   
 13   8   9  1   
 14   9  10  1   
 15   9  33  1   
 16   9  34  1   
 17  10  11  2   
 18  10  12  am  
 19  12  13  1   
 20  12  35  1   
 21  13  14  ar  
 22  13  15  ar  
 23  14  16  1   
 24  14  17  ar  
 25  15  18  ar  
 26  15  36  1   
 27  16  19  1   
 28  16  20  1   
 29  17  21  ar  
 30  17  37  1   
 31  18  21  ar  
 32  18  38  1   
 33  19  22  1   
 34  19  39  1   
 35  19  40  1   
 36  20  23  1   
 37  20  41  1   
 38  20  42  1   
 39  21  43  1   
 40  22  24  1   
 41  22  44  1   
 42  22  45  1   
 43  23  24  1   
 44  23  46  1   
 45  23  47  1   
 46  24  25  am  
 47  25  26  2   
 48  25  27  2   
 49  25  28  1   
 50  28  48  1   
 51  28  49  1   
 52  28  50  1   
@<TRIPOS>SUBSTRUCTURE
  1 ****   8 GROUP 4 **** **** 0

# MOE 2024.06 (io_trps.svl 2023.06)
