@<TRIPOS>MOLECULE
N-[5-Chloro-2-(4-propionyl-piperazin-1-yl)-phenyl]-2-phenoxy-acetamide
52 54 1 0 0 
SMALL
USER_CHARGES


@<TRIPOS>ATOM
  1 CL      -0.3330     0.1060    -0.7940 Cl    1 <1>  -0.1770 
  2 C       -1.8430     0.9590    -0.5810 C.ar  1 <1>   0.1770 
  3 C       -2.9950     0.2430    -0.3180 C.ar  1 <1>  -0.1500 
  4 C       -1.8550     2.3380    -0.6780 C.ar  1 <1>  -0.1500 
  5 C       -4.1930     0.9200    -0.1460 C.ar  1 <1>   0.1170 
  6 C       -3.0510     3.0170    -0.5100 C.ar  1 <1>  -0.1500 
  7 N       -5.4140     0.2900     0.1370 N.am  1 <1>  -0.5470 
  8 C       -4.2240     2.3210    -0.2460 C.ar  1 <1>   0.1000 
  9 C       -5.8600    -0.9980     0.1200 C.2   1 <1>   0.5690 
 10 N       -5.4430     2.9970    -0.0860 N.pl3 1 <1>  -0.8380 
 11 O       -5.1480    -1.9490    -0.0960 O.2   1 <1>  -0.5700 
 12 C       -7.3460    -1.2420     0.3570 C.3   1 <1>   0.1810 
 13 C       -5.5980     4.0540     0.9480 C.3   1 <1>   0.2090 
 14 C       -6.2910     3.2460    -1.2810 C.3   1 <1>   0.2090 
 15 O       -8.0220    -0.0340     0.6940 O.3   1 <1>  -0.3630 
 16 C       -7.0600     4.0960     1.4250 C.3   1 <1>   0.1400 
 17 C       -7.7750     3.2680    -0.8750 C.3   1 <1>   0.1400 
 18 C       -9.3690     0.0120     0.8390 C.ar  1 <1>   0.0830 
 19 N       -8.0520     4.1800     0.2930 N.am  1 <1>  -0.6600 
 20 C      -10.2180    -1.0500     0.5380 C.ar  1 <1>  -0.1500 
 21 C       -9.9070     1.1990     1.3110 C.ar  1 <1>  -0.1500 
 22 C       -9.2070     4.9050     0.4480 C.2   1 <1>   0.5690 
 23 C      -11.5860    -0.9090     0.6990 C.ar  1 <1>  -0.1500 
 24 C      -11.2740     1.3400     1.4700 C.ar  1 <1>  -0.1500 
 25 O       -9.3840     5.6010     1.4200 O.2   1 <1>  -0.5700 
 26 C      -10.3090     4.8290    -0.6080 C.3   1 <1>  -0.0990 
 27 C      -12.1140     0.2840     1.1620 C.ar  1 <1>  -0.1500 
 28 C      -11.6340     5.5040    -0.2120 C.3   1 <1>  -0.2400 
 29 H       -2.9500    -0.8270    -0.2460 H     1 <1>   0.1500 
 30 H       -0.9420     2.8670    -0.8830 H     1 <1>   0.1500 
 31 H       -3.0790     4.0880    -0.5870 H     1 <1>   0.1500 
 32 H       -6.1330     0.9940     0.3390 H     1 <1>   0.3700 
 33 H       -7.4760    -1.9410     1.1620 H     1 <1>   0.0800 
 34 H       -7.7740    -1.6350    -0.5470 H     1 <1>   0.0800 
 35 H       -5.3270     5.0110     0.5370 H     1 <1>   0.0800 
 36 H       -4.9500     3.8460     1.7820 H     1 <1>   0.0800 
 37 H       -6.1250     2.4720    -2.0110 H     1 <1>   0.0800 
 38 H       -6.0230     4.1900    -1.7230 H     1 <1>   0.0800 
 39 H       -7.1790     4.9350     2.0880 H     1 <1>   0.0800 
 40 H       -7.2580     3.2050     1.9920 H     1 <1>   0.0800 
 41 H       -8.0720     2.2690    -0.6130 H     1 <1>   0.0800 
 42 H       -8.3500     3.5670    -1.7320 H     1 <1>   0.0800 
 43 H       -9.8420    -1.9890     0.1780 H     1 <1>   0.1500 
 44 H       -9.2550     2.0160     1.5590 H     1 <1>   0.1500 
 45 H      -12.2440    -1.7280     0.4650 H     1 <1>   0.1500 
 46 H      -11.6800     2.2680     1.8360 H     1 <1>   0.1500 
 47 H      -10.5110     3.7940    -0.8140 H     1 <1>   0.0800 
 48 H       -9.9440     5.2890    -1.5070 H     1 <1>   0.0800 
 49 H      -13.1780     0.3910     1.2860 H     1 <1>   0.1500 
 50 H      -12.0250     5.0560     0.6850 H     1 <1>   0.0800 
 51 H      -12.3590     5.3960    -0.9980 H     1 <1>   0.0800 
 52 H      -11.4760     6.5520    -0.0280 H     1 <1>   0.0800 
@<TRIPOS>BOND
  1   1   2  1   
  2   2   3  ar  
  3   2   4  ar  
  4   3   5  ar  
  5   3  29  1   
  6   4   6  ar  
  7   4  30  1   
  8   5   7  1   
  9   5   8  ar  
 10   6   8  ar  
 11   6  31  1   
 12   7   9  am  
 13   7  32  1   
 14   8  10  1   
 15   9  11  2   
 16   9  12  1   
 17  10  13  1   
 18  10  14  1   
 19  12  15  1   
 20  12  33  1   
 21  12  34  1   
 22  13  16  1   
 23  13  35  1   
 24  13  36  1   
 25  14  17  1   
 26  14  37  1   
 27  14  38  1   
 28  15  18  1   
 29  16  19  1   
 30  16  39  1   
 31  16  40  1   
 32  17  19  1   
 33  17  41  1   
 34  17  42  1   
 35  18  20  ar  
 36  18  21  ar  
 37  19  22  am  
 38  20  23  ar  
 39  20  43  1   
 40  21  24  ar  
 41  21  44  1   
 42  22  25  2   
 43  22  26  1   
 44  23  27  ar  
 45  23  45  1   
 46  24  27  ar  
 47  24  46  1   
 48  26  28  1   
 49  26  47  1   
 50  26  48  1   
 51  27  49  1   
 52  28  50  1   
 53  28  51  1   
 54  28  52  1   
@<TRIPOS>SUBSTRUCTURE
  1 ****  10 GROUP 4 **** **** 0

# MOE 2024.06 (io_trps.svl 2023.06)
