@<TRIPOS>MOLECULE
N-[5-(4-Chloro-phenoxymethyl)-[1,3,4]thiadiazol-2-yl]-3-ethoxy-propionamide
38 39 1 0 0 
SMALL
USER_CHARGES


@<TRIPOS>ATOM
  1 CL      -0.3550    -0.8120     0.5850 Cl    1 <1>  -0.1770 
  2 C       -2.0550    -1.1350     0.3550 C.ar  1 <1>   0.1770 
  3 C       -2.9860    -0.2120     0.7980 C.ar  1 <1>  -0.1500 
  4 C       -2.4450    -2.3070    -0.2660 C.ar  1 <1>  -0.1500 
  5 C       -4.3360    -0.4650     0.6180 C.ar  1 <1>  -0.1500 
  6 C       -3.7950    -2.5570    -0.4450 C.ar  1 <1>  -0.1500 
  7 C       -4.7440    -1.6440    -0.0060 C.ar  1 <1>   0.0830 
  8 O       -6.0420    -1.9730    -0.2220 O.3   1 <1>  -0.3630 
  9 C       -7.0940    -1.1230     0.1890 C.3   1 <1>   0.3000 
 10 C       -8.4300    -1.7350    -0.1860 C.2   1 <1>   0.1980 
 11 S       -8.7580    -3.3680     0.2900 S.3   1 <1>  -0.0800 
 12 N       -9.3980    -1.2040    -0.8150 N.2   1 <1>  -0.3380 
 13 C      -10.3060    -3.2020    -0.4720 C.2   1 <1>   0.4420 
 14 N      -10.4720    -2.0350    -0.9810 N.2   1 <1>  -0.3380 
 15 N      -11.1330    -4.3050    -0.4320 N.am  1 <1>  -0.4940 
 16 C      -12.3910    -4.4620    -0.9360 C.2   1 <1>   0.5690 
 17 O      -12.9880    -3.5990    -1.5250 O.2   1 <1>  -0.5700 
 18 C      -13.0650    -5.8020    -0.7370 C.3   1 <1>  -0.0990 
 19 C      -14.4870    -5.6220    -0.2160 C.3   1 <1>   0.1200 
 20 O      -14.9850    -6.8820     0.0910 O.3   1 <1>  -0.5600 
 21 C      -16.3020    -6.8740     0.5260 C.3   1 <1>   0.1200 
 22 C      -16.6930    -8.3140     0.8310 C.3   1 <1>  -0.2400 
 23 H       -2.6500     0.6900     1.2770 H     1 <1>   0.1500 
 24 H       -1.7020    -3.0080    -0.6020 H     1 <1>   0.1500 
 25 H       -5.0410     0.2640     0.9680 H     1 <1>   0.1500 
 26 H       -4.1190    -3.4630    -0.9260 H     1 <1>   0.1500 
 27 H       -6.9790    -0.1750    -0.3050 H     1 <1>   0.0800 
 28 H       -7.0350    -0.9980     1.2540 H     1 <1>   0.0800 
 29 H      -10.7360    -5.1150     0.0340 H     1 <1>   0.3700 
 30 H      -12.5080    -6.3950    -0.0350 H     1 <1>   0.0800 
 31 H      -13.0970    -6.3130    -1.6810 H     1 <1>   0.0800 
 32 H      -15.1100    -5.1670    -0.9690 H     1 <1>   0.0800 
 33 H      -14.4950    -5.0200     0.6770 H     1 <1>   0.0800 
 34 H      -16.9250    -6.4690    -0.2540 H     1 <1>   0.0800 
 35 H      -16.3750    -6.2640     1.4110 H     1 <1>   0.0800 
 36 H      -16.6050    -8.9160    -0.0550 H     1 <1>   0.0800 
 37 H      -17.7110    -8.3510     1.1730 H     1 <1>   0.0800 
 38 H      -16.0570    -8.7140     1.6010 H     1 <1>   0.0800 
@<TRIPOS>BOND
  1   1   2  1   
  2   2   3  ar  
  3   2   4  ar  
  4   3   5  ar  
  5   3  23  1   
  6   4   6  ar  
  7   4  24  1   
  8   5   7  ar  
  9   5  25  1   
 10   6   7  ar  
 11   6  26  1   
 12   7   8  1   
 13   8   9  1   
 14   9  10  1   
 15   9  27  1   
 16   9  28  1   
 17  10  11  1   
 18  10  12  2   
 19  11  13  1   
 20  12  14  1   
 21  13  14  2   
 22  13  15  1   
 23  15  16  am  
 24  15  29  1   
 25  16  17  2   
 26  16  18  1   
 27  18  19  1   
 28  18  30  1   
 29  18  31  1   
 30  19  20  1   
 31  19  32  1   
 32  19  33  1   
 33  20  21  1   
 34  21  22  1   
 35  21  34  1   
 36  21  35  1   
 37  22  36  1   
 38  22  37  1   
 39  22  38  1   
@<TRIPOS>SUBSTRUCTURE
  1 ****  11 GROUP 4 **** **** 0

# MOE 2024.06 (io_trps.svl 2023.06)
