@<TRIPOS>MOLECULE
2-Phenethyl-piperidine
34 35 1 0 0 
SMALL
USER_CHARGES


@<TRIPOS>ATOM
  1 N       -0.3350    -0.4110    -0.3750 N.4   1 <1>  -0.9060 
  2 C       -1.2300    -1.5590    -0.1060 C.3   1 <1>   0.4230 
  3 C       -1.0670     0.8540    -0.6490 C.3   1 <1>   0.3430 
  4 C       -2.0970    -1.2390     1.1220 C.3   1 <1>  -0.1600 
  5 C       -0.3540    -2.8000     0.0880 C.3   1 <1>  -0.1600 
  6 C       -1.9240     1.2190     0.5640 C.3   1 <1>  -0.1600 
  7 C       -2.8720     0.0760     0.9500 C.3   1 <1>  -0.1600 
  8 C       -1.1590    -4.1020     0.2140 C.3   1 <1>  -0.0170 
  9 C       -0.2030    -5.2790     0.2660 C.ar  1 <1>  -0.1430 
 10 C        0.1480    -5.9510    -0.8950 C.ar  1 <1>  -0.1500 
 11 C        0.3350    -5.6880     1.4770 C.ar  1 <1>  -0.1500 
 12 C        1.0300    -7.0160    -0.8470 C.ar  1 <1>  -0.1500 
 13 C        1.2170    -6.7540     1.5260 C.ar  1 <1>  -0.1500 
 14 C        1.5660    -7.4180     0.3630 C.ar  1 <1>  -0.1500 
 15 H        0.2800    -0.6410    -1.1630 H     1 <1>   0.4500 
 16 H        0.2630    -0.2770     0.4470 H     1 <1>   0.4500 
 17 H       -1.8730    -1.7130    -0.9580 H     1 <1>   0.0800 
 18 H       -1.7010     0.7310    -1.5130 H     1 <1>   0.0800 
 19 H       -0.3680     1.6520    -0.8520 H     1 <1>   0.0800 
 20 H       -1.4780    -1.1830     2.0020 H     1 <1>   0.0800 
 21 H       -2.8080    -2.0310     1.2810 H     1 <1>   0.0800 
 22 H        0.2580    -2.6890     0.9660 H     1 <1>   0.0800 
 23 H        0.2980    -2.9060    -0.7620 H     1 <1>   0.0800 
 24 H       -2.5010     2.0990     0.3360 H     1 <1>   0.0800 
 25 H       -1.2850     1.4630     1.3960 H     1 <1>   0.0800 
 26 H       -3.3840     0.3210     1.8670 H     1 <1>   0.0800 
 27 H       -3.6190    -0.0450     0.1830 H     1 <1>   0.0800 
 28 H       -1.8220    -4.2180    -0.6270 H     1 <1>   0.0800 
 29 H       -1.7580    -4.1010     1.1080 H     1 <1>   0.0800 
 30 H       -0.2610    -5.6540    -1.8450 H     1 <1>   0.1500 
 31 H        0.0720    -5.1850     2.3910 H     1 <1>   0.1500 
 32 H        1.2990    -7.5350    -1.7510 H     1 <1>   0.1500 
 33 H        1.6320    -7.0680     2.4680 H     1 <1>   0.1500 
 34 H        2.2520    -8.2460     0.4010 H     1 <1>   0.1500 
@<TRIPOS>BOND
  1   1   2  1   
  2   1   3  1   
  3   1  15  1   
  4   1  16  1   
  5   2   4  1   
  6   2   5  1   
  7   2  17  1   
  8   3   6  1   
  9   3  18  1   
 10   3  19  1   
 11   4   7  1   
 12   4  20  1   
 13   4  21  1   
 14   5   8  1   
 15   5  22  1   
 16   5  23  1   
 17   6   7  1   
 18   6  24  1   
 19   6  25  1   
 20   7  26  1   
 21   7  27  1   
 22   8   9  1   
 23   8  28  1   
 24   8  29  1   
 25   9  10  ar  
 26   9  11  ar  
 27  10  12  ar  
 28  10  30  1   
 29  11  13  ar  
 30  11  31  1   
 31  12  14  ar  
 32  12  32  1   
 33  13  14  ar  
 34  13  33  1   
 35  14  34  1   
@<TRIPOS>SUBSTRUCTURE
  1 ****   5 GROUP 4 **** **** 0

# MOE 2024.06 (io_trps.svl 2023.06)
