@<TRIPOS>MOLECULE
1-Methyl-3-(2-methyl-allyl)-8-(4-methyl-benzyl)-7,8-dihydro-1H,6H-imidazo[2,1-f]
51 54 1 0 0 
SMALL
USER_CHARGES


@<TRIPOS>ATOM
  1 O        1.5360    -0.4670    -1.8920 O.2   1 <1>  -0.5740 
  2 C        2.3110    -0.0100    -1.0760 C.2   1 <1>   0.6860 
  3 N        1.9580     1.0960    -0.3130 N.am  1 <1>  -0.4260 
  4 N        3.5590    -0.5980    -0.9100 N.am  1 <1>  -0.4410 
  5 C        2.7870     1.5870     0.6840 C.2   1 <1>   0.6990 
  6 C        0.7370     1.8660    -0.6590 C.3   1 <1>   0.2720 
  7 C        4.4140    -0.0470     0.0220 C.2   1 <1>   0.4210 
  8 C        3.9860    -1.7680    -1.7350 C.3   1 <1>   0.0520 
  9 O        2.4240     2.4700     1.4440 O.2   1 <1>  -0.5740 
 10 C        4.0830     1.0010     0.8120 C.2   1 <1>   0.2710 
 11 C        1.1220     3.0450    -1.5460 C.2   1 <1>  -0.2830 
 12 N        5.6900    -0.4310     0.3180 N.pl3 1 <1>  -0.7040 
 13 N        5.2100     1.2410     1.6110 N.pl3 1 <1>  -0.7670 
 14 C        1.1790     4.3020    -1.0960 C.2   1 <1>  -0.3060 
 15 C        1.4240     2.6860    -2.9940 C.3   1 <1>  -0.1090 
 16 C        6.1330     0.3700     1.2790 C.cat 1 <1>   1.0690 
 17 C        5.6620     2.1560     2.6750 C.3   1 <1>   0.3480 
 18 N        7.2630     0.5090     1.9770 N.pl3 1 <1>  -0.5960 
 19 C        7.1050     1.6450     2.9360 C.3   1 <1>   0.1610 
 20 C        8.5200    -0.2840     1.8860 C.3   1 <1>   0.3050 
 21 C        8.3420    -1.3530     0.8240 C.ar  1 <1>  -0.1510 
 22 C        7.7990    -2.5850     1.1590 C.ar  1 <1>  -0.1570 
 23 C        8.6340    -1.0740    -0.5030 C.ar  1 <1>  -0.1570 
 24 C        7.5140    -3.5100     0.1710 C.ar  1 <1>  -0.1570 
 25 C        8.3470    -2.0020    -1.4870 C.ar  1 <1>  -0.1570 
 26 C        7.7750    -3.2180    -1.1560 C.ar  1 <1>  -0.1510 
 27 C        7.4630    -4.2360    -2.2390 C.3   1 <1>  -0.1040 
 28 H        0.2750     2.2280     0.2450 H     1 <1>   0.0720 
 29 H        0.0130     1.2450    -1.1580 H     1 <1>   0.0720 
 30 H        3.1280    -2.2940    -2.1190 H     1 <1>   0.0720 
 31 H        4.5620    -2.4550    -1.1410 H     1 <1>   0.0720 
 32 H        4.5810    -1.4280    -2.5640 H     1 <1>   0.0720 
 33 H        6.2660    -1.1820    -0.0840 H     1 <1>   0.4450 
 34 H        1.4400     5.1520    -1.7020 H     1 <1>   0.1430 
 35 H        0.9700     4.5900    -0.0790 H     1 <1>   0.1430 
 36 H        2.2880     2.0510    -3.0590 H     1 <1>   0.0720 
 37 H        1.6150     3.5730    -3.5720 H     1 <1>   0.0720 
 38 H        0.5860     2.1730    -3.4320 H     1 <1>   0.0720 
 39 H        5.0430     2.0630     3.5510 H     1 <1>   0.0720 
 40 H        5.6600     3.1770     2.3300 H     1 <1>   0.0720 
 41 H        7.2110     1.3040     3.9520 H     1 <1>   0.0720 
 42 H        7.8270     2.4180     2.7350 H     1 <1>   0.0720 
 43 H        8.7330    -0.7400     2.8380 H     1 <1>   0.0720 
 44 H        9.3410     0.3630     1.6250 H     1 <1>   0.0720 
 45 H        7.5850    -2.8330     2.1860 H     1 <1>   0.1430 
 46 H        9.0760    -0.1320    -0.7840 H     1 <1>   0.1430 
 47 H        7.0930    -4.4650     0.4410 H     1 <1>   0.1430 
 48 H        8.5770    -1.7780    -2.5150 H     1 <1>   0.1430 
 49 H        8.3210    -4.8630    -2.4030 H     1 <1>   0.0720 
 50 H        7.2150    -3.7440    -3.1630 H     1 <1>   0.0720 
 51 H        6.6340    -4.8570    -1.9510 H     1 <1>   0.0720 
@<TRIPOS>BOND
  1   1   2  2   
  2   2   3  am  
  3   2   4  am  
  4   3   5  am  
  5   3   6  1   
  6   4   7  1   
  7   4   8  1   
  8   5   9  2   
  9   5  10  1   
 10   6  11  1   
 11   6  28  1   
 12   6  29  1   
 13   7  10  2   
 14   7  12  1   
 15   8  30  1   
 16   8  31  1   
 17   8  32  1   
 18  10  13  1   
 19  11  14  2   
 20  11  15  1   
 21  12  16  ar  
 22  12  33  1   
 23  13  16  ar  
 24  13  17  1   
 25  14  34  1   
 26  14  35  1   
 27  15  36  1   
 28  15  37  1   
 29  15  38  1   
 30  16  18  ar  
 31  17  19  1   
 32  17  39  1   
 33  17  40  1   
 34  18  19  1   
 35  18  20  1   
 36  19  41  1   
 37  19  42  1   
 38  20  21  1   
 39  20  43  1   
 40  20  44  1   
 41  21  22  ar  
 42  21  23  ar  
 43  22  24  ar  
 44  22  45  1   
 45  23  25  ar  
 46  23  46  1   
 47  24  26  ar  
 48  24  47  1   
 49  25  26  ar  
 50  25  48  1   
 51  26  27  1   
 52  27  49  1   
 53  27  50  1   
 54  27  51  1   
@<TRIPOS>SUBSTRUCTURE
  1 ****   7 GROUP 4 **** **** 0

# MOE 2024.06 (io_trps.svl 2023.06)
