@<TRIPOS>MOLECULE
1-[4-(4,5-Dihydroxy-tetrahydro-pyran-2-ylamino)-phenyl]-ethanone
35 36 1 0 0 
SMALL
USER_CHARGES


@<TRIPOS>ATOM
  1 O        0.1950    -0.4820    -0.2590 O.2   1 <1>  -0.5700 
  2 C       -0.7370     0.2690    -0.1220 C.2   1 <1>   0.4230 
  3 C       -2.1070    -0.1810     0.0020 C.ar  1 <1>   0.0860 
  4 C       -0.4060     1.7480    -0.0850 C.3   1 <1>  -0.1790 
  5 C       -3.1960     0.6910     0.1230 C.ar  1 <1>  -0.1500 
  6 C       -2.4040    -1.5480     0.0090 C.ar  1 <1>  -0.1500 
  7 C       -4.4910     0.2250     0.2370 C.ar  1 <1>  -0.1500 
  8 C       -3.6970    -2.0160     0.1250 C.ar  1 <1>  -0.1500 
  9 C       -4.7670    -1.1360     0.2330 C.ar  1 <1>   0.1000 
 10 N       -6.0740    -1.5710     0.3450 N.pl3 1 <1>  -0.8690 
 11 C       -6.6130    -2.5320    -0.6030 C.3   1 <1>   0.5690 
 12 O       -7.9160    -2.0900    -0.8290 O.3   1 <1>  -0.5600 
 13 C       -6.5570    -3.9660    -0.0510 C.3   1 <1>  -0.1600 
 14 C       -8.8750    -2.3980     0.1550 C.3   1 <1>   0.1200 
 15 C       -7.8740    -4.6820    -0.3220 C.3   1 <1>   0.2000 
 16 C       -9.0440    -3.9210     0.3220 C.3   1 <1>   0.2000 
 17 O       -7.8100    -5.9810     0.1640 O.3   1 <1>  -0.6800 
 18 O      -10.2290    -4.3470    -0.2610 O.3   1 <1>  -0.6800 
 19 H       -0.8740     2.2510    -0.9100 H     1 <1>   0.0800 
 20 H        0.6580     1.8860    -0.1600 H     1 <1>   0.0800 
 21 H       -0.7400     2.1770     0.8410 H     1 <1>   0.0800 
 22 H       -3.0380     1.7540     0.1280 H     1 <1>   0.1500 
 23 H       -1.5940    -2.2530    -0.0750 H     1 <1>   0.1500 
 24 H       -5.3040     0.9210     0.3300 H     1 <1>   0.1500 
 25 H       -3.8750    -3.0740     0.1400 H     1 <1>   0.1500 
 26 H       -6.7620    -0.8160     0.3870 H     1 <1>   0.4000 
 27 H       -6.0850    -2.4660    -1.5420 H     1 <1>   0.0800 
 28 H       -6.3610    -3.9350     1.0060 H     1 <1>   0.0800 
 29 H       -5.7550    -4.4880    -0.5370 H     1 <1>   0.0800 
 30 H       -9.8080    -1.9450    -0.1330 H     1 <1>   0.0800 
 31 H       -8.5520    -1.9620     1.0840 H     1 <1>   0.0800 
 32 H       -8.0310    -4.7370    -1.3870 H     1 <1>   0.0800 
 33 H       -9.1060    -4.1450     1.3730 H     1 <1>   0.0800 
 34 H       -7.5470    -5.9860     1.1050 H     1 <1>   0.4000 
 35 H      -10.2080    -5.3240    -0.3340 H     1 <1>   0.4000 
@<TRIPOS>BOND
  1   1   2  2   
  2   2   3  1   
  3   2   4  1   
  4   3   5  ar  
  5   3   6  ar  
  6   4  19  1   
  7   4  20  1   
  8   4  21  1   
  9   5   7  ar  
 10   5  22  1   
 11   6   8  ar  
 12   6  23  1   
 13   7   9  ar  
 14   7  24  1   
 15   8   9  ar  
 16   8  25  1   
 17   9  10  1   
 18  10  11  1   
 19  10  26  1   
 20  11  12  1   
 21  11  13  1   
 22  11  27  1   
 23  12  14  1   
 24  13  15  1   
 25  13  28  1   
 26  13  29  1   
 27  14  16  1   
 28  14  30  1   
 29  14  31  1   
 30  15  16  1   
 31  15  17  1   
 32  15  32  1   
 33  16  18  1   
 34  16  33  1   
 35  17  34  1   
 36  18  35  1   
@<TRIPOS>SUBSTRUCTURE
  1 ****   9 GROUP 4 **** **** 0

# MOE 2024.06 (io_trps.svl 2023.06)
