@<TRIPOS>MOLECULE
1-(2-Cyclohex-1-enyl-ethyl)-2-methyl-5-oxo-4,5-dihydro-1H-pyrrole-3-carboxylic a
40 41 1 0 0 
SMALL
USER_CHARGES


@<TRIPOS>ATOM
  1 O       -0.9670    -0.3820     1.2540 O.2   1 <1>  -0.5700 
  2 C       -1.9370     0.1800     0.8070 C.2   1 <1>   0.5690 
  3 N       -2.9020    -0.3670     0.0090 N.am  1 <1>  -0.4690 
  4 C       -2.2720     1.6310     1.0640 C.3   1 <1>   0.0390 
  5 C       -3.8600     0.5820    -0.2930 C.2   1 <1>  -0.0290 
  6 C       -2.8670    -1.7890    -0.4250 C.3   1 <1>   0.1400 
  7 C       -3.5740     1.7780     0.2780 C.2   1 <1>  -0.1240 
  8 C       -5.0400     0.1950    -1.1740 C.3   1 <1>  -0.1020 
  9 C       -3.5460    -2.6820     0.6180 C.3   1 <1>  -0.0220 
 10 C       -4.2080     3.0620     0.2860 C.2   1 <1>   0.7060 
 11 C       -3.6390    -4.1540     0.2120 C.2   1 <1>  -0.2760 
 12 O       -3.7540     4.0090     0.8990 O.2   1 <1>  -0.5700 
 13 O       -5.3410     3.2330    -0.4030 O.3   1 <1>  -0.4300 
 14 C       -3.1940    -4.6770    -0.9380 C.2   1 <1>  -0.2880 
 15 C       -4.3060    -5.0090     1.2870 C.3   1 <1>  -0.0220 
 16 C       -6.0120     4.4780    -0.4350 C.3   1 <1>   0.0400 
 17 C       -3.2740    -6.1520    -1.3010 C.3   1 <1>  -0.0220 
 18 C       -4.7190    -6.3900     0.7560 C.3   1 <1>  -0.1600 
 19 C       -3.5960    -7.0180    -0.0770 C.3   1 <1>  -0.1600 
 20 H       -1.4990     2.2690     0.6770 H     1 <1>   0.0800 
 21 H       -2.4180     1.8030     2.1140 H     1 <1>   0.0800 
 22 H       -1.8430    -2.0960    -0.5460 H     1 <1>   0.0800 
 23 H       -3.3620    -1.8880    -1.3740 H     1 <1>   0.0800 
 24 H       -5.5670    -0.6350    -0.7400 H     1 <1>   0.0800 
 25 H       -4.6890    -0.0880    -2.1500 H     1 <1>   0.0800 
 26 H       -5.7350     1.0010    -1.2920 H     1 <1>   0.0800 
 27 H       -4.5390    -2.3110     0.7960 H     1 <1>   0.0800 
 28 H       -2.9880    -2.6130     1.5360 H     1 <1>   0.0800 
 29 H       -2.7320    -4.1030    -1.7210 H     1 <1>   0.1500 
 30 H       -5.1840    -4.5130     1.6620 H     1 <1>   0.0800 
 31 H       -3.6180    -5.1310     2.1050 H     1 <1>   0.0800 
 32 H       -6.8900     4.3770    -1.0470 H     1 <1>   0.0800 
 33 H       -5.3520     5.2190    -0.8530 H     1 <1>   0.0800 
 34 H       -6.2880     4.7500     0.5690 H     1 <1>   0.0800 
 35 H       -2.3350    -6.4720    -1.7190 H     1 <1>   0.0800 
 36 H       -4.0350    -6.2820    -2.0500 H     1 <1>   0.0800 
 37 H       -5.5950    -6.2820     0.1400 H     1 <1>   0.0800 
 38 H       -4.9690    -7.0320     1.5820 H     1 <1>   0.0800 
 39 H       -2.7140    -7.1050     0.5340 H     1 <1>   0.0800 
 40 H       -3.8800    -8.0050    -0.3970 H     1 <1>   0.0800 
@<TRIPOS>BOND
  1   1   2  2   
  2   2   3  am  
  3   2   4  1   
  4   3   5  1   
  5   3   6  1   
  6   4   7  1   
  7   4  20  1   
  8   4  21  1   
  9   5   7  2   
 10   5   8  1   
 11   6   9  1   
 12   6  22  1   
 13   6  23  1   
 14   7  10  1   
 15   8  24  1   
 16   8  25  1   
 17   8  26  1   
 18   9  11  1   
 19   9  27  1   
 20   9  28  1   
 21  10  12  2   
 22  10  13  1   
 23  11  14  2   
 24  11  15  1   
 25  13  16  1   
 26  14  17  1   
 27  14  29  1   
 28  15  18  1   
 29  15  30  1   
 30  15  31  1   
 31  16  32  1   
 32  16  33  1   
 33  16  34  1   
 34  17  19  1   
 35  17  35  1   
 36  17  36  1   
 37  18  19  1   
 38  18  37  1   
 39  18  38  1   
 40  19  39  1   
 41  19  40  1   
@<TRIPOS>SUBSTRUCTURE
  1 ****   3 GROUP 4 **** **** 0

# MOE 2024.06 (io_trps.svl 2023.06)
