@<TRIPOS>MOLECULE
N-Cyclohexyl-3-(3-o-tolyl-[1,2,4]oxadiazol-5-yl)-propionamide
46 48 1 0 0 
SMALL
USER_CHARGES


@<TRIPOS>ATOM
  1 O        1.2460    -1.3220    -2.1990 O.2   1 <1>  -0.5700 
  2 C        1.0060    -1.6490    -1.0640 C.2   1 <1>   0.5690 
  3 N        1.4130    -0.9280     0.0080 N.am  1 <1>  -0.7300 
  4 C        0.2030    -2.9070    -0.8320 C.3   1 <1>  -0.0990 
  5 C        2.1950     0.3170    -0.0580 C.3   1 <1>   0.2200 
  6 C       -1.2450    -2.7150    -1.2970 C.3   1 <1>   0.0200 
  7 C        3.5210     0.1090     0.6810 C.3   1 <1>  -0.1600 
  8 C        1.3770     1.4490     0.5720 C.3   1 <1>  -0.1600 
  9 C       -2.0750    -3.9490    -1.0080 C.2   1 <1>   0.2980 
 10 C        4.3350     1.4100     0.7370 C.3   1 <1>  -0.1600 
 11 C        2.1870     2.7530     0.6280 C.3   1 <1>  -0.1600 
 12 O       -1.8770    -5.0250    -1.7230 O.3   1 <1>  -0.0190 
 13 N       -2.9620    -4.0450    -0.1080 N.2   1 <1>  -0.5650 
 14 C        3.5180     2.5480     1.3650 C.3   1 <1>  -0.1600 
 15 N       -2.7100    -5.8860    -1.2310 N.2   1 <1>  -0.4100 
 16 C       -3.3580    -5.3110    -0.2800 C.2   1 <1>   0.4620 
 17 C       -4.3720    -5.9480     0.5420 C.ar  1 <1>   0.0540 
 18 C       -5.6200    -5.3740     0.8280 C.ar  1 <1>  -0.1440 
 19 C       -4.1000    -7.2060     1.0810 C.ar  1 <1>  -0.1500 
 20 C       -6.5280    -6.0420     1.6350 C.ar  1 <1>  -0.1500 
 21 C       -6.0220    -4.0180     0.2620 C.3   1 <1>  -0.0970 
 22 C       -5.0100    -7.8700     1.8810 C.ar  1 <1>  -0.1500 
 23 C       -6.2280    -7.2840     2.1620 C.ar  1 <1>  -0.1500 
 24 H        1.1870    -1.2400     0.9520 H     1 <1>   0.3700 
 25 H        0.2190    -3.1650     0.2110 H     1 <1>   0.0800 
 26 H        0.6590    -3.7090    -1.3830 H     1 <1>   0.0800 
 27 H        2.4010     0.5630    -1.0870 H     1 <1>   0.0800 
 28 H       -1.2700    -2.5110    -2.3530 H     1 <1>   0.0800 
 29 H       -1.6800    -1.8750    -0.7850 H     1 <1>   0.0800 
 30 H        4.0950    -0.6460     0.1730 H     1 <1>   0.0800 
 31 H        3.3270    -0.2250     1.6850 H     1 <1>   0.0800 
 32 H        1.0890     1.1750     1.5710 H     1 <1>   0.0800 
 33 H        0.4870     1.6100    -0.0100 H     1 <1>   0.0800 
 34 H        4.6260     1.6910    -0.2610 H     1 <1>   0.0800 
 35 H        5.2320     1.2510     1.3090 H     1 <1>   0.0800 
 36 H        1.6120     3.5150     1.1260 H     1 <1>   0.0800 
 37 H        2.3850     3.0930    -0.3750 H     1 <1>   0.0800 
 38 H        4.0900     3.4600     1.3340 H     1 <1>   0.0800 
 39 H        3.3220     2.3190     2.3980 H     1 <1>   0.0800 
 40 H       -3.1530    -7.6700     0.8660 H     1 <1>   0.1500 
 41 H       -7.4830    -5.5990     1.8590 H     1 <1>   0.1500 
 42 H       -5.7930    -3.9690    -0.7870 H     1 <1>   0.0800 
 43 H       -5.4880    -3.2370     0.7720 H     1 <1>   0.0800 
 44 H       -7.0760    -3.8440     0.3830 H     1 <1>   0.0800 
 45 H       -4.7700    -8.8380     2.2840 H     1 <1>   0.1500 
 46 H       -6.9420    -7.7930     2.7870 H     1 <1>   0.1500 
@<TRIPOS>BOND
  1   1   2  2   
  2   2   3  am  
  3   2   4  1   
  4   3   5  1   
  5   3  24  1   
  6   4   6  1   
  7   4  25  1   
  8   4  26  1   
  9   5   7  1   
 10   5   8  1   
 11   5  27  1   
 12   6   9  1   
 13   6  28  1   
 14   6  29  1   
 15   7  10  1   
 16   7  30  1   
 17   7  31  1   
 18   8  11  1   
 19   8  32  1   
 20   8  33  1   
 21   9  12  1   
 22   9  13  2   
 23  10  14  1   
 24  10  34  1   
 25  10  35  1   
 26  11  14  1   
 27  11  36  1   
 28  11  37  1   
 29  12  15  1   
 30  13  16  1   
 31  14  38  1   
 32  14  39  1   
 33  15  16  2   
 34  16  17  1   
 35  17  18  ar  
 36  17  19  ar  
 37  18  20  ar  
 38  18  21  1   
 39  19  22  ar  
 40  19  40  1   
 41  20  23  ar  
 42  20  41  1   
 43  21  42  1   
 44  21  43  1   
 45  21  44  1   
 46  22  23  ar  
 47  22  45  1   
 48  23  46  1   
@<TRIPOS>SUBSTRUCTURE
  1 ****   6 GROUP 4 **** **** 0

# MOE 2024.06 (io_trps.svl 2023.06)
