@<TRIPOS>MOLECULE
3-(2-Methoxy-benzoylamino)-4-(4-methyl-piperazin-1-yl)-benzoic acid methyl ester
54 56 1 0 0 
SMALL
USER_CHARGES


@<TRIPOS>ATOM
  1 O        0.5370     0.5700    -0.5540 O.2   1 <1>  -0.5700 
  2 C        0.9460    -0.5420    -0.2850 C.2   1 <1>   0.6340 
  3 O        0.0550    -1.5180    -0.0710 O.3   1 <1>  -0.4300 
  4 C        2.3540    -0.8690    -0.1850 C.ar  1 <1>   0.0860 
  5 C       -1.3380    -1.2830    -0.1460 C.3   1 <1>   0.0400 
  6 C        3.3350     0.1160    -0.3200 C.ar  1 <1>  -0.1500 
  7 C        2.8030    -2.1690     0.0470 C.ar  1 <1>  -0.1500 
  8 C        4.6900    -0.1510    -0.2320 C.ar  1 <1>   0.1170 
  9 C        4.1500    -2.4590     0.1330 C.ar  1 <1>  -0.1500 
 10 N        5.5620     0.9440    -0.3910 N.am  1 <1>  -0.5470 
 11 C        5.1220    -1.4760    -0.0030 C.ar  1 <1>   0.1000 
 12 C        6.3600     1.5560     0.5380 C.2   1 <1>   0.5440 
 13 N        6.4560    -1.8870     0.0960 N.pl3 1 <1>  -0.8380 
 14 O        6.5230     1.0360     1.6280 O.2   1 <1>  -0.5700 
 15 C        7.0290     2.8010     0.2260 C.ar  1 <1>   0.0860 
 16 C        6.9280    -2.4480     1.4060 C.3   1 <1>   0.2090 
 17 C        7.4910    -1.4780    -0.9100 C.3   1 <1>   0.2090 
 18 C        7.6670     3.0370    -1.0030 C.ar  1 <1>   0.0830 
 19 C        7.0580     3.8160     1.1830 C.ar  1 <1>  -0.1500 
 20 C        8.3670    -2.0190     1.7720 C.3   1 <1>   0.3430 
 21 C        8.6800    -0.6940    -0.2960 C.3   1 <1>   0.3430 
 22 O        7.6690     2.0450    -1.9310 O.3   1 <1>  -0.3630 
 23 C        8.2910     4.2600    -1.2430 C.ar  1 <1>  -0.1500 
 24 C        7.6800     5.0240     0.9400 C.ar  1 <1>  -0.1500 
 25 N        8.6780    -0.6710     1.2070 N.4   1 <1>  -0.9590 
 26 C        8.0680     2.2670    -3.2700 C.3   1 <1>   0.0400 
 27 C        8.2970     5.2480    -0.2770 C.ar  1 <1>  -0.1500 
 28 C        9.8790    -0.0200     1.7970 C.3   1 <1>   0.2630 
 29 H       -1.8510    -2.2040     0.0620 H     1 <1>   0.0800 
 30 H       -1.5790    -0.9380    -1.1360 H     1 <1>   0.0800 
 31 H       -1.6040    -0.5360     0.5820 H     1 <1>   0.0800 
 32 H        3.0140     1.1280    -0.4930 H     1 <1>   0.1500 
 33 H        2.0880    -2.9660     0.1580 H     1 <1>   0.1500 
 34 H        4.4590    -3.4740     0.3000 H     1 <1>   0.1500 
 35 H        5.4650     1.4540    -1.2700 H     1 <1>   0.3700 
 36 H        6.8700    -3.5220     1.3790 H     1 <1>   0.0800 
 37 H        6.2640    -2.1080     2.1830 H     1 <1>   0.0800 
 38 H        7.0350    -0.8870    -1.6840 H     1 <1>   0.0800 
 39 H        7.8720    -2.3670    -1.3820 H     1 <1>   0.0800 
 40 H        6.5780     3.6520     2.1340 H     1 <1>   0.1500 
 41 H        9.0610    -2.7440     1.3820 H     1 <1>   0.0800 
 42 H        8.4630    -2.0080     2.8450 H     1 <1>   0.0800 
 43 H        8.6420     0.3180    -0.6630 H     1 <1>   0.0800 
 44 H        9.5970    -1.1300    -0.6540 H     1 <1>   0.0800 
 45 H        8.7840     4.4680    -2.1740 H     1 <1>   0.1500 
 46 H        7.6850     5.7940     1.6950 H     1 <1>   0.1500 
 47 H        7.8320    -0.1040     1.4510 H     1 <1>   0.4500 
 48 H        7.8750     1.3720    -3.8350 H     1 <1>   0.0800 
 49 H        9.1200     2.4910    -3.2930 H     1 <1>   0.0800 
 50 H        7.4950     3.0820    -3.6780 H     1 <1>   0.0800 
 51 H        8.7800     6.1920    -0.4680 H     1 <1>   0.1500 
 52 H       10.7660    -0.5860     1.5650 H     1 <1>   0.0800 
 53 H        9.7760     0.0450     2.8680 H     1 <1>   0.0800 
 54 H        9.9880     0.9780     1.4050 H     1 <1>   0.0800 
@<TRIPOS>BOND
  1   1   2  2   
  2   2   3  1   
  3   2   4  1   
  4   3   5  1   
  5   4   6  ar  
  6   4   7  ar  
  7   5  29  1   
  8   5  30  1   
  9   5  31  1   
 10   6   8  ar  
 11   6  32  1   
 12   7   9  ar  
 13   7  33  1   
 14   8  10  1   
 15   8  11  ar  
 16   9  11  ar  
 17   9  34  1   
 18  10  12  am  
 19  10  35  1   
 20  11  13  1   
 21  12  14  2   
 22  12  15  1   
 23  13  16  1   
 24  13  17  1   
 25  15  18  ar  
 26  15  19  ar  
 27  16  20  1   
 28  16  36  1   
 29  16  37  1   
 30  17  21  1   
 31  17  38  1   
 32  17  39  1   
 33  18  22  1   
 34  18  23  ar  
 35  19  24  ar  
 36  19  40  1   
 37  20  25  1   
 38  20  41  1   
 39  20  42  1   
 40  21  25  1   
 41  21  43  1   
 42  21  44  1   
 43  22  26  1   
 44  23  27  ar  
 45  23  45  1   
 46  24  27  ar  
 47  24  46  1   
 48  25  28  1   
 49  25  47  1   
 50  26  48  1   
 51  26  49  1   
 52  26  50  1   
 53  27  51  1   
 54  28  52  1   
 55  28  53  1   
 56  28  54  1   
@<TRIPOS>SUBSTRUCTURE
  1 ****  10 GROUP 4 **** **** 0

# MOE 2024.06 (io_trps.svl 2023.06)
