@<TRIPOS>MOLECULE
N-(3-Isopropoxy-propyl)-2-(2-oxo-2H-benzo[cd]indol-1-yl)-acetamide
46 48 1 0 0 
SMALL
USER_CHARGES


@<TRIPOS>ATOM
  1 O        4.8170    -0.7180    -0.7430 O.2   1 <1>  -0.5700 
  2 C        4.0930    -1.4940    -0.1450 C.2   1 <1>   0.5440 
  3 N        4.1030    -1.6400     1.2260 N.am  1 <1>  -0.4770 
  4 C        3.1380    -2.4120    -0.7060 C.ar  1 <1>   0.0860 
  5 C        3.2060    -2.6480     1.5760 C.ar  1 <1>   0.1170 
  6 C        4.9830    -0.8790     2.1580 C.3   1 <1>   0.2010 
  7 C        2.6260    -3.0960     0.3930 C.ar  1 <1>   0.0000 
  8 C        2.6630    -2.7410    -1.9560 C.ar  1 <1>  -0.1500 
  9 C        2.8280    -3.2270     2.7640 C.ar  1 <1>  -0.1500 
 10 C        6.4360    -1.3420     2.1130 C.2   1 <1>   0.5690 
 11 C        1.6660    -4.1010     0.3240 C.ar  1 <1>   0.0000 
 12 C        1.6890    -3.7460    -2.0780 C.ar  1 <1>  -0.1500 
 13 C        1.8620    -4.2460     2.7420 C.ar  1 <1>  -0.1500 
 14 O        6.9570    -1.7310     3.1310 O.2   1 <1>  -0.5700 
 15 N        7.1060    -1.2900     0.9310 N.am  1 <1>  -0.7300 
 16 C        1.2940    -4.6730     1.5590 C.ar  1 <1>  -0.1500 
 17 C        1.2020    -4.4100    -0.9720 C.ar  1 <1>  -0.1500 
 18 C        8.5060    -1.6970     0.7110 C.3   1 <1>   0.1400 
 19 C        9.2160    -0.6270    -0.1140 C.3   1 <1>  -0.1600 
 20 C       10.6790    -1.0010    -0.3370 C.3   1 <1>   0.1200 
 21 O       11.2560    -0.0050    -1.1170 O.3   1 <1>  -0.5600 
 22 C       12.6090    -0.1640    -1.3880 C.3   1 <1>   0.2000 
 23 C       13.1650     1.2290    -1.6590 C.3   1 <1>  -0.2400 
 24 C       12.7640    -1.0670    -2.6120 C.3   1 <1>  -0.2400 
 25 H        4.6150    -0.9830     3.1620 H     1 <1>   0.0800 
 26 H        4.9490     0.1620     1.8950 H     1 <1>   0.0800 
 27 H        3.0350    -2.2330    -2.8290 H     1 <1>   0.1500 
 28 H        3.2610    -2.9140     3.6970 H     1 <1>   0.1500 
 29 H        1.3240    -3.9940    -3.0610 H     1 <1>   0.1500 
 30 H        1.5680    -4.6970     3.6740 H     1 <1>   0.1500 
 31 H        6.5780    -0.9970     0.0930 H     1 <1>   0.3700 
 32 H        0.5550    -5.4540     1.5580 H     1 <1>   0.1500 
 33 H        0.4570    -5.1780    -1.0780 H     1 <1>   0.1500 
 34 H        8.5190    -2.6390     0.1900 H     1 <1>   0.0800 
 35 H        9.0010    -1.8220     1.6600 H     1 <1>   0.0800 
 36 H        9.1720     0.3130     0.4080 H     1 <1>   0.0800 
 37 H        8.7300    -0.5290    -1.0690 H     1 <1>   0.0800 
 38 H       10.7540    -1.9400    -0.8570 H     1 <1>   0.0800 
 39 H       11.2030    -1.0540     0.6020 H     1 <1>   0.0800 
 40 H       13.1000    -0.5880    -0.5280 H     1 <1>   0.0800 
 41 H       12.6620     1.6750    -2.4980 H     1 <1>   0.0800 
 42 H       14.2160     1.1730    -1.8750 H     1 <1>   0.0800 
 43 H       13.0270     1.8500    -0.7930 H     1 <1>   0.0800 
 44 H       12.2120    -0.6640    -3.4420 H     1 <1>   0.0800 
 45 H       12.4160    -2.0600    -2.4000 H     1 <1>   0.0800 
 46 H       13.8010    -1.1300    -2.8890 H     1 <1>   0.0800 
@<TRIPOS>BOND
  1   1   2  2   
  2   2   3  am  
  3   2   4  1   
  4   3   5  1   
  5   3   6  1   
  6   4   7  ar  
  7   4   8  ar  
  8   5   7  ar  
  9   5   9  ar  
 10   6  10  1   
 11   6  25  1   
 12   6  26  1   
 13   7  11  ar  
 14   8  12  ar  
 15   8  27  1   
 16   9  13  ar  
 17   9  28  1   
 18  10  14  2   
 19  10  15  am  
 20  11  16  ar  
 21  11  17  ar  
 22  12  17  ar  
 23  12  29  1   
 24  13  16  ar  
 25  13  30  1   
 26  15  18  1   
 27  15  31  1   
 28  16  32  1   
 29  17  33  1   
 30  18  19  1   
 31  18  34  1   
 32  18  35  1   
 33  19  20  1   
 34  19  36  1   
 35  19  37  1   
 36  20  21  1   
 37  20  38  1   
 38  20  39  1   
 39  21  22  1   
 40  22  23  1   
 41  22  24  1   
 42  22  40  1   
 43  23  41  1   
 44  23  42  1   
 45  23  43  1   
 46  24  44  1   
 47  24  45  1   
 48  24  46  1   
@<TRIPOS>SUBSTRUCTURE
  1 ****  15 GROUP 4 **** **** 0

# MOE 2024.06 (io_trps.svl 2023.06)
