@<TRIPOS>MOLECULE
5-Oxo-1-(toluene-4-sulfonyl)-pyrrolidine-2-carboxylic acid (2-methoxy-ethyl)-ami
43 44 1 0 0 
SMALL
USER_CHARGES


@<TRIPOS>ATOM
  1 S        0.3810     0.2930    -1.5510 S.o2  1 <1>   1.4470 
  2 O        1.6330    -0.1140    -2.1510 O.2   1 <1>  -0.6500 
  3 O       -0.5080     1.1410    -2.3080 O.2   1 <1>  -0.6500 
  4 N        0.8510     1.2240    -0.1880 N.am  1 <1>  -0.7300 
  5 C       -0.4600    -1.1530    -0.8510 C.ar  1 <1>  -0.0090 
  6 C       -0.0400     1.7170     0.6730 C.2   1 <1>   0.7450 
  7 C        2.1030     2.0060    -0.2290 C.3   1 <1>   0.3370 
  8 C        0.2670    -2.1820    -0.2620 C.ar  1 <1>  -0.1500 
  9 C       -1.8440    -1.2670    -0.8690 C.ar  1 <1>  -0.1500 
 10 O       -1.1630     1.3180     0.8370 O.2   1 <1>  -0.5700 
 11 C        0.5260     2.8920     1.4190 C.3   1 <1>  -0.0990 
 12 C        3.2980     1.2020     0.3410 C.2   1 <1>   0.5690 
 13 C        1.7420     3.2800     0.5670 C.3   1 <1>  -0.1600 
 14 C       -0.3640    -3.2880     0.2800 C.ar  1 <1>  -0.1500 
 15 C       -2.4810    -2.3710    -0.3290 C.ar  1 <1>  -0.1500 
 16 O        3.7810     1.5030     1.4080 O.2   1 <1>  -0.5700 
 17 N        3.7880     0.1530    -0.3740 N.am  1 <1>  -0.7300 
 18 C       -1.7430    -3.3900     0.2470 C.ar  1 <1>  -0.1430 
 19 C        4.8580    -0.7710     0.0820 C.3   1 <1>   0.1400 
 20 C       -2.4400    -4.6000     0.8420 C.3   1 <1>  -0.0970 
 21 C        6.2360    -0.1390    -0.1130 C.3   1 <1>   0.1200 
 22 O        7.2050    -1.0980     0.1780 O.3   1 <1>  -0.5600 
 23 C        8.5090    -0.6200     0.1070 C.3   1 <1>   0.0400 
 24 H        2.3340     2.2770    -1.2450 H     1 <1>   0.0800 
 25 H        1.3410    -2.1190    -0.2250 H     1 <1>   0.1500 
 26 H       -2.4340    -0.4770    -1.3040 H     1 <1>   0.1500 
 27 H        0.8270     2.5690     2.4000 H     1 <1>   0.0800 
 28 H       -0.1920     3.6880     1.4920 H     1 <1>   0.0800 
 29 H        1.4560     4.0460    -0.1330 H     1 <1>   0.0800 
 30 H        2.5560     3.6570     1.1600 H     1 <1>   0.0800 
 31 H        0.2250    -4.0690     0.7300 H     1 <1>   0.1500 
 32 H       -3.5560    -2.4280    -0.3560 H     1 <1>   0.1500 
 33 H        3.3050    -0.1160    -1.2470 H     1 <1>   0.3700 
 34 H        4.7990    -1.6850    -0.4830 H     1 <1>   0.0800 
 35 H        4.7170    -0.9940     1.1260 H     1 <1>   0.0800 
 36 H       -1.8150    -5.4710     0.7660 H     1 <1>   0.0800 
 37 H       -3.3610    -4.7970     0.3230 H     1 <1>   0.0800 
 38 H       -2.6590    -4.4190     1.8790 H     1 <1>   0.0800 
 39 H        6.3570     0.6940     0.5580 H     1 <1>   0.0800 
 40 H        6.3650     0.1750    -1.1340 H     1 <1>   0.0800 
 41 H        9.1750    -1.4320     0.3400 H     1 <1>   0.0800 
 42 H        8.6370     0.1710     0.8270 H     1 <1>   0.0800 
 43 H        8.7050    -0.2640    -0.8890 H     1 <1>   0.0800 
@<TRIPOS>BOND
  1   1   2  2   
  2   1   3  2   
  3   1   4  am  
  4   1   5  1   
  5   4   6  am  
  6   4   7  1   
  7   5   8  ar  
  8   5   9  ar  
  9   6  10  2   
 10   6  11  1   
 11   7  12  1   
 12   7  13  1   
 13   7  24  1   
 14   8  14  ar  
 15   8  25  1   
 16   9  15  ar  
 17   9  26  1   
 18  11  13  1   
 19  11  27  1   
 20  11  28  1   
 21  12  16  2   
 22  12  17  am  
 23  13  29  1   
 24  13  30  1   
 25  14  18  ar  
 26  14  31  1   
 27  15  18  ar  
 28  15  32  1   
 29  17  19  1   
 30  17  33  1   
 31  18  20  1   
 32  19  21  1   
 33  19  34  1   
 34  19  35  1   
 35  20  36  1   
 36  20  37  1   
 37  20  38  1   
 38  21  22  1   
 39  21  39  1   
 40  21  40  1   
 41  22  23  1   
 42  23  41  1   
 43  23  42  1   
 44  23  43  1   
@<TRIPOS>SUBSTRUCTURE
  1 ****   4 GROUP 4 **** **** 0

# MOE 2024.06 (io_trps.svl 2023.06)
