@<TRIPOS>MOLECULE
C-(1-Phenethyl-piperidin-3-yl)-methylamine
40 41 1 0 0 
SMALL
USER_CHARGES


@<TRIPOS>ATOM
  1 N        0.2010    -0.1160    -0.1660 N.4   1 <1>  -0.9590 
  2 C        1.5340     0.5060     0.1480 C.3   1 <1>   0.3430 
  3 C       -0.9290     0.6060     0.4820 C.3   1 <1>   0.3430 
  4 C        0.1420    -1.5730     0.1930 C.3   1 <1>   0.3430 
  5 C        1.4830     2.0540     0.2420 C.3   1 <1>  -0.0800 
  6 C       -1.0360     2.0170    -0.1130 C.3   1 <1>  -0.1600 
  7 C        1.0660    -2.4260    -0.6800 C.3   1 <1>  -0.0170 
  8 C        0.3050     2.6210    -0.5790 C.3   1 <1>  -0.1600 
  9 C        2.8440     2.6580    -0.1680 C.3   1 <1>   0.3430 
 10 C        0.8490    -3.8820    -0.3220 C.ar  1 <1>  -0.1430 
 11 N        2.8780     4.1370     0.0160 N.4   1 <1>  -0.8530 
 12 C       -0.1170    -4.6260    -0.9840 C.ar  1 <1>  -0.1500 
 13 C        1.6030    -4.4800     0.6760 C.ar  1 <1>  -0.1500 
 14 C       -0.3300    -5.9510    -0.6470 C.ar  1 <1>  -0.1500 
 15 C        1.3890    -5.8060     1.0130 C.ar  1 <1>  -0.1500 
 16 C        0.4220    -6.5410     0.3530 C.ar  1 <1>  -0.1500 
 17 H        0.0310    -0.0480    -1.1800 H     1 <1>   0.4500 
 18 H        2.2330     0.2140    -0.6200 H     1 <1>   0.0800 
 19 H        1.9000     0.1150     1.0840 H     1 <1>   0.0800 
 20 H       -0.7520     0.6710     1.5440 H     1 <1>   0.0800 
 21 H       -1.8580     0.0790     0.3290 H     1 <1>   0.0800 
 22 H       -0.8650    -1.9350     0.0630 H     1 <1>   0.0800 
 23 H        0.4050    -1.7120     1.2300 H     1 <1>   0.0800 
 24 H        1.3210     2.2950     1.2800 H     1 <1>   0.0800 
 25 H       -1.4780     2.6520     0.6370 H     1 <1>   0.0800 
 26 H       -1.7250     2.0000    -0.9400 H     1 <1>   0.0800 
 27 H        2.0970    -2.1740    -0.5120 H     1 <1>   0.0800 
 28 H        0.8370    -2.2810    -1.7210 H     1 <1>   0.0800 
 29 H        0.4480     2.3860    -1.6220 H     1 <1>   0.0800 
 30 H        0.2380     3.6930    -0.4960 H     1 <1>   0.0800 
 31 H        3.0420     2.4220    -1.2020 H     1 <1>   0.0800 
 32 H        3.6260     2.2100     0.4270 H     1 <1>   0.0800 
 33 H        2.1780     4.6140    -0.5670 H     1 <1>   0.4500 
 34 H        3.7950     4.5220    -0.2510 H     1 <1>   0.4500 
 35 H        2.7140     4.4140     0.9920 H     1 <1>   0.4500 
 36 H       -0.7110    -4.1910    -1.7690 H     1 <1>   0.1500 
 37 H        2.3650    -3.9320     1.2010 H     1 <1>   0.1500 
 38 H       -1.0790    -6.5270    -1.1630 H     1 <1>   0.1500 
 39 H        1.9770    -6.2690     1.7870 H     1 <1>   0.1500 
 40 H        0.2560    -7.5720     0.6140 H     1 <1>   0.1500 
@<TRIPOS>BOND
  1   1   2  1   
  2   1   3  1   
  3   1   4  1   
  4   1  17  1   
  5   2   5  1   
  6   2  18  1   
  7   2  19  1   
  8   3   6  1   
  9   3  20  1   
 10   3  21  1   
 11   4   7  1   
 12   4  22  1   
 13   4  23  1   
 14   5   8  1   
 15   5   9  1   
 16   5  24  1   
 17   6   8  1   
 18   6  25  1   
 19   6  26  1   
 20   7  10  1   
 21   7  27  1   
 22   7  28  1   
 23   8  29  1   
 24   8  30  1   
 25   9  11  1   
 26   9  31  1   
 27   9  32  1   
 28  10  12  ar  
 29  10  13  ar  
 30  11  33  1   
 31  11  34  1   
 32  11  35  1   
 33  12  14  ar  
 34  12  36  1   
 35  13  15  ar  
 36  13  37  1   
 37  14  16  ar  
 38  14  38  1   
 39  15  16  ar  
 40  15  39  1   
 41  16  40  1   
@<TRIPOS>SUBSTRUCTURE
  1 ****   4 GROUP 4 **** **** 0

# MOE 2024.06 (io_trps.svl 2023.06)
