@<TRIPOS>MOLECULE
N-(2-Methoxy-ethyl)-3-(3-p-tolyl-[1,2,4]oxadiazol-5-yl)-propionamide
40 41 1 0 0 
SMALL
USER_CHARGES


@<TRIPOS>ATOM
  1 O        0.4570    -0.6820    -0.8460 O.2   1 <1>  -0.5700 
  2 C        0.8250    -1.5240    -0.0670 C.2   1 <1>   0.5690 
  3 N        1.9580    -1.3850     0.6650 N.am  1 <1>  -0.7300 
  4 C       -0.0060    -2.7740     0.1020 C.3   1 <1>  -0.0990 
  5 C        2.8350    -0.1860     0.6330 C.3   1 <1>   0.1400 
  6 C       -1.4120    -2.4310     0.6120 C.3   1 <1>   0.0200 
  7 C        3.6690    -0.1610    -0.6470 C.3   1 <1>   0.1200 
  8 C       -2.2230    -3.6870     0.8570 C.2   1 <1>   0.2980 
  9 O        4.6200     0.8500    -0.5310 O.3   1 <1>  -0.5600 
 10 O       -1.8950    -4.4600     1.8580 O.3   1 <1>  -0.0190 
 11 N       -3.2120    -4.0760     0.1680 N.2   1 <1>  -0.5650 
 12 C        5.3880     1.0320    -1.6760 C.3   1 <1>   0.0400 
 13 N       -2.7500    -5.4310     1.8000 N.2   1 <1>  -0.4100 
 14 C       -3.5340    -5.2090     0.8030 C.2   1 <1>   0.4620 
 15 C       -4.6390    -6.0580     0.3860 C.ar  1 <1>   0.0540 
 16 C       -4.9530    -7.2300     1.0760 C.ar  1 <1>  -0.1500 
 17 C       -5.4330    -5.7420    -0.7180 C.ar  1 <1>  -0.1500 
 18 C       -6.0020    -8.0430     0.6850 C.ar  1 <1>  -0.1500 
 19 C       -6.4820    -6.5520    -1.1140 C.ar  1 <1>  -0.1500 
 20 C       -6.7730    -7.7100    -0.4150 C.ar  1 <1>  -0.1440 
 21 C       -7.9250    -8.6000    -0.8450 C.3   1 <1>  -0.0970 
 22 H        2.2570    -2.1310     1.2960 H     1 <1>   0.3700 
 23 H        0.4790    -3.4440     0.7880 H     1 <1>   0.0800 
 24 H       -0.0820    -3.2650    -0.8510 H     1 <1>   0.0800 
 25 H        3.4880    -0.2010     1.4880 H     1 <1>   0.0800 
 26 H        2.2260     0.7020     0.6730 H     1 <1>   0.0800 
 27 H       -1.9190    -1.8210    -0.1150 H     1 <1>   0.0800 
 28 H       -1.3470    -1.8730     1.5290 H     1 <1>   0.0800 
 29 H        3.0380     0.0470    -1.4950 H     1 <1>   0.0800 
 30 H        4.1840    -1.0960    -0.7810 H     1 <1>   0.0800 
 31 H        6.0900     1.8250    -1.4860 H     1 <1>   0.0800 
 32 H        4.7450     1.3080    -2.4950 H     1 <1>   0.0800 
 33 H        5.9180     0.1220    -1.8990 H     1 <1>   0.0800 
 34 H       -4.3680    -7.5100     1.9340 H     1 <1>   0.1500 
 35 H       -5.2250    -4.8470    -1.2780 H     1 <1>   0.1500 
 36 H       -6.2150    -8.9380     1.2430 H     1 <1>   0.1500 
 37 H       -7.0720    -6.2750    -1.9690 H     1 <1>   0.1500 
 38 H       -7.7250    -9.6250    -0.5890 H     1 <1>   0.0800 
 39 H       -8.0700    -8.5380    -1.9090 H     1 <1>   0.0800 
 40 H       -8.8280    -8.2880    -0.3530 H     1 <1>   0.0800 
@<TRIPOS>BOND
  1   1   2  2   
  2   2   3  am  
  3   2   4  1   
  4   3   5  1   
  5   3  22  1   
  6   4   6  1   
  7   4  23  1   
  8   4  24  1   
  9   5   7  1   
 10   5  25  1   
 11   5  26  1   
 12   6   8  1   
 13   6  27  1   
 14   6  28  1   
 15   7   9  1   
 16   7  29  1   
 17   7  30  1   
 18   8  10  1   
 19   8  11  2   
 20   9  12  1   
 21  10  13  1   
 22  11  14  1   
 23  12  31  1   
 24  12  32  1   
 25  12  33  1   
 26  13  14  2   
 27  14  15  1   
 28  15  16  ar  
 29  15  17  ar  
 30  16  18  ar  
 31  16  34  1   
 32  17  19  ar  
 33  17  35  1   
 34  18  20  ar  
 35  18  36  1   
 36  19  20  ar  
 37  19  37  1   
 38  20  21  1   
 39  21  38  1   
 40  21  39  1   
 41  21  40  1   
@<TRIPOS>SUBSTRUCTURE
  1 ****   8 GROUP 4 **** **** 0

# MOE 2024.06 (io_trps.svl 2023.06)
