@<TRIPOS>MOLECULE
5-(2-Isopropyl-5-methyl-phenoxymethyl)-[1,3,4]oxadiazole-2-thiol
34 35 1 0 0 
SMALL
USER_CHARGES


@<TRIPOS>ATOM
  1 S       -0.5470    -0.2120     1.5860 S.2   1 <1>  -0.3800 
  2 C       -2.1400    -0.0970     1.2890 C.2   1 <1>   0.5900 
  3 O       -2.8980    -1.1450     1.1200 O.3   1 <1>  -0.3000 
  4 N       -2.8430     1.0190     1.1850 N.am  1 <1>  -0.3680 
  5 C       -4.0970    -0.5790     0.9090 C.2   1 <1>   0.5390 
  6 N       -4.1220     0.7000     0.9370 N.2   1 <1>  -0.5120 
  7 C       -5.2530    -1.5420     0.6670 C.3   1 <1>   0.1810 
  8 O       -6.4710    -0.8540     0.4560 O.3   1 <1>  -0.3630 
  9 C       -7.6400    -1.5040     0.2110 C.ar  1 <1>   0.0830 
 10 C       -8.7870    -0.7370     0.0030 C.ar  1 <1>  -0.1430 
 11 C       -7.7170    -2.8960     0.1650 C.ar  1 <1>  -0.1500 
 12 C       -9.9870    -1.3880    -0.2480 C.ar  1 <1>  -0.1500 
 13 C       -8.7550     0.7970     0.0440 C.3   1 <1>   0.0630 
 14 C       -8.9200    -3.5310    -0.0880 C.ar  1 <1>  -0.1430 
 15 C      -10.0560    -2.7690    -0.2920 C.ar  1 <1>  -0.1500 
 16 C       -9.6510     1.3340     1.1650 C.3   1 <1>  -0.2400 
 17 C       -9.1660     1.3890    -1.3090 C.3   1 <1>  -0.2400 
 18 C       -9.0050    -5.0460    -0.1370 C.3   1 <1>  -0.0970 
 19 H       -2.4850     1.9770     1.2760 H     1 <1>   0.3700 
 20 H       -5.3730    -2.1770     1.5260 H     1 <1>   0.0800 
 21 H       -5.0470    -2.1330    -0.2060 H     1 <1>   0.0800 
 22 H       -6.8510    -3.5060     0.3240 H     1 <1>   0.1500 
 23 H      -10.8850    -0.8210    -0.4110 H     1 <1>   0.1500 
 24 H       -7.7560     1.1410     0.2470 H     1 <1>   0.0800 
 25 H      -11.0000    -3.2460    -0.4870 H     1 <1>   0.1500 
 26 H      -10.6820     1.0880     0.9880 H     1 <1>   0.0800 
 27 H       -9.5590     2.4030     1.2340 H     1 <1>   0.0800 
 28 H       -9.3510     0.9040     2.1040 H     1 <1>   0.0800 
 29 H      -10.1850     1.1450    -1.5450 H     1 <1>   0.0800 
 30 H       -8.5300     0.9980    -2.0830 H     1 <1>   0.0800 
 31 H       -9.0630     2.4590    -1.2920 H     1 <1>   0.0800 
 32 H       -8.0440    -5.4740    -0.3580 H     1 <1>   0.0800 
 33 H       -9.6960    -5.3550    -0.9000 H     1 <1>   0.0800 
 34 H       -9.3440    -5.4220     0.8120 H     1 <1>   0.0800 
@<TRIPOS>BOND
  1   1   2  2   
  2   2   3  1   
  3   2   4  am  
  4   3   5  1   
  5   4   6  1   
  6   4  19  1   
  7   5   6  2   
  8   5   7  1   
  9   7   8  1   
 10   7  20  1   
 11   7  21  1   
 12   8   9  1   
 13   9  10  ar  
 14   9  11  ar  
 15  10  12  ar  
 16  10  13  1   
 17  11  14  ar  
 18  11  22  1   
 19  12  15  ar  
 20  12  23  1   
 21  13  16  1   
 22  13  17  1   
 23  13  24  1   
 24  14  15  ar  
 25  14  18  1   
 26  15  25  1   
 27  16  26  1   
 28  16  27  1   
 29  16  28  1   
 30  17  29  1   
 31  17  30  1   
 32  17  31  1   
 33  18  32  1   
 34  18  33  1   
 35  18  34  1   
@<TRIPOS>SUBSTRUCTURE
  1 ****   8 GROUP 4 **** **** 0

# MOE 2024.06 (io_trps.svl 2023.06)
