@<TRIPOS>MOLECULE
1-Methanesulfonyl-piperidine-3-carboxylic acid (2-phenoxy-phenyl)-amide
48 50 1 0 0 
SMALL
USER_CHARGES


@<TRIPOS>ATOM
  1 S        0.8120    -0.7700     1.5430 S.o2  1 <1>   1.3330 
  2 O       -0.1980    -1.8020     1.5410 O.2   1 <1>  -0.6500 
  3 O        1.4470    -0.3640     2.7750 O.2   1 <1>  -0.6500 
  4 N        2.0330    -1.2320     0.4620 N.am  1 <1>  -0.8490 
  5 C        0.0930     0.6840     0.8020 C.3   1 <1>  -0.1350 
  6 C        3.1290    -0.2630     0.3370 C.3   1 <1>   0.1960 
  7 C        1.5500    -1.7380    -0.8250 C.3   1 <1>   0.1960 
  8 C        4.3240    -0.8930    -0.3910 C.3   1 <1>  -0.0190 
  9 C        2.6990    -2.4040    -1.5900 C.3   1 <1>  -0.1600 
 10 C        5.4370     0.1330    -0.5410 C.2   1 <1>   0.5690 
 11 C        3.8950    -1.4580    -1.7590 C.3   1 <1>  -0.1600 
 12 O        5.1510     1.2350    -0.9430 O.2   1 <1>  -0.5700 
 13 N        6.7060    -0.2550    -0.2130 N.am  1 <1>  -0.5470 
 14 C        7.9510     0.4080    -0.2420 C.ar  1 <1>   0.1170 
 15 C        9.0670    -0.2470     0.2870 C.ar  1 <1>   0.0820 
 16 C        8.1330     1.6770    -0.7830 C.ar  1 <1>  -0.1500 
 17 O        8.9050    -1.4890     0.8230 O.3   1 <1>  -0.1650 
 18 C       10.3170     0.3570     0.2860 C.ar  1 <1>  -0.1500 
 19 C        9.3810     2.2770    -0.7910 C.ar  1 <1>  -0.1500 
 20 C        9.7470    -2.5070     0.5130 C.ar  1 <1>   0.0820 
 21 C       10.4750     1.6200    -0.2560 C.ar  1 <1>  -0.1500 
 22 C       10.3530    -2.6130    -0.7340 C.ar  1 <1>  -0.1500 
 23 C        9.9860    -3.4710     1.4800 C.ar  1 <1>  -0.1500 
 24 C       11.2020    -3.6730    -1.0020 C.ar  1 <1>  -0.1500 
 25 C       10.8340    -4.5310     1.2090 C.ar  1 <1>  -0.1500 
 26 C       11.4440    -4.6300    -0.0300 C.ar  1 <1>  -0.1500 
 27 H       -0.3070     0.4550    -0.1650 H     1 <1>   0.0800 
 28 H        0.8260     1.4600     0.7070 H     1 <1>   0.0800 
 29 H       -0.7040     1.0450     1.4220 H     1 <1>   0.0800 
 30 H        3.4500     0.0520     1.3170 H     1 <1>   0.0800 
 31 H        2.7910     0.6060    -0.2030 H     1 <1>   0.0800 
 32 H        1.1410    -0.9310    -1.4090 H     1 <1>   0.0800 
 33 H        0.7740    -2.4690    -0.6610 H     1 <1>   0.0800 
 34 H        4.6810    -1.7010     0.2220 H     1 <1>   0.0800 
 35 H        2.3470    -2.7190    -2.5560 H     1 <1>   0.0800 
 36 H        3.0040    -3.2850    -1.0510 H     1 <1>   0.0800 
 37 H        4.7170    -1.9840    -2.2140 H     1 <1>   0.0800 
 38 H        3.6190    -0.6450    -2.4100 H     1 <1>   0.0800 
 39 H        6.7880    -1.2060     0.1480 H     1 <1>   0.3700 
 40 H        7.3050     2.2120    -1.2070 H     1 <1>   0.1500 
 41 H       11.1640    -0.1550     0.7090 H     1 <1>   0.1500 
 42 H        9.4980     3.2600    -1.2150 H     1 <1>   0.1500 
 43 H       11.4440     2.0900    -0.2600 H     1 <1>   0.1500 
 44 H       10.1640    -1.8780    -1.4970 H     1 <1>   0.1500 
 45 H        9.5100    -3.3890     2.4400 H     1 <1>   0.1500 
 46 H       11.6740    -3.7550    -1.9660 H     1 <1>   0.1500 
 47 H       11.0220    -5.2770     1.9620 H     1 <1>   0.1500 
 48 H       12.1050    -5.4540    -0.2400 H     1 <1>   0.1500 
@<TRIPOS>BOND
  1   1   2  2   
  2   1   3  2   
  3   1   4  am  
  4   1   5  1   
  5   4   6  1   
  6   4   7  1   
  7   5  27  1   
  8   5  28  1   
  9   5  29  1   
 10   6   8  1   
 11   6  30  1   
 12   6  31  1   
 13   7   9  1   
 14   7  32  1   
 15   7  33  1   
 16   8  10  1   
 17   8  11  1   
 18   8  34  1   
 19   9  11  1   
 20   9  35  1   
 21   9  36  1   
 22  10  12  2   
 23  10  13  am  
 24  11  37  1   
 25  11  38  1   
 26  13  14  1   
 27  13  39  1   
 28  14  15  ar  
 29  14  16  ar  
 30  15  17  1   
 31  15  18  ar  
 32  16  19  ar  
 33  16  40  1   
 34  17  20  1   
 35  18  21  ar  
 36  18  41  1   
 37  19  21  ar  
 38  19  42  1   
 39  20  22  ar  
 40  20  23  ar  
 41  21  43  1   
 42  22  24  ar  
 43  22  44  1   
 44  23  25  ar  
 45  23  45  1   
 46  24  26  ar  
 47  24  46  1   
 48  25  26  ar  
 49  25  47  1   
 50  26  48  1   
@<TRIPOS>SUBSTRUCTURE
  1 ****  13 GROUP 4 **** **** 0

# MOE 2024.06 (io_trps.svl 2023.06)
