@<TRIPOS>MOLECULE
7-(3-Hydroxy-propyl)-1,3-dimethyl-8-(2-methyl-piperidin-1-ylmethyl)-3,7-dihydro-
53 55 1 0 0 
SMALL
USER_CHARGES


@<TRIPOS>ATOM
  1 O        0.5210     0.2430    -1.1430 O.2   1 <1>  -0.5700 
  2 C        1.4990     0.8610    -0.7760 C.2   1 <1>   0.6900 
  3 N        1.3480     2.1120    -0.1850 N.am  1 <1>  -0.4200 
  4 N        2.7650     0.3190    -0.9450 N.am  1 <1>  -0.4360 
  5 C        2.4480     2.8470     0.2370 C.2   1 <1>   0.7030 
  6 C       -0.0320     2.6720    -0.0340 C.3   1 <1>   0.0600 
  7 C        3.8500     1.0510    -0.5030 C.2   1 <1>   0.4260 
  8 C        2.9560    -1.0240    -1.5700 C.3   1 <1>   0.0600 
  9 O        2.3040     3.9480     0.7420 O.2   1 <1>  -0.5700 
 10 C        3.7540     2.2750     0.0700 C.2   1 <1>   0.2770 
 11 N        5.1590     0.7110    -0.5470 N.pl3 1 <1>  -0.7000 
 12 N        5.0620     2.6800     0.3750 N.pl3 1 <1>  -0.7640 
 13 C        5.8690     1.6960    -0.0160 C.cat 1 <1>   0.6560 
 14 C        5.3960     3.9830     1.0100 C.3   1 <1>   0.3540 
 15 C        7.4010     1.6180     0.0790 C.3   1 <1>   0.2540 
 16 C        5.5060     5.0600    -0.0680 C.3   1 <1>  -0.1600 
 17 N        7.8890     0.2370    -0.2160 N.3   1 <1>  -0.8100 
 18 C        5.7660     6.4290     0.5580 C.3   1 <1>   0.1200 
 19 C        8.2020    -0.5570     0.9990 C.3   1 <1>   0.1900 
 20 C        9.0520     0.2950    -1.1250 C.3   1 <1>   0.1100 
 21 O        5.8270     7.3590    -0.4580 O.3   1 <1>  -0.6800 
 22 C        8.5990    -1.9860     0.5960 C.3   1 <1>  -0.1600 
 23 C        7.0020    -0.6370     1.9500 C.3   1 <1>  -0.2400 
 24 C        9.4450    -1.1080    -1.5870 C.3   1 <1>  -0.1600 
 25 C        9.7700    -2.0030    -0.3900 C.3   1 <1>  -0.1600 
 26 H       -0.7110     1.8990     0.2860 H     1 <1>   0.0800 
 27 H       -0.3700     3.0570    -0.9800 H     1 <1>   0.0800 
 28 H       -0.0560     3.4630     0.6950 H     1 <1>   0.0800 
 29 H        2.0770    -1.3190    -2.1190 H     1 <1>   0.0800 
 30 H        3.1440    -1.7570    -0.8050 H     1 <1>   0.0800 
 31 H        3.7840    -1.0000    -2.2550 H     1 <1>   0.0800 
 32 H        5.6220    -0.1420    -0.8820 H     1 <1>   0.4500 
 33 H        6.3270     3.9040     1.5450 H     1 <1>   0.0800 
 34 H        4.6290     4.2480     1.7200 H     1 <1>   0.0800 
 35 H        7.7320     1.9340     1.0510 H     1 <1>   0.0800 
 36 H        7.7960     2.3120    -0.6410 H     1 <1>   0.0800 
 37 H        4.5790     5.1100    -0.6130 H     1 <1>   0.0800 
 38 H        6.3060     4.8150    -0.7420 H     1 <1>   0.0800 
 39 H        6.6950     6.4590     1.1030 H     1 <1>   0.0800 
 40 H        4.9570     6.7140     1.2100 H     1 <1>   0.0800 
 41 H        9.0320    -0.1030     1.5170 H     1 <1>   0.0800 
 42 H        9.8870     0.7590    -0.6260 H     1 <1>   0.0800 
 43 H        8.8090     0.8810    -1.9960 H     1 <1>   0.0800 
 44 H        6.6460     7.2750    -0.9850 H     1 <1>   0.4000 
 45 H        7.7530    -2.4790     0.1510 H     1 <1>   0.0800 
 46 H        8.8770    -2.5440     1.4730 H     1 <1>   0.0800 
 47 H        6.1460    -1.0520     1.4510 H     1 <1>   0.0800 
 48 H        6.7570     0.3200     2.3690 H     1 <1>   0.0800 
 49 H        7.2460    -1.2840     2.7750 H     1 <1>   0.0800 
 50 H       10.3050    -1.0450    -2.2320 H     1 <1>   0.0800 
 51 H        8.6380    -1.5330    -2.1560 H     1 <1>   0.0800 
 52 H        9.9570    -3.0100    -0.7230 H     1 <1>   0.0800 
 53 H       10.6580    -1.6430     0.0990 H     1 <1>   0.0800 
@<TRIPOS>BOND
  1   1   2  2   
  2   2   3  am  
  3   2   4  am  
  4   3   5  am  
  5   3   6  1   
  6   4   7  1   
  7   4   8  1   
  8   5   9  2   
  9   5  10  1   
 10   6  26  1   
 11   6  27  1   
 12   6  28  1   
 13   7  10  2   
 14   7  11  1   
 15   8  29  1   
 16   8  30  1   
 17   8  31  1   
 18  10  12  1   
 19  11  13  ar  
 20  11  32  1   
 21  12  13  ar  
 22  12  14  1   
 23  13  15  1   
 24  14  16  1   
 25  14  33  1   
 26  14  34  1   
 27  15  17  1   
 28  15  35  1   
 29  15  36  1   
 30  16  18  1   
 31  16  37  1   
 32  16  38  1   
 33  17  19  1   
 34  17  20  1   
 35  18  21  1   
 36  18  39  1   
 37  18  40  1   
 38  19  22  1   
 39  19  23  1   
 40  19  41  1   
 41  20  24  1   
 42  20  42  1   
 43  20  43  1   
 44  21  44  1   
 45  22  25  1   
 46  22  45  1   
 47  22  46  1   
 48  23  47  1   
 49  23  48  1   
 50  23  49  1   
 51  24  25  1   
 52  24  50  1   
 53  24  51  1   
 54  25  52  1   
 55  25  53  1   
@<TRIPOS>SUBSTRUCTURE
  1 ****  13 GROUP 4 **** **** 0

# MOE 2024.06 (io_trps.svl 2023.06)
