@<TRIPOS>MOLECULE
1,1-Dimethyl-2-(4-methyl-piperazin-1-yl)-ethylamine
35 35 1 0 0 
SMALL
USER_CHARGES


@<TRIPOS>ATOM
  1 N        0.1230    -0.2030     0.0160 N.3   1 <1>  -0.8100 
  2 C       -1.1840     0.4410     0.3660 C.3   1 <1>   0.1100 
  3 C       -0.1490    -1.2990    -0.9650 C.3   1 <1>   0.1100 
  4 C        1.0460     0.8240    -0.5810 C.3   1 <1>   0.1100 
  5 C       -2.3440    -0.5460     0.6700 C.3   1 <1>   0.3430 
  6 C       -1.1230    -2.3870    -0.4400 C.3   1 <1>   0.3430 
  7 C        2.5240     0.6870    -0.1140 C.3   1 <1>   0.5030 
  8 N       -1.8580    -1.9580     0.7980 N.4   1 <1>  -0.9590 
  9 N        2.4990     0.3070     1.2850 N.4   1 <1>  -0.8530 
 10 C        3.2720    -0.4140    -0.8620 C.3   1 <1>  -0.2400 
 11 C        3.2770     2.0100    -0.2320 C.3   1 <1>  -0.2400 
 12 C       -2.9620    -2.9040     1.1500 C.3   1 <1>   0.2630 
 13 H       -1.5050     1.0790    -0.4420 H     1 <1>   0.0800 
 14 H       -1.0440     1.0760     1.2250 H     1 <1>   0.0800 
 15 H        0.7660    -1.7810    -1.2580 H     1 <1>   0.0800 
 16 H       -0.5760    -0.8770    -1.8610 H     1 <1>   0.0800 
 17 H        0.7120     1.8070    -0.2900 H     1 <1>   0.0800 
 18 H        1.0020     0.8030    -1.6580 H     1 <1>   0.0800 
 19 H       -3.0660    -0.4860    -0.1290 H     1 <1>   0.0800 
 20 H       -2.8410    -0.2390     1.5760 H     1 <1>   0.0800 
 21 H       -0.5660    -3.2860    -0.2320 H     1 <1>   0.0800 
 22 H       -1.8270    -2.6220    -1.2220 H     1 <1>   0.0800 
 23 H       -1.1630    -1.9500     1.5570 H     1 <1>   0.4500 
 24 H        1.6430    -0.2580     1.3810 H     1 <1>   0.4500 
 25 H        2.4230     1.1290     1.8870 H     1 <1>   0.4500 
 26 H        3.3250    -0.2400     1.5360 H     1 <1>   0.4500 
 27 H        4.3080    -0.4430    -0.5720 H     1 <1>   0.0800 
 28 H        2.8390    -1.3810    -0.6850 H     1 <1>   0.0800 
 29 H        3.2420    -0.2220    -1.9210 H     1 <1>   0.0800 
 30 H        3.3230     2.3120    -1.2640 H     1 <1>   0.0800 
 31 H        4.2890     1.9160     0.1240 H     1 <1>   0.0800 
 32 H        2.7850     2.7940     0.3160 H     1 <1>   0.0800 
 33 H       -3.7040    -2.9250     0.3680 H     1 <1>   0.0800 
 34 H       -3.4380    -2.6000     2.0690 H     1 <1>   0.0800 
 35 H       -2.5730    -3.9020     1.2820 H     1 <1>   0.0800 
@<TRIPOS>BOND
  1   1   2  1   
  2   1   3  1   
  3   1   4  1   
  4   2   5  1   
  5   2  13  1   
  6   2  14  1   
  7   3   6  1   
  8   3  15  1   
  9   3  16  1   
 10   4   7  1   
 11   4  17  1   
 12   4  18  1   
 13   5   8  1   
 14   5  19  1   
 15   5  20  1   
 16   6   8  1   
 17   6  21  1   
 18   6  22  1   
 19   7   9  1   
 20   7  10  1   
 21   7  11  1   
 22   8  12  1   
 23   8  23  1   
 24   9  24  1   
 25   9  25  1   
 26   9  26  1   
 27  10  27  1   
 28  10  28  1   
 29  10  29  1   
 30  11  30  1   
 31  11  31  1   
 32  11  32  1   
 33  12  33  1   
 34  12  34  1   
 35  12  35  1   
@<TRIPOS>SUBSTRUCTURE
  1 ****   1 GROUP 4 **** **** 0

# MOE 2024.06 (io_trps.svl 2023.06)
