@<TRIPOS>MOLECULE
1-(4-Hydroxy-phenyl)-5-oxo-pyrrolidine-3-carboxylic acid propylamide
37 38 1 0 0 
SMALL
USER_CHARGES


@<TRIPOS>ATOM
  1 O       -1.3320     0.1960    -2.1070 O.2   1 <1>  -0.5700 
  2 C       -1.1060     1.1880    -1.4580 C.2   1 <1>   0.5690 
  3 N       -1.8700     1.7090    -0.4540 N.am  1 <1>  -0.4770 
  4 C        0.1330     2.0080    -1.6850 C.3   1 <1>  -0.0990 
  5 C       -3.0770     1.2120     0.0810 C.ar  1 <1>   0.1170 
  6 C       -1.2380     2.9280     0.0930 C.3   1 <1>   0.1400 
  7 C        0.2090     2.8690    -0.4170 C.3   1 <1>  -0.0190 
  8 C       -3.2940    -0.1570     0.2090 C.ar  1 <1>  -0.1500 
  9 C       -4.0780     2.0830     0.5080 C.ar  1 <1>  -0.1500 
 10 C        0.8400     4.2360    -0.6520 C.2   1 <1>   0.5690 
 11 C       -4.4690    -0.6440     0.7530 C.ar  1 <1>  -0.1500 
 12 C       -5.2560     1.6040     1.0550 C.ar  1 <1>  -0.1500 
 13 O        0.1340     5.1940    -0.8370 O.2   1 <1>  -0.5700 
 14 N        2.1840     4.3980    -0.6550 N.am  1 <1>  -0.7300 
 15 C       -5.4450     0.2380     1.1770 C.ar  1 <1>   0.0830 
 16 C        3.2610     3.3980    -0.4940 C.3   1 <1>   0.1400 
 17 O       -6.5820    -0.2440     1.7070 O.3   1 <1>  -0.5320 
 18 C        3.8350     3.5070     0.9180 C.3   1 <1>  -0.1600 
 19 C        4.9500     2.4810     1.1470 C.3   1 <1>  -0.2400 
 20 H       -0.0100     2.6130    -2.5620 H     1 <1>   0.0800 
 21 H        0.9950     1.3790    -1.8040 H     1 <1>   0.0800 
 22 H       -1.2750     2.9320     1.1690 H     1 <1>   0.0800 
 23 H       -1.7590     3.7870    -0.2920 H     1 <1>   0.0800 
 24 H        0.7810     2.3470     0.3280 H     1 <1>   0.0800 
 25 H       -2.5390    -0.8480    -0.1210 H     1 <1>   0.1500 
 26 H       -3.9420     3.1430     0.4070 H     1 <1>   0.1500 
 27 H       -4.6320    -1.7030     0.8490 H     1 <1>   0.1500 
 28 H       -6.0150     2.2930     1.3780 H     1 <1>   0.1500 
 29 H        2.4980     5.3620    -0.7910 H     1 <1>   0.3700 
 30 H        4.0310     3.5900    -1.2220 H     1 <1>   0.0800 
 31 H        2.8830     2.4050    -0.6630 H     1 <1>   0.0800 
 32 H       -7.2090     0.4570     1.9550 H     1 <1>   0.4500 
 33 H        3.0520     3.3410     1.6380 H     1 <1>   0.0800 
 34 H        4.2320     4.4970     1.0680 H     1 <1>   0.0800 
 35 H        4.5750     1.4800     1.0240 H     1 <1>   0.0800 
 36 H        5.3380     2.5790     2.1460 H     1 <1>   0.0800 
 37 H        5.7570     2.6380     0.4520 H     1 <1>   0.0800 
@<TRIPOS>BOND
  1   1   2  2   
  2   2   3  am  
  3   2   4  1   
  4   3   5  1   
  5   3   6  1   
  6   4   7  1   
  7   4  20  1   
  8   4  21  1   
  9   5   8  ar  
 10   5   9  ar  
 11   6   7  1   
 12   6  22  1   
 13   6  23  1   
 14   7  10  1   
 15   7  24  1   
 16   8  11  ar  
 17   8  25  1   
 18   9  12  ar  
 19   9  26  1   
 20  10  13  2   
 21  10  14  am  
 22  11  15  ar  
 23  11  27  1   
 24  12  15  ar  
 25  12  28  1   
 26  14  16  1   
 27  14  29  1   
 28  15  17  1   
 29  16  18  1   
 30  16  30  1   
 31  16  31  1   
 32  17  32  1   
 33  18  19  1   
 34  18  33  1   
 35  18  34  1   
 36  19  35  1   
 37  19  36  1   
 38  19  37  1   
@<TRIPOS>SUBSTRUCTURE
  1 ****   3 GROUP 4 **** **** 0

# MOE 2024.06 (io_trps.svl 2023.06)
