@<TRIPOS>MOLECULE
7-(2-Hydroxy-propyl)-3-methyl-8-phenethylamino-3,7-dihydro-purine-2,6-dione
47 49 1 0 0 
SMALL
USER_CHARGES


@<TRIPOS>ATOM
  1 O        1.1420    -0.2600     1.3560 O.2   1 <1>  -0.5750 
  2 C        2.1140     0.3910     1.0530 C.2   1 <1>   0.6860 
  3 N        3.3020    -0.1980     0.6420 N.am  1 <1>  -0.4420 
  4 N        2.0330     1.7510     1.1210 N.am  1 <1>  -0.4960 
  5 C        4.3600     0.6410     0.3230 C.2   1 <1>   0.4200 
  6 C        3.4390    -1.6810     0.5500 C.3   1 <1>   0.0510 
  7 C        3.0650     2.5910     0.8110 C.2   1 <1>   0.6990 
  8 N        5.6070     0.2870    -0.0880 N.pl3 1 <1>  -0.7040 
  9 C        4.2950     1.9920     0.3840 C.2   1 <1>   0.2700 
 10 O        2.9000     3.7900     0.9150 O.2   1 <1>  -0.5750 
 11 C        6.3120     1.3980    -0.2700 C.cat 1 <1>   1.0680 
 12 N        5.5590     2.4680    -0.0170 N.pl3 1 <1>  -0.7680 
 13 N        7.5840     1.4300    -0.6350 N.pl3 1 <1>  -0.7180 
 14 C        5.8930     3.9140    -0.2280 C.3   1 <1>   0.3470 
 15 C        8.4870     0.2990    -0.9510 C.3   1 <1>   0.1600 
 16 C        6.8970     4.4700     0.8090 C.3   1 <1>   0.1920 
 17 C        9.4300     0.0330     0.2230 C.3   1 <1>  -0.0260 
 18 O        8.1030     3.7850     0.7320 O.3   1 <1>  -0.6840 
 19 C        7.2160     5.9450     0.5730 C.3   1 <1>  -0.2470 
 20 C       10.1110    -1.3080     0.0210 C.ar  1 <1>  -0.1520 
 21 C        9.7000    -2.4200     0.7400 C.ar  1 <1>  -0.1580 
 22 C       11.1440    -1.4320    -0.8950 C.ar  1 <1>  -0.1580 
 23 C       10.3120    -3.6450     0.5390 C.ar  1 <1>  -0.1580 
 24 C       11.7560    -2.6570    -1.0950 C.ar  1 <1>  -0.1580 
 25 C       11.3390    -3.7650    -0.3790 C.ar  1 <1>  -0.1580 
 26 H        1.1490     2.1530     1.4280 H     1 <1>   0.3630 
 27 H        2.5010    -2.1680     0.7620 H     1 <1>   0.0710 
 28 H        4.1680    -2.0260     1.2620 H     1 <1>   0.0710 
 29 H        3.7460    -1.9600    -0.4430 H     1 <1>   0.0710 
 30 H        5.9730    -0.6520    -0.2150 H     1 <1>   0.4440 
 31 H        8.0520     2.3330    -0.4550 H     1 <1>   0.4440 
 32 H        4.9940     4.5030    -0.1820 H     1 <1>   0.0710 
 33 H        6.3030     4.0450    -1.2150 H     1 <1>   0.0710 
 34 H        9.0630     0.5310    -1.8320 H     1 <1>   0.0710 
 35 H        7.9130    -0.5880    -1.1580 H     1 <1>   0.0710 
 36 H        6.5000     4.3430     1.8030 H     1 <1>   0.0710 
 37 H        8.8810     0.0150     1.1480 H     1 <1>   0.0710 
 38 H       10.1740     0.8080     0.2840 H     1 <1>   0.0710 
 39 H        8.7560     4.2210     1.3250 H     1 <1>   0.3940 
 40 H        7.8920     6.3110     1.3260 H     1 <1>   0.0710 
 41 H        6.3140     6.5280     0.6310 H     1 <1>   0.0710 
 42 H        7.6530     6.0940    -0.4000 H     1 <1>   0.0710 
 43 H        8.9080    -2.3460     1.4630 H     1 <1>   0.1420 
 44 H       11.4840    -0.5800    -1.4570 H     1 <1>   0.1420 
 45 H        9.9920    -4.5060     1.1000 H     1 <1>   0.1420 
 46 H       12.5570    -2.7490    -1.8070 H     1 <1>   0.1420 
 47 H       11.8160    -4.7180    -0.5350 H     1 <1>   0.1420 
@<TRIPOS>BOND
  1   1   2  2   
  2   2   3  am  
  3   2   4  am  
  4   3   5  1   
  5   3   6  1   
  6   4   7  am  
  7   4  26  1   
  8   5   8  1   
  9   5   9  2   
 10   6  27  1   
 11   6  28  1   
 12   6  29  1   
 13   7   9  1   
 14   7  10  2   
 15   8  11  ar  
 16   8  30  1   
 17   9  12  1   
 18  11  12  ar  
 19  11  13  ar  
 20  12  14  1   
 21  13  15  1   
 22  13  31  1   
 23  14  16  1   
 24  14  32  1   
 25  14  33  1   
 26  15  17  1   
 27  15  34  1   
 28  15  35  1   
 29  16  18  1   
 30  16  19  1   
 31  16  36  1   
 32  17  20  1   
 33  17  37  1   
 34  17  38  1   
 35  18  39  1   
 36  19  40  1   
 37  19  41  1   
 38  19  42  1   
 39  20  21  ar  
 40  20  22  ar  
 41  21  23  ar  
 42  21  43  1   
 43  22  24  ar  
 44  22  44  1   
 45  23  25  ar  
 46  23  45  1   
 47  24  25  ar  
 48  24  46  1   
 49  25  47  1   
@<TRIPOS>SUBSTRUCTURE
  1 ****  11 GROUP 4 **** **** 0

# MOE 2024.06 (io_trps.svl 2023.06)
