@<TRIPOS>MOLECULE
4-(2,5-Dimethyl-phenyl)-6-(4-ethyl-piperazin-1-ylmethyl)-2-oxo-1,2,3,4-tetrahydr
59 61 1 0 0 
SMALL
USER_CHARGES


@<TRIPOS>ATOM
  1 O       -0.1950     0.9750     0.9270 O.2   1 <1>  -0.5700 
  2 C       -1.3470     1.2320     0.6690 C.2   1 <1>   0.6900 
  3 N       -2.0420     0.4390    -0.1780 N.am  1 <1>  -0.5390 
  4 N       -1.9590     2.3010     1.1940 N.am  1 <1>  -0.7300 
  5 C       -3.3590     0.6470    -0.5590 C.2   1 <1>  -0.0290 
  6 C       -3.3250     2.7240     0.8420 C.3   1 <1>   0.5020 
  7 C       -4.0400     1.7370    -0.0940 C.2   1 <1>  -0.1240 
  8 C       -3.9060    -0.4250    -1.5140 C.3   1 <1>   0.2480 
  9 C       -3.2620     4.1680     0.3230 C.ar  1 <1>  -0.1430 
 10 C       -5.4010     2.1000    -0.3580 C.2   1 <1>   0.7060 
 11 N       -4.4780    -1.6080    -0.8230 N.3   1 <1>  -0.8100 
 12 C       -2.7520     4.5450    -0.9220 C.ar  1 <1>  -0.1440 
 13 C       -3.7560     5.1550     1.1690 C.ar  1 <1>  -0.1500 
 14 O       -6.0680     1.6130    -1.2490 O.2   1 <1>  -0.5700 
 15 O       -5.9950     2.9880     0.4480 O.3   1 <1>  -0.4300 
 16 C       -3.5740    -2.2650     0.1510 C.3   1 <1>   0.1100 
 17 C       -5.8000    -1.3280    -0.2140 C.3   1 <1>   0.1100 
 18 C       -2.7580     5.8840    -1.2820 C.ar  1 <1>  -0.1500 
 19 C       -2.1750     3.5570    -1.9290 C.3   1 <1>  -0.0970 
 20 C       -3.7590     6.4890     0.8050 C.ar  1 <1>  -0.1430 
 21 C       -7.2970     3.4810     0.1950 C.3   1 <1>   0.0400 
 22 C       -4.1940    -3.5480     0.7560 C.3   1 <1>   0.3430 
 23 C       -6.4400    -2.5860     0.4210 C.3   1 <1>   0.3430 
 24 C       -3.2550     6.8500    -0.4290 C.ar  1 <1>  -0.1500 
 25 C       -4.3050     7.5430     1.7510 C.3   1 <1>  -0.0970 
 26 N       -5.5740    -3.8000     0.2230 N.4   1 <1>  -0.9590 
 27 C       -6.1600    -5.0680     0.7200 C.3   1 <1>   0.3430 
 28 C       -7.3560    -5.4550    -0.1410 C.3   1 <1>  -0.2400 
 29 H       -1.4760    -0.3130    -0.5710 H     1 <1>   0.3700 
 30 H       -1.3700     3.0080     1.6320 H     1 <1>   0.3700 
 31 H       -3.8780     2.7260     1.7650 H     1 <1>   0.0800 
 32 H       -3.1040    -0.7570    -2.1510 H     1 <1>   0.0800 
 33 H       -4.6460    -0.0090    -2.1750 H     1 <1>   0.0800 
 34 H       -4.1510     4.8900     2.1340 H     1 <1>   0.1500 
 35 H       -3.3440    -1.5870     0.9560 H     1 <1>   0.0800 
 36 H       -2.6470    -2.5200    -0.3340 H     1 <1>   0.0800 
 37 H       -6.4670    -0.9480    -0.9700 H     1 <1>   0.0800 
 38 H       -5.7040    -0.5690     0.5420 H     1 <1>   0.0800 
 39 H       -2.3700     6.1910    -2.2380 H     1 <1>   0.1500 
 40 H       -1.7310     4.0720    -2.7610 H     1 <1>   0.0800 
 41 H       -1.4080     2.9600    -1.4740 H     1 <1>   0.0800 
 42 H       -2.9490     2.9190    -2.3130 H     1 <1>   0.0800 
 43 H       -7.5440     4.1980     0.9580 H     1 <1>   0.0800 
 44 H       -7.9950     2.6620     0.2150 H     1 <1>   0.0800 
 45 H       -7.3070     3.9560    -0.7710 H     1 <1>   0.0800 
 46 H       -4.2260    -3.4500     1.8290 H     1 <1>   0.0800 
 47 H       -3.5550    -4.3840     0.5240 H     1 <1>   0.0800 
 48 H       -7.4060    -2.7430    -0.0290 H     1 <1>   0.0800 
 49 H       -6.5940    -2.4120     1.4720 H     1 <1>   0.0800 
 50 H       -3.2450     7.8830    -0.7320 H     1 <1>   0.1500 
 51 H       -5.1310     7.1500     2.3140 H     1 <1>   0.0800 
 52 H       -4.6480     8.4020     1.2010 H     1 <1>   0.0800 
 53 H       -3.5340     7.8540     2.4330 H     1 <1>   0.0800 
 54 H       -5.4430    -3.8470    -0.7990 H     1 <1>   0.4500 
 55 H       -6.4610    -4.9610     1.7500 H     1 <1>   0.0800 
 56 H       -5.4210    -5.8520     0.6630 H     1 <1>   0.0800 
 57 H       -8.1620    -4.7530    -0.0350 H     1 <1>   0.0800 
 58 H       -7.7190    -6.4180     0.1750 H     1 <1>   0.0800 
 59 H       -7.0740    -5.5320    -1.1760 H     1 <1>   0.0800 
@<TRIPOS>BOND
  1   1   2  2   
  2   2   3  am  
  3   2   4  am  
  4   3   5  1   
  5   3  29  1   
  6   4   6  1   
  7   4  30  1   
  8   5   7  2   
  9   5   8  1   
 10   6   7  1   
 11   6   9  1   
 12   6  31  1   
 13   7  10  1   
 14   8  11  1   
 15   8  32  1   
 16   8  33  1   
 17   9  12  ar  
 18   9  13  ar  
 19  10  14  2   
 20  10  15  1   
 21  11  16  1   
 22  11  17  1   
 23  12  18  ar  
 24  12  19  1   
 25  13  20  ar  
 26  13  34  1   
 27  15  21  1   
 28  16  22  1   
 29  16  35  1   
 30  16  36  1   
 31  17  23  1   
 32  17  37  1   
 33  17  38  1   
 34  18  24  ar  
 35  18  39  1   
 36  19  40  1   
 37  19  41  1   
 38  19  42  1   
 39  20  24  ar  
 40  20  25  1   
 41  21  43  1   
 42  21  44  1   
 43  21  45  1   
 44  22  26  1   
 45  22  46  1   
 46  22  47  1   
 47  23  26  1   
 48  23  48  1   
 49  23  49  1   
 50  24  50  1   
 51  25  51  1   
 52  25  52  1   
 53  25  53  1   
 54  26  27  1   
 55  26  54  1   
 56  27  28  1   
 57  27  55  1   
 58  27  56  1   
 59  28  57  1   
 60  28  58  1   
 61  28  59  1   
@<TRIPOS>SUBSTRUCTURE
  1 ****   7 GROUP 4 **** **** 0

# MOE 2024.06 (io_trps.svl 2023.06)
