@<TRIPOS>MOLECULE
1-(3,4-Dichloro-2-methoxy-benzenesulfonyl)-piperidine-3-carboxylic acid ethyl es
43 44 1 0 0 
SMALL
USER_CHARGES


@<TRIPOS>ATOM
  1 CL      -1.1280    -1.5270    -2.7610 Cl    1 <1>  -0.1770 
  2 C       -1.7990    -2.4560    -1.4330 C.ar  1 <1>   0.1770 
  3 C       -2.8480    -1.9430    -0.6740 C.ar  1 <1>   0.0820 
  4 C       -1.2860    -3.7090    -1.1510 C.ar  1 <1>   0.1770 
  5 O       -3.3560    -0.7250    -0.9620 O.3   1 <1>  -0.3630 
  6 C       -3.4030    -2.6940     0.3630 C.ar  1 <1>  -0.0090 
  7 CL       0.0320    -4.3730    -2.0860 Cl    1 <1>  -0.1770 
  8 C       -1.8130    -4.4630    -0.1200 C.ar  1 <1>  -0.1500 
  9 C       -2.6630     0.4000    -0.4660 C.3   1 <1>   0.0400 
 10 S       -4.7880    -2.0670     1.3520 S.o2  1 <1>   1.4470 
 11 C       -2.8640    -3.9530     0.6250 C.ar  1 <1>  -0.1500 
 12 O       -5.2760    -3.1310     2.2040 O.2   1 <1>  -0.6500 
 13 O       -4.4250    -0.8090     1.9670 O.2   1 <1>  -0.6500 
 14 N       -6.0280    -1.7650     0.2370 N.am  1 <1>  -0.8490 
 15 C       -6.5670    -2.9820    -0.4030 C.3   1 <1>   0.1960 
 16 C       -7.0320    -0.8460     0.7940 C.3   1 <1>   0.1960 
 17 C       -7.9250    -3.3980     0.1760 C.3   1 <1>  -0.0190 
 18 C       -8.3250    -0.8710    -0.0270 C.3   1 <1>  -0.1600 
 19 C       -8.3270    -4.7510    -0.3960 C.2   1 <1>   0.6590 
 20 C       -8.9670    -2.2720    -0.0470 C.3   1 <1>  -0.1600 
 21 O       -9.3070    -4.9110    -1.0770 O.2   1 <1>  -0.5700 
 22 O       -7.5130    -5.7560    -0.1010 O.3   1 <1>  -0.4300 
 23 C       -7.7620    -7.0660    -0.5530 C.3   1 <1>   0.1200 
 24 C       -6.6270    -7.9590    -0.0610 C.3   1 <1>  -0.2400 
 25 H       -1.4050    -5.4360     0.0930 H     1 <1>   0.1500 
 26 H       -3.2390     1.2770    -0.7000 H     1 <1>   0.0800 
 27 H       -1.6970     0.4600    -0.9350 H     1 <1>   0.0800 
 28 H       -2.5560     0.3100     0.6010 H     1 <1>   0.0800 
 29 H       -3.2730    -4.5470     1.4270 H     1 <1>   0.1500 
 30 H       -5.8630    -3.7930    -0.3150 H     1 <1>   0.0800 
 31 H       -6.6920    -2.7830    -1.4550 H     1 <1>   0.0800 
 32 H       -6.6250     0.1520     0.8090 H     1 <1>   0.0800 
 33 H       -7.2590    -1.1260     1.8100 H     1 <1>   0.0800 
 34 H       -7.7970    -3.5450     1.2340 H     1 <1>   0.0800 
 35 H       -8.0920    -0.5600    -1.0310 H     1 <1>   0.0800 
 36 H       -9.0240    -0.1590     0.3770 H     1 <1>   0.0800 
 37 H       -9.7190    -2.3440     0.7190 H     1 <1>   0.0800 
 38 H       -9.4610    -2.3960    -0.9960 H     1 <1>   0.0800 
 39 H       -7.8070    -7.0540    -1.6300 H     1 <1>   0.0800 
 40 H       -8.7100    -7.3890    -0.1560 H     1 <1>   0.0800 
 41 H       -5.6880    -7.6200    -0.4610 H     1 <1>   0.0800 
 42 H       -6.7940    -8.9690    -0.3880 H     1 <1>   0.0800 
 43 H       -6.5870    -7.9480     1.0130 H     1 <1>   0.0800 
@<TRIPOS>BOND
  1   1   2  1   
  2   2   3  ar  
  3   2   4  ar  
  4   3   5  1   
  5   3   6  ar  
  6   4   7  1   
  7   4   8  ar  
  8   5   9  1   
  9   6  10  1   
 10   6  11  ar  
 11   8  11  ar  
 12   8  25  1   
 13   9  26  1   
 14   9  27  1   
 15   9  28  1   
 16  10  12  2   
 17  10  13  2   
 18  10  14  am  
 19  11  29  1   
 20  14  15  1   
 21  14  16  1   
 22  15  17  1   
 23  15  30  1   
 24  15  31  1   
 25  16  18  1   
 26  16  32  1   
 27  16  33  1   
 28  17  19  1   
 29  17  20  1   
 30  17  34  1   
 31  18  20  1   
 32  18  35  1   
 33  18  36  1   
 34  19  21  2   
 35  19  22  1   
 36  20  37  1   
 37  20  38  1   
 38  22  23  1   
 39  23  24  1   
 40  23  39  1   
 41  23  40  1   
 42  24  41  1   
 43  24  42  1   
 44  24  43  1   
@<TRIPOS>SUBSTRUCTURE
  1 ****  15 GROUP 4 **** **** 0

# MOE 2024.06 (io_trps.svl 2023.06)
