@<TRIPOS>MOLECULE
1-(2-Methoxy-5-methyl-benzenesulfonyl)-piperidine-4-carboxylic acid amide
41 42 1 0 0 
SMALL
USER_CHARGES


@<TRIPOS>ATOM
  1 S        0.0560    -0.1570    -1.7530 S.o2  1 <1>   1.4470 
  2 O       -0.4740     0.7770    -2.7260 O.2   1 <1>  -0.6500 
  3 O        0.8180    -1.2800    -2.2640 O.2   1 <1>  -0.6500 
  4 N        1.0870     0.6930    -0.6960 N.am  1 <1>  -0.8490 
  5 C       -1.2620    -0.7870    -0.6790 C.ar  1 <1>  -0.0090 
  6 C        1.2440     2.1030    -1.0600 C.3   1 <1>   0.1960 
  7 C        2.3570     0.0120    -0.4390 C.3   1 <1>   0.1960 
  8 C       -2.0840     0.0730     0.0450 C.ar  1 <1>   0.0830 
  9 C       -1.4710    -2.1570    -0.5530 C.ar  1 <1>  -0.1500 
 10 C        1.9930     2.8600     0.0390 C.3   1 <1>  -0.1600 
 11 C        3.1280     0.7210     0.6760 C.3   1 <1>  -0.1600 
 12 O       -1.8750     1.4090    -0.0830 O.3   1 <1>  -0.3620 
 13 C       -3.0840    -0.4410     0.8680 C.ar  1 <1>  -0.1500 
 14 C       -2.4630    -2.6730     0.2620 C.ar  1 <1>  -0.1430 
 15 C        3.3490     2.2060     0.3470 C.3   1 <1>  -0.0190 
 16 C       -2.5260     2.3560     0.7340 C.3   1 <1>   0.0400 
 17 C       -3.2690    -1.8050     0.9760 C.ar  1 <1>  -0.1500 
 18 C       -2.6600    -4.1740     0.3750 C.3   1 <1>  -0.0970 
 19 C        4.0800     2.9290     1.4760 C.2   1 <1>   0.5690 
 20 O        3.5730     3.0440     2.5620 O.2   1 <1>  -0.5700 
 21 N        5.3030     3.4420     1.2540 N.am  1 <1>  -0.8000 
 22 H        0.2730     2.5550    -1.1830 H     1 <1>   0.0800 
 23 H        1.7710     2.1790    -1.9960 H     1 <1>   0.0800 
 24 H        2.9450    -0.0130    -1.3420 H     1 <1>   0.0800 
 25 H        2.1650    -1.0040    -0.1340 H     1 <1>   0.0800 
 26 H       -0.8410    -2.8330    -1.1070 H     1 <1>   0.1500 
 27 H        1.3820     2.8700     0.9260 H     1 <1>   0.0800 
 28 H        2.1400     3.8790    -0.2690 H     1 <1>   0.0800 
 29 H        4.0770     0.2350     0.8190 H     1 <1>   0.0800 
 30 H        2.5720     0.6310     1.5940 H     1 <1>   0.0800 
 31 H       -3.7300     0.2050     1.4320 H     1 <1>   0.1500 
 32 H        3.9560     2.2650    -0.5380 H     1 <1>   0.0800 
 33 H       -2.1360     3.3280     0.4900 H     1 <1>   0.0800 
 34 H       -2.3200     2.1280     1.7650 H     1 <1>   0.0800 
 35 H       -3.5810     2.3250     0.5320 H     1 <1>   0.0800 
 36 H       -4.0440    -2.1900     1.6160 H     1 <1>   0.1500 
 37 H       -2.0570    -4.5610     1.1760 H     1 <1>   0.0800 
 38 H       -2.3760    -4.6610    -0.5400 H     1 <1>   0.0800 
 39 H       -3.6910    -4.4050     0.5740 H     1 <1>   0.0800 
 40 H        5.7790     3.9220     2.0200 H     1 <1>   0.3700 
 41 H        5.8030     3.3890     0.3680 H     1 <1>   0.3700 
@<TRIPOS>BOND
  1   1   2  2   
  2   1   3  2   
  3   1   4  am  
  4   1   5  1   
  5   4   6  1   
  6   4   7  1   
  7   5   8  ar  
  8   5   9  ar  
  9   6  10  1   
 10   6  22  1   
 11   6  23  1   
 12   7  11  1   
 13   7  24  1   
 14   7  25  1   
 15   8  12  1   
 16   8  13  ar  
 17   9  14  ar  
 18   9  26  1   
 19  10  15  1   
 20  10  27  1   
 21  10  28  1   
 22  11  15  1   
 23  11  29  1   
 24  11  30  1   
 25  12  16  1   
 26  13  17  ar  
 27  13  31  1   
 28  14  17  ar  
 29  14  18  1   
 30  15  19  1   
 31  15  32  1   
 32  16  33  1   
 33  16  34  1   
 34  16  35  1   
 35  17  36  1   
 36  18  37  1   
 37  18  38  1   
 38  18  39  1   
 39  19  20  2   
 40  19  21  am  
 41  21  40  1   
 42  21  41  1   
@<TRIPOS>SUBSTRUCTURE
  1 ****   4 GROUP 4 **** **** 0

# MOE 2024.06 (io_trps.svl 2023.06)
