@<TRIPOS>MOLECULE
N-[5-(3-Ethyl-[1,2,4]triazolo[3,4-b][1,3,4]thiadiazol-6-yl)-2-methyl-phenyl]-2,2
45 47 1 0 0 
SMALL
USER_CHARGES


@<TRIPOS>ATOM
  1 S       -0.1080     0.4660     0.2910 S.3   1 <1>  -0.1970 
  2 C       -1.6710    -0.2990     0.1640 C.2   1 <1>   0.2420 
  3 C        0.6710    -1.1280     0.0500 C.2   1 <1>   0.5050 
  4 N       -2.9000     0.0730     0.2180 N.2   1 <1>  -0.3380 
  5 N       -1.4850    -1.5890    -0.0340 N.pl3 1 <1>   0.5050 
  6 N       -0.1820    -2.0810    -0.0980 N.2   1 <1>  -0.6520 
  7 C        2.1190    -1.2120     0.0540 C.ar  1 <1>   0.0860 
  8 N       -3.6020    -1.0640     0.0410 N.2   1 <1>  -0.3380 
  9 C       -2.7500    -2.0370    -0.1060 C.2   1 <1>   0.0060 
 10 C        2.9580    -0.0980     0.0940 C.ar  1 <1>  -0.1500 
 11 C        2.7390    -2.4620     0.0180 C.ar  1 <1>  -0.1500 
 12 C       -3.0700    -3.5090    -0.3340 C.3   1 <1>   0.0200 
 13 C        4.3440    -0.2030     0.0920 C.ar  1 <1>   0.1170 
 14 C        4.1150    -2.5900     0.0240 C.ar  1 <1>  -0.1500 
 15 C       -4.5750    -3.7950    -0.4010 C.3   1 <1>  -0.2400 
 16 N        5.1680     0.9330     0.1410 N.am  1 <1>  -0.5470 
 17 C        4.9260    -1.4700     0.0610 C.ar  1 <1>  -0.1430 
 18 C        4.9790     2.2100    -0.3180 C.2   1 <1>   0.5690 
 19 C        6.4390    -1.6540     0.0590 C.3   1 <1>  -0.0970 
 20 O        3.9650     2.5480    -0.8820 O.2   1 <1>  -0.5700 
 21 C        6.1090     3.2550    -0.1180 C.3   1 <1>   0.0610 
 22 C        5.5950     4.4100     0.7610 C.3   1 <1>  -0.2400 
 23 C        7.3680     2.6690     0.5590 C.3   1 <1>  -0.2400 
 24 C        6.5360     3.8300    -1.4820 C.3   1 <1>  -0.2400 
 25 H        2.5290     0.8850     0.1280 H     1 <1>   0.1500 
 26 H        2.1330    -3.3510    -0.0150 H     1 <1>   0.1500 
 27 H       -2.6370    -4.0840     0.4660 H     1 <1>   0.0800 
 28 H       -2.6100    -3.8240    -1.2540 H     1 <1>   0.0800 
 29 H        4.5480    -3.5760    -0.0040 H     1 <1>   0.1500 
 30 H       -5.0500    -3.5030     0.5200 H     1 <1>   0.0800 
 31 H       -4.7480    -4.8430    -0.5630 H     1 <1>   0.0800 
 32 H       -5.0220    -3.2400    -1.2070 H     1 <1>   0.0800 
 33 H        6.0970     0.7600     0.5160 H     1 <1>   0.3700 
 34 H        6.8580    -1.2990     0.9830 H     1 <1>   0.0800 
 35 H        6.8760    -1.1110    -0.7610 H     1 <1>   0.0800 
 36 H        6.7010    -2.6910    -0.0520 H     1 <1>   0.0800 
 37 H        6.3570     5.1570     0.9010 H     1 <1>   0.0800 
 38 H        4.7420     4.8770     0.3000 H     1 <1>   0.0800 
 39 H        5.2930     4.0410     1.7260 H     1 <1>   0.0800 
 40 H        7.7880     1.8770    -0.0360 H     1 <1>   0.0800 
 41 H        7.1340     2.2880     1.5380 H     1 <1>   0.0800 
 42 H        8.1200     3.4300     0.6730 H     1 <1>   0.0800 
 43 H        5.6970     4.2970    -1.9690 H     1 <1>   0.0800 
 44 H        6.8980     3.0460    -2.1230 H     1 <1>   0.0800 
 45 H        7.3110     4.5660    -1.3650 H     1 <1>   0.0800 
@<TRIPOS>BOND
  1   1   2  1   
  2   1   3  1   
  3   2   4  2   
  4   2   5  1   
  5   3   6  2   
  6   3   7  1   
  7   4   8  1   
  8   5   6  1   
  9   5   9  1   
 10   7  10  ar  
 11   7  11  ar  
 12   8   9  2   
 13   9  12  1   
 14  10  13  ar  
 15  10  25  1   
 16  11  14  ar  
 17  11  26  1   
 18  12  15  1   
 19  12  27  1   
 20  12  28  1   
 21  13  16  1   
 22  13  17  ar  
 23  14  17  ar  
 24  14  29  1   
 25  15  30  1   
 26  15  31  1   
 27  15  32  1   
 28  16  18  am  
 29  16  33  1   
 30  17  19  1   
 31  18  20  2   
 32  18  21  1   
 33  19  34  1   
 34  19  35  1   
 35  19  36  1   
 36  21  22  1   
 37  21  23  1   
 38  21  24  1   
 39  22  37  1   
 40  22  38  1   
 41  22  39  1   
 42  23  40  1   
 43  23  41  1   
 44  23  42  1   
 45  24  43  1   
 46  24  44  1   
 47  24  45  1   
@<TRIPOS>SUBSTRUCTURE
  1 ****  10 GROUP 4 **** **** 0

# MOE 2024.06 (io_trps.svl 2023.06)
