@<TRIPOS>MOLECULE
3-Furan-2-ylmethyl-2-methylsulfanyl-3,5,6,7-tetrahydro-cyclopenta[4,5]thieno[2,3
35 38 1 0 0 
SMALL
USER_CHARGES


@<TRIPOS>ATOM
  1 S        0.2090     0.1440     1.0370 S.3   1 <1>  -0.0800 
  2 C        1.5680     1.0200     0.3300 C.2   1 <1>   0.1660 
  3 C       -0.8930     1.3610     0.4230 C.2   1 <1>  -0.1400 
  4 N        2.8430     0.5860     0.4400 N.2   1 <1>  -0.5760 
  5 C        1.1580     2.1480    -0.3150 C.2   1 <1>  -0.0860 
  6 C       -0.2630     2.3160    -0.2430 C.2   1 <1>  -0.1810 
  7 C       -2.3790     1.4880     0.5270 C.3   1 <1>   0.0200 
  8 C        3.7180     1.3440    -0.1300 C.2   1 <1>   0.6510 
  9 C        2.1620     2.9450    -0.9290 C.2   1 <1>   0.7160 
 10 C       -1.2360     3.3440    -0.7560 C.3   1 <1>   0.0210 
 11 C       -2.6100     2.8070    -0.2570 C.3   1 <1>  -0.1600 
 12 S        5.4210     0.8130    -0.0170 S.3   1 <1>  -0.3710 
 13 N        3.4660     2.5150    -0.8120 N.am  1 <1>  -0.4200 
 14 O        1.8920     3.9700    -1.5410 O.2   1 <1>  -0.5700 
 15 C        5.3700    -0.7490     0.9730 C.3   1 <1>  -0.0100 
 16 C        4.5570     3.3690    -1.3570 C.3   1 <1>   0.3200 
 17 C        5.1500     4.2610    -0.2780 C.2   1 <1>  -0.0400 
 18 O        6.1640     5.0380    -0.6080 O.3   1 <1>  -0.2800 
 19 C        4.8350     4.4310     1.0270 C.2   1 <1>  -0.1500 
 20 C        6.5170     5.7150     0.4660 C.2   1 <1>  -0.0100 
 21 C        5.7340     5.3870     1.5150 C.2   1 <1>  -0.1500 
 22 H       -2.6830     1.5750     1.5560 H     1 <1>   0.0800 
 23 H       -2.8670     0.6520     0.0570 H     1 <1>   0.0800 
 24 H       -1.1980     3.3930    -1.8300 H     1 <1>   0.0800 
 25 H       -1.0150     4.3110    -0.3390 H     1 <1>   0.0800 
 26 H       -3.0760     3.5360     0.3820 H     1 <1>   0.0800 
 27 H       -3.2570     2.6250    -1.0970 H     1 <1>   0.0800 
 28 H        6.3780    -1.1100     1.0730 H     1 <1>   0.0800 
 29 H        4.7570    -1.4570     0.4440 H     1 <1>   0.0800 
 30 H        4.9460    -0.5180     1.9340 H     1 <1>   0.0800 
 31 H        4.1860     3.9920    -2.1520 H     1 <1>   0.0800 
 32 H        5.3310     2.7590    -1.7840 H     1 <1>   0.0800 
 33 H        4.0650     3.9550     1.6080 H     1 <1>   0.1500 
 34 H        7.3360     6.4090     0.3960 H     1 <1>   0.1500 
 35 H        5.7650     5.7600     2.5230 H     1 <1>   0.1500 
@<TRIPOS>BOND
  1   1   2  1   
  2   1   3  1   
  3   2   4  1   
  4   2   5  2   
  5   3   6  2   
  6   3   7  1   
  7   4   8  2   
  8   5   6  1   
  9   5   9  1   
 10   6  10  1   
 11   7  11  1   
 12   7  22  1   
 13   7  23  1   
 14   8  12  1   
 15   8  13  1   
 16   9  13  am  
 17   9  14  2   
 18  10  11  1   
 19  10  24  1   
 20  10  25  1   
 21  11  26  1   
 22  11  27  1   
 23  12  15  1   
 24  13  16  1   
 25  15  28  1   
 26  15  29  1   
 27  15  30  1   
 28  16  17  1   
 29  16  31  1   
 30  16  32  1   
 31  17  18  1   
 32  17  19  2   
 33  18  20  1   
 34  19  21  1   
 35  19  33  1   
 36  20  21  2   
 37  20  34  1   
 38  21  35  1   
@<TRIPOS>SUBSTRUCTURE
  1 ****   9 GROUP 4 **** **** 0

# MOE 2024.06 (io_trps.svl 2023.06)
