@<TRIPOS>MOLECULE
N-(5-Chloro-2-methoxy-phenyl)-N-(1-methyl-2-morpholin-4-yl-2-oxo-ethyl)-methanes
45 46 1 0 0 
SMALL
USER_CHARGES


@<TRIPOS>ATOM
  1 CL       1.7260     2.7610    -1.0690 Cl    1 <1>  -0.1770 
  2 C        3.0690     2.2550    -0.0760 C.ar  1 <1>   0.1770 
  3 C        3.6960     1.0570    -0.3530 C.ar  1 <1>  -0.1500 
  4 C        3.4820     3.0630     0.9650 C.ar  1 <1>  -0.1500 
  5 C        4.7700     0.6290     0.4160 C.ar  1 <1>   0.1990 
  6 C        4.5550     2.6550     1.7390 C.ar  1 <1>  -0.1500 
  7 N        5.3480    -0.6030     0.0910 N.am  1 <1>  -0.6930 
  8 C        5.1990     1.4560     1.4750 C.ar  1 <1>   0.0830 
  9 S        4.6670    -2.0620     0.7290 S.o2  1 <1>   1.3330 
 10 C        6.6080    -0.7210    -0.7170 C.3   1 <1>   0.3370 
 11 O        6.2730     1.1830     2.2620 O.3   1 <1>  -0.3630 
 12 O        3.8110    -1.6990     1.8310 O.2   1 <1>  -0.6500 
 13 O        5.7280    -3.0200     0.9000 O.2   1 <1>  -0.6500 
 14 C        3.6310    -2.6110    -0.6100 C.3   1 <1>  -0.1350 
 15 C        7.8850    -0.0660    -0.1180 C.2   1 <1>   0.5690 
 16 C        6.3130    -0.3820    -2.1870 C.3   1 <1>  -0.2400 
 17 C        6.2720    -0.0030     3.0270 C.3   1 <1>   0.0400 
 18 O        8.5970    -0.8110     0.5190 O.2   1 <1>  -0.5700 
 19 N        8.2830     1.2430    -0.3270 N.am  1 <1>  -0.6600 
 20 C        7.4560     2.3610    -0.8770 C.3   1 <1>   0.1400 
 21 C        9.6530     1.6940     0.0800 C.3   1 <1>   0.1400 
 22 C        7.5510     3.6230     0.0000 C.3   1 <1>   0.1200 
 23 C        9.5920     2.9780     0.9190 C.3   1 <1>   0.1200 
 24 O        8.8830     3.9690     0.2330 O.3   1 <1>  -0.5600 
 25 H        3.3430     0.4610    -1.1710 H     1 <1>   0.1500 
 26 H        2.9750     3.9900     1.1640 H     1 <1>   0.1500 
 27 H        4.8990     3.2670     2.5540 H     1 <1>   0.1500 
 28 H        6.8690    -1.7640    -0.7420 H     1 <1>   0.0800 
 29 H        2.8820    -1.8770    -0.8270 H     1 <1>   0.0800 
 30 H        3.1410    -3.5250    -0.3370 H     1 <1>   0.0800 
 31 H        4.2170    -2.7880    -1.4890 H     1 <1>   0.0800 
 32 H        5.8700     0.5870    -2.3020 H     1 <1>   0.0800 
 33 H        5.6460    -1.1140    -2.6030 H     1 <1>   0.0800 
 34 H        7.2290    -0.4100    -2.7500 H     1 <1>   0.0800 
 35 H        6.9330     0.1380     3.8620 H     1 <1>   0.0800 
 36 H        6.6340    -0.8140     2.4230 H     1 <1>   0.0800 
 37 H        5.2740    -0.2020     3.3780 H     1 <1>   0.0800 
 38 H        6.4250     2.0830    -0.9350 H     1 <1>   0.0800 
 39 H        7.7980     2.5980    -1.8690 H     1 <1>   0.0800 
 40 H       10.2380     1.8810    -0.8030 H     1 <1>   0.0800 
 41 H       10.1580     0.9350     0.6510 H     1 <1>   0.0800 
 42 H        7.0720     3.4630     0.9500 H     1 <1>   0.0800 
 43 H        7.0750     4.4530    -0.4890 H     1 <1>   0.0800 
 44 H       10.5830     3.3500     1.1040 H     1 <1>   0.0800 
 45 H        9.1080     2.7900     1.8620 H     1 <1>   0.0800 
@<TRIPOS>BOND
  1   1   2  1   
  2   2   3  ar  
  3   2   4  ar  
  4   3   5  ar  
  5   3  25  1   
  6   4   6  ar  
  7   4  26  1   
  8   5   7  1   
  9   5   8  ar  
 10   6   8  ar  
 11   6  27  1   
 12   7   9  am  
 13   7  10  1   
 14   8  11  1   
 15   9  12  2   
 16   9  13  2   
 17   9  14  1   
 18  10  15  1   
 19  10  16  1   
 20  10  28  1   
 21  11  17  1   
 22  14  29  1   
 23  14  30  1   
 24  14  31  1   
 25  15  18  2   
 26  15  19  am  
 27  16  32  1   
 28  16  33  1   
 29  16  34  1   
 30  17  35  1   
 31  17  36  1   
 32  17  37  1   
 33  19  20  1   
 34  19  21  1   
 35  20  22  1   
 36  20  38  1   
 37  20  39  1   
 38  21  23  1   
 39  21  40  1   
 40  21  41  1   
 41  22  24  1   
 42  22  42  1   
 43  22  43  1   
 44  23  24  1   
 45  23  44  1   
 46  23  45  1   
@<TRIPOS>SUBSTRUCTURE
  1 ****   5 GROUP 4 **** **** 0

# MOE 2024.06 (io_trps.svl 2023.06)
