@<TRIPOS>MOLECULE
{4-[(Tetrahydro-furan-2-ylmethyl)-sulfamoyl]-phenyl}-carbamic acid ethyl ester
42 43 1 0 0 
SMALL
USER_CHARGES


@<TRIPOS>ATOM
  1 S       -0.1010     0.5870    -1.2410 S.o2  1 <1>   1.4470 
  2 O       -0.1650     1.2210    -2.5380 O.2   1 <1>  -0.6500 
  3 O        1.0260    -0.2570    -0.9160 O.2   1 <1>  -0.6500 
  4 N       -0.0880     1.8170    -0.0980 N.am  1 <1>  -0.9140 
  5 C       -1.6530    -0.2880    -0.9050 C.ar  1 <1>  -0.0090 
  6 C        0.8350     2.9070    -0.4020 C.3   1 <1>   0.1960 
  7 C       -2.8600     0.3970    -0.8230 C.ar  1 <1>  -0.1500 
  8 C       -1.6850    -1.6670    -0.7310 C.ar  1 <1>  -0.1500 
  9 C        2.2820     2.5070    -0.0620 C.3   1 <1>   0.2000 
 10 C       -4.0490    -0.2650    -0.5750 C.ar  1 <1>  -0.1500 
 11 C       -2.8720    -2.3330    -0.4820 C.ar  1 <1>  -0.1500 
 12 O        2.3200     1.9380     1.2080 O.3   1 <1>  -0.5600 
 13 C        3.2670     3.6660     0.0210 C.3   1 <1>  -0.1600 
 14 C       -4.0750    -1.6440    -0.3980 C.ar  1 <1>   0.1170 
 15 C        3.6250     1.9620     1.6880 C.3   1 <1>   0.1200 
 16 C        4.2910     3.1720     1.0330 C.3   1 <1>  -0.1600 
 17 N       -5.2490    -2.3680    -0.1520 N.am  1 <1>  -0.5470 
 18 C       -6.4930    -1.9860     0.2470 C.2   1 <1>   0.7800 
 19 O       -6.8210    -0.8440     0.4950 O.2   1 <1>  -0.5700 
 20 O       -7.3700    -2.9780     0.3670 O.3   1 <1>  -0.4300 
 21 C       -8.6940    -2.7250     0.7790 C.3   1 <1>   0.1200 
 22 C       -9.4410    -4.0540     0.8170 C.3   1 <1>  -0.2400 
 23 H        0.3420     1.3800     0.7250 H     1 <1>   0.4200 
 24 H        0.5660     3.7530     0.2060 H     1 <1>   0.0800 
 25 H        0.7570     3.2100    -1.4330 H     1 <1>   0.0800 
 26 H       -2.8660     1.4660    -0.9570 H     1 <1>   0.1500 
 27 H       -0.7650    -2.2260    -0.7900 H     1 <1>   0.1500 
 28 H        2.6450     1.7710    -0.7610 H     1 <1>   0.0800 
 29 H       -4.9580     0.3060    -0.5260 H     1 <1>   0.1500 
 30 H       -2.8590    -3.4000    -0.3510 H     1 <1>   0.1500 
 31 H        2.7740     4.5450     0.3960 H     1 <1>   0.0800 
 32 H        3.7040     3.8830    -0.9370 H     1 <1>   0.0800 
 33 H        4.1050     1.0440     1.3940 H     1 <1>   0.0800 
 34 H        3.5970     2.0390     2.7610 H     1 <1>   0.0800 
 35 H        4.5170     3.9280     1.7640 H     1 <1>   0.0800 
 36 H        5.2040     2.8660     0.5510 H     1 <1>   0.0800 
 37 H       -5.1820    -3.3770    -0.2500 H     1 <1>   0.3700 
 38 H       -9.1470    -2.0460     0.0760 H     1 <1>   0.0800 
 39 H       -8.6670    -2.2680     1.7550 H     1 <1>   0.0800 
 40 H       -9.4510    -4.5020    -0.1600 H     1 <1>   0.0800 
 41 H      -10.4560    -3.8900     1.1290 H     1 <1>   0.0800 
 42 H       -8.9720    -4.7230     1.5160 H     1 <1>   0.0800 
@<TRIPOS>BOND
  1   1   2  2   
  2   1   3  2   
  3   1   4  am  
  4   1   5  1   
  5   4   6  1   
  6   4  23  1   
  7   5   7  ar  
  8   5   8  ar  
  9   6   9  1   
 10   6  24  1   
 11   6  25  1   
 12   7  10  ar  
 13   7  26  1   
 14   8  11  ar  
 15   8  27  1   
 16   9  12  1   
 17   9  13  1   
 18   9  28  1   
 19  10  14  ar  
 20  10  29  1   
 21  11  14  ar  
 22  11  30  1   
 23  12  15  1   
 24  13  16  1   
 25  13  31  1   
 26  13  32  1   
 27  14  17  1   
 28  15  16  1   
 29  15  33  1   
 30  15  34  1   
 31  16  35  1   
 32  16  36  1   
 33  17  18  am  
 34  17  37  1   
 35  18  19  2   
 36  18  20  1   
 37  20  21  1   
 38  21  22  1   
 39  21  38  1   
 40  21  39  1   
 41  22  40  1   
 42  22  41  1   
 43  22  42  1   
@<TRIPOS>SUBSTRUCTURE
  1 ****   5 GROUP 4 **** **** 0

# MOE 2024.06 (io_trps.svl 2023.06)
