@<TRIPOS>MOLECULE
2-[2-Chloro-4-(piperidine-1-sulfonyl)-phenoxy]-N-pyridin-2-ylmethyl-acetamide
50 52 1 0 0 
SMALL
USER_CHARGES


@<TRIPOS>ATOM
  1 CL       1.7520    -2.3130     1.8870 Cl    1 <1>  -0.1770 
  2 C        1.0990    -2.6670     0.3030 C.ar  1 <1>   0.1770 
  3 C        1.9240    -2.6360    -0.8150 C.ar  1 <1>   0.0820 
  4 C       -0.2430    -2.9720     0.1990 C.ar  1 <1>  -0.1500 
  5 O        3.2310    -2.3260    -0.6350 O.3   1 <1>  -0.3630 
  6 C        1.3680    -2.9240    -2.0570 C.ar  1 <1>  -0.1500 
  7 C       -0.8070    -3.2640    -1.0370 C.ar  1 <1>  -0.0090 
  8 C        4.1290    -2.1750    -1.7270 C.3   1 <1>   0.1810 
  9 C        0.0200    -3.2310    -2.1560 C.ar  1 <1>  -0.1500 
 10 S       -2.5700    -3.6590    -1.1800 S.o2  1 <1>   1.4470 
 11 C        5.5100    -1.7540    -1.2410 C.2   1 <1>   0.5690 
 12 O       -2.8110    -4.3660    -2.4200 O.2   1 <1>  -0.6500 
 13 O       -3.3320    -2.4680    -0.8780 O.2   1 <1>  -0.6500 
 14 N       -2.8140    -4.7630     0.0830 N.am  1 <1>  -0.8490 
 15 O        6.4030    -1.6570    -2.0490 O.2   1 <1>  -0.5700 
 16 N        5.7110    -1.5090     0.0770 N.am  1 <1>  -0.7300 
 17 C       -4.2340    -4.8720     0.4310 C.3   1 <1>   0.1960 
 18 C       -2.2470    -6.0820    -0.2200 C.3   1 <1>   0.1960 
 19 C        7.0170    -1.1810     0.6960 C.3   1 <1>   0.2840 
 20 C       -4.4120    -5.7500     1.6750 C.3   1 <1>  -0.1600 
 21 C       -2.3400    -6.9930     1.0080 C.3   1 <1>  -0.1600 
 22 C        7.5740    -2.3930     1.4300 C.ar  1 <1>   0.1670 
 23 C       -3.7910    -7.1390     1.4810 C.3   1 <1>  -0.1600 
 24 N        7.3900    -2.4440     2.7430 N.ar  1 <1>  -0.6200 
 25 C        8.2330    -3.3720     0.7010 C.ar  1 <1>  -0.1500 
 26 C        7.8840    -3.5130     3.3480 C.ar  1 <1>   0.1600 
 27 C        8.7440    -4.4780     1.3460 C.ar  1 <1>  -0.1500 
 28 C        8.5580    -4.5400     2.7100 C.ar  1 <1>  -0.1500 
 29 H       -0.8540    -2.9840     1.0850 H     1 <1>   0.1500 
 30 H        1.9590    -2.9150    -2.9540 H     1 <1>   0.1500 
 31 H        3.7410    -1.4210    -2.3860 H     1 <1>   0.0800 
 32 H        4.2040    -3.1150    -2.2400 H     1 <1>   0.0800 
 33 H       -0.4020    -3.4500    -3.1240 H     1 <1>   0.1500 
 34 H        4.9530    -1.7140     0.7360 H     1 <1>   0.3700 
 35 H       -4.7840    -5.2870    -0.3990 H     1 <1>   0.0800 
 36 H       -4.6350    -3.8950     0.6450 H     1 <1>   0.0800 
 37 H       -1.2120    -5.9790    -0.4990 H     1 <1>   0.0800 
 38 H       -2.7760    -6.5310    -1.0460 H     1 <1>   0.0800 
 39 H        6.8890    -0.3680     1.3880 H     1 <1>   0.0800 
 40 H        7.7140    -0.8690    -0.0620 H     1 <1>   0.0800 
 41 H       -5.4600    -5.8500     1.8940 H     1 <1>   0.0800 
 42 H       -3.9470    -5.2590     2.5120 H     1 <1>   0.0800 
 43 H       -1.7390    -6.5750     1.7980 H     1 <1>   0.0800 
 44 H       -1.9400    -7.9610     0.7660 H     1 <1>   0.0800 
 45 H       -4.3550    -7.6820     0.7420 H     1 <1>   0.0800 
 46 H       -3.8260    -7.6910     2.4040 H     1 <1>   0.0800 
 47 H        8.3380    -3.2680    -0.3660 H     1 <1>   0.1500 
 48 H        7.7430    -3.5730     4.4140 H     1 <1>   0.1500 
 49 H        9.2600    -5.2550     0.8090 H     1 <1>   0.1500 
 50 H        8.9300    -5.3740     3.2750 H     1 <1>   0.1500 
@<TRIPOS>BOND
  1   1   2  1   
  2   2   3  ar  
  3   2   4  ar  
  4   3   5  1   
  5   3   6  ar  
  6   4   7  ar  
  7   4  29  1   
  8   5   8  1   
  9   6   9  ar  
 10   6  30  1   
 11   7   9  ar  
 12   7  10  1   
 13   8  11  1   
 14   8  31  1   
 15   8  32  1   
 16   9  33  1   
 17  10  12  2   
 18  10  13  2   
 19  10  14  am  
 20  11  15  2   
 21  11  16  am  
 22  14  17  1   
 23  14  18  1   
 24  16  19  1   
 25  16  34  1   
 26  17  20  1   
 27  17  35  1   
 28  17  36  1   
 29  18  21  1   
 30  18  37  1   
 31  18  38  1   
 32  19  22  1   
 33  19  39  1   
 34  19  40  1   
 35  20  23  1   
 36  20  41  1   
 37  20  42  1   
 38  21  23  1   
 39  21  43  1   
 40  21  44  1   
 41  22  24  ar  
 42  22  25  ar  
 43  23  45  1   
 44  23  46  1   
 45  24  26  ar  
 46  25  27  ar  
 47  25  47  1   
 48  26  28  ar  
 49  26  48  1   
 50  27  28  ar  
 51  27  49  1   
 52  28  50  1   
@<TRIPOS>SUBSTRUCTURE
  1 ****   2 GROUP 4 **** **** 0

# MOE 2024.06 (io_trps.svl 2023.06)
