@<TRIPOS>MOLECULE
N-tert-Butyl-3-[3-(3,4,5-trimethoxy-phenyl)-[1,2,4]oxadiazol-5-yl]-propionamide
51 52 1 0 0 
SMALL
USER_CHARGES


@<TRIPOS>ATOM
  1 O       -0.1490    -0.7800    -1.3730 O.2   1 <1>  -0.5700 
  2 C        0.3300    -1.6930    -0.7510 C.2   1 <1>   0.5690 
  3 N        1.5540    -1.5220    -0.2000 N.am  1 <1>  -0.7300 
  4 C       -0.4630    -2.9820    -0.6190 C.3   1 <1>  -0.0990 
  5 C        2.4550    -2.3450     0.6140 C.3   1 <1>   0.3000 
  6 C       -1.6000    -3.0960    -1.6460 C.3   1 <1>   0.0200 
  7 C        3.1280    -3.3890    -0.2760 C.3   1 <1>  -0.2400 
  8 C        1.7160    -2.9940     1.7860 C.3   1 <1>  -0.2400 
  9 C        3.5140    -1.3890     1.1610 C.3   1 <1>  -0.2400 
 10 C       -2.3160    -4.4250    -1.5180 C.2   1 <1>   0.2980 
 11 O       -1.6920    -5.5130    -1.8870 O.3   1 <1>  -0.0190 
 12 N       -3.4890    -4.5960    -1.0700 N.2   1 <1>  -0.5650 
 13 N       -2.5440    -6.4600    -1.6520 N.2   1 <1>  -0.4100 
 14 C       -3.6100    -5.9230    -1.1720 C.2   1 <1>   0.4620 
 15 C       -4.8140    -6.6350    -0.7760 C.ar  1 <1>   0.0540 
 16 C       -4.9010    -8.0230    -0.8840 C.ar  1 <1>  -0.1500 
 17 C       -5.9300    -5.9670    -0.2700 C.ar  1 <1>  -0.1500 
 18 C       -6.0400    -8.7120    -0.5110 C.ar  1 <1>   0.0820 
 19 C       -7.0820    -6.6340     0.1100 C.ar  1 <1>   0.0820 
 20 O       -6.0220   -10.0620    -0.6490 O.3   1 <1>  -0.3630 
 21 C       -7.1570    -8.0240    -0.0310 C.ar  1 <1>   0.0820 
 22 O       -8.0890    -5.8560     0.5920 O.3   1 <1>  -0.3630 
 23 C       -6.0530   -10.8150     0.5430 C.3   1 <1>   0.0400 
 24 O       -8.3010    -8.6970     0.2640 O.3   1 <1>  -0.3630 
 25 C       -8.7970    -6.2740     1.7390 C.3   1 <1>   0.0400 
 26 C       -9.0780    -9.0740    -0.8500 C.3   1 <1>   0.0400 
 27 H        1.9490    -0.6020    -0.3980 H     1 <1>   0.3700 
 28 H       -0.8830    -3.0220     0.3690 H     1 <1>   0.0800 
 29 H        0.1980    -3.8160    -0.7460 H     1 <1>   0.0800 
 30 H       -1.2080    -3.0040    -2.6430 H     1 <1>   0.0800 
 31 H       -2.3090    -2.3010    -1.4910 H     1 <1>   0.0800 
 32 H        2.4150    -4.0910    -0.6630 H     1 <1>   0.0800 
 33 H        3.8570    -3.9400     0.2900 H     1 <1>   0.0800 
 34 H        3.6300    -2.9130    -1.0990 H     1 <1>   0.0800 
 35 H        2.4240    -3.4230     2.4720 H     1 <1>   0.0800 
 36 H        1.0760    -3.7890     1.4580 H     1 <1>   0.0800 
 37 H        1.1360    -2.2600     2.3170 H     1 <1>   0.0800 
 38 H        4.2250    -1.9260     1.7620 H     1 <1>   0.0800 
 39 H        3.0570    -0.6340     1.7770 H     1 <1>   0.0800 
 40 H        4.0490    -0.9130     0.3580 H     1 <1>   0.0800 
 41 H       -4.0660    -8.5820    -1.2660 H     1 <1>   0.1500 
 42 H       -5.9060    -4.8970    -0.1650 H     1 <1>   0.1500 
 43 H       -5.9160   -11.8500     0.2890 H     1 <1>   0.0800 
 44 H       -7.0040   -10.6810     1.0260 H     1 <1>   0.0800 
 45 H       -5.2560   -10.4830     1.1850 H     1 <1>   0.0800 
 46 H       -9.2250    -5.4040     2.2030 H     1 <1>   0.0800 
 47 H       -8.1170    -6.7570     2.4180 H     1 <1>   0.0800 
 48 H       -9.5790    -6.9470     1.4410 H     1 <1>   0.0800 
 49 H       -9.3430    -8.1890    -1.4020 H     1 <1>   0.0800 
 50 H       -9.9640    -9.5660    -0.4930 H     1 <1>   0.0800 
 51 H       -8.5070    -9.7440    -1.4670 H     1 <1>   0.0800 
@<TRIPOS>BOND
  1   1   2  2   
  2   2   3  am  
  3   2   4  1   
  4   3   5  1   
  5   3  27  1   
  6   4   6  1   
  7   4  28  1   
  8   4  29  1   
  9   5   7  1   
 10   5   8  1   
 11   5   9  1   
 12   6  10  1   
 13   6  30  1   
 14   6  31  1   
 15   7  32  1   
 16   7  33  1   
 17   7  34  1   
 18   8  35  1   
 19   8  36  1   
 20   8  37  1   
 21   9  38  1   
 22   9  39  1   
 23   9  40  1   
 24  10  11  1   
 25  10  12  2   
 26  11  13  1   
 27  12  14  1   
 28  13  14  2   
 29  14  15  1   
 30  15  16  ar  
 31  15  17  ar  
 32  16  18  ar  
 33  16  41  1   
 34  17  19  ar  
 35  17  42  1   
 36  18  20  1   
 37  18  21  ar  
 38  19  21  ar  
 39  19  22  1   
 40  20  23  1   
 41  21  24  1   
 42  22  25  1   
 43  23  43  1   
 44  23  44  1   
 45  23  45  1   
 46  24  26  1   
 47  25  46  1   
 48  25  47  1   
 49  25  48  1   
 50  26  49  1   
 51  26  50  1   
 52  26  51  1   
@<TRIPOS>SUBSTRUCTURE
  1 ****  14 GROUP 4 **** **** 0

# MOE 2024.06 (io_trps.svl 2023.06)
