@<TRIPOS>MOLECULE
2-Methyl-5-(pyrrolidine-1-sulfonyl)-benzoic acid
32 33 1 0 0 
SMALL
USER_CHARGES


@<TRIPOS>ATOM
  1 S       -0.0750    -0.1620    -1.5790 S.o2  1 <1>   1.4470 
  2 O       -0.3480    -1.4460    -2.1910 O.2   1 <1>  -0.6500 
  3 O        0.5680     0.8580    -2.3810 O.2   1 <1>  -0.6500 
  4 N        0.9660    -0.4750    -0.2790 N.am  1 <1>  -0.8490 
  5 C       -1.5760     0.4710    -0.7780 C.ar  1 <1>  -0.0090 
  6 C        2.1850    -1.1430    -0.6890 C.3   1 <1>   0.1960 
  7 C        1.3950     0.7100     0.4490 C.3   1 <1>   0.1960 
  8 C       -1.6740     1.7950    -0.3750 C.ar  1 <1>  -0.1500 
  9 C       -2.6520    -0.3610    -0.5090 C.ar  1 <1>  -0.1500 
 10 C        3.1260    -0.9830     0.4990 C.3   1 <1>  -0.1600 
 11 C        2.6120     0.2510     1.2420 C.3   1 <1>  -0.1600 
 12 C       -2.7790     2.3220     0.2990 C.ar  1 <1>  -0.1790 
 13 C       -3.7770     0.1230     0.1310 C.ar  1 <1>  -0.1500 
 14 C       -3.8520     1.4460     0.5310 C.ar  1 <1>  -0.1440 
 15 C       -2.7300     3.7260     0.7140 C.2   1 <1>   0.9790 
 16 C       -5.1250     1.9150     1.2220 C.3   1 <1>  -0.0960 
 17 O       -3.3830     4.1570     1.6800 O.co2 1 <1>  -0.9000 
 18 O       -1.9800     4.5210     0.1190 O.co2 1 <1>  -0.9000 
 19 H        2.6010    -0.6490    -1.5540 H     1 <1>   0.0800 
 20 H        1.9970    -2.1780    -0.9230 H     1 <1>   0.0800 
 21 H        0.6130     1.0750     1.0950 H     1 <1>   0.0800 
 22 H        1.6850     1.4900    -0.2380 H     1 <1>   0.0800 
 23 H       -0.8520     2.4610    -0.5880 H     1 <1>   0.1500 
 24 H       -2.6080    -1.3960    -0.8020 H     1 <1>   0.1500 
 25 H        4.1430    -0.8650     0.1680 H     1 <1>   0.0800 
 26 H        3.0580    -1.8520     1.1300 H     1 <1>   0.0800 
 27 H        2.3120    -0.0120     2.2410 H     1 <1>   0.0800 
 28 H        3.3490     1.0330     1.2900 H     1 <1>   0.0800 
 29 H       -4.5990    -0.5440     0.3190 H     1 <1>   0.1500 
 30 H       -5.4790     2.8190     0.7600 H     1 <1>   0.0800 
 31 H       -4.9170     2.1240     2.2560 H     1 <1>   0.0800 
 32 H       -5.9020     1.1770     1.1660 H     1 <1>   0.0800 
@<TRIPOS>BOND
  1   1   2  2   
  2   1   3  2   
  3   1   4  am  
  4   1   5  1   
  5   4   6  1   
  6   4   7  1   
  7   5   8  ar  
  8   5   9  ar  
  9   6  10  1   
 10   6  19  1   
 11   6  20  1   
 12   7  11  1   
 13   7  21  1   
 14   7  22  1   
 15   8  12  ar  
 16   8  23  1   
 17   9  13  ar  
 18   9  24  1   
 19  10  11  1   
 20  10  25  1   
 21  10  26  1   
 22  11  27  1   
 23  11  28  1   
 24  12  14  ar  
 25  12  15  1   
 26  13  14  ar  
 27  13  29  1   
 28  14  16  1   
 29  15  17  ar  
 30  15  18  ar  
 31  16  30  1   
 32  16  31  1   
 33  16  32  1   
@<TRIPOS>SUBSTRUCTURE
  1 ****   5 GROUP 4 **** **** 0

# MOE 2024.06 (io_trps.svl 2023.06)
