@<TRIPOS>MOLECULE
3-Isopropyl-5-methyl-isoxazole-4-carboxylic acid
22 22 1 0 0 
SMALL
USER_CHARGES


@<TRIPOS>ATOM
  1 O        1.2110    -0.8960    -2.1240 O.co2 1 <1>  -0.9000 
  2 C        2.2230    -0.6510    -1.4460 C.2   1 <1>   1.0330 
  3 O        2.7280     0.4820    -1.5300 O.co2 1 <1>  -0.9000 
  4 C        2.7920    -1.6630    -0.5800 C.2   1 <1>  -0.2330 
  5 C        4.0910    -1.7480    -0.0910 C.2   1 <1>   0.1080 
  6 C        2.2360    -2.7650    -0.0310 C.2   1 <1>  -0.0400 
  7 N        4.2210    -2.7880     0.6530 N.2   1 <1>  -0.4100 
  8 C        5.2240    -0.7590    -0.3770 C.3   1 <1>   0.1010 
  9 O        3.0860    -3.4430     0.7060 O.3   1 <1>  -0.0190 
 10 C        0.8220    -3.3010    -0.1380 C.3   1 <1>  -0.0600 
 11 C        6.5930    -1.4530    -0.4360 C.3   1 <1>  -0.2400 
 12 C        5.2410     0.3460     0.6850 C.3   1 <1>  -0.2400 
 13 H        5.0520    -0.3090    -1.3390 H     1 <1>   0.0800 
 14 H        0.1960    -2.6290    -0.6950 H     1 <1>   0.0800 
 15 H        0.4060    -3.4210     0.8450 H     1 <1>   0.0800 
 16 H        0.8350    -4.2520    -0.6360 H     1 <1>   0.0800 
 17 H        6.8340    -1.8890     0.5170 H     1 <1>   0.0800 
 18 H        7.3580    -0.7470    -0.7030 H     1 <1>   0.0800 
 19 H        6.5690    -2.2340    -1.1740 H     1 <1>   0.0800 
 20 H        5.3970    -0.0760     1.6610 H     1 <1>   0.0800 
 21 H        4.2940     0.8580     0.6790 H     1 <1>   0.0800 
 22 H        6.0150     1.0600     0.4740 H     1 <1>   0.0800 
@<TRIPOS>BOND
  1   1   2  ar  
  2   2   3  ar  
  3   2   4  1   
  4   4   5  1   
  5   4   6  2   
  6   5   7  2   
  7   5   8  1   
  8   6   9  1   
  9   6  10  1   
 10   7   9  1   
 11   8  11  1   
 12   8  12  1   
 13   8  13  1   
 14  10  14  1   
 15  10  15  1   
 16  10  16  1   
 17  11  17  1   
 18  11  18  1   
 19  11  19  1   
 20  12  20  1   
 21  12  21  1   
 22  12  22  1   
@<TRIPOS>SUBSTRUCTURE
  1 ****   4 GROUP 4 **** **** 0

# MOE 2024.06 (io_trps.svl 2023.06)
