@<TRIPOS>MOLECULE
1-Allyl-4-hydroxy-6,7-dimethoxy-2-oxo-1,2-dihydro-quinoline-3-carboxylic acid (2
52 53 1 0 0 
SMALL
USER_CHARGES


@<TRIPOS>ATOM
  1 O       -0.2410    -0.4100    -2.0860 O.2   1 <1>  -0.5700 
  2 C       -0.9200     0.4490    -1.5200 C.2   1 <1>   0.5350 
  3 N       -2.2180     0.1320    -1.1360 N.am  1 <1>  -0.4770 
  4 C       -0.3870     1.7160    -1.2410 C.3   1 <1>  -0.7150 
  5 C       -3.0110     1.0440    -0.4070 C.ar  1 <1>   0.1170 
  6 C       -2.7950    -1.1590    -1.6190 C.3   1 <1>   0.2780 
  7 C       -1.0860     2.5590    -0.3670 C.2   1 <1>   0.3890 
  8 C        0.7960     2.1340    -1.8620 C.2   1 <1>   0.5350 
  9 C       -2.4550     2.2760    -0.0270 C.ar  1 <1>   0.0860 
 10 C       -4.3290     0.7640    -0.0320 C.ar  1 <1>  -0.1500 
 11 C       -2.9100    -2.2010    -0.5080 C.2   1 <1>  -0.2880 
 12 O       -0.5110     3.5040     0.1900 O.2   1 <1>  -0.5700 
 13 O        0.8920     3.1910    -2.4680 O.2   1 <1>  -0.5700 
 14 N        1.9160     1.3670    -1.7870 N.am  1 <1>  -0.7300 
 15 C       -3.2420     3.1940     0.6750 C.ar  1 <1>  -0.1500 
 16 C       -5.0920     1.6680     0.6780 C.ar  1 <1>   0.0830 
 17 C       -2.5230    -2.0840     0.7680 C.2   1 <1>  -0.3000 
 18 C        2.3770     0.8390    -0.4750 C.3   1 <1>   0.1400 
 19 C       -4.5470     2.9120     1.0140 C.ar  1 <1>   0.0830 
 20 O       -6.3500     1.3000     1.0160 O.3   1 <1>  -0.3630 
 21 C        2.0110     1.7120     0.7490 C.3   1 <1>   0.3430 
 22 O       -5.2590     3.8670     1.6630 O.3   1 <1>  -0.3630 
 23 C       -6.6460     1.2120     2.3930 C.3   1 <1>   0.0400 
 24 N        2.7680     3.0080     0.9200 N.4   1 <1>  -0.9590 
 25 C       -6.2470     4.5080     0.8880 C.3   1 <1>   0.0400 
 26 C        2.1730     3.7370     2.0740 C.3   1 <1>   0.2630 
 27 C        2.6420     3.8950    -0.2820 C.3   1 <1>   0.2630 
 28 H       -2.2010    -1.5670    -2.4180 H     1 <1>   0.0800 
 29 H       -3.7660    -0.9660    -2.0390 H     1 <1>   0.0800 
 30 H       -4.7840    -0.1750    -0.2750 H     1 <1>   0.1500 
 31 H       -3.3590    -3.1070    -0.8750 H     1 <1>   0.1500 
 32 H        1.7660     0.5830    -2.4310 H     1 <1>   0.3700 
 33 H       -2.8210     4.1440     0.9490 H     1 <1>   0.1500 
 34 H       -2.6310    -2.8610     1.5040 H     1 <1>   0.1500 
 35 H       -2.0640    -1.2010     1.1800 H     1 <1>   0.1500 
 36 H        3.4400     0.6850    -0.5090 H     1 <1>   0.0800 
 37 H        1.9100    -0.1220    -0.3400 H     1 <1>   0.0800 
 38 H        2.1750     1.1120     1.6270 H     1 <1>   0.0800 
 39 H        0.9570     1.9130     0.7170 H     1 <1>   0.0800 
 40 H       -5.8830     0.6290     2.8770 H     1 <1>   0.0800 
 41 H       -7.6010     0.7320     2.5010 H     1 <1>   0.0800 
 42 H       -6.6860     2.2000     2.8140 H     1 <1>   0.0800 
 43 H        3.7610     2.8050     1.0740 H     1 <1>   0.4500 
 44 H       -6.7110     5.2650     1.4940 H     1 <1>   0.0800 
 45 H       -6.9790     3.7840     0.5780 H     1 <1>   0.0800 
 46 H       -5.7770     4.9570     0.0310 H     1 <1>   0.0800 
 47 H        1.1330     3.9450     1.8750 H     1 <1>   0.0800 
 48 H        2.6850     4.6710     2.2320 H     1 <1>   0.0800 
 49 H        2.2410     3.1440     2.9700 H     1 <1>   0.0800 
 50 H        1.6050     4.1270    -0.4650 H     1 <1>   0.0800 
 51 H        3.0310     3.4050    -1.1600 H     1 <1>   0.0800 
 52 H        3.1780     4.8160    -0.1360 H     1 <1>   0.0800 
@<TRIPOS>BOND
  1   1   2  2   
  2   2   3  am  
  3   2   4  1   
  4   3   5  1   
  5   3   6  1   
  6   4   7  1   
  7   4   8  1   
  8   5   9  ar  
  9   5  10  ar  
 10   6  11  1   
 11   6  28  1   
 12   6  29  1   
 13   7   9  1   
 14   7  12  2   
 15   8  13  2   
 16   8  14  am  
 17   9  15  ar  
 18  10  16  ar  
 19  10  30  1   
 20  11  17  2   
 21  11  31  1   
 22  14  18  1   
 23  14  32  1   
 24  15  19  ar  
 25  15  33  1   
 26  16  19  ar  
 27  16  20  1   
 28  17  34  1   
 29  17  35  1   
 30  18  21  1   
 31  18  36  1   
 32  18  37  1   
 33  19  22  1   
 34  20  23  1   
 35  21  24  1   
 36  21  38  1   
 37  21  39  1   
 38  22  25  1   
 39  23  40  1   
 40  23  41  1   
 41  23  42  1   
 42  24  26  1   
 43  24  27  1   
 44  24  43  1   
 45  25  44  1   
 46  25  45  1   
 47  25  46  1   
 48  26  47  1   
 49  26  48  1   
 50  26  49  1   
 51  27  50  1   
 52  27  51  1   
 53  27  52  1   
@<TRIPOS>SUBSTRUCTURE
  1 ****   9 GROUP 4 **** **** 0

# MOE 2024.06 (io_trps.svl 2023.06)
