@<TRIPOS>MOLECULE
1-(4-Methoxy-3-methyl-benzenesulfonyl)-piperidine-4-carboxylic acid (pyridin-3-y
53 55 1 0 0 
SMALL
USER_CHARGES


@<TRIPOS>ATOM
  1 S       -0.0850     0.3460    -2.4910 S.o2  1 <1>   1.4470 
  2 O        0.6110    -0.6260    -3.3080 O.2   1 <1>  -0.6500 
  3 O       -0.8320     1.4030    -3.1380 O.2   1 <1>  -0.6500 
  4 N        1.0950     1.0830    -1.5190 N.am  1 <1>  -0.8490 
  5 C       -1.1530    -0.4970    -1.2910 C.ar  1 <1>  -0.0090 
  6 C        1.8260     2.1160    -2.2570 C.3   1 <1>   0.1960 
  7 C        2.0040     0.1010    -0.9200 C.3   1 <1>   0.1960 
  8 C       -1.5640     0.1430    -0.1270 C.ar  1 <1>  -0.1500 
  9 C       -1.5910    -1.7980    -1.5050 C.ar  1 <1>  -0.1500 
 10 C        2.7740     2.8680    -1.3190 C.3   1 <1>  -0.1600 
 11 C        2.9460     0.7880     0.0700 C.3   1 <1>  -0.1600 
 12 C       -2.3750    -0.4870     0.8040 C.ar  1 <1>  -0.1430 
 13 C       -2.4020    -2.4430    -0.5890 C.ar  1 <1>  -0.1500 
 14 C        3.7460     1.9110    -0.6110 C.3   1 <1>  -0.0190 
 15 C       -2.7990    -1.7910     0.5750 C.ar  1 <1>   0.0820 
 16 C       -2.7920     0.2560     2.0650 C.3   1 <1>  -0.0970 
 17 C        4.6410     2.6480     0.3820 C.2   1 <1>   0.5690 
 18 O       -3.5930    -2.3720     1.5120 O.3   1 <1>  -0.3630 
 19 O        4.1530     3.1980     1.3390 O.2   1 <1>  -0.5700 
 20 N        5.9790     2.6670     0.1660 N.am  1 <1>  -0.7300 
 21 C       -4.0980    -3.6790     1.3540 C.3   1 <1>   0.0400 
 22 C        6.9600     3.2830     1.0770 C.3   1 <1>   0.2840 
 23 C        8.2230     2.4480     1.0360 C.ar  1 <1>  -0.1430 
 24 C        8.3140     1.2910     1.7960 C.ar  1 <1>   0.1600 
 25 C        9.2940     2.8110     0.2440 C.ar  1 <1>  -0.1500 
 26 N        9.3640     0.4860     1.8280 N.ar  1 <1>  -0.6200 
 27 C       10.3970     1.9850     0.2670 C.ar  1 <1>  -0.1500 
 28 C       10.3810     0.8530     1.0640 C.ar  1 <1>   0.1600 
 29 H        1.1300     2.8230    -2.6790 H     1 <1>   0.0800 
 30 H        2.3780     1.6650    -3.0660 H     1 <1>   0.0800 
 31 H        2.5770    -0.3900    -1.6910 H     1 <1>   0.0800 
 32 H        1.4360    -0.6490    -0.3950 H     1 <1>   0.0800 
 33 H       -1.2370     1.1540     0.0450 H     1 <1>   0.1500 
 34 H       -1.2900    -2.3130    -2.4020 H     1 <1>   0.1500 
 35 H        2.1860     3.3960    -0.5870 H     1 <1>   0.0800 
 36 H        3.3270     3.5990    -1.8810 H     1 <1>   0.0800 
 37 H        3.6220     0.0610     0.4850 H     1 <1>   0.0800 
 38 H        2.3630     1.1930     0.8800 H     1 <1>   0.0800 
 39 H       -2.7130    -3.4480    -0.7990 H     1 <1>   0.1500 
 40 H        4.3730     1.4620    -1.3610 H     1 <1>   0.0800 
 41 H       -2.3560     1.2380     2.1030 H     1 <1>   0.0800 
 42 H       -2.4750    -0.2930     2.9330 H     1 <1>   0.0800 
 43 H       -3.8630     0.3530     2.0910 H     1 <1>   0.0800 
 44 H        6.3900     2.1750    -0.6280 H     1 <1>   0.3700 
 45 H       -4.7030    -3.9080     2.2120 H     1 <1>   0.0800 
 46 H       -3.2730    -4.3670     1.2940 H     1 <1>   0.0800 
 47 H       -4.6990    -3.7150     0.4630 H     1 <1>   0.0800 
 48 H        6.5660     3.3190     2.0790 H     1 <1>   0.0800 
 49 H        7.1630     4.2900     0.7560 H     1 <1>   0.0800 
 50 H        7.4740     1.0100     2.4100 H     1 <1>   0.1500 
 51 H        9.2760     3.6980    -0.3660 H     1 <1>   0.1500 
 52 H       11.2650     2.2130    -0.3250 H     1 <1>   0.1500 
 53 H       11.2490     0.2150     1.0750 H     1 <1>   0.1500 
@<TRIPOS>BOND
  1   1   2  2   
  2   1   3  2   
  3   1   4  am  
  4   1   5  1   
  5   4   6  1   
  6   4   7  1   
  7   5   8  ar  
  8   5   9  ar  
  9   6  10  1   
 10   6  29  1   
 11   6  30  1   
 12   7  11  1   
 13   7  31  1   
 14   7  32  1   
 15   8  12  ar  
 16   8  33  1   
 17   9  13  ar  
 18   9  34  1   
 19  10  14  1   
 20  10  35  1   
 21  10  36  1   
 22  11  14  1   
 23  11  37  1   
 24  11  38  1   
 25  12  15  ar  
 26  12  16  1   
 27  13  15  ar  
 28  13  39  1   
 29  14  17  1   
 30  14  40  1   
 31  15  18  1   
 32  16  41  1   
 33  16  42  1   
 34  16  43  1   
 35  17  19  2   
 36  17  20  am  
 37  18  21  1   
 38  20  22  1   
 39  20  44  1   
 40  21  45  1   
 41  21  46  1   
 42  21  47  1   
 43  22  23  1   
 44  22  48  1   
 45  22  49  1   
 46  23  24  ar  
 47  23  25  ar  
 48  24  26  ar  
 49  24  50  1   
 50  25  27  ar  
 51  25  51  1   
 52  26  28  ar  
 53  27  28  ar  
 54  27  52  1   
 55  28  53  1   
@<TRIPOS>SUBSTRUCTURE
  1 ****  11 GROUP 4 **** **** 0

# MOE 2024.06 (io_trps.svl 2023.06)
