@<TRIPOS>MOLECULE
N-(3-p-Tolyl-[1,2,4]oxadiazol-5-ylmethyl)-isobutyramide
36 37 1 0 0 
SMALL
USER_CHARGES


@<TRIPOS>ATOM
  1 O       -1.4740    -0.5170     1.0480 O.2   1 <1>  -0.5700 
  2 C       -2.2890    -0.9550     0.2760 C.2   1 <1>   0.5690 
  3 N       -1.8650    -1.8100    -0.6840 N.am  1 <1>  -0.7300 
  4 C       -3.7630    -0.5410     0.4170 C.3   1 <1>  -0.0190 
  5 C       -2.6590    -2.5500    -1.7010 C.3   1 <1>   0.3200 
  6 C       -3.9190     0.9840     0.5480 C.3   1 <1>  -0.2400 
  7 C       -4.4180    -1.2370     1.6210 C.3   1 <1>  -0.2400 
  8 C       -3.5910    -3.5790    -1.0760 C.2   1 <1>   0.2980 
  9 O       -3.0700    -4.5560    -0.3820 O.3   1 <1>  -0.0190 
 10 N       -4.8570    -3.5850    -1.1610 N.2   1 <1>  -0.5650 
 11 N       -4.0950    -5.2420     0.0140 N.2   1 <1>  -0.4100 
 12 C       -5.1550    -4.6710    -0.4390 C.2   1 <1>   0.4620 
 13 C       -6.5210    -5.1160    -0.2140 C.ar  1 <1>   0.0540 
 14 C       -6.7970    -6.2510     0.5500 C.ar  1 <1>  -0.1500 
 15 C       -7.6150    -4.4320    -0.7480 C.ar  1 <1>  -0.1500 
 16 C       -8.0930    -6.6800     0.7710 C.ar  1 <1>  -0.1500 
 17 C       -8.9130    -4.8570    -0.5310 C.ar  1 <1>  -0.1500 
 18 C       -9.1610    -5.9840     0.2330 C.ar  1 <1>  -0.1440 
 19 C      -10.5850    -6.4540     0.4720 C.3   1 <1>  -0.0970 
 20 H       -0.8740    -2.0510    -0.6260 H     1 <1>   0.3700 
 21 H       -4.2990    -0.8360    -0.4650 H     1 <1>   0.0800 
 22 H       -1.9880    -3.0530    -2.3740 H     1 <1>   0.0800 
 23 H       -3.2410    -1.8510    -2.2750 H     1 <1>   0.0800 
 24 H       -3.4260     1.3340     1.4390 H     1 <1>   0.0800 
 25 H       -4.9580     1.2540     0.5980 H     1 <1>   0.0800 
 26 H       -3.4750     1.4750    -0.2990 H     1 <1>   0.0800 
 27 H       -3.9290    -0.9400     2.5330 H     1 <1>   0.0800 
 28 H       -4.3360    -2.3050     1.5250 H     1 <1>   0.0800 
 29 H       -5.4600    -0.9800     1.6850 H     1 <1>   0.0800 
 30 H       -5.9830    -6.8080     0.9790 H     1 <1>   0.1500 
 31 H       -7.4490    -3.5520    -1.3440 H     1 <1>   0.1500 
 32 H       -8.2670    -7.5610     1.3640 H     1 <1>   0.1500 
 33 H       -9.7320    -4.3050    -0.9600 H     1 <1>   0.1500 
 34 H      -10.6630    -6.9420     1.4270 H     1 <1>   0.0800 
 35 H      -10.8720    -7.1470    -0.2980 H     1 <1>   0.0800 
 36 H      -11.2630    -5.6200     0.4610 H     1 <1>   0.0800 
@<TRIPOS>BOND
  1   1   2  2   
  2   2   3  am  
  3   2   4  1   
  4   3   5  1   
  5   3  20  1   
  6   4   6  1   
  7   4   7  1   
  8   4  21  1   
  9   5   8  1   
 10   5  22  1   
 11   5  23  1   
 12   6  24  1   
 13   6  25  1   
 14   6  26  1   
 15   7  27  1   
 16   7  28  1   
 17   7  29  1   
 18   8   9  1   
 19   8  10  2   
 20   9  11  1   
 21  10  12  1   
 22  11  12  2   
 23  12  13  1   
 24  13  14  ar  
 25  13  15  ar  
 26  14  16  ar  
 27  14  30  1   
 28  15  17  ar  
 29  15  31  1   
 30  16  18  ar  
 31  16  32  1   
 32  17  18  ar  
 33  17  33  1   
 34  18  19  1   
 35  19  34  1   
 36  19  35  1   
 37  19  36  1   
@<TRIPOS>SUBSTRUCTURE
  1 ****  12 GROUP 4 **** **** 0

# MOE 2024.06 (io_trps.svl 2023.06)
