@<TRIPOS>MOLECULE
Diethyl-[2-(5-propyl-5H-[1,2,4]triazino[5,6-b]indol-3-ylsulfanyl)-ethyl]-amine
50 52 1 0 0 
SMALL
USER_CHARGES


@<TRIPOS>ATOM
  1 S       -0.4910    -0.4120    -0.2100 S.3   1 <1>  -0.3320 
  2 C       -2.1040     0.3620    -0.2590 C.ar  1 <1>   0.7220 
  3 C        0.6880     0.9930    -0.0100 C.3   1 <1>   0.0700 
  4 N       -2.1030     1.7120    -0.1420 N.ar  1 <1>  -0.3100 
  5 N       -3.1220    -0.4440    -0.4010 N.ar  1 <1>  -0.5670 
  6 C        2.0950     0.3970     0.0780 C.3   1 <1>   0.3430 
  7 N       -3.2300     2.3610    -0.1660 N.ar  1 <1>  -0.2560 
  8 C       -4.2720     0.2370    -0.4200 C.ar  1 <1>   0.1050 
  9 N        3.1570     1.4540     0.1820 N.4   1 <1>  -0.9590 
 10 C       -4.3330     1.6140    -0.3070 C.ar  1 <1>   0.2560 
 11 N       -5.5410    -0.2650    -0.5480 N.pl3 1 <1>   0.0480 
 12 C        4.5090     0.8730    -0.0540 C.3   1 <1>   0.3430 
 13 C        3.1010     2.1600     1.4940 C.3   1 <1>   0.3430 
 14 C       -5.7040     1.9800    -0.3730 C.ar  1 <1>   0.0000 
 15 C       -6.4280     0.8000    -0.5240 C.ar  1 <1>  -0.1520 
 16 C       -5.8790    -1.6980    -0.7070 C.3   1 <1>   0.0960 
 17 C        4.7010     0.6120    -1.5440 C.3   1 <1>  -0.2400 
 18 C        3.7980     3.5100     1.3760 C.3   1 <1>  -0.2400 
 19 C       -6.3700     3.2050    -0.3180 C.ar  1 <1>  -0.1500 
 20 C       -7.8200     0.8320    -0.6190 C.ar  1 <1>  -0.1500 
 21 C       -5.8970    -2.4340     0.6420 C.3   1 <1>  -0.1600 
 22 C       -7.7440     3.2320    -0.4130 C.ar  1 <1>  -0.1500 
 23 C       -8.4680     2.0470    -0.5630 C.ar  1 <1>  -0.1500 
 24 C       -6.9690    -1.9080     1.6070 C.3   1 <1>  -0.2400 
 25 H        0.4040     1.5100     0.8890 H     1 <1>   0.0800 
 26 H        0.5720     1.6250    -0.8730 H     1 <1>   0.0800 
 27 H        2.2580    -0.1950    -0.8080 H     1 <1>   0.0800 
 28 H        2.1490    -0.2620     0.9300 H     1 <1>   0.0800 
 29 H        2.9960     2.1540    -0.5560 H     1 <1>   0.4500 
 30 H        4.6270    -0.0430     0.5040 H     1 <1>   0.0800 
 31 H        5.2690     1.5630     0.2730 H     1 <1>   0.0800 
 32 H        3.5670     1.5620     2.2620 H     1 <1>   0.0800 
 33 H        2.0750     2.3300     1.7800 H     1 <1>   0.0800 
 34 H       -5.1410    -2.1470    -1.3480 H     1 <1>   0.0800 
 35 H       -6.8350    -1.7830    -1.1890 H     1 <1>   0.0800 
 36 H        4.0260    -0.1410    -1.9070 H     1 <1>   0.0800 
 37 H        5.7030     0.2550    -1.7100 H     1 <1>   0.0800 
 38 H        4.5770     1.5170    -2.1110 H     1 <1>   0.0800 
 39 H        4.8470     3.4000     1.1680 H     1 <1>   0.0800 
 40 H        3.7050     4.0350     2.3110 H     1 <1>   0.0800 
 41 H        3.3380     4.1130     0.6140 H     1 <1>   0.0800 
 42 H       -5.8000     4.1100    -0.2020 H     1 <1>   0.1500 
 43 H       -8.3800    -0.0790    -0.7320 H     1 <1>   0.1500 
 44 H       -4.9260    -2.3580     1.1010 H     1 <1>   0.0800 
 45 H       -6.0830    -3.4780     0.4570 H     1 <1>   0.0800 
 46 H       -8.2710     4.1700    -0.3710 H     1 <1>   0.1500 
 47 H       -9.5410     2.0920    -0.6340 H     1 <1>   0.1500 
 48 H       -6.7770    -0.8820     1.8700 H     1 <1>   0.0800 
 49 H       -6.9660    -2.4910     2.5110 H     1 <1>   0.0800 
 50 H       -7.9460    -1.9740     1.1610 H     1 <1>   0.0800 
@<TRIPOS>BOND
  1   1   2  1   
  2   1   3  1   
  3   2   4  ar  
  4   2   5  ar  
  5   3   6  1   
  6   3  25  1   
  7   3  26  1   
  8   4   7  ar  
  9   5   8  ar  
 10   6   9  1   
 11   6  27  1   
 12   6  28  1   
 13   7  10  ar  
 14   8  10  ar  
 15   8  11  1   
 16   9  12  1   
 17   9  13  1   
 18   9  29  1   
 19  10  14  1   
 20  11  15  1   
 21  11  16  1   
 22  12  17  1   
 23  12  30  1   
 24  12  31  1   
 25  13  18  1   
 26  13  32  1   
 27  13  33  1   
 28  14  15  ar  
 29  14  19  ar  
 30  15  20  ar  
 31  16  21  1   
 32  16  34  1   
 33  16  35  1   
 34  17  36  1   
 35  17  37  1   
 36  17  38  1   
 37  18  39  1   
 38  18  40  1   
 39  18  41  1   
 40  19  22  ar  
 41  19  42  1   
 42  20  23  ar  
 43  20  43  1   
 44  21  24  1   
 45  21  44  1   
 46  21  45  1   
 47  22  23  ar  
 48  22  46  1   
 49  23  47  1   
 50  24  48  1   
 51  24  49  1   
 52  24  50  1   
@<TRIPOS>SUBSTRUCTURE
  1 ****   2 GROUP 4 **** **** 0

# MOE 2024.06 (io_trps.svl 2023.06)
