@<TRIPOS>MOLECULE
2-Aminomethyl-adamantan-2-ol
33 35 1 0 0 
SMALL
USER_CHARGES


@<TRIPOS>ATOM
  1 O        0.0330    -0.9430    -1.5670 O.3   1 <1>  -0.6800 
  2 C       -0.6480    -1.2430    -0.3430 C.3   1 <1>   0.2800 
  3 C       -2.3000    -0.5250    -0.4230 C.3   1 <1>  -0.0800 
  4 C       -0.7940    -2.9750     0.0560 C.3   1 <1>  -0.0800 
  5 C        0.3010    -0.5900     0.7100 C.3   1 <1>   0.3430 
  6 C       -2.5740    -0.5620     1.0100 C.3   1 <1>  -0.1600 
  7 C       -3.7200    -1.4600    -0.9060 C.3   1 <1>  -0.1600 
  8 C       -1.5360    -2.7000    -0.7540 C.3   1 <1>  -0.1600 
  9 C       -2.2320    -4.0710    -0.1030 C.3   1 <1>  -0.1600 
 10 N        1.7340    -0.8580     0.3860 N.4   1 <1>  -0.8530 
 11 C       -2.3560    -2.0690     0.9810 C.3   1 <1>  -0.0800 
 12 C       -3.7360    -3.0840    -0.2260 C.3   1 <1>  -0.0800 
 13 C       -3.7230    -2.7110     1.1830 C.3   1 <1>  -0.1600 
 14 H       -0.5570    -1.1590    -2.3220 H     1 <1>   0.4000 
 15 H       -2.3090     0.4870    -0.7900 H     1 <1>   0.0800 
 16 H        0.1530    -3.5110    -0.0420 H     1 <1>   0.0800 
 17 H        0.0620    -0.9520     1.6960 H     1 <1>   0.0800 
 18 H        0.1250     0.4730     0.6940 H     1 <1>   0.0800 
 19 H       -3.5670    -0.2180     1.2510 H     1 <1>   0.0800 
 20 H       -1.8930    -0.0140     1.6310 H     1 <1>   0.0800 
 21 H       -3.7810    -1.5170    -1.9800 H     1 <1>   0.0800 
 22 H       -4.6180    -0.9420    -0.6100 H     1 <1>   0.0800 
 23 H       -0.8830    -3.2710    -1.4720 H     1 <1>   0.0800 
 24 H       -1.8910    -2.3770    -1.7500 H     1 <1>   0.0800 
 25 H       -2.2620    -4.7160     0.7630 H     1 <1>   0.0800 
 26 H       -2.2120    -4.8010    -0.9190 H     1 <1>   0.0800 
 27 H        1.7820    -0.7700    -0.6440 H     1 <1>   0.4500 
 28 H        2.0050    -1.8170     0.6190 H     1 <1>   0.4500 
 29 H        2.3770    -0.1870     0.8160 H     1 <1>   0.4500 
 30 H       -1.8260    -2.2980     1.9060 H     1 <1>   0.0800 
 31 H       -4.6130    -3.6570    -0.4770 H     1 <1>   0.0800 
 32 H       -4.5420    -2.0690     1.4580 H     1 <1>   0.0800 
 33 H       -3.7100    -3.5610     1.8440 H     1 <1>   0.0800 
@<TRIPOS>BOND
  1   1   2  1   
  2   1  14  1   
  3   2   3  1   
  4   2   4  1   
  5   2   5  1   
  6   3   6  1   
  7   3   7  1   
  8   3  15  1   
  9   4   8  1   
 10   4   9  1   
 11   4  16  1   
 12   5  10  1   
 13   5  17  1   
 14   5  18  1   
 15   6  11  1   
 16   6  19  1   
 17   6  20  1   
 18   7  12  1   
 19   7  21  1   
 20   7  22  1   
 21   8  11  1   
 22   8  23  1   
 23   8  24  1   
 24   9  12  1   
 25   9  25  1   
 26   9  26  1   
 27  10  27  1   
 28  10  28  1   
 29  10  29  1   
 30  11  13  1   
 31  11  30  1   
 32  12  13  1   
 33  12  31  1   
 34  13  32  1   
 35  13  33  1   
@<TRIPOS>SUBSTRUCTURE
  1 ****   8 GROUP 4 **** **** 0

# MOE 2024.06 (io_trps.svl 2023.06)
