@<TRIPOS>MOLECULE
3-(3-Hydroxy-propyl)-8-(4-methoxy-benzyl)-1,7-dimethyl-1H,8H-imidazo[2,1-f]purin
53 56 1 0 0 
SMALL
USER_CHARGES


@<TRIPOS>ATOM
  1 O        3.2890     2.8100    -2.9300 O.2   1 <1>  -0.5740 
  2 C        3.6730     2.8020    -1.7780 C.2   1 <1>   0.6860 
  3 N        2.7830     3.0770    -0.7420 N.am  1 <1>  -0.4250 
  4 N        5.0040     2.5200    -1.4970 N.am  1 <1>  -0.4410 
  5 C        3.2010     3.0930     0.5830 C.2   1 <1>   0.7000 
  6 C        1.3480     3.3390    -1.0630 C.3   1 <1>   0.1330 
  7 C        5.4100     2.5500    -0.1800 C.2   1 <1>   0.4210 
  8 C        5.9790     2.2110    -2.5880 C.3   1 <1>   0.0530 
  9 O        2.4220     3.3380     1.4890 O.2   1 <1>  -0.5740 
 10 C        4.5730     2.8170     0.8520 C.2   1 <1>   0.2710 
 11 C        0.5730     2.0190    -1.1190 C.3   1 <1>  -0.1670 
 12 N        6.6600     2.3290     0.3090 N.pl3 1 <1>  -0.7030 
 13 N        5.3530     2.7500     2.0200 N.pl3 1 <1>  -0.6330 
 14 C       -0.8940     2.2740    -1.4550 C.3   1 <1>   0.1130 
 15 C        6.5890     2.4560     1.6390 C.cat 1 <1>   1.0690 
 16 C        5.3710     2.8590     3.3970 C.2   1 <1>   0.2230 
 17 O       -1.5490     1.0590    -1.4680 O.3   1 <1>  -0.6840 
 18 N        7.4220     2.3650     2.6910 N.pl3 1 <1>  -0.5720 
 19 C        6.6390     2.6230     3.8060 C.2   1 <1>   0.1580 
 20 C        8.8800     2.0530     2.6730 C.3   1 <1>   0.3050 
 21 C        7.2070     2.6180     5.2140 C.3   1 <1>  -0.1090 
 22 C        9.3250     1.8760     1.2320 C.ar  1 <1>  -0.1500 
 23 C        9.2250     0.6340     0.6220 C.ar  1 <1>  -0.1570 
 24 C        9.7430     2.9720     0.4910 C.ar  1 <1>  -0.1570 
 25 C        9.4840     0.5050    -0.7290 C.ar  1 <1>  -0.1570 
 26 C       10.0080     2.8410    -0.8600 C.ar  1 <1>  -0.1570 
 27 C        9.8590     1.6060    -1.4810 C.ar  1 <1>   0.0750 
 28 O       10.0510     1.4030    -2.8050 O.3   1 <1>  -0.3680 
 29 C       10.6910     2.3700    -3.6100 C.3   1 <1>   0.0320 
 30 H        1.2730     3.8460    -2.0100 H     1 <1>   0.0730 
 31 H        0.9140     3.9850    -0.3180 H     1 <1>   0.0730 
 32 H        5.4650     1.8580    -3.4670 H     1 <1>   0.0730 
 33 H        6.6670     1.4460    -2.2750 H     1 <1>   0.0730 
 34 H        6.5290     3.0990    -2.8460 H     1 <1>   0.0730 
 35 H        0.6300     1.5330    -0.1600 H     1 <1>   0.0730 
 36 H        1.0040     1.3860    -1.8750 H     1 <1>   0.0730 
 37 H        7.5350     2.1040    -0.1810 H     1 <1>   0.4450 
 38 H       -1.0060     2.7300    -2.4240 H     1 <1>   0.0730 
 39 H       -1.3630     2.8920    -0.7070 H     1 <1>   0.0730 
 40 H        4.4860     3.0940     3.9710 H     1 <1>   0.1430 
 41 H       -1.1830     0.4790    -2.1630 H     1 <1>   0.3950 
 42 H        9.0650     1.1500     3.2310 H     1 <1>   0.0730 
 43 H        9.4290     2.8570     3.1330 H     1 <1>   0.0730 
 44 H        7.6190     1.6520     5.4460 H     1 <1>   0.0730 
 45 H        6.4350     2.8390     5.9300 H     1 <1>   0.0730 
 46 H        7.9790     3.3600     5.3080 H     1 <1>   0.0730 
 47 H        8.9310    -0.2380     1.1850 H     1 <1>   0.1430 
 48 H        9.8540     3.9390     0.9550 H     1 <1>   0.1430 
 49 H        9.4020    -0.4530    -1.2140 H     1 <1>   0.1430 
 50 H       10.3230     3.7060    -1.4150 H     1 <1>   0.1430 
 51 H       10.8260     1.9510    -4.5910 H     1 <1>   0.0730 
 52 H       11.6490     2.6050    -3.1790 H     1 <1>   0.0730 
 53 H       10.0700     3.2450    -3.6700 H     1 <1>   0.0730 
@<TRIPOS>BOND
  1   1   2  2   
  2   2   3  am  
  3   2   4  am  
  4   3   5  am  
  5   3   6  1   
  6   4   7  1   
  7   4   8  1   
  8   5   9  2   
  9   5  10  1   
 10   6  11  1   
 11   6  30  1   
 12   6  31  1   
 13   7  10  2   
 14   7  12  1   
 15   8  32  1   
 16   8  33  1   
 17   8  34  1   
 18  10  13  1   
 19  11  14  1   
 20  11  35  1   
 21  11  36  1   
 22  12  15  ar  
 23  12  37  1   
 24  13  15  ar  
 25  13  16  1   
 26  14  17  1   
 27  14  38  1   
 28  14  39  1   
 29  15  18  ar  
 30  16  19  2   
 31  16  40  1   
 32  17  41  1   
 33  18  19  1   
 34  18  20  1   
 35  19  21  1   
 36  20  22  1   
 37  20  42  1   
 38  20  43  1   
 39  21  44  1   
 40  21  45  1   
 41  21  46  1   
 42  22  23  ar  
 43  22  24  ar  
 44  23  25  ar  
 45  23  47  1   
 46  24  26  ar  
 47  24  48  1   
 48  25  27  ar  
 49  25  49  1   
 50  26  27  ar  
 51  26  50  1   
 52  27  28  1   
 53  28  29  1   
 54  29  51  1   
 55  29  52  1   
 56  29  53  1   
@<TRIPOS>SUBSTRUCTURE
  1 ****   7 GROUP 4 **** **** 0

# MOE 2024.06 (io_trps.svl 2023.06)
