@<TRIPOS>MOLECULE
1-(2-Cyano-ethyl)-3-(4-methoxy-phenyl)-1H-pyrazole-4-carboxylic acid isopropyl e
42 43 1 0 0 
SMALL
USER_CHARGES


@<TRIPOS>ATOM
  1 O        0.8010    -0.0060     0.5310 O.2   1 <1>  -0.5700 
  2 C        1.2890    -1.1170     0.5020 C.2   1 <1>   0.8060 
  3 O        2.6110    -1.2470     0.6480 O.3   1 <1>  -0.4300 
  4 C        0.5400    -2.3330     0.3260 C.2   1 <1>  -0.0860 
  5 C        3.4750    -0.1470     0.8190 C.3   1 <1>   0.2000 
  6 C       -0.8380    -2.4850     0.0680 C.2   1 <1>   0.2350 
  7 C        0.9980    -3.6150     0.3900 C.2   1 <1>  -0.3020 
  8 C        3.8350     0.4070    -0.5600 C.3   1 <1>  -0.2400 
  9 C        4.7120    -0.6560     1.5540 C.3   1 <1>  -0.2400 
 10 N       -1.1690    -3.7500     0.0090 N.2   1 <1>  -0.7070 
 11 C       -1.8180    -1.4370    -0.1240 C.ar  1 <1>   0.0540 
 12 N       -0.0390    -4.4350     0.2000 N.pl3 1 <1>   0.3140 
 13 C       -1.6660    -0.4480    -1.0940 C.ar  1 <1>  -0.1500 
 14 C       -2.9740    -1.4060     0.6530 C.ar  1 <1>  -0.1500 
 15 C       -0.0170    -5.9080     0.1800 C.3   1 <1>   0.0960 
 16 C       -2.6210     0.5350    -1.2710 C.ar  1 <1>  -0.1500 
 17 C       -3.9360    -0.4260     0.4820 C.ar  1 <1>  -0.1500 
 18 C       -0.6700    -6.4340    -1.1010 C.3   1 <1>   0.0400 
 19 C       -3.7620     0.5570    -0.4870 C.ar  1 <1>   0.0830 
 20 C       -0.5620    -7.9130    -1.1490 C.1   1 <1>   0.3570 
 21 O       -4.6520     1.5530    -0.7230 O.3   1 <1>  -0.3630 
 22 N       -0.4530    -9.0440    -1.1590 N.1   1 <1>  -0.5570 
 23 C       -5.8360     1.6700     0.0330 C.3   1 <1>   0.0400 
 24 H        2.9800     0.6020     1.4170 H     1 <1>   0.0800 
 25 H        2.0020    -3.9560     0.5670 H     1 <1>   0.1500 
 26 H        4.2940    -0.3540    -1.1650 H     1 <1>   0.0800 
 27 H        4.5230     1.2250    -0.4560 H     1 <1>   0.0800 
 28 H        2.9530     0.7740    -1.0540 H     1 <1>   0.0800 
 29 H        5.2040    -1.4210     0.9810 H     1 <1>   0.0800 
 30 H        4.4320    -1.0510     2.5140 H     1 <1>   0.0800 
 31 H        5.4030     0.1530     1.7110 H     1 <1>   0.0800 
 32 H       -0.7870    -0.4490    -1.7130 H     1 <1>   0.1500 
 33 H       -3.1130    -2.1700     1.3970 H     1 <1>   0.1500 
 34 H       -0.5510    -6.2640     1.0420 H     1 <1>   0.0800 
 35 H        1.0040    -6.2390     0.2410 H     1 <1>   0.0800 
 36 H       -2.4870     1.2950    -2.0190 H     1 <1>   0.1500 
 37 H       -4.8080    -0.4450     1.1070 H     1 <1>   0.1500 
 38 H       -0.1800    -6.0230    -1.9650 H     1 <1>   0.0800 
 39 H       -1.7110    -6.1640    -1.1260 H     1 <1>   0.0800 
 40 H       -6.3760     2.5290    -0.3230 H     1 <1>   0.0800 
 41 H       -5.5760     1.8040     1.0680 H     1 <1>   0.0800 
 42 H       -6.4270     0.7820    -0.1060 H     1 <1>   0.0800 
@<TRIPOS>BOND
  1   1   2  2   
  2   2   3  1   
  3   2   4  1   
  4   3   5  1   
  5   4   6  1   
  6   4   7  2   
  7   5   8  1   
  8   5   9  1   
  9   5  24  1   
 10   6  10  2   
 11   6  11  1   
 12   7  12  1   
 13   7  25  1   
 14   8  26  1   
 15   8  27  1   
 16   8  28  1   
 17   9  29  1   
 18   9  30  1   
 19   9  31  1   
 20  10  12  1   
 21  11  13  ar  
 22  11  14  ar  
 23  12  15  1   
 24  13  16  ar  
 25  13  32  1   
 26  14  17  ar  
 27  14  33  1   
 28  15  18  1   
 29  15  34  1   
 30  15  35  1   
 31  16  19  ar  
 32  16  36  1   
 33  17  19  ar  
 34  17  37  1   
 35  18  20  1   
 36  18  38  1   
 37  18  39  1   
 38  19  21  1   
 39  20  22  3   
 40  21  23  1   
 41  23  40  1   
 42  23  41  1   
 43  23  42  1   
@<TRIPOS>SUBSTRUCTURE
  1 ****   6 GROUP 4 **** **** 0

# MOE 2024.06 (io_trps.svl 2023.06)
