@<TRIPOS>MOLECULE
Morpholine-4-sulfonic acid (4-fluoro-phenyl)-amide
30 31 1 0 0 
SMALL
USER_CHARGES


@<TRIPOS>ATOM
  1 S       -0.2570     0.0020     1.8450 S.o2  1 <1>   1.5760 
  2 O        0.2460    -0.9890     2.7630 O.2   1 <1>  -0.6500 
  3 O       -0.9470     1.1900     2.2800 O.2   1 <1>  -0.6500 
  4 N        0.9690     0.4630     0.7810 N.am  1 <1>  -0.8490 
  5 N       -1.3660    -0.7400     0.7720 N.am  1 <1>  -0.7570 
  6 C        0.5610     1.4190    -0.2540 C.3   1 <1>   0.1960 
  7 C        1.7480    -0.6490     0.2200 C.3   1 <1>   0.1960 
  8 C       -1.3230    -1.9680     0.1280 C.ar  1 <1>   0.1990 
  9 C        1.7720     1.8660    -1.0940 C.3   1 <1>   0.1200 
 10 C        2.9140    -0.1240    -0.6360 C.3   1 <1>   0.1200 
 11 C       -1.8500    -2.0640    -1.1580 C.ar  1 <1>  -0.1500 
 12 C       -0.7760    -3.1080     0.7190 C.ar  1 <1>  -0.1500 
 13 O        2.4430     0.7560    -1.6190 O.3   1 <1>  -0.5600 
 14 C       -1.8190    -3.2610    -1.8530 C.ar  1 <1>  -0.1500 
 15 C       -0.7360    -4.3120     0.0370 C.ar  1 <1>  -0.1500 
 16 C       -1.2590    -4.3650    -1.2400 C.ar  1 <1>   0.1900 
 17 F       -1.2230    -5.4990    -1.8910 F     1 <1>  -0.1900 
 18 H       -2.0700    -0.0620     0.5090 H     1 <1>   0.4200 
 19 H        0.1180     2.2850     0.2070 H     1 <1>   0.0800 
 20 H       -0.1670     0.9720    -0.9080 H     1 <1>   0.0800 
 21 H        1.1270    -1.2700    -0.4000 H     1 <1>   0.0800 
 22 H        2.1410    -1.2560     1.0180 H     1 <1>   0.0800 
 23 H        2.4600     2.4320    -0.4900 H     1 <1>   0.0800 
 24 H        1.4500     2.4770    -1.9180 H     1 <1>   0.0800 
 25 H        3.4080    -0.9390    -1.1330 H     1 <1>   0.0800 
 26 H        3.6290     0.3940    -0.0210 H     1 <1>   0.0800 
 27 H       -2.2810    -1.1960    -1.6210 H     1 <1>   0.1500 
 28 H       -0.3860    -3.0650     1.7190 H     1 <1>   0.1500 
 29 H       -2.2190    -3.3440    -2.8480 H     1 <1>   0.1500 
 30 H       -0.3150    -5.1940     0.4850 H     1 <1>   0.1500 
@<TRIPOS>BOND
  1   1   2  2   
  2   1   3  2   
  3   1   4  am  
  4   1   5  am  
  5   4   6  1   
  6   4   7  1   
  7   5   8  1   
  8   5  18  1   
  9   6   9  1   
 10   6  19  1   
 11   6  20  1   
 12   7  10  1   
 13   7  21  1   
 14   7  22  1   
 15   8  11  ar  
 16   8  12  ar  
 17   9  13  1   
 18   9  23  1   
 19   9  24  1   
 20  10  13  1   
 21  10  25  1   
 22  10  26  1   
 23  11  14  ar  
 24  11  27  1   
 25  12  15  ar  
 26  12  28  1   
 27  14  16  ar  
 28  14  29  1   
 29  15  16  ar  
 30  15  30  1   
 31  16  17  1   
@<TRIPOS>SUBSTRUCTURE
  1 ****   8 GROUP 4 **** **** 0

# MOE 2024.06 (io_trps.svl 2023.06)
