@<TRIPOS>MOLECULE
7-(2-Hydroxy-3-m-tolyloxy-propyl)-1,3-dimethyl-8-piperidin-1-yl-3,7-dihydro-puri
61 64 1 0 0 
SMALL
USER_CHARGES


@<TRIPOS>ATOM
  1 O        0.3470     0.0510    -0.1300 O.2   1 <1>  -0.5740 
  2 C        1.3240     0.7130     0.1560 C.2   1 <1>   0.6870 
  3 N        1.1790     1.8860     0.8910 N.am  1 <1>  -0.4250 
  4 N        2.5830     0.3030    -0.2590 N.am  1 <1>  -0.4400 
  5 C        2.2710     2.6940     1.1740 C.2   1 <1>   0.7000 
  6 C       -0.1900     2.2960     1.3360 C.3   1 <1>   0.0540 
  7 C        3.6620     1.1110     0.0440 C.2   1 <1>   0.4220 
  8 C        2.7560    -0.9550    -1.0460 C.3   1 <1>   0.0540 
  9 O        2.1280     3.7580     1.7560 O.2   1 <1>  -0.5740 
 10 C        3.5660     2.2570     0.7460 C.2   1 <1>   0.2720 
 11 N        4.9610     0.9290    -0.3040 N.pl3 1 <1>  -0.7030 
 12 N        4.8690     2.7840     0.8430 N.pl3 1 <1>  -0.7670 
 13 C        5.6800     1.9470     0.1740 C.cat 1 <1>   1.0690 
 14 C        5.0910     4.2370     1.1330 C.3   1 <1>   0.3490 
 15 N        7.0160     2.0270    -0.0100 N.pl3 1 <1>  -0.5950 
 16 C        4.6960     5.1260    -0.0670 C.3   1 <1>   0.1940 
 17 C        7.6920     1.5050    -1.2330 C.3   1 <1>   0.1620 
 18 C        7.9710     2.6390     0.9550 C.3   1 <1>   0.1620 
 19 O        5.1930     4.5850    -1.2520 O.3   1 <1>  -0.6830 
 20 C        5.2160     6.5630     0.0750 C.3   1 <1>   0.1140 
 21 C        8.4250     2.6520    -1.9370 C.3   1 <1>  -0.1660 
 22 C        8.6970     3.8130     0.2890 C.3   1 <1>  -0.1660 
 23 O        5.0310     7.2390    -1.1520 O.3   1 <1>  -0.3670 
 24 C        9.4060     3.3650    -0.9960 C.3   1 <1>  -0.1660 
 25 C        5.4350     8.5240    -1.3140 C.ar  1 <1>   0.0760 
 26 C        6.0200     9.2870    -0.3060 C.ar  1 <1>  -0.1560 
 27 C        5.2440     9.0840    -2.5670 C.ar  1 <1>  -0.1560 
 28 C        6.4090    10.5940    -0.5530 C.ar  1 <1>  -0.1490 
 29 C        5.6330    10.3870    -2.8170 C.ar  1 <1>  -0.1560 
 30 C        6.2140    11.1400    -1.8120 C.ar  1 <1>  -0.1560 
 31 C        7.0480    11.4310     0.5410 C.3   1 <1>  -0.1030 
 32 H       -0.6980     2.7930     0.5280 H     1 <1>   0.0740 
 33 H       -0.1390     2.9610     2.1810 H     1 <1>   0.0740 
 34 H       -0.7620     1.4310     1.6260 H     1 <1>   0.0740 
 35 H        1.9270    -1.6230    -0.8810 H     1 <1>   0.0740 
 36 H        3.6560    -1.4630    -0.7490 H     1 <1>   0.0740 
 37 H        2.8030    -0.7210    -2.0960 H     1 <1>   0.0740 
 38 H        5.3520     0.1570    -0.8310 H     1 <1>   0.4460 
 39 H        6.1170     4.4250     1.3750 H     1 <1>   0.0740 
 40 H        4.5150     4.5270     1.9950 H     1 <1>   0.0740 
 41 H        3.6240     5.1590    -0.1490 H     1 <1>   0.0740 
 42 H        6.9820     1.0770    -1.9190 H     1 <1>   0.0740 
 43 H        8.3990     0.7410    -0.9530 H     1 <1>   0.0740 
 44 H        8.6970     1.8960     1.2400 H     1 <1>   0.0740 
 45 H        7.4710     2.9510     1.8540 H     1 <1>   0.0740 
 46 H        5.1760     5.2980    -1.9340 H     1 <1>   0.3950 
 47 H        6.2670     6.5680     0.3040 H     1 <1>   0.0740 
 48 H        4.6710     7.0900     0.8400 H     1 <1>   0.0740 
 49 H        7.7020     3.3590    -2.3080 H     1 <1>   0.0740 
 50 H        8.9630     2.2650    -2.7860 H     1 <1>   0.0740 
 51 H        9.4220     4.2200     0.9720 H     1 <1>   0.0740 
 52 H        7.9950     4.5930     0.0540 H     1 <1>   0.0740 
 53 H        9.8300     4.2210    -1.4950 H     1 <1>   0.0740 
 54 H       10.2130     2.6970    -0.7470 H     1 <1>   0.0740 
 55 H        6.1800     8.8840     0.6740 H     1 <1>   0.1440 
 56 H        4.7910     8.4970    -3.3450 H     1 <1>   0.1440 
 57 H        5.4830    10.8160    -3.7930 H     1 <1>   0.1440 
 58 H        6.5150    12.1530    -2.0140 H     1 <1>   0.1440 
 59 H        6.7930    11.0470     1.5120 H     1 <1>   0.0740 
 60 H        6.7060    12.4480     0.4780 H     1 <1>   0.0740 
 61 H        8.1170    11.4160     0.4310 H     1 <1>   0.0740 
@<TRIPOS>BOND
  1   1   2  2   
  2   2   3  am  
  3   2   4  am  
  4   3   5  am  
  5   3   6  1   
  6   4   7  1   
  7   4   8  1   
  8   5   9  2   
  9   5  10  1   
 10   6  32  1   
 11   6  33  1   
 12   6  34  1   
 13   7  10  2   
 14   7  11  1   
 15   8  35  1   
 16   8  36  1   
 17   8  37  1   
 18  10  12  1   
 19  11  13  ar  
 20  11  38  1   
 21  12  13  ar  
 22  12  14  1   
 23  13  15  ar  
 24  14  16  1   
 25  14  39  1   
 26  14  40  1   
 27  15  17  1   
 28  15  18  1   
 29  16  19  1   
 30  16  20  1   
 31  16  41  1   
 32  17  21  1   
 33  17  42  1   
 34  17  43  1   
 35  18  22  1   
 36  18  44  1   
 37  18  45  1   
 38  19  46  1   
 39  20  23  1   
 40  20  47  1   
 41  20  48  1   
 42  21  24  1   
 43  21  49  1   
 44  21  50  1   
 45  22  24  1   
 46  22  51  1   
 47  22  52  1   
 48  23  25  1   
 49  24  53  1   
 50  24  54  1   
 51  25  26  ar  
 52  25  27  ar  
 53  26  28  ar  
 54  26  55  1   
 55  27  29  ar  
 56  27  56  1   
 57  28  30  ar  
 58  28  31  1   
 59  29  30  ar  
 60  29  57  1   
 61  30  58  1   
 62  31  59  1   
 63  31  60  1   
 64  31  61  1   
@<TRIPOS>SUBSTRUCTURE
  1 ****  16 GROUP 4 **** **** 0

# MOE 2024.06 (io_trps.svl 2023.06)
