@<TRIPOS>MOLECULE
(4,6-Di-piperidin-1-yl-[1,3,5]triazin-2-yloxy)-acetonitrile
44 46 1 0 0 
SMALL
USER_CHARGES


@<TRIPOS>ATOM
  1 O        0.3540    -0.4270    -0.5690 O.3   1 <1>  -0.3630 
  2 C        0.2950    -1.7620    -0.4470 C.ar  1 <1>   0.7020 
  3 C        1.5830     0.2760    -0.5040 C.3   1 <1>   0.3200 
  4 N        1.4050    -2.4110    -0.2390 N.ar  1 <1>  -0.6200 
  5 N       -0.8950    -2.2660    -0.5630 N.ar  1 <1>  -0.6200 
  6 C        2.0770     0.3930     0.9030 C.1   1 <1>   0.3570 
  7 C        1.2440    -3.7050    -0.1220 C.ar  1 <1>   0.7200 
  8 C       -0.9360    -3.5710    -0.4460 C.ar  1 <1>   0.7200 
  9 N        2.4850     0.5090     1.9590 N.1   1 <1>  -0.5570 
 10 N        0.1040    -4.3350    -0.2310 N.ar  1 <1>  -0.6200 
 11 N        2.3690    -4.4510     0.1360 N.pl3 1 <1>  -0.8380 
 12 N       -2.1690    -4.1810    -0.5610 N.pl3 1 <1>  -0.8380 
 13 C        2.4340    -5.9120    -0.1400 C.3   1 <1>   0.2090 
 14 C        3.5020    -3.9210     0.9460 C.3   1 <1>   0.2090 
 15 C       -3.4570    -3.4310    -0.4950 C.3   1 <1>   0.2090 
 16 C       -2.3420    -5.6600    -0.6310 C.3   1 <1>   0.2090 
 17 C        3.7570    -6.2430    -0.8400 C.3   1 <1>  -0.1600 
 18 C        4.8240    -4.2320     0.2400 C.3   1 <1>  -0.1600 
 19 C       -4.2470    -3.8900     0.7350 C.3   1 <1>  -0.1600 
 20 C       -3.1130    -6.1380     0.6040 C.3   1 <1>  -0.1600 
 21 C        4.9710    -5.7330    -0.0500 C.3   1 <1>  -0.1600 
 22 C       -4.4570    -5.4110     0.7490 C.3   1 <1>  -0.1600 
 23 H        1.4080     1.2600    -0.8980 H     1 <1>   0.0800 
 24 H        2.3080    -0.2210    -1.1230 H     1 <1>   0.0800 
 25 H        1.6180    -6.2190    -0.7710 H     1 <1>   0.0800 
 26 H        2.3620    -6.4490     0.7900 H     1 <1>   0.0800 
 27 H        3.4870    -4.3930     1.9140 H     1 <1>   0.0800 
 28 H        3.4150    -2.8590     1.0980 H     1 <1>   0.0800 
 29 H       -4.0220    -3.6310    -1.3890 H     1 <1>   0.0800 
 30 H       -3.2990    -2.3690    -0.4370 H     1 <1>   0.0800 
 31 H       -1.3970    -6.1710    -0.6870 H     1 <1>   0.0800 
 32 H       -2.8960    -5.9030    -1.5210 H     1 <1>   0.0800 
 33 H        3.7460    -5.7920    -1.8170 H     1 <1>   0.0800 
 34 H        3.8310    -7.3080    -0.9710 H     1 <1>   0.0800 
 35 H        5.6410    -3.9000     0.8550 H     1 <1>   0.0800 
 36 H        4.8590    -3.6780    -0.6820 H     1 <1>   0.0800 
 37 H       -5.2000    -3.3920     0.7500 H     1 <1>   0.0800 
 38 H       -3.7070    -3.5910     1.6160 H     1 <1>   0.0800 
 39 H       -2.5050    -5.9590     1.4740 H     1 <1>   0.0800 
 40 H       -3.2790    -7.1980     0.5300 H     1 <1>   0.0800 
 41 H        5.8720    -5.9100    -0.6110 H     1 <1>   0.0800 
 42 H        5.0440    -6.2710     0.8800 H     1 <1>   0.0800 
 43 H       -5.1030    -5.6890    -0.0670 H     1 <1>   0.0800 
 44 H       -4.9340    -5.7050     1.6680 H     1 <1>   0.0800 
@<TRIPOS>BOND
  1   1   2  1   
  2   1   3  1   
  3   2   4  ar  
  4   2   5  ar  
  5   3   6  1   
  6   3  23  1   
  7   3  24  1   
  8   4   7  ar  
  9   5   8  ar  
 10   6   9  3   
 11   7  10  ar  
 12   7  11  1   
 13   8  10  ar  
 14   8  12  1   
 15  11  13  1   
 16  11  14  1   
 17  12  15  1   
 18  12  16  1   
 19  13  17  1   
 20  13  25  1   
 21  13  26  1   
 22  14  18  1   
 23  14  27  1   
 24  14  28  1   
 25  15  19  1   
 26  15  29  1   
 27  15  30  1   
 28  16  20  1   
 29  16  31  1   
 30  16  32  1   
 31  17  21  1   
 32  17  33  1   
 33  17  34  1   
 34  18  21  1   
 35  18  35  1   
 36  18  36  1   
 37  19  22  1   
 38  19  37  1   
 39  19  38  1   
 40  20  22  1   
 41  20  39  1   
 42  20  40  1   
 43  21  41  1   
 44  21  42  1   
 45  22  43  1   
 46  22  44  1   
@<TRIPOS>SUBSTRUCTURE
  1 ****   7 GROUP 4 **** **** 0

# MOE 2024.06 (io_trps.svl 2023.06)
