@<TRIPOS>MOLECULE
[4-(3,4-Dihydro-1H-isoquinoline-2-sulfonyl)-2-methyl-phenoxy]-acetic acid methyl
47 49 1 0 0 
SMALL
USER_CHARGES


@<TRIPOS>ATOM
  1 S       -0.1500    -0.5010    -2.0420 S.o2  1 <1>   1.4470 
  2 O       -0.8280     0.2900    -3.0440 O.2   1 <1>  -0.6500 
  3 O       -0.1910    -1.9450    -2.1390 O.2   1 <1>  -0.6500 
  4 N       -0.8430    -0.1060    -0.5520 N.am  1 <1>  -0.8490 
  5 C        1.5630     0.0730    -1.8700 C.ar  1 <1>  -0.0090 
  6 C       -2.3040    -0.1700    -0.6510 C.3   1 <1>   0.3390 
  7 C       -0.3710    -0.9640     0.5360 C.3   1 <1>   0.1960 
  8 C        2.6330    -0.7270    -2.2530 C.ar  1 <1>  -0.1500 
  9 C        1.8480     1.3300    -1.3520 C.ar  1 <1>  -0.1500 
 10 C       -2.9960     0.0430     0.6950 C.ar  1 <1>  -0.1440 
 11 C       -0.8140    -0.3850     1.8810 C.3   1 <1>  -0.0160 
 12 C        3.9450    -0.3010    -2.1240 C.ar  1 <1>  -0.1430 
 13 C        3.1500     1.7740    -1.2150 C.ar  1 <1>  -0.1500 
 14 C       -2.3020    -0.0730     1.8930 C.ar  1 <1>  -0.1440 
 15 C       -4.3500     0.3420     0.7200 C.ar  1 <1>  -0.1500 
 16 C        4.2120     0.9600    -1.5990 C.ar  1 <1>   0.0830 
 17 C        5.0820    -1.2160    -2.5560 C.3   1 <1>  -0.0970 
 18 C       -2.9630     0.1110     3.0980 C.ar  1 <1>  -0.1500 
 19 C       -5.0080     0.5240     1.9230 C.ar  1 <1>  -0.1500 
 20 O        5.5150     1.3330    -1.4950 O.3   1 <1>  -0.3630 
 21 C       -4.3140     0.4080     3.1140 C.ar  1 <1>  -0.1500 
 22 C        5.9260     2.5420    -0.8710 C.3   1 <1>   0.1810 
 23 C        5.7550     2.4960     0.6410 C.2   1 <1>   0.6590 
 24 O        4.9420     3.1850     1.2050 O.2   1 <1>  -0.5700 
 25 O        6.5680     1.6810     1.3050 O.3   1 <1>  -0.4300 
 26 C        6.5080     1.5530     2.7110 C.3   1 <1>   0.0400 
 27 H       -2.6000    -1.1300    -1.0410 H     1 <1>   0.0800 
 28 H       -2.6450     0.5880    -1.3370 H     1 <1>   0.0800 
 29 H        0.7040    -1.0250     0.5210 H     1 <1>   0.0800 
 30 H       -0.7680    -1.9610     0.4180 H     1 <1>   0.0800 
 31 H        2.4270    -1.7030    -2.6610 H     1 <1>   0.1500 
 32 H        1.0340     1.9700    -1.0510 H     1 <1>   0.1500 
 33 H       -0.2650     0.5200     2.0700 H     1 <1>   0.0800 
 34 H       -0.5800    -1.0860     2.6610 H     1 <1>   0.0800 
 35 H        3.3070     2.7550    -0.8060 H     1 <1>   0.1500 
 36 H       -4.9010     0.4350    -0.2000 H     1 <1>   0.1500 
 37 H        4.7100    -2.1550    -2.9260 H     1 <1>   0.0800 
 38 H        5.7320    -1.4100    -1.7220 H     1 <1>   0.0800 
 39 H        5.6530    -0.7440    -3.3350 H     1 <1>   0.0800 
 40 H       -2.4280     0.0260     4.0270 H     1 <1>   0.1500 
 41 H       -6.0580     0.7570     1.9340 H     1 <1>   0.1500 
 42 H       -4.8230     0.5500     4.0510 H     1 <1>   0.1500 
 43 H        5.3720     3.3580    -1.2950 H     1 <1>   0.0800 
 44 H        6.9660     2.6780    -1.0980 H     1 <1>   0.0800 
 45 H        7.2540     0.8430     3.0210 H     1 <1>   0.0800 
 46 H        5.5270     1.2040     2.9850 H     1 <1>   0.0800 
 47 H        6.7000     2.5130     3.1570 H     1 <1>   0.0800 
@<TRIPOS>BOND
  1   1   2  2   
  2   1   3  2   
  3   1   4  am  
  4   1   5  1   
  5   4   6  1   
  6   4   7  1   
  7   5   8  ar  
  8   5   9  ar  
  9   6  10  1   
 10   6  27  1   
 11   6  28  1   
 12   7  11  1   
 13   7  29  1   
 14   7  30  1   
 15   8  12  ar  
 16   8  31  1   
 17   9  13  ar  
 18   9  32  1   
 19  10  14  ar  
 20  10  15  ar  
 21  11  14  1   
 22  11  33  1   
 23  11  34  1   
 24  12  16  ar  
 25  12  17  1   
 26  13  16  ar  
 27  13  35  1   
 28  14  18  ar  
 29  15  19  ar  
 30  15  36  1   
 31  16  20  1   
 32  17  37  1   
 33  17  38  1   
 34  17  39  1   
 35  18  21  ar  
 36  18  40  1   
 37  19  21  ar  
 38  19  41  1   
 39  20  22  1   
 40  21  42  1   
 41  22  23  1   
 42  22  43  1   
 43  22  44  1   
 44  23  24  2   
 45  23  25  1   
 46  25  26  1   
 47  26  45  1   
 48  26  46  1   
 49  26  47  1   
@<TRIPOS>SUBSTRUCTURE
  1 ****   9 GROUP 4 **** **** 0

# MOE 2024.06 (io_trps.svl 2023.06)
