@<TRIPOS>MOLECULE
3-(3-Ethoxy-isoxazol-5-yl)-propionic acid
23 23 1 0 0 
SMALL
USER_CHARGES


@<TRIPOS>ATOM
  1 O       -0.7380    -1.1560     1.0260 O.co2 1 <1>  -0.9000 
  2 C       -1.3120    -1.0250    -0.0570 C.2   1 <1>   0.9060 
  3 O       -0.8440    -1.4260    -1.1250 O.co2 1 <1>  -0.9000 
  4 C       -2.6640    -0.3680    -0.0740 C.3   1 <1>  -0.2660 
  5 C       -3.7600    -1.4210     0.1130 C.3   1 <1>   0.0200 
  6 C       -5.1530    -0.8140     0.1050 C.2   1 <1>  -0.0400 
  7 O       -6.1980    -1.5910     0.2540 O.3   1 <1>  -0.0190 
  8 C       -5.5910     0.4480    -0.0320 C.2   1 <1>  -0.1500 
  9 N       -7.3200    -0.9170     0.2240 N.2   1 <1>  -0.4100 
 10 C       -6.9720     0.3120     0.0520 C.2   1 <1>   0.3510 
 11 O       -7.8140     1.3760    -0.0400 O.3   1 <1>  -0.3420 
 12 C       -9.1970     1.1180     0.0600 C.3   1 <1>   0.1200 
 13 C       -9.9400     2.4450    -0.0700 C.3   1 <1>  -0.2400 
 14 H       -2.7810     0.1350    -1.0140 H     1 <1>   0.0800 
 15 H       -2.6960     0.3530     0.7200 H     1 <1>   0.0800 
 16 H       -3.6010    -1.9310     1.0470 H     1 <1>   0.0800 
 17 H       -3.6860    -2.1480    -0.6780 H     1 <1>   0.0800 
 18 H       -5.0530     1.3640    -0.1740 H     1 <1>   0.1500 
 19 H       -9.3900     0.6610     1.0160 H     1 <1>   0.0800 
 20 H       -9.4760     0.4420    -0.7300 H     1 <1>   0.0800 
 21 H       -9.6430     3.1140     0.7180 H     1 <1>   0.0800 
 22 H      -10.9990     2.2760     0.0030 H     1 <1>   0.0800 
 23 H       -9.7290     2.8950    -1.0230 H     1 <1>   0.0800 
@<TRIPOS>BOND
  1   1   2  ar  
  2   2   3  ar  
  3   2   4  1   
  4   4   5  1   
  5   4  14  1   
  6   4  15  1   
  7   5   6  1   
  8   5  16  1   
  9   5  17  1   
 10   6   7  1   
 11   6   8  2   
 12   7   9  1   
 13   8  10  1   
 14   8  18  1   
 15   9  10  2   
 16  10  11  1   
 17  11  12  1   
 18  12  13  1   
 19  12  19  1   
 20  12  20  1   
 21  13  21  1   
 22  13  22  1   
 23  13  23  1   
@<TRIPOS>SUBSTRUCTURE
  1 ****   6 GROUP 4 **** **** 0

# MOE 2024.06 (io_trps.svl 2023.06)
