@<TRIPOS>MOLECULE
N-(3-Imidazol-1-yl-propyl)-2,5-dimethoxy-benzenesulfonamide
41 42 1 0 0 
SMALL
USER_CHARGES


@<TRIPOS>ATOM
  1 S       -0.4890    -0.0860     0.5470 S.o2  1 <1>   1.4470 
  2 O       -0.9120     0.8270     1.5880 O.2   1 <1>  -0.6500 
  3 O       -0.8990    -1.4680     0.6480 O.2   1 <1>  -0.6500 
  4 N       -1.2090     0.3860    -0.8970 N.am  1 <1>  -0.9140 
  5 C        1.2940    -0.0070     0.2350 C.ar  1 <1>  -0.0090 
  6 C       -1.8950     1.6650    -0.8860 C.3   1 <1>   0.1960 
  7 C        1.9470     1.2100     0.0450 C.ar  1 <1>   0.0830 
  8 C        2.0440    -1.1780     0.1760 C.ar  1 <1>  -0.1500 
  9 C       -3.3250     1.4890    -0.3700 C.3   1 <1>  -0.1600 
 10 O        1.2040     2.3460     0.1040 O.3   1 <1>  -0.3620 
 11 C        3.3190     1.2400    -0.1980 C.ar  1 <1>  -0.1500 
 12 C        3.4130    -1.1510    -0.0630 C.ar  1 <1>   0.0830 
 13 C       -4.0000     2.8510    -0.1810 C.3   1 <1>   0.0960 
 14 C        1.8050     3.6190     0.2080 C.3   1 <1>   0.0400 
 15 C        4.0430     0.0650    -0.2500 C.ar  1 <1>  -0.1500 
 16 O        4.1930    -2.2600    -0.1290 O.3   1 <1>  -0.3630 
 17 N       -5.4070     2.6770     0.2260 N.pl3 1 <1>   0.0480 
 18 C        3.6470    -3.5490     0.0460 C.3   1 <1>   0.0400 
 19 C       -5.8910     2.4460     1.4670 C.2   1 <1>   0.0360 
 20 C       -6.4960     2.7160    -0.5630 C.2   1 <1>  -0.3020 
 21 N       -7.1800     2.3400     1.5190 N.2   1 <1>  -0.5650 
 22 C       -7.5630     2.5090     0.2400 C.2   1 <1>   0.0770 
 23 H       -1.8770    -0.3590    -1.0840 H     1 <1>   0.4200 
 24 H       -1.9280     2.0450    -1.8940 H     1 <1>   0.0800 
 25 H       -1.3510     2.3770    -0.2870 H     1 <1>   0.0800 
 26 H        1.5360    -2.1130     0.3210 H     1 <1>   0.1500 
 27 H       -3.3170     0.9790     0.5780 H     1 <1>   0.0800 
 28 H       -3.8880     0.9060    -1.0780 H     1 <1>   0.0800 
 29 H        3.8420     2.1650    -0.3530 H     1 <1>   0.1500 
 30 H       -3.9780     3.4110    -1.0990 H     1 <1>   0.0800 
 31 H       -3.4890     3.4160     0.5790 H     1 <1>   0.0800 
 32 H        1.0260     4.3440     0.3660 H     1 <1>   0.0800 
 33 H        2.3260     3.8370    -0.7070 H     1 <1>   0.0800 
 34 H        2.4790     3.6210     1.0470 H     1 <1>   0.0800 
 35 H        5.1020     0.0820    -0.4360 H     1 <1>   0.1500 
 36 H        4.4440    -4.2650    -0.0470 H     1 <1>   0.0800 
 37 H        2.9090    -3.7240    -0.7170 H     1 <1>   0.0800 
 38 H        3.2110    -3.6150     1.0270 H     1 <1>   0.0800 
 39 H       -5.2450     2.3590     2.3230 H     1 <1>   0.1500 
 40 H       -6.4600     2.8830    -1.6230 H     1 <1>   0.1500 
 41 H       -8.6040     2.4730    -0.0390 H     1 <1>   0.1500 
@<TRIPOS>BOND
  1   1   2  2   
  2   1   3  2   
  3   1   4  am  
  4   1   5  1   
  5   4   6  1   
  6   4  23  1   
  7   5   7  ar  
  8   5   8  ar  
  9   6   9  1   
 10   6  24  1   
 11   6  25  1   
 12   7  10  1   
 13   7  11  ar  
 14   8  12  ar  
 15   8  26  1   
 16   9  13  1   
 17   9  27  1   
 18   9  28  1   
 19  10  14  1   
 20  11  15  ar  
 21  11  29  1   
 22  12  15  ar  
 23  12  16  1   
 24  13  17  1   
 25  13  30  1   
 26  13  31  1   
 27  14  32  1   
 28  14  33  1   
 29  14  34  1   
 30  15  35  1   
 31  16  18  1   
 32  17  19  1   
 33  17  20  1   
 34  18  36  1   
 35  18  37  1   
 36  18  38  1   
 37  19  21  2   
 38  19  39  1   
 39  20  22  2   
 40  20  40  1   
 41  21  22  1   
 42  22  41  1   
@<TRIPOS>SUBSTRUCTURE
  1 ****   1 GROUP 4 **** **** 0

# MOE 2024.06 (io_trps.svl 2023.06)
