@<TRIPOS>MOLECULE
Pyrazine-2-carboxylic acid 2-oxo-2-(5,6,7,8-tetrahydro-naphthalen-2-yl)-ethyl es
38 40 1 0 0 
SMALL
USER_CHARGES


@<TRIPOS>ATOM
  1 O       -0.1500    -0.4560     1.8120 O.2   1 <1>  -0.5700 
  2 C        0.3280    -1.1880     0.9680 C.2   1 <1>   0.6340 
  3 O        1.5080    -1.7540     1.2450 O.3   1 <1>  -0.4300 
  4 C       -0.2860    -1.4910    -0.3210 C.ar  1 <1>   0.3960 
  5 C        2.1560    -1.5540     2.4950 C.3   1 <1>   0.1810 
  6 N       -1.2880    -0.7290    -0.7960 N.ar  1 <1>  -0.6200 
  7 C        0.1860    -2.5860    -1.0600 C.ar  1 <1>   0.1600 
  8 C        3.5370    -2.1940     2.4890 C.2   1 <1>   0.4230 
  9 C       -1.7440    -1.1210    -1.9700 C.ar  1 <1>   0.1600 
 10 N       -0.2680    -2.9800    -2.2390 N.ar  1 <1>  -0.6200 
 11 O        3.7020    -3.1390     3.2200 O.2   1 <1>  -0.5700 
 12 C        4.5840    -1.6610     1.6360 C.ar  1 <1>   0.0860 
 13 C       -1.2510    -2.2120    -2.6720 C.ar  1 <1>   0.1600 
 14 C        4.4170    -0.5360     0.8220 C.ar  1 <1>  -0.1500 
 15 C        5.8360    -2.2750     1.6010 C.ar  1 <1>  -0.1500 
 16 C        5.4330    -0.0480     0.0160 C.ar  1 <1>  -0.1430 
 17 C        6.8580    -1.8000     0.8030 C.ar  1 <1>  -0.1500 
 18 C        6.6680    -0.6850     0.0050 C.ar  1 <1>  -0.1430 
 19 C        5.1660     1.1940    -0.8280 C.3   1 <1>  -0.0170 
 20 C        7.8190    -0.2080    -0.8740 C.3   1 <1>  -0.0170 
 21 C        6.1960     1.3870    -1.9460 C.3   1 <1>  -0.1600 
 22 C        7.6150     1.2180    -1.3960 C.3   1 <1>  -0.1600 
 23 H        1.5480    -2.0030     3.2610 H     1 <1>   0.0800 
 24 H        2.2350    -0.4990     2.6860 H     1 <1>   0.0800 
 25 H        0.9880    -3.1740    -0.6470 H     1 <1>   0.1500 
 26 H       -2.5500    -0.5520    -2.4010 H     1 <1>   0.1500 
 27 H       -1.6860    -2.4570    -3.6250 H     1 <1>   0.1500 
 28 H        3.4770    -0.0180     0.8090 H     1 <1>   0.1500 
 29 H        6.0100    -3.1440     2.2120 H     1 <1>   0.1500 
 30 H        7.8080    -2.3060     0.8030 H     1 <1>   0.1500 
 31 H        5.1900     2.0520    -0.1790 H     1 <1>   0.0800 
 32 H        4.1830     1.1370    -1.2630 H     1 <1>   0.0800 
 33 H        7.9010    -0.8800    -1.7110 H     1 <1>   0.0800 
 34 H        8.7420    -0.2540    -0.3230 H     1 <1>   0.0800 
 35 H        6.0820     2.3660    -2.3770 H     1 <1>   0.0800 
 36 H        6.0240     0.6590    -2.7200 H     1 <1>   0.0800 
 37 H        8.3370     1.4250    -2.1670 H     1 <1>   0.0800 
 38 H        7.7740     1.9180    -0.5930 H     1 <1>   0.0800 
@<TRIPOS>BOND
  1   1   2  2   
  2   2   3  1   
  3   2   4  1   
  4   3   5  1   
  5   4   6  ar  
  6   4   7  ar  
  7   5   8  1   
  8   5  23  1   
  9   5  24  1   
 10   6   9  ar  
 11   7  10  ar  
 12   7  25  1   
 13   8  11  2   
 14   8  12  1   
 15   9  13  ar  
 16   9  26  1   
 17  10  13  ar  
 18  12  14  ar  
 19  12  15  ar  
 20  13  27  1   
 21  14  16  ar  
 22  14  28  1   
 23  15  17  ar  
 24  15  29  1   
 25  16  18  ar  
 26  16  19  1   
 27  17  18  ar  
 28  17  30  1   
 29  18  20  1   
 30  19  21  1   
 31  19  31  1   
 32  19  32  1   
 33  20  22  1   
 34  20  33  1   
 35  20  34  1   
 36  21  22  1   
 37  21  35  1   
 38  21  36  1   
 39  22  37  1   
 40  22  38  1   
@<TRIPOS>SUBSTRUCTURE
  1 ****  14 GROUP 4 **** **** 0

# MOE 2024.06 (io_trps.svl 2023.06)
