@<TRIPOS>MOLECULE
1-Cyclohexyl-5-oxo-pyrrolidine-3-carboxylic acid [4-(3-methoxy-propylsulfamoyl)-
61 63 1 0 0 
SMALL
USER_CHARGES


@<TRIPOS>ATOM
  1 S        0.0120     0.1460    -0.0230 S.o2  1 <1>   1.4470 
  2 O        0.7960     0.4170     1.1600 O.2   1 <1>  -0.6500 
  3 O        0.6400     0.0820    -1.3230 O.2   1 <1>  -0.6500 
  4 N       -1.1080     1.3990    -0.0610 N.am  1 <1>  -0.9140 
  5 C       -1.0220    -1.3210     0.2390 C.ar  1 <1>  -0.0090 
  6 C       -0.7520     2.5380    -0.8930 C.3   1 <1>   0.1960 
  7 C       -2.0230    -1.6630    -0.6630 C.ar  1 <1>  -0.1500 
  8 C       -0.8480    -2.1440     1.3450 C.ar  1 <1>  -0.1500 
  9 C        0.3220     3.3950    -0.2190 C.3   1 <1>  -0.1600 
 10 C       -2.8180    -2.7780    -0.4700 C.ar  1 <1>  -0.1500 
 11 C       -1.6410    -3.2620     1.5420 C.ar  1 <1>  -0.1500 
 12 C        0.6510     4.6120    -1.0800 C.3   1 <1>   0.1200 
 13 C       -2.6380    -3.6010     0.6370 C.ar  1 <1>   0.1170 
 14 O        1.5430     5.4010    -0.3690 O.3   1 <1>  -0.5600 
 15 N       -3.4210    -4.7380     0.8880 N.am  1 <1>  -0.5470 
 16 C        1.9750     6.5300    -1.0560 C.3   1 <1>   0.0400 
 17 C       -4.1850    -5.5070     0.0500 C.2   1 <1>   0.5690 
 18 O       -4.2620    -5.3150    -1.1380 O.2   1 <1>  -0.5700 
 19 C       -4.9390    -6.6850     0.6530 C.3   1 <1>  -0.0190 
 20 C       -6.0290    -7.2560    -0.2710 C.3   1 <1>   0.1400 
 21 C       -5.6640    -6.3760     1.9780 C.3   1 <1>  -0.0990 
 22 N       -7.0630    -7.7380     0.6680 N.am  1 <1>  -0.6600 
 23 C       -6.8780    -7.2600     1.9170 C.2   1 <1>   0.5690 
 24 C       -8.2020    -8.5920     0.2530 C.3   1 <1>   0.2200 
 25 O       -7.5650    -7.4860     2.8810 O.2   1 <1>  -0.5700 
 26 C       -7.7050    -9.9860    -0.1500 C.3   1 <1>  -0.1600 
 27 C       -8.9910    -7.9300    -0.8850 C.3   1 <1>  -0.1600 
 28 C       -8.8730   -10.8780    -0.5970 C.3   1 <1>  -0.1600 
 29 C      -10.1610    -8.8190    -1.3310 C.3   1 <1>  -0.1600 
 30 C       -9.6730   -10.2190    -1.7300 C.3   1 <1>  -0.1600 
 31 H       -1.1370     1.7220     0.9050 H     1 <1>   0.4200 
 32 H       -1.6350     3.1390    -1.0360 H     1 <1>   0.0800 
 33 H       -0.4230     2.2080    -1.8650 H     1 <1>   0.0800 
 34 H       -2.1800    -1.0440    -1.5310 H     1 <1>   0.1500 
 35 H       -0.0790    -1.9060     2.0620 H     1 <1>   0.1500 
 36 H        1.2240     2.8240    -0.0850 H     1 <1>   0.0800 
 37 H       -0.0340     3.7330     0.7380 H     1 <1>   0.0800 
 38 H       -3.5840    -3.0000    -1.1910 H     1 <1>   0.1500 
 39 H       -1.4740    -3.8760     2.4080 H     1 <1>   0.1500 
 40 H       -0.2330     5.1930    -1.2800 H     1 <1>   0.0800 
 41 H        1.1140     4.3090    -2.0050 H     1 <1>   0.0800 
 42 H       -3.3820    -5.0650     1.8510 H     1 <1>   0.3700 
 43 H        2.6540     7.0690    -0.4190 H     1 <1>   0.0800 
 44 H        1.1280     7.1510    -1.2900 H     1 <1>   0.0800 
 45 H        2.4860     6.2260    -1.9540 H     1 <1>   0.0800 
 46 H       -4.2300    -7.4740     0.8260 H     1 <1>   0.0800 
 47 H       -5.6430    -8.0530    -0.8820 H     1 <1>   0.0800 
 48 H       -6.4540    -6.4890    -0.8970 H     1 <1>   0.0800 
 49 H       -5.9960    -5.3550     2.0220 H     1 <1>   0.0800 
 50 H       -5.0660    -6.6150     2.8370 H     1 <1>   0.0800 
 51 H       -8.8650    -8.7050     1.0960 H     1 <1>   0.0800 
 52 H       -7.2100   -10.4410     0.6900 H     1 <1>   0.0800 
 53 H       -7.0030    -9.9040    -0.9600 H     1 <1>   0.0800 
 54 H       -8.3460    -7.7630    -1.7290 H     1 <1>   0.0800 
 55 H       -9.3710    -6.9810    -0.5490 H     1 <1>   0.0800 
 56 H       -9.5240   -11.0560     0.2420 H     1 <1>   0.0800 
 57 H       -8.4940   -11.8290    -0.9270 H     1 <1>   0.0800 
 58 H      -10.6650    -8.3610    -2.1650 H     1 <1>   0.0800 
 59 H      -10.8690    -8.9050    -0.5250 H     1 <1>   0.0800 
 60 H      -10.5180   -10.8370    -1.9790 H     1 <1>   0.0800 
 61 H       -9.0520   -10.1430    -2.6060 H     1 <1>   0.0800 
@<TRIPOS>BOND
  1   1   2  2   
  2   1   3  2   
  3   1   4  am  
  4   1   5  1   
  5   4   6  1   
  6   4  31  1   
  7   5   7  ar  
  8   5   8  ar  
  9   6   9  1   
 10   6  32  1   
 11   6  33  1   
 12   7  10  ar  
 13   7  34  1   
 14   8  11  ar  
 15   8  35  1   
 16   9  12  1   
 17   9  36  1   
 18   9  37  1   
 19  10  13  ar  
 20  10  38  1   
 21  11  13  ar  
 22  11  39  1   
 23  12  14  1   
 24  12  40  1   
 25  12  41  1   
 26  13  15  1   
 27  14  16  1   
 28  15  17  am  
 29  15  42  1   
 30  16  43  1   
 31  16  44  1   
 32  16  45  1   
 33  17  18  2   
 34  17  19  1   
 35  19  20  1   
 36  19  21  1   
 37  19  46  1   
 38  20  22  1   
 39  20  47  1   
 40  20  48  1   
 41  21  23  1   
 42  21  49  1   
 43  21  50  1   
 44  22  23  am  
 45  22  24  1   
 46  23  25  2   
 47  24  26  1   
 48  24  27  1   
 49  24  51  1   
 50  26  28  1   
 51  26  52  1   
 52  26  53  1   
 53  27  29  1   
 54  27  54  1   
 55  27  55  1   
 56  28  30  1   
 57  28  56  1   
 58  28  57  1   
 59  29  30  1   
 60  29  58  1   
 61  29  59  1   
 62  30  60  1   
 63  30  61  1   
@<TRIPOS>SUBSTRUCTURE
  1 ****  13 GROUP 4 **** **** 0

# MOE 2024.06 (io_trps.svl 2023.06)
