@<TRIPOS>MOLECULE
2-Methoxy-N-[2-(2-methoxy-ethyl)-1,2,3,4-tetrahydro-benzo[4,5]imidazo[1,2-a]pyra
52 55 1 0 0 
SMALL
USER_CHARGES


@<TRIPOS>ATOM
  1 O        0.5710    -2.1360     2.4090 O.2   1 <1>  -0.5700 
  2 C        0.3320    -1.8660     1.2460 C.2   1 <1>   0.5440 
  3 N        1.3210    -1.3050     0.4750 N.am  1 <1>  -0.5470 
  4 C       -0.9910    -2.1270     0.6940 C.ar  1 <1>   0.0860 
  5 C        2.6400    -0.9030     0.7500 C.ar  1 <1>   0.1170 
  6 C       -1.2710    -2.2450    -0.6830 C.ar  1 <1>   0.0830 
  7 C       -2.0680    -2.2720     1.5760 C.ar  1 <1>  -0.1500 
  8 C        3.5440    -0.8490    -0.2930 C.ar  1 <1>  -0.1500 
  9 C        3.0630    -0.5350     2.0410 C.ar  1 <1>  -0.1500 
 10 O       -0.2540    -2.1270    -1.5760 O.3   1 <1>  -0.3630 
 11 C       -2.5750    -2.4850    -1.1180 C.ar  1 <1>  -0.1500 
 12 C       -3.3540    -2.5130     1.1380 C.ar  1 <1>  -0.1500 
 13 C        4.8530    -0.4410    -0.0590 C.ar  1 <1>   0.2270 
 14 C        4.3570    -0.1320     2.2850 C.ar  1 <1>  -0.1500 
 15 C       -0.4090    -2.3510    -2.9630 C.3   1 <1>   0.0400 
 16 C       -3.6100    -2.6190    -0.2140 C.ar  1 <1>  -0.1500 
 17 N        5.8890    -0.3210    -0.9380 N.2   1 <1>  -0.5650 
 18 C        5.2520    -0.0880     1.2150 C.ar  1 <1>  -0.1520 
 19 C        6.8730     0.0850    -0.2090 C.2   1 <1>   0.0060 
 20 N        6.5620     0.2520     1.1000 N.pl3 1 <1>   0.0480 
 21 C        8.2800     0.3850    -0.7090 C.3   1 <1>   0.2900 
 22 C        7.5140     0.6590     2.1470 C.3   1 <1>   0.0960 
 23 N        9.2670     0.4590     0.4050 N.3   1 <1>  -0.8100 
 24 C        8.7580     1.2950     1.5080 C.3   1 <1>   0.1100 
 25 C       10.5810     0.9440    -0.0640 C.3   1 <1>   0.1100 
 26 C       11.3140    -0.1180    -0.8870 C.3   1 <1>   0.1200 
 27 O       12.5530     0.3980    -1.2590 O.3   1 <1>  -0.5600 
 28 C       13.3380    -0.4920    -1.9840 C.3   1 <1>   0.0400 
 29 H        1.0700    -1.2880    -0.5170 H     1 <1>   0.3700 
 30 H       -1.8880    -2.1930     2.6350 H     1 <1>   0.1500 
 31 H        3.2690    -1.1190    -1.2930 H     1 <1>   0.1500 
 32 H        2.3590    -0.5690     2.8510 H     1 <1>   0.1500 
 33 H       -2.8110    -2.5730    -2.1610 H     1 <1>   0.1500 
 34 H       -4.1570    -2.6180     1.8490 H     1 <1>   0.1500 
 35 H        4.6740     0.1430     3.2750 H     1 <1>   0.1500 
 36 H        0.5540    -2.2490    -3.4290 H     1 <1>   0.0800 
 37 H       -1.0870    -1.6170    -3.3630 H     1 <1>   0.0800 
 38 H       -0.7840    -3.3480    -3.1160 H     1 <1>   0.0800 
 39 H       -4.6130    -2.8050    -0.5590 H     1 <1>   0.1500 
 40 H        8.2560     1.3220    -1.2390 H     1 <1>   0.0800 
 41 H        8.5650    -0.3880    -1.4000 H     1 <1>   0.0800 
 42 H        7.8000    -0.2130     2.7040 H     1 <1>   0.0800 
 43 H        7.0370     1.3570     2.8090 H     1 <1>   0.0800 
 44 H        9.5160     1.3980     2.2660 H     1 <1>   0.0800 
 45 H        8.5170     2.2790     1.1420 H     1 <1>   0.0800 
 46 H       11.1990     1.1720     0.7880 H     1 <1>   0.0800 
 47 H       10.4600     1.8390    -0.6490 H     1 <1>   0.0800 
 48 H       10.7670    -0.3590    -1.7810 H     1 <1>   0.0800 
 49 H       11.4700    -1.0010    -0.2920 H     1 <1>   0.0800 
 50 H       14.2650    -0.0030    -2.2230 H     1 <1>   0.0800 
 51 H       12.8250    -0.7610    -2.8910 H     1 <1>   0.0800 
 52 H       13.5320    -1.3650    -1.3840 H     1 <1>   0.0800 
@<TRIPOS>BOND
  1   1   2  2   
  2   2   3  am  
  3   2   4  1   
  4   3   5  1   
  5   3  29  1   
  6   4   6  ar  
  7   4   7  ar  
  8   5   8  ar  
  9   5   9  ar  
 10   6  10  1   
 11   6  11  ar  
 12   7  12  ar  
 13   7  30  1   
 14   8  13  ar  
 15   8  31  1   
 16   9  14  ar  
 17   9  32  1   
 18  10  15  1   
 19  11  16  ar  
 20  11  33  1   
 21  12  16  ar  
 22  12  34  1   
 23  13  17  1   
 24  13  18  ar  
 25  14  18  ar  
 26  14  35  1   
 27  15  36  1   
 28  15  37  1   
 29  15  38  1   
 30  16  39  1   
 31  17  19  2   
 32  18  20  1   
 33  19  20  1   
 34  19  21  1   
 35  20  22  1   
 36  21  23  1   
 37  21  40  1   
 38  21  41  1   
 39  22  24  1   
 40  22  42  1   
 41  22  43  1   
 42  23  24  1   
 43  23  25  1   
 44  24  44  1   
 45  24  45  1   
 46  25  26  1   
 47  25  46  1   
 48  25  47  1   
 49  26  27  1   
 50  26  48  1   
 51  26  49  1   
 52  27  28  1   
 53  28  50  1   
 54  28  51  1   
 55  28  52  1   
@<TRIPOS>SUBSTRUCTURE
  1 ****   8 GROUP 4 **** **** 0

# MOE 2024.06 (io_trps.svl 2023.06)
