@<TRIPOS>MOLECULE
2-[4-(Piperidine-1-sulfonyl)-phenoxy]-1-pyrrolidin-1-yl-ethanone
48 50 1 0 0 
SMALL
USER_CHARGES


@<TRIPOS>ATOM
  1 S       -0.3450     0.7430    -1.3770 S.o2  1 <1>   1.4470 
  2 O       -1.1980     1.9100    -1.3330 O.2   1 <1>  -0.6500 
  3 O       -0.4880    -0.2020    -2.4650 O.2   1 <1>  -0.6500 
  4 N       -0.5870    -0.1210     0.0620 N.am  1 <1>  -0.8490 
  5 C        1.3830     1.2750    -1.2490 C.ar  1 <1>  -0.0090 
  6 C        0.1080    -1.4130     0.0510 C.3   1 <1>   0.1960 
  7 C       -2.0160    -0.2990     0.3420 C.3   1 <1>   0.1960 
  8 C        1.8550     1.8930    -0.0970 C.ar  1 <1>  -0.1500 
  9 C        2.2760     1.0850    -2.2980 C.ar  1 <1>  -0.1500 
 10 C       -0.0020    -2.0850     1.4230 C.3   1 <1>  -0.1600 
 11 C       -2.2130    -0.9430     1.7180 C.3   1 <1>  -0.1600 
 12 C        3.1740     2.2960     0.0110 C.ar  1 <1>  -0.1500 
 13 C        3.5980     1.4840    -2.2020 C.ar  1 <1>  -0.1500 
 14 C       -1.4670    -2.2780     1.8290 C.3   1 <1>  -0.1600 
 15 C        4.0550     2.0890    -1.0360 C.ar  1 <1>   0.0830 
 16 O        5.3310     2.4920    -0.8460 O.3   1 <1>  -0.3630 
 17 C        6.3550     2.1600    -1.7730 C.3   1 <1>   0.1810 
 18 C        7.7370     2.5050    -1.2270 C.2   1 <1>   0.5690 
 19 O        8.4410     3.2270    -1.8950 O.2   1 <1>  -0.5700 
 20 N        8.1770     1.9770    -0.0410 N.am  1 <1>  -0.6600 
 21 C        7.3970     1.1200     0.8790 C.3   1 <1>   0.1400 
 22 C        9.5060     2.2930     0.5240 C.3   1 <1>   0.1400 
 23 C        8.4010     0.6730     1.9340 C.3   1 <1>  -0.1600 
 24 C        9.4510     1.7810     1.9590 C.3   1 <1>  -0.1600 
 25 H        1.1490    -1.2650    -0.1820 H     1 <1>   0.0800 
 26 H       -0.3180    -2.0550    -0.7040 H     1 <1>   0.0800 
 27 H       -2.4650    -0.9110    -0.4240 H     1 <1>   0.0800 
 28 H       -2.5100     0.6590     0.3390 H     1 <1>   0.0800 
 29 H        1.1770     2.0590     0.7250 H     1 <1>   0.1500 
 30 H        1.9290     0.6170    -3.2050 H     1 <1>   0.1500 
 31 H        0.5020    -1.4730     2.1500 H     1 <1>   0.0800 
 32 H        0.4940    -3.0390     1.3940 H     1 <1>   0.0800 
 33 H       -3.2630    -1.0990     1.8910 H     1 <1>   0.0800 
 34 H       -1.8540    -0.2630     2.4700 H     1 <1>   0.0800 
 35 H        3.5260     2.7740     0.9080 H     1 <1>   0.1500 
 36 H        4.2470     1.3210    -3.0420 H     1 <1>   0.1500 
 37 H       -1.5250    -2.6510     2.8380 H     1 <1>   0.0800 
 38 H       -1.9280    -3.0000     1.1770 H     1 <1>   0.0800 
 39 H        6.1780     2.7120    -2.6780 H     1 <1>   0.0800 
 40 H        6.3120     1.1060    -1.9700 H     1 <1>   0.0800 
 41 H        6.9650     0.2810     0.3610 H     1 <1>   0.0800 
 42 H        6.6170     1.7100     1.3320 H     1 <1>   0.0800 
 43 H        9.6980     3.3520     0.4830 H     1 <1>   0.0800 
 44 H       10.2580     1.7680    -0.0400 H     1 <1>   0.0800 
 45 H        8.8520    -0.2510     1.6190 H     1 <1>   0.0800 
 46 H        7.9350     0.5270     2.8930 H     1 <1>   0.0800 
 47 H        9.1250     2.5800     2.6010 H     1 <1>   0.0800 
 48 H       10.4110     1.4310     2.2950 H     1 <1>   0.0800 
@<TRIPOS>BOND
  1   1   2  2   
  2   1   3  2   
  3   1   4  am  
  4   1   5  1   
  5   4   6  1   
  6   4   7  1   
  7   5   8  ar  
  8   5   9  ar  
  9   6  10  1   
 10   6  25  1   
 11   6  26  1   
 12   7  11  1   
 13   7  27  1   
 14   7  28  1   
 15   8  12  ar  
 16   8  29  1   
 17   9  13  ar  
 18   9  30  1   
 19  10  14  1   
 20  10  31  1   
 21  10  32  1   
 22  11  14  1   
 23  11  33  1   
 24  11  34  1   
 25  12  15  ar  
 26  12  35  1   
 27  13  15  ar  
 28  13  36  1   
 29  14  37  1   
 30  14  38  1   
 31  15  16  1   
 32  16  17  1   
 33  17  18  1   
 34  17  39  1   
 35  17  40  1   
 36  18  19  2   
 37  18  20  am  
 38  20  21  1   
 39  20  22  1   
 40  21  23  1   
 41  21  41  1   
 42  21  42  1   
 43  22  24  1   
 44  22  43  1   
 45  22  44  1   
 46  23  24  1   
 47  23  45  1   
 48  23  46  1   
 49  24  47  1   
 50  24  48  1   
@<TRIPOS>SUBSTRUCTURE
  1 ****  12 GROUP 4 **** **** 0

# MOE 2024.06 (io_trps.svl 2023.06)
