@<TRIPOS>MOLECULE
(4-Aminomethyl-1-methyl-piperidin-4-yl)-dimethyl-amine
36 36 1 0 0 
SMALL
USER_CHARGES


@<TRIPOS>ATOM
  1 N        0.0540    -0.5480    -0.0170 N.4   1 <1>  -0.9590 
  2 C        0.6390     0.1330     1.1810 C.3   1 <1>   0.3430 
  3 C        0.8220    -0.4250    -1.2930 C.3   1 <1>   0.3430 
  4 C       -1.3770    -0.1290    -0.2260 C.3   1 <1>   0.2630 
  5 C        1.5780     1.2680     0.7530 C.3   1 <1>  -0.1600 
  6 C        2.3280    -0.4020    -0.9920 C.3   1 <1>  -0.1600 
  7 C        2.7780     0.8080    -0.1230 C.3   1 <1>   0.5030 
  8 N        3.9080     0.3480     0.8050 N.4   1 <1>  -0.9590 
  9 C        3.1750     2.0450    -1.0370 C.3   1 <1>   0.3430 
 10 C        4.5420     1.4190     1.6700 C.3   1 <1>   0.2630 
 11 C        5.0220    -0.4800     0.2030 C.3   1 <1>   0.2630 
 12 N        4.3860     1.9560    -1.9440 N.4   1 <1>  -0.8530 
 13 H       -0.0070    -1.5580     0.2110 H     1 <1>   0.4500 
 14 H        1.1870    -0.5860     1.7710 H     1 <1>   0.0800 
 15 H       -0.1520     0.5240     1.8040 H     1 <1>   0.0800 
 16 H        0.5360     0.4810    -1.8050 H     1 <1>   0.0800 
 17 H        0.5840    -1.2570    -1.9400 H     1 <1>   0.0800 
 18 H       -1.4390     0.9220    -0.4620 H     1 <1>   0.0800 
 19 H       -1.9580    -0.3130     0.6650 H     1 <1>   0.0800 
 20 H       -1.8210    -0.6880    -1.0360 H     1 <1>   0.0800 
 21 H        1.9040     1.7950     1.6300 H     1 <1>   0.0800 
 22 H        0.9710     1.9700     0.2060 H     1 <1>   0.0800 
 23 H        2.8560    -0.4130    -1.9290 H     1 <1>   0.0800 
 24 H        2.5450    -1.3330    -0.4980 H     1 <1>   0.0800 
 25 H        3.4740    -0.2980     1.4870 H     1 <1>   0.4500 
 26 H        3.3030     2.8970    -0.3880 H     1 <1>   0.0800 
 27 H        2.3190     2.2720    -1.6530 H     1 <1>   0.0800 
 28 H        5.0530     2.1520     1.0690 H     1 <1>   0.0800 
 29 H        5.2640     0.9750     2.3390 H     1 <1>   0.0800 
 30 H        3.8060     1.9220     2.2760 H     1 <1>   0.0800 
 31 H        5.6040     0.0970    -0.4950 H     1 <1>   0.0800 
 32 H        4.6340    -1.3490    -0.3030 H     1 <1>   0.0800 
 33 H        5.6860    -0.8270     0.9810 H     1 <1>   0.0800 
 34 H        5.2810     1.8890    -1.4430 H     1 <1>   0.4500 
 35 H        4.4660     2.8250    -2.5000 H     1 <1>   0.4500 
 36 H        4.3450     1.2030    -2.6450 H     1 <1>   0.4500 
@<TRIPOS>BOND
  1   1   2  1   
  2   1   3  1   
  3   1   4  1   
  4   1  13  1   
  5   2   5  1   
  6   2  14  1   
  7   2  15  1   
  8   3   6  1   
  9   3  16  1   
 10   3  17  1   
 11   4  18  1   
 12   4  19  1   
 13   4  20  1   
 14   5   7  1   
 15   5  21  1   
 16   5  22  1   
 17   6   7  1   
 18   6  23  1   
 19   6  24  1   
 20   7   8  1   
 21   7   9  1   
 22   8  10  1   
 23   8  11  1   
 24   8  25  1   
 25   9  12  1   
 26   9  26  1   
 27   9  27  1   
 28  10  28  1   
 29  10  29  1   
 30  10  30  1   
 31  11  31  1   
 32  11  32  1   
 33  11  33  1   
 34  12  34  1   
 35  12  35  1   
 36  12  36  1   
@<TRIPOS>SUBSTRUCTURE
  1 ****   7 GROUP 4 **** **** 0

# MOE 2024.06 (io_trps.svl 2023.06)
