@<TRIPOS>MOLECULE
4-(1-Methyl-1H-benzoimidazol-2-yl)-1-phenethyl-pyrrolidin-2-one
45 48 1 0 0 
SMALL
USER_CHARGES


@<TRIPOS>ATOM
  1 O       -0.8750    -1.7700     1.9580 O.2   1 <1>  -0.5700 
  2 C       -1.7740    -2.2560     1.3180 C.2   1 <1>   0.5690 
  3 N       -1.6430    -3.1550     0.3190 N.am  1 <1>  -0.6600 
  4 C       -3.2200    -1.9280     1.5590 C.3   1 <1>  -0.0990 
  5 C       -2.9470    -3.5360    -0.2550 C.3   1 <1>   0.1400 
  6 C       -0.3640    -3.5940    -0.2870 C.3   1 <1>   0.1400 
  7 C       -3.9580    -3.0420     0.7980 C.3   1 <1>   0.1000 
  8 C        0.0520    -4.9480     0.2870 C.3   1 <1>  -0.0160 
  9 C       -5.2990    -2.5910     0.2250 C.2   1 <1>   0.0060 
 10 C        1.3630    -5.4020    -0.3350 C.ar  1 <1>  -0.1440 
 11 N       -5.5410    -2.5080    -1.0380 N.2   1 <1>  -0.5650 
 12 N       -6.3600    -2.2400     1.0110 N.pl3 1 <1>   0.0480 
 13 C        2.5670    -4.9350     0.1690 C.ar  1 <1>  -0.1500 
 14 C        1.3690    -6.2790    -1.4090 C.ar  1 <1>  -0.1500 
 15 C       -6.8260    -2.0710    -1.1150 C.ar  1 <1>   0.2270 
 16 C       -7.3530    -1.8960     0.1500 C.ar  1 <1>  -0.1520 
 17 C       -6.4700    -2.2180     2.4830 C.3   1 <1>   0.0160 
 18 C        3.7640    -5.3400    -0.3940 C.ar  1 <1>  -0.1500 
 19 C        2.5660    -6.6840    -1.9730 C.ar  1 <1>  -0.1500 
 20 C       -7.6020    -1.8030    -2.2410 C.ar  1 <1>  -0.1500 
 21 C       -8.6660    -1.4460     0.3240 C.ar  1 <1>  -0.1500 
 22 C        3.7650    -6.2150    -1.4650 C.ar  1 <1>  -0.1500 
 23 C       -8.8960    -1.3610    -2.0770 C.ar  1 <1>  -0.1500 
 24 C       -9.4270    -1.1820    -0.7930 C.ar  1 <1>  -0.1500 
 25 H       -3.4280    -0.9640     1.1330 H     1 <1>   0.0800 
 26 H       -3.4430    -1.9320     2.6080 H     1 <1>   0.0800 
 27 H       -3.0210    -4.5990    -0.4000 H     1 <1>   0.0800 
 28 H       -3.0750    -3.0280    -1.1960 H     1 <1>   0.0800 
 29 H        0.4000    -2.8650    -0.0700 H     1 <1>   0.0800 
 30 H       -0.4720    -3.6600    -1.3560 H     1 <1>   0.0800 
 31 H       -4.1310    -3.8630     1.4690 H     1 <1>   0.0800 
 32 H       -0.7140    -5.6760     0.0920 H     1 <1>   0.0800 
 33 H        0.1730    -4.8590     1.3520 H     1 <1>   0.0800 
 34 H        2.5750    -4.2530     1.0020 H     1 <1>   0.1500 
 35 H        0.4430    -6.6500    -1.8120 H     1 <1>   0.1500 
 36 H       -5.8000    -2.9370     2.9140 H     1 <1>   0.0800 
 37 H       -7.4760    -2.4630     2.7690 H     1 <1>   0.0800 
 38 H       -6.2260    -1.2340     2.8400 H     1 <1>   0.0800 
 39 H        4.6950    -4.9740     0.0030 H     1 <1>   0.1500 
 40 H        2.5650    -7.3650    -2.8060 H     1 <1>   0.1500 
 41 H       -7.1680    -1.9480    -3.2120 H     1 <1>   0.1500 
 42 H       -9.0690    -1.3080     1.3110 H     1 <1>   0.1500 
 43 H        4.6960    -6.5310    -1.9030 H     1 <1>   0.1500 
 44 H       -9.5100    -1.1490    -2.9350 H     1 <1>   0.1500 
 45 H      -10.4410    -0.8350    -0.6910 H     1 <1>   0.1500 
@<TRIPOS>BOND
  1   1   2  2   
  2   2   3  am  
  3   2   4  1   
  4   3   5  1   
  5   3   6  1   
  6   4   7  1   
  7   4  25  1   
  8   4  26  1   
  9   5   7  1   
 10   5  27  1   
 11   5  28  1   
 12   6   8  1   
 13   6  29  1   
 14   6  30  1   
 15   7   9  1   
 16   7  31  1   
 17   8  10  1   
 18   8  32  1   
 19   8  33  1   
 20   9  11  2   
 21   9  12  1   
 22  10  13  ar  
 23  10  14  ar  
 24  11  15  1   
 25  12  16  1   
 26  12  17  1   
 27  13  18  ar  
 28  13  34  1   
 29  14  19  ar  
 30  14  35  1   
 31  15  16  ar  
 32  15  20  ar  
 33  16  21  ar  
 34  17  36  1   
 35  17  37  1   
 36  17  38  1   
 37  18  22  ar  
 38  18  39  1   
 39  19  22  ar  
 40  19  40  1   
 41  20  23  ar  
 42  20  41  1   
 43  21  24  ar  
 44  21  42  1   
 45  22  43  1   
 46  23  24  ar  
 47  23  44  1   
 48  24  45  1   
@<TRIPOS>SUBSTRUCTURE
  1 ****   5 GROUP 4 **** **** 0

# MOE 2024.06 (io_trps.svl 2023.06)
