@<TRIPOS>MOLECULE
5-Methyl-3-phenyl-isoxazole-4-carboxylic acid (4-cyclohexylsulfamoyl-phenyl)-ami
56 59 1 0 0 
SMALL
USER_CHARGES


@<TRIPOS>ATOM
  1 S       -0.3290     0.2450    -1.3240 S.o2  1 <1>   1.4470 
  2 O       -0.7070     1.1850    -2.3540 O.2   1 <1>  -0.6500 
  3 O        0.9180    -0.4770    -1.4220 O.2   1 <1>  -0.6500 
  4 N       -0.1820     1.0780     0.1230 N.am  1 <1>  -0.9140 
  5 C       -1.6930    -0.9050    -1.0050 C.ar  1 <1>  -0.0090 
  6 C        0.5030     2.3440    -0.0060 C.3   1 <1>   0.2760 
  7 C       -1.5870    -2.2570    -1.3100 C.ar  1 <1>  -0.1500 
  8 C       -2.8910    -0.4620    -0.4590 C.ar  1 <1>  -0.1500 
  9 C        1.3800     2.5330     1.2370 C.3   1 <1>  -0.1600 
 10 C       -0.5300     3.4730    -0.1140 C.3   1 <1>  -0.1600 
 11 C       -2.6310    -3.1320    -1.0700 C.ar  1 <1>  -0.1500 
 12 C       -3.9380    -1.3330    -0.2170 C.ar  1 <1>  -0.1500 
 13 C        2.0670     3.9070     1.2330 C.3   1 <1>  -0.1600 
 14 C        0.1470     4.8520    -0.1210 C.3   1 <1>  -0.1600 
 15 C       -3.8240    -2.6870    -0.5140 C.ar  1 <1>   0.1170 
 16 C        1.0390     5.0390     1.1130 C.3   1 <1>  -0.1600 
 17 N       -4.8530    -3.6140    -0.3000 N.am  1 <1>  -0.5470 
 18 C       -5.9460    -3.5900     0.5310 C.2   1 <1>   0.7160 
 19 O       -6.1420    -2.6600     1.2830 O.2   1 <1>  -0.5700 
 20 C       -6.8470    -4.7020     0.4850 C.2   1 <1>  -0.0860 
 21 C       -8.2170    -4.6630     0.2390 C.2   1 <1>   0.2350 
 22 C       -6.6270    -6.0190     0.6640 C.2   1 <1>  -0.0400 
 23 N       -8.6830    -5.8690     0.2780 N.2   1 <1>  -0.4100 
 24 C       -9.0270    -3.4900    -0.0290 C.ar  1 <1>   0.0540 
 25 O       -7.7220    -6.7230     0.5340 O.3   1 <1>  -0.0190 
 26 C       -5.3480    -6.7610     1.0050 C.3   1 <1>  -0.0600 
 27 C      -10.2900    -3.3640     0.5460 C.ar  1 <1>  -0.1500 
 28 C       -8.5960    -2.4600    -0.8670 C.ar  1 <1>  -0.1500 
 29 C      -11.0860    -2.2580     0.3070 C.ar  1 <1>  -0.1500 
 30 C       -9.3870    -1.3510    -1.1090 C.ar  1 <1>  -0.1500 
 31 C      -10.6340    -1.2470    -0.5210 C.ar  1 <1>  -0.1500 
 32 H        0.4460     0.4810     0.6530 H     1 <1>   0.4200 
 33 H        1.1400     2.3470    -0.8780 H     1 <1>   0.0800 
 34 H       -0.6700    -2.6280    -1.7400 H     1 <1>   0.1500 
 35 H       -3.0040     0.5820    -0.2180 H     1 <1>   0.1500 
 36 H        2.1340     1.7670     1.2680 H     1 <1>   0.0800 
 37 H        0.7700     2.4530     2.1210 H     1 <1>   0.0800 
 38 H       -1.2060     3.4180     0.7210 H     1 <1>   0.0800 
 39 H       -1.1000     3.3630    -1.0190 H     1 <1>   0.0800 
 40 H       -2.5110    -4.1710    -1.3160 H     1 <1>   0.1500 
 41 H       -4.8480    -0.9420     0.2030 H     1 <1>   0.1500 
 42 H        2.7550     3.9610     0.4060 H     1 <1>   0.0800 
 43 H        2.6340     4.0300     2.1410 H     1 <1>   0.0800 
 44 H       -0.6050     5.6220    -0.1420 H     1 <1>   0.0800 
 45 H        0.7430     4.9510    -1.0120 H     1 <1>   0.0800 
 46 H        1.5500     5.9850     1.0490 H     1 <1>   0.0800 
 47 H        0.4240     5.0570     1.9970 H     1 <1>   0.0800 
 48 H       -4.7850    -4.4660    -0.8510 H     1 <1>   0.3700 
 49 H       -4.5310    -6.0780     1.1490 H     1 <1>   0.0800 
 50 H       -5.1010    -7.4480     0.2160 H     1 <1>   0.0800 
 51 H       -5.4890    -7.3190     1.9140 H     1 <1>   0.0800 
 52 H      -10.6490    -4.1480     1.1890 H     1 <1>   0.1500 
 53 H       -7.6340    -2.5220    -1.3410 H     1 <1>   0.1500 
 54 H      -12.0570    -2.1850     0.7660 H     1 <1>   0.1500 
 55 H       -9.0330    -0.5670    -1.7550 H     1 <1>   0.1500 
 56 H      -11.2500    -0.3850    -0.7070 H     1 <1>   0.1500 
@<TRIPOS>BOND
  1   1   2  2   
  2   1   3  2   
  3   1   4  am  
  4   1   5  1   
  5   4   6  1   
  6   4  32  1   
  7   5   7  ar  
  8   5   8  ar  
  9   6   9  1   
 10   6  10  1   
 11   6  33  1   
 12   7  11  ar  
 13   7  34  1   
 14   8  12  ar  
 15   8  35  1   
 16   9  13  1   
 17   9  36  1   
 18   9  37  1   
 19  10  14  1   
 20  10  38  1   
 21  10  39  1   
 22  11  15  ar  
 23  11  40  1   
 24  12  15  ar  
 25  12  41  1   
 26  13  16  1   
 27  13  42  1   
 28  13  43  1   
 29  14  16  1   
 30  14  44  1   
 31  14  45  1   
 32  15  17  1   
 33  16  46  1   
 34  16  47  1   
 35  17  18  am  
 36  17  48  1   
 37  18  19  2   
 38  18  20  1   
 39  20  21  1   
 40  20  22  2   
 41  21  23  2   
 42  21  24  1   
 43  22  25  1   
 44  22  26  1   
 45  23  25  1   
 46  24  27  ar  
 47  24  28  ar  
 48  26  49  1   
 49  26  50  1   
 50  26  51  1   
 51  27  29  ar  
 52  27  52  1   
 53  28  30  ar  
 54  28  53  1   
 55  29  31  ar  
 56  29  54  1   
 57  30  31  ar  
 58  30  55  1   
 59  31  56  1   
@<TRIPOS>SUBSTRUCTURE
  1 ****  12 GROUP 4 **** **** 0

# MOE 2024.06 (io_trps.svl 2023.06)
