@<TRIPOS>MOLECULE
5-(Adamantane-1-carbonyloxy)-1-methyl-1H-pyrazole-3-carboxylic acid methyl ester
45 48 1 0 0 
SMALL
USER_CHARGES


@<TRIPOS>ATOM
  1 O       -0.2560     0.0320     0.3980 O.2   1 <1>  -0.5700 
  2 C        0.2490    -1.0230     0.0580 C.2   1 <1>   0.8060 
  3 O        1.3780    -0.9710    -0.6690 O.3   1 <1>  -0.4300 
  4 C       -0.2760    -2.3430     0.3800 C.2   1 <1>   0.2030 
  5 C        1.9750     0.2570    -1.0380 C.3   1 <1>   0.0400 
  6 N       -1.3690    -2.6160     1.0800 N.2   1 <1>  -0.7070 
  7 C        0.3350    -3.5390    -0.0300 C.2   1 <1>  -0.1500 
  8 N       -1.4570    -3.9520     1.1200 N.pl3 1 <1>   0.3140 
  9 C       -0.4380    -4.5300     0.4550 C.2   1 <1>  -0.0890 
 10 C       -2.5540    -4.6360     1.8180 C.3   1 <1>   0.0160 
 11 O       -0.3240    -5.8890     0.3640 O.3   1 <1>  -0.2130 
 12 C        0.6280    -6.5910    -0.2590 C.2   1 <1>   0.6590 
 13 O        1.5450    -6.0690    -0.8440 O.2   1 <1>  -0.5700 
 14 C        0.4710    -8.1220    -0.1780 C.3   1 <1>   0.0610 
 15 C        1.6150    -8.8570    -0.9260 C.3   1 <1>  -0.1600 
 16 C       -0.8750    -8.5600    -0.8120 C.3   1 <1>  -0.1600 
 17 C        0.4900    -8.5880     1.3010 C.3   1 <1>  -0.1600 
 18 C        1.4460   -10.3850    -0.8360 C.3   1 <1>  -0.0800 
 19 C       -1.0560   -10.0870    -0.7200 C.3   1 <1>  -0.0800 
 20 C        0.3130   -10.1150     1.4010 C.3   1 <1>  -0.0800 
 21 C        0.0980   -10.7810    -1.4660 C.3   1 <1>  -0.1600 
 22 C        1.4600   -10.8080     0.6440 C.3   1 <1>  -0.1600 
 23 C       -1.0300   -10.5110     0.7610 C.3   1 <1>  -0.1600 
 24 H        2.8600     0.0470    -1.6110 H     1 <1>   0.0800 
 25 H        2.2320     0.8020    -0.1460 H     1 <1>   0.0800 
 26 H        1.2750     0.8220    -1.6290 H     1 <1>   0.0800 
 27 H        1.2370    -3.6090    -0.6130 H     1 <1>   0.1500 
 28 H       -3.2090    -3.9020     2.2490 H     1 <1>   0.0800 
 29 H       -2.1450    -5.2560     2.5930 H     1 <1>   0.0800 
 30 H       -3.0980    -5.2370     1.1140 H     1 <1>   0.0800 
 31 H        1.6240    -8.5580    -1.9600 H     1 <1>   0.0800 
 32 H        2.5650    -8.5770    -0.5040 H     1 <1>   0.0800 
 33 H       -0.9030    -8.2570    -1.8450 H     1 <1>   0.0800 
 34 H       -1.6950    -8.0780    -0.3100 H     1 <1>   0.0800 
 35 H       -0.2990    -8.1060     1.8520 H     1 <1>   0.0800 
 36 H        1.4230    -8.3040     1.7570 H     1 <1>   0.0800 
 37 H        2.2500   -10.8720    -1.3620 H     1 <1>   0.0800 
 38 H       -1.9960   -10.3700    -1.1630 H     1 <1>   0.0800 
 39 H        0.3260   -10.4170     2.4350 H     1 <1>   0.0800 
 40 H       -0.0270   -11.8490    -1.4170 H     1 <1>   0.0800 
 41 H        0.0830   -10.4990    -2.5040 H     1 <1>   0.0800 
 42 H        2.4040   -10.5450     1.0890 H     1 <1>   0.0800 
 43 H        1.3510   -11.8760     0.7170 H     1 <1>   0.0800 
 44 H       -1.8410   -10.0420     1.2900 H     1 <1>   0.0800 
 45 H       -1.1670   -11.5760     0.8350 H     1 <1>   0.0800 
@<TRIPOS>BOND
  1   1   2  2   
  2   2   3  1   
  3   2   4  1   
  4   3   5  1   
  5   4   6  2   
  6   4   7  1   
  7   5  24  1   
  8   5  25  1   
  9   5  26  1   
 10   6   8  1   
 11   7   9  2   
 12   7  27  1   
 13   8   9  1   
 14   8  10  1   
 15   9  11  1   
 16  10  28  1   
 17  10  29  1   
 18  10  30  1   
 19  11  12  1   
 20  12  13  2   
 21  12  14  1   
 22  14  15  1   
 23  14  16  1   
 24  14  17  1   
 25  15  18  1   
 26  15  31  1   
 27  15  32  1   
 28  16  19  1   
 29  16  33  1   
 30  16  34  1   
 31  17  20  1   
 32  17  35  1   
 33  17  36  1   
 34  18  21  1   
 35  18  22  1   
 36  18  37  1   
 37  19  21  1   
 38  19  23  1   
 39  19  38  1   
 40  20  22  1   
 41  20  23  1   
 42  20  39  1   
 43  21  40  1   
 44  21  41  1   
 45  22  42  1   
 46  22  43  1   
 47  23  44  1   
 48  23  45  1   
@<TRIPOS>SUBSTRUCTURE
  1 ****  11 GROUP 4 **** **** 0

# MOE 2024.06 (io_trps.svl 2023.06)
