@<TRIPOS>MOLECULE
N-(2-Methoxy-ethyl)-4-(3-m-tolyl-[1,2,4]oxadiazol-5-yl)-butyramide
43 44 1 0 0 
SMALL
USER_CHARGES


@<TRIPOS>ATOM
  1 O       -1.0920    -2.6820     1.4270 O.2   1 <1>  -0.5700 
  2 C       -0.9710    -2.2620     0.3040 C.2   1 <1>   0.5690 
  3 N        0.2170    -1.8160    -0.1770 N.am  1 <1>  -0.7300 
  4 C       -2.1820    -2.2300    -0.6060 C.3   1 <1>  -0.0990 
  5 C        1.4710    -1.7520     0.6170 C.3   1 <1>   0.1400 
  6 C       -3.1060    -1.0430    -0.2730 C.3   1 <1>  -0.1600 
  7 C        2.0490    -3.1520     0.8250 C.3   1 <1>   0.1200 
  8 C       -4.2800    -0.8850    -1.2550 C.3   1 <1>   0.0200 
  9 O        3.3270    -3.0250     1.3660 O.3   1 <1>  -0.5600 
 10 C       -5.1790    -2.1060    -1.3110 C.2   1 <1>   0.2980 
 11 C        3.9220    -4.2400     1.6880 C.3   1 <1>   0.0400 
 12 O       -4.8620    -3.0870    -2.1150 O.3   1 <1>  -0.0190 
 13 N       -6.2410    -2.2730    -0.6390 N.2   1 <1>  -0.5650 
 14 N       -5.8020    -3.9590    -1.9340 N.2   1 <1>  -0.4100 
 15 C       -6.6200    -3.4850    -1.0610 C.2   1 <1>   0.4620 
 16 C       -7.8170    -4.1500    -0.5710 C.ar  1 <1>   0.0540 
 17 C       -8.6240    -3.5790     0.4160 C.ar  1 <1>  -0.1500 
 18 C       -8.2100    -5.3930    -1.0710 C.ar  1 <1>  -0.1500 
 19 C       -9.7650    -4.2080     0.8850 C.ar  1 <1>  -0.1440 
 20 C       -9.3470    -6.0300    -0.6120 C.ar  1 <1>  -0.1500 
 21 C      -10.1260    -5.4390     0.3650 C.ar  1 <1>  -0.1500 
 22 C      -10.6190    -3.5570     1.9580 C.3   1 <1>  -0.0970 
 23 H        0.2850    -1.4810    -1.1380 H     1 <1>   0.3700 
 24 H       -2.7130    -3.1560    -0.4730 H     1 <1>   0.0800 
 25 H       -1.8600    -2.1750    -1.6290 H     1 <1>   0.0800 
 26 H        1.2640    -1.3110     1.5770 H     1 <1>   0.0800 
 27 H        2.1880    -1.1410     0.0970 H     1 <1>   0.0800 
 28 H       -2.5290    -0.1350    -0.2750 H     1 <1>   0.0800 
 29 H       -3.4960    -1.1770     0.7230 H     1 <1>   0.0800 
 30 H        2.1290    -3.6710    -0.1140 H     1 <1>   0.0800 
 31 H        1.4310    -3.7070     1.5110 H     1 <1>   0.0800 
 32 H       -3.9100    -0.6780    -2.2430 H     1 <1>   0.0800 
 33 H       -4.8760    -0.0430    -0.9480 H     1 <1>   0.0800 
 34 H        4.8990    -4.0380     2.0900 H     1 <1>   0.0800 
 35 H        4.0100    -4.8400     0.8000 H     1 <1>   0.0800 
 36 H        3.3230    -4.7430     2.4280 H     1 <1>   0.0800 
 37 H       -8.3470    -2.6210     0.8210 H     1 <1>   0.1500 
 38 H       -7.6150    -5.8670    -1.8320 H     1 <1>   0.1500 
 39 H       -9.6280    -6.9880    -1.0160 H     1 <1>   0.1500 
 40 H      -11.0110    -5.9380     0.7180 H     1 <1>   0.1500 
 41 H      -10.0550    -2.8170     2.4970 H     1 <1>   0.0800 
 42 H      -10.9630    -4.2970     2.6580 H     1 <1>   0.0800 
 43 H      -11.4710    -3.0820     1.5060 H     1 <1>   0.0800 
@<TRIPOS>BOND
  1   1   2  2   
  2   2   3  am  
  3   2   4  1   
  4   3   5  1   
  5   3  23  1   
  6   4   6  1   
  7   4  24  1   
  8   4  25  1   
  9   5   7  1   
 10   5  26  1   
 11   5  27  1   
 12   6   8  1   
 13   6  28  1   
 14   6  29  1   
 15   7   9  1   
 16   7  30  1   
 17   7  31  1   
 18   8  10  1   
 19   8  32  1   
 20   8  33  1   
 21   9  11  1   
 22  10  12  1   
 23  10  13  2   
 24  11  34  1   
 25  11  35  1   
 26  11  36  1   
 27  12  14  1   
 28  13  15  1   
 29  14  15  2   
 30  15  16  1   
 31  16  17  ar  
 32  16  18  ar  
 33  17  19  ar  
 34  17  37  1   
 35  18  20  ar  
 36  18  38  1   
 37  19  21  ar  
 38  19  22  1   
 39  20  21  ar  
 40  20  39  1   
 41  21  40  1   
 42  22  41  1   
 43  22  42  1   
 44  22  43  1   
@<TRIPOS>SUBSTRUCTURE
  1 ****  10 GROUP 4 **** **** 0

# MOE 2024.06 (io_trps.svl 2023.06)
