@<TRIPOS>MOLECULE
2-(2,5-Dimethyl-benzenesulfonylamino)-4-methylsulfanyl-butyric acid
38 38 1 0 0 
SMALL
USER_CHARGES


@<TRIPOS>ATOM
  1 S       -0.1150     0.2420    -1.4850 S.o2  1 <1>   1.4470 
  2 O        0.7700    -0.5440    -2.3160 O.2   1 <1>  -0.6500 
  3 O       -0.8230     1.3070    -2.1640 O.2   1 <1>  -0.6500 
  4 N        0.8680     1.0810    -0.4150 N.am  1 <1>  -0.9140 
  5 C       -1.2880    -0.7740    -0.5240 C.ar  1 <1>  -0.0090 
  6 C        1.9770     0.2750     0.1800 C.3   1 <1>   0.1700 
  7 C       -2.3590    -0.2420     0.2020 C.ar  1 <1>  -0.1430 
  8 C       -1.1210    -2.1540    -0.5070 C.ar  1 <1>  -0.1500 
  9 C        1.5900    -0.9640     1.0380 C.2   1 <1>   0.9060 
 10 C        2.8890     1.2260     0.9740 C.3   1 <1>  -0.1600 
 11 C       -3.2350    -1.0830     0.8730 C.ar  1 <1>  -0.1500 
 12 C       -2.5940     1.2590     0.2970 C.3   1 <1>  -0.0960 
 13 C       -1.9850    -2.9950     0.1710 C.ar  1 <1>  -0.1440 
 14 O        1.8080    -2.0900     0.5700 O.co2 1 <1>  -0.9000 
 15 O        1.1060    -0.8140     2.1670 O.co2 1 <1>  -0.9000 
 16 C        3.4780     2.3410     0.1070 C.3   1 <1>   0.0700 
 17 C       -3.0540    -2.4530     0.8570 C.ar  1 <1>  -0.1500 
 18 C       -1.7190    -4.4880     0.1720 C.3   1 <1>  -0.0970 
 19 S        4.6760     3.2730     1.0980 S.3   1 <1>  -0.4600 
 20 C        5.2530     4.5520    -0.0470 C.3   1 <1>  -0.0100 
 21 H        1.2840     1.7860    -1.0070 H     1 <1>   0.4200 
 22 H        2.5660    -0.1250    -0.6270 H     1 <1>   0.0800 
 23 H       -0.2750    -2.5800    -1.0220 H     1 <1>   0.1500 
 24 H        3.6920     0.6470     1.3930 H     1 <1>   0.0800 
 25 H        2.3300     1.6450     1.7930 H     1 <1>   0.0800 
 26 H       -4.0610    -0.6750     1.4260 H     1 <1>   0.1500 
 27 H       -1.6820     1.7590     0.5720 H     1 <1>   0.0800 
 28 H       -3.3310     1.4870     1.0450 H     1 <1>   0.0800 
 29 H       -2.9360     1.6420    -0.6470 H     1 <1>   0.0800 
 30 H        2.7230     3.0370    -0.2130 H     1 <1>   0.0800 
 31 H        4.0070     1.9420    -0.7400 H     1 <1>   0.0800 
 32 H       -3.7360    -3.0880     1.3910 H     1 <1>   0.1500 
 33 H       -0.6990    -4.6670     0.4680 H     1 <1>   0.0800 
 34 H       -1.8710    -4.8880    -0.8130 H     1 <1>   0.0800 
 35 H       -2.3680    -4.9940     0.8630 H     1 <1>   0.0800 
 36 H        5.9770     5.1520     0.4730 H     1 <1>   0.0800 
 37 H        4.4040     5.1430    -0.3400 H     1 <1>   0.0800 
 38 H        5.6980     4.0620    -0.8950 H     1 <1>   0.0800 
@<TRIPOS>BOND
  1   1   2  2   
  2   1   3  2   
  3   1   4  am  
  4   1   5  1   
  5   4   6  1   
  6   4  21  1   
  7   5   7  ar  
  8   5   8  ar  
  9   6   9  1   
 10   6  10  1   
 11   6  22  1   
 12   7  11  ar  
 13   7  12  1   
 14   8  13  ar  
 15   8  23  1   
 16   9  14  ar  
 17   9  15  ar  
 18  10  16  1   
 19  10  24  1   
 20  10  25  1   
 21  11  17  ar  
 22  11  26  1   
 23  12  27  1   
 24  12  28  1   
 25  12  29  1   
 26  13  17  ar  
 27  13  18  1   
 28  16  19  1   
 29  16  30  1   
 30  16  31  1   
 31  17  32  1   
 32  18  33  1   
 33  18  34  1   
 34  18  35  1   
 35  19  20  1   
 36  20  36  1   
 37  20  37  1   
 38  20  38  1   
@<TRIPOS>SUBSTRUCTURE
  1 ****   4 GROUP 4 **** **** 0

# MOE 2024.06 (io_trps.svl 2023.06)
