@<TRIPOS>MOLECULE
N-{2-Chloro-4-[4-(furan-2-carbonyl)-piperazine-1-carbonyl]-5-methoxy-phenyl}-ace
48 50 1 0 0 
SMALL
USER_CHARGES


@<TRIPOS>ATOM
  1 CL      -1.1850     0.4550    -2.6100 Cl    1 <1>  -0.1770 
  2 C       -1.0190     1.9090    -1.6450 C.ar  1 <1>   0.1770 
  3 C       -1.8780     2.1090    -0.5670 C.ar  1 <1>   0.1170 
  4 C       -0.0400     2.8150    -1.9840 C.ar  1 <1>  -0.1500 
  5 N       -2.8540     1.1420    -0.2680 N.am  1 <1>  -0.5470 
  6 C       -1.7190     3.2870     0.1550 C.ar  1 <1>  -0.1500 
  7 C        0.1370     3.9870    -1.2490 C.ar  1 <1>   0.0860 
  8 C       -3.6130     0.9290     0.8470 C.2   1 <1>   0.5690 
  9 C       -0.7340     4.2160    -0.1720 C.ar  1 <1>   0.0830 
 10 C        1.1810     4.9100    -1.6390 C.2   1 <1>   0.5440 
 11 O       -3.5470     1.5980     1.8460 O.2   1 <1>  -0.5700 
 12 C       -4.5810    -0.2270     0.8150 C.3   1 <1>  -0.1790 
 13 O       -0.5830     5.3710     0.5240 O.3   1 <1>  -0.3620 
 14 O        1.1910     5.3210    -2.7860 O.2   1 <1>  -0.5700 
 15 N        2.2010     5.3000    -0.7930 N.am  1 <1>  -0.6600 
 16 C       -1.4340     5.7390     1.5890 C.3   1 <1>   0.0400 
 17 C        3.1460     6.4040    -1.1460 C.3   1 <1>   0.1400 
 18 C        2.4540     4.7020     0.5530 C.3   1 <1>   0.1400 
 19 C        4.6120     5.9620    -1.0000 C.3   1 <1>   0.1400 
 20 C        3.9150     4.2460     0.6820 C.3   1 <1>   0.1400 
 21 N        4.8610     5.3540     0.3450 N.am  1 <1>  -0.6600 
 22 C        5.7290     5.8790     1.2840 C.2   1 <1>   0.7150 
 23 O        5.4910     5.6620     2.4600 O.2   1 <1>  -0.5700 
 24 C        6.8920     6.6770     0.9460 C.2   1 <1>   0.0550 
 25 O        7.4540     6.6570    -0.2630 O.3   1 <1>  -0.2800 
 26 C        7.6160     7.5220     1.7330 C.2   1 <1>  -0.1500 
 27 C        8.4940     7.4590    -0.2650 C.2   1 <1>  -0.0100 
 28 C        8.6510     8.0300     0.9470 C.2   1 <1>  -0.1500 
 29 H        0.5980     2.6230    -2.8290 H     1 <1>   0.1500 
 30 H       -2.9700     0.4370    -0.9990 H     1 <1>   0.3700 
 31 H       -2.3820     3.4730     0.9750 H     1 <1>   0.1500 
 32 H       -4.0440    -1.1490     0.7000 H     1 <1>   0.0800 
 33 H       -5.2690    -0.1050     0.0000 H     1 <1>   0.0800 
 34 H       -5.1360    -0.2610     1.7340 H     1 <1>   0.0800 
 35 H       -1.1140     6.6970     1.9570 H     1 <1>   0.0800 
 36 H       -1.3590     5.0040     2.3710 H     1 <1>   0.0800 
 37 H       -2.4440     5.8090     1.2230 H     1 <1>   0.0800 
 38 H        2.9630     7.2380    -0.4920 H     1 <1>   0.0800 
 39 H        2.9810     6.7410    -2.1550 H     1 <1>   0.0800 
 40 H        1.8110     3.8580     0.7230 H     1 <1>   0.0800 
 41 H        2.2430     5.4370     1.3110 H     1 <1>   0.0800 
 42 H        5.2350     6.8230    -1.1550 H     1 <1>   0.0800 
 43 H        4.8430     5.2410    -1.7640 H     1 <1>   0.0800 
 44 H        4.0860     3.4240     0.0090 H     1 <1>   0.0800 
 45 H        4.0880     3.8880     1.6820 H     1 <1>   0.0800 
 46 H        7.4360     7.7560     2.7680 H     1 <1>   0.1500 
 47 H        9.0720     7.5660    -1.1670 H     1 <1>   0.1500 
 48 H        9.4030     8.7280     1.2700 H     1 <1>   0.1500 
@<TRIPOS>BOND
  1   1   2  1   
  2   2   3  ar  
  3   2   4  ar  
  4   3   5  1   
  5   3   6  ar  
  6   4   7  ar  
  7   4  29  1   
  8   5   8  am  
  9   5  30  1   
 10   6   9  ar  
 11   6  31  1   
 12   7   9  ar  
 13   7  10  1   
 14   8  11  2   
 15   8  12  1   
 16   9  13  1   
 17  10  14  2   
 18  10  15  am  
 19  12  32  1   
 20  12  33  1   
 21  12  34  1   
 22  13  16  1   
 23  15  17  1   
 24  15  18  1   
 25  16  35  1   
 26  16  36  1   
 27  16  37  1   
 28  17  19  1   
 29  17  38  1   
 30  17  39  1   
 31  18  20  1   
 32  18  40  1   
 33  18  41  1   
 34  19  21  1   
 35  19  42  1   
 36  19  43  1   
 37  20  21  1   
 38  20  44  1   
 39  20  45  1   
 40  21  22  am  
 41  22  23  2   
 42  22  24  1   
 43  24  25  1   
 44  24  26  2   
 45  25  27  1   
 46  26  28  1   
 47  26  46  1   
 48  27  28  2   
 49  27  47  1   
 50  28  48  1   
@<TRIPOS>SUBSTRUCTURE
  1 ****  18 GROUP 4 **** **** 0

# MOE 2024.06 (io_trps.svl 2023.06)
