@<TRIPOS>MOLECULE
3-[3-(4-Ethoxy-3-methoxy-phenyl)-[1,2,4]oxadiazol-5-yl]-N-methyl-propionamide
41 42 1 0 0 
SMALL
USER_CHARGES


@<TRIPOS>ATOM
  1 O        0.5340    -0.8110     1.0140 O.2   1 <1>  -0.5700 
  2 C        0.7420    -1.6540     0.1800 C.2   1 <1>   0.5690 
  3 N        1.7250    -1.4600    -0.7290 N.am  1 <1>  -0.7300 
  4 C       -0.0920    -2.9220     0.1590 C.3   1 <1>  -0.0990 
  5 C        2.1860    -2.3420    -1.8320 C.3   1 <1>   0.0600 
  6 C       -1.2210    -2.9200     1.2020 C.3   1 <1>   0.0200 
  7 C       -2.0230    -4.2040     1.1380 C.2   1 <1>   0.2980 
  8 O       -1.4680    -5.3130     1.5490 O.3   1 <1>  -0.0190 
  9 N       -3.2100    -4.3150     0.7070 N.2   1 <1>  -0.5650 
 10 N       -2.3830    -6.2120     1.3610 N.2   1 <1>  -0.4100 
 11 C       -3.4170    -5.6270     0.8660 C.2   1 <1>   0.4620 
 12 C       -4.6690    -6.2750     0.5100 C.ar  1 <1>   0.0540 
 13 C       -4.8410    -7.6510     0.6680 C.ar  1 <1>  -0.1500 
 14 C       -5.7480    -5.5530    -0.0040 C.ar  1 <1>  -0.1500 
 15 C       -6.0310    -8.2870     0.3310 C.ar  1 <1>   0.0820 
 16 C       -6.9390    -6.1670    -0.3440 C.ar  1 <1>  -0.1500 
 17 O       -6.2100    -9.6320     0.4820 O.3   1 <1>  -0.3630 
 18 C       -7.0940    -7.5390    -0.1810 C.ar  1 <1>   0.0820 
 19 C       -5.1970   -10.4670     0.9960 C.3   1 <1>   0.0400 
 20 O       -8.2470    -8.1920    -0.5010 O.3   1 <1>  -0.3630 
 21 C       -9.3670    -7.5170    -1.0230 C.3   1 <1>   0.1200 
 22 C      -10.4660    -8.5470    -1.2640 C.3   1 <1>  -0.2400 
 23 H        2.2240    -0.5710    -0.6300 H     1 <1>   0.3700 
 24 H        0.5590    -3.7570     0.3410 H     1 <1>   0.0800 
 25 H       -0.5240    -3.0320    -0.8190 H     1 <1>   0.0800 
 26 H        1.6430    -3.2710    -1.8390 H     1 <1>   0.0800 
 27 H        3.2340    -2.5560    -1.7090 H     1 <1>   0.0800 
 28 H        2.0390    -1.8460    -2.7760 H     1 <1>   0.0800 
 29 H       -1.8770    -2.0870     1.0200 H     1 <1>   0.0800 
 30 H       -0.8120    -2.8120     2.1910 H     1 <1>   0.0800 
 31 H       -4.0180    -8.2140     1.0620 H     1 <1>   0.1500 
 32 H       -5.6520    -4.4890    -0.1390 H     1 <1>   0.1500 
 33 H       -7.7310    -5.5580    -0.7340 H     1 <1>   0.1500 
 34 H       -5.5760   -11.4720     1.0190 H     1 <1>   0.0800 
 35 H       -4.9520   -10.1450     1.9930 H     1 <1>   0.0800 
 36 H       -4.3400   -10.4140     0.3490 H     1 <1>   0.0800 
 37 H       -9.0790    -7.0450    -1.9470 H     1 <1>   0.0800 
 38 H       -9.6850    -6.7810    -0.3060 H     1 <1>   0.0800 
 39 H      -10.1290    -9.2880    -1.9660 H     1 <1>   0.0800 
 40 H      -11.3390    -8.0640    -1.6640 H     1 <1>   0.0800 
 41 H      -10.7300    -9.0250    -0.3380 H     1 <1>   0.0800 
@<TRIPOS>BOND
  1   1   2  2   
  2   2   3  am  
  3   2   4  1   
  4   3   5  1   
  5   3  23  1   
  6   4   6  1   
  7   4  24  1   
  8   4  25  1   
  9   5  26  1   
 10   5  27  1   
 11   5  28  1   
 12   6   7  1   
 13   6  29  1   
 14   6  30  1   
 15   7   8  1   
 16   7   9  2   
 17   8  10  1   
 18   9  11  1   
 19  10  11  2   
 20  11  12  1   
 21  12  13  ar  
 22  12  14  ar  
 23  13  15  ar  
 24  13  31  1   
 25  14  16  ar  
 26  14  32  1   
 27  15  17  1   
 28  15  18  ar  
 29  16  18  ar  
 30  16  33  1   
 31  17  19  1   
 32  18  20  1   
 33  19  34  1   
 34  19  35  1   
 35  19  36  1   
 36  20  21  1   
 37  21  22  1   
 38  21  37  1   
 39  21  38  1   
 40  22  39  1   
 41  22  40  1   
 42  22  41  1   
@<TRIPOS>SUBSTRUCTURE
  1 ****  11 GROUP 4 **** **** 0

# MOE 2024.06 (io_trps.svl 2023.06)
