@<TRIPOS>MOLECULE
N-Benzyl-2-chloro-N-isopropyl-acetamide
31 31 1 0 0 
SMALL
USER_CHARGES


@<TRIPOS>ATOM
  1 CL      -0.5650    -0.4630    -0.4800 Cl    1 <1>  -0.2900 
  2 C       -1.4610    -1.2360     0.8290 C.3   1 <1>   0.1910 
  3 C       -1.6640    -2.7220     0.5510 C.2   1 <1>   0.5690 
  4 O       -1.0010    -3.4820     1.2200 O.2   1 <1>  -0.5700 
  5 N       -2.5750    -3.1810    -0.3760 N.am  1 <1>  -0.6600 
  6 C       -3.4240    -2.2590    -1.1970 C.3   1 <1>   0.2200 
  7 C       -2.7360    -4.6650    -0.5560 C.3   1 <1>   0.2840 
  8 C       -4.7860    -2.0590    -0.5340 C.3   1 <1>  -0.2400 
  9 C       -3.5740    -2.7290    -2.6450 C.3   1 <1>  -0.2400 
 10 C       -4.0210    -5.1710     0.0850 C.ar  1 <1>  -0.1440 
 11 C       -5.0200    -5.7470    -0.6870 C.ar  1 <1>  -0.1500 
 12 C       -4.1990    -5.0670     1.4560 C.ar  1 <1>  -0.1500 
 13 C       -6.1860    -6.2040    -0.0960 C.ar  1 <1>  -0.1500 
 14 C       -5.3640    -5.5230     2.0490 C.ar  1 <1>  -0.1500 
 15 C       -6.3590    -6.0910     1.2720 C.ar  1 <1>  -0.1500 
 16 H       -2.4020    -0.7320     0.9310 H     1 <1>   0.0800 
 17 H       -0.8860    -1.1060     1.7260 H     1 <1>   0.0800 
 18 H       -2.9470    -1.2970    -1.2470 H     1 <1>   0.0800 
 19 H       -1.9110    -5.1890    -0.1060 H     1 <1>   0.0800 
 20 H       -2.7120    -4.9170    -1.5990 H     1 <1>   0.0800 
 21 H       -5.3280    -1.2830    -1.0440 H     1 <1>   0.0800 
 22 H       -5.3750    -2.9550    -0.5770 H     1 <1>   0.0800 
 23 H       -4.6660    -1.7690     0.4930 H     1 <1>   0.0800 
 24 H       -4.1820    -3.6120    -2.7100 H     1 <1>   0.0800 
 25 H       -4.0520    -1.9590    -3.2230 H     1 <1>   0.0800 
 26 H       -2.6060    -2.9170    -3.0760 H     1 <1>   0.0800 
 27 H       -4.8980    -5.8430    -1.7510 H     1 <1>   0.1500 
 28 H       -3.4260    -4.6290     2.0640 H     1 <1>   0.1500 
 29 H       -6.9580    -6.6470    -0.7000 H     1 <1>   0.1500 
 30 H       -5.4940    -5.4370     3.1130 H     1 <1>   0.1500 
 31 H       -7.2640    -6.4460     1.7320 H     1 <1>   0.1500 
@<TRIPOS>BOND
  1   1   2  1   
  2   2   3  1   
  3   2  16  1   
  4   2  17  1   
  5   3   4  2   
  6   3   5  am  
  7   5   6  1   
  8   5   7  1   
  9   6   8  1   
 10   6   9  1   
 11   6  18  1   
 12   7  10  1   
 13   7  19  1   
 14   7  20  1   
 15   8  21  1   
 16   8  22  1   
 17   8  23  1   
 18   9  24  1   
 19   9  25  1   
 20   9  26  1   
 21  10  11  ar  
 22  10  12  ar  
 23  11  13  ar  
 24  11  27  1   
 25  12  14  ar  
 26  12  28  1   
 27  13  15  ar  
 28  13  29  1   
 29  14  15  ar  
 30  14  30  1   
 31  15  31  1   
@<TRIPOS>SUBSTRUCTURE
  1 ****   5 GROUP 4 **** **** 0

# MOE 2024.06 (io_trps.svl 2023.06)
