@<TRIPOS>MOLECULE
N-[1-(3-o-Tolyl-[1,2,4]oxadiazol-5-yl)-ethyl]-propionamide
36 37 1 0 0 
SMALL
USER_CHARGES


@<TRIPOS>ATOM
  1 O       -2.1850     0.3130    -1.8860 O.2   1 <1>  -0.5700 
  2 C       -2.5030    -0.0450    -0.7820 C.2   1 <1>   0.5690 
  3 N       -3.8140    -0.2030    -0.5000 N.am  1 <1>  -0.7300 
  4 C       -1.4400    -0.3150     0.2800 C.3   1 <1>  -0.0990 
  5 C       -4.4550    -0.6680     0.7470 C.3   1 <1>   0.4000 
  6 C        0.0100    -0.1770    -0.2170 C.3   1 <1>  -0.2400 
  7 C       -4.8160    -2.1540     0.6510 C.2   1 <1>   0.2980 
  8 C       -5.6680     0.2290     0.9970 C.3   1 <1>  -0.2400 
  9 O       -3.8420    -3.0190     0.7700 O.3   1 <1>  -0.0190 
 10 N       -5.9690    -2.6610     0.4700 N.2   1 <1>  -0.5650 
 11 N       -4.4230    -4.1710     0.6610 N.2   1 <1>  -0.4100 
 12 C       -5.6780    -3.9650     0.4740 C.2   1 <1>   0.4620 
 13 C       -6.6790    -5.0050     0.3160 C.ar  1 <1>   0.0540 
 14 C       -7.6460    -5.0100    -0.7000 C.ar  1 <1>  -0.1440 
 15 C       -6.6850    -6.0680     1.2200 C.ar  1 <1>  -0.1500 
 16 C       -8.5780    -6.0340    -0.7750 C.ar  1 <1>  -0.1500 
 17 C       -7.7010    -3.9100    -1.7530 C.3   1 <1>  -0.0970 
 18 C       -7.6130    -7.0880     1.1400 C.ar  1 <1>  -0.1500 
 19 C       -8.5660    -7.0710     0.1400 C.ar  1 <1>  -0.1500 
 20 H       -4.4490    -0.0670    -1.2880 H     1 <1>   0.3700 
 21 H       -1.5770    -1.3140     0.6520 H     1 <1>   0.0800 
 22 H       -1.5910     0.3730     1.0910 H     1 <1>   0.0800 
 23 H       -3.7730    -0.5460     1.5700 H     1 <1>   0.0800 
 24 H        0.1920    -0.8670    -1.0230 H     1 <1>   0.0800 
 25 H        0.7010    -0.3850     0.5800 H     1 <1>   0.0800 
 26 H        0.1860     0.8220    -0.5770 H     1 <1>   0.0800 
 27 H       -6.3780     0.1360     0.1940 H     1 <1>   0.0800 
 28 H       -5.3610     1.2550     1.0880 H     1 <1>   0.0800 
 29 H       -6.1530    -0.0650     1.9100 H     1 <1>   0.0800 
 30 H       -5.9460    -6.0910     2.0020 H     1 <1>   0.1500 
 31 H       -9.3230    -6.0350    -1.5510 H     1 <1>   0.1500 
 32 H       -6.7180    -3.7170    -2.1440 H     1 <1>   0.0800 
 33 H       -8.0860    -3.0050    -1.3170 H     1 <1>   0.0800 
 34 H       -8.3370    -4.1890    -2.5730 H     1 <1>   0.0800 
 35 H       -7.5950    -7.8940     1.8530 H     1 <1>   0.1500 
 36 H       -9.2940    -7.8610     0.0720 H     1 <1>   0.1500 
@<TRIPOS>BOND
  1   1   2  2   
  2   2   3  am  
  3   2   4  1   
  4   3   5  1   
  5   3  20  1   
  6   4   6  1   
  7   4  21  1   
  8   4  22  1   
  9   5   7  1   
 10   5   8  1   
 11   5  23  1   
 12   6  24  1   
 13   6  25  1   
 14   6  26  1   
 15   7   9  1   
 16   7  10  2   
 17   8  27  1   
 18   8  28  1   
 19   8  29  1   
 20   9  11  1   
 21  10  12  1   
 22  11  12  2   
 23  12  13  1   
 24  13  14  ar  
 25  13  15  ar  
 26  14  16  ar  
 27  14  17  1   
 28  15  18  ar  
 29  15  30  1   
 30  16  19  ar  
 31  16  31  1   
 32  17  32  1   
 33  17  33  1   
 34  17  34  1   
 35  18  19  ar  
 36  18  35  1   
 37  19  36  1   
@<TRIPOS>SUBSTRUCTURE
  1 ****  10 GROUP 4 **** **** 0

# MOE 2024.06 (io_trps.svl 2023.06)
