@<TRIPOS>MOLECULE
2-[2-(Methanesulfonyl-methyl-amino)-benzoylamino]-4,5,6,7-tetrahydro-benzo[b]thi
50 52 1 0 0 
SMALL
USER_CHARGES


@<TRIPOS>ATOM
  1 S        0.1900     0.0930     0.1440 S.o2  1 <1>   1.3330 
  2 O       -0.5680     0.6870     1.2180 O.2   1 <1>  -0.6500 
  3 O        0.7210    -1.2450     0.2330 O.2   1 <1>  -0.6500 
  4 N        1.4980     1.1580    -0.2790 N.am  1 <1>  -0.6930 
  5 C       -0.8130     0.1620    -1.3240 C.3   1 <1>  -0.1350 
  6 C        1.6020     2.4470     0.2620 C.ar  1 <1>   0.1990 
  7 C        2.6470     0.5140    -0.9710 C.3   1 <1>   0.1160 
  8 C        2.7170     2.9100     0.9930 C.ar  1 <1>   0.0860 
  9 C        0.5410     3.3300     0.0520 C.ar  1 <1>  -0.1500 
 10 C        3.8750     2.0970     1.2600 C.2   1 <1>   0.5440 
 11 C        2.7110     4.2230     1.4710 C.ar  1 <1>  -0.1500 
 12 C        0.5570     4.6230     0.5310 C.ar  1 <1>  -0.1500 
 13 O        3.8050     1.1100     1.9630 O.2   1 <1>  -0.5700 
 14 N        5.0810     2.4890     0.7160 N.am  1 <1>  -0.4940 
 15 C        1.6510     5.0740     1.2450 C.ar  1 <1>  -0.1500 
 16 C        6.3050     1.8560     0.5630 C.2   1 <1>   0.1040 
 17 S        6.4410     0.1260     0.8390 S.3   1 <1>  -0.0800 
 18 C        7.5090     2.3930     0.1800 C.2   1 <1>  -0.0860 
 19 C        8.1410     0.1480     0.4320 C.2   1 <1>  -0.1400 
 20 C        8.5450     1.3820     0.0960 C.2   1 <1>  -0.1810 
 21 C        7.6760     3.7990    -0.0870 C.2   1 <1>   0.8060 
 22 C        8.9410    -1.1350     0.4870 C.3   1 <1>   0.0200 
 23 C        9.9920     1.6170    -0.3290 C.3   1 <1>   0.0210 
 24 O        6.7330     4.5650    -0.2000 O.2   1 <1>  -0.5700 
 25 O        8.9110     4.3070    -0.2060 O.3   1 <1>  -0.4300 
 26 C       10.4390    -0.7960     0.4100 C.3   1 <1>  -0.1600 
 27 C       10.7210     0.2940    -0.6420 C.3   1 <1>  -0.1600 
 28 C        9.1380     5.6810    -0.4530 C.3   1 <1>   0.0400 
 29 H       -1.6640    -0.4810    -1.2120 H     1 <1>   0.0800 
 30 H       -0.2480    -0.1630    -2.1750 H     1 <1>   0.0800 
 31 H       -1.1600     1.1600    -1.4980 H     1 <1>   0.0800 
 32 H        2.2960    -0.0650    -1.8070 H     1 <1>   0.0800 
 33 H        3.1570    -0.1460    -0.2880 H     1 <1>   0.0800 
 34 H        3.3380     1.2560    -1.3300 H     1 <1>   0.0800 
 35 H       -0.3180     2.9980    -0.4960 H     1 <1>   0.1500 
 36 H        3.5550     4.5780     2.0390 H     1 <1>   0.1500 
 37 H       -0.2780     5.2790     0.3540 H     1 <1>   0.1500 
 38 H        5.0810     3.4520     0.3640 H     1 <1>   0.3700 
 39 H        1.6680     6.0820     1.6260 H     1 <1>   0.1500 
 40 H        8.6570    -1.7580    -0.3420 H     1 <1>   0.0800 
 41 H        8.7310    -1.6630     1.4010 H     1 <1>   0.0800 
 42 H       10.5050     2.1310     0.4650 H     1 <1>   0.0800 
 43 H       10.0230     2.2360    -1.2080 H     1 <1>   0.0800 
 44 H       10.9970    -1.6860     0.1800 H     1 <1>   0.0800 
 45 H       10.7650    -0.4410     1.3730 H     1 <1>   0.0800 
 46 H       11.7790     0.4770    -0.7030 H     1 <1>   0.0800 
 47 H       10.3930    -0.0620    -1.6040 H     1 <1>   0.0800 
 48 H       10.1990     5.8470    -0.5100 H     1 <1>   0.0800 
 49 H        8.7160     6.2550     0.3540 H     1 <1>   0.0800 
 50 H        8.6710     5.9510    -1.3850 H     1 <1>   0.0800 
@<TRIPOS>BOND
  1   1   2  2   
  2   1   3  2   
  3   1   4  am  
  4   1   5  1   
  5   4   6  1   
  6   4   7  1   
  7   5  29  1   
  8   5  30  1   
  9   5  31  1   
 10   6   8  ar  
 11   6   9  ar  
 12   7  32  1   
 13   7  33  1   
 14   7  34  1   
 15   8  10  1   
 16   8  11  ar  
 17   9  12  ar  
 18   9  35  1   
 19  10  13  2   
 20  10  14  am  
 21  11  15  ar  
 22  11  36  1   
 23  12  15  ar  
 24  12  37  1   
 25  14  16  1   
 26  14  38  1   
 27  15  39  1   
 28  16  17  1   
 29  16  18  2   
 30  17  19  1   
 31  18  20  1   
 32  18  21  1   
 33  19  20  2   
 34  19  22  1   
 35  20  23  1   
 36  21  24  2   
 37  21  25  1   
 38  22  26  1   
 39  22  40  1   
 40  22  41  1   
 41  23  27  1   
 42  23  42  1   
 43  23  43  1   
 44  25  28  1   
 45  26  27  1   
 46  26  44  1   
 47  26  45  1   
 48  27  46  1   
 49  27  47  1   
 50  28  48  1   
 51  28  49  1   
 52  28  50  1   
@<TRIPOS>SUBSTRUCTURE
  1 ****  14 GROUP 4 **** **** 0

# MOE 2024.06 (io_trps.svl 2023.06)
