@<TRIPOS>MOLECULE
3-(2-Ethoxy-ethyl)-1-methyl-8-o-tolyl-5,6,7,8-tetrahydro-1H-1,3,4b,8,9-pentaaza-
54 57 1 0 0 
SMALL
USER_CHARGES


@<TRIPOS>ATOM
  1 O        1.2890     0.7090    -1.8050 O.2   1 <1>  -0.5740 
  2 C        2.1940     1.3010    -1.2550 C.2   1 <1>   0.6870 
  3 N        2.0430     2.6390    -0.9080 N.am  1 <1>  -0.4250 
  4 N        3.3790     0.6340    -0.9670 N.am  1 <1>  -0.4410 
  5 C        3.0460     3.3270    -0.2400 C.2   1 <1>   0.7000 
  6 C        0.7760     3.3500    -1.2750 C.3   1 <1>   0.1330 
  7 C        4.3880     1.3410    -0.3420 C.2   1 <1>   0.4210 
  8 C        3.5640    -0.8000    -1.3420 C.3   1 <1>   0.0530 
  9 O        2.8910     4.4820     0.1170 O.2   1 <1>  -0.5740 
 10 C        4.2700     2.6360     0.0270 C.2   1 <1>   0.2710 
 11 C       -0.3060     3.1070    -0.2230 C.3   1 <1>   0.1130 
 12 N        5.6280     0.9000     0.0080 N.pl3 1 <1>  -0.7030 
 13 N        5.4910     2.9830     0.6240 N.pl3 1 <1>  -0.7670 
 14 O       -1.4270     3.8420    -0.5860 O.3   1 <1>  -0.5640 
 15 C        6.2700     1.9100     0.5910 C.cat 1 <1>   1.0690 
 16 C        5.8810     4.2880     1.1960 C.3   1 <1>   0.3490 
 17 C       -2.5080     3.6800     0.2680 C.3   1 <1>   0.1130 
 18 N        7.5190     1.8890     1.0880 N.pl3 1 <1>  -0.5790 
 19 C        7.4120     4.3690     1.2290 C.3   1 <1>  -0.1670 
 20 C       -3.6450     4.5440    -0.2610 C.3   1 <1>  -0.2460 
 21 C        8.3360     0.7560     1.0160 C.ar  1 <1>   0.3050 
 22 C        8.0560     3.0890     1.7850 C.3   1 <1>   0.1610 
 23 C        9.0210     0.4300    -0.1560 C.ar  1 <1>  -0.1500 
 24 C        8.4400    -0.0740     2.1250 C.ar  1 <1>  -0.1570 
 25 C        9.7800    -0.7290    -0.1990 C.ar  1 <1>  -0.1570 
 26 C        8.9710     1.3190    -1.3960 C.3   1 <1>  -0.1040 
 27 C        9.2010    -1.2270     2.0730 C.ar  1 <1>  -0.1570 
 28 C        9.8680    -1.5540     0.9070 C.ar  1 <1>  -0.1570 
 29 H        0.4250     2.9960    -2.2290 H     1 <1>   0.0730 
 30 H        0.9540     4.4080    -1.3600 H     1 <1>   0.0730 
 31 H        2.6110    -1.2860    -1.4680 H     1 <1>   0.0730 
 32 H        4.1030    -1.3220    -0.5720 H     1 <1>   0.0730 
 33 H        4.1070    -0.8660    -2.2690 H     1 <1>   0.0730 
 34 H        0.0220     3.4460     0.7450 H     1 <1>   0.0730 
 35 H       -0.5750     2.0650    -0.1920 H     1 <1>   0.0730 
 36 H        6.0360    -0.0220    -0.1330 H     1 <1>   0.4450 
 37 H        5.4810     4.3700     2.1940 H     1 <1>   0.0730 
 38 H        5.4800     5.0910     0.6000 H     1 <1>   0.0730 
 39 H       -2.2220     3.9940     1.2580 H     1 <1>   0.0730 
 40 H       -2.7930     2.6410     0.2760 H     1 <1>   0.0730 
 41 H        7.7090     5.2100     1.8310 H     1 <1>   0.0730 
 42 H        7.7790     4.5490     0.2340 H     1 <1>   0.0730 
 43 H       -3.3460     5.5760    -0.2780 H     1 <1>   0.0730 
 44 H       -4.5040     4.4450     0.3770 H     1 <1>   0.0730 
 45 H       -3.9150     4.2310    -1.2530 H     1 <1>   0.0730 
 46 H        9.1250     3.1370     1.6520 H     1 <1>   0.0730 
 47 H        7.8530     3.0020     2.8390 H     1 <1>   0.0730 
 48 H        7.9250     0.1760     3.0340 H     1 <1>   0.1430 
 49 H       10.3170    -1.0000    -1.0930 H     1 <1>   0.1430 
 50 H        9.1590     2.3440    -1.1320 H     1 <1>   0.0730 
 51 H        8.0110     1.2480    -1.8730 H     1 <1>   0.0730 
 52 H        9.7220     1.0220    -2.1080 H     1 <1>   0.0730 
 53 H        9.2810    -1.8690     2.9350 H     1 <1>   0.1430 
 54 H       10.4630    -2.4520     0.8630 H     1 <1>   0.1430 
@<TRIPOS>BOND
  1   1   2  2   
  2   2   3  am  
  3   2   4  am  
  4   3   5  am  
  5   3   6  1   
  6   4   7  1   
  7   4   8  1   
  8   5   9  2   
  9   5  10  1   
 10   6  11  1   
 11   6  29  1   
 12   6  30  1   
 13   7  10  2   
 14   7  12  1   
 15   8  31  1   
 16   8  32  1   
 17   8  33  1   
 18  10  13  1   
 19  11  14  1   
 20  11  34  1   
 21  11  35  1   
 22  12  15  ar  
 23  12  36  1   
 24  13  15  ar  
 25  13  16  1   
 26  14  17  1   
 27  15  18  ar  
 28  16  19  1   
 29  16  37  1   
 30  16  38  1   
 31  17  20  1   
 32  17  39  1   
 33  17  40  1   
 34  18  21  1   
 35  18  22  1   
 36  19  22  1   
 37  19  41  1   
 38  19  42  1   
 39  20  43  1   
 40  20  44  1   
 41  20  45  1   
 42  21  23  ar  
 43  21  24  ar  
 44  22  46  1   
 45  22  47  1   
 46  23  25  ar  
 47  23  26  1   
 48  24  27  ar  
 49  24  48  1   
 50  25  28  ar  
 51  25  49  1   
 52  26  50  1   
 53  26  51  1   
 54  26  52  1   
 55  27  28  ar  
 56  27  53  1   
 57  28  54  1   
@<TRIPOS>SUBSTRUCTURE
  1 ****   7 GROUP 4 **** **** 0

# MOE 2024.06 (io_trps.svl 2023.06)
