@<TRIPOS>MOLECULE
1-(2-Cyano-ethyl)-3-(4-methoxy-phenyl)-1H-pyrazole-4-carboxylic acid diethylamid
46 47 1 0 0 
SMALL
USER_CHARGES


@<TRIPOS>ATOM
  1 O        0.8670    -0.2330     1.6620 O.2   1 <1>  -0.5700 
  2 C        1.2680    -1.0440     0.8480 C.2   1 <1>   0.7160 
  3 N        2.3770    -0.7410     0.0780 N.am  1 <1>  -0.6600 
  4 C        0.5800    -2.3000     0.7050 C.2   1 <1>  -0.0860 
  5 C        2.7370    -1.5080    -1.1450 C.3   1 <1>   0.1400 
  6 C        3.1290     0.5250     0.2990 C.3   1 <1>   0.1400 
  7 C       -0.7540    -2.4780     0.2990 C.2   1 <1>   0.2350 
  8 C        1.0300    -3.5630     0.9330 C.2   1 <1>  -0.3020 
  9 C        4.0140    -2.3090    -0.9090 C.3   1 <1>  -0.2400 
 10 C        4.0940     0.3580     1.4710 C.3   1 <1>  -0.2400 
 11 N       -1.0770    -3.7480     0.2950 N.2   1 <1>  -0.7070 
 12 C       -1.6830    -1.4340    -0.0850 C.ar  1 <1>   0.0540 
 13 N        0.0210    -4.4040     0.6870 N.pl3 1 <1>   0.3140 
 14 C       -3.0110    -1.4850     0.3350 C.ar  1 <1>  -0.1500 
 15 C       -1.3070    -0.3580    -0.8900 C.ar  1 <1>  -0.1500 
 16 C        0.0410    -5.8720     0.8170 C.3   1 <1>   0.0960 
 17 C       -3.9260    -0.5100    -0.0190 C.ar  1 <1>  -0.1500 
 18 C       -2.2140     0.6220    -1.2480 C.ar  1 <1>  -0.1500 
 19 C       -0.5140    -6.5310    -0.4490 C.3   1 <1>   0.0400 
 20 C       -3.5280     0.5580    -0.8180 C.ar  1 <1>   0.0830 
 21 C       -0.3880    -8.0060    -0.3420 C.1   1 <1>   0.3570 
 22 O       -4.3550     1.5570    -1.2140 O.3   1 <1>  -0.3630 
 23 N       -0.2660    -9.1300    -0.2320 N.1   1 <1>  -0.5570 
 24 C       -5.7020     1.5960    -0.8020 C.3   1 <1>   0.0400 
 25 H        2.8780    -0.8270    -1.9680 H     1 <1>   0.0800 
 26 H        1.9390    -2.1780    -1.4180 H     1 <1>   0.0800 
 27 H        2.4360     1.3230     0.5140 H     1 <1>   0.0800 
 28 H        3.6750     0.7920    -0.5890 H     1 <1>   0.0800 
 29 H        2.0020    -3.8760     1.2650 H     1 <1>   0.1500 
 30 H        4.8510    -1.6510    -0.7660 H     1 <1>   0.0800 
 31 H        4.2160    -2.9260    -1.7660 H     1 <1>   0.0800 
 32 H        3.9050    -2.9430    -0.0480 H     1 <1>   0.0800 
 33 H        3.5470     0.1390     2.3710 H     1 <1>   0.0800 
 34 H        4.6390     1.2720     1.6220 H     1 <1>   0.0800 
 35 H        4.7950    -0.4320     1.2800 H     1 <1>   0.0800 
 36 H       -3.3220    -2.3110     0.9510 H     1 <1>   0.1500 
 37 H       -0.2960    -0.2850    -1.2430 H     1 <1>   0.1500 
 38 H       -0.5570    -6.1420     1.6680 H     1 <1>   0.0800 
 39 H        1.0540    -6.1880     0.9880 H     1 <1>   0.0800 
 40 H       -4.9350    -0.5970     0.3340 H     1 <1>   0.1500 
 41 H       -1.9080     1.4470    -1.8660 H     1 <1>   0.1500 
 42 H        0.0330    -6.1990    -1.3120 H     1 <1>   0.0800 
 43 H       -1.5530    -6.2820    -0.5740 H     1 <1>   0.0800 
 44 H       -6.1550     2.4750    -1.2230 H     1 <1>   0.0800 
 45 H       -5.7360     1.6440     0.2720 H     1 <1>   0.0800 
 46 H       -6.2030     0.7160    -1.1650 H     1 <1>   0.0800 
@<TRIPOS>BOND
  1   1   2  2   
  2   2   3  am  
  3   2   4  1   
  4   3   5  1   
  5   3   6  1   
  6   4   7  1   
  7   4   8  2   
  8   5   9  1   
  9   5  25  1   
 10   5  26  1   
 11   6  10  1   
 12   6  27  1   
 13   6  28  1   
 14   7  11  2   
 15   7  12  1   
 16   8  13  1   
 17   8  29  1   
 18   9  30  1   
 19   9  31  1   
 20   9  32  1   
 21  10  33  1   
 22  10  34  1   
 23  10  35  1   
 24  11  13  1   
 25  12  14  ar  
 26  12  15  ar  
 27  13  16  1   
 28  14  17  ar  
 29  14  36  1   
 30  15  18  ar  
 31  15  37  1   
 32  16  19  1   
 33  16  38  1   
 34  16  39  1   
 35  17  20  ar  
 36  17  40  1   
 37  18  20  ar  
 38  18  41  1   
 39  19  21  1   
 40  19  42  1   
 41  19  43  1   
 42  20  22  1   
 43  21  23  3   
 44  22  24  1   
 45  24  44  1   
 46  24  45  1   
 47  24  46  1   
@<TRIPOS>SUBSTRUCTURE
  1 ****   7 GROUP 4 **** **** 0

# MOE 2024.06 (io_trps.svl 2023.06)
