@<TRIPOS>MOLECULE
1-(5-Chloro-2-ethoxy-benzenesulfonyl)-piperidine-4-carboxylic acid (tetrahydro-f
55 57 1 0 0 
SMALL
USER_CHARGES


@<TRIPOS>ATOM
  1 CL       2.4400     0.3190     1.6090 Cl    1 <1>  -0.1770 
  2 C        1.9070     1.9690     1.4120 C.ar  1 <1>   0.1770 
  3 C        2.2590     2.6630     0.2710 C.ar  1 <1>  -0.1500 
  4 C        1.1430     2.5530     2.4020 C.ar  1 <1>  -0.1500 
  5 C        1.8460     3.9780     0.0810 C.ar  1 <1>  -0.0090 
  6 C        0.7300     3.8620     2.2390 C.ar  1 <1>  -0.1500 
  7 S        2.3280     4.8670    -1.4270 S.o2  1 <1>   1.4470 
  8 C        1.0800     4.5630     1.0910 C.ar  1 <1>   0.0830 
  9 O        2.6380     3.8730    -2.4320 O.2   1 <1>  -0.6500 
 10 O        1.3970     5.9140    -1.7900 O.2   1 <1>  -0.6500 
 11 N        3.7990     5.6210    -1.0330 N.am  1 <1>  -0.8490 
 12 O        0.6850     5.8460     0.9910 O.3   1 <1>  -0.3630 
 13 C        3.6120     6.7480    -0.1120 C.3   1 <1>   0.1960 
 14 C        4.5060     6.0420    -2.2470 C.3   1 <1>   0.1960 
 15 C       -0.6650     6.0750     0.6600 C.3   1 <1>   0.1200 
 16 C        4.9670     7.3150     0.3180 C.3   1 <1>  -0.1600 
 17 C        5.8940     6.5820    -1.8960 C.3   1 <1>  -0.1600 
 18 C       -0.8520     7.5770     0.4690 C.3   1 <1>  -0.2400 
 19 C        5.8000     7.7490    -0.8990 C.3   1 <1>  -0.0190 
 20 C        7.1740     8.2780    -0.4980 C.2   1 <1>   0.5690 
 21 O        7.4520     9.4260    -0.7440 O.2   1 <1>  -0.5700 
 22 N        8.0500     7.4480     0.1210 N.am  1 <1>  -0.7300 
 23 C        9.4320     7.7880     0.5320 C.3   1 <1>   0.1400 
 24 C       10.3960     6.6620     0.1300 C.3   1 <1>   0.2000 
 25 O        9.9040     5.4280     0.5550 O.3   1 <1>  -0.5600 
 26 C       11.7740     6.7610     0.7660 C.3   1 <1>  -0.1600 
 27 C       10.9420     4.5090     0.7030 C.3   1 <1>   0.1200 
 28 C       12.2380     5.3150     0.7680 C.3   1 <1>  -0.1600 
 29 H        2.8580     2.1720    -0.4760 H     1 <1>   0.1500 
 30 H        0.8820     1.9930     3.2830 H     1 <1>   0.1500 
 31 H        0.1450     4.3450     3.0010 H     1 <1>   0.1500 
 32 H        3.0940     6.4180     0.7700 H     1 <1>   0.0800 
 33 H        3.0200     7.5180    -0.5820 H     1 <1>   0.0800 
 34 H        3.9310     6.7960    -2.7620 H     1 <1>   0.0800 
 35 H        4.6280     5.2030    -2.9110 H     1 <1>   0.0800 
 36 H       -1.2850     5.7070     1.4590 H     1 <1>   0.0800 
 37 H       -0.8890     5.5470    -0.2520 H     1 <1>   0.0800 
 38 H        5.4910     6.5630     0.8810 H     1 <1>   0.0800 
 39 H        4.8100     8.1600     0.9640 H     1 <1>   0.0800 
 40 H        6.3830     6.9160    -2.7940 H     1 <1>   0.0800 
 41 H        6.4790     5.7800    -1.4820 H     1 <1>   0.0800 
 42 H       -0.6050     8.1010     1.3740 H     1 <1>   0.0800 
 43 H       -1.8760     7.7860     0.2180 H     1 <1>   0.0800 
 44 H       -0.2260     7.9230    -0.3340 H     1 <1>   0.0800 
 45 H        5.2790     8.5560    -1.3840 H     1 <1>   0.0800 
 46 H        7.8230     6.4600     0.2700 H     1 <1>   0.3700 
 47 H        9.4550     7.9200     1.5990 H     1 <1>   0.0800 
 48 H        9.7390     8.7120     0.0720 H     1 <1>   0.0800 
 49 H       10.4870     6.6220    -0.9420 H     1 <1>   0.0800 
 50 H       11.6870     7.1210     1.7760 H     1 <1>   0.0800 
 51 H       12.4290     7.4080     0.2090 H     1 <1>   0.0800 
 52 H       10.9320     3.8440    -0.1430 H     1 <1>   0.0800 
 53 H       10.7710     3.9540     1.6090 H     1 <1>   0.0800 
 54 H       12.8100     5.0750     1.6460 H     1 <1>   0.0800 
 55 H       12.8320     5.1050    -0.1050 H     1 <1>   0.0800 
@<TRIPOS>BOND
  1   1   2  1   
  2   2   3  ar  
  3   2   4  ar  
  4   3   5  ar  
  5   3  29  1   
  6   4   6  ar  
  7   4  30  1   
  8   5   7  1   
  9   5   8  ar  
 10   6   8  ar  
 11   6  31  1   
 12   7   9  2   
 13   7  10  2   
 14   7  11  am  
 15   8  12  1   
 16  11  13  1   
 17  11  14  1   
 18  12  15  1   
 19  13  16  1   
 20  13  32  1   
 21  13  33  1   
 22  14  17  1   
 23  14  34  1   
 24  14  35  1   
 25  15  18  1   
 26  15  36  1   
 27  15  37  1   
 28  16  19  1   
 29  16  38  1   
 30  16  39  1   
 31  17  19  1   
 32  17  40  1   
 33  17  41  1   
 34  18  42  1   
 35  18  43  1   
 36  18  44  1   
 37  19  20  1   
 38  19  45  1   
 39  20  21  2   
 40  20  22  am  
 41  22  23  1   
 42  22  46  1   
 43  23  24  1   
 44  23  47  1   
 45  23  48  1   
 46  24  25  1   
 47  24  26  1   
 48  24  49  1   
 49  25  27  1   
 50  26  28  1   
 51  26  50  1   
 52  26  51  1   
 53  27  28  1   
 54  27  52  1   
 55  27  53  1   
 56  28  54  1   
 57  28  55  1   
@<TRIPOS>SUBSTRUCTURE
  1 ****  11 GROUP 4 **** **** 0

# MOE 2024.06 (io_trps.svl 2023.06)
