@<TRIPOS>MOLECULE
3-Allyl-1,6,7-trimethyl-8-(tetrahydro-furan-2-ylmethyl)-1H,8H-imidazo[2,1-f]puri
50 53 1 0 0 
SMALL
USER_CHARGES


@<TRIPOS>ATOM
  1 O        1.4760    -0.2570    -1.3010 O.2   1 <1>  -0.5750 
  2 C        2.1760     0.6490    -0.8950 C.2   1 <1>   0.6860 
  3 N        1.6780     1.9440    -0.8160 N.am  1 <1>  -0.4260 
  4 N        3.4910     0.3890    -0.5310 N.am  1 <1>  -0.4420 
  5 C        2.4870     3.0110    -0.4580 C.2   1 <1>   0.6990 
  6 C        0.2270     2.1780    -1.0300 C.3   1 <1>   0.2720 
  7 C        4.2860     1.4520    -0.1530 C.2   1 <1>   0.4210 
  8 C        4.0330    -1.0010    -0.5650 C.3   1 <1>   0.0520 
  9 O        2.0480     4.1490    -0.4490 O.2   1 <1>  -0.5750 
 10 C        3.8430     2.7330    -0.1120 C.2   1 <1>   0.2710 
 11 C       -0.4670     2.2060     0.3190 C.2   1 <1>  -0.2950 
 12 N        5.5990     1.4230     0.2030 N.pl3 1 <1>  -0.7040 
 13 N        4.9460     3.5170     0.2760 N.pl3 1 <1>  -0.6330 
 14 C       -1.2920     1.2580     0.7760 C.2   1 <1>  -0.3060 
 15 C        5.9620     2.6810     0.4410 C.cat 1 <1>   1.0690 
 16 C        5.4290     4.7830     0.5310 C.2   1 <1>   0.2340 
 17 N        7.0870     3.3180     0.7920 N.pl3 1 <1>  -0.5720 
 18 C        6.7420     4.6620     0.8500 C.2   1 <1>   0.1580 
 19 C        4.5170     5.9900     0.4280 C.3   1 <1>  -0.1090 
 20 C        8.4000     2.6910     1.1450 C.3   1 <1>   0.1600 
 21 C        7.7520     5.7340     1.2210 C.3   1 <1>  -0.1090 
 22 C        8.9850     1.8090     0.0250 C.3   1 <1>   0.1930 
 23 O        8.1500     0.7260    -0.2520 O.3   1 <1>  -0.5650 
 24 C       10.3140     1.1660     0.3940 C.3   1 <1>  -0.1670 
 25 C        8.8820    -0.2750    -0.8930 C.3   1 <1>   0.1120 
 26 C       10.3280    -0.1050    -0.4370 C.3   1 <1>  -0.1670 
 27 H       -0.1950     1.4000    -1.6430 H     1 <1>   0.0720 
 28 H        0.0700     3.1120    -1.5430 H     1 <1>   0.0720 
 29 H        3.2410    -1.7160    -0.4150 H     1 <1>   0.0720 
 30 H        4.7620    -1.1420     0.2130 H     1 <1>   0.0720 
 31 H        4.4880    -1.1890    -1.5220 H     1 <1>   0.0720 
 32 H       -0.2280     3.0880     0.8890 H     1 <1>   0.1430 
 33 H        6.3250     0.7020     0.0900 H     1 <1>   0.4450 
 34 H       -1.7800     1.2960     1.7350 H     1 <1>   0.1430 
 35 H       -1.5490     0.3640     0.2320 H     1 <1>   0.1430 
 36 H        4.1270     6.0710    -0.5710 H     1 <1>   0.0720 
 37 H        5.0440     6.8950     0.6640 H     1 <1>   0.0720 
 38 H        3.6920     5.8860     1.1100 H     1 <1>   0.0720 
 39 H        8.2790     2.0960     2.0350 H     1 <1>   0.0720 
 40 H        9.1150     3.4610     1.3710 H     1 <1>   0.0720 
 41 H        8.1320     5.5580     2.2110 H     1 <1>   0.0720 
 42 H        7.3030     6.7100     1.2020 H     1 <1>   0.0720 
 43 H        8.5720     5.7270     0.5250 H     1 <1>   0.0720 
 44 H        9.0990     2.3790    -0.8830 H     1 <1>   0.0720 
 45 H       10.3330     0.9180     1.4420 H     1 <1>   0.0720 
 46 H       11.1470     1.8100     0.1700 H     1 <1>   0.0720 
 47 H        8.7940    -0.1310    -1.9570 H     1 <1>   0.0720 
 48 H        8.4810    -1.2350    -0.6160 H     1 <1>   0.0720 
 49 H       10.6540    -0.9520     0.1430 H     1 <1>   0.0720 
 50 H       10.9710    -0.0050    -1.2940 H     1 <1>   0.0720 
@<TRIPOS>BOND
  1   1   2  2   
  2   2   3  am  
  3   2   4  am  
  4   3   5  am  
  5   3   6  1   
  6   4   7  1   
  7   4   8  1   
  8   5   9  2   
  9   5  10  1   
 10   6  11  1   
 11   6  27  1   
 12   6  28  1   
 13   7  10  2   
 14   7  12  1   
 15   8  29  1   
 16   8  30  1   
 17   8  31  1   
 18  10  13  1   
 19  11  14  2   
 20  11  32  1   
 21  12  15  ar  
 22  12  33  1   
 23  13  15  ar  
 24  13  16  1   
 25  14  34  1   
 26  14  35  1   
 27  15  17  ar  
 28  16  18  2   
 29  16  19  1   
 30  17  18  1   
 31  17  20  1   
 32  18  21  1   
 33  19  36  1   
 34  19  37  1   
 35  19  38  1   
 36  20  22  1   
 37  20  39  1   
 38  20  40  1   
 39  21  41  1   
 40  21  42  1   
 41  21  43  1   
 42  22  23  1   
 43  22  24  1   
 44  22  44  1   
 45  23  25  1   
 46  24  26  1   
 47  24  45  1   
 48  24  46  1   
 49  25  26  1   
 50  25  47  1   
 51  25  48  1   
 52  26  49  1   
 53  26  50  1   
@<TRIPOS>SUBSTRUCTURE
  1 ****   7 GROUP 4 **** **** 0

# MOE 2024.06 (io_trps.svl 2023.06)
