@<TRIPOS>MOLECULE
N-(5-Methoxymethyl-[1,3,4]thiadiazol-2-yl)-2-m-tolyloxy-acetamide
35 36 1 0 0 
SMALL
USER_CHARGES


@<TRIPOS>ATOM
  1 S        1.7080    -1.4630     0.5300 S.3   1 <1>  -0.0800 
  2 C        0.2760    -0.5010     0.3810 C.2   1 <1>   0.4420 
  3 C        0.7340    -2.8360     0.1170 C.2   1 <1>   0.1980 
  4 N       -0.7550    -1.1990     0.0720 N.2   1 <1>  -0.3380 
  5 N        0.3920     0.8530     0.6050 N.am  1 <1>  -0.4940 
  6 N       -0.4870    -2.5310    -0.0770 N.2   1 <1>  -0.3380 
  7 C        1.3980    -4.2010     0.0470 C.3   1 <1>   0.3000 
  8 C       -0.5390     1.8450     0.5560 C.2   1 <1>   0.5690 
  9 O        2.5230    -4.1490    -0.7820 O.3   1 <1>  -0.5600 
 10 O       -0.1760     2.9670     0.8020 O.2   1 <1>  -0.5700 
 11 C       -1.9970     1.5320     0.1990 C.3   1 <1>   0.1810 
 12 C        3.1670    -5.3720    -0.9490 C.3   1 <1>   0.0400 
 13 O       -2.8230     2.6850     0.2000 O.3   1 <1>  -0.3620 
 14 C       -4.1440     2.5980    -0.0950 C.ar  1 <1>   0.0820 
 15 C       -4.8660     3.7800    -0.0620 C.ar  1 <1>  -0.1500 
 16 C       -4.7900     1.4080    -0.4200 C.ar  1 <1>  -0.1500 
 17 C       -6.2210     3.7920    -0.3500 C.ar  1 <1>  -0.1440 
 18 C       -6.1440     1.4170    -0.7060 C.ar  1 <1>  -0.1500 
 19 C       -6.8570     2.6040    -0.6710 C.ar  1 <1>  -0.1500 
 20 C       -7.0060     5.0910    -0.3110 C.3   1 <1>  -0.0970 
 21 H        1.3190     1.1980     0.8420 H     1 <1>   0.3700 
 22 H        0.7040    -4.9190    -0.3570 H     1 <1>   0.0800 
 23 H        1.7090    -4.5070     1.0300 H     1 <1>   0.0800 
 24 H       -2.3970     0.8410     0.9170 H     1 <1>   0.0800 
 25 H       -2.0340     1.1020    -0.7850 H     1 <1>   0.0800 
 26 H        4.0140    -5.2180    -1.5950 H     1 <1>   0.0800 
 27 H        2.4900    -6.0740    -1.4050 H     1 <1>   0.0800 
 28 H        3.5040    -5.7330     0.0080 H     1 <1>   0.0800 
 29 H       -4.3510     4.6890     0.1920 H     1 <1>   0.1500 
 30 H       -4.2660     0.4720    -0.4560 H     1 <1>   0.1500 
 31 H       -6.6460     0.4990    -0.9560 H     1 <1>   0.1500 
 32 H       -7.9090     2.5980    -0.8940 H     1 <1>   0.1500 
 33 H       -6.3450     5.9350    -0.3980 H     1 <1>   0.0800 
 34 H       -7.5400     5.1640     0.6190 H     1 <1>   0.0800 
 35 H       -7.7100     5.1250    -1.1220 H     1 <1>   0.0800 
@<TRIPOS>BOND
  1   1   2  1   
  2   1   3  1   
  3   2   4  2   
  4   2   5  1   
  5   3   6  2   
  6   3   7  1   
  7   4   6  1   
  8   5   8  am  
  9   5  21  1   
 10   7   9  1   
 11   7  22  1   
 12   7  23  1   
 13   8  10  2   
 14   8  11  1   
 15   9  12  1   
 16  11  13  1   
 17  11  24  1   
 18  11  25  1   
 19  12  26  1   
 20  12  27  1   
 21  12  28  1   
 22  13  14  1   
 23  14  15  ar  
 24  14  16  ar  
 25  15  17  ar  
 26  15  29  1   
 27  16  18  ar  
 28  16  30  1   
 29  17  19  ar  
 30  17  20  1   
 31  18  19  ar  
 32  18  31  1   
 33  19  32  1   
 34  20  33  1   
 35  20  34  1   
 36  20  35  1   
@<TRIPOS>SUBSTRUCTURE
  1 ****  11 GROUP 4 **** **** 0

# MOE 2024.06 (io_trps.svl 2023.06)
