@<TRIPOS>MOLECULE
Adamantane-1-carboxylic acid (4-methyl-pyridin-2-yl)-amide
42 45 1 0 0 
SMALL
USER_CHARGES


@<TRIPOS>ATOM
  1 O        0.1400     0.2510    -0.7000 O.2   1 <1>  -0.5700 
  2 C       -0.0160    -0.8050    -0.1350 C.2   1 <1>   0.5690 
  3 N        1.0180    -1.4940     0.4300 N.am  1 <1>  -0.5470 
  4 C       -1.4270    -1.4270    -0.0310 C.3   1 <1>   0.0610 
  5 C        2.3720    -1.2680     0.5370 C.ar  1 <1>   0.4270 
  6 C       -1.4570    -2.8190    -0.7150 C.3   1 <1>  -0.1600 
  7 C       -2.5010    -0.5380    -0.7140 C.3   1 <1>  -0.1600 
  8 C       -1.8330    -1.6020     1.4560 C.3   1 <1>  -0.1600 
  9 N        2.9910    -2.2410     1.1890 N.ar  1 <1>  -0.6200 
 10 C        3.0300    -0.1510     0.0230 C.ar  1 <1>  -0.1500 
 11 C       -2.8530    -3.4610    -0.6000 C.3   1 <1>  -0.0800 
 12 C       -3.9010    -1.1680    -0.6030 C.3   1 <1>  -0.0800 
 13 C       -3.2290    -2.2410     1.5770 C.3   1 <1>  -0.0800 
 14 C        4.2980    -2.0980     1.3340 C.ar  1 <1>   0.1600 
 15 C        4.3910    -0.0130     0.1810 C.ar  1 <1>  -0.1430 
 16 C       -3.8880    -2.5490    -1.2830 C.3   1 <1>  -0.1600 
 17 C       -3.2170    -3.6180     0.8880 C.3   1 <1>  -0.1600 
 18 C       -4.2620    -1.3360     0.8830 C.3   1 <1>  -0.1600 
 19 C        5.0330    -1.0270     0.8610 C.ar  1 <1>  -0.1500 
 20 C        5.1520     1.1840    -0.3590 C.3   1 <1>  -0.0970 
 21 H        0.7730    -2.3710     0.8790 H     1 <1>   0.3700 
 22 H       -0.7340    -3.4750    -0.2640 H     1 <1>   0.0800 
 23 H       -1.1940    -2.7140    -1.7530 H     1 <1>   0.0800 
 24 H       -2.2500    -0.4020    -1.7520 H     1 <1>   0.0800 
 25 H       -2.5090     0.4360    -0.2570 H     1 <1>   0.0800 
 26 H       -1.1200    -2.2240     1.9700 H     1 <1>   0.0800 
 27 H       -1.8330    -0.6420     1.9430 H     1 <1>   0.0800 
 28 H        2.4770     0.6060    -0.4970 H     1 <1>   0.1500 
 29 H       -2.8500    -4.4270    -1.0780 H     1 <1>   0.0800 
 30 H       -4.6250    -0.5330    -1.0850 H     1 <1>   0.0800 
 31 H       -3.4880    -2.3570     2.6160 H     1 <1>   0.0800 
 32 H        4.8150    -2.8800     1.8630 H     1 <1>   0.1500 
 33 H       -4.8650    -2.9960    -1.2190 H     1 <1>   0.0800 
 34 H       -3.6470    -2.4400    -2.3260 H     1 <1>   0.0800 
 35 H       -2.5060    -4.2640     1.3720 H     1 <1>   0.0800 
 36 H       -4.1870    -4.0770     0.9770 H     1 <1>   0.0800 
 37 H       -5.2440    -1.7670     0.9730 H     1 <1>   0.0800 
 38 H       -4.2850    -0.3720     1.3630 H     1 <1>   0.0800 
 39 H        6.0950    -0.9890     1.0230 H     1 <1>   0.1500 
 40 H        4.4860     1.8680    -0.8550 H     1 <1>   0.0800 
 41 H        5.8960     0.8590    -1.0640 H     1 <1>   0.0800 
 42 H        5.6390     1.7040     0.4470 H     1 <1>   0.0800 
@<TRIPOS>BOND
  1   1   2  2   
  2   2   3  am  
  3   2   4  1   
  4   3   5  1   
  5   3  21  1   
  6   4   6  1   
  7   4   7  1   
  8   4   8  1   
  9   5   9  ar  
 10   5  10  ar  
 11   6  11  1   
 12   6  22  1   
 13   6  23  1   
 14   7  12  1   
 15   7  24  1   
 16   7  25  1   
 17   8  13  1   
 18   8  26  1   
 19   8  27  1   
 20   9  14  ar  
 21  10  15  ar  
 22  10  28  1   
 23  11  16  1   
 24  11  17  1   
 25  11  29  1   
 26  12  16  1   
 27  12  18  1   
 28  12  30  1   
 29  13  17  1   
 30  13  18  1   
 31  13  31  1   
 32  14  19  ar  
 33  14  32  1   
 34  15  19  ar  
 35  15  20  1   
 36  16  33  1   
 37  16  34  1   
 38  17  35  1   
 39  17  36  1   
 40  18  37  1   
 41  18  38  1   
 42  19  39  1   
 43  20  40  1   
 44  20  41  1   
 45  20  42  1   
@<TRIPOS>SUBSTRUCTURE
  1 ****   2 GROUP 4 **** **** 0

# MOE 2024.06 (io_trps.svl 2023.06)
