@<TRIPOS>MOLECULE
1-(2,6-Dimethyl-phenyl)-5-oxo-pyrrolidine-3-carboxylic acid (2,4-dimethoxy-pheny
51 53 1 0 0 
SMALL
USER_CHARGES


@<TRIPOS>ATOM
  1 O        0.5310    -0.7370    -0.7080 O.2   1 <1>  -0.5700 
  2 C        1.6210    -0.9630    -0.2450 C.2   1 <1>   0.5690 
  3 N        1.9070    -1.7620     0.8200 N.am  1 <1>  -0.4770 
  4 C        2.8750    -0.3770    -0.8300 C.3   1 <1>  -0.0990 
  5 C        1.0180    -2.5230     1.5970 C.ar  1 <1>   0.1170 
  6 C        3.3540    -1.8140     1.0760 C.3   1 <1>   0.1400 
  7 C        3.9810    -1.2390    -0.1980 C.3   1 <1>  -0.0190 
  8 C        0.4700    -1.9890     2.7660 C.ar  1 <1>  -0.1440 
  9 C        0.6920    -3.8280     1.2180 C.ar  1 <1>  -0.1440 
 10 C        5.2690    -0.4820     0.1000 C.2   1 <1>   0.5690 
 11 C       -0.3700    -2.7630     3.5490 C.ar  1 <1>  -0.1500 
 12 C        0.7710    -0.5590     3.1940 C.3   1 <1>  -0.0970 
 13 C       -0.1500    -4.5860     2.0140 C.ar  1 <1>  -0.1500 
 14 C        1.2390    -4.4340    -0.0690 C.3   1 <1>  -0.0960 
 15 O        5.2200     0.5090     0.7840 O.2   1 <1>  -0.5700 
 16 N        6.4650    -0.8870    -0.3990 N.am  1 <1>  -0.5470 
 17 C       -0.6780    -4.0590     3.1780 C.ar  1 <1>  -0.1500 
 18 C        6.8010    -2.0420    -1.1290 C.ar  1 <1>   0.1170 
 19 C        6.6140    -3.3350    -0.6200 C.ar  1 <1>   0.0820 
 20 C        7.3450    -1.8870    -2.3960 C.ar  1 <1>  -0.1500 
 21 O        6.0980    -3.4590     0.6370 O.3   1 <1>  -0.3630 
 22 C        6.9590    -4.4360    -1.3960 C.ar  1 <1>  -0.1500 
 23 C        7.6910    -2.9860    -3.1620 C.ar  1 <1>  -0.1500 
 24 C        6.0580    -4.7090     1.2930 C.3   1 <1>   0.0400 
 25 C        7.4950    -4.2690    -2.6610 C.ar  1 <1>   0.0820 
 26 O        7.8010    -5.4030    -3.3450 O.3   1 <1>  -0.3620 
 27 C        8.4050    -5.3460    -4.6190 C.3   1 <1>   0.0400 
 28 H        2.9450     0.6510    -0.5260 H     1 <1>   0.0800 
 29 H        2.8720    -0.4480    -1.9020 H     1 <1>   0.0800 
 30 H        3.6730    -2.8240     1.2580 H     1 <1>   0.0800 
 31 H        3.5820    -1.2020     1.9320 H     1 <1>   0.0800 
 32 H        4.1770    -2.0610    -0.8610 H     1 <1>   0.0800 
 33 H       -0.7940    -2.3620     4.4520 H     1 <1>   0.1500 
 34 H        0.5370     0.1180     2.3910 H     1 <1>   0.0800 
 35 H        1.8120    -0.4580     3.4420 H     1 <1>   0.0800 
 36 H        0.1870    -0.2790     4.0510 H     1 <1>   0.0800 
 37 H       -0.4060    -5.5920     1.7320 H     1 <1>   0.1500 
 38 H        2.3110    -4.4890    -0.0260 H     1 <1>   0.0800 
 39 H        0.9530    -3.8210    -0.9060 H     1 <1>   0.0800 
 40 H        0.8500    -5.4230    -0.2270 H     1 <1>   0.0800 
 41 H        7.2360    -0.2700    -0.1420 H     1 <1>   0.3700 
 42 H       -1.3320    -4.6540     3.7910 H     1 <1>   0.1500 
 43 H        7.4960    -0.8970    -2.7880 H     1 <1>   0.1500 
 44 H        6.8250    -5.4410    -1.0460 H     1 <1>   0.1500 
 45 H        8.1060    -2.8250    -4.1390 H     1 <1>   0.1500 
 46 H        5.6890    -4.5520     2.2910 H     1 <1>   0.0800 
 47 H        7.0530    -5.1160     1.3320 H     1 <1>   0.0800 
 48 H        5.3930    -5.3650     0.7590 H     1 <1>   0.0800 
 49 H        8.5740    -6.3540    -4.9530 H     1 <1>   0.0800 
 50 H        9.3430    -4.8260    -4.5380 H     1 <1>   0.0800 
 51 H        7.7410    -4.8430    -5.2990 H     1 <1>   0.0800 
@<TRIPOS>BOND
  1   1   2  2   
  2   2   3  am  
  3   2   4  1   
  4   3   5  1   
  5   3   6  1   
  6   4   7  1   
  7   4  28  1   
  8   4  29  1   
  9   5   8  ar  
 10   5   9  ar  
 11   6   7  1   
 12   6  30  1   
 13   6  31  1   
 14   7  10  1   
 15   7  32  1   
 16   8  11  ar  
 17   8  12  1   
 18   9  13  ar  
 19   9  14  1   
 20  10  15  2   
 21  10  16  am  
 22  11  17  ar  
 23  11  33  1   
 24  12  34  1   
 25  12  35  1   
 26  12  36  1   
 27  13  17  ar  
 28  13  37  1   
 29  14  38  1   
 30  14  39  1   
 31  14  40  1   
 32  16  18  1   
 33  16  41  1   
 34  17  42  1   
 35  18  19  ar  
 36  18  20  ar  
 37  19  21  1   
 38  19  22  ar  
 39  20  23  ar  
 40  20  43  1   
 41  21  24  1   
 42  22  25  ar  
 43  22  44  1   
 44  23  25  ar  
 45  23  45  1   
 46  24  46  1   
 47  24  47  1   
 48  24  48  1   
 49  25  26  1   
 50  26  27  1   
 51  27  49  1   
 52  27  50  1   
 53  27  51  1   
@<TRIPOS>SUBSTRUCTURE
  1 ****   7 GROUP 4 **** **** 0

# MOE 2024.06 (io_trps.svl 2023.06)
