@<TRIPOS>MOLECULE
8-Chloro-7-(2-hydroxy-3-m-tolyloxy-propyl)-1,3-dimethyl-3,7-dihydro-purine-2,6-d
45 47 1 0 0 
SMALL
USER_CHARGES


@<TRIPOS>ATOM
  1 CL      -0.7730     0.2210    -2.9360 Cl    1 <1>  -0.1240 
  2 C       -2.1050     0.2650    -1.8120 C.2   1 <1>   0.3100 
  3 N       -2.6740    -0.8080    -1.3630 N.2   1 <1>  -0.5650 
  4 N       -2.5980     1.4330    -1.3480 N.pl3 1 <1>   0.0480 
  5 C       -3.6100    -0.3050    -0.5470 C.2   1 <1>   0.2900 
  6 C       -3.5940     1.0470    -0.5060 C.2   1 <1>  -0.2370 
  7 C       -2.1510     2.8100    -1.6680 C.3   1 <1>   0.0960 
  8 N       -4.5290    -1.0290     0.2020 N.am  1 <1>  -0.4230 
  9 C       -4.5030     1.7650     0.3080 C.2   1 <1>   0.7150 
 10 C       -1.2850     3.4010    -0.5490 C.3   1 <1>   0.2000 
 11 C       -5.4420    -0.3490     0.9890 C.2   1 <1>   0.6900 
 12 C       -4.5130    -2.5140     0.1000 C.3   1 <1>   0.0600 
 13 O       -4.4760     2.9820     0.3520 O.2   1 <1>  -0.5700 
 14 N       -5.4140     1.0400     1.0550 N.am  1 <1>  -0.4200 
 15 O       -0.7980     4.6130    -1.0080 O.3   1 <1>  -0.6800 
 16 C       -0.1050     2.5020    -0.1320 C.3   1 <1>   0.1200 
 17 O       -6.2780    -0.9630     1.6290 O.2   1 <1>  -0.5700 
 18 C       -6.4070     1.7450     1.9190 C.3   1 <1>   0.0600 
 19 O        0.7440     3.1860     0.7750 O.3   1 <1>  -0.3630 
 20 C        1.8950     3.8030     0.4000 C.ar  1 <1>   0.0820 
 21 C        2.7300     4.2240     1.4230 C.ar  1 <1>  -0.1500 
 22 C        2.2660     4.0340    -0.9220 C.ar  1 <1>  -0.1500 
 23 C        3.9270     4.8640     1.1460 C.ar  1 <1>  -0.1430 
 24 C        3.4600     4.6740    -1.2020 C.ar  1 <1>  -0.1500 
 25 C        4.2880     5.0860    -0.1730 C.ar  1 <1>  -0.1500 
 26 C        4.8390     5.3210     2.2700 C.3   1 <1>  -0.0970 
 27 H       -3.0180     3.4300    -1.8110 H     1 <1>   0.0800 
 28 H       -1.5890     2.7910    -2.5840 H     1 <1>   0.0800 
 29 H       -1.9000     3.6070     0.3110 H     1 <1>   0.0800 
 30 H       -4.7440    -2.8040    -0.9090 H     1 <1>   0.0800 
 31 H       -5.2320    -2.9570     0.7660 H     1 <1>   0.0800 
 32 H       -3.5330    -2.8790     0.3530 H     1 <1>   0.0800 
 33 H       -0.1260     4.9430    -0.3700 H     1 <1>   0.4000 
 34 H        0.4610     2.1530    -0.9760 H     1 <1>   0.0800 
 35 H       -0.4800     1.6390     0.3890 H     1 <1>   0.0800 
 36 H       -6.0880     2.7490     2.1380 H     1 <1>   0.0800 
 37 H       -6.5250     1.2170     2.8500 H     1 <1>   0.0800 
 38 H       -7.3570     1.7790     1.4160 H     1 <1>   0.0800 
 39 H        2.4310     4.0430     2.4390 H     1 <1>   0.1500 
 40 H        1.6430     3.7370    -1.7440 H     1 <1>   0.1500 
 41 H        3.7470     4.8530    -2.2240 H     1 <1>   0.1500 
 42 H        5.2150     5.5830    -0.4020 H     1 <1>   0.1500 
 43 H        4.5760     4.8400     3.1950 H     1 <1>   0.0800 
 44 H        4.7530     6.3850     2.3970 H     1 <1>   0.0800 
 45 H        5.8610     5.0790     2.0400 H     1 <1>   0.0800 
@<TRIPOS>BOND
  1   1   2  1   
  2   2   3  2   
  3   2   4  1   
  4   3   5  1   
  5   4   6  1   
  6   4   7  1   
  7   5   6  2   
  8   5   8  1   
  9   6   9  1   
 10   7  10  1   
 11   7  27  1   
 12   7  28  1   
 13   8  11  am  
 14   8  12  1   
 15   9  13  2   
 16   9  14  am  
 17  10  15  1   
 18  10  16  1   
 19  10  29  1   
 20  11  14  am  
 21  11  17  2   
 22  12  30  1   
 23  12  31  1   
 24  12  32  1   
 25  14  18  1   
 26  15  33  1   
 27  16  19  1   
 28  16  34  1   
 29  16  35  1   
 30  18  36  1   
 31  18  37  1   
 32  18  38  1   
 33  19  20  1   
 34  20  21  ar  
 35  20  22  ar  
 36  21  23  ar  
 37  21  39  1   
 38  22  24  ar  
 39  22  40  1   
 40  23  25  ar  
 41  23  26  1   
 42  24  25  ar  
 43  24  41  1   
 44  25  42  1   
 45  26  43  1   
 46  26  44  1   
 47  26  45  1   
@<TRIPOS>SUBSTRUCTURE
  1 ****  16 GROUP 4 **** **** 0

# MOE 2024.06 (io_trps.svl 2023.06)
