@<TRIPOS>MOLECULE
N-[5-Chloro-2-(4-propionyl-piperazin-1-yl)-phenyl]-isobutyramide
47 48 1 0 0 
SMALL
USER_CHARGES


@<TRIPOS>ATOM
  1 CL       0.6130     0.1300    -1.1290 Cl    1 <1>  -0.1770 
  2 C        1.9690     1.1940    -0.8390 C.ar  1 <1>   0.1770 
  3 C        1.7380     2.5210    -0.5350 C.ar  1 <1>  -0.1500 
  4 C        3.2510     0.6850    -0.9200 C.ar  1 <1>  -0.1500 
  5 C        2.8130     3.3680    -0.3040 C.ar  1 <1>   0.1170 
  6 C        4.3260     1.5260    -0.6910 C.ar  1 <1>  -0.1500 
  7 N        2.6870     4.7290     0.0150 N.am  1 <1>  -0.5470 
  8 C        4.1230     2.8680    -0.3850 C.ar  1 <1>   0.1000 
  9 C        1.6250     5.5600     0.2160 C.2   1 <1>   0.5690 
 10 N        5.2140     3.7250    -0.1530 N.pl3 1 <1>  -0.8380 
 11 O        0.4760     5.2010     0.1320 O.2   1 <1>  -0.5700 
 12 C        1.9290     7.0210     0.5670 C.3   1 <1>  -0.0190 
 13 C        6.1280     3.9430    -1.3160 C.3   1 <1>   0.2090 
 14 C        5.9740     3.4630     1.1090 C.3   1 <1>   0.2090 
 15 C        1.3680     7.3980     1.9480 C.3   1 <1>  -0.2400 
 16 C        1.3870     7.9820    -0.5030 C.3   1 <1>  -0.2400 
 17 C        7.1160     5.0910    -1.0400 C.3   1 <1>   0.1400 
 18 C        6.9530     4.6090     1.4110 C.3   1 <1>   0.1400 
 19 N        7.8580     4.8750     0.2450 N.am  1 <1>  -0.6600 
 20 C        9.2220     4.8560     0.3920 C.2   1 <1>   0.5690 
 21 O        9.7330     4.5790     1.4520 O.2   1 <1>  -0.5700 
 22 C       10.1280     5.1810    -0.7950 C.3   1 <1>  -0.0990 
 23 C       11.6260     5.2850    -0.4590 C.3   1 <1>  -0.2400 
 24 H        0.7260     2.8770    -0.4810 H     1 <1>   0.1500 
 25 H        3.3990    -0.3530    -1.1580 H     1 <1>   0.1500 
 26 H        5.3260     1.1400    -0.7490 H     1 <1>   0.1500 
 27 H        3.6210     5.1330     0.1230 H     1 <1>   0.3700 
 28 H        2.9970     7.1430     0.6050 H     1 <1>   0.0800 
 29 H        5.5420     4.1760    -2.1890 H     1 <1>   0.0800 
 30 H        6.6810     3.0420    -1.5160 H     1 <1>   0.0800 
 31 H        6.5260     2.5430     1.0190 H     1 <1>   0.0800 
 32 H        5.2820     3.3580     1.9280 H     1 <1>   0.0800 
 33 H        0.2960     7.3030     1.9510 H     1 <1>   0.0800 
 34 H        1.6270     8.4110     2.1990 H     1 <1>   0.0800 
 35 H        1.7680     6.7430     2.7020 H     1 <1>   0.0800 
 36 H        0.3150     7.9010    -0.5650 H     1 <1>   0.0800 
 37 H        1.8000     7.7360    -1.4650 H     1 <1>   0.0800 
 38 H        1.6440     8.9980    -0.2660 H     1 <1>   0.0800 
 39 H        6.5670     6.0140    -0.9740 H     1 <1>   0.0800 
 40 H        7.7920     5.1700    -1.8700 H     1 <1>   0.0800 
 41 H        7.5230     4.3570     2.2880 H     1 <1>   0.0800 
 42 H        6.3940     5.5000     1.6310 H     1 <1>   0.0800 
 43 H        9.8120     6.1180    -1.2140 H     1 <1>   0.0800 
 44 H        9.9970     4.4150    -1.5370 H     1 <1>   0.0800 
 45 H       11.7880     6.0520     0.2790 H     1 <1>   0.0800 
 46 H       12.1930     5.5260    -1.3400 H     1 <1>   0.0800 
 47 H       11.9840     4.3500    -0.0610 H     1 <1>   0.0800 
@<TRIPOS>BOND
  1   1   2  1   
  2   2   3  ar  
  3   2   4  ar  
  4   3   5  ar  
  5   3  24  1   
  6   4   6  ar  
  7   4  25  1   
  8   5   7  1   
  9   5   8  ar  
 10   6   8  ar  
 11   6  26  1   
 12   7   9  am  
 13   7  27  1   
 14   8  10  1   
 15   9  11  2   
 16   9  12  1   
 17  10  13  1   
 18  10  14  1   
 19  12  15  1   
 20  12  16  1   
 21  12  28  1   
 22  13  17  1   
 23  13  29  1   
 24  13  30  1   
 25  14  18  1   
 26  14  31  1   
 27  14  32  1   
 28  15  33  1   
 29  15  34  1   
 30  15  35  1   
 31  16  36  1   
 32  16  37  1   
 33  16  38  1   
 34  17  19  1   
 35  17  39  1   
 36  17  40  1   
 37  18  19  1   
 38  18  41  1   
 39  18  42  1   
 40  19  20  am  
 41  20  21  2   
 42  20  22  1   
 43  22  23  1   
 44  22  43  1   
 45  22  44  1   
 46  23  45  1   
 47  23  46  1   
 48  23  47  1   
@<TRIPOS>SUBSTRUCTURE
  1 ****  10 GROUP 4 **** **** 0

# MOE 2024.06 (io_trps.svl 2023.06)
