@<TRIPOS>MOLECULE
2-(3-Methoxy-phenoxy)-1-morpholin-4-yl-ethanone
35 36 1 0 0 
SMALL
USER_CHARGES


@<TRIPOS>ATOM
  1 O       -0.6890    -0.6280    -1.4940 O.2   1 <1>  -0.5700 
  2 C       -1.3930    -1.0060    -0.5850 C.2   1 <1>   0.5690 
  3 N       -1.0690    -2.1190     0.1550 N.am  1 <1>  -0.6600 
  4 C       -2.6360    -0.1740    -0.2780 C.3   1 <1>   0.1810 
  5 C        0.0880    -2.9920    -0.2090 C.3   1 <1>   0.1400 
  6 C       -1.8820    -2.6900     1.2720 C.3   1 <1>   0.1400 
  7 O       -3.8230    -0.9340    -0.4610 O.3   1 <1>  -0.3620 
  8 C       -0.3840    -4.4390    -0.4280 C.3   1 <1>   0.1200 
  9 C       -2.2560    -4.1480     0.9610 C.3   1 <1>   0.1200 
 10 C       -5.0410    -0.4150    -0.1680 C.ar  1 <1>   0.0820 
 11 O       -1.1090    -4.9000     0.6790 O.3   1 <1>  -0.5600 
 12 C       -6.1270    -1.2630    -0.3180 C.ar  1 <1>  -0.1500 
 13 C       -5.2400     0.8940     0.2670 C.ar  1 <1>  -0.1500 
 14 C       -7.4120    -0.8160    -0.0310 C.ar  1 <1>   0.0820 
 15 C       -6.5190     1.3390     0.5530 C.ar  1 <1>  -0.1500 
 16 O       -8.5230    -1.5850    -0.1520 O.3   1 <1>  -0.3630 
 17 C       -7.5990     0.4860     0.4060 C.ar  1 <1>  -0.1500 
 18 C       -8.4480    -2.9040    -0.6440 C.3   1 <1>   0.0400 
 19 H       -2.6730     0.6690    -0.9440 H     1 <1>   0.0800 
 20 H       -2.5950     0.1640     0.7400 H     1 <1>   0.0800 
 21 H        0.8130    -2.9700     0.5860 H     1 <1>   0.0800 
 22 H        0.5680    -2.6370    -1.1040 H     1 <1>   0.0800 
 23 H       -2.7780    -2.1230     1.4390 H     1 <1>   0.0800 
 24 H       -1.3030    -2.6630     2.1780 H     1 <1>   0.0800 
 25 H        0.4620    -5.0890    -0.5620 H     1 <1>   0.0800 
 26 H       -1.0110    -4.5010    -1.3010 H     1 <1>   0.0800 
 27 H       -2.9200    -4.1960     0.1150 H     1 <1>   0.0800 
 28 H       -2.7420    -4.5960     1.8100 H     1 <1>   0.0800 
 29 H       -5.9420    -2.2610    -0.6590 H     1 <1>   0.1500 
 30 H       -4.4230     1.5790     0.3860 H     1 <1>   0.1500 
 31 H       -6.6780     2.3490     0.8900 H     1 <1>   0.1500 
 32 H       -8.5950     0.8240     0.6260 H     1 <1>   0.1500 
 33 H       -9.4450    -3.3070    -0.6740 H     1 <1>   0.0800 
 34 H       -7.8370    -3.4900     0.0200 H     1 <1>   0.0800 
 35 H       -8.0320    -2.8840    -1.6360 H     1 <1>   0.0800 
@<TRIPOS>BOND
  1   1   2  2   
  2   2   3  am  
  3   2   4  1   
  4   3   5  1   
  5   3   6  1   
  6   4   7  1   
  7   4  19  1   
  8   4  20  1   
  9   5   8  1   
 10   5  21  1   
 11   5  22  1   
 12   6   9  1   
 13   6  23  1   
 14   6  24  1   
 15   7  10  1   
 16   8  11  1   
 17   8  25  1   
 18   8  26  1   
 19   9  11  1   
 20   9  27  1   
 21   9  28  1   
 22  10  12  ar  
 23  10  13  ar  
 24  12  14  ar  
 25  12  29  1   
 26  13  15  ar  
 27  13  30  1   
 28  14  16  1   
 29  14  17  ar  
 30  15  17  ar  
 31  15  31  1   
 32  16  18  1   
 33  17  32  1   
 34  18  33  1   
 35  18  34  1   
 36  18  35  1   
@<TRIPOS>SUBSTRUCTURE
  1 ****   7 GROUP 4 **** **** 0

# MOE 2024.06 (io_trps.svl 2023.06)
