@<TRIPOS>MOLECULE
2-[8-(3-Chloro-phenyl)-1,6-dimethyl-2,4-dioxo-1,4,5,6,7,8-hexahydro-2H-1,3,4b,8,
48 51 1 0 0 
SMALL
USER_CHARGES


@<TRIPOS>ATOM
  1 CL      -3.3020    -2.5680    -2.4420 Cl    1 <1>  -0.1850 
  2 C       -3.6290    -1.6340    -1.0070 C.ar  1 <1>   0.1690 
  3 C       -4.3920    -0.4900    -1.1150 C.ar  1 <1>  -0.1580 
  4 C       -3.1280    -2.0560     0.2100 C.ar  1 <1>  -0.1580 
  5 C       -4.6750     0.2520     0.0230 C.ar  1 <1>   0.3040 
  6 C       -3.3980    -1.3120     1.3460 C.ar  1 <1>  -0.1580 
  7 N       -5.4800     1.3920    -0.0620 N.pl3 1 <1>  -0.5800 
  8 C       -4.1680    -0.1650     1.2490 C.ar  1 <1>  -0.1580 
  9 C       -6.7990     1.3430    -0.3330 C.cat 1 <1>   1.0680 
 10 C       -4.8070     2.7200     0.0470 C.3   1 <1>   0.1600 
 11 N       -7.5390     0.2480    -0.4960 N.pl3 1 <1>  -0.7040 
 12 N       -7.5520     2.4230    -0.4800 N.pl3 1 <1>  -0.7680 
 13 C       -5.7880     3.8120     0.5180 C.3   1 <1>  -0.0880 
 14 C       -8.8170     0.6450    -0.7580 C.2   1 <1>   0.4200 
 15 C       -8.8590     1.9950    -0.7540 C.2   1 <1>   0.2700 
 16 C       -7.0780     3.8130    -0.3220 C.3   1 <1>   0.3470 
 17 C       -5.1130     5.1910     0.4870 C.3   1 <1>  -0.2470 
 18 N       -9.9210    -0.1500    -1.0000 N.am  1 <1>  -0.4420 
 19 C      -10.1040     2.6510    -1.0050 C.2   1 <1>   0.6990 
 20 C      -11.1480     0.4770    -1.1710 C.2   1 <1>   0.6860 
 21 C       -9.8190    -1.6390    -0.9940 C.3   1 <1>   0.0510 
 22 O      -10.1750     3.8650    -1.1000 O.2   1 <1>  -0.5750 
 23 N      -11.2320     1.8620    -1.1560 N.am  1 <1>  -0.4260 
 24 O      -12.1540    -0.1850    -1.3310 O.2   1 <1>  -0.5750 
 25 C      -12.5580     2.4760    -0.8240 C.3   1 <1>   0.1930 
 26 C      -12.8080     2.4500     0.6860 C.2   1 <1>   0.5640 
 27 O      -11.8760     2.3260     1.4450 O.2   1 <1>  -0.5750 
 28 N      -14.0600     2.5610     1.1760 N.am  1 <1>  -0.8030 
 29 H       -4.7520    -0.1860    -2.0810 H     1 <1>   0.1420 
 30 H       -2.5330    -2.9520     0.2640 H     1 <1>   0.1420 
 31 H       -3.0080    -1.6290     2.3000 H     1 <1>   0.1420 
 32 H       -4.3770     0.4080     2.1360 H     1 <1>   0.1420 
 33 H       -4.4040     2.9820    -0.9170 H     1 <1>   0.0720 
 34 H       -3.9860     2.6550     0.7420 H     1 <1>   0.0720 
 35 H       -7.1950    -0.7040    -0.4050 H     1 <1>   0.4440 
 36 H       -6.0550     3.6070     1.5410 H     1 <1>   0.0720 
 37 H       -7.8330     4.4080     0.1660 H     1 <1>   0.0720 
 38 H       -6.8910     4.2340    -1.2960 H     1 <1>   0.0720 
 39 H       -4.8150     5.4550    -0.5130 H     1 <1>   0.0720 
 40 H       -4.2380     5.1950     1.1150 H     1 <1>   0.0720 
 41 H       -5.7870     5.9470     0.8530 H     1 <1>   0.0720 
 42 H       -9.8650    -2.0010     0.0190 H     1 <1>   0.0720 
 43 H       -8.8970    -1.9550    -1.4480 H     1 <1>   0.0720 
 44 H      -10.6310    -2.0750    -1.5510 H     1 <1>   0.0720 
 45 H      -13.3460     1.9410    -1.3240 H     1 <1>   0.0720 
 46 H      -12.5900     3.4960    -1.1640 H     1 <1>   0.0720 
 47 H      -14.2010     2.5280     2.1880 H     1 <1>   0.3640 
 48 H      -14.9070     2.6330     0.6120 H     1 <1>   0.3640 
@<TRIPOS>BOND
  1   1   2  1   
  2   2   3  ar  
  3   2   4  ar  
  4   3   5  ar  
  5   3  29  1   
  6   4   6  ar  
  7   4  30  1   
  8   5   7  1   
  9   5   8  ar  
 10   6   8  ar  
 11   6  31  1   
 12   7   9  ar  
 13   7  10  1   
 14   8  32  1   
 15   9  11  ar  
 16   9  12  ar  
 17  10  13  1   
 18  10  33  1   
 19  10  34  1   
 20  11  14  1   
 21  11  35  1   
 22  12  15  1   
 23  12  16  1   
 24  13  16  1   
 25  13  17  1   
 26  13  36  1   
 27  14  15  2   
 28  14  18  1   
 29  15  19  1   
 30  16  37  1   
 31  16  38  1   
 32  17  39  1   
 33  17  40  1   
 34  17  41  1   
 35  18  20  am  
 36  18  21  1   
 37  19  22  2   
 38  19  23  am  
 39  20  23  am  
 40  20  24  2   
 41  21  42  1   
 42  21  43  1   
 43  21  44  1   
 44  23  25  1   
 45  25  26  1   
 46  25  45  1   
 47  25  46  1   
 48  26  27  2   
 49  26  28  am  
 50  28  47  1   
 51  28  48  1   
@<TRIPOS>SUBSTRUCTURE
  1 ****  11 GROUP 4 **** **** 0

# MOE 2024.06 (io_trps.svl 2023.06)
