@<TRIPOS>MOLECULE
4-Piperidin-1-yl-butylamine
33 33 1 0 0 
SMALL
USER_CHARGES


@<TRIPOS>ATOM
  1 N        0.1830    -0.0630    -0.0660 N.4   1 <1>  -0.9590 
  2 C       -1.3040     0.0760     0.0260 C.3   1 <1>   0.3430 
  3 C        0.6560    -1.2150     0.7650 C.3   1 <1>   0.3430 
  4 C        0.8450     1.2230     0.2920 C.3   1 <1>   0.3430 
  5 C       -1.9770    -1.1910    -0.5040 C.3   1 <1>  -0.1600 
  6 C        0.0300    -2.5140     0.2530 C.3   1 <1>  -0.1600 
  7 C        2.3100     1.2390    -0.1730 C.3   1 <1>  -0.1600 
  8 C       -1.5020    -2.4420     0.2460 C.3   1 <1>  -0.1600 
  9 C        2.9790     2.6060     0.0810 C.3   1 <1>  -0.1600 
 10 C        4.4400     2.6260    -0.3940 C.3   1 <1>   0.3430 
 11 N        5.0390     3.9570    -0.1330 N.4   1 <1>  -0.8530 
 12 H        0.3900    -0.2910    -1.0480 H     1 <1>   0.4500 
 13 H       -1.6350     0.9230    -0.5540 H     1 <1>   0.0800 
 14 H       -1.5950     0.2330     1.0520 H     1 <1>   0.0800 
 15 H        0.3740    -1.0630     1.7950 H     1 <1>   0.0800 
 16 H        1.7290    -1.2990     0.7150 H     1 <1>   0.0800 
 17 H        0.7920     1.3760     1.3590 H     1 <1>   0.0800 
 18 H        0.3210     2.0350    -0.1860 H     1 <1>   0.0800 
 19 H       -1.7730    -1.2930    -1.5560 H     1 <1>   0.0800 
 20 H       -3.0430    -1.0950    -0.3940 H     1 <1>   0.0800 
 21 H        0.3430    -3.3270     0.8850 H     1 <1>   0.0800 
 22 H        0.3930    -2.7220    -0.7380 H     1 <1>   0.0800 
 23 H        2.3440     1.0230    -1.2280 H     1 <1>   0.0800 
 24 H        2.8630     0.4780     0.3510 H     1 <1>   0.0800 
 25 H       -1.9090    -3.3250    -0.2190 H     1 <1>   0.0800 
 26 H       -1.8650    -2.4110     1.2600 H     1 <1>   0.0800 
 27 H        2.9460     2.8200     1.1370 H     1 <1>   0.0800 
 28 H        2.4250     3.3680    -0.4420 H     1 <1>   0.0800 
 29 H        4.4800     2.4100    -1.4510 H     1 <1>   0.0800 
 30 H        5.0010     1.8650     0.1260 H     1 <1>   0.0800 
 31 H        4.5380     4.7030    -0.6310 H     1 <1>   0.4500 
 32 H        6.0190     3.9860    -0.4460 H     1 <1>   0.4500 
 33 H        5.0330     4.1860     0.8690 H     1 <1>   0.4500 
@<TRIPOS>BOND
  1   1   2  1   
  2   1   3  1   
  3   1   4  1   
  4   1  12  1   
  5   2   5  1   
  6   2  13  1   
  7   2  14  1   
  8   3   6  1   
  9   3  15  1   
 10   3  16  1   
 11   4   7  1   
 12   4  17  1   
 13   4  18  1   
 14   5   8  1   
 15   5  19  1   
 16   5  20  1   
 17   6   8  1   
 18   6  21  1   
 19   6  22  1   
 20   7   9  1   
 21   7  23  1   
 22   7  24  1   
 23   8  25  1   
 24   8  26  1   
 25   9  10  1   
 26   9  27  1   
 27   9  28  1   
 28  10  11  1   
 29  10  29  1   
 30  10  30  1   
 31  11  31  1   
 32  11  32  1   
 33  11  33  1   
@<TRIPOS>SUBSTRUCTURE
  1 ****   4 GROUP 4 **** **** 0

# MOE 2024.06 (io_trps.svl 2023.06)
