@<TRIPOS>MOLECULE
2,3-Dihydro-benzo[1,4]dioxine-2-carboxylic acid (5-diethylsulfamoyl-2-methoxy-ph
53 55 1 0 0 
SMALL
USER_CHARGES


@<TRIPOS>ATOM
  1 S       -0.8310     1.0360    -1.4910 S.o2  1 <1>   1.4470 
  2 O       -1.9550     1.9480    -1.5290 O.2   1 <1>  -0.6500 
  3 O       -0.7680    -0.0340    -2.4630 O.2   1 <1>  -0.6500 
  4 N       -0.8230     0.3440     0.0590 N.am  1 <1>  -0.8490 
  5 C        0.7170     1.9840    -1.5670 C.ar  1 <1>  -0.0090 
  6 C       -1.0410     1.3320     1.1150 C.3   1 <1>   0.1960 
  7 C       -1.7320    -0.7990     0.1650 C.3   1 <1>   0.1960 
  8 C        1.8380     1.6100    -0.8360 C.ar  1 <1>  -0.1500 
  9 C        0.8180     3.1050    -2.3800 C.ar  1 <1>  -0.1500 
 10 C       -0.4090     0.8400     2.4150 C.3   1 <1>  -0.2400 
 11 C       -0.9120    -2.0800     0.0790 C.3   1 <1>  -0.2400 
 12 C        3.0230     2.3340    -0.8800 C.ar  1 <1>   0.1170 
 13 C        1.9920     3.8340    -2.4600 C.ar  1 <1>  -0.1500 
 14 N        4.1560     1.9830    -0.1250 N.am  1 <1>  -0.5470 
 15 C        3.1000     3.4530    -1.7130 C.ar  1 <1>   0.0820 
 16 C        4.3380     1.2010     0.9820 C.2   1 <1>   0.5690 
 17 O        4.2880     4.1250    -1.7500 O.3   1 <1>  -0.3630 
 18 O        3.4400     0.6080     1.5320 O.2   1 <1>  -0.5700 
 19 C        5.7460     1.0710     1.5580 C.3   1 <1>   0.2610 
 20 C        4.4630     5.2670    -2.5610 C.3   1 <1>   0.0400 
 21 O        6.6360     1.9940     0.9280 O.3   1 <1>  -0.3620 
 22 C        6.2650    -0.3630     1.3850 C.3   1 <1>   0.1200 
 23 C        7.9660     1.7680     1.0720 C.ar  1 <1>   0.0820 
 24 O        7.6000    -0.4720     1.8480 O.3   1 <1>  -0.3630 
 25 C        8.4450     0.5440     1.5420 C.ar  1 <1>   0.0820 
 26 C        8.8530     2.7800     0.7470 C.ar  1 <1>  -0.1500 
 27 C        9.8070     0.3500     1.6980 C.ar  1 <1>  -0.1500 
 28 C       10.2150     2.5790     0.9000 C.ar  1 <1>  -0.1500 
 29 C       10.6910     1.3670     1.3770 C.ar  1 <1>  -0.1500 
 30 H       -2.0940     1.5230     1.2410 H     1 <1>   0.0800 
 31 H       -0.5670     2.2630     0.8490 H     1 <1>   0.0800 
 32 H       -2.4720    -0.7750    -0.6200 H     1 <1>   0.0800 
 33 H       -2.2570    -0.7890     1.1050 H     1 <1>   0.0800 
 34 H        1.7770     0.7310    -0.2200 H     1 <1>   0.1500 
 35 H       -0.0370     3.4110    -2.9610 H     1 <1>   0.1500 
 36 H       -0.8830    -0.0570     2.7660 H     1 <1>   0.0800 
 37 H       -0.5100     1.5950     3.1730 H     1 <1>   0.0800 
 38 H        0.6400     0.6500     2.2640 H     1 <1>   0.0800 
 39 H       -0.4110    -2.1420    -0.8710 H     1 <1>   0.0800 
 40 H       -1.5580    -2.9330     0.1780 H     1 <1>   0.0800 
 41 H       -0.1820    -2.1060     0.8680 H     1 <1>   0.0800 
 42 H        2.0170     4.6900    -3.1070 H     1 <1>   0.1500 
 43 H        4.9910     2.5110    -0.4050 H     1 <1>   0.3700 
 44 H        5.7120     1.3140     2.6040 H     1 <1>   0.0800 
 45 H        5.4690     5.6220    -2.4260 H     1 <1>   0.0800 
 46 H        3.7650     6.0250    -2.2530 H     1 <1>   0.0800 
 47 H        4.3090     4.9930    -3.5900 H     1 <1>   0.0800 
 48 H        6.2470    -0.6460     0.3470 H     1 <1>   0.0800 
 49 H        5.6620    -1.0540     1.9470 H     1 <1>   0.0800 
 50 H        8.4770     3.7180     0.3810 H     1 <1>   0.1500 
 51 H       10.1670    -0.5940     2.0670 H     1 <1>   0.1500 
 52 H       10.9060     3.3660     0.6500 H     1 <1>   0.1500 
 53 H       11.7500     1.2150     1.4970 H     1 <1>   0.1500 
@<TRIPOS>BOND
  1   1   2  2   
  2   1   3  2   
  3   1   4  am  
  4   1   5  1   
  5   4   6  1   
  6   4   7  1   
  7   5   8  ar  
  8   5   9  ar  
  9   6  10  1   
 10   6  30  1   
 11   6  31  1   
 12   7  11  1   
 13   7  32  1   
 14   7  33  1   
 15   8  12  ar  
 16   8  34  1   
 17   9  13  ar  
 18   9  35  1   
 19  10  36  1   
 20  10  37  1   
 21  10  38  1   
 22  11  39  1   
 23  11  40  1   
 24  11  41  1   
 25  12  14  1   
 26  12  15  ar  
 27  13  15  ar  
 28  13  42  1   
 29  14  16  am  
 30  14  43  1   
 31  15  17  1   
 32  16  18  2   
 33  16  19  1   
 34  17  20  1   
 35  19  21  1   
 36  19  22  1   
 37  19  44  1   
 38  20  45  1   
 39  20  46  1   
 40  20  47  1   
 41  21  23  1   
 42  22  24  1   
 43  22  48  1   
 44  22  49  1   
 45  23  25  ar  
 46  23  26  ar  
 47  24  25  1   
 48  25  27  ar  
 49  26  28  ar  
 50  26  50  1   
 51  27  29  ar  
 52  27  51  1   
 53  28  29  ar  
 54  28  52  1   
 55  29  53  1   
@<TRIPOS>SUBSTRUCTURE
  1 ****  14 GROUP 4 **** **** 0

# MOE 2024.06 (io_trps.svl 2023.06)
