@<TRIPOS>MOLECULE
7-(3-Allyloxy-2-hydroxy-propyl)-8-amino-3-methyl-3,7-dihydro-purine-2,6-dione
39 40 1 0 0 
SMALL
USER_CHARGES


@<TRIPOS>ATOM
  1 O        3.2250     0.4040     2.9740 O.2   1 <1>  -0.5770 
  2 C        3.6490     1.0300     2.0310 C.2   1 <1>   0.6840 
  3 N        4.3850     0.4340     1.0160 N.am  1 <1>  -0.4440 
  4 N        3.3910     2.3690     1.9710 N.am  1 <1>  -0.4970 
  5 C        4.8420     1.2470    -0.0100 C.2   1 <1>   0.4180 
  6 C        4.6890    -1.0270     1.0410 C.3   1 <1>   0.0490 
  7 C        3.8240     3.1820     0.9640 C.2   1 <1>   0.6970 
  8 N        5.5880     0.8880    -1.0930 N.pl3 1 <1>  -0.7060 
  9 C        4.6020     2.5770    -0.0780 C.2   1 <1>   0.2680 
 10 O        3.5380     4.3610     0.9880 O.2   1 <1>  -0.5770 
 11 C        5.8050     1.9770    -1.8160 C.cat 1 <1>   1.0680 
 12 N        5.2370     3.0350    -1.2490 N.pl3 1 <1>  -0.7690 
 13 N        6.5000     1.9930    -2.9330 N.pl3 1 <1>  -0.8410 
 14 C        5.2260     4.4650    -1.6970 C.3   1 <1>   0.3450 
 15 C        6.1230     5.3830    -0.8450 C.3   1 <1>   0.1900 
 16 O        6.4300     6.5010    -1.5990 O.3   1 <1>  -0.6860 
 17 C        7.4500     4.7530    -0.3950 C.3   1 <1>   0.1090 
 18 O        8.2070     5.7200     0.2640 O.3   1 <1>  -0.5670 
 19 C        9.5120     5.3590     0.6030 C.3   1 <1>   0.2490 
 20 C        9.5110     4.1880     1.5740 C.2   1 <1>  -0.2970 
 21 C        9.7760     4.2760     2.8810 C.2   1 <1>  -0.3090 
 22 H        2.8460     2.7760     2.7290 H     1 <1>   0.3620 
 23 H        4.1390    -1.5190     1.8260 H     1 <1>   0.0690 
 24 H        5.7390    -1.1780     1.2170 H     1 <1>   0.0690 
 25 H        4.4100    -1.4770     0.1050 H     1 <1>   0.0690 
 26 H        5.9150    -0.0520    -1.3020 H     1 <1>   0.4420 
 27 H        6.6440     2.8490    -3.4680 H     1 <1>   0.4420 
 28 H        6.9170     1.1610    -3.3480 H     1 <1>   0.4420 
 29 H        4.2170     4.8400    -1.6590 H     1 <1>   0.0690 
 30 H        5.5550     4.5170    -2.7200 H     1 <1>   0.0690 
 31 H        5.5780     5.7160     0.0220 H     1 <1>   0.0690 
 32 H        7.0990     7.0180    -1.0950 H     1 <1>   0.3920 
 33 H        8.0060     4.3920    -1.2430 H     1 <1>   0.0690 
 34 H        7.2600     3.9480     0.2910 H     1 <1>   0.0690 
 35 H        9.9660     6.2190     1.0650 H     1 <1>   0.0690 
 36 H       10.0580     5.1240    -0.2940 H     1 <1>   0.0690 
 37 H        9.2800     3.2520     1.1020 H     1 <1>   0.1400 
 38 H        9.7780     3.4370     3.5550 H     1 <1>   0.1400 
 39 H       10.0120     5.1960     3.3890 H     1 <1>   0.1400 
@<TRIPOS>BOND
  1   1   2  2   
  2   2   3  am  
  3   2   4  am  
  4   3   5  1   
  5   3   6  1   
  6   4   7  am  
  7   4  22  1   
  8   5   8  1   
  9   5   9  2   
 10   6  23  1   
 11   6  24  1   
 12   6  25  1   
 13   7   9  1   
 14   7  10  2   
 15   8  11  ar  
 16   8  26  1   
 17   9  12  1   
 18  11  12  ar  
 19  11  13  ar  
 20  12  14  1   
 21  13  27  1   
 22  13  28  1   
 23  14  15  1   
 24  14  29  1   
 25  14  30  1   
 26  15  16  1   
 27  15  17  1   
 28  15  31  1   
 29  16  32  1   
 30  17  18  1   
 31  17  33  1   
 32  17  34  1   
 33  18  19  1   
 34  19  20  1   
 35  19  35  1   
 36  19  36  1   
 37  20  21  2   
 38  20  37  1   
 39  21  38  1   
 40  21  39  1   
@<TRIPOS>SUBSTRUCTURE
  1 ****   9 GROUP 4 **** **** 0

# MOE 2024.06 (io_trps.svl 2023.06)
