@<TRIPOS>MOLECULE
N-(4-Ethyl-5-mercapto-4H-[1,2,4]triazol-3-ylmethyl)-4-methyl-benzenesulfonamide
36 37 1 0 0 
SMALL
USER_CHARGES


@<TRIPOS>ATOM
  1 S        0.3270     0.3740     1.4710 S.o2  1 <1>   1.4470 
  2 O        0.7450    -0.1460     2.7510 O.2   1 <1>  -0.6500 
  3 O        0.1440     1.7930     1.2820 O.2   1 <1>  -0.6500 
  4 N        1.5840     0.0380     0.4230 N.am  1 <1>  -0.9140 
  5 C       -1.0530    -0.5790     0.7850 C.ar  1 <1>  -0.0090 
  6 C        2.8670     0.4460     1.0070 C.3   1 <1>   0.3640 
  7 C       -1.9610    -0.0010    -0.0950 C.ar  1 <1>  -0.1500 
  8 C       -1.2190    -1.9230     1.0980 C.ar  1 <1>  -0.1500 
  9 C        4.0460     0.3340     0.0310 C.2   1 <1>   0.4850 
 10 C       -2.9980    -0.7380    -0.6420 C.ar  1 <1>  -0.1500 
 11 C       -2.2540    -2.6650     0.5550 C.ar  1 <1>  -0.1500 
 12 N        4.8270     1.3130    -0.2630 N.2   1 <1>  -0.2600 
 13 N        4.3940    -0.8290    -0.6220 N.pl3 1 <1>  -0.7640 
 14 C       -3.1480    -2.0750    -0.3210 C.ar  1 <1>  -0.1430 
 15 N        5.7230     0.7630    -1.1350 N.pl3 1 <1>  -0.3930 
 16 C        5.4570    -0.5090    -1.3330 C.cat 1 <1>   0.7360 
 17 C        3.7860    -2.1720    -0.5900 C.3   1 <1>   0.3540 
 18 C       -4.2860    -2.8860    -0.9160 C.3   1 <1>  -0.0970 
 19 S        6.3210    -1.4940    -2.2870 S.3   1 <1>  -0.9360 
 20 C        2.8320    -2.3320    -1.7710 C.3   1 <1>  -0.2400 
 21 H        1.4100     0.6610    -0.3650 H     1 <1>   0.4200 
 22 H        3.0860    -0.1730     1.8600 H     1 <1>   0.0800 
 23 H        2.8040     1.4670     1.3480 H     1 <1>   0.0800 
 24 H       -1.8630     1.0390    -0.3550 H     1 <1>   0.1500 
 25 H       -0.5320    -2.3970     1.7790 H     1 <1>   0.1500 
 26 H       -3.6890    -0.2640    -1.3180 H     1 <1>   0.1500 
 27 H       -2.3630    -3.7030     0.8190 H     1 <1>   0.1500 
 28 H        6.5160     1.2090    -1.5970 H     1 <1>   0.4500 
 29 H        3.2560    -2.3130     0.3360 H     1 <1>   0.0800 
 30 H        4.5630    -2.9180    -0.6500 H     1 <1>   0.0800 
 31 H       -5.1320    -2.8670    -0.2530 H     1 <1>   0.0800 
 32 H       -3.9830    -3.9080    -1.0620 H     1 <1>   0.0800 
 33 H       -4.5820    -2.4820    -1.8670 H     1 <1>   0.0800 
 34 H        2.0500    -1.5990    -1.7320 H     1 <1>   0.0800 
 35 H        2.3890    -3.3100    -1.7450 H     1 <1>   0.0800 
 36 H        3.3750    -2.2310    -2.6940 H     1 <1>   0.0800 
@<TRIPOS>BOND
  1   1   2  2   
  2   1   3  2   
  3   1   4  am  
  4   1   5  1   
  5   4   6  1   
  6   4  21  1   
  7   5   7  ar  
  8   5   8  ar  
  9   6   9  1   
 10   6  22  1   
 11   6  23  1   
 12   7  10  ar  
 13   7  24  1   
 14   8  11  ar  
 15   8  25  1   
 16   9  12  2   
 17   9  13  1   
 18  10  14  ar  
 19  10  26  1   
 20  11  14  ar  
 21  11  27  1   
 22  12  15  1   
 23  13  16  ar  
 24  13  17  1   
 25  14  18  1   
 26  15  16  ar  
 27  15  28  1   
 28  16  19  1   
 29  17  20  1   
 30  17  29  1   
 31  17  30  1   
 32  18  31  1   
 33  18  32  1   
 34  18  33  1   
 35  20  34  1   
 36  20  35  1   
 37  20  36  1   
@<TRIPOS>SUBSTRUCTURE
  1 ****   4 GROUP 4 **** **** 0

# MOE 2024.06 (io_trps.svl 2023.06)
