@<TRIPOS>MOLECULE
2-Ethylamino-6-methyl-10-oxo-10H-1,9,10a-triaza-anthracene-3-carboxylic acid cyc
54 57 1 0 0 
SMALL
USER_CHARGES


@<TRIPOS>ATOM
  1 O       -0.0680    -0.2110    -0.2780 O.2   1 <1>  -0.5700 
  2 C        0.0370    -1.4140    -0.2050 C.2   1 <1>   0.8650 
  3 N       -1.1300    -2.1830    -0.0360 N.pl3 1 <1>  -0.5760 
  4 C        1.3190    -2.0370    -0.2800 C.ar  1 <1>   0.0860 
  5 C       -1.0390    -3.5290     0.0760 C.cat 1 <1>   0.7390 
  6 C       -2.3710    -1.5870     0.0200 C.2   1 <1>   0.1910 
  7 C        1.3390    -3.4200    -0.1570 C.ar  1 <1>   0.6590 
  8 C        2.5350    -1.3900    -0.4650 C.ar  1 <1>  -0.1500 
  9 N        0.1740    -4.0960     0.0190 N.pl3 1 <1>  -0.6530 
 10 C       -2.1970    -4.2990     0.2470 C.2   1 <1>  -0.1800 
 11 C       -3.5160    -2.3200     0.1860 C.2   1 <1>  -0.1380 
 12 N        2.4070    -4.1750    -0.1930 N.ar  1 <1>  -0.6200 
 13 C        3.6950    -2.1460    -0.5160 C.ar  1 <1>   0.0860 
 14 C       -3.4320    -3.7110     0.3040 C.2   1 <1>  -0.1500 
 15 C       -4.8870    -1.6650     0.2490 C.3   1 <1>  -0.1020 
 16 C        3.5650    -3.5490    -0.3750 C.ar  1 <1>   0.4100 
 17 C        4.9820    -1.5190    -0.7080 C.2   1 <1>   0.5440 
 18 N        4.6660    -4.3530    -0.4200 N.pl3 1 <1>  -0.8690 
 19 O        5.8190    -2.0180    -1.4360 O.2   1 <1>  -0.5700 
 20 N        5.2780    -0.3400    -0.0810 N.am  1 <1>  -0.7300 
 21 C        4.7290    -5.8220    -0.3110 C.3   1 <1>   0.2090 
 22 C        6.5470     0.3990    -0.2180 C.3   1 <1>   0.2200 
 23 C        6.1200    -6.1980     0.1810 C.3   1 <1>  -0.2400 
 24 C        7.3490     0.2490     1.0790 C.3   1 <1>  -0.1600 
 25 C        6.2330     1.8700    -0.5120 C.3   1 <1>  -0.1600 
 26 C        8.6340     1.0880     1.0370 C.3   1 <1>  -0.1600 
 27 C        7.5170     2.7110    -0.5580 C.3   1 <1>  -0.1600 
 28 C        8.3260     2.5620     0.7380 C.3   1 <1>  -0.1600 
 29 H       -2.4330    -0.5110    -0.0710 H     1 <1>   0.1500 
 30 H        2.5730    -0.3180    -0.5790 H     1 <1>   0.1500 
 31 H        0.2940    -5.1070     0.0960 H     1 <1>   0.4500 
 32 H       -2.1070    -5.3670     0.3350 H     1 <1>   0.1500 
 33 H       -4.3300    -4.2950     0.4350 H     1 <1>   0.1500 
 34 H       -5.5120    -2.0390    -0.5430 H     1 <1>   0.0800 
 35 H       -4.8150    -0.5970     0.1460 H     1 <1>   0.0800 
 36 H       -5.3590    -1.8840     1.1900 H     1 <1>   0.0800 
 37 H        5.5330    -3.9160    -0.7810 H     1 <1>   0.4000 
 38 H        4.6640     0.0320     0.6410 H     1 <1>   0.3700 
 39 H        4.5440    -6.2620    -1.2770 H     1 <1>   0.0800 
 40 H        3.9860    -6.1760     0.3840 H     1 <1>   0.0800 
 41 H        7.1230    -0.0050    -1.0350 H     1 <1>   0.0800 
 42 H        6.8670    -5.8660    -0.5190 H     1 <1>   0.0800 
 43 H        6.1940    -7.2660     0.2770 H     1 <1>   0.0800 
 44 H        6.3060    -5.7540     1.1420 H     1 <1>   0.0800 
 45 H        7.6060    -0.7860     1.2180 H     1 <1>   0.0800 
 46 H        6.7510     0.5690     1.9150 H     1 <1>   0.0800 
 47 H        5.5880     2.2630     0.2540 H     1 <1>   0.0800 
 48 H        5.7290     1.9430    -1.4590 H     1 <1>   0.0800 
 49 H        9.2870     0.7000     0.2730 H     1 <1>   0.0800 
 50 H        9.1480     1.0100     1.9800 H     1 <1>   0.0800 
 51 H        7.2650     3.7470    -0.7090 H     1 <1>   0.0800 
 52 H        8.1200     2.3940    -1.3920 H     1 <1>   0.0800 
 53 H        9.2470     3.1120     0.6530 H     1 <1>   0.0800 
 54 H        7.7670     2.9820     1.5570 H     1 <1>   0.0800 
@<TRIPOS>BOND
  1   1   2  2   
  2   2   3  1   
  3   2   4  1   
  4   3   5  ar  
  5   3   6  1   
  6   4   7  ar  
  7   4   8  ar  
  8   5   9  ar  
  9   5  10  1   
 10   6  11  2   
 11   6  29  1   
 12   7   9  1   
 13   7  12  ar  
 14   8  13  ar  
 15   8  30  1   
 16   9  31  1   
 17  10  14  2   
 18  10  32  1   
 19  11  14  1   
 20  11  15  1   
 21  12  16  ar  
 22  13  16  ar  
 23  13  17  1   
 24  14  33  1   
 25  15  34  1   
 26  15  35  1   
 27  15  36  1   
 28  16  18  1   
 29  17  19  2   
 30  17  20  am  
 31  18  21  1   
 32  18  37  1   
 33  20  22  1   
 34  20  38  1   
 35  21  23  1   
 36  21  39  1   
 37  21  40  1   
 38  22  24  1   
 39  22  25  1   
 40  22  41  1   
 41  23  42  1   
 42  23  43  1   
 43  23  44  1   
 44  24  26  1   
 45  24  45  1   
 46  24  46  1   
 47  25  27  1   
 48  25  47  1   
 49  25  48  1   
 50  26  28  1   
 51  26  49  1   
 52  26  50  1   
 53  27  28  1   
 54  27  51  1   
 55  27  52  1   
 56  28  53  1   
 57  28  54  1   
@<TRIPOS>SUBSTRUCTURE
  1 ****   8 GROUP 4 **** **** 0

# MOE 2024.06 (io_trps.svl 2023.06)
