@<TRIPOS>MOLECULE
4-Amino-1-phenethyl-pyrrolidin-2-one
32 33 1 0 0 
SMALL
USER_CHARGES


@<TRIPOS>ATOM
  1 O       -1.8660     0.0330     2.1360 O.2   1 <1>  -0.5700 
  2 C       -2.1160    -0.2110     0.9870 C.2   1 <1>   0.5690 
  3 N       -2.4790     0.6820     0.0390 N.am  1 <1>  -0.6600 
  4 C       -2.1290    -1.6070     0.4330 C.3   1 <1>  -0.0990 
  5 C       -2.7390     0.0200    -1.2500 C.3   1 <1>   0.1400 
  6 C       -2.4470     2.1620     0.1940 C.3   1 <1>   0.1400 
  7 C       -3.0000    -1.4390    -0.8150 C.3   1 <1>   0.4230 
  8 C       -1.0790     2.7180    -0.2050 C.3   1 <1>  -0.0170 
  9 N       -4.4230    -1.5840    -0.4020 N.4   1 <1>  -0.8530 
 10 C       -1.0810     4.2310    -0.0730 C.ar  1 <1>  -0.1440 
 11 C       -1.3160     5.0360    -1.1770 C.ar  1 <1>  -0.1500 
 12 C       -0.8530     4.8190     1.1620 C.ar  1 <1>  -0.1500 
 13 C       -1.3250     6.4140    -1.0480 C.ar  1 <1>  -0.1500 
 14 C       -0.8620     6.1970     1.2920 C.ar  1 <1>  -0.1500 
 15 C       -1.0980     6.9960     0.1870 C.ar  1 <1>  -0.1500 
 16 H       -2.5130    -2.3180     1.1420 H     1 <1>   0.0800 
 17 H       -1.1230    -1.8720     0.1640 H     1 <1>   0.0800 
 18 H       -1.8560     0.0840    -1.8650 H     1 <1>   0.0800 
 19 H       -3.5760     0.4590    -1.7640 H     1 <1>   0.0800 
 20 H       -2.6400     2.4150     1.2240 H     1 <1>   0.0800 
 21 H       -3.2160     2.6120    -0.4100 H     1 <1>   0.0800 
 22 H       -2.7500    -2.1470    -1.5900 H     1 <1>   0.0800 
 23 H       -0.8490     2.4460    -1.2180 H     1 <1>   0.0800 
 24 H       -0.3220     2.3060     0.4400 H     1 <1>   0.0800 
 25 H       -4.6410    -0.8570     0.2960 H     1 <1>   0.4500 
 26 H       -4.5990    -2.4980     0.0300 H     1 <1>   0.4500 
 27 H       -5.0680    -1.4680    -1.1910 H     1 <1>   0.4500 
 28 H       -1.4920     4.6000    -2.1440 H     1 <1>   0.1500 
 29 H       -0.6670     4.2090     2.0290 H     1 <1>   0.1500 
 30 H       -1.5070     7.0350    -1.9080 H     1 <1>   0.1500 
 31 H       -0.6840     6.6480     2.2530 H     1 <1>   0.1500 
 32 H       -1.1050     8.0670     0.2880 H     1 <1>   0.1500 
@<TRIPOS>BOND
  1   1   2  2   
  2   2   3  am  
  3   2   4  1   
  4   3   5  1   
  5   3   6  1   
  6   4   7  1   
  7   4  16  1   
  8   4  17  1   
  9   5   7  1   
 10   5  18  1   
 11   5  19  1   
 12   6   8  1   
 13   6  20  1   
 14   6  21  1   
 15   7   9  1   
 16   7  22  1   
 17   8  10  1   
 18   8  23  1   
 19   8  24  1   
 20   9  25  1   
 21   9  26  1   
 22   9  27  1   
 23  10  11  ar  
 24  10  12  ar  
 25  11  13  ar  
 26  11  28  1   
 27  12  14  ar  
 28  12  29  1   
 29  13  15  ar  
 30  13  30  1   
 31  14  15  ar  
 32  14  31  1   
 33  15  32  1   
@<TRIPOS>SUBSTRUCTURE
  1 ****   6 GROUP 4 **** **** 0

# MOE 2024.06 (io_trps.svl 2023.06)
