@<TRIPOS>MOLECULE
8-Cyclohexylamino-7-(2-hydroxy-3-p-tolyloxy-propyl)-1,3-dimethyl-3,7-dihydro-pur
64 67 1 0 0 
SMALL
USER_CHARGES


@<TRIPOS>ATOM
  1 O        0.6270     0.6940    -0.9730 O.2   1 <1>  -0.5730 
  2 C        1.7460     1.0820    -0.7070 C.2   1 <1>   0.6870 
  3 N        1.9780     2.4360    -0.4880 N.am  1 <1>  -0.4240 
  4 N        2.7910     0.1720    -0.6230 N.am  1 <1>  -0.4400 
  5 C        3.2510     2.9090    -0.2010 C.2   1 <1>   0.7000 
  6 C        0.8310     3.3920    -0.6010 C.3   1 <1>   0.0540 
  7 C        4.0460     0.6530    -0.2990 C.2   1 <1>   0.4220 
  8 C        2.5570    -1.2850    -0.8540 C.3   1 <1>   0.0540 
  9 O        3.4580     4.1030    -0.0580 O.2   1 <1>  -0.5730 
 10 C        4.3170     1.9580    -0.0850 C.2   1 <1>   0.2720 
 11 N        5.1960    -0.0580    -0.1510 N.pl3 1 <1>  -0.7030 
 12 N        5.6940     2.0350     0.2120 N.pl3 1 <1>  -0.7660 
 13 C        6.1740     0.7930     0.1340 C.cat 1 <1>   1.0690 
 14 C        6.4060     3.2850     0.6370 C.3   1 <1>   0.3490 
 15 N        7.4410     0.4550     0.2980 N.pl3 1 <1>  -0.7170 
 16 C        7.4000     3.8030    -0.4210 C.3   1 <1>   0.1950 
 17 C        8.0580    -0.8760     0.2610 C.3   1 <1>   0.2420 
 18 O        8.4370     2.8850    -0.5920 O.3   1 <1>  -0.6830 
 19 C        8.0100     5.1540    -0.0290 C.3   1 <1>   0.1140 
 20 C        9.1670    -0.9470     1.3240 C.3   1 <1>  -0.1660 
 21 C        8.6070    -1.1350    -1.1440 C.3   1 <1>  -0.1660 
 22 O        9.0730     5.4410    -0.9140 O.3   1 <1>  -0.3670 
 23 C       10.2850    -1.9460     0.9670 C.3   1 <1>  -0.1660 
 24 C        9.2050    -2.5500    -1.2550 C.3   1 <1>  -0.1660 
 25 C        9.8110     6.5720    -0.7790 C.ar  1 <1>   0.0760 
 26 C        9.7690    -3.0820     0.0760 C.3   1 <1>  -0.1660 
 27 C        9.5730     7.5410     0.1920 C.ar  1 <1>  -0.1560 
 28 C       10.8570     6.7460    -1.6700 C.ar  1 <1>  -0.1560 
 29 C       10.3790     8.6640     0.2600 C.ar  1 <1>  -0.1560 
 30 C       11.6600     7.8700    -1.5980 C.ar  1 <1>  -0.1560 
 31 C       11.4240     8.8360    -0.6330 C.ar  1 <1>  -0.1490 
 32 C       12.3060    10.0680    -0.5520 C.3   1 <1>  -0.1020 
 33 H       -0.0550     2.9600    -0.1680 H     1 <1>   0.0740 
 34 H        0.6410     3.6050    -1.6380 H     1 <1>   0.0740 
 35 H        1.0400     4.3130    -0.0860 H     1 <1>   0.0740 
 36 H        1.6620    -1.4390    -1.4340 H     1 <1>   0.0740 
 37 H        2.4420    -1.7880     0.0910 H     1 <1>   0.0740 
 38 H        3.3800    -1.7170    -1.3940 H     1 <1>   0.0740 
 39 H        5.3250    -1.0580    -0.2680 H     1 <1>   0.4460 
 40 H        6.9380     3.0980     1.5550 H     1 <1>   0.0740 
 41 H        5.6900     4.0590     0.8450 H     1 <1>   0.0740 
 42 H        8.1120     1.2320     0.2000 H     1 <1>   0.4460 
 43 H        6.8950     3.9170    -1.3650 H     1 <1>   0.0740 
 44 H        7.3210    -1.6300     0.4850 H     1 <1>   0.0740 
 45 H        9.1690     3.3610    -1.0570 H     1 <1>   0.3960 
 46 H        8.4040     5.1210     0.9720 H     1 <1>   0.0740 
 47 H        7.2780     5.9390    -0.1090 H     1 <1>   0.0740 
 48 H        9.6220     0.0180     1.4670 H     1 <1>   0.0740 
 49 H        8.7220    -1.2440     2.2570 H     1 <1>   0.0740 
 50 H        9.3840    -0.4170    -1.3510 H     1 <1>   0.0740 
 51 H        7.8370    -1.0200    -1.8860 H     1 <1>   0.0740 
 52 H       10.7130    -2.3500     1.8690 H     1 <1>   0.0740 
 53 H       11.0710    -1.4290     0.4410 H     1 <1>   0.0740 
 54 H        8.4570    -3.2380    -1.6090 H     1 <1>   0.0740 
 55 H        9.9920    -2.5310    -1.9910 H     1 <1>   0.0740 
 56 H        9.0010    -3.6190     0.6060 H     1 <1>   0.0740 
 57 H       10.5660    -3.7780    -0.1260 H     1 <1>   0.0740 
 58 H        8.7730     7.4480     0.9000 H     1 <1>   0.1440 
 59 H       11.0410     6.0000    -2.4210 H     1 <1>   0.1440 
 60 H       10.1890     9.4080     1.0140 H     1 <1>   0.1440 
 61 H       12.4700     7.9910    -2.2960 H     1 <1>   0.1440 
 62 H       11.7490    10.9050    -0.1720 H     1 <1>   0.0740 
 63 H       12.6830    10.3250    -1.5260 H     1 <1>   0.0740 
 64 H       13.1370     9.8770     0.1030 H     1 <1>   0.0740 
@<TRIPOS>BOND
  1   1   2  2   
  2   2   3  am  
  3   2   4  am  
  4   3   5  am  
  5   3   6  1   
  6   4   7  1   
  7   4   8  1   
  8   5   9  2   
  9   5  10  1   
 10   6  33  1   
 11   6  34  1   
 12   6  35  1   
 13   7  10  2   
 14   7  11  1   
 15   8  36  1   
 16   8  37  1   
 17   8  38  1   
 18  10  12  1   
 19  11  13  ar  
 20  11  39  1   
 21  12  13  ar  
 22  12  14  1   
 23  13  15  ar  
 24  14  16  1   
 25  14  40  1   
 26  14  41  1   
 27  15  17  1   
 28  15  42  1   
 29  16  18  1   
 30  16  19  1   
 31  16  43  1   
 32  17  20  1   
 33  17  21  1   
 34  17  44  1   
 35  18  45  1   
 36  19  22  1   
 37  19  46  1   
 38  19  47  1   
 39  20  23  1   
 40  20  48  1   
 41  20  49  1   
 42  21  24  1   
 43  21  50  1   
 44  21  51  1   
 45  22  25  1   
 46  23  26  1   
 47  23  52  1   
 48  23  53  1   
 49  24  26  1   
 50  24  54  1   
 51  24  55  1   
 52  25  27  ar  
 53  25  28  ar  
 54  26  56  1   
 55  26  57  1   
 56  27  29  ar  
 57  27  58  1   
 58  28  30  ar  
 59  28  59  1   
 60  29  31  ar  
 61  29  60  1   
 62  30  31  ar  
 63  30  61  1   
 64  31  32  1   
 65  32  62  1   
 66  32  63  1   
 67  32  64  1   
@<TRIPOS>SUBSTRUCTURE
  1 ****  14 GROUP 4 **** **** 0

# MOE 2024.06 (io_trps.svl 2023.06)
