@<TRIPOS>MOLECULE
3-Methyl-6-(3,4,5-trimethoxy-phenyl)-[1,2,4]triazolo[3,4-b][1,3,4]thiadiazole
35 37 1 0 0 
SMALL
USER_CHARGES


@<TRIPOS>ATOM
  1 S        0.2250    -0.0750    -0.2140 S.3   1 <1>  -0.1970 
  2 C       -1.3640    -0.7860    -0.0890 C.2   1 <1>   0.2420 
  3 C       -0.5050     1.5450     0.0030 C.2   1 <1>   0.5050 
  4 N       -1.8600    -1.9710    -0.1280 N.2   1 <1>  -0.3380 
  5 N       -2.2400     0.1830     0.0920 N.pl3 1 <1>   0.5050 
  6 N       -1.7830     1.5000     0.1460 N.2   1 <1>  -0.6520 
  7 C        0.3600     2.7090    -0.0020 C.ar  1 <1>   0.0860 
  8 N       -3.1850    -1.7850     0.0400 N.2   1 <1>  -0.3380 
  9 C       -3.3890    -0.5090     0.1680 C.2   1 <1>   0.0060 
 10 C       -0.1930     3.9810     0.1460 C.ar  1 <1>  -0.1500 
 11 C        1.7490     2.6370    -0.1510 C.ar  1 <1>  -0.1500 
 12 C       -4.7410     0.1450     0.3780 C.3   1 <1>  -0.0600 
 13 C        0.5750     5.1300     0.1470 C.ar  1 <1>   0.0830 
 14 C        2.5490     3.7750    -0.1460 C.ar  1 <1>   0.0830 
 15 O       -0.1100     6.2970     0.2890 O.3   1 <1>  -0.3630 
 16 C        1.9640     5.0320     0.0180 C.ar  1 <1>   0.0830 
 17 O        3.9040     3.7110    -0.2940 O.3   1 <1>  -0.3630 
 18 C        0.2530     7.4210    -0.4850 C.3   1 <1>   0.0400 
 19 O        2.7500     6.1400     0.0520 O.3   1 <1>  -0.3630 
 20 C        4.5560     2.5380    -0.7300 C.3   1 <1>   0.0400 
 21 C        3.3960     6.3950     1.2770 C.3   1 <1>   0.0400 
 22 H       -1.2580     4.0870     0.2620 H     1 <1>   0.1500 
 23 H        2.2100     1.6770    -0.2660 H     1 <1>   0.1500 
 24 H       -4.7470     0.6860     1.3070 H     1 <1>   0.0800 
 25 H       -5.5110    -0.6050     0.4060 H     1 <1>   0.0800 
 26 H       -4.9490     0.8260    -0.4270 H     1 <1>   0.0800 
 27 H       -0.6030     8.0680    -0.5600 H     1 <1>   0.0800 
 28 H        0.5570     7.0950    -1.4640 H     1 <1>   0.0800 
 29 H        1.0550     7.9400     0.0070 H     1 <1>   0.0800 
 30 H        5.5940     2.7720    -0.8810 H     1 <1>   0.0800 
 31 H        4.1160     2.2180    -1.6580 H     1 <1>   0.0800 
 32 H        4.4610     1.7810     0.0270 H     1 <1>   0.0800 
 33 H        3.9520     7.3090     1.1800 H     1 <1>   0.0800 
 34 H        4.0640     5.5810     1.5000 H     1 <1>   0.0800 
 35 H        2.6520     6.4940     2.0480 H     1 <1>   0.0800 
@<TRIPOS>BOND
  1   1   2  1   
  2   1   3  1   
  3   2   4  2   
  4   2   5  1   
  5   3   6  2   
  6   3   7  1   
  7   4   8  1   
  8   5   6  1   
  9   5   9  1   
 10   7  10  ar  
 11   7  11  ar  
 12   8   9  2   
 13   9  12  1   
 14  10  13  ar  
 15  10  22  1   
 16  11  14  ar  
 17  11  23  1   
 18  12  24  1   
 19  12  25  1   
 20  12  26  1   
 21  13  15  1   
 22  13  16  ar  
 23  14  16  ar  
 24  14  17  1   
 25  15  18  1   
 26  16  19  1   
 27  17  20  1   
 28  18  27  1   
 29  18  28  1   
 30  18  29  1   
 31  19  21  1   
 32  20  30  1   
 33  20  31  1   
 34  20  32  1   
 35  21  33  1   
 36  21  34  1   
 37  21  35  1   
@<TRIPOS>SUBSTRUCTURE
  1 ****   7 GROUP 4 **** **** 0

# MOE 2024.06 (io_trps.svl 2023.06)
