@<TRIPOS>MOLECULE
2-(6-Methyl-3-oxo-2,3-dihydro-benzo[1,4]oxazin-4-yl)-propionic acid
29 30 1 0 0 
SMALL
USER_CHARGES


@<TRIPOS>ATOM
  1 O        0.4080     0.1580    -0.3460 O.2   1 <1>  -0.5700 
  2 C        1.5170     0.6350    -0.4400 C.2   1 <1>   0.5690 
  3 N        2.7130    -0.0130    -0.1730 N.am  1 <1>  -0.4770 
  4 C        1.5530     2.1110    -0.8120 C.3   1 <1>   0.1810 
  5 C        3.9320     0.7010    -0.3980 C.ar  1 <1>   0.1170 
  6 C        2.8200    -1.4940     0.2110 C.3   1 <1>   0.1140 
  7 O        2.7460     2.5160    -1.4570 O.3   1 <1>  -0.3630 
  8 C        3.9050     1.9490    -1.0420 C.ar  1 <1>   0.0820 
  9 C        5.1870     0.2220    -0.0180 C.ar  1 <1>  -0.1500 
 10 C        3.5000    -2.3850    -0.8540 C.2   1 <1>   0.9060 
 11 C        1.5280    -2.1540     0.7310 C.3   1 <1>  -0.2400 
 12 C        5.0650     2.6620    -1.2880 C.ar  1 <1>  -0.1500 
 13 C        6.3530     0.9320    -0.2610 C.ar  1 <1>  -0.1440 
 14 O        4.5550    -2.9570    -0.5380 O.co2 1 <1>  -0.9000 
 15 O        2.9840    -2.5520    -1.9680 O.co2 1 <1>  -0.9000 
 16 C        6.2900     2.1580    -0.8960 C.ar  1 <1>  -0.1500 
 17 C        7.6860     0.3420     0.1610 C.3   1 <1>  -0.0970 
 18 H        1.4510     2.6970     0.0810 H     1 <1>   0.0800 
 19 H        0.7370     2.3330    -1.4740 H     1 <1>   0.0800 
 20 H        3.4760    -1.5310     1.0580 H     1 <1>   0.0800 
 21 H        5.2890    -0.7300     0.4670 H     1 <1>   0.1500 
 22 H        0.8360    -2.2970    -0.0800 H     1 <1>   0.0800 
 23 H        1.0800    -1.5620     1.5070 H     1 <1>   0.0800 
 24 H        1.7640    -3.1240     1.1290 H     1 <1>   0.0800 
 25 H        5.0020     3.6100    -1.7890 H     1 <1>   0.1500 
 26 H        7.1870     2.7180    -1.0920 H     1 <1>   0.1500 
 27 H        7.6980    -0.7150    -0.0410 H     1 <1>   0.0800 
 28 H        7.8360     0.4960     1.2140 H     1 <1>   0.0800 
 29 H        8.4940     0.8000    -0.3800 H     1 <1>   0.0800 
@<TRIPOS>BOND
  1   1   2  2   
  2   2   3  am  
  3   2   4  1   
  4   3   5  1   
  5   3   6  1   
  6   4   7  1   
  7   4  18  1   
  8   4  19  1   
  9   5   8  ar  
 10   5   9  ar  
 11   6  10  1   
 12   6  11  1   
 13   6  20  1   
 14   7   8  1   
 15   8  12  ar  
 16   9  13  ar  
 17   9  21  1   
 18  10  14  ar  
 19  10  15  ar  
 20  11  22  1   
 21  11  23  1   
 22  11  24  1   
 23  12  16  ar  
 24  12  25  1   
 25  13  16  ar  
 26  13  17  1   
 27  16  26  1   
 28  17  27  1   
 29  17  28  1   
 30  17  29  1   
@<TRIPOS>SUBSTRUCTURE
  1 ****   5 GROUP 4 **** **** 0

# MOE 2024.06 (io_trps.svl 2023.06)
