@<TRIPOS>MOLECULE
8-(2-Hydroxy-propylamino)-7-[2-(4-methoxy-phenyl)-ethyl]-3-methyl-3,7-dihydro-pu
51 53 1 0 0 
SMALL
USER_CHARGES


@<TRIPOS>ATOM
  1 O        0.7290     0.4310    -0.5110 O.2   1 <1>  -0.5750 
  2 C        1.7970     0.9590    -0.3090 C.2   1 <1>   0.6860 
  3 N        2.9570     0.2270    -0.0950 N.am  1 <1>  -0.4420 
  4 N        1.8540     2.3220    -0.2920 N.am  1 <1>  -0.4950 
  5 C        4.1280     0.9320     0.1390 C.2   1 <1>   0.4200 
  6 C        2.9390    -1.2660    -0.1040 C.3   1 <1>   0.0520 
  7 C        2.9990     3.0320    -0.0680 C.2   1 <1>   0.6990 
  8 N        5.3730     0.4310     0.3700 N.pl3 1 <1>  -0.7040 
  9 C        4.1980     2.2830     0.1670 C.2   1 <1>   0.2700 
 10 O        2.9540     4.2460    -0.0840 O.2   1 <1>  -0.5750 
 11 C        6.2020     1.4560     0.5380 C.cat 1 <1>   1.0690 
 12 N        5.5410     2.6040     0.4340 N.pl3 1 <1>  -0.7670 
 13 N        7.5030     1.3570     0.7580 N.pl3 1 <1>  -0.7180 
 14 C        6.0710     3.9890     0.5480 C.3   1 <1>   0.3480 
 15 C        8.4360     0.2130     0.6280 C.3   1 <1>   0.1600 
 16 C        6.5260     4.4970    -0.8190 C.3   1 <1>  -0.0250 
 17 C        9.6540     0.6660    -0.2050 C.3   1 <1>   0.1930 
 18 C        7.3320     5.7660    -0.6290 C.ar  1 <1>  -0.1510 
 19 O        9.9620     1.9780     0.1370 O.3   1 <1>  -0.6840 
 20 C        9.3730     0.6610    -1.7060 C.3   1 <1>  -0.2470 
 21 C        8.7150     5.7100    -0.5340 C.ar  1 <1>  -0.1570 
 22 C        6.6900     6.9900    -0.5310 C.ar  1 <1>  -0.1570 
 23 C        9.4500     6.8650    -0.3370 C.ar  1 <1>  -0.1570 
 24 C        7.4240     8.1450    -0.3340 C.ar  1 <1>  -0.1570 
 25 C        8.8040     8.0940    -0.2340 C.ar  1 <1>   0.0750 
 26 O        9.4480     9.2710    -0.0370 O.3   1 <1>  -0.3680 
 27 C       10.8530     9.3300     0.0580 C.3   1 <1>   0.0320 
 28 H        0.9870     2.8290    -0.4580 H     1 <1>   0.3640 
 29 H        1.9760    -1.6360    -0.4120 H     1 <1>   0.0720 
 30 H        3.1460    -1.6390     0.8830 H     1 <1>   0.0720 
 31 H        3.6770    -1.6390    -0.7930 H     1 <1>   0.0720 
 32 H        5.6420    -0.5460     0.4280 H     1 <1>   0.4450 
 33 H        8.0630     2.2180     0.7890 H     1 <1>   0.4450 
 34 H        6.9050     4.0020     1.2300 H     1 <1>   0.0720 
 35 H        5.3160     4.6470     0.9480 H     1 <1>   0.0720 
 36 H        7.9610    -0.6350     0.1670 H     1 <1>   0.0720 
 37 H        8.7750    -0.0790     1.6080 H     1 <1>   0.0720 
 38 H        5.6700     4.7010    -1.4390 H     1 <1>   0.0720 
 39 H        7.1380     3.7620    -1.3100 H     1 <1>   0.0720 
 40 H       10.5060     0.0440     0.0160 H     1 <1>   0.0720 
 41 H       10.8080     2.2390    -0.2880 H     1 <1>   0.3940 
 42 H        8.5530     1.3130    -1.9500 H     1 <1>   0.0720 
 43 H        9.1270    -0.3340    -2.0300 H     1 <1>   0.0720 
 44 H       10.2470     0.9750    -2.2490 H     1 <1>   0.0720 
 45 H        9.2340     4.7710    -0.6130 H     1 <1>   0.1430 
 46 H        5.6180     7.0570    -0.6080 H     1 <1>   0.1430 
 47 H       10.5190     6.7940    -0.2670 H     1 <1>   0.1430 
 48 H        6.9310     9.0970    -0.2570 H     1 <1>   0.1430 
 49 H       11.1350    10.3580     0.2000 H     1 <1>   0.0720 
 50 H       11.2800     8.9560    -0.8550 H     1 <1>   0.0720 
 51 H       11.1700     8.7440     0.9020 H     1 <1>   0.0720 
@<TRIPOS>BOND
  1   1   2  2   
  2   2   3  am  
  3   2   4  am  
  4   3   5  1   
  5   3   6  1   
  6   4   7  am  
  7   4  28  1   
  8   5   8  1   
  9   5   9  2   
 10   6  29  1   
 11   6  30  1   
 12   6  31  1   
 13   7   9  1   
 14   7  10  2   
 15   8  11  ar  
 16   8  32  1   
 17   9  12  1   
 18  11  12  ar  
 19  11  13  ar  
 20  12  14  1   
 21  13  15  1   
 22  13  33  1   
 23  14  16  1   
 24  14  34  1   
 25  14  35  1   
 26  15  17  1   
 27  15  36  1   
 28  15  37  1   
 29  16  18  1   
 30  16  38  1   
 31  16  39  1   
 32  17  19  1   
 33  17  20  1   
 34  17  40  1   
 35  18  21  ar  
 36  18  22  ar  
 37  19  41  1   
 38  20  42  1   
 39  20  43  1   
 40  20  44  1   
 41  21  23  ar  
 42  21  45  1   
 43  22  24  ar  
 44  22  46  1   
 45  23  25  ar  
 46  23  47  1   
 47  24  25  ar  
 48  24  48  1   
 49  25  26  1   
 50  26  27  1   
 51  27  49  1   
 52  27  50  1   
 53  27  51  1   
@<TRIPOS>SUBSTRUCTURE
  1 ****  14 GROUP 4 **** **** 0

# MOE 2024.06 (io_trps.svl 2023.06)
