@<TRIPOS>MOLECULE
N-[3-(4-Isopropoxy-benzoylamino)-propyl]-nicotinamide
48 49 1 0 0 
SMALL
USER_CHARGES


@<TRIPOS>ATOM
  1 O       -1.0270    -0.0210    -1.3630 O.2   1 <1>  -0.5700 
  2 C       -1.5500     0.5300    -0.4150 C.2   1 <1>   0.5440 
  3 N       -2.2100    -0.2340     0.5080 N.am  1 <1>  -0.7300 
  4 C       -1.4620     1.9680    -0.2660 C.ar  1 <1>   0.0860 
  5 C       -2.3710    -1.7030     0.4420 C.3   1 <1>   0.1400 
  6 C       -2.4850     2.7020     0.3340 C.ar  1 <1>   0.1600 
  7 C       -0.3580     2.6820    -0.7140 C.ar  1 <1>  -0.1500 
  8 C       -3.8400    -2.0290     0.1880 C.3   1 <1>  -0.1600 
  9 N       -2.4900     4.0110     0.5340 N.ar  1 <1>  -0.6200 
 10 C       -0.3430     4.0470    -0.5220 C.ar  1 <1>  -0.1500 
 11 C       -4.0440    -3.5380     0.0820 C.3   1 <1>   0.1400 
 12 C       -1.4180     4.6550     0.1010 C.ar  1 <1>   0.1600 
 13 N       -5.4840    -3.8150    -0.1050 N.am  1 <1>  -0.7300 
 14 C       -6.3480    -4.2010     0.8840 C.2   1 <1>   0.5440 
 15 O       -5.9100    -4.3350     2.0110 O.2   1 <1>  -0.5700 
 16 C       -7.7490    -4.4490     0.5960 C.ar  1 <1>   0.0860 
 17 C       -8.4980    -5.3230     1.3870 C.ar  1 <1>  -0.1500 
 18 C       -8.4100    -3.8350    -0.4720 C.ar  1 <1>  -0.1500 
 19 C       -9.8310    -5.5860     1.1250 C.ar  1 <1>  -0.1500 
 20 C       -9.7410    -4.0930    -0.7400 C.ar  1 <1>  -0.1500 
 21 C      -10.4650    -4.9710     0.0500 C.ar  1 <1>   0.0830 
 22 O      -11.7610    -5.1630    -0.2870 O.3   1 <1>  -0.3630 
 23 C      -12.6280    -6.0400     0.3980 C.3   1 <1>   0.2000 
 24 C      -12.3750    -7.4680    -0.0900 C.3   1 <1>  -0.2400 
 25 C      -14.0540    -5.5970     0.0820 C.3   1 <1>  -0.2400 
 26 H       -2.5690     0.1990     1.3610 H     1 <1>   0.3700 
 27 H       -2.0450    -2.1390     1.3720 H     1 <1>   0.0800 
 28 H       -1.7620    -2.1070    -0.3510 H     1 <1>   0.0800 
 29 H       -3.3600     2.1720     0.6640 H     1 <1>   0.1500 
 30 H        0.4580     2.1730    -1.1980 H     1 <1>   0.1500 
 31 H       -4.1510    -1.5630    -0.7300 H     1 <1>   0.0800 
 32 H       -4.4330    -1.6540     1.0030 H     1 <1>   0.0800 
 33 H        0.4930     4.6370    -0.8530 H     1 <1>   0.1500 
 34 H       -3.6950    -4.0210     0.9810 H     1 <1>   0.0800 
 35 H       -3.4920    -3.9360    -0.7520 H     1 <1>   0.0800 
 36 H       -1.3980     5.7220     0.2500 H     1 <1>   0.1500 
 37 H       -5.8280    -3.7410    -1.0630 H     1 <1>   0.3700 
 38 H       -8.0170    -5.8020     2.2230 H     1 <1>   0.1500 
 39 H       -7.8820    -3.1390    -1.0970 H     1 <1>   0.1500 
 40 H      -10.3540    -6.2680     1.7660 H     1 <1>   0.1500 
 41 H      -10.2360    -3.6140    -1.5660 H     1 <1>   0.1500 
 42 H      -12.4560    -5.9450     1.4560 H     1 <1>   0.0800 
 43 H      -12.5410    -7.5330    -1.1500 H     1 <1>   0.0800 
 44 H      -13.0440    -8.1480     0.4040 H     1 <1>   0.0800 
 45 H      -11.3670    -7.7710     0.1270 H     1 <1>   0.0800 
 46 H      -14.2380    -5.6500    -0.9760 H     1 <1>   0.0800 
 47 H      -14.2050    -4.5870     0.4190 H     1 <1>   0.0800 
 48 H      -14.7590    -6.2320     0.5870 H     1 <1>   0.0800 
@<TRIPOS>BOND
  1   1   2  2   
  2   2   3  am  
  3   2   4  1   
  4   3   5  1   
  5   3  26  1   
  6   4   6  ar  
  7   4   7  ar  
  8   5   8  1   
  9   5  27  1   
 10   5  28  1   
 11   6   9  ar  
 12   6  29  1   
 13   7  10  ar  
 14   7  30  1   
 15   8  11  1   
 16   8  31  1   
 17   8  32  1   
 18   9  12  ar  
 19  10  12  ar  
 20  10  33  1   
 21  11  13  1   
 22  11  34  1   
 23  11  35  1   
 24  12  36  1   
 25  13  14  am  
 26  13  37  1   
 27  14  15  2   
 28  14  16  1   
 29  16  17  ar  
 30  16  18  ar  
 31  17  19  ar  
 32  17  38  1   
 33  18  20  ar  
 34  18  39  1   
 35  19  21  ar  
 36  19  40  1   
 37  20  21  ar  
 38  20  41  1   
 39  21  22  1   
 40  22  23  1   
 41  23  24  1   
 42  23  25  1   
 43  23  42  1   
 44  24  43  1   
 45  24  44  1   
 46  24  45  1   
 47  25  46  1   
 48  25  47  1   
 49  25  48  1   
@<TRIPOS>SUBSTRUCTURE
  1 ****  13 GROUP 4 **** **** 0

# MOE 2024.06 (io_trps.svl 2023.06)
