@<TRIPOS>MOLECULE
4-Phenyl-tetrahydro-pyran-4-carboxylic acid (2,3-dihydro-benzo[1,4]dioxin-6-yl)-
46 49 1 0 0 
SMALL
USER_CHARGES


@<TRIPOS>ATOM
  1 O       -2.5690     1.2390     2.8560 O.2   1 <1>  -0.5700 
  2 C       -2.8240     0.5680     1.8830 C.2   1 <1>   0.5690 
  3 N       -2.9850    -0.7720     2.0930 N.am  1 <1>  -0.5470 
  4 C       -2.9480     1.2430     0.4810 C.3   1 <1>   0.2050 
  5 C       -3.1620    -1.8450     1.2140 C.ar  1 <1>   0.1170 
  6 C       -1.7260     0.8380    -0.3750 C.ar  1 <1>  -0.1440 
  7 C       -2.9390     2.7900     0.5960 C.3   1 <1>  -0.1600 
  8 C       -4.3050     0.8990    -0.1830 C.3   1 <1>  -0.1600 
  9 C       -4.3780    -2.5130     1.1810 C.ar  1 <1>  -0.1500 
 10 C       -2.1330    -2.2650     0.3790 C.ar  1 <1>  -0.1500 
 11 C       -0.4530     1.0380     0.1490 C.ar  1 <1>  -0.1500 
 12 C       -1.8270     0.2740    -1.6450 C.ar  1 <1>  -0.1500 
 13 C       -4.1940     3.3310     1.2980 C.3   1 <1>   0.1200 
 14 C       -5.4740     1.4820     0.6130 C.3   1 <1>   0.1200 
 15 C       -4.5710    -3.5700     0.3110 C.ar  1 <1>   0.0830 
 16 C       -2.3160    -3.3250    -0.4910 C.ar  1 <1>  -0.1500 
 17 C        0.6800     0.6860    -0.5630 C.ar  1 <1>  -0.1500 
 18 C       -0.6960    -0.0790    -2.3590 C.ar  1 <1>  -0.1500 
 19 O       -5.3350     2.8670     0.6440 O.3   1 <1>  -0.5600 
 20 O       -5.7810    -4.1850     0.2850 O.3   1 <1>  -0.3620 
 21 C       -3.5320    -3.9840    -0.5260 C.ar  1 <1>   0.0830 
 22 C        0.5600     0.1260    -1.8200 C.ar  1 <1>  -0.1500 
 23 C       -6.0410    -5.0430    -0.8100 C.3   1 <1>   0.1200 
 24 O       -3.6880    -5.0320    -1.3780 O.3   1 <1>  -0.3630 
 25 C       -4.7970    -5.8790    -1.1410 C.3   1 <1>   0.1200 
 26 H       -2.9050    -1.0180     3.0800 H     1 <1>   0.3700 
 27 H       -2.8860     3.2230    -0.3870 H     1 <1>   0.0800 
 28 H       -2.0710     3.1220     1.1360 H     1 <1>   0.0800 
 29 H       -4.4350    -0.1600    -0.2900 H     1 <1>   0.0800 
 30 H       -4.3520     1.3280    -1.1680 H     1 <1>   0.0800 
 31 H       -5.1820    -2.2090     1.8260 H     1 <1>   0.1500 
 32 H       -1.1840    -1.7590     0.4080 H     1 <1>   0.1500 
 33 H       -0.3290     1.4710     1.1280 H     1 <1>   0.1500 
 34 H       -2.7790     0.0870    -2.1060 H     1 <1>   0.1500 
 35 H       -4.2110     4.4060     1.2580 H     1 <1>   0.0800 
 36 H       -4.2420     3.0260     2.3290 H     1 <1>   0.0800 
 37 H       -5.5060     1.1100     1.6240 H     1 <1>   0.0800 
 38 H       -6.4090     1.2600     0.1280 H     1 <1>   0.0800 
 39 H       -1.5200    -3.6450    -1.1390 H     1 <1>   0.1500 
 40 H        1.6550     0.8490    -0.1380 H     1 <1>   0.1500 
 41 H       -0.7940    -0.5150    -3.3380 H     1 <1>   0.1500 
 42 H        1.4390    -0.1480    -2.3770 H     1 <1>   0.1500 
 43 H       -6.3180    -4.4350    -1.6530 H     1 <1>   0.0800 
 44 H       -6.8680    -5.6770    -0.5450 H     1 <1>   0.0800 
 45 H       -4.9560    -6.4710    -2.0240 H     1 <1>   0.0800 
 46 H       -4.5520    -6.5280    -0.3200 H     1 <1>   0.0800 
@<TRIPOS>BOND
  1   1   2  2   
  2   2   3  am  
  3   2   4  1   
  4   3   5  1   
  5   3  26  1   
  6   4   6  1   
  7   4   7  1   
  8   4   8  1   
  9   5   9  ar  
 10   5  10  ar  
 11   6  11  ar  
 12   6  12  ar  
 13   7  13  1   
 14   7  27  1   
 15   7  28  1   
 16   8  14  1   
 17   8  29  1   
 18   8  30  1   
 19   9  15  ar  
 20   9  31  1   
 21  10  16  ar  
 22  10  32  1   
 23  11  17  ar  
 24  11  33  1   
 25  12  18  ar  
 26  12  34  1   
 27  13  19  1   
 28  13  35  1   
 29  13  36  1   
 30  14  19  1   
 31  14  37  1   
 32  14  38  1   
 33  15  20  1   
 34  15  21  ar  
 35  16  21  ar  
 36  16  39  1   
 37  17  22  ar  
 38  17  40  1   
 39  18  22  ar  
 40  18  41  1   
 41  20  23  1   
 42  21  24  1   
 43  22  42  1   
 44  23  25  1   
 45  23  43  1   
 46  23  44  1   
 47  24  25  1   
 48  25  45  1   
 49  25  46  1   
@<TRIPOS>SUBSTRUCTURE
  1 ****   5 GROUP 4 **** **** 0

# MOE 2024.06 (io_trps.svl 2023.06)
