@<TRIPOS>MOLECULE
N-tert-Butyl-N',N'-dimethyl-6-(6-propoxy-pyridazin-3-yloxy)-[1,3,5]triazine-2,4-
50 51 1 0 0 
SMALL
USER_CHARGES


@<TRIPOS>ATOM
  1 O        0.1980    -0.2490     0.8390 O.3   1 <1>  -0.1650 
  2 C        0.7540    -1.4340     0.5380 C.ar  1 <1>   0.7020 
  3 C       -1.1250    -0.0080     0.7250 C.ar  1 <1>   0.3920 
  4 N        2.0290    -1.3870     0.2780 N.ar  1 <1>  -0.6200 
  5 N       -0.0060    -2.4990     0.5220 N.ar  1 <1>  -0.6200 
  6 N       -1.6990     0.5890     1.7680 N.ar  1 <1>  -0.3100 
  7 C       -1.8140    -0.3370    -0.4290 C.ar  1 <1>  -0.1500 
  8 C        2.5560    -2.5480    -0.0260 C.ar  1 <1>   0.7200 
  9 C        0.6370    -3.5890     0.2120 C.ar  1 <1>   0.7200 
 10 N       -2.9840     0.8670     1.7310 N.ar  1 <1>  -0.3100 
 11 C       -3.1570    -0.0450    -0.4660 C.ar  1 <1>  -0.1500 
 12 N        1.9030    -3.6790    -0.0770 N.ar  1 <1>  -0.6200 
 13 N        3.9040    -2.5750    -0.3160 N.pl3 1 <1>  -0.8380 
 14 N       -0.1460    -4.6920     0.1980 N.pl3 1 <1>  -0.8690 
 15 C       -3.7050     0.5610     0.6530 C.ar  1 <1>   0.3930 
 16 C        4.6620    -3.8520    -0.4520 C.3   1 <1>   0.1290 
 17 C        4.7090    -1.3350    -0.5100 C.3   1 <1>   0.1290 
 18 C        0.2130    -6.1060     0.2780 C.3   1 <1>   0.3690 
 19 O       -5.0150     0.8910     0.7340 O.3   1 <1>  -0.3630 
 20 C        0.8830    -6.5480    -1.0230 C.3   1 <1>  -0.2400 
 21 C       -1.1020    -6.8620     0.4520 C.3   1 <1>  -0.2400 
 22 C        1.1070    -6.3590     1.4920 C.3   1 <1>  -0.2400 
 23 C       -5.9290     0.6300    -0.3050 C.3   1 <1>   0.1200 
 24 C       -7.3060     1.1260     0.1350 C.3   1 <1>  -0.1600 
 25 C       -8.3630     0.8780    -0.9470 C.3   1 <1>  -0.2400 
 26 H       -1.3180    -0.8040    -1.2600 H     1 <1>   0.1500 
 27 H       -3.7340    -0.2870    -1.3370 H     1 <1>   0.1500 
 28 H       -1.0870    -4.4970     0.5260 H     1 <1>   0.4000 
 29 H        4.2190    -4.6250     0.1520 H     1 <1>   0.0800 
 30 H        5.6790    -3.7160    -0.1300 H     1 <1>   0.0800 
 31 H        4.6530    -4.1670    -1.4810 H     1 <1>   0.0800 
 32 H        4.0910    -0.5320    -0.8750 H     1 <1>   0.0800 
 33 H        5.4900    -1.5090    -1.2290 H     1 <1>   0.0800 
 34 H        5.1470    -1.0400     0.4270 H     1 <1>   0.0800 
 35 H        0.2590    -6.3060    -1.8640 H     1 <1>   0.0800 
 36 H        1.0490    -7.6090    -1.0120 H     1 <1>   0.0800 
 37 H        1.8350    -6.0660    -1.1460 H     1 <1>   0.0800 
 38 H       -0.9150    -7.9200     0.5070 H     1 <1>   0.0800 
 39 H       -1.7530    -6.6790    -0.3840 H     1 <1>   0.0800 
 40 H       -1.5940    -6.5610     1.3580 H     1 <1>   0.0800 
 41 H        1.2800    -7.4120     1.6100 H     1 <1>   0.0800 
 42 H        0.6400    -5.9860     2.3860 H     1 <1>   0.0800 
 43 H        2.0610    -5.8810     1.3710 H     1 <1>   0.0800 
 44 H       -5.9490    -0.4320    -0.4840 H     1 <1>   0.0800 
 45 H       -5.6030     1.1540    -1.1870 H     1 <1>   0.0800 
 46 H       -7.2520     2.1810     0.3430 H     1 <1>   0.0800 
 47 H       -7.5950     0.6140     1.0370 H     1 <1>   0.0800 
 48 H       -8.1030     1.3960    -1.8540 H     1 <1>   0.0800 
 49 H       -9.3210     1.2360    -0.6130 H     1 <1>   0.0800 
 50 H       -8.4470    -0.1740    -1.1590 H     1 <1>   0.0800 
@<TRIPOS>BOND
  1   1   2  1   
  2   1   3  1   
  3   2   4  ar  
  4   2   5  ar  
  5   3   6  ar  
  6   3   7  ar  
  7   4   8  ar  
  8   5   9  ar  
  9   6  10  ar  
 10   7  11  ar  
 11   7  26  1   
 12   8  12  ar  
 13   8  13  1   
 14   9  12  ar  
 15   9  14  1   
 16  10  15  ar  
 17  11  15  ar  
 18  11  27  1   
 19  13  16  1   
 20  13  17  1   
 21  14  18  1   
 22  14  28  1   
 23  15  19  1   
 24  16  29  1   
 25  16  30  1   
 26  16  31  1   
 27  17  32  1   
 28  17  33  1   
 29  17  34  1   
 30  18  20  1   
 31  18  21  1   
 32  18  22  1   
 33  19  23  1   
 34  20  35  1   
 35  20  36  1   
 36  20  37  1   
 37  21  38  1   
 38  21  39  1   
 39  21  40  1   
 40  22  41  1   
 41  22  42  1   
 42  22  43  1   
 43  23  24  1   
 44  23  44  1   
 45  23  45  1   
 46  24  25  1   
 47  24  46  1   
 48  24  47  1   
 49  25  48  1   
 50  25  49  1   
 51  25  50  1   
@<TRIPOS>SUBSTRUCTURE
  1 ****   5 GROUP 4 **** **** 0

# MOE 2024.06 (io_trps.svl 2023.06)
