@<TRIPOS>MOLECULE
8-(3-Chloro-phenyl)-3-(2-ethoxy-ethyl)-1-methyl-5,6,7,8-tetrahydro-1H-1,3,4b,8,9
51 54 1 0 0 
SMALL
USER_CHARGES


@<TRIPOS>ATOM
  1 CL      -3.2510    -2.1370     2.8030 Cl    1 <1>  -0.1840 
  2 C       -3.4920    -1.5120     1.1940 C.ar  1 <1>   0.1700 
  3 C       -4.2600    -0.3790     1.0270 C.ar  1 <1>  -0.1570 
  4 C       -2.9180    -2.1620     0.1180 C.ar  1 <1>  -0.1570 
  5 C       -4.4770     0.1180    -0.2510 C.ar  1 <1>   0.3050 
  6 C       -3.1210    -1.6620    -1.1580 C.ar  1 <1>  -0.1570 
  7 N       -5.2870     1.2430    -0.4400 N.pl3 1 <1>  -0.5800 
  8 C       -3.8960    -0.5280    -1.3370 C.ar  1 <1>  -0.1570 
  9 C       -6.6110     1.2480    -0.1910 C.cat 1 <1>   1.0690 
 10 C       -4.6410     2.4810    -0.9620 C.3   1 <1>   0.1610 
 11 N       -7.3570     0.2100     0.1820 N.pl3 1 <1>  -0.7040 
 12 N       -7.3680     2.3330    -0.2950 N.pl3 1 <1>  -0.7670 
 13 C       -5.3680     3.7310    -0.4430 C.3   1 <1>  -0.1670 
 14 C       -8.6400     0.6470     0.3230 C.2   1 <1>   0.4210 
 15 C       -8.6820     1.9650     0.0300 C.2   1 <1>   0.2710 
 16 C       -6.8800     3.6710    -0.6880 C.3   1 <1>   0.3480 
 17 N       -9.7500    -0.0860     0.6930 N.am  1 <1>  -0.4410 
 18 C       -9.9340     2.6530     0.0960 C.2   1 <1>   0.6990 
 19 C      -10.9770     0.5640     0.7380 C.2   1 <1>   0.6860 
 20 C       -9.6470    -1.5430     1.0040 C.3   1 <1>   0.0520 
 21 O      -10.0120     3.8360    -0.1870 O.2   1 <1>  -0.5740 
 22 N      -11.0540     1.9290     0.4810 N.am  1 <1>  -0.4260 
 23 O      -11.9820    -0.0660     0.9890 O.2   1 <1>  -0.5740 
 24 C      -12.3730     2.6250     0.6210 C.3   1 <1>   0.1330 
 25 C      -13.1950     2.4960    -0.6610 C.3   1 <1>   0.1130 
 26 O      -14.3710     3.2130    -0.4880 O.3   1 <1>  -0.5650 
 27 C      -15.2370     3.1450    -1.5700 C.3   1 <1>   0.1130 
 28 C      -16.4650     3.9780    -1.2300 C.3   1 <1>  -0.2470 
 29 H       -4.6750     0.1070     1.8910 H     1 <1>   0.1430 
 30 H       -2.3210    -3.0430     0.2780 H     1 <1>   0.1430 
 31 H       -2.6740    -2.1570    -2.0050 H     1 <1>   0.1430 
 32 H       -4.0500    -0.1480    -2.3320 H     1 <1>   0.1430 
 33 H       -4.6670     2.4630    -2.0390 H     1 <1>   0.0720 
 34 H       -3.6090     2.5120    -0.6520 H     1 <1>   0.0720 
 35 H       -7.0080    -0.7360     0.3130 H     1 <1>   0.4450 
 36 H       -4.9660     4.6060    -0.9230 H     1 <1>   0.0720 
 37 H       -5.1830     3.8380     0.6120 H     1 <1>   0.0720 
 38 H       -7.3790     4.4340    -0.1130 H     1 <1>   0.0720 
 39 H       -7.0960     3.8340    -1.7310 H     1 <1>   0.0720 
 40 H       -8.7330    -1.7520     1.5320 H     1 <1>   0.0720 
 41 H       -9.6740    -2.1130     0.0910 H     1 <1>   0.0720 
 42 H      -10.4680    -1.8560     1.6270 H     1 <1>   0.0720 
 43 H      -12.2210     3.6680     0.8390 H     1 <1>   0.0720 
 44 H      -12.9260     2.1930     1.4380 H     1 <1>   0.0720 
 45 H      -13.4460     1.4650    -0.8450 H     1 <1>   0.0720 
 46 H      -12.6630     2.9150    -1.4970 H     1 <1>   0.0720 
 47 H      -15.5100     2.1160    -1.7340 H     1 <1>   0.0720 
 48 H      -14.7400     3.5400    -2.4400 H     1 <1>   0.0720 
 49 H      -16.9470     3.5830    -0.3530 H     1 <1>   0.0720 
 50 H      -17.1620     3.9500    -2.0480 H     1 <1>   0.0720 
 51 H      -16.1800     5.0000    -1.0540 H     1 <1>   0.0720 
@<TRIPOS>BOND
  1   1   2  1   
  2   2   3  ar  
  3   2   4  ar  
  4   3   5  ar  
  5   3  29  1   
  6   4   6  ar  
  7   4  30  1   
  8   5   7  1   
  9   5   8  ar  
 10   6   8  ar  
 11   6  31  1   
 12   7   9  ar  
 13   7  10  1   
 14   8  32  1   
 15   9  11  ar  
 16   9  12  ar  
 17  10  13  1   
 18  10  33  1   
 19  10  34  1   
 20  11  14  1   
 21  11  35  1   
 22  12  15  1   
 23  12  16  1   
 24  13  16  1   
 25  13  36  1   
 26  13  37  1   
 27  14  15  2   
 28  14  17  1   
 29  15  18  1   
 30  16  38  1   
 31  16  39  1   
 32  17  19  am  
 33  17  20  1   
 34  18  21  2   
 35  18  22  am  
 36  19  22  am  
 37  19  23  2   
 38  20  40  1   
 39  20  41  1   
 40  20  42  1   
 41  22  24  1   
 42  24  25  1   
 43  24  43  1   
 44  24  44  1   
 45  25  26  1   
 46  25  45  1   
 47  25  46  1   
 48  26  27  1   
 49  27  28  1   
 50  27  47  1   
 51  27  48  1   
 52  28  49  1   
 53  28  50  1   
 54  28  51  1   
@<TRIPOS>SUBSTRUCTURE
  1 ****  14 GROUP 4 **** **** 0

# MOE 2024.06 (io_trps.svl 2023.06)
