@<TRIPOS>MOLECULE
1-Methanesulfonyl-piperidine-3-carboxylic acid (2,6-difluoro-phenyl)-amide
37 38 1 0 0 
SMALL
USER_CHARGES


@<TRIPOS>ATOM
  1 S        0.1050     0.0220     0.9110 S.o2  1 <1>   1.3330 
  2 O       -0.9970    -0.8580     1.2230 O.2   1 <1>  -0.6500 
  3 O        0.4980     1.0640     1.8310 O.2   1 <1>  -0.6500 
  4 N        1.4680    -0.9370     0.6010 N.am  1 <1>  -0.8490 
  5 C       -0.2560     0.7950    -0.6550 C.3   1 <1>  -0.1350 
  6 C        2.6690    -0.1770     0.2310 C.3   1 <1>   0.1960 
  7 C        1.2170    -2.0920    -0.2630 C.3   1 <1>   0.1960 
  8 C        3.9110    -1.0760     0.2840 C.3   1 <1>  -0.0190 
  9 C        2.4180    -3.0430    -0.2270 C.3   1 <1>  -0.1600 
 10 C        5.1350    -0.2790    -0.1420 C.2   1 <1>   0.5690 
 11 C        3.7230    -2.3260    -0.5970 C.3   1 <1>  -0.1600 
 12 O        5.0780     0.3830    -1.1490 O.2   1 <1>  -0.5700 
 13 N        6.2650    -0.3710     0.6180 N.am  1 <1>  -0.5470 
 14 C        7.4910     0.3020     0.4120 C.ar  1 <1>   0.1170 
 15 C        7.6060     1.6870     0.2770 C.ar  1 <1>   0.1900 
 16 C        8.6920    -0.4020     0.3430 C.ar  1 <1>   0.1900 
 17 F        6.5410     2.4410     0.3910 F     1 <1>  -0.1900 
 18 C        8.8140     2.3270     0.0570 C.ar  1 <1>  -0.1500 
 19 F        8.6690    -1.7040     0.4930 F     1 <1>  -0.1900 
 20 C        9.9190     0.2020     0.1270 C.ar  1 <1>  -0.1500 
 21 C        9.9790     1.5790    -0.0220 C.ar  1 <1>  -0.1500 
 22 H       -0.4580     0.0550    -1.4030 H     1 <1>   0.0800 
 23 H        0.5660     1.4040    -0.9730 H     1 <1>   0.0800 
 24 H       -1.1210     1.4200    -0.5560 H     1 <1>   0.0800 
 25 H        2.8080     0.6430     0.9160 H     1 <1>   0.0800 
 26 H        2.5550     0.2280    -0.7610 H     1 <1>   0.0800 
 27 H        1.0390    -1.7660    -1.2740 H     1 <1>   0.0800 
 28 H        0.3450    -2.6240     0.0830 H     1 <1>   0.0800 
 29 H        4.0400    -1.3840     1.3060 H     1 <1>   0.0800 
 30 H        2.2470    -3.8580    -0.9070 H     1 <1>   0.0800 
 31 H        2.4970    -3.4560     0.7640 H     1 <1>   0.0800 
 32 H        4.5580    -2.9940    -0.4720 H     1 <1>   0.0800 
 33 H        3.6870    -2.0300    -1.6320 H     1 <1>   0.0800 
 34 H        6.2870    -1.1170     1.3130 H     1 <1>   0.3700 
 35 H        8.8370     3.3970    -0.0470 H     1 <1>   0.1500 
 36 H       10.8110    -0.3980     0.0760 H     1 <1>   0.1500 
 37 H       10.9250     2.0660    -0.1950 H     1 <1>   0.1500 
@<TRIPOS>BOND
  1   1   2  2   
  2   1   3  2   
  3   1   4  am  
  4   1   5  1   
  5   4   6  1   
  6   4   7  1   
  7   5  22  1   
  8   5  23  1   
  9   5  24  1   
 10   6   8  1   
 11   6  25  1   
 12   6  26  1   
 13   7   9  1   
 14   7  27  1   
 15   7  28  1   
 16   8  10  1   
 17   8  11  1   
 18   8  29  1   
 19   9  11  1   
 20   9  30  1   
 21   9  31  1   
 22  10  12  2   
 23  10  13  am  
 24  11  32  1   
 25  11  33  1   
 26  13  14  1   
 27  13  34  1   
 28  14  15  ar  
 29  14  16  ar  
 30  15  17  1   
 31  15  18  ar  
 32  16  19  1   
 33  16  20  ar  
 34  18  21  ar  
 35  18  35  1   
 36  20  21  ar  
 37  20  36  1   
 38  21  37  1   
@<TRIPOS>SUBSTRUCTURE
  1 ****  10 GROUP 4 **** **** 0

# MOE 2024.06 (io_trps.svl 2023.06)
