@<TRIPOS>MOLECULE
2-[5-(3-Amino-phenyl)-4-ethyl-4H-[1,2,4]triazol-3-ylsulfanyl]-N-cyclohexyl-aceta
50 52 1 0 0 
SMALL
USER_CHARGES


@<TRIPOS>ATOM
  1 S        0.7240    -0.8340    -0.2210 S.3   1 <1>  -0.2860 
  2 C       -0.7020     0.0920     0.3620 C.2   1 <1>   0.2420 
  3 C        2.1740    -0.0270     0.6190 C.3   1 <1>   0.1310 
  4 N       -0.6300     1.0580     1.2070 N.2   1 <1>  -0.3380 
  5 N       -1.9410    -0.1670    -0.0440 N.pl3 1 <1>   0.0480 
  6 C        2.5750     1.2500    -0.1010 C.2   1 <1>   0.5690 
  7 N       -1.8800     1.4790     1.3850 N.2   1 <1>  -0.3380 
  8 C       -2.6610     0.7430     0.6420 C.2   1 <1>   0.1330 
  9 C       -2.4110    -1.2330    -0.9600 C.3   1 <1>   0.0960 
 10 O        3.6350     1.2850    -0.6790 O.2   1 <1>  -0.5700 
 11 N        1.7370     2.3170    -0.0650 N.am  1 <1>  -0.7300 
 12 C       -4.0980     0.8530     0.5800 C.ar  1 <1>   0.0530 
 13 C       -2.8730    -2.4590    -0.1670 C.3   1 <1>  -0.2400 
 14 C        1.9450     3.6060    -0.7320 C.3   1 <1>   0.2200 
 15 C       -4.7600     1.1820    -0.5990 C.ar  1 <1>  -0.1500 
 16 C       -4.8680     0.6160     1.7160 C.ar  1 <1>  -0.1500 
 17 C        1.7070     4.7270     0.2850 C.3   1 <1>  -0.1600 
 18 C        0.9710     3.7100    -1.9100 C.3   1 <1>  -0.1600 
 19 C       -6.1430     1.2460    -0.6630 C.ar  1 <1>   0.1000 
 20 C       -6.2490     0.6750     1.6680 C.ar  1 <1>  -0.1500 
 21 C        1.7940     6.1090    -0.3810 C.3   1 <1>  -0.1600 
 22 C        1.0580     5.0890    -2.5820 C.3   1 <1>  -0.1600 
 23 N       -6.7770     1.5680    -1.8490 N.pl3 1 <1>  -0.9000 
 24 C       -6.8850     0.9840     0.4800 C.ar  1 <1>  -0.1500 
 25 C        0.8230     6.2150    -1.5650 C.3   1 <1>  -0.1600 
 26 H        2.9830    -0.7330     0.5950 H     1 <1>   0.0800 
 27 H        1.8950     0.1760     1.6360 H     1 <1>   0.0800 
 28 H       -1.6100    -1.5060    -1.6240 H     1 <1>   0.0800 
 29 H       -3.2230    -0.8550    -1.5550 H     1 <1>   0.0800 
 30 H        0.8300     2.2190     0.4110 H     1 <1>   0.3700 
 31 H       -2.0640    -2.8520     0.4230 H     1 <1>   0.0800 
 32 H       -3.2020    -3.2260    -0.8450 H     1 <1>   0.0800 
 33 H       -3.6960    -2.2030     0.4780 H     1 <1>   0.0800 
 34 H        2.9570     3.6670    -1.0990 H     1 <1>   0.0800 
 35 H       -4.1880     1.3920    -1.4830 H     1 <1>   0.1500 
 36 H       -4.3720     0.3810     2.6420 H     1 <1>   0.1500 
 37 H        2.4430     4.6610     1.0660 H     1 <1>   0.0800 
 38 H        0.7310     4.6110     0.7240 H     1 <1>   0.0800 
 39 H       -0.0340     3.5530    -1.5580 H     1 <1>   0.0800 
 40 H        1.2060     2.9470    -2.6300 H     1 <1>   0.0800 
 41 H       -6.8280     0.4820     2.5550 H     1 <1>   0.1500 
 42 H        2.7990     6.2740    -0.7280 H     1 <1>   0.0800 
 43 H        1.5650     6.8720     0.3430 H     1 <1>   0.0800 
 44 H        0.3260     5.1530    -3.3680 H     1 <1>   0.0800 
 45 H        2.0320     5.2070    -3.0260 H     1 <1>   0.0800 
 46 H       -7.7530     1.8680    -1.7670 H     1 <1>   0.4000 
 47 H       -6.2540     2.1730    -2.4880 H     1 <1>   0.4000 
 48 H       -7.9580     1.0230     0.4390 H     1 <1>   0.1500 
 49 H        0.9480     7.1690    -2.0490 H     1 <1>   0.0800 
 50 H       -0.1890     6.1600    -1.2010 H     1 <1>   0.0800 
@<TRIPOS>BOND
  1   1   2  1   
  2   1   3  1   
  3   2   4  2   
  4   2   5  1   
  5   3   6  1   
  6   3  26  1   
  7   3  27  1   
  8   4   7  1   
  9   5   8  1   
 10   5   9  1   
 11   6  10  2   
 12   6  11  am  
 13   7   8  2   
 14   8  12  1   
 15   9  13  1   
 16   9  28  1   
 17   9  29  1   
 18  11  14  1   
 19  11  30  1   
 20  12  15  ar  
 21  12  16  ar  
 22  13  31  1   
 23  13  32  1   
 24  13  33  1   
 25  14  17  1   
 26  14  18  1   
 27  14  34  1   
 28  15  19  ar  
 29  15  35  1   
 30  16  20  ar  
 31  16  36  1   
 32  17  21  1   
 33  17  37  1   
 34  17  38  1   
 35  18  22  1   
 36  18  39  1   
 37  18  40  1   
 38  19  23  1   
 39  19  24  ar  
 40  20  24  ar  
 41  20  41  1   
 42  21  25  1   
 43  21  42  1   
 44  21  43  1   
 45  22  25  1   
 46  22  44  1   
 47  22  45  1   
 48  23  46  1   
 49  23  47  1   
 50  24  48  1   
 51  25  49  1   
 52  25  50  1   
@<TRIPOS>SUBSTRUCTURE
  1 ****   7 GROUP 4 **** **** 0

# MOE 2024.06 (io_trps.svl 2023.06)
