@<TRIPOS>MOLECULE
8-Diethylamino-7-(2-hydroxy-3-m-tolyloxy-propyl)-3-methyl-3,7-dihydro-purine-2,6
57 59 1 0 0 
SMALL
USER_CHARGES


@<TRIPOS>ATOM
  1 O        5.2900     3.7010     4.2200 O.2   1 <1>  -0.5740 
  2 C        5.4830     3.5690     3.0330 C.2   1 <1>   0.6870 
  3 N        6.3400     2.6030     2.5270 N.am  1 <1>  -0.4410 
  4 N        4.8160     4.3850     2.1680 N.am  1 <1>  -0.4940 
  5 C        6.4840     2.5330     1.1480 C.2   1 <1>   0.4210 
  6 C        7.1130     1.7050     3.4320 C.3   1 <1>   0.0530 
  7 C        4.9450     4.3210     0.8100 C.2   1 <1>   0.7000 
  8 N        7.2660     1.6780     0.4470 N.pl3 1 <1>  -0.7030 
  9 C        5.8360     3.3310     0.2730 C.2   1 <1>   0.2710 
 10 O        4.2980     5.0910     0.1230 O.2   1 <1>  -0.5740 
 11 C        7.1230     1.9140    -0.8610 C.cat 1 <1>   1.0690 
 12 N        6.2610     2.9410    -1.0180 N.pl3 1 <1>  -0.7670 
 13 N        7.7680     1.1420    -1.7780 N.pl3 1 <1>  -0.5960 
 14 C        5.9330     3.7750    -2.2210 C.3   1 <1>   0.3490 
 15 C        7.5540     1.1680    -3.2530 C.3   1 <1>   0.1610 
 16 C        8.7600     0.1000    -1.3810 C.3   1 <1>   0.1610 
 17 C        7.0000     4.8530    -2.5580 C.3   1 <1>   0.1940 
 18 C        6.3130     0.3510    -3.6040 C.3   1 <1>  -0.2460 
 19 C       10.1320     0.7480    -1.2110 C.3   1 <1>  -0.2460 
 20 O        8.2530     4.2680    -2.7080 O.3   1 <1>  -0.6830 
 21 C        7.1130     5.9600    -1.4970 C.3   1 <1>   0.1130 
 22 O        7.8670     5.4780    -0.3950 O.3   1 <1>  -0.3680 
 23 C        7.7020     5.9580     0.8610 C.ar  1 <1>   0.0760 
 24 C        8.3460     5.2660     1.8740 C.ar  1 <1>  -0.1560 
 25 C        6.9040     7.0540     1.1750 C.ar  1 <1>  -0.1560 
 26 C        8.1660     5.6260     3.1990 C.ar  1 <1>  -0.1500 
 27 C        6.7260     7.4160     2.4970 C.ar  1 <1>  -0.1560 
 28 C        7.3480     6.7000     3.5040 C.ar  1 <1>  -0.1560 
 29 C        8.8510     4.8670     4.3200 C.3   1 <1>  -0.1030 
 30 H        4.2510     5.1270     2.5720 H     1 <1>   0.3650 
 31 H        6.9040     1.9290     4.4640 H     1 <1>   0.0730 
 32 H        8.1670     1.8390     3.2640 H     1 <1>   0.0730 
 33 H        6.8440     0.6800     3.2470 H     1 <1>   0.0730 
 34 H        7.8810     0.9700     0.8280 H     1 <1>   0.4450 
 35 H        4.9920     4.2710    -2.0630 H     1 <1>   0.0730 
 36 H        5.7770     3.1480    -3.0770 H     1 <1>   0.0730 
 37 H        8.4100     0.7460    -3.7550 H     1 <1>   0.0730 
 38 H        7.4650     2.1690    -3.6220 H     1 <1>   0.0730 
 39 H        8.8160    -0.6670    -2.1370 H     1 <1>   0.0730 
 40 H        8.4630    -0.3860    -0.4680 H     1 <1>   0.0730 
 41 H        6.7380     5.3030    -3.5000 H     1 <1>   0.0730 
 42 H        6.4380    -0.6740    -3.3020 H     1 <1>   0.0730 
 43 H        6.1630     0.3680    -4.6690 H     1 <1>   0.0730 
 44 H        5.4350     0.7560    -3.1340 H     1 <1>   0.0730 
 45 H       10.4500     1.2010    -2.1340 H     1 <1>   0.0730 
 46 H       10.8550    -0.0030    -0.9430 H     1 <1>   0.0730 
 47 H       10.1180     1.4940    -0.4380 H     1 <1>   0.0730 
 48 H        8.8360     4.6050    -1.9900 H     1 <1>   0.3950 
 49 H        6.1310     6.2520    -1.1770 H     1 <1>   0.0730 
 50 H        7.6220     6.8200    -1.8960 H     1 <1>   0.0730 
 51 H        8.9880     4.4430     1.6200 H     1 <1>   0.1440 
 52 H        6.4160     7.6370     0.4170 H     1 <1>   0.1440 
 53 H        6.1060     8.2600     2.7470 H     1 <1>   0.1440 
 54 H        7.1990     6.9870     4.5320 H     1 <1>   0.1440 
 55 H        8.1130     4.4150     4.9580 H     1 <1>   0.0730 
 56 H        9.4450     5.5440     4.9070 H     1 <1>   0.0730 
 57 H        9.4950     4.0990     3.9320 H     1 <1>   0.0730 
@<TRIPOS>BOND
  1   1   2  2   
  2   2   3  am  
  3   2   4  am  
  4   3   5  1   
  5   3   6  1   
  6   4   7  am  
  7   4  30  1   
  8   5   8  1   
  9   5   9  2   
 10   6  31  1   
 11   6  32  1   
 12   6  33  1   
 13   7   9  1   
 14   7  10  2   
 15   8  11  ar  
 16   8  34  1   
 17   9  12  1   
 18  11  12  ar  
 19  11  13  ar  
 20  12  14  1   
 21  13  15  1   
 22  13  16  1   
 23  14  17  1   
 24  14  35  1   
 25  14  36  1   
 26  15  18  1   
 27  15  37  1   
 28  15  38  1   
 29  16  19  1   
 30  16  39  1   
 31  16  40  1   
 32  17  20  1   
 33  17  21  1   
 34  17  41  1   
 35  18  42  1   
 36  18  43  1   
 37  18  44  1   
 38  19  45  1   
 39  19  46  1   
 40  19  47  1   
 41  20  48  1   
 42  21  22  1   
 43  21  49  1   
 44  21  50  1   
 45  22  23  1   
 46  23  24  ar  
 47  23  25  ar  
 48  24  26  ar  
 49  24  51  1   
 50  25  27  ar  
 51  25  52  1   
 52  26  28  ar  
 53  26  29  1   
 54  27  28  ar  
 55  27  53  1   
 56  28  54  1   
 57  29  55  1   
 58  29  56  1   
 59  29  57  1   
@<TRIPOS>SUBSTRUCTURE
  1 ****   9 GROUP 4 **** **** 0

# MOE 2024.06 (io_trps.svl 2023.06)
