@<TRIPOS>MOLECULE
1-(4-Ethoxy-phenyl)-5-oxo-pyrrolidine-3-carboxylic acid (3,4-dimethyl-phenyl)-am
50 52 1 0 0 
SMALL
USER_CHARGES


@<TRIPOS>ATOM
  1 O        0.8010    -0.3520    -1.8400 O.2   1 <1>  -0.5700 
  2 C        1.8070    -0.6050    -1.2250 C.2   1 <1>   0.5690 
  3 N        2.1390    -1.7980    -0.6510 N.am  1 <1>  -0.4770 
  4 C        2.8770     0.4270    -1.0020 C.3   1 <1>  -0.0990 
  5 C        1.3450    -2.9560    -0.5320 C.ar  1 <1>   0.1170 
  6 C        3.4500    -1.7030     0.0210 C.3   1 <1>   0.1400 
  7 C        4.0750    -0.4100    -0.5180 C.3   1 <1>  -0.0190 
  8 C       -0.0170    -2.8610    -0.2690 C.ar  1 <1>  -0.1500 
  9 C        1.9040    -4.2250    -0.6600 C.ar  1 <1>  -0.1500 
 10 C        4.9910     0.2630     0.5020 C.2   1 <1>   0.5690 
 11 C       -0.7940    -3.9960    -0.1240 C.ar  1 <1>  -0.1500 
 12 C        1.1320    -5.3650    -0.5160 C.ar  1 <1>  -0.1500 
 13 O        4.7600     1.3830     0.8780 O.2   1 <1>  -0.5700 
 14 N        6.0670    -0.3960     1.0080 N.am  1 <1>  -0.5470 
 15 C       -0.2280    -5.2540    -0.2420 C.ar  1 <1>   0.0830 
 16 C        6.5180    -1.6910     0.7460 C.ar  1 <1>   0.1170 
 17 O       -1.0600    -6.3170    -0.0820 O.3   1 <1>  -0.3630 
 18 C        6.9870    -2.0460    -0.5120 C.ar  1 <1>  -0.1500 
 19 C        6.4850    -2.6500     1.7450 C.ar  1 <1>  -0.1500 
 20 C       -0.5870    -7.6350    -0.2260 C.3   1 <1>   0.1200 
 21 C        7.3940    -3.3420    -0.7840 C.ar  1 <1>  -0.1430 
 22 C        6.8910    -3.9450     1.4830 C.ar  1 <1>  -0.1500 
 23 C       -1.7620    -8.5830    -0.0080 C.3   1 <1>  -0.2400 
 24 C        7.3430    -4.3020     0.2220 C.ar  1 <1>  -0.1430 
 25 C        7.8930    -3.6830    -2.1820 C.3   1 <1>  -0.0970 
 26 C        7.7810    -5.7390    -0.0260 C.3   1 <1>  -0.0970 
 27 H        2.5280     1.1110    -0.2500 H     1 <1>   0.0800 
 28 H        3.0970     0.9600    -1.9080 H     1 <1>   0.0800 
 29 H        4.0690    -2.5530    -0.2050 H     1 <1>   0.0800 
 30 H        3.2920    -1.6420     1.0850 H     1 <1>   0.0800 
 31 H        4.6640    -0.6660    -1.3790 H     1 <1>   0.0800 
 32 H       -0.4730    -1.8910    -0.1770 H     1 <1>   0.1500 
 33 H        2.9490    -4.3280    -0.8810 H     1 <1>   0.1500 
 34 H       -1.8460    -3.9110     0.0800 H     1 <1>   0.1500 
 35 H        1.6040    -6.3220    -0.6210 H     1 <1>   0.1500 
 36 H        6.5640     0.1310     1.7280 H     1 <1>   0.3700 
 37 H        7.0350    -1.2950    -1.2780 H     1 <1>   0.1500 
 38 H        6.1350    -2.3870     2.7270 H     1 <1>   0.1500 
 39 H        0.1800    -7.8050     0.5090 H     1 <1>   0.0800 
 40 H       -0.1880    -7.7470    -1.2200 H     1 <1>   0.0800 
 41 H        6.8540    -4.6760     2.2720 H     1 <1>   0.1500 
 42 H       -2.1640    -8.4510     0.9810 H     1 <1>   0.0800 
 43 H       -1.4340    -9.6010    -0.1120 H     1 <1>   0.0800 
 44 H       -2.5300    -8.3930    -0.7360 H     1 <1>   0.0800 
 45 H        7.8690    -2.8210    -2.8240 H     1 <1>   0.0800 
 46 H        7.2760    -4.4470    -2.6190 H     1 <1>   0.0800 
 47 H        8.9080    -4.0360    -2.1340 H     1 <1>   0.0800 
 48 H        8.8160    -5.7640    -0.3160 H     1 <1>   0.0800 
 49 H        7.1870    -6.1770    -0.8080 H     1 <1>   0.0800 
 50 H        7.6660    -6.3370     0.8590 H     1 <1>   0.0800 
@<TRIPOS>BOND
  1   1   2  2   
  2   2   3  am  
  3   2   4  1   
  4   3   5  1   
  5   3   6  1   
  6   4   7  1   
  7   4  27  1   
  8   4  28  1   
  9   5   8  ar  
 10   5   9  ar  
 11   6   7  1   
 12   6  29  1   
 13   6  30  1   
 14   7  10  1   
 15   7  31  1   
 16   8  11  ar  
 17   8  32  1   
 18   9  12  ar  
 19   9  33  1   
 20  10  13  2   
 21  10  14  am  
 22  11  15  ar  
 23  11  34  1   
 24  12  15  ar  
 25  12  35  1   
 26  14  16  1   
 27  14  36  1   
 28  15  17  1   
 29  16  18  ar  
 30  16  19  ar  
 31  17  20  1   
 32  18  21  ar  
 33  18  37  1   
 34  19  22  ar  
 35  19  38  1   
 36  20  23  1   
 37  20  39  1   
 38  20  40  1   
 39  21  24  ar  
 40  21  25  1   
 41  22  24  ar  
 42  22  41  1   
 43  23  42  1   
 44  23  43  1   
 45  23  44  1   
 46  24  26  1   
 47  25  45  1   
 48  25  46  1   
 49  25  47  1   
 50  26  48  1   
 51  26  49  1   
 52  26  50  1   
@<TRIPOS>SUBSTRUCTURE
  1 ****   6 GROUP 4 **** **** 0

# MOE 2024.06 (io_trps.svl 2023.06)
