@<TRIPOS>MOLECULE
1-(2,5-Dimethoxy-benzenesulfonyl)-piperidine-4-carboxylic acid (2,5-dimethyl-phe
58 60 1 0 0 
SMALL
USER_CHARGES


@<TRIPOS>ATOM
  1 S       -0.0500    -0.2660    -1.3090 S.o2  1 <1>   1.4470 
  2 O        0.5320    -1.5280    -1.7210 O.2   1 <1>  -0.6500 
  3 O       -0.6460     0.5690    -2.3310 O.2   1 <1>  -0.6500 
  4 N        1.2210     0.6060    -0.5980 N.am  1 <1>  -0.8490 
  5 C       -1.2430    -0.5700     0.0190 C.ar  1 <1>  -0.0090 
  6 C        2.0930     1.1930    -1.6140 C.3   1 <1>   0.1960 
  7 C        1.9650    -0.1940     0.3770 C.3   1 <1>   0.1960 
  8 C       -1.8170     0.4760     0.7350 C.ar  1 <1>   0.0830 
  9 C       -1.6190    -1.8680     0.3490 C.ar  1 <1>  -0.1500 
 10 C        3.1410     2.0980    -0.9590 C.3   1 <1>  -0.1600 
 11 C        2.9970     0.6760     1.0960 C.3   1 <1>  -0.1600 
 12 O       -1.4820     1.7540     0.4620 O.3   1 <1>  -0.3620 
 13 C       -2.7240     0.2360     1.7560 C.ar  1 <1>  -0.1500 
 14 C       -2.5340    -2.1200     1.3670 C.ar  1 <1>   0.0830 
 15 C        3.9620     1.3360     0.0940 C.3   1 <1>  -0.0190 
 16 C       -2.4050     2.4940    -0.3040 C.3   1 <1>   0.0400 
 17 C       -3.0820    -1.0600     2.0690 C.ar  1 <1>  -0.1500 
 18 O       -2.9370    -3.3640     1.7290 O.3   1 <1>  -0.3630 
 19 C        4.9930     2.2510     0.7590 C.2   1 <1>   0.5690 
 20 C       -2.4810    -4.5110     1.0450 C.3   1 <1>   0.0400 
 21 O        4.7410     2.7530     1.8270 O.2   1 <1>  -0.5700 
 22 N        6.1700     2.4460     0.0880 N.am  1 <1>  -0.5470 
 23 C        7.2980     3.2300     0.3860 C.ar  1 <1>   0.1170 
 24 C        8.5280     2.9110    -0.1950 C.ar  1 <1>  -0.1430 
 25 C        7.2240     4.3370     1.2270 C.ar  1 <1>  -0.1500 
 26 C        9.6400     3.6910     0.0760 C.ar  1 <1>  -0.1500 
 27 C        8.6840     1.7130    -1.1240 C.3   1 <1>  -0.0970 
 28 C        8.3370     5.1120     1.5000 C.ar  1 <1>  -0.1430 
 29 C        9.5480     4.7850     0.9180 C.ar  1 <1>  -0.1500 
 30 C        8.2330     6.3120     2.4240 C.3   1 <1>  -0.0970 
 31 H        1.5070     1.7880    -2.2950 H     1 <1>   0.0800 
 32 H        2.5730     0.4110    -2.1790 H     1 <1>   0.0800 
 33 H        2.4580    -1.0150    -0.1180 H     1 <1>   0.0800 
 34 H        1.2850    -0.5990     1.1080 H     1 <1>   0.0800 
 35 H       -1.1840    -2.6780    -0.2050 H     1 <1>   0.1500 
 36 H        2.6370     2.9280    -0.4930 H     1 <1>   0.0800 
 37 H        3.7900     2.4940    -1.7190 H     1 <1>   0.0800 
 38 H        3.5520     0.0750     1.7940 H     1 <1>   0.0800 
 39 H        2.4750     1.4320     1.6590 H     1 <1>   0.0800 
 40 H       -3.1410     1.0630     2.3030 H     1 <1>   0.1500 
 41 H        4.5000     0.5480    -0.4010 H     1 <1>   0.0800 
 42 H       -1.9850     3.4670    -0.4860 H     1 <1>   0.0800 
 43 H       -3.3260     2.5850     0.2440 H     1 <1>   0.0800 
 44 H       -2.5710     1.9880    -1.2390 H     1 <1>   0.0800 
 45 H       -3.7850    -1.2590     2.8580 H     1 <1>   0.1500 
 46 H       -2.9460    -5.3720     1.4890 H     1 <1>   0.0800 
 47 H       -1.4120    -4.5800     1.1490 H     1 <1>   0.0800 
 48 H       -2.7640    -4.4370     0.0100 H     1 <1>   0.0800 
 49 H        6.2740     1.9050    -0.7640 H     1 <1>   0.3700 
 50 H        6.2840     4.6020     1.6730 H     1 <1>   0.1500 
 51 H       10.5930     3.4550    -0.3650 H     1 <1>   0.1500 
 52 H        8.3580     0.8160    -0.6270 H     1 <1>   0.0800 
 53 H        9.7120     1.5800    -1.4090 H     1 <1>   0.0800 
 54 H        8.1030     1.8590    -2.0170 H     1 <1>   0.0800 
 55 H       10.4220     5.3790     1.1180 H     1 <1>   0.1500 
 56 H        7.3710     6.2250     3.0610 H     1 <1>   0.0800 
 57 H        8.1470     7.2120     1.8430 H     1 <1>   0.0800 
 58 H        9.1080     6.3790     3.0450 H     1 <1>   0.0800 
@<TRIPOS>BOND
  1   1   2  2   
  2   1   3  2   
  3   1   4  am  
  4   1   5  1   
  5   4   6  1   
  6   4   7  1   
  7   5   8  ar  
  8   5   9  ar  
  9   6  10  1   
 10   6  31  1   
 11   6  32  1   
 12   7  11  1   
 13   7  33  1   
 14   7  34  1   
 15   8  12  1   
 16   8  13  ar  
 17   9  14  ar  
 18   9  35  1   
 19  10  15  1   
 20  10  36  1   
 21  10  37  1   
 22  11  15  1   
 23  11  38  1   
 24  11  39  1   
 25  12  16  1   
 26  13  17  ar  
 27  13  40  1   
 28  14  17  ar  
 29  14  18  1   
 30  15  19  1   
 31  15  41  1   
 32  16  42  1   
 33  16  43  1   
 34  16  44  1   
 35  17  45  1   
 36  18  20  1   
 37  19  21  2   
 38  19  22  am  
 39  20  46  1   
 40  20  47  1   
 41  20  48  1   
 42  22  23  1   
 43  22  49  1   
 44  23  24  ar  
 45  23  25  ar  
 46  24  26  ar  
 47  24  27  1   
 48  25  28  ar  
 49  25  50  1   
 50  26  29  ar  
 51  26  51  1   
 52  27  52  1   
 53  27  53  1   
 54  27  54  1   
 55  28  29  ar  
 56  28  30  1   
 57  29  55  1   
 58  30  56  1   
 59  30  57  1   
 60  30  58  1   
@<TRIPOS>SUBSTRUCTURE
  1 ****  11 GROUP 4 **** **** 0

# MOE 2024.06 (io_trps.svl 2023.06)
