@<TRIPOS>MOLECULE
1-(Piperidine-1-sulfonyl)-4-o-tolyl-piperazine
47 49 1 0 0 
SMALL
USER_CHARGES


@<TRIPOS>ATOM
  1 S       -0.3600     0.1890    -1.2650 S.o2  1 <1>   1.5760 
  2 O       -0.8540     1.5040    -1.6080 O.2   1 <1>  -0.6500 
  3 O        0.1780    -0.6830    -2.2860 O.2   1 <1>  -0.6500 
  4 N       -1.5890    -0.6280    -0.4510 N.am  1 <1>  -0.8490 
  5 N        0.7800     0.3280    -0.0290 N.am  1 <1>  -0.8490 
  6 C       -2.6250    -1.0780    -1.3940 C.3   1 <1>   0.1960 
  7 C       -2.2050     0.2190     0.5890 C.3   1 <1>   0.1960 
  8 C        1.3560    -0.9750     0.3160 C.3   1 <1>   0.1960 
  9 C        1.8260     1.2830    -0.3960 C.3   1 <1>   0.1960 
 10 C       -3.7560    -1.8640    -0.7010 C.3   1 <1>   0.2090 
 11 C       -3.3150    -0.5140     1.3660 C.3   1 <1>   0.2090 
 12 C        2.2840    -0.8370     1.5280 C.3   1 <1>  -0.1600 
 13 C        2.7790     1.5050     0.7830 C.3   1 <1>  -0.1600 
 14 N       -4.3340    -1.1320     0.4650 N.pl3 1 <1>  -0.8380 
 15 C        3.3950     0.1860     1.2640 C.3   1 <1>  -0.1600 
 16 C       -5.5510    -0.4720     0.2910 C.ar  1 <1>   0.1000 
 17 C       -6.7250    -0.9800     0.8510 C.ar  1 <1>  -0.1440 
 18 C       -5.6150     0.7060    -0.4460 C.ar  1 <1>  -0.1500 
 19 C       -7.9250    -0.3120     0.6670 C.ar  1 <1>  -0.1500 
 20 C       -6.6960    -2.2660     1.6640 C.3   1 <1>  -0.0970 
 21 C       -6.8140     1.3690    -0.6260 C.ar  1 <1>  -0.1500 
 22 C       -7.9730     0.8600    -0.0680 C.ar  1 <1>  -0.1500 
 23 H       -2.1770    -1.7150    -2.1380 H     1 <1>   0.0800 
 24 H       -3.0500    -0.2290    -1.9030 H     1 <1>   0.0800 
 25 H       -2.6230     1.1060     0.1450 H     1 <1>   0.0800 
 26 H       -1.4510     0.5320     1.2910 H     1 <1>   0.0800 
 27 H        1.9070    -1.3700    -0.5230 H     1 <1>   0.0800 
 28 H        0.5690    -1.6700     0.5560 H     1 <1>   0.0800 
 29 H        1.3780     2.2270    -0.6610 H     1 <1>   0.0800 
 30 H        2.3720     0.9180    -1.2510 H     1 <1>   0.0800 
 31 H       -3.3670    -2.8070    -0.3590 H     1 <1>   0.0800 
 32 H       -4.5350    -2.0710    -1.4150 H     1 <1>   0.0800 
 33 H       -3.8010     0.1780     2.0310 H     1 <1>   0.0800 
 34 H       -2.8700    -1.2880     1.9660 H     1 <1>   0.0800 
 35 H        2.7190    -1.7940     1.7540 H     1 <1>   0.0800 
 36 H        1.6990    -0.5310     2.3770 H     1 <1>   0.0800 
 37 H        2.2310     1.9650     1.5870 H     1 <1>   0.0800 
 38 H        3.5600     2.1830     0.4880 H     1 <1>   0.0800 
 39 H        4.0590    -0.1950     0.5080 H     1 <1>   0.0800 
 40 H        3.9660     0.3500     2.1620 H     1 <1>   0.0800 
 41 H       -4.7190     1.1050    -0.8800 H     1 <1>   0.1500 
 42 H       -8.8320    -0.6990     1.0970 H     1 <1>   0.1500 
 43 H       -6.0350    -2.1470     2.5030 H     1 <1>   0.0800 
 44 H       -6.3320    -3.0710     1.0520 H     1 <1>   0.0800 
 45 H       -7.6740    -2.5220     2.0280 H     1 <1>   0.0800 
 46 H       -6.8470     2.2790    -1.1980 H     1 <1>   0.1500 
 47 H       -8.9100     1.3720    -0.2050 H     1 <1>   0.1500 
@<TRIPOS>BOND
  1   1   2  2   
  2   1   3  2   
  3   1   4  am  
  4   1   5  am  
  5   4   6  1   
  6   4   7  1   
  7   5   8  1   
  8   5   9  1   
  9   6  10  1   
 10   6  23  1   
 11   6  24  1   
 12   7  11  1   
 13   7  25  1   
 14   7  26  1   
 15   8  12  1   
 16   8  27  1   
 17   8  28  1   
 18   9  13  1   
 19   9  29  1   
 20   9  30  1   
 21  10  14  1   
 22  10  31  1   
 23  10  32  1   
 24  11  14  1   
 25  11  33  1   
 26  11  34  1   
 27  12  15  1   
 28  12  35  1   
 29  12  36  1   
 30  13  15  1   
 31  13  37  1   
 32  13  38  1   
 33  14  16  1   
 34  15  39  1   
 35  15  40  1   
 36  16  17  ar  
 37  16  18  ar  
 38  17  19  ar  
 39  17  20  1   
 40  18  21  ar  
 41  18  41  1   
 42  19  22  ar  
 43  19  42  1   
 44  20  43  1   
 45  20  44  1   
 46  20  45  1   
 47  21  22  ar  
 48  21  46  1   
 49  22  47  1   
@<TRIPOS>SUBSTRUCTURE
  1 ****   7 GROUP 4 **** **** 0

# MOE 2024.06 (io_trps.svl 2023.06)
