@<TRIPOS>MOLECULE
8-(4-Benzyl-piperazin-1-yl)-7-ethyl-3-methyl-3,7-dihydro-purine-2,6-dione
53 56 1 0 0 
SMALL
USER_CHARGES


@<TRIPOS>ATOM
  1 O        1.0290     0.1320    -0.0940 O.2   1 <1>  -0.5740 
  2 C        2.0300     0.8080    -0.0800 C.2   1 <1>   0.6860 
  3 N        3.3000     0.2510    -0.1160 N.am  1 <1>  -0.4410 
  4 N        1.8990     2.1640    -0.0230 N.am  1 <1>  -0.4950 
  5 C        4.3820     1.1160    -0.0690 C.2   1 <1>   0.4210 
  6 C        3.4770    -1.2310    -0.1770 C.3   1 <1>   0.0520 
  7 C        2.9540     3.0290     0.0140 C.2   1 <1>   0.6990 
  8 N        5.7020     0.7890    -0.0630 N.pl3 1 <1>  -0.7040 
  9 C        4.2740     2.4620    -0.0150 C.2   1 <1>   0.2710 
 10 O        2.7300     4.2210     0.0750 O.2   1 <1>  -0.5740 
 11 C        6.4220     1.9130    -0.0190 C.cat 1 <1>   1.0690 
 12 N        5.5930     2.9700     0.0200 N.pl3 1 <1>  -0.7670 
 13 N        7.7840     1.9080    -0.0150 N.pl3 1 <1>  -0.5960 
 14 C        5.8280     4.4060     0.3410 C.3   1 <1>   0.3480 
 15 C        8.5820     0.8090     0.6400 C.3   1 <1>   0.1610 
 16 C        8.6230     3.0290    -0.5670 C.3   1 <1>   0.1610 
 17 C        5.8180     4.5790     1.8550 C.3   1 <1>  -0.2470 
 18 C        9.7900     0.3470    -0.2050 C.3   1 <1>   0.3370 
 19 C        9.8500     2.5410    -1.3750 C.3   1 <1>   0.3370 
 20 N       10.6410     1.5020    -0.6440 N.4   1 <1>  -0.9610 
 21 C       11.8090     1.0350    -1.4480 C.3   1 <1>   0.4820 
 22 C       12.6440     0.1290    -0.5680 C.ar  1 <1>  -0.1510 
 23 C       12.6370    -1.2430    -0.7760 C.ar  1 <1>  -0.1570 
 24 C       13.4100     0.6620     0.4600 C.ar  1 <1>  -0.1570 
 25 C       13.3720    -2.0750     0.0490 C.ar  1 <1>  -0.1570 
 26 C       14.1440    -0.1730     1.2830 C.ar  1 <1>  -0.1570 
 27 C       14.1220    -1.5400     1.0800 C.ar  1 <1>  -0.1570 
 28 H        0.9530     2.5430     0.0010 H     1 <1>   0.3640 
 29 H        2.5580    -1.7120    -0.4700 H     1 <1>   0.0720 
 30 H        3.7610    -1.6040     0.7910 H     1 <1>   0.0720 
 31 H        4.2300    -1.4870    -0.9010 H     1 <1>   0.0720 
 32 H        6.0580    -0.1590    -0.1160 H     1 <1>   0.4450 
 33 H        5.0580     5.0170    -0.1000 H     1 <1>   0.0720 
 34 H        6.7640     4.7530    -0.0500 H     1 <1>   0.0720 
 35 H        7.9630    -0.0460     0.8500 H     1 <1>   0.0720 
 36 H        8.9500     1.1680     1.5870 H     1 <1>   0.0720 
 37 H        8.9610     3.6520     0.2450 H     1 <1>   0.0720 
 38 H        8.0320     3.6350    -1.2300 H     1 <1>   0.0720 
 39 H        4.8620     4.3010     2.2630 H     1 <1>   0.0720 
 40 H        5.9880     5.6130     2.0970 H     1 <1>   0.0720 
 41 H        6.5920     3.9940     2.3180 H     1 <1>   0.0720 
 42 H        9.4340    -0.1890    -1.0690 H     1 <1>   0.0720 
 43 H       10.3840    -0.3380     0.3810 H     1 <1>   0.0720 
 44 H       10.4810     3.3850    -1.6030 H     1 <1>   0.0720 
 45 H        9.5050     2.1320    -2.3120 H     1 <1>   0.0720 
 46 H       11.0620     1.9140     0.2010 H     1 <1>   0.4450 
 47 H       12.4080     1.8740    -1.7640 H     1 <1>   0.0720 
 48 H       11.4780     0.4980    -2.3220 H     1 <1>   0.0720 
 49 H       12.0690    -1.6840    -1.5780 H     1 <1>   0.1430 
 50 H       13.4540     1.7230     0.6330 H     1 <1>   0.1430 
 51 H       13.3690    -3.1410    -0.1100 H     1 <1>   0.1430 
 52 H       14.7400     0.2370     2.0810 H     1 <1>   0.1430 
 53 H       14.6950    -2.1890     1.7210 H     1 <1>   0.1430 
@<TRIPOS>BOND
  1   1   2  2   
  2   2   3  am  
  3   2   4  am  
  4   3   5  1   
  5   3   6  1   
  6   4   7  am  
  7   4  28  1   
  8   5   8  1   
  9   5   9  2   
 10   6  29  1   
 11   6  30  1   
 12   6  31  1   
 13   7   9  1   
 14   7  10  2   
 15   8  11  ar  
 16   8  32  1   
 17   9  12  1   
 18  11  12  ar  
 19  11  13  ar  
 20  12  14  1   
 21  13  15  1   
 22  13  16  1   
 23  14  17  1   
 24  14  33  1   
 25  14  34  1   
 26  15  18  1   
 27  15  35  1   
 28  15  36  1   
 29  16  19  1   
 30  16  37  1   
 31  16  38  1   
 32  17  39  1   
 33  17  40  1   
 34  17  41  1   
 35  18  20  1   
 36  18  42  1   
 37  18  43  1   
 38  19  20  1   
 39  19  44  1   
 40  19  45  1   
 41  20  21  1   
 42  20  46  1   
 43  21  22  1   
 44  21  47  1   
 45  21  48  1   
 46  22  23  ar  
 47  22  24  ar  
 48  23  25  ar  
 49  23  49  1   
 50  24  26  ar  
 51  24  50  1   
 52  25  27  ar  
 53  25  51  1   
 54  26  27  ar  
 55  26  52  1   
 56  27  53  1   
@<TRIPOS>SUBSTRUCTURE
  1 ****  13 GROUP 4 **** **** 0

# MOE 2024.06 (io_trps.svl 2023.06)
