@<TRIPOS>MOLECULE
1-Methanesulfonyl-piperidine-3-carboxylic acid (2,3-dihydro-benzo[1,4]dioxin-6-y
43 45 1 0 0 
SMALL
USER_CHARGES


@<TRIPOS>ATOM
  1 S        0.2890     0.1000     1.2800 S.o2  1 <1>   1.3330 
  2 O        0.8420     1.0450     2.2210 O.2   1 <1>  -0.6500 
  3 O       -0.7700    -0.7990     1.6750 O.2   1 <1>  -0.6500 
  4 N        1.5680    -0.8350     0.6760 N.am  1 <1>  -0.8490 
  5 C       -0.2890     1.0210    -0.1330 C.3   1 <1>  -0.1350 
  6 C        2.7210    -0.0540     0.2150 C.3   1 <1>   0.1960 
  7 C        1.1650    -1.8900    -0.2570 C.3   1 <1>   0.1960 
  8 C        3.9330    -0.9680     0.0030 C.3   1 <1>  -0.0190 
  9 C        2.3340    -2.8520    -0.4970 C.3   1 <1>  -0.1600 
 10 C        5.1090    -0.1420    -0.4950 C.2   1 <1>   0.5690 
 11 C        3.5930    -2.1120    -0.9710 C.3   1 <1>  -0.1600 
 12 O        4.9320     0.6040    -1.4280 O.2   1 <1>  -0.5700 
 13 N        6.3100    -0.2970     0.1400 N.am  1 <1>  -0.5470 
 14 C        7.5500     0.3330    -0.0600 C.ar  1 <1>   0.1170 
 15 C        8.6920    -0.2910     0.4300 C.ar  1 <1>  -0.1500 
 16 C        7.6860     1.5590    -0.7090 C.ar  1 <1>  -0.1500 
 17 C        9.9360     0.2900     0.2750 C.ar  1 <1>   0.0820 
 18 C        8.9300     2.1440    -0.8750 C.ar  1 <1>  -0.1500 
 19 O       11.0220    -0.3460     0.7840 O.3   1 <1>  -0.3620 
 20 C       10.0600     1.5100    -0.3910 C.ar  1 <1>   0.0820 
 21 C       12.2180     0.4050     0.8790 C.3   1 <1>   0.1200 
 22 O       11.2740     2.0930    -0.5770 O.3   1 <1>  -0.3630 
 23 C       12.4070     1.2690    -0.3750 C.3   1 <1>   0.1200 
 24 H        0.4890     1.6490    -0.5180 H     1 <1>   0.0800 
 25 H       -1.1130     1.6440     0.1580 H     1 <1>   0.0800 
 26 H       -0.6230     0.3570    -0.9050 H     1 <1>   0.0800 
 27 H        2.9760     0.6910     0.9520 H     1 <1>   0.0800 
 28 H        2.4790     0.4500    -0.7060 H     1 <1>   0.0800 
 29 H        0.8510    -1.4570    -1.1910 H     1 <1>   0.0800 
 30 H        0.3390    -2.4470     0.1570 H     1 <1>   0.0800 
 31 H        4.1870    -1.3890     0.9590 H     1 <1>   0.0800 
 32 H        2.0460    -3.5850    -1.2300 H     1 <1>   0.0800 
 33 H        2.5420    -3.3730     0.4220 H     1 <1>   0.0800 
 34 H        4.4190    -2.7990    -1.0370 H     1 <1>   0.0800 
 35 H        3.4200    -1.7050    -1.9540 H     1 <1>   0.0800 
 36 H        6.3240    -1.0120     0.8650 H     1 <1>   0.3700 
 37 H        8.6250    -1.2340     0.9370 H     1 <1>   0.1500 
 38 H        6.8200     2.0690    -1.0880 H     1 <1>   0.1500 
 39 H        9.0270     3.0870    -1.3810 H     1 <1>   0.1500 
 40 H       13.0350    -0.2840     0.9950 H     1 <1>   0.0800 
 41 H       12.1530     1.0270     1.7550 H     1 <1>   0.0800 
 42 H       12.5270     0.6470    -1.2440 H     1 <1>   0.0800 
 43 H       13.2660     1.9070    -0.2750 H     1 <1>   0.0800 
@<TRIPOS>BOND
  1   1   2  2   
  2   1   3  2   
  3   1   4  am  
  4   1   5  1   
  5   4   6  1   
  6   4   7  1   
  7   5  24  1   
  8   5  25  1   
  9   5  26  1   
 10   6   8  1   
 11   6  27  1   
 12   6  28  1   
 13   7   9  1   
 14   7  29  1   
 15   7  30  1   
 16   8  10  1   
 17   8  11  1   
 18   8  31  1   
 19   9  11  1   
 20   9  32  1   
 21   9  33  1   
 22  10  12  2   
 23  10  13  am  
 24  11  34  1   
 25  11  35  1   
 26  13  14  1   
 27  13  36  1   
 28  14  15  ar  
 29  14  16  ar  
 30  15  17  ar  
 31  15  37  1   
 32  16  18  ar  
 33  16  38  1   
 34  17  19  1   
 35  17  20  ar  
 36  18  20  ar  
 37  18  39  1   
 38  19  21  1   
 39  20  22  1   
 40  21  23  1   
 41  21  40  1   
 42  21  41  1   
 43  22  23  1   
 44  23  42  1   
 45  23  43  1   
@<TRIPOS>SUBSTRUCTURE
  1 ****  13 GROUP 4 **** **** 0

# MOE 2024.06 (io_trps.svl 2023.06)
