@<TRIPOS>MOLECULE
3-Methanesulfonyl-4-methyl-1-(toluene-4-sulfonyl)-imidazolidine
38 39 1 0 0 
SMALL
USER_CHARGES


@<TRIPOS>ATOM
  1 S        0.4690     0.1380    -1.3500 S.o2  1 <1>   1.4470 
  2 O        0.1480     1.0530    -2.4210 O.2   1 <1>  -0.6500 
  3 O        1.2570    -1.0410    -1.6420 O.2   1 <1>  -0.6500 
  4 N        1.3790     1.0220    -0.2420 N.am  1 <1>  -0.8490 
  5 C       -1.0190    -0.2920    -0.4070 C.ar  1 <1>  -0.0090 
  6 C        1.8390     0.1940     0.8490 C.3   1 <1>   0.5510 
  7 C        2.5560     1.6230    -0.8420 C.3   1 <1>   0.1960 
  8 C       -1.3470    -1.6160    -0.1380 C.ar  1 <1>  -0.1500 
  9 C       -1.8580     0.6980     0.0870 C.ar  1 <1>  -0.1500 
 10 N        3.1260     0.7210     1.2310 N.am  1 <1>  -0.8490 
 11 C        3.5260     1.7680     0.3200 C.3   1 <1>   0.2760 
 12 C       -2.4700    -1.9390     0.6030 C.ar  1 <1>  -0.1500 
 13 C       -2.9830     0.3820     0.8290 C.ar  1 <1>  -0.1500 
 14 S        4.2520    -0.5020     1.5010 S.o2  1 <1>   1.3330 
 15 C        3.3640     3.1010     1.0490 C.3   1 <1>  -0.2400 
 16 C       -3.2930    -0.9400     1.0930 C.ar  1 <1>  -0.1440 
 17 O        5.4870     0.1250     1.9050 O.2   1 <1>  -0.6500 
 18 O        3.6070    -1.4880     2.3340 O.2   1 <1>  -0.6500 
 19 C        4.5290    -1.2460    -0.1000 C.3   1 <1>  -0.1350 
 20 C       -4.5270    -1.2880     1.9060 C.3   1 <1>  -0.0970 
 21 H        1.9170    -0.8420     0.5640 H     1 <1>   0.0800 
 22 H        1.1550     0.2630     1.6800 H     1 <1>   0.0800 
 23 H        2.3190     2.5680    -1.3010 H     1 <1>   0.0800 
 24 H        2.9840     0.9700    -1.5840 H     1 <1>   0.0800 
 25 H       -0.7200    -2.4080    -0.5130 H     1 <1>   0.1500 
 26 H       -1.6270     1.7320    -0.1110 H     1 <1>   0.1500 
 27 H        4.5470     1.6630    -0.0080 H     1 <1>   0.0800 
 28 H       -2.7010    -2.9730     0.7950 H     1 <1>   0.1500 
 29 H       -3.6160     1.1700     1.1980 H     1 <1>   0.1500 
 30 H        2.3490     3.2320     1.3800 H     1 <1>   0.0800 
 31 H        3.6220     3.9150     0.3960 H     1 <1>   0.0800 
 32 H        4.0190     3.1290     1.9020 H     1 <1>   0.0800 
 33 H        4.9320    -0.5310    -0.7870 H     1 <1>   0.0800 
 34 H        3.6200    -1.6470    -0.5030 H     1 <1>   0.0800 
 35 H        5.2330    -2.0500    -0.0030 H     1 <1>   0.0800 
 36 H       -4.4110    -2.2450     2.3820 H     1 <1>   0.0800 
 37 H       -5.3880    -1.3220     1.2630 H     1 <1>   0.0800 
 38 H       -4.6930    -0.5490     2.6700 H     1 <1>   0.0800 
@<TRIPOS>BOND
  1   1   2  2   
  2   1   3  2   
  3   1   4  am  
  4   1   5  1   
  5   4   6  1   
  6   4   7  1   
  7   5   8  ar  
  8   5   9  ar  
  9   6  10  1   
 10   6  21  1   
 11   6  22  1   
 12   7  11  1   
 13   7  23  1   
 14   7  24  1   
 15   8  12  ar  
 16   8  25  1   
 17   9  13  ar  
 18   9  26  1   
 19  10  11  1   
 20  10  14  am  
 21  11  15  1   
 22  11  27  1   
 23  12  16  ar  
 24  12  28  1   
 25  13  16  ar  
 26  13  29  1   
 27  14  17  2   
 28  14  18  2   
 29  14  19  1   
 30  15  30  1   
 31  15  31  1   
 32  15  32  1   
 33  16  20  1   
 34  19  33  1   
 35  19  34  1   
 36  19  35  1   
 37  20  36  1   
 38  20  37  1   
 39  20  38  1   
@<TRIPOS>SUBSTRUCTURE
  1 ****   6 GROUP 4 **** **** 0

# MOE 2024.06 (io_trps.svl 2023.06)
