@<TRIPOS>MOLECULE
N-[2-(4-Methyl-piperazin-1-yl)-phenyl]-2-m-tolyloxy-acetamide
51 53 1 0 0 
SMALL
USER_CHARGES


@<TRIPOS>ATOM
  1 O        0.3400     0.2190     0.8580 O.2   1 <1>  -0.5700 
  2 C       -0.3970     0.9330     0.2210 C.2   1 <1>   0.5690 
  3 N       -0.0280     2.1430    -0.2860 N.am  1 <1>  -0.5470 
  4 C       -1.8380     0.4910     0.0040 C.3   1 <1>   0.1810 
  5 C        1.0650     2.9830    -0.0300 C.ar  1 <1>   0.1170 
  6 O       -2.6380     1.5920    -0.4240 O.3   1 <1>  -0.3630 
  7 C        0.8490     4.3700    -0.1050 C.ar  1 <1>   0.1000 
  8 C        2.3250     2.4930     0.2740 C.ar  1 <1>  -0.1500 
  9 C       -3.9570     1.4370    -0.6920 C.ar  1 <1>   0.0830 
 10 N       -0.4410     4.8750    -0.3780 N.pl3 1 <1>  -0.8380 
 11 C        1.9240     5.2230     0.1200 C.ar  1 <1>  -0.1500 
 12 C        3.3810     3.3580     0.4980 C.ar  1 <1>  -0.1500 
 13 C       -4.7170     0.3670    -0.2280 C.ar  1 <1>  -0.1500 
 14 C       -4.5540     2.4170    -1.4680 C.ar  1 <1>  -0.1500 
 15 C       -1.4610     4.7600     0.7150 C.3   1 <1>   0.2090 
 16 C       -0.6160     6.0080    -1.3400 C.3   1 <1>   0.2090 
 17 C        3.1800     4.7240     0.4180 C.ar  1 <1>  -0.1500 
 18 C       -6.0640     0.2830    -0.5390 C.ar  1 <1>  -0.1430 
 19 C       -5.8990     2.3360    -1.7780 C.ar  1 <1>  -0.1500 
 20 C       -1.7460     6.1210     1.3820 C.3   1 <1>   0.3430 
 21 C       -0.9480     7.3360    -0.6240 C.3   1 <1>   0.3430 
 22 C       -6.6510     1.2720    -1.3130 C.ar  1 <1>  -0.1500 
 23 C       -6.9030    -0.8790    -0.0370 C.3   1 <1>  -0.0970 
 24 N       -2.0700     7.2000     0.3770 N.4   1 <1>  -0.9590 
 25 C       -2.3580     8.5000     1.0550 C.3   1 <1>   0.2630 
 26 H       -0.7820     2.6490    -0.7570 H     1 <1>   0.3700 
 27 H       -2.2280     0.1200     0.9330 H     1 <1>   0.0800 
 28 H       -1.8780    -0.2750    -0.7490 H     1 <1>   0.0800 
 29 H        2.4850     1.4310     0.3320 H     1 <1>   0.1500 
 30 H        1.7910     6.2850     0.0720 H     1 <1>   0.1500 
 31 H        4.3560     2.9650     0.7320 H     1 <1>   0.1500 
 32 H       -4.2790    -0.4030     0.3770 H     1 <1>   0.1500 
 33 H       -3.9640     3.2350    -1.8350 H     1 <1>   0.1500 
 34 H       -1.1110     4.0720     1.4660 H     1 <1>   0.0800 
 35 H       -2.3720     4.3550     0.3090 H     1 <1>   0.0800 
 36 H       -1.4090     5.7620    -2.0250 H     1 <1>   0.0800 
 37 H        0.2820     6.1280    -1.9230 H     1 <1>   0.0800 
 38 H        4.0040     5.3950     0.5910 H     1 <1>   0.1500 
 39 H       -6.3640     3.0940    -2.3840 H     1 <1>   0.1500 
 40 H       -0.8730     6.4040     1.9460 H     1 <1>   0.0800 
 41 H       -2.5630     6.0050     2.0740 H     1 <1>   0.0800 
 42 H       -1.2050     8.0760    -1.3640 H     1 <1>   0.0800 
 43 H       -0.0590     7.6740    -0.1180 H     1 <1>   0.0800 
 44 H       -7.6980     1.2150    -1.5570 H     1 <1>   0.1500 
 45 H       -6.2800    -1.7180     0.2190 H     1 <1>   0.0800 
 46 H       -7.5970    -1.1930    -0.7960 H     1 <1>   0.0800 
 47 H       -7.4550    -0.5790     0.8360 H     1 <1>   0.0800 
 48 H       -2.9090     6.8950    -0.1370 H     1 <1>   0.4500 
 49 H       -1.4930     8.8360     1.6040 H     1 <1>   0.0800 
 50 H       -3.1810     8.3900     1.7420 H     1 <1>   0.0800 
 51 H       -2.6180     9.2530     0.3280 H     1 <1>   0.0800 
@<TRIPOS>BOND
  1   1   2  2   
  2   2   3  am  
  3   2   4  1   
  4   3   5  1   
  5   3  26  1   
  6   4   6  1   
  7   4  27  1   
  8   4  28  1   
  9   5   7  ar  
 10   5   8  ar  
 11   6   9  1   
 12   7  10  1   
 13   7  11  ar  
 14   8  12  ar  
 15   8  29  1   
 16   9  13  ar  
 17   9  14  ar  
 18  10  15  1   
 19  10  16  1   
 20  11  17  ar  
 21  11  30  1   
 22  12  17  ar  
 23  12  31  1   
 24  13  18  ar  
 25  13  32  1   
 26  14  19  ar  
 27  14  33  1   
 28  15  20  1   
 29  15  34  1   
 30  15  35  1   
 31  16  21  1   
 32  16  36  1   
 33  16  37  1   
 34  17  38  1   
 35  18  22  ar  
 36  18  23  1   
 37  19  22  ar  
 38  19  39  1   
 39  20  24  1   
 40  20  40  1   
 41  20  41  1   
 42  21  24  1   
 43  21  42  1   
 44  21  43  1   
 45  22  44  1   
 46  23  45  1   
 47  23  46  1   
 48  23  47  1   
 49  24  25  1   
 50  24  48  1   
 51  25  49  1   
 52  25  50  1   
 53  25  51  1   
@<TRIPOS>SUBSTRUCTURE
  1 ****  15 GROUP 4 **** **** 0

# MOE 2024.06 (io_trps.svl 2023.06)
