@<TRIPOS>MOLECULE
2-Oxo-1-oxa-spiro[4.4]nonane-4-carboxylic acid (3-methoxy-phenyl)-amide
40 42 1 0 0 
SMALL
USER_CHARGES


@<TRIPOS>ATOM
  1 O       -0.3490     0.9410     1.1420 O.2   1 <1>  -0.5700 
  2 C       -1.5300     1.1170     1.0370 C.2   1 <1>   0.6590 
  3 O       -2.2400     0.7050     0.0050 O.3   1 <1>  -0.4300 
  4 C       -2.3900     1.8020     2.0620 C.3   1 <1>  -0.0990 
  5 C       -3.6230     0.8390     0.2190 C.3   1 <1>   0.2800 
  6 C       -3.7450     1.8800     1.3490 C.3   1 <1>  -0.0190 
  7 C       -4.3150     1.1080    -1.1190 C.3   1 <1>  -0.1600 
  8 C       -4.1460    -0.5520     0.5890 C.3   1 <1>  -0.1600 
  9 C       -4.1700     3.2590     0.8390 C.2   1 <1>   0.5690 
 10 C       -4.3580    -0.2450    -1.8350 C.3   1 <1>  -0.1600 
 11 C       -4.2620    -1.3120    -0.7370 C.3   1 <1>  -0.1600 
 12 O       -5.3440     3.5170     0.9050 O.2   1 <1>  -0.5700 
 13 N       -3.3440     4.2140     0.3280 N.am  1 <1>  -0.5470 
 14 C       -1.9610     4.3080     0.1520 C.ar  1 <1>   0.1170 
 15 C       -1.3090     3.6100    -0.8540 C.ar  1 <1>  -0.1500 
 16 C       -1.2240     5.1460     0.9800 C.ar  1 <1>  -0.1500 
 17 C        0.0650     3.7240    -1.0140 C.ar  1 <1>   0.0820 
 18 C        0.1440     5.2740     0.8160 C.ar  1 <1>  -0.1500 
 19 O        0.7510     3.0430    -1.9610 O.3   1 <1>  -0.3630 
 20 C        0.7870     4.5630    -0.1810 C.ar  1 <1>  -0.1500 
 21 C        0.3400     1.7370    -2.3050 C.3   1 <1>   0.0400 
 22 H       -1.9900     2.7580     2.3400 H     1 <1>   0.0800 
 23 H       -2.4490     1.1720     2.9300 H     1 <1>   0.0800 
 24 H       -4.5130     1.5690     2.0350 H     1 <1>   0.0800 
 25 H       -3.8190     1.8610    -1.7040 H     1 <1>   0.0800 
 26 H       -5.3260     1.4270    -0.9350 H     1 <1>   0.0800 
 27 H       -5.1320    -0.4590     1.0130 H     1 <1>   0.0800 
 28 H       -3.5130    -1.0600     1.2950 H     1 <1>   0.0800 
 29 H       -3.5110    -0.3340    -2.4940 H     1 <1>   0.0800 
 30 H       -5.2620    -0.3500    -2.4120 H     1 <1>   0.0800 
 31 H       -5.1210    -1.9610    -0.7380 H     1 <1>   0.0800 
 32 H       -3.3770    -1.9070    -0.8930 H     1 <1>   0.0800 
 33 H       -3.8610     5.0640     0.0950 H     1 <1>   0.3700 
 34 H       -1.8770     2.9860    -1.5130 H     1 <1>   0.1500 
 35 H       -1.7220     5.6990     1.7560 H     1 <1>   0.1500 
 36 H        0.7100     5.9230     1.4620 H     1 <1>   0.1500 
 37 H        1.8500     4.6480    -0.3180 H     1 <1>   0.1500 
 38 H        1.1100     1.2920    -2.9080 H     1 <1>   0.0800 
 39 H       -0.5760     1.7890    -2.8650 H     1 <1>   0.0800 
 40 H        0.2070     1.1640    -1.4050 H     1 <1>   0.0800 
@<TRIPOS>BOND
  1   1   2  2   
  2   2   3  1   
  3   2   4  1   
  4   3   5  1   
  5   4   6  1   
  6   4  22  1   
  7   4  23  1   
  8   5   6  1   
  9   5   7  1   
 10   5   8  1   
 11   6   9  1   
 12   6  24  1   
 13   7  10  1   
 14   7  25  1   
 15   7  26  1   
 16   8  11  1   
 17   8  27  1   
 18   8  28  1   
 19   9  12  2   
 20   9  13  am  
 21  10  11  1   
 22  10  29  1   
 23  10  30  1   
 24  11  31  1   
 25  11  32  1   
 26  13  14  1   
 27  13  33  1   
 28  14  15  ar  
 29  14  16  ar  
 30  15  17  ar  
 31  15  34  1   
 32  16  18  ar  
 33  16  35  1   
 34  17  19  1   
 35  17  20  ar  
 36  18  20  ar  
 37  18  36  1   
 38  19  21  1   
 39  20  37  1   
 40  21  38  1   
 41  21  39  1   
 42  21  40  1   
@<TRIPOS>SUBSTRUCTURE
  1 ****   3 GROUP 4 **** **** 0

# MOE 2024.06 (io_trps.svl 2023.06)
