@<TRIPOS>MOLECULE
2-[2-Methyl-4-(piperidine-1-sulfonyl)-phenoxy]-acetamide
41 42 1 0 0 
SMALL
USER_CHARGES


@<TRIPOS>ATOM
  1 S       -0.2520     0.3120     1.8530 S.o2  1 <1>   1.4470 
  2 O        0.0830    -0.5040     2.9990 O.2   1 <1>  -0.6500 
  3 O       -1.2120     1.3860     2.0000 O.2   1 <1>  -0.6500 
  4 N       -0.8540    -0.7240     0.6530 N.am  1 <1>  -0.8490 
  5 C        1.2810     0.9370     1.1150 C.ar  1 <1>  -0.0090 
  6 C       -1.3590     0.0170    -0.5080 C.3   1 <1>   0.1960 
  7 C       -1.8840    -1.6160     1.1930 C.3   1 <1>   0.1960 
  8 C        1.5180     2.2990     0.9830 C.ar  1 <1>  -0.1500 
  9 C        2.2560     0.0590     0.6600 C.ar  1 <1>  -0.1500 
 10 C       -1.7490    -0.9530    -1.6270 C.3   1 <1>  -0.1600 
 11 C       -2.3080    -2.6430     0.1370 C.3   1 <1>  -0.1600 
 12 C        2.6850     2.7820     0.4140 C.ar  1 <1>  -0.1430 
 13 C        3.4280     0.5200     0.0900 C.ar  1 <1>  -0.1500 
 14 C       -2.7980    -1.9620    -1.1460 C.3   1 <1>  -0.1600 
 15 C        3.6510     1.8870    -0.0360 C.ar  1 <1>   0.0830 
 16 C        2.8970     4.2850     0.2920 C.3   1 <1>  -0.0970 
 17 O        4.7790     2.4020    -0.5820 O.3   1 <1>  -0.3630 
 18 C        5.8460     1.5680    -1.0190 C.3   1 <1>   0.1810 
 19 C        7.0070     2.3970    -1.5530 C.2   1 <1>   0.5690 
 20 O        7.9810     1.8380    -1.9890 O.2   1 <1>  -0.5700 
 21 N        6.9490     3.7440    -1.5380 N.am  1 <1>  -0.8000 
 22 H       -0.5970     0.6840    -0.8750 H     1 <1>   0.0800 
 23 H       -2.2160     0.6080    -0.2240 H     1 <1>   0.0800 
 24 H       -2.7360    -1.0390     1.5140 H     1 <1>   0.0800 
 25 H       -1.4970    -2.1460     2.0490 H     1 <1>   0.0800 
 26 H        0.7700     2.9900     1.3350 H     1 <1>   0.1500 
 27 H        2.0880    -1.0010     0.7560 H     1 <1>   0.1500 
 28 H       -0.8670    -1.4730    -1.9590 H     1 <1>   0.0800 
 29 H       -2.1380    -0.3980    -2.4620 H     1 <1>   0.0800 
 30 H       -3.0880    -3.2650     0.5380 H     1 <1>   0.0800 
 31 H       -1.4660    -3.2750    -0.0850 H     1 <1>   0.0800 
 32 H        4.1470    -0.2040    -0.2450 H     1 <1>   0.1500 
 33 H       -2.9790    -2.6990    -1.9090 H     1 <1>   0.0800 
 34 H       -3.7240    -1.4490    -0.9480 H     1 <1>   0.0800 
 35 H        2.0560     4.8300     0.6810 H     1 <1>   0.0800 
 36 H        3.0300     4.5520    -0.7410 H     1 <1>   0.0800 
 37 H        3.7750     4.5740     0.8420 H     1 <1>   0.0800 
 38 H        5.4800     0.9270    -1.7990 H     1 <1>   0.0800 
 39 H        6.1840     0.9820    -0.1850 H     1 <1>   0.0800 
 40 H        7.7240     4.3000    -1.8960 H     1 <1>   0.3700 
 41 H        6.1320     4.2390    -1.1770 H     1 <1>   0.3700 
@<TRIPOS>BOND
  1   1   2  2   
  2   1   3  2   
  3   1   4  am  
  4   1   5  1   
  5   4   6  1   
  6   4   7  1   
  7   5   8  ar  
  8   5   9  ar  
  9   6  10  1   
 10   6  22  1   
 11   6  23  1   
 12   7  11  1   
 13   7  24  1   
 14   7  25  1   
 15   8  12  ar  
 16   8  26  1   
 17   9  13  ar  
 18   9  27  1   
 19  10  14  1   
 20  10  28  1   
 21  10  29  1   
 22  11  14  1   
 23  11  30  1   
 24  11  31  1   
 25  12  15  ar  
 26  12  16  1   
 27  13  15  ar  
 28  13  32  1   
 29  14  33  1   
 30  14  34  1   
 31  15  17  1   
 32  16  35  1   
 33  16  36  1   
 34  16  37  1   
 35  17  18  1   
 36  18  19  1   
 37  18  38  1   
 38  18  39  1   
 39  19  20  2   
 40  19  21  am  
 41  21  40  1   
 42  21  41  1   
@<TRIPOS>SUBSTRUCTURE
  1 ****   9 GROUP 4 **** **** 0

# MOE 2024.06 (io_trps.svl 2023.06)
