@<TRIPOS>MOLECULE
N-(3-o-Tolyl-[1,2,4]oxadiazol-5-ylmethyl)-isobutyramide
36 37 1 0 0 
SMALL
USER_CHARGES


@<TRIPOS>ATOM
  1 O       -0.9510    -0.6850     0.2830 O.2   1 <1>  -0.5700 
  2 C       -2.0750    -0.8680    -0.1100 C.2   1 <1>   0.5690 
  3 N       -2.2420    -1.3980    -1.3450 N.am  1 <1>  -0.7300 
  4 C       -3.2620    -0.5080     0.7990 C.3   1 <1>  -0.0190 
  5 C       -3.4970    -1.8000    -2.0330 C.3   1 <1>   0.3200 
  6 C       -3.1270     0.9100     1.3800 C.3   1 <1>  -0.2400 
  7 C       -3.4100    -1.5260     1.9400 C.3   1 <1>  -0.2400 
  8 C       -4.1970    -2.9570    -1.3340 C.2   1 <1>   0.2980 
  9 O       -3.5710    -4.0990    -1.2300 O.3   1 <1>  -0.0190 
 10 N       -5.3590    -2.9240    -0.8240 N.2   1 <1>  -0.5650 
 11 N       -4.4010    -4.8560    -0.5860 N.2   1 <1>  -0.4100 
 12 C       -5.4590    -4.1670    -0.3420 C.2   1 <1>   0.4620 
 13 C       -6.6140    -4.6440     0.3980 C.ar  1 <1>   0.0540 
 14 C       -7.9400    -4.4840    -0.0330 C.ar  1 <1>  -0.1440 
 15 C       -6.4020    -5.3040     1.6090 C.ar  1 <1>  -0.1500 
 16 C       -8.9880    -4.9560     0.7410 C.ar  1 <1>  -0.1500 
 17 C       -8.2720    -3.8030    -1.3550 C.3   1 <1>  -0.0970 
 18 C       -7.4500    -5.7760     2.3750 C.ar  1 <1>  -0.1500 
 19 C       -8.7490    -5.5990     1.9420 C.ar  1 <1>  -0.1500 
 20 H       -1.3710    -1.6480    -1.8170 H     1 <1>   0.3700 
 21 H       -4.1670    -0.5250     0.2220 H     1 <1>   0.0800 
 22 H       -3.2670    -2.0930    -3.0420 H     1 <1>   0.0800 
 23 H       -4.1640    -0.9580    -2.0760 H     1 <1>   0.0800 
 24 H       -2.2490     0.9790     1.9990 H     1 <1>   0.0800 
 25 H       -3.9890     1.1580     1.9740 H     1 <1>   0.0800 
 26 H       -3.0390     1.6290     0.5850 H     1 <1>   0.0800 
 27 H       -2.5350    -1.5140     2.5660 H     1 <1>   0.0800 
 28 H       -3.5270    -2.5180     1.5420 H     1 <1>   0.0800 
 29 H       -4.2710    -1.2970     2.5420 H     1 <1>   0.0800 
 30 H       -5.3930    -5.4470     1.9550 H     1 <1>   0.1500 
 31 H      -10.0050    -4.8290     0.4140 H     1 <1>   0.1500 
 32 H       -7.6450    -4.1860    -2.1400 H     1 <1>   0.0800 
 33 H       -8.1150    -2.7430    -1.2690 H     1 <1>   0.0800 
 34 H       -9.2960    -3.9740    -1.6320 H     1 <1>   0.0800 
 35 H       -7.2560    -6.2790     3.3070 H     1 <1>   0.1500 
 36 H       -9.5710    -5.9620     2.5340 H     1 <1>   0.1500 
@<TRIPOS>BOND
  1   1   2  2   
  2   2   3  am  
  3   2   4  1   
  4   3   5  1   
  5   3  20  1   
  6   4   6  1   
  7   4   7  1   
  8   4  21  1   
  9   5   8  1   
 10   5  22  1   
 11   5  23  1   
 12   6  24  1   
 13   6  25  1   
 14   6  26  1   
 15   7  27  1   
 16   7  28  1   
 17   7  29  1   
 18   8   9  1   
 19   8  10  2   
 20   9  11  1   
 21  10  12  1   
 22  11  12  2   
 23  12  13  1   
 24  13  14  ar  
 25  13  15  ar  
 26  14  16  ar  
 27  14  17  1   
 28  15  18  ar  
 29  15  30  1   
 30  16  19  ar  
 31  16  31  1   
 32  17  32  1   
 33  17  33  1   
 34  17  34  1   
 35  18  19  ar  
 36  18  35  1   
 37  19  36  1   
@<TRIPOS>SUBSTRUCTURE
  1 ****  10 GROUP 4 **** **** 0

# MOE 2024.06 (io_trps.svl 2023.06)
