@<TRIPOS>MOLECULE
1-Morpholin-4-yl-4-[3-(3,4,5-trimethoxy-phenyl)-[1,2,4]oxadiazol-5-yl]-butan-1-o
53 55 1 0 0 
SMALL
USER_CHARGES


@<TRIPOS>ATOM
  1 O       -1.4780    -0.6040    -0.4220 O.2   1 <1>  -0.5700 
  2 C       -1.4840    -1.6200     0.2310 C.2   1 <1>   0.5690 
  3 N       -0.4730    -2.5420     0.1330 N.am  1 <1>  -0.6600 
  4 C       -2.6480    -1.8660     1.1860 C.3   1 <1>  -0.0990 
  5 C        0.6790    -2.3350    -0.7970 C.3   1 <1>   0.1400 
  6 C       -0.3920    -3.8420     0.8670 C.3   1 <1>   0.1400 
  7 C       -3.7270    -0.7610     1.1820 C.3   1 <1>  -0.1600 
  8 C        0.8930    -3.5760    -1.6790 C.3   1 <1>   0.1200 
  9 C       -0.1230    -4.9980    -0.1130 C.3   1 <1>   0.1200 
 10 C       -4.8220    -0.9660     2.2440 C.3   1 <1>   0.0200 
 11 O        1.0070    -4.7300    -0.8930 O.3   1 <1>  -0.5600 
 12 C       -5.5610    -2.2840     2.0940 C.2   1 <1>   0.2980 
 13 O       -5.0410    -3.3620     2.6230 O.3   1 <1>  -0.0190 
 14 N       -6.6630    -2.4510     1.4920 N.2   1 <1>  -0.5650 
 15 N       -5.8820    -4.2990     2.3200 N.2   1 <1>  -0.4100 
 16 C       -6.8460    -3.7660     1.6550 C.2   1 <1>   0.4620 
 17 C       -8.0040    -4.4680     1.1270 C.ar  1 <1>   0.0540 
 18 C       -8.1580    -5.8440     1.3020 C.ar  1 <1>  -0.1500 
 19 C       -9.0060    -3.8030     0.4200 C.ar  1 <1>  -0.1500 
 20 C       -9.2520    -6.5340     0.8090 C.ar  1 <1>   0.0820 
 21 C      -10.1080    -4.4700    -0.0820 C.ar  1 <1>   0.0820 
 22 O       -9.2660    -7.8740     1.0490 O.3   1 <1>  -0.3630 
 23 C      -10.2590    -5.8430     0.1270 C.ar  1 <1>   0.0820 
 24 O      -11.0240    -3.7330    -0.7600 O.3   1 <1>  -0.3630 
 25 C       -9.6540    -8.7590     0.0200 C.3   1 <1>   0.0400 
 26 O      -11.3800    -6.4810    -0.3030 O.3   1 <1>  -0.3630 
 27 C      -11.1410    -3.9940    -2.1410 C.3   1 <1>   0.0400 
 28 C      -12.5260    -6.2810     0.4920 C.3   1 <1>   0.0400 
 29 H       -2.2480    -1.9650     2.1780 H     1 <1>   0.0800 
 30 H       -3.1040    -2.7960     0.9030 H     1 <1>   0.0800 
 31 H        1.5690    -2.1510    -0.2220 H     1 <1>   0.0800 
 32 H        0.5120    -1.4800    -1.4280 H     1 <1>   0.0800 
 33 H       -1.2970    -4.0470     1.4060 H     1 <1>   0.0800 
 34 H        0.4140    -3.7940     1.5780 H     1 <1>   0.0800 
 35 H       -4.1830    -0.7220     0.2070 H     1 <1>   0.0800 
 36 H       -3.2560     0.1920     1.3560 H     1 <1>   0.0800 
 37 H        1.8010    -3.4750    -2.2480 H     1 <1>   0.0800 
 38 H        0.0700    -3.7000    -2.3610 H     1 <1>   0.0800 
 39 H       -0.9660    -5.1470    -0.7650 H     1 <1>   0.0800 
 40 H        0.0620    -5.9090     0.4290 H     1 <1>   0.0800 
 41 H       -5.5370    -0.1670     2.1600 H     1 <1>   0.0800 
 42 H       -4.3930    -0.9160     3.2280 H     1 <1>   0.0800 
 43 H       -7.4080    -6.3980     1.8360 H     1 <1>   0.1500 
 44 H       -8.9300    -2.7430     0.2560 H     1 <1>   0.1500 
 45 H       -9.2950    -8.3850    -0.9230 H     1 <1>   0.0800 
 46 H       -9.2200    -9.7210     0.2250 H     1 <1>   0.0800 
 47 H      -10.7260    -8.8390     0.0140 H     1 <1>   0.0800 
 48 H      -10.1690    -3.9090    -2.5950 H     1 <1>   0.0800 
 49 H      -11.8090    -3.2660    -2.5640 H     1 <1>   0.0800 
 50 H      -11.5370    -4.9820    -2.2860 H     1 <1>   0.0800 
 51 H      -13.3320    -6.8570     0.0750 H     1 <1>   0.0800 
 52 H      -12.3140    -6.6110     1.4940 H     1 <1>   0.0800 
 53 H      -12.7800    -5.2350     0.4880 H     1 <1>   0.0800 
@<TRIPOS>BOND
  1   1   2  2   
  2   2   3  am  
  3   2   4  1   
  4   3   5  1   
  5   3   6  1   
  6   4   7  1   
  7   4  29  1   
  8   4  30  1   
  9   5   8  1   
 10   5  31  1   
 11   5  32  1   
 12   6   9  1   
 13   6  33  1   
 14   6  34  1   
 15   7  10  1   
 16   7  35  1   
 17   7  36  1   
 18   8  11  1   
 19   8  37  1   
 20   8  38  1   
 21   9  11  1   
 22   9  39  1   
 23   9  40  1   
 24  10  12  1   
 25  10  41  1   
 26  10  42  1   
 27  12  13  1   
 28  12  14  2   
 29  13  15  1   
 30  14  16  1   
 31  15  16  2   
 32  16  17  1   
 33  17  18  ar  
 34  17  19  ar  
 35  18  20  ar  
 36  18  43  1   
 37  19  21  ar  
 38  19  44  1   
 39  20  22  1   
 40  20  23  ar  
 41  21  23  ar  
 42  21  24  1   
 43  22  25  1   
 44  23  26  1   
 45  24  27  1   
 46  25  45  1   
 47  25  46  1   
 48  25  47  1   
 49  26  28  1   
 50  27  48  1   
 51  27  49  1   
 52  27  50  1   
 53  28  51  1   
 54  28  52  1   
 55  28  53  1   
@<TRIPOS>SUBSTRUCTURE
  1 ****  16 GROUP 4 **** **** 0

# MOE 2024.06 (io_trps.svl 2023.06)
