@<TRIPOS>MOLECULE
3-tert-Butyl-6-(4-methoxy-phenoxymethyl)-[1,2,4]triazolo[3,4-b][1,3,4]thiadiazol
40 42 1 0 0 
SMALL
USER_CHARGES


@<TRIPOS>ATOM
  1 S       -0.1700    -0.4110     0.6330 S.3   1 <1>  -0.1970 
  2 C        0.6550     1.1260     0.4790 C.2   1 <1>   0.2420 
  3 C       -1.7080     0.4450     0.4020 C.2   1 <1>   0.5300 
  4 N        1.8750     1.5200     0.5130 N.2   1 <1>  -0.3380 
  5 N       -0.2410     2.0780     0.2820 N.pl3 1 <1>   0.5050 
  6 N       -1.5890     1.7020     0.2360 N.2   1 <1>  -0.6520 
  7 C       -2.9450    -0.4450     0.4360 C.3   1 <1>   0.1810 
  8 N        1.7990     2.8510     0.3220 N.2   1 <1>  -0.3380 
  9 C        0.5410     3.1700     0.1870 C.2   1 <1>   0.0060 
 10 O       -4.1270     0.3100     0.2460 O.3   1 <1>  -0.3630 
 11 C       -0.0140     4.5820    -0.0500 C.3   1 <1>   0.1800 
 12 C       -5.3470    -0.2880     0.2410 C.ar  1 <1>   0.0820 
 13 C       -0.9570     4.9760     1.0960 C.3   1 <1>  -0.2400 
 14 C        1.1250     5.6140    -0.1110 C.3   1 <1>  -0.2400 
 15 C       -0.7770     4.6320    -1.3820 C.3   1 <1>  -0.2400 
 16 C       -5.5440    -1.6560     0.4160 C.ar  1 <1>  -0.1500 
 17 C       -6.4420     0.5390     0.0470 C.ar  1 <1>  -0.1500 
 18 C       -6.8270    -2.1750     0.3950 C.ar  1 <1>  -0.1500 
 19 C       -7.7240     0.0190     0.0260 C.ar  1 <1>  -0.1500 
 20 C       -7.9220    -1.3480     0.2010 C.ar  1 <1>   0.0820 
 21 O       -9.1430    -1.9450     0.1950 O.3   1 <1>  -0.3630 
 22 C      -10.3190    -1.1910     0.0040 C.3   1 <1>   0.0400 
 23 H       -3.0100    -0.9330     1.3910 H     1 <1>   0.0800 
 24 H       -2.8840    -1.1740    -0.3510 H     1 <1>   0.0800 
 25 H       -0.4390     4.9210     2.0370 H     1 <1>   0.0800 
 26 H       -1.8080     4.3200     1.1370 H     1 <1>   0.0800 
 27 H       -1.3160     5.9810     0.9620 H     1 <1>   0.0800 
 28 H        1.8040     5.3730    -0.9100 H     1 <1>   0.0800 
 29 H        1.6790     5.6130     0.8110 H     1 <1>   0.0800 
 30 H        0.7390     6.6030    -0.2760 H     1 <1>   0.0800 
 31 H       -1.1310     5.6280    -1.5780 H     1 <1>   0.0800 
 32 H       -0.1320     4.3330    -2.1890 H     1 <1>   0.0800 
 33 H       -1.6270     3.9720    -1.3630 H     1 <1>   0.0800 
 34 H       -4.7250    -2.3320     0.5690 H     1 <1>   0.1500 
 35 H       -6.2820     1.5930    -0.0880 H     1 <1>   0.1500 
 36 H       -6.9910    -3.2290     0.5290 H     1 <1>   0.1500 
 37 H       -8.5490     0.6880    -0.1270 H     1 <1>   0.1500 
 38 H      -11.1560    -1.8640     0.0370 H     1 <1>   0.0800 
 39 H      -10.2740    -0.7100    -0.9570 H     1 <1>   0.0800 
 40 H      -10.4020    -0.4670     0.7960 H     1 <1>   0.0800 
@<TRIPOS>BOND
  1   1   2  1   
  2   1   3  1   
  3   2   4  2   
  4   2   5  1   
  5   3   6  2   
  6   3   7  1   
  7   4   8  1   
  8   5   6  1   
  9   5   9  1   
 10   7  10  1   
 11   7  23  1   
 12   7  24  1   
 13   8   9  2   
 14   9  11  1   
 15  10  12  1   
 16  11  13  1   
 17  11  14  1   
 18  11  15  1   
 19  12  16  ar  
 20  12  17  ar  
 21  13  25  1   
 22  13  26  1   
 23  13  27  1   
 24  14  28  1   
 25  14  29  1   
 26  14  30  1   
 27  15  31  1   
 28  15  32  1   
 29  15  33  1   
 30  16  18  ar  
 31  16  34  1   
 32  17  19  ar  
 33  17  35  1   
 34  18  20  ar  
 35  18  36  1   
 36  19  20  ar  
 37  19  37  1   
 38  20  21  1   
 39  21  22  1   
 40  22  38  1   
 41  22  39  1   
 42  22  40  1   
@<TRIPOS>SUBSTRUCTURE
  1 ****  10 GROUP 4 **** **** 0

# MOE 2024.06 (io_trps.svl 2023.06)
