@<TRIPOS>MOLECULE
4-[2-(4-Methyl-6-oxo-1,6-dihydro-pyrimidin-2-ylsulfanyl)-butyrylamino]-benzoic a
47 48 1 0 0 
SMALL
USER_CHARGES


@<TRIPOS>ATOM
  1 S       -0.9200    -0.6870    -0.3510 S.3   1 <1>  -0.3710 
  2 C        0.7260    -1.3230    -0.5300 C.2   1 <1>   0.6410 
  3 C       -1.9370    -2.1620     0.1680 C.3   1 <1>   0.2110 
  4 N        1.6340    -0.4030    -0.9460 N.pl3 1 <1>  -0.5500 
  5 N        0.9670    -2.5530    -0.2700 N.2   1 <1>  -0.6610 
  6 C       -3.3840    -1.9630    -0.2900 C.2   1 <1>   0.5690 
  7 C       -1.7910    -2.3010     1.6960 C.3   1 <1>  -0.1600 
  8 C        2.9430    -0.7520    -1.1250 C.2   1 <1>  -0.0380 
  9 C        2.2630    -2.9520    -0.4320 C.2   1 <1>   0.7670 
 10 O       -3.9920    -2.9140    -0.7190 O.2   1 <1>  -0.5700 
 11 N       -3.9220    -0.7050    -0.1920 N.am  1 <1>  -0.5470 
 12 C       -2.5290    -3.5270     2.2500 C.3   1 <1>  -0.2400 
 13 C        3.2640    -2.0400    -0.8670 C.2   1 <1>  -0.1360 
 14 C        3.9130     0.3130    -1.5920 C.3   1 <1>  -0.1020 
 15 O        2.5450    -4.1140    -0.1920 O.2   1 <1>  -0.5700 
 16 C       -5.2120    -0.2210    -0.4290 C.ar  1 <1>   0.1170 
 17 C       -6.3360    -1.0370    -0.5060 C.ar  1 <1>  -0.1500 
 18 C       -5.3960     1.1490    -0.5810 C.ar  1 <1>  -0.1500 
 19 C       -7.5890    -0.5030    -0.7300 C.ar  1 <1>  -0.1500 
 20 C       -6.6510     1.6810    -0.8040 C.ar  1 <1>  -0.1500 
 21 C       -7.7880     0.8710    -0.8850 C.ar  1 <1>   0.0860 
 22 C       -9.1110     1.4150    -1.1160 C.2   1 <1>   0.6340 
 23 O      -10.1130     0.7310    -1.1810 O.2   1 <1>  -0.5700 
 24 O       -9.2290     2.7390    -1.2640 O.3   1 <1>  -0.4300 
 25 C      -10.4800     3.3480    -1.4910 C.3   1 <1>   0.1200 
 26 C      -10.2600     4.8530    -1.6120 C.3   1 <1>  -0.2400 
 27 H       -1.5330    -3.0240    -0.3330 H     1 <1>   0.0800 
 28 H        1.2930     0.5450    -1.1200 H     1 <1>   0.4000 
 29 H       -2.1690    -1.4150     2.1760 H     1 <1>   0.0800 
 30 H       -0.7480    -2.3930     1.9410 H     1 <1>   0.0800 
 31 H       -3.2320     0.0080     0.0460 H     1 <1>   0.3700 
 32 H       -3.5890    -3.4510     2.0790 H     1 <1>   0.0800 
 33 H       -2.3610    -3.6100     3.3090 H     1 <1>   0.0800 
 34 H       -2.1680    -4.4250     1.7780 H     1 <1>   0.0800 
 35 H        4.2560    -2.4320    -0.9700 H     1 <1>   0.1500 
 36 H        3.9470     1.1200    -0.8820 H     1 <1>   0.0800 
 37 H        3.6070     0.7000    -2.5480 H     1 <1>   0.0800 
 38 H        4.9030    -0.0960    -1.6910 H     1 <1>   0.0800 
 39 H       -6.2380    -2.1010    -0.3880 H     1 <1>   0.1500 
 40 H       -4.5470     1.8060    -0.5270 H     1 <1>   0.1500 
 41 H       -8.4390    -1.1620    -0.7860 H     1 <1>   0.1500 
 42 H       -6.7550     2.7460    -0.9180 H     1 <1>   0.1500 
 43 H      -11.1280     3.1170    -0.6620 H     1 <1>   0.0800 
 44 H      -10.8960     2.9440    -2.3990 H     1 <1>   0.0800 
 45 H       -9.8350     5.2390    -0.7030 H     1 <1>   0.0800 
 46 H      -11.2000     5.3430    -1.7860 H     1 <1>   0.0800 
 47 H       -9.6040     5.0660    -2.4360 H     1 <1>   0.0800 
@<TRIPOS>BOND
  1   1   2  1   
  2   1   3  1   
  3   2   4  1   
  4   2   5  2   
  5   3   6  1   
  6   3   7  1   
  7   3  27  1   
  8   4   8  1   
  9   4  28  1   
 10   5   9  1   
 11   6  10  2   
 12   6  11  am  
 13   7  12  1   
 14   7  29  1   
 15   7  30  1   
 16   8  13  2   
 17   8  14  1   
 18   9  13  1   
 19   9  15  2   
 20  11  16  1   
 21  11  31  1   
 22  12  32  1   
 23  12  33  1   
 24  12  34  1   
 25  13  35  1   
 26  14  36  1   
 27  14  37  1   
 28  14  38  1   
 29  16  17  ar  
 30  16  18  ar  
 31  17  19  ar  
 32  17  39  1   
 33  18  20  ar  
 34  18  40  1   
 35  19  21  ar  
 36  19  41  1   
 37  20  21  ar  
 38  20  42  1   
 39  21  22  1   
 40  22  23  2   
 41  22  24  1   
 42  24  25  1   
 43  25  26  1   
 44  25  43  1   
 45  25  44  1   
 46  26  45  1   
 47  26  46  1   
 48  26  47  1   
@<TRIPOS>SUBSTRUCTURE
  1 ****  11 GROUP 4 **** **** 0

# MOE 2024.06 (io_trps.svl 2023.06)
