@<TRIPOS>MOLECULE
3-tert-Butyl-6-[(E)-2-(2-methoxy-phenyl)-vinyl]-[1,2,4]triazolo[3,4-b][1,3,4]thi
40 42 1 0 0 
SMALL
USER_CHARGES


@<TRIPOS>ATOM
  1 S       -0.3020    -0.2230     0.6370 S.3   1 <1>  -0.1970 
  2 C        0.6570     1.2270     0.4790 C.2   1 <1>   0.2420 
  3 C       -1.7680     0.7660     0.4210 C.2   1 <1>   0.5770 
  4 N        1.9080     1.5090     0.5030 N.2   1 <1>  -0.3380 
  5 N       -0.1520     2.2540     0.2900 N.pl3 1 <1>   0.5050 
  6 N       -1.5260     2.0170     0.2550 N.2   1 <1>  -0.6520 
  7 C       -3.0210     0.0790     0.4580 C.2   1 <1>  -0.1360 
  8 N        1.9510     2.8410     0.3160 N.2   1 <1>  -0.3380 
  9 C        0.7260     3.2720     0.1910 C.2   1 <1>   0.0060 
 10 C       -4.2510     0.6270     0.3120 C.2   1 <1>  -0.1780 
 11 C        0.3010     4.7290    -0.0390 C.3   1 <1>   0.1800 
 12 C       -5.5370    -0.0300     0.3480 C.ar  1 <1>   0.0280 
 13 C       -0.4650     4.8520    -1.3650 C.3   1 <1>  -0.2400 
 14 C       -0.5930     5.2060     1.1150 C.3   1 <1>  -0.2400 
 15 C        1.5290     5.6530    -0.1080 C.3   1 <1>  -0.2400 
 16 C       -6.6810     0.5600    -0.2150 C.ar  1 <1>   0.0830 
 17 C       -5.6850    -1.2790     0.9540 C.ar  1 <1>  -0.1500 
 18 O       -6.5430     1.7760    -0.8070 O.3   1 <1>  -0.3630 
 19 C       -7.9090    -0.0970    -0.1660 C.ar  1 <1>  -0.1500 
 20 C       -6.9040    -1.9260     0.9990 C.ar  1 <1>  -0.1500 
 21 C       -7.6220     2.4550    -1.4110 C.3   1 <1>   0.0400 
 22 C       -8.0200    -1.3340     0.4370 C.ar  1 <1>  -0.1500 
 23 H       -2.9220    -0.9770     0.6140 H     1 <1>   0.1500 
 24 H       -4.3090     1.6890     0.1390 H     1 <1>   0.1500 
 25 H       -0.7270     5.8770    -1.5570 H     1 <1>   0.0800 
 26 H       -1.3720     4.2740    -1.3410 H     1 <1>   0.0800 
 27 H        0.1430     4.4970    -2.1780 H     1 <1>   0.0800 
 28 H       -0.0750     5.1010     2.0520 H     1 <1>   0.0800 
 29 H       -1.5000     4.6320     1.1620 H     1 <1>   0.0800 
 30 H       -0.8580     6.2400     0.9860 H     1 <1>   0.0800 
 31 H        1.2340     6.6740    -0.2690 H     1 <1>   0.0800 
 32 H        2.1770     5.3530    -0.9130 H     1 <1>   0.0800 
 33 H        2.0880     5.5990     0.8090 H     1 <1>   0.0800 
 34 H       -4.8390    -1.7580     1.4100 H     1 <1>   0.1500 
 35 H       -8.7930     0.3380    -0.5920 H     1 <1>   0.1500 
 36 H       -6.9900    -2.8890     1.4720 H     1 <1>   0.1500 
 37 H       -8.3750     2.6460    -0.6670 H     1 <1>   0.0800 
 38 H       -8.0110     1.8500    -2.2110 H     1 <1>   0.0800 
 39 H       -7.2530     3.3850    -1.8040 H     1 <1>   0.0800 
 40 H       -8.9710    -1.8370     0.4710 H     1 <1>   0.1500 
@<TRIPOS>BOND
  1   1   2  1   
  2   1   3  1   
  3   2   4  2   
  4   2   5  1   
  5   3   6  2   
  6   3   7  1   
  7   4   8  1   
  8   5   6  1   
  9   5   9  1   
 10   7  10  2   
 11   7  23  1   
 12   8   9  2   
 13   9  11  1   
 14  10  12  1   
 15  10  24  1   
 16  11  13  1   
 17  11  14  1   
 18  11  15  1   
 19  12  16  ar  
 20  12  17  ar  
 21  13  25  1   
 22  13  26  1   
 23  13  27  1   
 24  14  28  1   
 25  14  29  1   
 26  14  30  1   
 27  15  31  1   
 28  15  32  1   
 29  15  33  1   
 30  16  18  1   
 31  16  19  ar  
 32  17  20  ar  
 33  17  34  1   
 34  18  21  1   
 35  19  22  ar  
 36  19  35  1   
 37  20  22  ar  
 38  20  36  1   
 39  21  37  1   
 40  21  38  1   
 41  21  39  1   
 42  22  40  1   
@<TRIPOS>SUBSTRUCTURE
  1 ****   6 GROUP 4 **** **** 0

# MOE 2024.06 (io_trps.svl 2023.06)
