@<TRIPOS>MOLECULE
3-(3,5-Dimethyl-[1,2,4]triazol-1-yl)-2-methyl-propionic acid
26 26 1 0 0 
SMALL
USER_CHARGES


@<TRIPOS>ATOM
  1 O       -2.8040     1.0390    -1.8340 O.co2 1 <1>  -0.9000 
  2 C       -2.4040     0.4800    -0.8110 C.2   1 <1>   0.9060 
  3 O       -1.2730     0.6670    -0.3590 O.co2 1 <1>  -0.9000 
  4 C       -3.3990    -0.2460     0.0560 C.3   1 <1>  -0.1860 
  5 C       -3.6620     0.6920     1.2340 C.3   1 <1>   0.3540 
  6 C       -2.9040    -1.6340     0.5220 C.3   1 <1>  -0.2400 
  7 N       -4.3510     1.9300     0.7760 N.pl3 1 <1>  -0.4570 
  8 N       -5.7040     1.9670     0.6550 N.2   1 <1>  -0.2600 
  9 C       -3.8170     3.0440     0.2980 C.cat 1 <1>   0.6560 
 10 C       -5.9350     3.0980     0.0940 C.2   1 <1>   0.4850 
 11 N       -4.8000     3.8000    -0.1260 N.pl3 1 <1>  -0.7000 
 12 C       -2.3630     3.4600     0.2260 C.3   1 <1>  -0.0960 
 13 C       -7.2960     3.6230    -0.2960 C.3   1 <1>  -0.0720 
 14 H       -4.3060    -0.3770    -0.5050 H     1 <1>   0.0800 
 15 H       -2.7340     0.9430     1.7210 H     1 <1>   0.0800 
 16 H       -4.2900     0.1970     1.9530 H     1 <1>   0.0800 
 17 H       -1.9890    -1.5370     1.0820 H     1 <1>   0.0800 
 18 H       -2.7050    -2.2520    -0.3370 H     1 <1>   0.0800 
 19 H       -3.6430    -2.1210     1.1320 H     1 <1>   0.0800 
 20 H       -4.7100     4.6990    -0.5900 H     1 <1>   0.4500 
 21 H       -1.9890     3.2910    -0.7680 H     1 <1>   0.0800 
 22 H       -1.7680     2.8890     0.9130 H     1 <1>   0.0800 
 23 H       -2.2610     4.5000     0.4650 H     1 <1>   0.0800 
 24 H       -8.0540     2.9100    -0.0260 H     1 <1>   0.0800 
 25 H       -7.3340     3.7810    -1.3580 H     1 <1>   0.0800 
 26 H       -7.4930     4.5490     0.2110 H     1 <1>   0.0800 
@<TRIPOS>BOND
  1   1   2  ar  
  2   2   3  ar  
  3   2   4  1   
  4   4   5  1   
  5   4   6  1   
  6   4  14  1   
  7   5   7  1   
  8   5  15  1   
  9   5  16  1   
 10   6  17  1   
 11   6  18  1   
 12   6  19  1   
 13   7   8  1   
 14   7   9  ar  
 15   8  10  2   
 16   9  11  ar  
 17   9  12  1   
 18  10  11  1   
 19  10  13  1   
 20  11  20  1   
 21  12  21  1   
 22  12  22  1   
 23  12  23  1   
 24  13  24  1   
 25  13  25  1   
 26  13  26  1   
@<TRIPOS>SUBSTRUCTURE
  1 ****   7 GROUP 4 **** **** 0

# MOE 2024.06 (io_trps.svl 2023.06)
