@<TRIPOS>MOLECULE
1-Furan-2-ylmethyl-3-isopropyl-piperazine
36 37 1 0 0 
SMALL
USER_CHARGES


@<TRIPOS>ATOM
  1 O        0.3010     0.4570    -0.8830 O.3   1 <1>  -0.2800 
  2 C       -0.1480     1.4690    -0.1610 C.2   1 <1>  -0.0400 
  3 C        1.4310     0.0510    -0.3400 C.2   1 <1>  -0.0100 
  4 C        0.6960     1.7280     0.8620 C.2   1 <1>  -0.1500 
  5 C       -1.4430     2.1560    -0.5670 C.3   1 <1>   0.2900 
  6 C        1.7330     0.7940     0.7450 C.2   1 <1>  -0.1500 
  7 N       -2.6440     1.4830    -0.0130 N.3   1 <1>  -0.8100 
  8 C       -3.8740     2.2250    -0.3620 C.3   1 <1>   0.1100 
  9 C       -2.7240     0.0580    -0.4020 C.3   1 <1>   0.1100 
 10 C       -5.1430     1.5670     0.2410 C.3   1 <1>   0.4230 
 11 C       -3.9650    -0.6180     0.2070 C.3   1 <1>   0.3430 
 12 N       -5.2180     0.1250    -0.1420 N.4   1 <1>  -0.9060 
 13 C       -6.4510     2.2790    -0.1870 C.3   1 <1>  -0.0800 
 14 C       -6.4950     3.7360     0.3080 C.3   1 <1>  -0.2400 
 15 C       -7.7130     1.5610     0.3320 C.3   1 <1>  -0.2400 
 16 H        1.9590    -0.7730    -0.7890 H     1 <1>   0.1500 
 17 H        0.6210     2.4820     1.6240 H     1 <1>   0.1500 
 18 H       -1.4960     2.1950    -1.6420 H     1 <1>   0.0800 
 19 H       -1.4110     3.1670    -0.1980 H     1 <1>   0.0800 
 20 H        2.5820     0.7160     1.4020 H     1 <1>   0.1500 
 21 H       -3.9720     2.2900    -1.4320 H     1 <1>   0.0800 
 22 H       -3.7840     3.2260     0.0230 H     1 <1>   0.0800 
 23 H       -1.8580    -0.4660    -0.0350 H     1 <1>   0.0800 
 24 H       -2.7350    -0.0360    -1.4750 H     1 <1>   0.0800 
 25 H       -5.0620     1.6360     1.3130 H     1 <1>   0.0800 
 26 H       -3.8420    -0.6430     1.2770 H     1 <1>   0.0800 
 27 H       -4.0250    -1.6350    -0.1450 H     1 <1>   0.0800 
 28 H       -5.3760     0.0690    -1.1520 H     1 <1>   0.4500 
 29 H       -6.0260    -0.2960     0.3280 H     1 <1>   0.4500 
 30 H       -6.4970     2.3040    -1.2640 H     1 <1>   0.0800 
 31 H       -6.3980     3.7820     1.3800 H     1 <1>   0.0800 
 32 H       -7.4310     4.1960     0.0390 H     1 <1>   0.0800 
 33 H       -5.7140     4.3290    -0.1350 H     1 <1>   0.0800 
 34 H       -7.6860     1.4640     1.4040 H     1 <1>   0.0800 
 35 H       -7.8310     0.5870    -0.1070 H     1 <1>   0.0800 
 36 H       -8.5930     2.1270     0.0750 H     1 <1>   0.0800 
@<TRIPOS>BOND
  1   1   2  1   
  2   1   3  1   
  3   2   4  2   
  4   2   5  1   
  5   3   6  2   
  6   3  16  1   
  7   4   6  1   
  8   4  17  1   
  9   5   7  1   
 10   5  18  1   
 11   5  19  1   
 12   6  20  1   
 13   7   8  1   
 14   7   9  1   
 15   8  10  1   
 16   8  21  1   
 17   8  22  1   
 18   9  11  1   
 19   9  23  1   
 20   9  24  1   
 21  10  12  1   
 22  10  13  1   
 23  10  25  1   
 24  11  12  1   
 25  11  26  1   
 26  11  27  1   
 27  12  28  1   
 28  12  29  1   
 29  13  14  1   
 30  13  15  1   
 31  13  30  1   
 32  14  31  1   
 33  14  32  1   
 34  14  33  1   
 35  15  34  1   
 36  15  35  1   
 37  15  36  1   
@<TRIPOS>SUBSTRUCTURE
  1 ****   7 GROUP 4 **** **** 0

# MOE 2024.06 (io_trps.svl 2023.06)
