@<TRIPOS>MOLECULE
2,7,9-Trimethyl-5-(4-morpholin-4-yl-phenyl)-5,6-dihydro-pyrazolo[1,5-c]quinazoli
54 58 1 0 0 
SMALL
USER_CHARGES


@<TRIPOS>ATOM
  1 O        0.9660     0.3700    -0.4300 O.3   1 <1>  -0.5600 
  2 C        1.1090     1.5580    -1.1600 C.3   1 <1>   0.1200 
  3 C        2.1590    -0.3560    -0.3110 C.3   1 <1>   0.1200 
  4 C        2.1340     2.4950    -0.4950 C.3   1 <1>   0.2090 
  5 C        3.2390     0.4750     0.4060 C.3   1 <1>   0.2090 
  6 N        3.4310     1.7930    -0.2690 N.pl3 1 <1>  -0.8380 
  7 C        4.4690     2.5890     0.1950 C.ar  1 <1>   0.1000 
  8 C        4.5030     3.0600     1.5020 C.ar  1 <1>  -0.1500 
  9 C        5.5000     2.9400    -0.6640 C.ar  1 <1>  -0.1500 
 10 C        5.5440     3.8590     1.9390 C.ar  1 <1>  -0.1500 
 11 C        6.5420     3.7390    -0.2320 C.ar  1 <1>  -0.1500 
 12 C        6.5770     4.2040     1.0770 C.ar  1 <1>  -0.1430 
 13 C        7.7300     5.0770     1.5710 C.3   1 <1>   0.6880 
 14 N        7.7150     6.4340     0.9280 N.pl3 1 <1>   0.3140 
 15 N        9.0080     4.3310     1.3270 N.pl3 1 <1>  -0.8690 
 16 N        6.7970     7.4000     1.1820 N.2   1 <1>  -0.7070 
 17 C        8.6610     6.8510     0.0520 C.2   1 <1>  -0.2050 
 18 C        9.8940     4.7360     0.3180 C.ar  1 <1>   0.1000 
 19 C        7.1680     8.3990     0.4450 C.2   1 <1>   0.1080 
 20 C        9.7460     5.9810    -0.3220 C.ar  1 <1>   0.0530 
 21 C        8.3160     8.1220    -0.2800 C.2   1 <1>  -0.1500 
 22 C       10.9340     3.8870    -0.0630 C.ar  1 <1>  -0.1430 
 23 C        6.4050     9.7020     0.4140 C.3   1 <1>  -0.0590 
 24 C       10.6500     6.3410    -1.3150 C.ar  1 <1>  -0.1500 
 25 C       11.8140     4.2740    -1.0590 C.ar  1 <1>  -0.1500 
 26 C       11.1250     2.5320     0.6060 C.3   1 <1>  -0.0970 
 27 C       11.6800     5.4990    -1.6890 C.ar  1 <1>  -0.1430 
 28 C       12.6620     5.9000    -2.7750 C.3   1 <1>  -0.0970 
 29 H        0.1460     2.0350    -1.2050 H     1 <1>   0.0800 
 30 H        1.4230     1.3130    -2.1590 H     1 <1>   0.0800 
 31 H        2.4940    -0.6330    -1.2950 H     1 <1>   0.0800 
 32 H        1.9470    -1.2490     0.2480 H     1 <1>   0.0800 
 33 H        1.7410     2.8410     0.4450 H     1 <1>   0.0800 
 34 H        2.3000     3.3520    -1.1240 H     1 <1>   0.0800 
 35 H        4.1700    -0.0630     0.4000 H     1 <1>   0.0800 
 36 H        2.9440     0.6290     1.4290 H     1 <1>   0.0800 
 37 H        3.7050     2.8030     2.1720 H     1 <1>   0.1500 
 38 H        5.4700     2.5800    -1.6760 H     1 <1>   0.1500 
 39 H        5.5400     4.2150     2.9550 H     1 <1>   0.1500 
 40 H        7.3280     4.0010    -0.9220 H     1 <1>   0.1500 
 41 H        7.6270     5.2340     2.6290 H     1 <1>   0.0800 
 42 H        8.8190     3.3280     1.3300 H     1 <1>   0.4000 
 43 H        8.8170     8.7920    -0.9530 H     1 <1>   0.1500 
 44 H        5.4000     9.5180     0.0820 H     1 <1>   0.0800 
 45 H        6.8760    10.3990    -0.2520 H     1 <1>   0.0800 
 46 H        6.3740    10.1220     1.4020 H     1 <1>   0.0800 
 47 H       10.5350     7.2920    -1.7990 H     1 <1>   0.1500 
 48 H       12.6170     3.6200    -1.3510 H     1 <1>   0.1500 
 49 H       10.2910     1.8920     0.3800 H     1 <1>   0.0800 
 50 H       11.1950     2.6580     1.6720 H     1 <1>   0.0800 
 51 H       12.0240     2.0540     0.2630 H     1 <1>   0.0800 
 52 H       12.4160     6.8650    -3.1790 H     1 <1>   0.0800 
 53 H       12.6400     5.1790    -3.5720 H     1 <1>   0.0800 
 54 H       13.6570     5.9420    -2.3700 H     1 <1>   0.0800 
@<TRIPOS>BOND
  1   1   2  1   
  2   1   3  1   
  3   2   4  1   
  4   2  29  1   
  5   2  30  1   
  6   3   5  1   
  7   3  31  1   
  8   3  32  1   
  9   4   6  1   
 10   4  33  1   
 11   4  34  1   
 12   5   6  1   
 13   5  35  1   
 14   5  36  1   
 15   6   7  1   
 16   7   8  ar  
 17   7   9  ar  
 18   8  10  ar  
 19   8  37  1   
 20   9  11  ar  
 21   9  38  1   
 22  10  12  ar  
 23  10  39  1   
 24  11  12  ar  
 25  11  40  1   
 26  12  13  1   
 27  13  14  1   
 28  13  15  1   
 29  13  41  1   
 30  14  16  1   
 31  14  17  1   
 32  15  18  1   
 33  15  42  1   
 34  16  19  2   
 35  17  20  1   
 36  17  21  2   
 37  18  20  ar  
 38  18  22  ar  
 39  19  21  1   
 40  19  23  1   
 41  20  24  ar  
 42  21  43  1   
 43  22  25  ar  
 44  22  26  1   
 45  23  44  1   
 46  23  45  1   
 47  23  46  1   
 48  24  27  ar  
 49  24  47  1   
 50  25  27  ar  
 51  25  48  1   
 52  26  49  1   
 53  26  50  1   
 54  26  51  1   
 55  27  28  1   
 56  28  52  1   
 57  28  53  1   
 58  28  54  1   
@<TRIPOS>SUBSTRUCTURE
  1 ****  11 GROUP 4 **** **** 0

# MOE 2024.06 (io_trps.svl 2023.06)
