@<TRIPOS>MOLECULE
N-Benzothiazol-2-yl-2-(4-methyl-5-morpholin-4-ylmethyl-4H-[1,2,4]triazol-3-ylsul
47 50 1 0 0 
SMALL
USER_CHARGES


@<TRIPOS>ATOM
  1 S       -4.1200    -0.4040    -0.8660 S.3   1 <1>  -0.0800 
  2 C       -2.9570    -1.1210     0.2520 C.2   1 <1>   0.4420 
  3 C       -3.5370     1.1890    -0.4400 C.ar  1 <1>   0.0400 
  4 N       -2.2290    -0.2690     0.8670 N.2   1 <1>  -0.5650 
  5 N       -2.9780    -2.4920     0.3270 N.am  1 <1>  -0.4940 
  6 C       -2.5320     1.0320     0.4960 C.ar  1 <1>   0.2270 
  7 C       -3.9570     2.4170    -0.9140 C.ar  1 <1>  -0.1500 
  8 C       -2.2990    -3.3510     1.1460 C.2   1 <1>   0.5690 
  9 C       -1.9120     2.1740     0.9850 C.ar  1 <1>  -0.1500 
 10 C       -3.3270     3.5450    -0.4140 C.ar  1 <1>  -0.1500 
 11 O       -1.4860    -2.9990     1.9630 O.2   1 <1>  -0.5700 
 12 C       -2.5750    -4.8420     1.0170 C.3   1 <1>   0.1310 
 13 C       -2.3100     3.4220     0.5300 C.ar  1 <1>  -0.1500 
 14 S       -4.3310    -5.2290     1.4930 S.3   1 <1>  -0.2860 
 15 C       -5.2880    -4.6720     0.0790 C.2   1 <1>   0.2430 
 16 N       -4.7590    -4.3560    -1.0500 N.2   1 <1>  -0.3380 
 17 N       -6.6080    -4.5020     0.1190 N.pl3 1 <1>   0.0480 
 18 N       -5.7630    -3.9200    -1.8110 N.2   1 <1>  -0.3380 
 19 C       -6.8460    -4.0100    -1.1080 C.2   1 <1>   0.0060 
 20 C       -7.5440    -4.7180     1.2420 C.3   1 <1>   0.0160 
 21 C       -8.2220    -3.5850    -1.6000 C.3   1 <1>   0.2900 
 22 N       -8.8580    -2.6520    -0.6530 N.3   1 <1>  -0.8100 
 23 C       -8.1340    -1.3710    -0.5380 C.3   1 <1>   0.1100 
 24 C      -10.2870    -2.4190    -0.9640 C.3   1 <1>   0.1100 
 25 C       -8.7610    -0.4700     0.5510 C.3   1 <1>   0.1200 
 26 C      -10.8330    -1.0880    -0.3980 C.3   1 <1>   0.1200 
 27 O      -10.1340    -0.7010     0.7470 O.3   1 <1>  -0.5600 
 28 H       -3.6380    -2.9350    -0.3200 H     1 <1>   0.3700 
 29 H       -4.7430     2.4860    -1.6450 H     1 <1>   0.1500 
 30 H       -1.1280     2.0660     1.7130 H     1 <1>   0.1500 
 31 H       -3.6230     4.5220    -0.7560 H     1 <1>   0.1500 
 32 H       -1.9420    -5.3950     1.6860 H     1 <1>   0.0800 
 33 H       -2.4230    -5.1810     0.0090 H     1 <1>   0.0800 
 34 H       -1.8270     4.3060     0.9100 H     1 <1>   0.1500 
 35 H       -7.7010    -3.7850     1.7540 H     1 <1>   0.0800 
 36 H       -7.1410    -5.4420     1.9260 H     1 <1>   0.0800 
 37 H       -8.4860    -5.0710     0.8640 H     1 <1>   0.0800 
 38 H       -8.8340    -4.4640    -1.7030 H     1 <1>   0.0800 
 39 H       -8.1310    -3.1220    -2.5680 H     1 <1>   0.0800 
 40 H       -8.1600    -0.8560    -1.4830 H     1 <1>   0.0800 
 41 H       -7.1000    -1.5400    -0.2900 H     1 <1>   0.0800 
 42 H      -10.8620    -3.2310    -0.5520 H     1 <1>   0.0800 
 43 H      -10.4430    -2.4190    -2.0290 H     1 <1>   0.0800 
 44 H       -8.6270     0.5660     0.2960 H     1 <1>   0.0800 
 45 H       -8.2750    -0.6500     1.4920 H     1 <1>   0.0800 
 46 H      -11.8710    -1.1900    -0.1370 H     1 <1>   0.0800 
 47 H      -10.7410    -0.3030    -1.1270 H     1 <1>   0.0800 
@<TRIPOS>BOND
  1   1   2  1   
  2   1   3  1   
  3   2   4  2   
  4   2   5  1   
  5   3   6  ar  
  6   3   7  ar  
  7   4   6  1   
  8   5   8  am  
  9   5  28  1   
 10   6   9  ar  
 11   7  10  ar  
 12   7  29  1   
 13   8  11  2   
 14   8  12  1   
 15   9  13  ar  
 16   9  30  1   
 17  10  13  ar  
 18  10  31  1   
 19  12  14  1   
 20  12  32  1   
 21  12  33  1   
 22  13  34  1   
 23  14  15  1   
 24  15  16  2   
 25  15  17  1   
 26  16  18  1   
 27  17  19  1   
 28  17  20  1   
 29  18  19  2   
 30  19  21  1   
 31  20  35  1   
 32  20  36  1   
 33  20  37  1   
 34  21  22  1   
 35  21  38  1   
 36  21  39  1   
 37  22  23  1   
 38  22  24  1   
 39  23  25  1   
 40  23  40  1   
 41  23  41  1   
 42  24  26  1   
 43  24  42  1   
 44  24  43  1   
 45  25  27  1   
 46  25  44  1   
 47  25  45  1   
 48  26  27  1   
 49  26  46  1   
 50  26  47  1   
@<TRIPOS>SUBSTRUCTURE
  1 ****   1 GROUP 4 **** **** 0

# MOE 2024.06 (io_trps.svl 2023.06)
