@<TRIPOS>MOLECULE
N-Cyclohexyl-2-(4-ethyl-5-naphthalen-1-ylmethyl-4H-[1,2,4]triazol-3-ylsulfanyl)-
57 60 1 0 0 
SMALL
USER_CHARGES


@<TRIPOS>ATOM
  1 S       -0.1780    -0.4920    -0.8880 S.3   1 <1>  -0.2860 
  2 C       -1.2050     0.0930     0.4680 C.2   1 <1>   0.2420 
  3 C        1.4860     0.2600    -0.5350 C.3   1 <1>   0.1310 
  4 N       -0.7270     0.5310     1.5800 N.2   1 <1>  -0.3380 
  5 N       -2.5350     0.1390     0.4020 N.pl3 1 <1>   0.0480 
  6 C        1.4520     1.7530    -0.8200 C.2   1 <1>   0.5690 
  7 N       -1.7810     0.9110     2.3020 N.2   1 <1>  -0.3380 
  8 C       -2.8400     0.6730     1.5980 C.2   1 <1>   0.0060 
  9 C       -3.4030    -0.2640    -0.7300 C.3   1 <1>   0.0960 
 10 O        2.0830     2.1860    -1.7540 O.2   1 <1>  -0.5700 
 11 N        0.7030     2.5550    -0.0200 N.am  1 <1>  -0.7300 
 12 C       -4.2480     0.9740     2.0910 C.3   1 <1>   0.1630 
 13 C       -3.9220    -1.6910    -0.5330 C.3   1 <1>  -0.2400 
 14 C        0.4040     3.9710    -0.2460 C.3   1 <1>   0.2200 
 15 C       -4.9490     1.9980     1.1960 C.ar  1 <1>  -0.1440 
 16 C        0.4880     4.7060     1.0950 C.3   1 <1>  -0.1600 
 17 C       -1.0010     4.0740    -0.8500 C.3   1 <1>  -0.1600 
 18 C       -6.1460     1.7170     0.4780 C.ar  1 <1>   0.0000 
 19 C       -4.3590     3.2330     1.1030 C.ar  1 <1>  -0.1500 
 20 C        0.0470     6.1710     0.9570 C.3   1 <1>  -0.1600 
 21 C       -1.4450     5.5370    -0.9890 C.3   1 <1>  -0.1600 
 22 C       -6.6820     2.7360    -0.3480 C.ar  1 <1>   0.0000 
 23 C       -6.8490     0.4860     0.5140 C.ar  1 <1>  -0.1500 
 24 C       -4.9030     4.2350     0.2990 C.ar  1 <1>  -0.1500 
 25 C       -1.3610     6.2710     0.3570 C.3   1 <1>  -0.1600 
 26 C       -6.0400     3.9870    -0.4120 C.ar  1 <1>  -0.1500 
 27 C       -7.8520     2.4880    -1.0940 C.ar  1 <1>  -0.1500 
 28 C       -7.9830     0.2730    -0.2190 C.ar  1 <1>  -0.1500 
 29 C       -8.4920     1.2840    -1.0370 C.ar  1 <1>  -0.1500 
 30 H        2.1950    -0.2270    -1.1770 H     1 <1>   0.0800 
 31 H        1.7230     0.0670     0.4940 H     1 <1>   0.0800 
 32 H       -2.8390    -0.2050    -1.6430 H     1 <1>   0.0800 
 33 H       -4.2230     0.4240    -0.8130 H     1 <1>   0.0800 
 34 H        0.1580     2.1220     0.7380 H     1 <1>   0.3700 
 35 H       -4.1820     1.3870     3.0820 H     1 <1>   0.0800 
 36 H       -4.7790     0.0510     2.1840 H     1 <1>   0.0800 
 37 H       -3.1000    -2.3850    -0.4950 H     1 <1>   0.0800 
 38 H       -4.5550    -1.9610    -1.3600 H     1 <1>   0.0800 
 39 H       -4.4960    -1.7670     0.3730 H     1 <1>   0.0800 
 40 H        1.1220     4.3900    -0.9330 H     1 <1>   0.0800 
 41 H        1.5000     4.6700     1.4560 H     1 <1>   0.0800 
 42 H       -0.1480     4.2160     1.8120 H     1 <1>   0.0800 
 43 H       -1.7000     3.5510    -0.2210 H     1 <1>   0.0800 
 44 H       -1.0030     3.6070    -1.8200 H     1 <1>   0.0800 
 45 H       -3.4560     3.4560     1.6470 H     1 <1>   0.1500 
 46 H        0.7440     6.6930     0.3230 H     1 <1>   0.0800 
 47 H        0.0630     6.6440     1.9240 H     1 <1>   0.0800 
 48 H       -2.4530     5.5730    -1.3620 H     1 <1>   0.0800 
 49 H       -0.8110     6.0320    -1.7040 H     1 <1>   0.0800 
 50 H       -6.5050    -0.3170     1.1320 H     1 <1>   0.1500 
 51 H       -4.4160     5.1940     0.2510 H     1 <1>   0.1500 
 52 H       -1.6220     7.3060     0.2200 H     1 <1>   0.0800 
 53 H       -2.0700     5.8400     1.0440 H     1 <1>   0.0800 
 54 H       -6.4650     4.7520    -1.0360 H     1 <1>   0.1500 
 55 H       -8.2390     3.2740    -1.7170 H     1 <1>   0.1500 
 56 H       -8.5010    -0.6700    -0.1770 H     1 <1>   0.1500 
 57 H       -9.3860     1.1000    -1.6080 H     1 <1>   0.1500 
@<TRIPOS>BOND
  1   1   2  1   
  2   1   3  1   
  3   2   4  2   
  4   2   5  1   
  5   3   6  1   
  6   3  30  1   
  7   3  31  1   
  8   4   7  1   
  9   5   8  1   
 10   5   9  1   
 11   6  10  2   
 12   6  11  am  
 13   7   8  2   
 14   8  12  1   
 15   9  13  1   
 16   9  32  1   
 17   9  33  1   
 18  11  14  1   
 19  11  34  1   
 20  12  15  1   
 21  12  35  1   
 22  12  36  1   
 23  13  37  1   
 24  13  38  1   
 25  13  39  1   
 26  14  16  1   
 27  14  17  1   
 28  14  40  1   
 29  15  18  ar  
 30  15  19  ar  
 31  16  20  1   
 32  16  41  1   
 33  16  42  1   
 34  17  21  1   
 35  17  43  1   
 36  17  44  1   
 37  18  22  ar  
 38  18  23  ar  
 39  19  24  ar  
 40  19  45  1   
 41  20  25  1   
 42  20  46  1   
 43  20  47  1   
 44  21  25  1   
 45  21  48  1   
 46  21  49  1   
 47  22  26  ar  
 48  22  27  ar  
 49  23  28  ar  
 50  23  50  1   
 51  24  26  ar  
 52  24  51  1   
 53  25  52  1   
 54  25  53  1   
 55  26  54  1   
 56  27  29  ar  
 57  27  55  1   
 58  28  29  ar  
 59  28  56  1   
 60  29  57  1   
@<TRIPOS>SUBSTRUCTURE
  1 ****   5 GROUP 4 **** **** 0

# MOE 2024.06 (io_trps.svl 2023.06)
