@<TRIPOS>MOLECULE
N-[2-(4-Ethyl-piperazin-1-yl)-2-oxo-ethyl]-4-methoxy-N-methyl-benzenesulfonamide
50 51 1 0 0 
SMALL
USER_CHARGES


@<TRIPOS>ATOM
  1 S        1.3910     0.0090    -0.1380 S.o2  1 <1>   1.4470 
  2 O        2.7610     0.1580     0.3000 O.2   1 <1>  -0.6500 
  3 O        1.1450    -0.7900    -1.3220 O.2   1 <1>  -0.6500 
  4 N        0.5100    -0.7480     1.1010 N.am  1 <1>  -0.8490 
  5 C        0.6420     1.6530    -0.3000 C.ar  1 <1>  -0.0090 
  6 C        0.9190    -2.1640     1.3170 C.3   1 <1>   0.2570 
  7 C       -0.9420    -0.7020     0.8840 C.3   1 <1>   0.1160 
  8 C        0.6650     2.5500     0.7620 C.ar  1 <1>  -0.1500 
  9 C        0.0180     2.0530    -1.4770 C.ar  1 <1>  -0.1500 
 10 C        2.3590    -2.4100     1.8160 C.2   1 <1>   0.5690 
 11 C        0.0820     3.8000     0.6550 C.ar  1 <1>  -0.1500 
 12 C       -0.5670     3.3020    -1.5940 C.ar  1 <1>  -0.1500 
 13 O        2.5270    -2.4110     3.0130 O.2   1 <1>  -0.5700 
 14 N        3.4220    -2.6560     0.9700 N.am  1 <1>  -0.6600 
 15 C       -0.5380     4.1860    -0.5200 C.ar  1 <1>   0.0830 
 16 C        4.8070    -2.3790     1.4670 C.3   1 <1>   0.1400 
 17 C        3.3260    -2.8620    -0.5110 C.3   1 <1>   0.1400 
 18 O       -1.0870     5.4240    -0.5440 O.3   1 <1>  -0.3630 
 19 C        5.8260    -3.3940     0.9240 C.3   1 <1>   0.3430 
 20 C        4.3780    -3.8660    -1.0190 C.3   1 <1>   0.3430 
 21 C       -1.7110     5.9310    -1.7030 C.3   1 <1>   0.0400 
 22 N        5.7700    -3.4980    -0.5750 N.4   1 <1>  -0.9590 
 23 C        6.8010    -4.4430    -1.0770 C.3   1 <1>   0.3430 
 24 C        6.9880    -4.2530    -2.5770 C.3   1 <1>  -0.2400 
 25 H        0.7420    -2.7290     0.4220 H     1 <1>   0.0800 
 26 H        0.2790    -2.5820     2.0740 H     1 <1>   0.0800 
 27 H       -1.2860     0.3180     0.8460 H     1 <1>   0.0800 
 28 H       -1.4550    -1.1850     1.7000 H     1 <1>   0.0800 
 29 H       -1.2060    -1.1940    -0.0380 H     1 <1>   0.0800 
 30 H        1.1450     2.2640     1.6830 H     1 <1>   0.1500 
 31 H       -0.0110     1.3790    -2.3170 H     1 <1>   0.1500 
 32 H        0.1070     4.4860     1.4840 H     1 <1>   0.1500 
 33 H       -1.0370     3.5690    -2.5220 H     1 <1>   0.1500 
 34 H        4.8380    -2.4080     2.5430 H     1 <1>   0.0800 
 35 H        5.0890    -1.3830     1.1680 H     1 <1>   0.0800 
 36 H        3.4800    -1.9220    -1.0120 H     1 <1>   0.0800 
 37 H        2.3520    -3.2240    -0.7840 H     1 <1>   0.0800 
 38 H        5.6170    -4.3540     1.3660 H     1 <1>   0.0800 
 39 H        6.8140    -3.0940     1.2350 H     1 <1>   0.0800 
 40 H        4.3310    -3.8990    -2.0940 H     1 <1>   0.0800 
 41 H        4.1260    -4.8450    -0.6460 H     1 <1>   0.0800 
 42 H       -2.0540     6.9270    -1.4890 H     1 <1>   0.0800 
 43 H       -2.5480     5.3030    -1.9530 H     1 <1>   0.0800 
 44 H       -0.9930     5.9560    -2.5040 H     1 <1>   0.0800 
 45 H        5.9770    -2.5630    -0.9530 H     1 <1>   0.4500 
 46 H        6.5120    -5.4600    -0.8630 H     1 <1>   0.0800 
 47 H        7.7400    -4.2490    -0.5830 H     1 <1>   0.0800 
 48 H        6.1050    -4.5300    -3.1240 H     1 <1>   0.0800 
 49 H        7.7890    -4.8870    -2.9130 H     1 <1>   0.0800 
 50 H        7.2540    -3.2360    -2.8050 H     1 <1>   0.0800 
@<TRIPOS>BOND
  1   1   2  2   
  2   1   3  2   
  3   1   4  am  
  4   1   5  1   
  5   4   6  1   
  6   4   7  1   
  7   5   8  ar  
  8   5   9  ar  
  9   6  10  1   
 10   6  25  1   
 11   6  26  1   
 12   7  27  1   
 13   7  28  1   
 14   7  29  1   
 15   8  11  ar  
 16   8  30  1   
 17   9  12  ar  
 18   9  31  1   
 19  10  13  2   
 20  10  14  am  
 21  11  15  ar  
 22  11  32  1   
 23  12  15  ar  
 24  12  33  1   
 25  14  16  1   
 26  14  17  1   
 27  15  18  1   
 28  16  19  1   
 29  16  34  1   
 30  16  35  1   
 31  17  20  1   
 32  17  36  1   
 33  17  37  1   
 34  18  21  1   
 35  19  22  1   
 36  19  38  1   
 37  19  39  1   
 38  20  22  1   
 39  20  40  1   
 40  20  41  1   
 41  21  42  1   
 42  21  43  1   
 43  21  44  1   
 44  22  23  1   
 45  22  45  1   
 46  23  24  1   
 47  23  46  1   
 48  23  47  1   
 49  24  48  1   
 50  24  49  1   
 51  24  50  1   
@<TRIPOS>SUBSTRUCTURE
  1 ****   1 GROUP 4 **** **** 0

# MOE 2024.06 (io_trps.svl 2023.06)
