@<TRIPOS>MOLECULE
1-(3-Chloro-4-methoxy-benzenesulfonyl)-piperidine-4-carboxylic acid (pyridin-3-y
50 52 1 0 0 
SMALL
USER_CHARGES


@<TRIPOS>ATOM
  1 CL       2.8040     3.3520    -2.4550 Cl    1 <1>  -0.1770 
  2 C        2.8510     2.4410    -0.9620 C.ar  1 <1>   0.1770 
  3 C        2.0720     2.8280     0.1230 C.ar  1 <1>   0.0820 
  4 C        3.6800     1.3370    -0.8980 C.ar  1 <1>  -0.1500 
  5 O        1.2800     3.9240    -0.0050 O.3   1 <1>  -0.3630 
  6 C        2.1450     2.0700     1.2880 C.ar  1 <1>  -0.1500 
  7 C        3.7620     0.5790     0.2640 C.ar  1 <1>  -0.0090 
  8 C        0.4400     4.3630     1.0390 C.3   1 <1>   0.0400 
  9 C        2.9780     0.9640     1.3470 C.ar  1 <1>  -0.1500 
 10 S        4.8490    -0.8710     0.3530 S.o2  1 <1>   1.4470 
 11 O        4.3290    -1.9010    -0.5180 O.2   1 <1>  -0.6500 
 12 O        5.1360    -1.1890     1.7360 O.2   1 <1>  -0.6500 
 13 N        6.2980    -0.3080    -0.3260 N.am  1 <1>  -0.8490 
 14 C        7.1580    -1.4160    -0.7490 C.3   1 <1>   0.1960 
 15 C        7.0060     0.6120     0.5710 C.3   1 <1>   0.1960 
 16 C        8.3840    -0.8830    -1.4970 C.3   1 <1>  -0.1600 
 17 C        8.2160     1.2190    -0.1420 C.3   1 <1>  -0.1600 
 18 C        9.1720     0.1240    -0.6430 C.3   1 <1>  -0.0190 
 19 C       10.3510     0.7160    -1.4120 C.2   1 <1>   0.5690 
 20 O       10.1540     1.3620    -2.4110 O.2   1 <1>  -0.5700 
 21 N       11.6060     0.5030    -0.9460 N.am  1 <1>  -0.7300 
 22 C       12.8240     1.0700    -1.5510 C.3   1 <1>   0.2840 
 23 C       13.8050     1.3640    -0.4360 C.ar  1 <1>  -0.1430 
 24 C       13.6880     2.5340     0.3000 C.ar  1 <1>   0.1600 
 25 C       14.8210     0.4810    -0.1270 C.ar  1 <1>  -0.1500 
 26 N       14.4840     2.8840     1.2980 N.ar  1 <1>  -0.6200 
 27 C       15.6600     0.8310     0.9090 C.ar  1 <1>  -0.1500 
 28 C       15.4520     2.0260     1.5770 C.ar  1 <1>   0.1600 
 29 H        4.2660     1.0670    -1.7600 H     1 <1>   0.1500 
 30 H        1.5630     2.3220     2.1550 H     1 <1>   0.1500 
 31 H       -0.0900     5.2330     0.6960 H     1 <1>   0.0800 
 32 H        1.0440     4.6160     1.8920 H     1 <1>   0.0800 
 33 H       -0.2590     3.5810     1.2780 H     1 <1>   0.0800 
 34 H        3.0230     0.3860     2.2570 H     1 <1>   0.1500 
 35 H        6.6130    -2.0690    -1.4120 H     1 <1>   0.0800 
 36 H        7.4630    -1.9910     0.1100 H     1 <1>   0.0800 
 37 H        7.3280     0.0890     1.4570 H     1 <1>   0.0800 
 38 H        6.3450     1.4070     0.8730 H     1 <1>   0.0800 
 39 H        8.0540    -0.4100    -2.4060 H     1 <1>   0.0800 
 40 H        9.0210    -1.7050    -1.7690 H     1 <1>   0.0800 
 41 H        8.7370     1.8750     0.5330 H     1 <1>   0.0800 
 42 H        7.8700     1.8120    -0.9720 H     1 <1>   0.0800 
 43 H        9.5570    -0.3970     0.2150 H     1 <1>   0.0800 
 44 H       11.7650    -0.0180    -0.0840 H     1 <1>   0.3700 
 45 H       12.5860     1.9730    -2.0900 H     1 <1>   0.0800 
 46 H       13.2420     0.3610    -2.2450 H     1 <1>   0.0800 
 47 H       12.8930     3.2190     0.0570 H     1 <1>   0.1500 
 48 H       14.9570    -0.4420    -0.6650 H     1 <1>   0.1500 
 49 H       16.4710     0.1880     1.1980 H     1 <1>   0.1500 
 50 H       16.1150     2.2890     2.3840 H     1 <1>   0.1500 
@<TRIPOS>BOND
  1   1   2  1   
  2   2   3  ar  
  3   2   4  ar  
  4   3   5  1   
  5   3   6  ar  
  6   4   7  ar  
  7   4  29  1   
  8   5   8  1   
  9   6   9  ar  
 10   6  30  1   
 11   7   9  ar  
 12   7  10  1   
 13   8  31  1   
 14   8  32  1   
 15   8  33  1   
 16   9  34  1   
 17  10  11  2   
 18  10  12  2   
 19  10  13  am  
 20  13  14  1   
 21  13  15  1   
 22  14  16  1   
 23  14  35  1   
 24  14  36  1   
 25  15  17  1   
 26  15  37  1   
 27  15  38  1   
 28  16  18  1   
 29  16  39  1   
 30  16  40  1   
 31  17  18  1   
 32  17  41  1   
 33  17  42  1   
 34  18  19  1   
 35  18  43  1   
 36  19  20  2   
 37  19  21  am  
 38  21  22  1   
 39  21  44  1   
 40  22  23  1   
 41  22  45  1   
 42  22  46  1   
 43  23  24  ar  
 44  23  25  ar  
 45  24  26  ar  
 46  24  47  1   
 47  25  27  ar  
 48  25  48  1   
 49  26  28  ar  
 50  27  28  ar  
 51  27  49  1   
 52  28  50  1   
@<TRIPOS>SUBSTRUCTURE
  1 ****  17 GROUP 4 **** **** 0

# MOE 2024.06 (io_trps.svl 2023.06)
