@<TRIPOS>MOLECULE
2,4-Dichloro-N-[1-(4-ethyl-5-mercapto-4H-[1,2,4]triazol-3-yl)-ethyl]-benzamide
35 36 1 0 0 
SMALL
USER_CHARGES


@<TRIPOS>ATOM
  1 CL       1.4740    -0.1170     0.6860 Cl    1 <1>  -0.1770 
  2 C        0.7510    -1.6710     0.3390 C.ar  1 <1>   0.1770 
  3 C        1.4870    -2.7100    -0.2490 C.ar  1 <1>   0.0860 
  4 C       -0.5850    -1.8060     0.6670 C.ar  1 <1>  -0.1500 
  5 C        2.8930    -2.6160    -0.6020 C.2   1 <1>   0.5440 
  6 C        0.7950    -3.8990    -0.5050 C.ar  1 <1>  -0.1500 
  7 C       -1.2220    -3.0000     0.4030 C.ar  1 <1>   0.1770 
  8 O        3.3270    -3.2420    -1.5480 O.2   1 <1>  -0.5700 
  9 N        3.7810    -1.8750     0.1180 N.am  1 <1>  -0.7300 
 10 C       -0.5440    -4.0500    -0.1840 C.ar  1 <1>  -0.1500 
 11 CL      -2.9050    -3.1850     0.8120 Cl    1 <1>  -0.1770 
 12 C        5.1940    -1.6210    -0.2650 C.3   1 <1>   0.3880 
 13 C        6.1860    -2.2190     0.7580 C.2   1 <1>   0.4850 
 14 C        5.3400    -0.1070    -0.4450 C.3   1 <1>  -0.2400 
 15 N        6.8610    -1.5320     1.6150 N.2   1 <1>  -0.2600 
 16 N        6.4480    -3.5710     0.8560 N.pl3 1 <1>  -0.7640 
 17 N        7.5860    -2.4710     2.2910 N.pl3 1 <1>  -0.3930 
 18 C        7.3310    -3.6740     1.8310 C.cat 1 <1>   0.7360 
 19 C        5.8940    -4.7160     0.1100 C.3   1 <1>   0.3540 
 20 S        8.0060    -5.0360     2.3980 S.3   1 <1>  -0.9360 
 21 C        6.6400    -4.8690    -1.2110 C.3   1 <1>  -0.2400 
 22 H       -1.1260    -0.9930     1.1180 H     1 <1>   0.1500 
 23 H        1.3190    -4.7200    -0.9670 H     1 <1>   0.1500 
 24 H        3.4410    -1.3080     0.8990 H     1 <1>   0.3700 
 25 H       -1.0620    -4.9720    -0.3870 H     1 <1>   0.1500 
 26 H        5.3970    -2.0800    -1.2150 H     1 <1>   0.0800 
 27 H        5.1380     0.4100     0.4770 H     1 <1>   0.0800 
 28 H        4.6620     0.2410    -1.2040 H     1 <1>   0.0800 
 29 H        6.3420     0.1280    -0.7550 H     1 <1>   0.0800 
 30 H        8.2490    -2.3340     3.0540 H     1 <1>   0.4500 
 31 H        4.8440    -4.5670    -0.0640 H     1 <1>   0.0800 
 32 H        6.0040    -5.6170     0.6910 H     1 <1>   0.0800 
 33 H        6.5130    -4.0000    -1.8280 H     1 <1>   0.0800 
 34 H        6.2560    -5.7210    -1.7400 H     1 <1>   0.0800 
 35 H        7.6870    -5.0300    -1.0200 H     1 <1>   0.0800 
@<TRIPOS>BOND
  1   1   2  1   
  2   2   3  ar  
  3   2   4  ar  
  4   3   5  1   
  5   3   6  ar  
  6   4   7  ar  
  7   4  22  1   
  8   5   8  2   
  9   5   9  am  
 10   6  10  ar  
 11   6  23  1   
 12   7  10  ar  
 13   7  11  1   
 14   9  12  1   
 15   9  24  1   
 16  10  25  1   
 17  12  13  1   
 18  12  14  1   
 19  12  26  1   
 20  13  15  2   
 21  13  16  1   
 22  14  27  1   
 23  14  28  1   
 24  14  29  1   
 25  15  17  1   
 26  16  18  ar  
 27  16  19  1   
 28  17  18  ar  
 29  17  30  1   
 30  18  20  1   
 31  19  21  1   
 32  19  31  1   
 33  19  32  1   
 34  21  33  1   
 35  21  34  1   
 36  21  35  1   
@<TRIPOS>SUBSTRUCTURE
  1 ****   9 GROUP 4 **** **** 0

# MOE 2024.06 (io_trps.svl 2023.06)
