@<TRIPOS>MOLECULE
7-(2-Hydroxy-2-phenyl-ethyl)-1,3-dimethyl-8-piperazin-1-yl-3,7-dihydro-purine-2,
54 57 1 0 0 
SMALL
USER_CHARGES


@<TRIPOS>ATOM
  1 O        1.5320     2.9630     1.1040 O.2   1 <1>  -0.5740 
  2 C        2.5660     2.9380     0.4680 C.2   1 <1>   0.6860 
  3 N        2.7510     3.8100    -0.5980 N.am  1 <1>  -0.4250 
  4 N        3.5610     2.0310     0.8070 N.am  1 <1>  -0.4410 
  5 C        3.9210     3.7940    -1.3430 C.2   1 <1>   0.6990 
  6 C        1.6640     4.7800    -0.9380 C.3   1 <1>   0.0530 
  7 C        4.7500     2.0840     0.1060 C.2   1 <1>   0.4210 
  8 C        3.3620     1.0890     1.9480 C.3   1 <1>   0.0530 
  9 O        4.0370     4.4990    -2.3330 O.2   1 <1>  -0.5740 
 10 C        4.9780     2.9150    -0.9290 C.2   1 <1>   0.2710 
 11 N        5.8770     1.3590     0.3370 N.pl3 1 <1>  -0.7040 
 12 N        6.3230     2.7060    -1.3240 N.pl3 1 <1>  -0.7670 
 13 C        6.8160     1.7450    -0.5290 C.cat 1 <1>   1.0690 
 14 C        7.0770     3.8300    -1.9930 C.3   1 <1>   0.3480 
 15 N        8.0620     1.1980    -0.5540 N.pl3 1 <1>  -0.5960 
 16 C        7.7170     4.8110    -0.9750 C.3   1 <1>   0.3380 
 17 C        8.9420     1.2340    -1.7720 C.3   1 <1>   0.1610 
 18 C        8.7580     0.7330     0.6970 C.3   1 <1>   0.1610 
 19 O        8.7880     4.1930    -0.3350 O.3   1 <1>  -0.6840 
 20 C        6.6960     5.2620     0.0700 C.ar  1 <1>  -0.1510 
 21 C        9.7770    -0.0540    -1.9520 C.3   1 <1>   0.3370 
 22 C        9.5970    -0.5480     0.4820 C.3   1 <1>   0.3370 
 23 C        5.7760     6.2390    -0.2860 C.ar  1 <1>  -0.1570 
 24 C        6.6160     4.7020     1.3430 C.ar  1 <1>  -0.1570 
 25 N       10.5080    -0.4320    -0.7000 N.4   1 <1>  -0.9080 
 26 C        4.7820     6.6270     0.5940 C.ar  1 <1>  -0.1570 
 27 C        5.6220     5.0910     2.2230 C.ar  1 <1>  -0.1570 
 28 C        4.7000     6.0490     1.8470 C.ar  1 <1>  -0.1570 
 29 H        0.9230     4.2910    -1.5460 H     1 <1>   0.0730 
 30 H        2.0570     5.6260    -1.4750 H     1 <1>   0.0730 
 31 H        1.1950     5.1430    -0.0400 H     1 <1>   0.0730 
 32 H        2.3150     0.8660     2.0710 H     1 <1>   0.0730 
 33 H        3.7240     1.5400     2.8560 H     1 <1>   0.0730 
 34 H        3.8790     0.1640     1.7710 H     1 <1>   0.0730 
 35 H        5.9600     0.6430     1.0480 H     1 <1>   0.4450 
 36 H        6.4030     4.3900    -2.6150 H     1 <1>   0.0730 
 37 H        7.8380     3.4530    -2.6480 H     1 <1>   0.0730 
 38 H        8.1090     5.6670    -1.4990 H     1 <1>   0.0730 
 39 H        9.6100     2.0760    -1.7030 H     1 <1>   0.0730 
 40 H        8.3390     1.3590    -2.6550 H     1 <1>   0.0730 
 41 H        8.0480     0.5520     1.4850 H     1 <1>   0.0730 
 42 H        9.4110     1.5200     1.0360 H     1 <1>   0.0730 
 43 H        9.1650     4.8410     0.3010 H     1 <1>   0.3950 
 44 H       10.4820     0.0880    -2.7560 H     1 <1>   0.0730 
 45 H        9.1170    -0.8570    -2.2380 H     1 <1>   0.0730 
 46 H        8.9290    -1.3820     0.3380 H     1 <1>   0.0730 
 47 H       10.1780    -0.7470     1.3700 H     1 <1>   0.0730 
 48 H        5.8110     6.7040    -1.2570 H     1 <1>   0.1430 
 49 H        7.3190     3.9590     1.6710 H     1 <1>   0.1430 
 50 H       11.2460     0.2610    -0.5070 H     1 <1>   0.4450 
 51 H       10.9990    -1.3280    -0.8470 H     1 <1>   0.4450 
 52 H        4.0710     7.3830     0.3050 H     1 <1>   0.1430 
 53 H        5.5630     4.6570     3.2070 H     1 <1>   0.1430 
 54 H        3.9260     6.3530     2.5310 H     1 <1>   0.1430 
@<TRIPOS>BOND
  1   1   2  2   
  2   2   3  am  
  3   2   4  am  
  4   3   5  am  
  5   3   6  1   
  6   4   7  1   
  7   4   8  1   
  8   5   9  2   
  9   5  10  1   
 10   6  29  1   
 11   6  30  1   
 12   6  31  1   
 13   7  10  2   
 14   7  11  1   
 15   8  32  1   
 16   8  33  1   
 17   8  34  1   
 18  10  12  1   
 19  11  13  ar  
 20  11  35  1   
 21  12  13  ar  
 22  12  14  1   
 23  13  15  ar  
 24  14  16  1   
 25  14  36  1   
 26  14  37  1   
 27  15  17  1   
 28  15  18  1   
 29  16  19  1   
 30  16  20  1   
 31  16  38  1   
 32  17  21  1   
 33  17  39  1   
 34  17  40  1   
 35  18  22  1   
 36  18  41  1   
 37  18  42  1   
 38  19  43  1   
 39  20  23  ar  
 40  20  24  ar  
 41  21  25  1   
 42  21  44  1   
 43  21  45  1   
 44  22  25  1   
 45  22  46  1   
 46  22  47  1   
 47  23  26  ar  
 48  23  48  1   
 49  24  27  ar  
 50  24  49  1   
 51  25  50  1   
 52  25  51  1   
 53  26  28  ar  
 54  26  52  1   
 55  27  28  ar  
 56  27  53  1   
 57  28  54  1   
@<TRIPOS>SUBSTRUCTURE
  1 ****  10 GROUP 4 **** **** 0

# MOE 2024.06 (io_trps.svl 2023.06)
