@<TRIPOS>MOLECULE
3-Allyl-1-methyl-8-o-tolyl-5,6,7,8-tetrahydro-1H-1,3,4b,8,9-pentaaza-fluorene-2,
48 51 1 0 0 
SMALL
USER_CHARGES


@<TRIPOS>ATOM
  1 O        1.0570     0.5170    -0.5400 O.2   1 <1>  -0.5750 
  2 C        2.0140     1.1600    -0.1610 C.2   1 <1>   0.6860 
  3 N        1.8410     2.4290     0.3800 N.am  1 <1>  -0.4260 
  4 N        3.2880     0.6110    -0.2480 N.am  1 <1>  -0.4420 
  5 C        2.9030     3.1390     0.9130 C.2   1 <1>   0.6990 
  6 C        0.5090     3.0800     0.2930 C.3   1 <1>   0.2710 
  7 C        4.3440     1.3310     0.2740 C.2   1 <1>   0.4200 
  8 C        3.4990    -0.7340    -0.8620 C.3   1 <1>   0.0520 
  9 O        2.7360     4.2290     1.4340 O.2   1 <1>  -0.5750 
 10 C        4.2050     2.5490     0.8410 C.2   1 <1>   0.2700 
 11 C        0.4830     3.9740    -0.9330 C.2   1 <1>  -0.2950 
 12 N        5.6590     0.9740     0.3270 N.pl3 1 <1>  -0.7040 
 13 N        5.4900     2.9400     1.2460 N.pl3 1 <1>  -0.7670 
 14 C       -0.2120     3.7260    -2.0470 C.2   1 <1>  -0.3070 
 15 C        6.3250     1.9620     0.9190 C.cat 1 <1>   1.0690 
 16 C        5.8870     4.1950     1.9150 C.3   1 <1>   0.3480 
 17 N        7.6450     2.0030     1.1720 N.pl3 1 <1>  -0.5800 
 18 C        7.3850     4.4230     1.6800 C.3   1 <1>  -0.1680 
 19 C        8.5130     0.9770     0.7870 C.ar  1 <1>   0.3040 
 20 C        8.2160     3.1530     1.9220 C.3   1 <1>   0.1600 
 21 C        8.9640     0.8640    -0.5300 C.ar  1 <1>  -0.1510 
 22 C        8.9070     0.0350     1.7300 C.ar  1 <1>  -0.1580 
 23 C        9.7830    -0.1980    -0.8780 C.ar  1 <1>  -0.1580 
 24 C        8.5920     1.8830    -1.6030 C.3   1 <1>  -0.1050 
 25 C        9.7270    -1.0190     1.3730 C.ar  1 <1>  -0.1580 
 26 C       10.1610    -1.1360     0.0660 C.ar  1 <1>  -0.1580 
 27 H        0.3190     3.6650     1.1780 H     1 <1>   0.0720 
 28 H       -0.2700     2.3400     0.2230 H     1 <1>   0.0720 
 29 H        2.7070    -0.9600    -1.5570 H     1 <1>   0.0720 
 30 H        3.5050    -1.4870    -0.0930 H     1 <1>   0.0720 
 31 H        4.4300    -0.7610    -1.3990 H     1 <1>   0.0720 
 32 H        1.0930     4.8550    -0.8170 H     1 <1>   0.1420 
 33 H        6.0970     0.1190    -0.0070 H     1 <1>   0.4440 
 34 H       -0.2230     4.3740    -2.9070 H     1 <1>   0.1420 
 35 H       -0.8290     2.8550    -2.1960 H     1 <1>   0.1420 
 36 H        5.6830     4.1130     2.9700 H     1 <1>   0.0720 
 37 H        5.3200     5.0230     1.5210 H     1 <1>   0.0720 
 38 H        7.7300     5.2080     2.3290 H     1 <1>   0.0720 
 39 H        7.5380     4.7590     0.6690 H     1 <1>   0.0720 
 40 H        9.2330     3.3220     1.6060 H     1 <1>   0.0720 
 41 H        8.2270     2.9160     2.9730 H     1 <1>   0.0720 
 42 H        8.5740     0.1220     2.7480 H     1 <1>   0.1420 
 43 H       10.1430    -0.3050    -1.8880 H     1 <1>   0.1420 
 44 H        8.7390     2.8840    -1.2380 H     1 <1>   0.0720 
 45 H        7.5650     1.7630    -1.8980 H     1 <1>   0.0720 
 46 H        9.2080     1.7600    -2.4760 H     1 <1>   0.0720 
 47 H       10.0310    -1.7480     2.1070 H     1 <1>   0.1420 
 48 H       10.8000    -1.9560    -0.2170 H     1 <1>   0.1420 
@<TRIPOS>BOND
  1   1   2  2   
  2   2   3  am  
  3   2   4  am  
  4   3   5  am  
  5   3   6  1   
  6   4   7  1   
  7   4   8  1   
  8   5   9  2   
  9   5  10  1   
 10   6  11  1   
 11   6  27  1   
 12   6  28  1   
 13   7  10  2   
 14   7  12  1   
 15   8  29  1   
 16   8  30  1   
 17   8  31  1   
 18  10  13  1   
 19  11  14  2   
 20  11  32  1   
 21  12  15  ar  
 22  12  33  1   
 23  13  15  ar  
 24  13  16  1   
 25  14  34  1   
 26  14  35  1   
 27  15  17  ar  
 28  16  18  1   
 29  16  36  1   
 30  16  37  1   
 31  17  19  1   
 32  17  20  1   
 33  18  20  1   
 34  18  38  1   
 35  18  39  1   
 36  19  21  ar  
 37  19  22  ar  
 38  20  40  1   
 39  20  41  1   
 40  21  23  ar  
 41  21  24  1   
 42  22  25  ar  
 43  22  42  1   
 44  23  26  ar  
 45  23  43  1   
 46  24  44  1   
 47  24  45  1   
 48  24  46  1   
 49  25  26  ar  
 50  25  47  1   
 51  26  48  1   
@<TRIPOS>SUBSTRUCTURE
  1 ****  12 GROUP 4 **** **** 0

# MOE 2024.06 (io_trps.svl 2023.06)
