@<TRIPOS>MOLECULE
(4-Benzylsulfanyl-6-morpholin-4-yl-[1,3,5]triazin-2-yl)-tert-butyl-amine
50 52 1 0 0 
SMALL
USER_CHARGES


@<TRIPOS>ATOM
  1 S       -0.3790     0.2710     0.1470 S.3   1 <1>  -0.3310 
  2 C       -0.3910    -1.4900    -0.1260 C.ar  1 <1>   0.7220 
  3 C        1.4060     0.7230     0.0450 C.3   1 <1>   0.2140 
  4 N        0.7670    -2.0530    -0.3020 N.ar  1 <1>  -0.6200 
  5 N       -1.5640    -2.0380    -0.1200 N.ar  1 <1>  -0.6200 
  6 C        1.5380     2.2200     0.2710 C.ar  1 <1>  -0.1440 
  7 C        0.6790    -3.3490    -0.4990 C.ar  1 <1>   0.7200 
  8 C       -1.5140    -3.3270    -0.3250 C.ar  1 <1>   0.7200 
  9 C        1.5000     3.0950    -0.8040 C.ar  1 <1>  -0.1500 
 10 C        1.6990     2.7230     1.5530 C.ar  1 <1>  -0.1500 
 11 N       -0.4370    -4.0320    -0.5210 N.ar  1 <1>  -0.6200 
 12 N        1.8550    -4.0360    -0.6980 N.pl3 1 <1>  -0.8380 
 13 N       -2.6570    -4.0480    -0.3510 N.pl3 1 <1>  -0.8690 
 14 C        1.6290     4.4590    -0.6000 C.ar  1 <1>  -0.1500 
 15 C        1.8280     4.0860     1.7580 C.ar  1 <1>  -0.1500 
 16 C        1.9130    -5.4720    -1.1230 C.3   1 <1>   0.2090 
 17 C        3.2140    -3.4270    -0.5430 C.3   1 <1>   0.2090 
 18 C       -4.0310    -3.7020     0.0090 C.3   1 <1>   0.3690 
 19 C        1.7940     4.9540     0.6820 C.ar  1 <1>  -0.1500 
 20 C        2.9050    -6.2610    -0.2510 C.3   1 <1>   0.1200 
 21 C        4.1300    -4.3390     0.2930 C.3   1 <1>   0.1200 
 22 C       -4.5790    -2.6620    -0.9680 C.3   1 <1>  -0.2400 
 23 C       -4.8350    -4.9930    -0.1210 C.3   1 <1>  -0.2400 
 24 C       -4.0900    -3.2110     1.4550 C.3   1 <1>  -0.2400 
 25 O        4.1600    -5.6390    -0.2280 O.3   1 <1>  -0.5600 
 26 H        1.7550     0.4360    -0.9300 H     1 <1>   0.0800 
 27 H        1.9240     0.1620     0.8020 H     1 <1>   0.0800 
 28 H        1.3660     2.7200    -1.8030 H     1 <1>   0.1500 
 29 H        1.7210     2.0560     2.3970 H     1 <1>   0.1500 
 30 H       -2.4980    -5.0420    -0.4860 H     1 <1>   0.4000 
 31 H        1.5980     5.1340    -1.4370 H     1 <1>   0.1500 
 32 H        1.9520     4.4710     2.7550 H     1 <1>   0.1500 
 33 H        2.2320    -5.5220    -2.1500 H     1 <1>   0.0800 
 34 H        0.9490    -5.9440    -1.0590 H     1 <1>   0.0800 
 35 H        3.1600    -2.4670    -0.0620 H     1 <1>   0.0800 
 36 H        3.6500    -3.2850    -1.5160 H     1 <1>   0.0800 
 37 H        1.8930     6.0130     0.8410 H     1 <1>   0.1500 
 38 H        3.0370    -7.2520    -0.6460 H     1 <1>   0.0800 
 39 H        2.5380    -6.3360     0.7570 H     1 <1>   0.0800 
 40 H        3.7840    -4.3840     1.3110 H     1 <1>   0.0800 
 41 H        5.1360    -3.9600     0.2860 H     1 <1>   0.0800 
 42 H       -4.0630    -1.7270    -0.8590 H     1 <1>   0.0800 
 43 H       -5.6220    -2.4870    -0.7750 H     1 <1>   0.0800 
 44 H       -4.4700    -3.0060    -1.9800 H     1 <1>   0.0800 
 45 H       -4.7900    -5.3640    -1.1290 H     1 <1>   0.0800 
 46 H       -5.8650    -4.8120     0.1250 H     1 <1>   0.0800 
 47 H       -4.4560    -5.7430     0.5500 H     1 <1>   0.0800 
 48 H       -3.5780    -2.2720     1.5610 H     1 <1>   0.0800 
 49 H       -3.6410    -3.9310     2.1140 H     1 <1>   0.0800 
 50 H       -5.1110    -3.0620     1.7530 H     1 <1>   0.0800 
@<TRIPOS>BOND
  1   1   2  1   
  2   1   3  1   
  3   2   4  ar  
  4   2   5  ar  
  5   3   6  1   
  6   3  26  1   
  7   3  27  1   
  8   4   7  ar  
  9   5   8  ar  
 10   6   9  ar  
 11   6  10  ar  
 12   7  11  ar  
 13   7  12  1   
 14   8  11  ar  
 15   8  13  1   
 16   9  14  ar  
 17   9  28  1   
 18  10  15  ar  
 19  10  29  1   
 20  12  16  1   
 21  12  17  1   
 22  13  18  1   
 23  13  30  1   
 24  14  19  ar  
 25  14  31  1   
 26  15  19  ar  
 27  15  32  1   
 28  16  20  1   
 29  16  33  1   
 30  16  34  1   
 31  17  21  1   
 32  17  35  1   
 33  17  36  1   
 34  18  22  1   
 35  18  23  1   
 36  18  24  1   
 37  19  37  1   
 38  20  25  1   
 39  20  38  1   
 40  20  39  1   
 41  21  25  1   
 42  21  40  1   
 43  21  41  1   
 44  22  42  1   
 45  22  43  1   
 46  22  44  1   
 47  23  45  1   
 48  23  46  1   
 49  23  47  1   
 50  24  48  1   
 51  24  49  1   
 52  24  50  1   
@<TRIPOS>SUBSTRUCTURE
  1 ****   2 GROUP 4 **** **** 0

# MOE 2024.06 (io_trps.svl 2023.06)
