@<TRIPOS>MOLECULE
N-[2-(4-Ethyl-piperazin-1-yl)-2-oxo-ethyl]-4-fluoro-N-(4-methoxy-phenyl)-benzene
57 59 1 0 0 
SMALL
USER_CHARGES


@<TRIPOS>ATOM
  1 S        0.5380    -0.1390     0.3830 S.o2  1 <1>   1.4470 
  2 O        1.5820    -0.8950    -0.2670 O.2   1 <1>  -0.6500 
  3 O        0.7670     0.3830     1.7120 O.2   1 <1>  -0.6500 
  4 N        0.2230     1.2500    -0.6110 N.am  1 <1>  -0.6930 
  5 C       -1.0280    -1.0500     0.2800 C.ar  1 <1>  -0.0090 
  6 C       -0.8990     2.0490    -0.3920 C.ar  1 <1>   0.1990 
  7 C        0.9820     1.3770    -1.9000 C.3   1 <1>   0.2570 
  8 C       -2.0970    -0.7330     1.1170 C.ar  1 <1>  -0.1500 
  9 C       -1.2050    -2.0610    -0.6640 C.ar  1 <1>  -0.1500 
 10 C       -1.0700     2.7300     0.8090 C.ar  1 <1>  -0.1500 
 11 C       -1.8820     2.1740    -1.3690 C.ar  1 <1>  -0.1500 
 12 C        2.5180     1.3640    -1.8000 C.2   1 <1>   0.5690 
 13 C       -3.3080    -1.3990     1.0230 C.ar  1 <1>  -0.1500 
 14 C       -2.4080    -2.7400    -0.7730 C.ar  1 <1>  -0.1500 
 15 C       -2.1870     3.5160     1.0330 C.ar  1 <1>  -0.1500 
 16 C       -2.9990     2.9590    -1.1510 C.ar  1 <1>  -0.1500 
 17 O        3.1200     0.9280    -2.7520 O.2   1 <1>  -0.5700 
 18 N        3.2140     1.8170    -0.7010 N.am  1 <1>  -0.6600 
 19 C       -3.4400    -2.3940     0.0750 C.ar  1 <1>   0.1900 
 20 C       -3.1610     3.6350     0.0470 C.ar  1 <1>   0.0830 
 21 C        2.6860     2.7700     0.3280 C.3   1 <1>   0.1400 
 22 C        4.5470     1.2020    -0.3890 C.3   1 <1>   0.1400 
 23 F       -4.5770    -3.0270    -0.0230 F     1 <1>  -0.1900 
 24 O       -4.2890     4.3820     0.1770 O.3   1 <1>  -0.3630 
 25 C        3.7140     3.8630     0.7070 C.3   1 <1>   0.3430 
 26 C        5.4350     2.1060     0.4870 C.3   1 <1>   0.3430 
 27 C       -4.5670     5.0770     1.3740 C.3   1 <1>   0.0400 
 28 N        5.1140     3.5540     0.2450 N.4   1 <1>  -0.9590 
 29 C        6.1070     4.4960     0.8180 C.3   1 <1>   0.3430 
 30 C        7.4030     4.4230     0.0200 C.3   1 <1>  -0.2400 
 31 H        0.7000     2.2910    -2.3900 H     1 <1>   0.0800 
 32 H        0.6940     0.5640    -2.5430 H     1 <1>   0.0800 
 33 H       -1.9830     0.0470     1.8520 H     1 <1>   0.1500 
 34 H       -0.3920    -2.3230    -1.3210 H     1 <1>   0.1500 
 35 H       -0.3270     2.6450     1.5810 H     1 <1>   0.1500 
 36 H       -1.7850     1.6490    -2.3010 H     1 <1>   0.1500 
 37 H       -4.1330    -1.1540     1.6670 H     1 <1>   0.1500 
 38 H       -2.5460    -3.5220    -1.4990 H     1 <1>   0.1500 
 39 H       -2.2840     4.0240     1.9740 H     1 <1>   0.1500 
 40 H       -3.7580     3.0530    -1.9080 H     1 <1>   0.1500 
 41 H        2.4300     2.2170     1.2150 H     1 <1>   0.0800 
 42 H        1.7900     3.2500    -0.0250 H     1 <1>   0.0800 
 43 H        5.0710     0.9960    -1.3080 H     1 <1>   0.0800 
 44 H        4.3940     0.2580     0.1060 H     1 <1>   0.0800 
 45 H        3.6990     3.9840     1.7770 H     1 <1>   0.0800 
 46 H        3.3960     4.7980     0.2740 H     1 <1>   0.0800 
 47 H        6.4680     1.8990     0.2630 H     1 <1>   0.0800 
 48 H        5.2670     1.8660     1.5240 H     1 <1>   0.0800 
 49 H       -5.5070     5.5840     1.2530 H     1 <1>   0.0800 
 50 H       -3.7860     5.7950     1.5520 H     1 <1>   0.0800 
 51 H       -4.6350     4.3700     2.1810 H     1 <1>   0.0800 
 52 H        5.1040     3.6630    -0.7800 H     1 <1>   0.4500 
 53 H        6.2930     4.2600     1.8540 H     1 <1>   0.0800 
 54 H        5.7230     5.5030     0.7650 H     1 <1>   0.0800 
 55 H        7.8770     3.4640     0.1200 H     1 <1>   0.0800 
 56 H        8.0870     5.1640     0.3950 H     1 <1>   0.0800 
 57 H        7.2260     4.6350    -1.0190 H     1 <1>   0.0800 
@<TRIPOS>BOND
  1   1   2  2   
  2   1   3  2   
  3   1   4  am  
  4   1   5  1   
  5   4   6  1   
  6   4   7  1   
  7   5   8  ar  
  8   5   9  ar  
  9   6  10  ar  
 10   6  11  ar  
 11   7  12  1   
 12   7  31  1   
 13   7  32  1   
 14   8  13  ar  
 15   8  33  1   
 16   9  14  ar  
 17   9  34  1   
 18  10  15  ar  
 19  10  35  1   
 20  11  16  ar  
 21  11  36  1   
 22  12  17  2   
 23  12  18  am  
 24  13  19  ar  
 25  13  37  1   
 26  14  19  ar  
 27  14  38  1   
 28  15  20  ar  
 29  15  39  1   
 30  16  20  ar  
 31  16  40  1   
 32  18  21  1   
 33  18  22  1   
 34  19  23  1   
 35  20  24  1   
 36  21  25  1   
 37  21  41  1   
 38  21  42  1   
 39  22  26  1   
 40  22  43  1   
 41  22  44  1   
 42  24  27  1   
 43  25  28  1   
 44  25  45  1   
 45  25  46  1   
 46  26  28  1   
 47  26  47  1   
 48  26  48  1   
 49  27  49  1   
 50  27  50  1   
 51  27  51  1   
 52  28  29  1   
 53  28  52  1   
 54  29  30  1   
 55  29  53  1   
 56  29  54  1   
 57  30  55  1   
 58  30  56  1   
 59  30  57  1   
@<TRIPOS>SUBSTRUCTURE
  1 ****   4 GROUP 4 **** **** 0

# MOE 2024.06 (io_trps.svl 2023.06)
