@<TRIPOS>MOLECULE
N-{1-[3-(4-Chloro-phenyl)-[1,2,4]oxadiazol-5-yl]-ethyl}-isobutyramide
36 37 1 0 0 
SMALL
USER_CHARGES


@<TRIPOS>ATOM
  1 CL       1.3640    -1.1420     0.2860 Cl    1 <1>  -0.1770 
  2 C        2.4360     0.2250     0.1390 C.ar  1 <1>   0.1770 
  3 C        1.9820     1.4870     0.4690 C.ar  1 <1>  -0.1500 
  4 C        3.7290     0.0320    -0.3060 C.ar  1 <1>  -0.1500 
  5 C        2.8380     2.5680     0.3510 C.ar  1 <1>  -0.1500 
  6 C        4.5760     1.1200    -0.4210 C.ar  1 <1>  -0.1500 
  7 C        4.1550     2.4140    -0.0970 C.ar  1 <1>   0.0540 
  8 C        5.0550     3.5500    -0.2210 C.2   1 <1>   0.4620 
  9 N        6.2740     3.5000    -0.6250 N.2   1 <1>  -0.4100 
 10 N        4.6880     4.7990     0.0810 N.2   1 <1>  -0.5650 
 11 O        6.7550     4.7020    -0.5960 O.3   1 <1>  -0.0190 
 12 C        5.7610     5.4360    -0.1680 C.2   1 <1>   0.2980 
 13 C        6.0080     6.9410    -0.0220 C.3   1 <1>   0.4000 
 14 N        6.7940     7.2200     1.1980 N.am  1 <1>  -0.7300 
 15 C        4.7160     7.7550     0.0720 C.3   1 <1>  -0.2400 
 16 C        8.0200     7.7730     1.3390 C.2   1 <1>   0.5690 
 17 O        8.5210     7.7810     2.4350 O.2   1 <1>  -0.5700 
 18 C        8.7800     8.3740     0.1450 C.3   1 <1>  -0.0190 
 19 C        9.5710     7.2930    -0.6100 C.3   1 <1>  -0.2400 
 20 C        9.7320     9.5100     0.5600 C.3   1 <1>  -0.2400 
 21 H        0.9720     1.6160     0.8140 H     1 <1>   0.1500 
 22 H        4.0640    -0.9590    -0.5590 H     1 <1>   0.1500 
 23 H        2.4780     3.5490     0.6100 H     1 <1>   0.1500 
 24 H        5.5830     0.9640    -0.7680 H     1 <1>   0.1500 
 25 H        6.5490     7.2650    -0.8920 H     1 <1>   0.0800 
 26 H        6.3950     6.8370     2.0560 H     1 <1>   0.3700 
 27 H        4.1450     7.4570     0.9330 H     1 <1>   0.0800 
 28 H        4.1180     7.5880    -0.8060 H     1 <1>   0.0800 
 29 H        4.9410     8.8040     0.1380 H     1 <1>   0.0800 
 30 H        8.0610     8.8070    -0.5260 H     1 <1>   0.0800 
 31 H       10.3100     6.8560     0.0400 H     1 <1>   0.0800 
 32 H       10.0710     7.7170    -1.4630 H     1 <1>   0.0800 
 33 H        8.9180     6.5110    -0.9520 H     1 <1>   0.0800 
 34 H       10.5000     9.1350     1.2160 H     1 <1>   0.0800 
 35 H        9.1870    10.2750     1.0840 H     1 <1>   0.0800 
 36 H       10.1990     9.9500    -0.3030 H     1 <1>   0.0800 
@<TRIPOS>BOND
  1   1   2  1   
  2   2   3  ar  
  3   2   4  ar  
  4   3   5  ar  
  5   3  21  1   
  6   4   6  ar  
  7   4  22  1   
  8   5   7  ar  
  9   5  23  1   
 10   6   7  ar  
 11   6  24  1   
 12   7   8  1   
 13   8   9  2   
 14   8  10  1   
 15   9  11  1   
 16  10  12  2   
 17  11  12  1   
 18  12  13  1   
 19  13  14  1   
 20  13  15  1   
 21  13  25  1   
 22  14  16  am  
 23  14  26  1   
 24  15  27  1   
 25  15  28  1   
 26  15  29  1   
 27  16  17  2   
 28  16  18  1   
 29  18  19  1   
 30  18  20  1   
 31  18  30  1   
 32  19  31  1   
 33  19  32  1   
 34  19  33  1   
 35  20  34  1   
 36  20  35  1   
 37  20  36  1   
@<TRIPOS>SUBSTRUCTURE
  1 ****  10 GROUP 4 **** **** 0

# MOE 2024.06 (io_trps.svl 2023.06)
