@<TRIPOS>MOLECULE
8-Dimethylamino-7-(2-hydroxy-3-m-tolyloxy-propyl)-3-methyl-3,7-dihydro-purine-2,
51 53 1 0 0 
SMALL
USER_CHARGES


@<TRIPOS>ATOM
  1 O        5.3940     1.7290     3.6920 O.2   1 <1>  -0.5750 
  2 C        5.5090     1.9150     2.5020 C.2   1 <1>   0.6860 
  3 N        6.3870     1.1790     1.7200 N.am  1 <1>  -0.4410 
  4 N        4.7270     2.8640     1.9110 N.am  1 <1>  -0.4950 
  5 C        6.4360     1.4700     0.3640 C.2   1 <1>   0.4210 
  6 C        7.2770     0.1460     2.3210 C.3   1 <1>   0.0520 
  7 C        4.7570     3.1510     0.5770 C.2   1 <1>   0.6990 
  8 N        7.2350     0.8990    -0.5720 N.pl3 1 <1>  -0.7040 
  9 C        5.6630     2.3970    -0.2420 C.2   1 <1>   0.2710 
 10 O        4.0210     4.0190     0.1440 O.2   1 <1>  -0.5750 
 11 C        6.9710     1.4500    -1.7590 C.cat 1 <1>   1.0690 
 12 N        6.0080     2.3770    -1.6120 N.pl3 1 <1>  -0.7670 
 13 N        7.6090     1.0380    -2.8850 N.pl3 1 <1>  -0.5960 
 14 C        5.5630     3.4540    -2.5580 C.3   1 <1>   0.3480 
 15 C        8.9370     0.3560    -2.8670 C.3   1 <1>   0.0800 
 16 C        7.0800     1.2140    -4.2670 C.3   1 <1>   0.0800 
 17 C        6.5500     4.6420    -2.6850 C.3   1 <1>   0.1930 
 18 O        7.8020     4.1870    -3.0860 O.3   1 <1>  -0.6840 
 19 C        6.7120     5.4450    -1.3840 C.3   1 <1>   0.1130 
 20 O        7.5740     4.7470    -0.4980 O.3   1 <1>  -0.3680 
 21 C        7.4860     4.8770     0.8470 C.ar  1 <1>   0.0750 
 22 C        8.2480     4.0010     1.6030 C.ar  1 <1>  -0.1570 
 23 C        6.6580     5.7960     1.4870 C.ar  1 <1>  -0.1570 
 24 C        8.1590     3.9980     2.9840 C.ar  1 <1>  -0.1510 
 25 C        6.5690     5.7950     2.8660 C.ar  1 <1>  -0.1570 
 26 C        7.3110     4.8950     3.6110 C.ar  1 <1>  -0.1570 
 27 C        8.9760     3.0340     3.8240 C.3   1 <1>  -0.1040 
 28 H        4.1460     3.4330     2.5230 H     1 <1>   0.3640 
 29 H        7.1380     0.0940     3.3880 H     1 <1>   0.0720 
 30 H        8.3060     0.3940     2.1270 H     1 <1>   0.0720 
 31 H        7.0530    -0.8190     1.9020 H     1 <1>   0.0720 
 32 H        7.9050     0.1540    -0.4290 H     1 <1>   0.4450 
 33 H        4.6100     3.8360    -2.2380 H     1 <1>   0.0720 
 34 H        5.3960     3.0460    -3.5360 H     1 <1>   0.0720 
 35 H        9.4220     0.4630    -1.9130 H     1 <1>   0.0720 
 36 H        9.5790     0.7970    -3.6130 H     1 <1>   0.0720 
 37 H        8.8170    -0.6900    -3.0910 H     1 <1>   0.0720 
 38 H        6.0060     1.1680    -4.2690 H     1 <1>   0.0720 
 39 H        7.4420     0.4270    -4.9070 H     1 <1>   0.0720 
 40 H        7.4060     2.1580    -4.6700 H     1 <1>   0.0720 
 41 H        6.1870     5.3020    -3.4530 H     1 <1>   0.0720 
 42 H        8.4550     4.4270    -2.3910 H     1 <1>   0.3940 
 43 H        5.7480     5.5830    -0.9310 H     1 <1>   0.0720 
 44 H        7.1480     6.4090    -1.5810 H     1 <1>   0.0720 
 45 H        8.9110     3.3200     1.1030 H     1 <1>   0.1430 
 46 H        6.0780     6.5160     0.9420 H     1 <1>   0.1430 
 47 H        5.9270     6.4990     3.3660 H     1 <1>   0.1430 
 48 H        7.2310     4.8990     4.6850 H     1 <1>   0.1430 
 49 H        9.6230     2.4360     3.2090 H     1 <1>   0.0720 
 50 H        8.3190     2.3840     4.3750 H     1 <1>   0.0720 
 51 H        9.5810     3.5830     4.5230 H     1 <1>   0.0720 
@<TRIPOS>BOND
  1   1   2  2   
  2   2   3  am  
  3   2   4  am  
  4   3   5  1   
  5   3   6  1   
  6   4   7  am  
  7   4  28  1   
  8   5   8  1   
  9   5   9  2   
 10   6  29  1   
 11   6  30  1   
 12   6  31  1   
 13   7   9  1   
 14   7  10  2   
 15   8  11  ar  
 16   8  32  1   
 17   9  12  1   
 18  11  12  ar  
 19  11  13  ar  
 20  12  14  1   
 21  13  15  1   
 22  13  16  1   
 23  14  17  1   
 24  14  33  1   
 25  14  34  1   
 26  15  35  1   
 27  15  36  1   
 28  15  37  1   
 29  16  38  1   
 30  16  39  1   
 31  16  40  1   
 32  17  18  1   
 33  17  19  1   
 34  17  41  1   
 35  18  42  1   
 36  19  20  1   
 37  19  43  1   
 38  19  44  1   
 39  20  21  1   
 40  21  22  ar  
 41  21  23  ar  
 42  22  24  ar  
 43  22  45  1   
 44  23  25  ar  
 45  23  46  1   
 46  24  26  ar  
 47  24  27  1   
 48  25  26  ar  
 49  25  47  1   
 50  26  48  1   
 51  27  49  1   
 52  27  50  1   
 53  27  51  1   
@<TRIPOS>SUBSTRUCTURE
  1 ****   9 GROUP 4 **** **** 0

# MOE 2024.06 (io_trps.svl 2023.06)
