@<TRIPOS>MOLECULE
2,2-Dimethyl-N-(3-p-tolyl-[1,2,4]oxadiazol-5-ylmethyl)-propionamide
39 40 1 0 0 
SMALL
USER_CHARGES


@<TRIPOS>ATOM
  1 O       -2.9000     0.4530    -2.5590 O.2   1 <1>  -0.5700 
  2 C       -3.0680     0.1470    -1.4050 C.2   1 <1>   0.5690 
  3 N       -4.2830    -0.3730    -1.0970 N.am  1 <1>  -0.7300 
  4 C       -1.9120     0.3700    -0.3820 C.3   1 <1>   0.0610 
  5 C       -4.8770    -0.9070     0.1560 C.3   1 <1>   0.3200 
  6 C       -1.4730    -0.9490     0.2890 C.3   1 <1>  -0.2400 
  7 C       -2.3060     1.4000     0.6960 C.3   1 <1>  -0.2400 
  8 C       -0.6580     0.9340    -1.0880 C.3   1 <1>  -0.2400 
  9 C       -5.1230    -2.4050     0.0620 C.2   1 <1>   0.2980 
 10 O       -4.0910    -3.2060     0.0170 O.3   1 <1>  -0.0190 
 11 N       -6.2570    -2.9740     0.0280 N.2   1 <1>  -0.5650 
 12 N       -4.6140    -4.3890    -0.0510 N.2   1 <1>  -0.4100 
 13 C       -5.8940    -4.2600    -0.0490 C.2   1 <1>   0.4620 
 14 C       -6.8570    -5.3470    -0.1200 C.ar  1 <1>   0.0540 
 15 C       -6.4430    -6.6780    -0.1960 C.ar  1 <1>  -0.1500 
 16 C       -8.2330    -5.1120    -0.1140 C.ar  1 <1>  -0.1500 
 17 C       -7.3520    -7.7180    -0.2630 C.ar  1 <1>  -0.1500 
 18 C       -9.1460    -6.1490    -0.1810 C.ar  1 <1>  -0.1500 
 19 C       -8.7120    -7.4600    -0.2580 C.ar  1 <1>  -0.1440 
 20 C       -9.7120    -8.6000    -0.3300 C.3   1 <1>  -0.0970 
 21 H       -4.8870    -0.4820    -1.9150 H     1 <1>   0.3700 
 22 H       -5.8190    -0.4150     0.3240 H     1 <1>   0.0800 
 23 H       -4.2520    -0.7100     1.0020 H     1 <1>   0.0800 
 24 H       -2.2310    -1.3500     0.9310 H     1 <1>   0.0800 
 25 H       -0.5920    -0.7940     0.8870 H     1 <1>   0.0800 
 26 H       -1.2450    -1.6840    -0.4630 H     1 <1>   0.0800 
 27 H       -3.1320     1.0670     1.2910 H     1 <1>   0.0800 
 28 H       -2.5850     2.3290     0.2290 H     1 <1>   0.0800 
 29 H       -1.4780     1.5910     1.3570 H     1 <1>   0.0800 
 30 H       -0.3170     0.2500    -1.8470 H     1 <1>   0.0800 
 31 H        0.1460     1.0960    -0.3920 H     1 <1>   0.0800 
 32 H       -0.8860     1.8710    -1.5670 H     1 <1>   0.0800 
 33 H       -5.3910    -6.9030    -0.2020 H     1 <1>   0.1500 
 34 H       -8.5970    -4.1010    -0.0560 H     1 <1>   0.1500 
 35 H       -6.9950    -8.7320    -0.3200 H     1 <1>   0.1500 
 36 H      -10.2000    -5.9290    -0.1730 H     1 <1>   0.1500 
 37 H       -9.9610    -8.9280     0.6630 H     1 <1>   0.0800 
 38 H       -9.2990    -9.4280    -0.8770 H     1 <1>   0.0800 
 39 H      -10.6100    -8.2800    -0.8260 H     1 <1>   0.0800 
@<TRIPOS>BOND
  1   1   2  2   
  2   2   3  am  
  3   2   4  1   
  4   3   5  1   
  5   3  21  1   
  6   4   6  1   
  7   4   7  1   
  8   4   8  1   
  9   5   9  1   
 10   5  22  1   
 11   5  23  1   
 12   6  24  1   
 13   6  25  1   
 14   6  26  1   
 15   7  27  1   
 16   7  28  1   
 17   7  29  1   
 18   8  30  1   
 19   8  31  1   
 20   8  32  1   
 21   9  10  1   
 22   9  11  2   
 23  10  12  1   
 24  11  13  1   
 25  12  13  2   
 26  13  14  1   
 27  14  15  ar  
 28  14  16  ar  
 29  15  17  ar  
 30  15  33  1   
 31  16  18  ar  
 32  16  34  1   
 33  17  19  ar  
 34  17  35  1   
 35  18  19  ar  
 36  18  36  1   
 37  19  20  1   
 38  20  37  1   
 39  20  38  1   
 40  20  39  1   
@<TRIPOS>SUBSTRUCTURE
  1 ****   9 GROUP 4 **** **** 0

# MOE 2024.06 (io_trps.svl 2023.06)
