@<TRIPOS>MOLECULE
N-[1-(4-Allyl-5-mercapto-4H-[1,2,4]triazol-3-yl)-2-methyl-propyl]-2,4-dichloro-b
42 43 1 0 0 
SMALL
USER_CHARGES


@<TRIPOS>ATOM
  1 CL       1.6980     0.0260     0.9000 Cl    1 <1>  -0.1770 
  2 C        2.1310    -1.6650     0.9900 C.ar  1 <1>   0.1770 
  3 C        3.2970    -2.1570     0.3880 C.ar  1 <1>   0.0860 
  4 C        1.2540    -2.4830     1.6780 C.ar  1 <1>  -0.1500 
  5 C        4.2540    -1.3350    -0.3290 C.2   1 <1>   0.5440 
  6 C        3.5300    -3.5320     0.5030 C.ar  1 <1>  -0.1500 
  7 C        1.5310    -3.8310     1.7710 C.ar  1 <1>   0.1770 
  8 O        4.8550    -1.7890    -1.2810 O.2   1 <1>  -0.5700 
  9 N        4.5470    -0.0610     0.0520 N.am  1 <1>  -0.7300 
 10 C        2.6630    -4.3650     1.1870 C.ar  1 <1>  -0.1500 
 11 CL       0.4370    -4.8740     2.6360 Cl    1 <1>  -0.1770 
 12 C        5.6130     0.7820    -0.5550 C.3   1 <1>   0.3880 
 13 C        6.4640     1.4760     0.5280 C.2   1 <1>   0.4850 
 14 C        4.9820     1.7600    -1.5800 C.3   1 <1>  -0.0800 
 15 N        5.9770     2.1130     1.5390 N.2   1 <1>  -0.2600 
 16 N        7.8440     1.4810     0.5320 N.pl3 1 <1>  -0.7640 
 17 C        6.0550     2.5520    -2.3460 C.3   1 <1>  -0.2400 
 18 C        3.9600     2.7440    -0.9800 C.3   1 <1>  -0.2400 
 19 N        7.0790     2.5530     2.2120 N.pl3 1 <1>  -0.3930 
 20 C        8.1780     2.1680     1.6040 C.cat 1 <1>   0.7360 
 21 C        8.8060     0.7940    -0.3390 C.3   1 <1>   0.4920 
 22 S        9.6810     2.4900     2.1160 S.3   1 <1>  -0.9360 
 23 C        8.6980    -0.6950    -0.0720 C.2   1 <1>  -0.2880 
 24 C        8.2990    -1.6350    -0.9360 C.2   1 <1>  -0.3000 
 25 H        0.3670    -2.0800     2.1320 H     1 <1>   0.1500 
 26 H        4.4120    -3.9510     0.0440 H     1 <1>   0.1500 
 27 H        3.9900     0.4000     0.7770 H     1 <1>   0.3700 
 28 H        2.8580    -5.4200     1.2680 H     1 <1>   0.1500 
 29 H        6.2690     0.1360    -1.1040 H     1 <1>   0.0800 
 30 H        4.4630     1.1530    -2.3040 H     1 <1>   0.0800 
 31 H        6.6040     3.2030    -1.6870 H     1 <1>   0.0800 
 32 H        5.5950     3.1560    -3.1080 H     1 <1>   0.0800 
 33 H        6.7450     1.8820    -2.8290 H     1 <1>   0.0800 
 34 H        4.4290     3.4250    -0.2910 H     1 <1>   0.0800 
 35 H        3.1740     2.2200    -0.4680 H     1 <1>   0.0800 
 36 H        3.5070     3.3260    -1.7640 H     1 <1>   0.0800 
 37 H        7.1210     3.0970     3.0740 H     1 <1>   0.4500 
 38 H        9.8110     1.1280    -0.1420 H     1 <1>   0.0800 
 39 H        8.5790     1.0100    -1.3680 H     1 <1>   0.0800 
 40 H        8.9900    -0.9260     0.9390 H     1 <1>   0.1500 
 41 H        8.2380    -2.6830    -0.6910 H     1 <1>   0.1500 
 42 H        7.9950    -1.4540    -1.9530 H     1 <1>   0.1500 
@<TRIPOS>BOND
  1   1   2  1   
  2   2   3  ar  
  3   2   4  ar  
  4   3   5  1   
  5   3   6  ar  
  6   4   7  ar  
  7   4  25  1   
  8   5   8  2   
  9   5   9  am  
 10   6  10  ar  
 11   6  26  1   
 12   7  10  ar  
 13   7  11  1   
 14   9  12  1   
 15   9  27  1   
 16  10  28  1   
 17  12  13  1   
 18  12  14  1   
 19  12  29  1   
 20  13  15  2   
 21  13  16  1   
 22  14  17  1   
 23  14  18  1   
 24  14  30  1   
 25  15  19  1   
 26  16  20  ar  
 27  16  21  1   
 28  17  31  1   
 29  17  32  1   
 30  17  33  1   
 31  18  34  1   
 32  18  35  1   
 33  18  36  1   
 34  19  20  ar  
 35  19  37  1   
 36  20  22  1   
 37  21  23  1   
 38  21  38  1   
 39  21  39  1   
 40  23  24  2   
 41  23  40  1   
 42  24  41  1   
 43  24  42  1   
@<TRIPOS>SUBSTRUCTURE
  1 ****   9 GROUP 4 **** **** 0

# MOE 2024.06 (io_trps.svl 2023.06)
