@<TRIPOS>MOLECULE
4-(2,4-Dimethyl-phenoxy)-N-[5-(tetrahydro-furan-2-yl)-[1,3,4]thiadiazol-2-yl]-bu
48 50 1 0 0 
SMALL
USER_CHARGES


@<TRIPOS>ATOM
  1 S       -0.2050    -0.6970    -0.0740 S.3   1 <1>  -0.0800 
  2 C        0.8650     0.6480    -0.3220 C.2   1 <1>   0.4420 
  3 C        1.1230    -1.7360    -0.4740 C.2   1 <1>   0.1980 
  4 N        2.0460     0.2700    -0.6440 N.2   1 <1>  -0.3380 
  5 N        0.4580     1.9550    -0.1570 N.am  1 <1>  -0.4940 
  6 N        2.1870    -1.0870    -0.7330 N.2   1 <1>  -0.3380 
  7 C        0.9080    -3.2450    -0.4680 C.3   1 <1>   0.3800 
  8 C       -0.7250     2.6020     0.0210 C.2   1 <1>   0.5690 
  9 O       -0.3260    -3.5890    -1.0190 O.3   1 <1>  -0.5600 
 10 C        0.8750    -3.8610     0.9250 C.3   1 <1>  -0.1600 
 11 O       -0.6960     3.7880     0.2220 O.2   1 <1>  -0.5700 
 12 C       -2.0680     1.8810    -0.0440 C.3   1 <1>  -0.0990 
 13 C       -0.7020    -4.8600    -0.5950 C.3   1 <1>   0.1200 
 14 C       -0.0030    -5.0900     0.7440 C.3   1 <1>  -0.1600 
 15 C       -3.2900     2.8180    -0.0810 C.3   1 <1>  -0.1600 
 16 C       -4.5950     2.0270    -0.1710 C.3   1 <1>   0.1200 
 17 O       -5.6640     2.9420    -0.2000 O.3   1 <1>  -0.3630 
 18 C       -6.9570     2.5280    -0.2770 C.ar  1 <1>   0.0830 
 19 C       -7.9480     3.5050    -0.2870 C.ar  1 <1>  -0.1430 
 20 C       -7.3200     1.1850    -0.3450 C.ar  1 <1>  -0.1500 
 21 C       -9.2810     3.1310    -0.3630 C.ar  1 <1>  -0.1500 
 22 C       -7.5800     4.9800    -0.2140 C.3   1 <1>  -0.0970 
 23 C       -8.6530     0.8240    -0.4210 C.ar  1 <1>  -0.1500 
 24 C       -9.6400     1.7950    -0.4290 C.ar  1 <1>  -0.1430 
 25 C      -11.1040     1.4020    -0.5140 C.3   1 <1>  -0.0970 
 26 H        1.2350     2.6130    -0.1820 H     1 <1>   0.3700 
 27 H        1.6690    -3.7200    -1.0640 H     1 <1>   0.0800 
 28 H        0.4160    -3.1760     1.6150 H     1 <1>   0.0800 
 29 H        1.8640    -4.1020     1.2710 H     1 <1>   0.0800 
 30 H       -2.1480     1.2430     0.8170 H     1 <1>   0.0800 
 31 H       -2.0810     1.2730    -0.9290 H     1 <1>   0.0800 
 32 H       -0.3770    -5.5720    -1.3350 H     1 <1>   0.0800 
 33 H       -1.7750    -4.8880    -0.5050 H     1 <1>   0.0800 
 34 H       -0.7180    -5.1860     1.5420 H     1 <1>   0.0800 
 35 H        0.5870    -5.9890     0.6950 H     1 <1>   0.0800 
 36 H       -3.2140     3.4720    -0.9330 H     1 <1>   0.0800 
 37 H       -3.3050     3.4220     0.8110 H     1 <1>   0.0800 
 38 H       -4.7180     1.3920     0.6890 H     1 <1>   0.0800 
 39 H       -4.6260     1.4440    -1.0760 H     1 <1>   0.0800 
 40 H       -6.5830     0.4050    -0.3410 H     1 <1>   0.1500 
 41 H      -10.0470     3.8850    -0.3730 H     1 <1>   0.1500 
 42 H       -6.9590     5.2400    -1.0520 H     1 <1>   0.0800 
 43 H       -7.0340     5.1730     0.6920 H     1 <1>   0.0800 
 44 H       -8.4560     5.6030    -0.2280 H     1 <1>   0.0800 
 45 H       -8.9200    -0.2160    -0.4750 H     1 <1>   0.1500 
 46 H      -11.4240     1.4160    -1.5400 H     1 <1>   0.0800 
 47 H      -11.7090     2.0900     0.0490 H     1 <1>   0.0800 
 48 H      -11.2540     0.4150    -0.1160 H     1 <1>   0.0800 
@<TRIPOS>BOND
  1   1   2  1   
  2   1   3  1   
  3   2   4  2   
  4   2   5  1   
  5   3   6  2   
  6   3   7  1   
  7   4   6  1   
  8   5   8  am  
  9   5  26  1   
 10   7   9  1   
 11   7  10  1   
 12   7  27  1   
 13   8  11  2   
 14   8  12  1   
 15   9  13  1   
 16  10  14  1   
 17  10  28  1   
 18  10  29  1   
 19  12  15  1   
 20  12  30  1   
 21  12  31  1   
 22  13  14  1   
 23  13  32  1   
 24  13  33  1   
 25  14  34  1   
 26  14  35  1   
 27  15  16  1   
 28  15  36  1   
 29  15  37  1   
 30  16  17  1   
 31  16  38  1   
 32  16  39  1   
 33  17  18  1   
 34  18  19  ar  
 35  18  20  ar  
 36  19  21  ar  
 37  19  22  1   
 38  20  23  ar  
 39  20  40  1   
 40  21  24  ar  
 41  21  41  1   
 42  22  42  1   
 43  22  43  1   
 44  22  44  1   
 45  23  24  ar  
 46  23  45  1   
 47  24  25  1   
 48  25  46  1   
 49  25  47  1   
 50  25  48  1   
@<TRIPOS>SUBSTRUCTURE
  1 ****  12 GROUP 4 **** **** 0

# MOE 2024.06 (io_trps.svl 2023.06)
