@<TRIPOS>MOLECULE
1-(2,5-Dimethoxy-benzenesulfonyl)-piperidine-4-carboxylic acid cyclohexylamide
58 60 1 0 0 
SMALL
USER_CHARGES


@<TRIPOS>ATOM
  1 S       -0.2100    -0.1020    -1.5300 S.o2  1 <1>   1.4470 
  2 O        0.1510    -1.3190    -2.2280 O.2   1 <1>  -0.6500 
  3 O       -1.0730     0.8320    -2.2230 O.2   1 <1>  -0.6500 
  4 N        1.2490     0.7120    -1.2250 N.am  1 <1>  -0.8490 
  5 C       -0.8380    -0.5750     0.1060 C.ar  1 <1>  -0.0090 
  6 C        1.0270     2.0150    -0.5880 C.3   1 <1>   0.1960 
  7 C        2.0180     0.8620    -2.4650 C.3   1 <1>   0.1960 
  8 C       -1.6560     0.2590     0.8670 C.ar  1 <1>   0.0830 
  9 C       -0.4890    -1.8070     0.6500 C.ar  1 <1>  -0.1500 
 10 C        2.3650     2.6570    -0.2150 C.3   1 <1>  -0.1600 
 11 C        3.3960     1.4560    -2.1670 C.3   1 <1>  -0.1600 
 12 O       -2.0050     1.4810     0.4150 O.3   1 <1>  -0.3620 
 13 C       -2.1100    -0.1260     2.1200 C.ar  1 <1>  -0.1500 
 14 C       -0.9450    -2.2060     1.9020 C.ar  1 <1>   0.0830 
 15 C        3.2740     2.8080    -1.4460 C.3   1 <1>  -0.0190 
 16 C       -3.3180     1.6140    -0.0850 C.3   1 <1>   0.0400 
 17 C       -1.7570    -1.3580     2.6330 C.ar  1 <1>  -0.1500 
 18 O       -0.6420    -3.4010     2.4710 O.3   1 <1>  -0.3630 
 19 C        4.6360     3.3890    -1.0820 C.2   1 <1>   0.5690 
 20 C        0.1170    -4.3690     1.7800 C.3   1 <1>   0.0400 
 21 O        4.9570     4.4550    -1.5470 O.2   1 <1>  -0.5700 
 22 N        5.4460     2.6910    -0.2460 N.am  1 <1>  -0.7300 
 23 C        6.7770     3.1180     0.2080 C.3   1 <1>   0.2200 
 24 C        7.8100     2.0830    -0.2480 C.3   1 <1>  -0.1600 
 25 C        6.7560     3.2520     1.7340 C.3   1 <1>  -0.1600 
 26 C        9.2070     2.4180     0.2950 C.3   1 <1>  -0.1600 
 27 C        8.1520     3.5880     2.2800 C.3   1 <1>  -0.1600 
 28 C        9.1900     2.5540     1.8240 C.3   1 <1>  -0.1600 
 29 H        0.4570     1.8890     0.3150 H     1 <1>   0.0800 
 30 H        0.4740     2.6640    -1.2490 H     1 <1>   0.0800 
 31 H        1.4810     1.4920    -3.1560 H     1 <1>   0.0800 
 32 H        2.1560    -0.1010    -2.9300 H     1 <1>   0.0800 
 33 H        0.1490    -2.4500     0.0720 H     1 <1>   0.1500 
 34 H        2.8410     2.0460     0.5310 H     1 <1>   0.0800 
 35 H        2.1850     3.6250     0.2190 H     1 <1>   0.0800 
 36 H        3.9320     1.5890    -3.0900 H     1 <1>   0.0800 
 37 H        3.9460     0.7550    -1.5650 H     1 <1>   0.0800 
 38 H       -2.7330     0.5400     2.6900 H     1 <1>   0.1500 
 39 H        2.8020     3.5010    -2.1210 H     1 <1>   0.0800 
 40 H       -3.4380     2.6180    -0.4500 H     1 <1>   0.0800 
 41 H       -4.0200     1.4210     0.7070 H     1 <1>   0.0800 
 42 H       -3.4570     0.9140    -0.8910 H     1 <1>   0.0800 
 43 H       -2.1050    -1.6690     3.6030 H     1 <1>   0.1500 
 44 H        0.2020    -5.2370     2.4080 H     1 <1>   0.0800 
 45 H        1.0950    -3.9680     1.5770 H     1 <1>   0.0800 
 46 H       -0.3910    -4.6270     0.8680 H     1 <1>   0.0800 
 47 H        5.1310     1.7940     0.1200 H     1 <1>   0.3700 
 48 H        7.0200     4.0750    -0.2260 H     1 <1>   0.0800 
 49 H        7.8430     2.0650    -1.3230 H     1 <1>   0.0800 
 50 H        7.5240     1.1070     0.1030 H     1 <1>   0.0800 
 51 H        6.4220     2.3280     2.1730 H     1 <1>   0.0800 
 52 H        6.0690     4.0320     2.0120 H     1 <1>   0.0800 
 53 H        9.5450     3.3430    -0.1410 H     1 <1>   0.0800 
 54 H        9.9010     1.6460     0.0090 H     1 <1>   0.0800 
 55 H        8.1210     3.6190     3.3560 H     1 <1>   0.0800 
 56 H        8.4440     4.5640     1.9310 H     1 <1>   0.0800 
 57 H       10.1670     2.8480     2.1700 H     1 <1>   0.0800 
 58 H        8.9600     1.5990     2.2640 H     1 <1>   0.0800 
@<TRIPOS>BOND
  1   1   2  2   
  2   1   3  2   
  3   1   4  am  
  4   1   5  1   
  5   4   6  1   
  6   4   7  1   
  7   5   8  ar  
  8   5   9  ar  
  9   6  10  1   
 10   6  29  1   
 11   6  30  1   
 12   7  11  1   
 13   7  31  1   
 14   7  32  1   
 15   8  12  1   
 16   8  13  ar  
 17   9  14  ar  
 18   9  33  1   
 19  10  15  1   
 20  10  34  1   
 21  10  35  1   
 22  11  15  1   
 23  11  36  1   
 24  11  37  1   
 25  12  16  1   
 26  13  17  ar  
 27  13  38  1   
 28  14  17  ar  
 29  14  18  1   
 30  15  19  1   
 31  15  39  1   
 32  16  40  1   
 33  16  41  1   
 34  16  42  1   
 35  17  43  1   
 36  18  20  1   
 37  19  21  2   
 38  19  22  am  
 39  20  44  1   
 40  20  45  1   
 41  20  46  1   
 42  22  23  1   
 43  22  47  1   
 44  23  24  1   
 45  23  25  1   
 46  23  48  1   
 47  24  26  1   
 48  24  49  1   
 49  24  50  1   
 50  25  27  1   
 51  25  51  1   
 52  25  52  1   
 53  26  28  1   
 54  26  53  1   
 55  26  54  1   
 56  27  28  1   
 57  27  55  1   
 58  27  56  1   
 59  28  57  1   
 60  28  58  1   
@<TRIPOS>SUBSTRUCTURE
  1 ****   4 GROUP 4 **** **** 0

# MOE 2024.06 (io_trps.svl 2023.06)
