@<TRIPOS>MOLECULE
5-(2-Isopropyl-5-methyl-phenoxymethyl)-4-methyl-4H-[1,2,4]triazole-3-thiol
38 39 1 0 0 
SMALL
USER_CHARGES


@<TRIPOS>ATOM
  1 S       -0.5120     0.1470    -0.9750 S.3   1 <1>  -0.9360 
  2 C       -2.1310     0.0580    -0.9380 C.cat 1 <1>   0.7360 
  3 N       -2.9580     1.0630    -1.1140 N.pl3 1 <1>  -0.3930 
  4 N       -2.8340    -1.0370    -0.7250 N.pl3 1 <1>  -0.7640 
  5 N       -4.2520     0.6410    -1.0150 N.2   1 <1>  -0.2600 
  6 C       -4.1490    -0.6220    -0.7810 C.2   1 <1>   0.4850 
  7 C       -2.2010    -2.3510    -0.4800 C.3   1 <1>   0.2740 
  8 C       -5.3110    -1.5930    -0.5810 C.3   1 <1>   0.2880 
  9 O       -6.5540    -0.9190    -0.5980 O.3   1 <1>  -0.3630 
 10 C       -7.7080    -1.5450    -0.2520 C.ar  1 <1>   0.0830 
 11 C       -8.8230    -0.7570     0.0380 C.ar  1 <1>  -0.1440 
 12 C       -7.7990    -2.9350    -0.1810 C.ar  1 <1>  -0.1500 
 13 C      -10.0050    -1.3870     0.4040 C.ar  1 <1>  -0.1500 
 14 C       -8.7770     0.7750    -0.0350 C.3   1 <1>   0.0630 
 15 C       -8.9840    -3.5470     0.1870 C.ar  1 <1>  -0.1430 
 16 C      -10.0860    -2.7660     0.4790 C.ar  1 <1>  -0.1500 
 17 C       -9.0510     1.3960     1.3400 C.3   1 <1>  -0.2400 
 18 C       -9.7690     1.3050    -1.0760 C.3   1 <1>  -0.2400 
 19 C       -9.0880    -5.0600     0.2660 C.3   1 <1>  -0.0970 
 20 H       -2.6160     2.0060    -1.2930 H     1 <1>   0.4500 
 21 H       -1.6150    -2.3040     0.4220 H     1 <1>   0.0800 
 22 H       -1.5430    -2.5900    -1.2990 H     1 <1>   0.0800 
 23 H       -2.9410    -3.1240    -0.3840 H     1 <1>   0.0800 
 24 H       -5.2090    -2.0800     0.3710 H     1 <1>   0.0800 
 25 H       -5.3130    -2.3170    -1.3740 H     1 <1>   0.0800 
 26 H       -6.9630    -3.5610    -0.4160 H     1 <1>   0.1500 
 27 H      -10.8790    -0.8050     0.6350 H     1 <1>   0.1500 
 28 H       -7.7990     1.1020    -0.3390 H     1 <1>   0.0800 
 29 H      -11.0150    -3.2260     0.7650 H     1 <1>   0.1500 
 30 H      -10.0460     1.1670     1.6760 H     1 <1>   0.0800 
 31 H       -8.9420     2.4650     1.2930 H     1 <1>   0.0800 
 32 H       -8.3490     1.0120     2.0580 H     1 <1>   0.0800 
 33 H      -10.7810     1.0780    -0.7970 H     1 <1>   0.0800 
 34 H       -9.5670     0.8540    -2.0310 H     1 <1>   0.0800 
 35 H       -9.6710     2.3710    -1.1740 H     1 <1>   0.0800 
 36 H       -8.1180    -5.5050     0.3930 H     1 <1>   0.0800 
 37 H       -9.5290    -5.4410    -0.6380 H     1 <1>   0.0800 
 38 H       -9.7030    -5.3470     1.0990 H     1 <1>   0.0800 
@<TRIPOS>BOND
  1   1   2  1   
  2   2   3  ar  
  3   2   4  ar  
  4   3   5  1   
  5   3  20  1   
  6   4   6  1   
  7   4   7  1   
  8   5   6  2   
  9   6   8  1   
 10   7  21  1   
 11   7  22  1   
 12   7  23  1   
 13   8   9  1   
 14   8  24  1   
 15   8  25  1   
 16   9  10  1   
 17  10  11  ar  
 18  10  12  ar  
 19  11  13  ar  
 20  11  14  1   
 21  12  15  ar  
 22  12  26  1   
 23  13  16  ar  
 24  13  27  1   
 25  14  17  1   
 26  14  18  1   
 27  14  28  1   
 28  15  16  ar  
 29  15  19  1   
 30  16  29  1   
 31  17  30  1   
 32  17  31  1   
 33  17  32  1   
 34  18  33  1   
 35  18  34  1   
 36  18  35  1   
 37  19  36  1   
 38  19  37  1   
 39  19  38  1   
@<TRIPOS>SUBSTRUCTURE
  1 ****   9 GROUP 4 **** **** 0

# MOE 2024.06 (io_trps.svl 2023.06)
