@<TRIPOS>MOLECULE
(2-Chloro-4-methyl-phenyl)-(5-hydroxy-3-methyl-5-trifluoromethyl-4,5-dihydro-pyr
33 34 1 0 0 
SMALL
USER_CHARGES


@<TRIPOS>ATOM
  1 CL      -0.4600     2.5850    -2.0070 Cl    1 <1>  -0.1770 
  2 C       -1.5490     2.0820    -0.7370 C.ar  1 <1>   0.1770 
  3 C       -1.3110     2.4560     0.5840 C.ar  1 <1>   0.0860 
  4 C       -2.6280     1.2940    -1.0930 C.ar  1 <1>  -0.1500 
  5 C       -0.1930     3.2920     0.9540 C.2   1 <1>   0.5440 
  6 C       -2.2000     1.9820     1.5480 C.ar  1 <1>  -0.1500 
  7 C       -3.5060     0.8440    -0.1210 C.ar  1 <1>  -0.1440 
  8 O        0.6610     2.8740     1.7140 O.2   1 <1>  -0.5700 
  9 N       -0.1050     4.5980     0.5030 N.am  1 <1>  -0.2980 
 10 C       -3.2810     1.1900     1.2020 C.ar  1 <1>  -0.1500 
 11 C       -4.6960    -0.0230    -0.4920 C.3   1 <1>  -0.0960 
 12 N       -1.1530     5.3390    -0.0030 N.2   1 <1>  -0.5120 
 13 C        1.1280     5.4290     0.6490 C.3   1 <1>   0.5800 
 14 C       -0.7940     6.5320    -0.1610 C.2   1 <1>   0.3280 
 15 O        1.3920     5.4880     2.0220 O.3   1 <1>  -0.6800 
 16 C        2.3560     4.9380    -0.2270 C.3   1 <1>   1.0200 
 17 C        0.6340     6.8220     0.2170 C.3   1 <1>  -0.0990 
 18 C       -1.6620     7.6510    -0.6890 C.3   1 <1>  -0.1790 
 19 F        3.3790     5.7900    -0.1780 F     1 <1>  -0.3400 
 20 F        2.0560     4.8300    -1.5200 F     1 <1>  -0.3400 
 21 F        2.8590     3.7600     0.1290 F     1 <1>  -0.3400 
 22 H       -2.7710     1.0350    -2.1260 H     1 <1>   0.1500 
 23 H       -2.0360     2.2420     2.5790 H     1 <1>   0.1500 
 24 H       -3.9520     0.8420     1.9700 H     1 <1>   0.1500 
 25 H       -4.9200     0.0650    -1.5400 H     1 <1>   0.0800 
 26 H       -5.5640     0.2790     0.0660 H     1 <1>   0.0800 
 27 H       -4.4810    -1.0530    -0.2690 H     1 <1>   0.0800 
 28 H        1.3520     4.5590     2.3520 H     1 <1>   0.4000 
 29 H        1.1680     7.1970    -0.6360 H     1 <1>   0.0800 
 30 H        0.6850     7.5350     1.0200 H     1 <1>   0.0800 
 31 H       -1.2370     8.0540    -1.5890 H     1 <1>   0.0800 
 32 H       -1.7450     8.4290     0.0470 H     1 <1>   0.0800 
 33 H       -2.6460     7.2750    -0.9080 H     1 <1>   0.0800 
@<TRIPOS>BOND
  1   1   2  1   
  2   2   3  ar  
  3   2   4  ar  
  4   3   5  1   
  5   3   6  ar  
  6   4   7  ar  
  7   4  22  1   
  8   5   8  2   
  9   5   9  am  
 10   6  10  ar  
 11   6  23  1   
 12   7  10  ar  
 13   7  11  1   
 14   9  12  1   
 15   9  13  1   
 16  10  24  1   
 17  11  25  1   
 18  11  26  1   
 19  11  27  1   
 20  12  14  2   
 21  13  15  1   
 22  13  16  1   
 23  13  17  1   
 24  14  17  1   
 25  14  18  1   
 26  15  28  1   
 27  16  19  1   
 28  16  20  1   
 29  16  21  1   
 30  17  29  1   
 31  17  30  1   
 32  18  31  1   
 33  18  32  1   
 34  18  33  1   
@<TRIPOS>SUBSTRUCTURE
  1 ****   9 GROUP 4 **** **** 0

# MOE 2024.06 (io_trps.svl 2023.06)
