@<TRIPOS>MOLECULE
NONAME
39 41 1 0 0 
SMALL
USER_CHARGES


@<TRIPOS>ATOM
  1 CL       1.8020    -0.5510    -4.3110 Cl    1 <1>  -0.1770 
  2 C        2.6740    -1.1440    -2.9210 C.ar  1 <1>   0.1770 
  3 C        3.4970    -0.2780    -2.2220 C.ar  1 <1>  -0.1500 
  4 C        2.5250    -2.4700    -2.5430 C.ar  1 <1>  -0.1500 
  5 C        4.1790    -0.7730    -1.1240 C.ar  1 <1>  -0.1440 
  6 C        3.2100    -2.9530    -1.4380 C.ar  1 <1>  -0.1500 
  7 C        4.0380    -2.0940    -0.7280 C.ar  1 <1>   0.1170 
  8 C        5.1460    -0.0810    -0.1760 C.3   1 <1>   0.7350 
  9 N        4.7990    -2.3530     0.4150 N.am  1 <1>  -0.4770 
 10 S        6.6300     0.3860    -1.1390 S.3   1 <1>  -0.3710 
 11 N        4.6530     1.2270     0.3640 N.am  1 <1>  -0.2980 
 12 C        5.4650    -1.2200     0.8080 C.2   1 <1>   0.5690 
 13 C        4.8670    -3.6500     1.1260 C.3   1 <1>   0.1400 
 14 C        6.4160     2.0970    -0.7700 C.2   1 <1>   0.6510 
 15 N        5.4090     2.3500    -0.0480 N.2   1 <1>  -0.5120 
 16 C        3.5390     1.3430     1.1780 C.2   1 <1>   0.5690 
 17 O        6.1700    -1.1310     1.7900 O.2   1 <1>  -0.5700 
 18 C        3.6560    -3.7950     2.0450 C.3   1 <1>  -0.2400 
 19 N        7.2900     3.0350    -1.2760 N.am  1 <1>  -0.4900 
 20 O        3.1000     2.4170     1.5150 O.2   1 <1>  -0.5700 
 21 C        2.7830     0.1390     1.7080 C.3   1 <1>  -0.1790 
 22 C        8.4520     3.0280    -1.9710 C.2   1 <1>   0.5690 
 23 O        8.9410     4.0810    -2.2860 O.2   1 <1>  -0.5700 
 24 C        9.1820     1.7660    -2.3670 C.3   1 <1>  -0.1790 
 25 H        3.5950     0.7480    -2.5350 H     1 <1>   0.1500 
 26 H        1.8770    -3.1130    -3.1130 H     1 <1>   0.1500 
 27 H        3.0990    -3.9790    -1.1360 H     1 <1>   0.1500 
 28 H        5.7730    -3.6920     1.7090 H     1 <1>   0.0800 
 29 H        4.8930    -4.4520     0.4080 H     1 <1>   0.0800 
 30 H        3.6600    -3.0190     2.7900 H     1 <1>   0.0800 
 31 H        3.6990    -4.7440     2.5490 H     1 <1>   0.0800 
 32 H        2.7410    -3.7490     1.4820 H     1 <1>   0.0800 
 33 H        6.9890     3.9810    -1.0520 H     1 <1>   0.3700 
 34 H        2.4030    -0.4620     0.9070 H     1 <1>   0.0800 
 35 H        1.9430     0.4770     2.2880 H     1 <1>   0.0800 
 36 H        3.4110    -0.4420     2.3550 H     1 <1>   0.0800 
 37 H        9.3830     1.1650    -1.5000 H     1 <1>   0.0800 
 38 H       10.1190     2.0210    -2.8270 H     1 <1>   0.0800 
 39 H        8.5980     1.2080    -3.0750 H     1 <1>   0.0800 
@<TRIPOS>BOND
  1   1   2  1   
  2   2   3  ar  
  3   2   4  ar  
  4   3   5  ar  
  5   3  25  1   
  6   4   6  ar  
  7   4  26  1   
  8   5   7  ar  
  9   5   8  1   
 10   6   7  ar  
 11   6  27  1   
 12   7   9  1   
 13   8  10  1   
 14   8  11  1   
 15   8  12  1   
 16   9  12  am  
 17   9  13  1   
 18  10  14  1   
 19  11  15  1   
 20  11  16  am  
 21  12  17  2   
 22  13  18  1   
 23  13  28  1   
 24  13  29  1   
 25  14  15  2   
 26  14  19  1   
 27  16  20  2   
 28  16  21  1   
 29  18  30  1   
 30  18  31  1   
 31  18  32  1   
 32  19  22  am  
 33  19  33  1   
 34  21  34  1   
 35  21  35  1   
 36  21  36  1   
 37  22  23  2   
 38  22  24  1   
 39  24  37  1   
 40  24  38  1   
 41  24  39  1   
@<TRIPOS>SUBSTRUCTURE
  1 ****   8 GROUP 4 **** **** 0

# MOE 2024.06 (io_trps.svl 2023.06)
