@<TRIPOS>MOLECULE
2-Methoxy-5,N-dimethyl-N-(2-oxo-2-piperidin-1-yl-ethyl)-benzenesulfonamide
47 48 1 0 0 
SMALL
USER_CHARGES


@<TRIPOS>ATOM
  1 S       -0.0790    -0.4850     0.5320 S.o2  1 <1>   1.4470 
  2 O       -1.3390    -0.9200    -0.0340 O.2   1 <1>  -0.6500 
  3 O        0.3530    -1.0970     1.7710 O.2   1 <1>  -0.6500 
  4 N        1.0910    -0.8460    -0.6410 N.am  1 <1>  -0.8490 
  5 C       -0.0610     1.3220     0.6680 C.ar  1 <1>  -0.0090 
  6 C        1.4080    -2.2950    -0.6480 C.3   1 <1>   0.2570 
  7 C        0.7310    -0.3920    -1.9890 C.3   1 <1>   0.1160 
  8 C        1.0820     2.0090     1.0710 C.ar  1 <1>   0.0830 
  9 C       -1.2020     2.0590     0.3660 C.ar  1 <1>  -0.1500 
 10 C        2.6800    -2.6660    -1.4270 C.2   1 <1>   0.5690 
 11 O        2.1900     1.2830     1.3690 O.3   1 <1>  -0.3630 
 12 C        1.0670     3.4000     1.1580 C.ar  1 <1>  -0.1500 
 13 C       -1.2220     3.4400     0.4550 C.ar  1 <1>  -0.1440 
 14 O        2.5350    -3.3130    -2.4420 O.2   1 <1>  -0.5700 
 15 N        3.9260    -2.2770    -0.9890 N.am  1 <1>  -0.6600 
 16 C        3.3030     1.8500     2.0240 C.3   1 <1>   0.0400 
 17 C       -0.0780     4.1080     0.8520 C.ar  1 <1>  -0.1500 
 18 C       -2.4840     4.2150     0.1190 C.3   1 <1>  -0.0970 
 19 C        4.1620    -1.4010     0.1960 C.3   1 <1>   0.1400 
 20 C        5.1620    -2.6440    -1.7340 C.3   1 <1>   0.1400 
 21 C        5.1490    -2.0760     1.1540 C.3   1 <1>  -0.1600 
 22 C        6.1540    -3.3300    -0.7880 C.3   1 <1>  -0.1600 
 23 C        6.4530    -2.4660     0.4450 C.3   1 <1>  -0.1600 
 24 H        0.5770    -2.8430    -1.0580 H     1 <1>   0.0800 
 25 H        1.5530    -2.6450     0.3580 H     1 <1>   0.0800 
 26 H        0.5320     0.6660    -1.9820 H     1 <1>   0.0800 
 27 H       -0.1460    -0.9100    -2.3420 H     1 <1>   0.0800 
 28 H        1.5420    -0.5760    -2.6730 H     1 <1>   0.0800 
 29 H       -2.0920     1.5380     0.0560 H     1 <1>   0.1500 
 30 H        1.9380     3.9490     1.4600 H     1 <1>   0.1500 
 31 H        3.9930     1.0590     2.2530 H     1 <1>   0.0800 
 32 H        2.9720     2.3200     2.9330 H     1 <1>   0.0800 
 33 H        3.7690     2.5630     1.3670 H     1 <1>   0.0800 
 34 H       -0.0770     5.1820     0.9230 H     1 <1>   0.1500 
 35 H       -3.3570     3.6110     0.2920 H     1 <1>   0.0800 
 36 H       -2.4660     4.5110    -0.9140 H     1 <1>   0.0800 
 37 H       -2.5580     5.0960     0.7320 H     1 <1>   0.0800 
 38 H        3.2510    -1.1910     0.7250 H     1 <1>   0.0800 
 39 H        4.5660    -0.4620    -0.1430 H     1 <1>   0.0800 
 40 H        5.6020    -1.7500    -2.1410 H     1 <1>   0.0800 
 41 H        4.9320    -3.3050    -2.5520 H     1 <1>   0.0800 
 42 H        4.6830    -2.9540     1.5660 H     1 <1>   0.0800 
 43 H        5.3650    -1.4090     1.9690 H     1 <1>   0.0800 
 44 H        7.0670    -3.5330    -1.3190 H     1 <1>   0.0800 
 45 H        5.7390    -4.2740    -0.4790 H     1 <1>   0.0800 
 46 H        7.0900    -3.0070     1.1230 H     1 <1>   0.0800 
 47 H        6.9730    -1.5740     0.1380 H     1 <1>   0.0800 
@<TRIPOS>BOND
  1   1   2  2   
  2   1   3  2   
  3   1   4  am  
  4   1   5  1   
  5   4   6  1   
  6   4   7  1   
  7   5   8  ar  
  8   5   9  ar  
  9   6  10  1   
 10   6  24  1   
 11   6  25  1   
 12   7  26  1   
 13   7  27  1   
 14   7  28  1   
 15   8  11  1   
 16   8  12  ar  
 17   9  13  ar  
 18   9  29  1   
 19  10  14  2   
 20  10  15  am  
 21  11  16  1   
 22  12  17  ar  
 23  12  30  1   
 24  13  17  ar  
 25  13  18  1   
 26  15  19  1   
 27  15  20  1   
 28  16  31  1   
 29  16  32  1   
 30  16  33  1   
 31  17  34  1   
 32  18  35  1   
 33  18  36  1   
 34  18  37  1   
 35  19  21  1   
 36  19  38  1   
 37  19  39  1   
 38  20  22  1   
 39  20  40  1   
 40  20  41  1   
 41  21  23  1   
 42  21  42  1   
 43  21  43  1   
 44  22  23  1   
 45  22  44  1   
 46  22  45  1   
 47  23  46  1   
 48  23  47  1   
@<TRIPOS>SUBSTRUCTURE
  1 ****   4 GROUP 4 **** **** 0

# MOE 2024.06 (io_trps.svl 2023.06)
