@<TRIPOS>MOLECULE
4-(4-Fluoro-benzenesulfonyl)-piperazine-1-carboxylic acid dimethylamide
39 40 1 0 0 
SMALL
USER_CHARGES


@<TRIPOS>ATOM
  1 S       -0.0580    -0.2680    -1.5340 S.o2  1 <1>   1.4470 
  2 O       -0.5040     0.9010    -2.2600 O.2   1 <1>  -0.6500 
  3 O        0.2720    -1.4750    -2.2600 O.2   1 <1>  -0.6500 
  4 N       -1.2930    -0.6760    -0.4470 N.am  1 <1>  -0.8490 
  5 C        1.3270     0.1630    -0.4400 C.ar  1 <1>  -0.0090 
  6 C       -2.4030    -1.3540    -1.1410 C.3   1 <1>   0.1960 
  7 C       -1.8140     0.5000     0.2780 C.3   1 <1>   0.1960 
  8 C        1.8410     1.4590    -0.4040 C.ar  1 <1>  -0.1500 
  9 C        1.8950    -0.7970     0.3950 C.ar  1 <1>  -0.1500 
 10 C       -3.5100    -1.7990    -0.1680 C.3   1 <1>   0.1400 
 11 C       -2.8740     0.0930     1.3150 C.3   1 <1>   0.1400 
 12 C        2.8890     1.7930     0.4380 C.ar  1 <1>  -0.1500 
 13 C        2.9450    -0.4840     1.2440 C.ar  1 <1>  -0.1500 
 14 N       -3.9870    -0.6530     0.6610 N.am  1 <1>  -0.6600 
 15 C        3.4220     0.8120     1.2490 C.ar  1 <1>   0.1900 
 16 C       -5.1560    -0.0080     0.3480 C.2   1 <1>   0.6900 
 17 F        4.4090     1.1180     2.0460 F     1 <1>  -0.1900 
 18 O       -5.1610     1.2080     0.2640 O.2   1 <1>  -0.5700 
 19 N       -6.3100    -0.7190     0.1160 N.am  1 <1>  -0.6600 
 20 C       -7.4730    -0.0790    -0.5550 C.3   1 <1>   0.0600 
 21 C       -6.6210    -1.9930     0.8190 C.3   1 <1>   0.0600 
 22 H       -2.0310    -2.2260    -1.6520 H     1 <1>   0.0800 
 23 H       -2.8280    -0.6950    -1.8810 H     1 <1>   0.0800 
 24 H       -2.2560     1.2020    -0.4120 H     1 <1>   0.0800 
 25 H       -1.0090     0.9990     0.7900 H     1 <1>   0.0800 
 26 H        1.4150     2.2150    -1.0450 H     1 <1>   0.1500 
 27 H        1.5080    -1.8030     0.3750 H     1 <1>   0.1500 
 28 H       -3.1290    -2.5690     0.4790 H     1 <1>   0.0800 
 29 H       -4.3250    -2.2110    -0.7360 H     1 <1>   0.0800 
 30 H       -3.2560     0.9730     1.8030 H     1 <1>   0.0800 
 31 H       -2.4210    -0.5300     2.0650 H     1 <1>   0.0800 
 32 H        3.2870     2.7920     0.4670 H     1 <1>   0.1500 
 33 H        3.3850    -1.2240     1.8870 H     1 <1>   0.1500 
 34 H       -7.1460     0.7520    -1.1570 H     1 <1>   0.0800 
 35 H       -8.1650     0.2820     0.1850 H     1 <1>   0.0800 
 36 H       -7.9670    -0.7910    -1.1920 H     1 <1>   0.0800 
 37 H       -5.8380    -2.2460     1.5120 H     1 <1>   0.0800 
 38 H       -6.7270    -2.7860     0.1010 H     1 <1>   0.0800 
 39 H       -7.5400    -1.8890     1.3700 H     1 <1>   0.0800 
@<TRIPOS>BOND
  1   1   2  2   
  2   1   3  2   
  3   1   4  am  
  4   1   5  1   
  5   4   6  1   
  6   4   7  1   
  7   5   8  ar  
  8   5   9  ar  
  9   6  10  1   
 10   6  22  1   
 11   6  23  1   
 12   7  11  1   
 13   7  24  1   
 14   7  25  1   
 15   8  12  ar  
 16   8  26  1   
 17   9  13  ar  
 18   9  27  1   
 19  10  14  1   
 20  10  28  1   
 21  10  29  1   
 22  11  14  1   
 23  11  30  1   
 24  11  31  1   
 25  12  15  ar  
 26  12  32  1   
 27  13  15  ar  
 28  13  33  1   
 29  14  16  am  
 30  15  17  1   
 31  16  18  2   
 32  16  19  am  
 33  19  20  1   
 34  19  21  1   
 35  20  34  1   
 36  20  35  1   
 37  20  36  1   
 38  21  37  1   
 39  21  38  1   
 40  21  39  1   
@<TRIPOS>SUBSTRUCTURE
  1 ****   4 GROUP 4 **** **** 0

# MOE 2024.06 (io_trps.svl 2023.06)
