@<TRIPOS>MOLECULE
1-Methyl-2-[1,2,4]triazol-1-yl-ethylamine
20 20 1 0 0 
SMALL
USER_CHARGES


@<TRIPOS>ATOM
  1 N        2.3320    -0.0800     0.2790 N.2   1 <1>  -0.7070 
  2 N        1.4810    -0.6450    -0.5760 N.pl3 1 <1>   0.3140 
  3 C        1.7760     1.0710     0.5010 C.2   1 <1>   0.3660 
  4 C        0.4750     0.2040    -0.8010 C.2   1 <1>   0.0360 
  5 C        1.6860    -1.9940    -1.1460 C.3   1 <1>   0.0960 
  6 N        0.6240     1.2920    -0.1390 N.2   1 <1>  -0.5650 
  7 C        2.2090    -2.9840    -0.0840 C.3   1 <1>   0.4230 
  8 N        3.5150    -2.5730     0.4770 N.4   1 <1>  -0.8530 
  9 C        2.3830    -4.3830    -0.6660 C.3   1 <1>  -0.2400 
 10 H        2.1900     1.8240     1.1560 H     1 <1>   0.1500 
 11 H       -0.3500    -0.0060    -1.4590 H     1 <1>   0.1500 
 12 H        2.3750    -1.9200    -1.9670 H     1 <1>   0.0800 
 13 H        0.7440    -2.3440    -1.5280 H     1 <1>   0.0800 
 14 H        1.4820    -3.0300     0.7130 H     1 <1>   0.0800 
 15 H        4.2820    -2.6700    -0.1940 H     1 <1>   0.4500 
 16 H        3.7460    -3.0830     1.3340 H     1 <1>   0.4500 
 17 H        3.4400    -1.5620     0.7150 H     1 <1>   0.4500 
 18 H        3.0900    -4.3870    -1.4770 H     1 <1>   0.0800 
 19 H        1.4400    -4.7400    -1.0450 H     1 <1>   0.0800 
 20 H        2.7070    -5.0740     0.0930 H     1 <1>   0.0800 
@<TRIPOS>BOND
  1   1   2  1   
  2   1   3  2   
  3   2   4  1   
  4   2   5  1   
  5   3   6  1   
  6   3  10  1   
  7   4   6  2   
  8   4  11  1   
  9   5   7  1   
 10   5  12  1   
 11   5  13  1   
 12   7   8  1   
 13   7   9  1   
 14   7  14  1   
 15   8  15  1   
 16   8  16  1   
 17   8  17  1   
 18   9  18  1   
 19   9  19  1   
 20   9  20  1   
@<TRIPOS>SUBSTRUCTURE
  1 ****   2 GROUP 4 **** **** 0

# MOE 2024.06 (io_trps.svl 2023.06)
