@<TRIPOS>MOLECULE
1-Isopropyl-piperidine-4-carboxylic acid
29 29 1 0 0 
SMALL
USER_CHARGES


@<TRIPOS>ATOM
  1 O       -0.6080     1.3200     0.2920 O.co2 1 <1>  -0.9000 
  2 C       -1.5140     0.8420    -0.3900 C.2   1 <1>   0.9060 
  3 O       -1.5670     0.9210    -1.6210 O.co2 1 <1>  -0.9000 
  4 C       -2.6390     0.1090     0.3200 C.3   1 <1>  -0.1860 
  5 C       -2.6940    -1.3630    -0.1270 C.3   1 <1>  -0.1600 
  6 C       -3.9870     0.8080     0.0680 C.3   1 <1>  -0.1600 
  7 C       -3.9160    -2.0830     0.4270 C.3   1 <1>   0.3430 
  8 C       -5.1590     0.0050     0.6140 C.3   1 <1>   0.3430 
  9 N       -5.1550    -1.3600     0.0030 N.4   1 <1>  -0.9590 
 10 C       -6.4070    -2.1270     0.2470 C.3   1 <1>   0.4230 
 11 C       -6.3430    -3.4760    -0.4720 C.3   1 <1>  -0.2400 
 12 C       -7.6120    -1.3450    -0.2810 C.3   1 <1>  -0.2400 
 13 H       -2.4230     0.1430     1.3730 H     1 <1>   0.0800 
 14 H       -1.8000    -1.8610     0.2050 H     1 <1>   0.0800 
 15 H       -2.7050    -1.4160    -1.2020 H     1 <1>   0.0800 
 16 H       -4.1220     0.9650    -0.9890 H     1 <1>   0.0800 
 17 H       -3.9670     1.7800     0.5310 H     1 <1>   0.0800 
 18 H       -3.8600    -2.1190     1.5030 H     1 <1>   0.0800 
 19 H       -3.9140    -3.0900     0.0480 H     1 <1>   0.0800 
 20 H       -6.0680     0.5290     0.3720 H     1 <1>   0.0800 
 21 H       -5.0800    -0.0700     1.6860 H     1 <1>   0.0800 
 22 H       -5.0610    -1.2140    -1.0100 H     1 <1>   0.4500 
 23 H       -6.5310    -2.2950     1.3060 H     1 <1>   0.0800 
 24 H       -6.1090    -3.3480    -1.5140 H     1 <1>   0.0800 
 25 H       -7.2960    -3.9700    -0.4030 H     1 <1>   0.0800 
 26 H       -5.6260    -4.1320    -0.0150 H     1 <1>   0.0800 
 27 H       -7.4690    -1.0630    -1.3100 H     1 <1>   0.0800 
 28 H       -7.8050    -0.4710     0.3120 H     1 <1>   0.0800 
 29 H       -8.4950    -1.9560    -0.2230 H     1 <1>   0.0800 
@<TRIPOS>BOND
  1   1   2  ar  
  2   2   3  ar  
  3   2   4  1   
  4   4   5  1   
  5   4   6  1   
  6   4  13  1   
  7   5   7  1   
  8   5  14  1   
  9   5  15  1   
 10   6   8  1   
 11   6  16  1   
 12   6  17  1   
 13   7   9  1   
 14   7  18  1   
 15   7  19  1   
 16   8   9  1   
 17   8  20  1   
 18   8  21  1   
 19   9  10  1   
 20   9  22  1   
 21  10  11  1   
 22  10  12  1   
 23  10  23  1   
 24  11  24  1   
 25  11  25  1   
 26  11  26  1   
 27  12  27  1   
 28  12  28  1   
 29  12  29  1   
@<TRIPOS>SUBSTRUCTURE
  1 ****   9 GROUP 4 **** **** 0

# MOE 2024.06 (io_trps.svl 2023.06)
