@<TRIPOS>MOLECULE
2-(4-Methyl-4H-[1,2,4]triazol-3-ylsulfanyl)-acetamide
19 19 1 0 0 
SMALL
USER_CHARGES


@<TRIPOS>ATOM
  1 S        0.0710    -0.2270    -0.3970 S.3   1 <1>  -0.2860 
  2 C       -1.4450     0.5710     0.1390 C.2   1 <1>   0.2420 
  3 C        1.3780     0.9780     0.1550 C.3   1 <1>   0.1310 
  4 N       -1.4850     1.7200     0.7140 N.2   1 <1>  -0.3380 
  5 N       -2.6440     0.0160    -0.0280 N.pl3 1 <1>   0.0480 
  6 C        2.7720     0.5180    -0.2470 C.2   1 <1>   0.5690 
  7 N       -2.7800     1.9620     0.9510 N.2   1 <1>  -0.3380 
  8 C       -3.4430     0.9460     0.5060 C.2   1 <1>   0.0360 
  9 C       -2.9970    -1.2790    -0.6370 C.3   1 <1>   0.0160 
 10 O        3.7280     0.9450     0.3470 O.2   1 <1>  -0.5700 
 11 N        2.9510    -0.3510    -1.2630 N.am  1 <1>  -0.8000 
 12 H        1.3040     1.0590     1.2230 H     1 <1>   0.0800 
 13 H        1.1520     1.9250    -0.2970 H     1 <1>   0.0800 
 14 H       -4.5120     0.8460     0.5540 H     1 <1>   0.1500 
 15 H       -2.5010    -2.0690    -0.1030 H     1 <1>   0.0800 
 16 H       -2.6790    -1.2870    -1.6640 H     1 <1>   0.0800 
 17 H       -4.0600    -1.4260    -0.5900 H     1 <1>   0.0800 
 18 H        3.8930    -0.6540    -1.5100 H     1 <1>   0.3700 
 19 H        2.1740    -0.7800    -1.7670 H     1 <1>   0.3700 
@<TRIPOS>BOND
  1   1   2  1   
  2   1   3  1   
  3   2   4  2   
  4   2   5  1   
  5   3   6  1   
  6   3  12  1   
  7   3  13  1   
  8   4   7  1   
  9   5   8  1   
 10   5   9  1   
 11   6  10  2   
 12   6  11  am  
 13   7   8  2   
 14   8  14  1   
 15   9  15  1   
 16   9  16  1   
 17   9  17  1   
 18  11  18  1   
 19  11  19  1   
@<TRIPOS>SUBSTRUCTURE
  1 ****   1 GROUP 4 **** **** 0

# MOE 2024.06 (io_trps.svl 2023.06)
