@<TRIPOS>MOLECULE
11-Piperazin-1-yl-7,8,9,10-tetrahydro-benzo[4,5]imidazo[1,2-b]isoquinoline-6-car
48 52 1 0 0 
SMALL
USER_CHARGES


@<TRIPOS>ATOM
  1 N       -0.7100     0.3660    -0.7750 N.1   1 <1>  -0.5570 
  2 C       -1.2320     1.3730    -0.6820 C.1   1 <1>   0.4920 
  3 C       -1.9900     2.5680    -0.5340 C.2   1 <1>   0.0740 
  4 C       -1.4940     3.8500    -0.7390 C.2   1 <1>  -0.1380 
  5 C       -3.3200     2.4130    -0.1540 C.cat 1 <1>   0.7910 
  6 C       -2.3440     4.9410    -0.5260 C.2   1 <1>  -0.1380 
  7 C       -0.0300     4.0220    -1.1670 C.3   1 <1>  -0.0220 
  8 N       -4.0000     1.2660     0.0860 N.pl3 1 <1>  -0.7000 
  9 N       -4.1520     3.4780     0.0200 N.pl3 1 <1>  -0.6290 
 10 C       -3.6740     4.7490    -0.1320 C.2   1 <1>   0.4790 
 11 C       -1.8190     6.3680    -0.7340 C.3   1 <1>  -0.0220 
 12 C        0.2900     5.4230    -1.6880 C.3   1 <1>  -0.1600 
 13 C       -5.3020     1.5740     0.3820 C.ar  1 <1>   0.3090 
 14 C       -5.4220     2.9530     0.3300 C.ar  1 <1>   0.3090 
 15 N       -4.5300     5.7770     0.1310 N.pl3 1 <1>  -0.8380 
 16 C       -0.2930     6.4730    -0.7480 C.3   1 <1>  -0.1600 
 17 C       -6.3830     0.7520     0.6800 C.ar  1 <1>  -0.1090 
 18 C       -6.6700     3.5310     0.5560 C.ar  1 <1>  -0.1090 
 19 C       -4.7190     6.2830     1.5340 C.3   1 <1>   0.2090 
 20 C       -5.1960     6.5460    -0.9730 C.3   1 <1>   0.2090 
 21 C       -7.6100     1.3380     0.9160 C.ar  1 <1>  -0.1500 
 22 C       -7.7530     2.7230     0.8510 C.ar  1 <1>  -0.1500 
 23 C       -4.5510     7.8170     1.6330 C.3   1 <1>   0.3430 
 24 C       -5.0160     8.0750    -0.8140 C.3   1 <1>   0.3430 
 25 N       -5.3320     8.5530     0.5770 N.4   1 <1>  -0.9060 
 26 H        0.2280     3.3150    -1.9380 H     1 <1>   0.0800 
 27 H        0.6020     3.8210    -0.3180 H     1 <1>   0.0800 
 28 H       -3.6180     0.3150     0.0280 H     1 <1>   0.4500 
 29 H       -2.1810     7.0160     0.0420 H     1 <1>   0.0800 
 30 H       -2.1910     6.7310    -1.6760 H     1 <1>   0.0800 
 31 H       -0.1220     5.5480    -2.6760 H     1 <1>   0.0800 
 32 H        1.3580     5.5450    -1.7590 H     1 <1>   0.0800 
 33 H        0.0950     6.3230     0.2460 H     1 <1>   0.0800 
 34 H        0.0020     7.4560    -1.0740 H     1 <1>   0.0800 
 35 H       -6.2610    -0.3170     0.7210 H     1 <1>   0.1500 
 36 H       -6.8010     4.5900     0.4990 H     1 <1>   0.1500 
 37 H       -4.0080     5.8080     2.1890 H     1 <1>   0.0800 
 38 H       -5.7010     6.0150     1.8830 H     1 <1>   0.0800 
 39 H       -6.2470     6.3150    -0.9840 H     1 <1>   0.0800 
 40 H       -4.7920     6.2390    -1.9240 H     1 <1>   0.0800 
 41 H       -8.4680     0.7270     1.1500 H     1 <1>   0.1500 
 42 H       -8.7240     3.1570     1.0320 H     1 <1>   0.1500 
 43 H       -3.5040     8.0500     1.5300 H     1 <1>   0.0800 
 44 H       -4.8600     8.1430     2.6140 H     1 <1>   0.0800 
 45 H       -5.6450     8.5810    -1.5290 H     1 <1>   0.0800 
 46 H       -3.9940     8.3210    -1.0520 H     1 <1>   0.0800 
 47 H       -5.1390     9.5630     0.6480 H     1 <1>   0.4500 
 48 H       -6.3390     8.4410     0.7570 H     1 <1>   0.4500 
@<TRIPOS>BOND
  1   1   2  3   
  2   2   3  1   
  3   3   4  2   
  4   3   5  1   
  5   4   6  1   
  6   4   7  1   
  7   5   8  ar  
  8   5   9  ar  
  9   6  10  2   
 10   6  11  1   
 11   7  12  1   
 12   7  26  1   
 13   7  27  1   
 14   8  13  1   
 15   8  28  1   
 16   9  10  1   
 17   9  14  1   
 18  10  15  1   
 19  11  16  1   
 20  11  29  1   
 21  11  30  1   
 22  12  16  1   
 23  12  31  1   
 24  12  32  1   
 25  13  14  ar  
 26  13  17  ar  
 27  14  18  ar  
 28  15  19  1   
 29  15  20  1   
 30  16  33  1   
 31  16  34  1   
 32  17  21  ar  
 33  17  35  1   
 34  18  22  ar  
 35  18  36  1   
 36  19  23  1   
 37  19  37  1   
 38  19  38  1   
 39  20  24  1   
 40  20  39  1   
 41  20  40  1   
 42  21  22  ar  
 43  21  41  1   
 44  22  42  1   
 45  23  25  1   
 46  23  43  1   
 47  23  44  1   
 48  24  25  1   
 49  24  45  1   
 50  24  46  1   
 51  25  47  1   
 52  25  48  1   
@<TRIPOS>SUBSTRUCTURE
  1 ****  10 GROUP 4 **** **** 0

# MOE 2024.06 (io_trps.svl 2023.06)
