@<TRIPOS>MOLECULE
1-Cyclopropyl-4-hydroxy-2-oxo-1,2,5,6,7,8-hexahydro-quinoline-3-carboxylic acid
43 46 1 0 0 
SMALL
USER_CHARGES


@<TRIPOS>ATOM
  1 O       -0.3910     0.5990     1.0810 O.3   1 <1>  -0.8500 
  2 C       -1.3810     1.1190     0.5600 C.2   1 <1>  -0.0500 
  3 N       -2.5120     0.3250     0.3600 N.pl3 1 <1>  -0.3690 
  4 C       -1.3910     2.4920     0.1960 C.2   1 <1>   0.0290 
  5 C       -3.7500     0.9290     0.1410 C.2   1 <1>  -0.0380 
  6 C       -2.3650    -1.1570     0.4870 C.3   1 <1>   0.0690 
  7 C       -2.6090     3.0300    -0.2700 C.2   1 <1>   0.5410 
  8 C       -0.2200     3.2910     0.2930 C.2   1 <1>   0.6160 
  9 C       -3.8090     2.2540    -0.1530 C.2   1 <1>  -0.1240 
 10 C       -5.0160     0.0770     0.2920 C.3   1 <1>  -0.0220 
 11 C       -1.2770    -1.8570    -0.2750 C.3   1 <1>  -0.2000 
 12 C       -2.6960    -2.0440    -0.6810 C.3   1 <1>  -0.2000 
 13 O       -2.7000     4.1480    -0.8070 O.2   1 <1>  -0.5700 
 14 O       -0.2440     4.5200     0.3830 O.2   1 <1>  -0.5700 
 15 N        1.0210     2.6970     0.3080 N.am  1 <1>  -0.5470 
 16 C       -5.1360     2.9870    -0.3640 C.3   1 <1>  -0.0220 
 17 C       -6.2880     0.7670    -0.2150 C.3   1 <1>  -0.1600 
 18 C        2.3560     3.0690     0.2100 C.ar  1 <1>   0.4270 
 19 C       -6.3280     2.2290     0.2260 C.3   1 <1>  -0.1600 
 20 N        3.1850     2.0470     0.3990 N.ar  1 <1>  -0.6200 
 21 C        2.8310     4.3690    -0.0830 C.ar  1 <1>   0.0820 
 22 C        4.4790     2.2970     0.3010 C.ar  1 <1>   0.1600 
 23 O        2.0210     5.4320    -0.2720 O.3   1 <1>  -0.5330 
 24 C        4.1830     4.6050    -0.1840 C.ar  1 <1>  -0.1500 
 25 C        5.0260     3.5330     0.0150 C.ar  1 <1>  -0.1500 
 26 H       -2.5210    -1.4850     1.4980 H     1 <1>   0.1000 
 27 H       -5.1270    -0.1590     1.3350 H     1 <1>   0.0800 
 28 H       -4.9250    -0.8460    -0.2450 H     1 <1>   0.0800 
 29 H       -0.7520    -2.6410     0.2370 H     1 <1>   0.1000 
 30 H       -0.6170    -1.2260    -0.8450 H     1 <1>   0.1000 
 31 H       -3.0180    -1.5870    -1.5990 H     1 <1>   0.1000 
 32 H       -3.1580    -2.9960    -0.4950 H     1 <1>   0.1000 
 33 H        0.8810     1.6930     0.5500 H     1 <1>   0.3700 
 34 H       -5.2790     3.1320    -1.4210 H     1 <1>   0.0800 
 35 H       -5.0890     3.9590     0.0970 H     1 <1>   0.0800 
 36 H       -7.1530     0.2450     0.1550 H     1 <1>   0.0800 
 37 H       -6.3070     0.7230    -1.2910 H     1 <1>   0.0800 
 38 H       -7.2450     2.6900    -0.0970 H     1 <1>   0.0800 
 39 H       -6.2850     2.2800     1.3010 H     1 <1>   0.0800 
 40 H        5.1400     1.4620     0.4580 H     1 <1>   0.1500 
 41 H        1.0710     5.1860    -0.0570 H     1 <1>   0.4500 
 42 H        4.5520     5.5890    -0.4090 H     1 <1>   0.1500 
 43 H        6.0910     3.6560    -0.0490 H     1 <1>   0.1500 
@<TRIPOS>BOND
  1   1   2  1   
  2   2   3  1   
  3   2   4  2   
  4   3   5  1   
  5   3   6  1   
  6   4   7  1   
  7   4   8  1   
  8   5   9  2   
  9   5  10  1   
 10   6  11  1   
 11   6  12  1   
 12   6  26  1   
 13   7   9  1   
 14   7  13  2   
 15   8  14  2   
 16   8  15  am  
 17   9  16  1   
 18  10  17  1   
 19  10  27  1   
 20  10  28  1   
 21  11  12  1   
 22  11  29  1   
 23  11  30  1   
 24  12  31  1   
 25  12  32  1   
 26  15  18  1   
 27  15  33  1   
 28  16  19  1   
 29  16  34  1   
 30  16  35  1   
 31  17  19  1   
 32  17  36  1   
 33  17  37  1   
 34  18  20  ar  
 35  18  21  ar  
 36  19  38  1   
 37  19  39  1   
 38  20  22  ar  
 39  21  23  1   
 40  21  24  ar  
 41  22  25  ar  
 42  22  40  1   
 43  23  41  1   
 44  24  25  ar  
 45  24  42  1   
 46  25  43  1   
@<TRIPOS>SUBSTRUCTURE
  1 ****   4 GROUP 4 **** **** 0

# MOE 2024.06 (io_trps.svl 2023.06)
