@<TRIPOS>MOLECULE
N-{1-[3-(3,4-Dimethoxy-phenyl)-[1,2,4]oxadiazol-5-yl]-ethyl}-2,2-dimethyl-propio
47 48 1 0 0 
SMALL
USER_CHARGES


@<TRIPOS>ATOM
  1 O       -1.0680    -1.4440    -0.1180 O.2   1 <1>  -0.5700 
  2 C       -2.1520    -0.9340    -0.2630 C.2   1 <1>   0.5690 
  3 N       -3.0860    -1.7170    -0.8600 N.am  1 <1>  -0.7300 
  4 C       -2.3230     0.5480     0.2000 C.3   1 <1>   0.0610 
  5 C       -4.5170    -1.5780    -1.2080 C.3   1 <1>   0.4000 
  6 C       -3.7620     0.9830     0.5440 C.3   1 <1>  -0.2400 
  7 C       -1.7920     1.4840    -0.9010 C.3   1 <1>  -0.2400 
  8 C       -1.4820     0.8000     1.4720 C.3   1 <1>  -0.2400 
  9 C       -5.2100    -2.9410    -1.1880 C.2   1 <1>   0.2980 
 10 C       -4.6210    -0.9290    -2.5890 C.3   1 <1>  -0.2400 
 11 O       -4.7250    -3.9020    -1.9320 O.3   1 <1>  -0.0190 
 12 N       -6.2360    -3.2480    -0.5060 N.2   1 <1>  -0.5650 
 13 N       -5.5100    -4.9060    -1.7020 N.2   1 <1>  -0.4100 
 14 C       -6.4040    -4.5280    -0.8580 C.2   1 <1>   0.4620 
 15 C       -7.4770    -5.3520    -0.3290 C.ar  1 <1>   0.0540 
 16 C       -7.6480    -6.6730    -0.7410 C.ar  1 <1>  -0.1500 
 17 C       -8.3830    -4.8650     0.6140 C.ar  1 <1>  -0.1500 
 18 C       -8.6580    -7.4790    -0.2490 C.ar  1 <1>   0.0820 
 19 C       -9.4070    -5.6480     1.1130 C.ar  1 <1>  -0.1500 
 20 O       -8.6770    -8.7480    -0.7450 O.3   1 <1>  -0.3630 
 21 C       -9.5690    -6.9640     0.6860 C.ar  1 <1>   0.0820 
 22 C       -9.0170    -9.8370     0.0840 C.3   1 <1>   0.0400 
 23 O      -10.5940    -7.7400     1.1410 O.3   1 <1>  -0.3630 
 24 C      -11.6380    -7.2170     1.9330 C.3   1 <1>   0.0400 
 25 H       -2.7170    -2.6400    -1.0990 H     1 <1>   0.3700 
 26 H       -5.0200    -0.9710    -0.4820 H     1 <1>   0.0800 
 27 H       -3.7610     1.9560     1.0050 H     1 <1>   0.0800 
 28 H       -4.3670     1.0580    -0.3390 H     1 <1>   0.0800 
 29 H       -4.2070     0.2890     1.2360 H     1 <1>   0.0800 
 30 H       -2.3550     1.3600    -1.8080 H     1 <1>   0.0800 
 31 H       -0.7620     1.2550    -1.1140 H     1 <1>   0.0800 
 32 H       -1.8560     2.5130    -0.5950 H     1 <1>   0.0800 
 33 H       -1.8070     0.1510     2.2660 H     1 <1>   0.0800 
 34 H       -1.5690     1.8190     1.8040 H     1 <1>   0.0800 
 35 H       -0.4410     0.6010     1.2850 H     1 <1>   0.0800 
 36 H       -4.1210    -1.5320    -3.3270 H     1 <1>   0.0800 
 37 H       -4.1840     0.0510    -2.5790 H     1 <1>   0.0800 
 38 H       -5.6550    -0.8370    -2.8680 H     1 <1>   0.0800 
 39 H       -6.9730    -7.0920    -1.4660 H     1 <1>   0.1500 
 40 H       -8.2840    -3.8520     0.9640 H     1 <1>   0.1500 
 41 H      -10.0690    -5.2100     1.8340 H     1 <1>   0.1500 
 42 H       -8.5960   -10.7280    -0.3450 H     1 <1>   0.0800 
 43 H      -10.0870    -9.9230     0.1230 H     1 <1>   0.0800 
 44 H       -8.6110    -9.6730     1.0670 H     1 <1>   0.0800 
 45 H      -12.3560    -8.0000     2.0960 H     1 <1>   0.0800 
 46 H      -12.1000    -6.4010     1.4070 H     1 <1>   0.0800 
 47 H      -11.2330    -6.8920     2.8750 H     1 <1>   0.0800 
@<TRIPOS>BOND
  1   1   2  2   
  2   2   3  am  
  3   2   4  1   
  4   3   5  1   
  5   3  25  1   
  6   4   6  1   
  7   4   7  1   
  8   4   8  1   
  9   5   9  1   
 10   5  10  1   
 11   5  26  1   
 12   6  27  1   
 13   6  28  1   
 14   6  29  1   
 15   7  30  1   
 16   7  31  1   
 17   7  32  1   
 18   8  33  1   
 19   8  34  1   
 20   8  35  1   
 21   9  11  1   
 22   9  12  2   
 23  10  36  1   
 24  10  37  1   
 25  10  38  1   
 26  11  13  1   
 27  12  14  1   
 28  13  14  2   
 29  14  15  1   
 30  15  16  ar  
 31  15  17  ar  
 32  16  18  ar  
 33  16  39  1   
 34  17  19  ar  
 35  17  40  1   
 36  18  20  1   
 37  18  21  ar  
 38  19  21  ar  
 39  19  41  1   
 40  20  22  1   
 41  21  23  1   
 42  22  42  1   
 43  22  43  1   
 44  22  44  1   
 45  23  24  1   
 46  24  45  1   
 47  24  46  1   
 48  24  47  1   
@<TRIPOS>SUBSTRUCTURE
  1 ****  12 GROUP 4 **** **** 0

# MOE 2024.06 (io_trps.svl 2023.06)
