@<TRIPOS>MOLECULE
(1-Methyl-2,4-dioxo-8-o-tolyl-1,4,5,6,7,8-hexahydro-2H-1,3,4b,8,9-pentaaza-fluor
53 56 1 0 0 
SMALL
USER_CHARGES


@<TRIPOS>ATOM
  1 O        1.2310     0.7900    -2.0380 O.2   1 <1>  -0.5740 
  2 C        2.1320     1.4300    -1.5360 C.2   1 <1>   0.6860 
  3 N        1.9580     2.7840    -1.2860 N.am  1 <1>  -0.4250 
  4 N        3.3300     0.8070    -1.2110 N.am  1 <1>  -0.4410 
  5 C        2.9580     3.5420    -0.7000 C.2   1 <1>   0.6990 
  6 C        0.5600     3.3350    -1.2810 C.3   1 <1>   0.1940 
  7 C        4.3020     1.5600    -0.5790 C.2   1 <1>   0.4210 
  8 C        3.5250    -0.6510    -1.4610 C.3   1 <1>   0.0530 
  9 O        2.8080     4.7410    -0.5300 O.2   1 <1>  -0.5740 
 10 C        4.1660     2.8790    -0.3160 C.2   1 <1>   0.2710 
 11 C       -0.1090     3.1500     0.0770 C.2   1 <1>   0.6550 
 12 N        5.5200     1.1500    -0.1250 N.pl3 1 <1>  -0.7040 
 13 N        5.3510     3.2730     0.3220 N.pl3 1 <1>  -0.7670 
 14 O        0.5010     2.7390     1.0360 O.2   1 <1>  -0.5740 
 15 O       -1.3930     3.4730     0.1360 O.3   1 <1>  -0.4350 
 16 C        6.1300     2.2030     0.4130 C.cat 1 <1>   1.0690 
 17 C        5.6920     4.6090     0.8480 C.3   1 <1>   0.3480 
 18 C       -2.1350     3.3460     1.3270 C.3   1 <1>   0.1130 
 19 N        7.3500     2.2250     0.9770 N.pl3 1 <1>  -0.5800 
 20 C        6.7610     4.4470     1.9340 C.3   1 <1>  -0.1670 
 21 C       -3.5620     3.8040     1.0460 C.3   1 <1>  -0.2460 
 22 C        8.1690     1.0920     1.0410 C.ar  1 <1>   0.3050 
 23 C        7.8980     3.5050     1.5040 C.3   1 <1>   0.1610 
 24 C        8.9010     0.6570    -0.0670 C.ar  1 <1>  -0.1510 
 25 C        8.2250     0.3690     2.2260 C.ar  1 <1>  -0.1570 
 26 C        9.6590    -0.4980     0.0330 C.ar  1 <1>  -0.1570 
 27 C        8.9040     1.4200    -1.3890 C.3   1 <1>  -0.1040 
 28 C        8.9850    -0.7800     2.3160 C.ar  1 <1>  -0.1570 
 29 C        9.7000    -1.2150     1.2160 C.ar  1 <1>  -0.1570 
 30 H       -0.0360     2.8450    -2.0300 H     1 <1>   0.0730 
 31 H        0.5760     4.3830    -1.5180 H     1 <1>   0.0730 
 32 H        2.8880    -0.9850    -2.2630 H     1 <1>   0.0730 
 33 H        3.2770    -1.2070    -0.5730 H     1 <1>   0.0730 
 34 H        4.5440    -0.8530    -1.7390 H     1 <1>   0.0730 
 35 H        5.9250     0.2170    -0.1550 H     1 <1>   0.4450 
 36 H        4.8150     5.0820     1.2600 H     1 <1>   0.0730 
 37 H        6.0660     5.2220     0.0440 H     1 <1>   0.0730 
 38 H       -1.6750     3.9590     2.0840 H     1 <1>   0.0730 
 39 H       -2.1150     2.3140     1.6340 H     1 <1>   0.0730 
 40 H        6.3020     4.0630     2.8290 H     1 <1>   0.0730 
 41 H        7.1680     5.4120     2.1790 H     1 <1>   0.0730 
 42 H       -3.5680     4.8320     0.7310 H     1 <1>   0.0730 
 43 H       -4.1520     3.7170     1.9400 H     1 <1>   0.0730 
 44 H       -4.0060     3.1900     0.2830 H     1 <1>   0.0730 
 45 H        8.4900     3.9740     0.7350 H     1 <1>   0.0730 
 46 H        8.5410     3.3080     2.3460 H     1 <1>   0.0730 
 47 H        7.6710     0.7050     3.0850 H     1 <1>   0.1430 
 48 H       10.2330    -0.8530    -0.8080 H     1 <1>   0.1430 
 49 H        7.9620     1.3040    -1.8930 H     1 <1>   0.0730 
 50 H        9.6790     1.0530    -2.0390 H     1 <1>   0.0730 
 51 H        9.0880     2.4660    -1.2200 H     1 <1>   0.0730 
 52 H        9.0280    -1.3380     3.2370 H     1 <1>   0.1430 
 53 H       10.2960    -2.1110     1.2810 H     1 <1>   0.1430 
@<TRIPOS>BOND
  1   1   2  2   
  2   2   3  am  
  3   2   4  am  
  4   3   5  am  
  5   3   6  1   
  6   4   7  1   
  7   4   8  1   
  8   5   9  2   
  9   5  10  1   
 10   6  11  1   
 11   6  30  1   
 12   6  31  1   
 13   7  10  2   
 14   7  12  1   
 15   8  32  1   
 16   8  33  1   
 17   8  34  1   
 18  10  13  1   
 19  11  14  2   
 20  11  15  1   
 21  12  16  ar  
 22  12  35  1   
 23  13  16  ar  
 24  13  17  1   
 25  15  18  1   
 26  16  19  ar  
 27  17  20  1   
 28  17  36  1   
 29  17  37  1   
 30  18  21  1   
 31  18  38  1   
 32  18  39  1   
 33  19  22  1   
 34  19  23  1   
 35  20  23  1   
 36  20  40  1   
 37  20  41  1   
 38  21  42  1   
 39  21  43  1   
 40  21  44  1   
 41  22  24  ar  
 42  22  25  ar  
 43  23  45  1   
 44  23  46  1   
 45  24  26  ar  
 46  24  27  1   
 47  25  28  ar  
 48  25  47  1   
 49  26  29  ar  
 50  26  48  1   
 51  27  49  1   
 52  27  50  1   
 53  27  51  1   
 54  28  29  ar  
 55  28  52  1   
 56  29  53  1   
@<TRIPOS>SUBSTRUCTURE
  1 ****   7 GROUP 4 **** **** 0

# MOE 2024.06 (io_trps.svl 2023.06)
