@<TRIPOS>MOLECULE
[2-(4-Chloro-phenyl)-ethyl]-(5,6,7,8-tetrahydro-[1,2,4]triazolo[5,1-b]quinazolin
42 45 1 0 0 
SMALL
USER_CHARGES


@<TRIPOS>ATOM
  1 CL       0.2960     0.7560     0.6620 Cl    1 <1>  -0.1770 
  2 C       -0.7620     2.1360     0.5100 C.ar  1 <1>   0.1770 
  3 C       -0.9270     2.7310    -0.7270 C.ar  1 <1>  -0.1500 
  4 C       -1.4190     2.6130     1.6270 C.ar  1 <1>  -0.1500 
  5 C       -1.7680     3.8240    -0.8450 C.ar  1 <1>  -0.1500 
  6 C       -2.2590     3.7070     1.5040 C.ar  1 <1>  -0.1500 
  7 C       -2.4370     4.3150     0.2680 C.ar  1 <1>  -0.1430 
  8 C       -3.3690     5.5080     0.1320 C.3   1 <1>  -0.0160 
  9 C       -4.7660     5.0280    -0.2590 C.3   1 <1>   0.2090 
 10 N       -5.6920     6.1840    -0.3630 N.pl3 1 <1>  -0.8690 
 11 C       -7.0230     6.2710    -0.0820 C.2   1 <1>   0.4790 
 12 N       -7.4570     7.5150     0.2640 N.pl3 1 <1>  -0.3220 
 13 C       -7.9820     5.2680    -0.1060 C.2   1 <1>  -0.1240 
 14 N       -6.7770     8.7100     0.3540 N.2   1 <1>  -0.2600 
 15 C       -8.7350     7.7020     0.6070 C.cat 1 <1>   0.9620 
 16 C       -9.2940     5.5880     0.2760 C.2   1 <1>   0.3750 
 17 C       -7.6340     3.8430    -0.5540 C.3   1 <1>  -0.0220 
 18 C       -7.6650     9.5520     0.7400 C.2   1 <1>   0.5030 
 19 N       -9.6830     6.7870     0.6380 N.2   1 <1>  -0.6120 
 20 N       -8.8840     8.9760     0.9090 N.pl3 1 <1>  -0.7000 
 21 C      -10.4080     4.5470     0.2800 C.3   1 <1>  -0.0990 
 22 C       -8.8560     3.0030    -0.9320 C.3   1 <1>  -0.1600 
 23 C       -9.9180     3.1010     0.1600 C.3   1 <1>  -0.1600 
 24 H       -0.4020     2.3410    -1.5800 H     1 <1>   0.1500 
 25 H       -1.2710     2.1330     2.5780 H     1 <1>   0.1500 
 26 H       -1.8950     4.2890    -1.8080 H     1 <1>   0.1500 
 27 H       -2.7680     4.0790     2.3760 H     1 <1>   0.1500 
 28 H       -2.9870     6.1750    -0.6210 H     1 <1>   0.0800 
 29 H       -3.4150     6.0370     1.0670 H     1 <1>   0.0800 
 30 H       -5.1170     4.3380     0.4890 H     1 <1>   0.0800 
 31 H       -4.7150     4.5180    -1.2070 H     1 <1>   0.0800 
 32 H       -5.2020     7.0820    -0.4520 H     1 <1>   0.4000 
 33 H       -7.1180     3.3440     0.2480 H     1 <1>   0.0800 
 34 H       -6.9790     3.8750    -1.4070 H     1 <1>   0.0800 
 35 H       -7.4830    10.6020     0.9160 H     1 <1>   0.1500 
 36 H       -9.7700     9.3810     1.2030 H     1 <1>   0.4500 
 37 H      -11.0640     4.7610    -0.5450 H     1 <1>   0.0800 
 38 H      -10.9870     4.6430     1.1830 H     1 <1>   0.0800 
 39 H       -8.5610     1.9750    -1.0620 H     1 <1>   0.0800 
 40 H       -9.2640     3.3490    -1.8680 H     1 <1>   0.0800 
 41 H      -10.7490     2.4560    -0.0740 H     1 <1>   0.0800 
 42 H       -9.5030     2.7750     1.1000 H     1 <1>   0.0800 
@<TRIPOS>BOND
  1   1   2  1   
  2   2   3  ar  
  3   2   4  ar  
  4   3   5  ar  
  5   3  24  1   
  6   4   6  ar  
  7   4  25  1   
  8   5   7  ar  
  9   5  26  1   
 10   6   7  ar  
 11   6  27  1   
 12   7   8  1   
 13   8   9  1   
 14   8  28  1   
 15   8  29  1   
 16   9  10  1   
 17   9  30  1   
 18   9  31  1   
 19  10  11  1   
 20  10  32  1   
 21  11  12  1   
 22  11  13  2   
 23  12  14  1   
 24  12  15  ar  
 25  13  16  1   
 26  13  17  1   
 27  14  18  2   
 28  15  19  1   
 29  15  20  ar  
 30  16  19  2   
 31  16  21  1   
 32  17  22  1   
 33  17  33  1   
 34  17  34  1   
 35  18  20  1   
 36  18  35  1   
 37  20  36  1   
 38  21  23  1   
 39  21  37  1   
 40  21  38  1   
 41  22  23  1   
 42  22  39  1   
 43  22  40  1   
 44  23  41  1   
 45  23  42  1   
@<TRIPOS>SUBSTRUCTURE
  1 ****   9 GROUP 4 **** **** 0

# MOE 2024.06 (io_trps.svl 2023.06)
