@<TRIPOS>MOLECULE
3,3-Dimethyl-1-(5H-[1,2,4]triazino[5,6-b]indol-3-ylsulfanyl)-butan-2-one
37 39 1 0 0 
SMALL
USER_CHARGES


@<TRIPOS>ATOM
  1 S        0.1840    -0.0870    -0.6770 S.3   1 <1>  -0.3320 
  2 C       -1.3710    -0.9260    -0.4180 C.ar  1 <1>   0.7220 
  3 C        1.4030    -1.4620    -0.9300 C.3   1 <1>   0.1310 
  4 N       -2.4320    -0.1100    -0.2170 N.ar  1 <1>  -0.3100 
  5 N       -1.3430    -2.2370    -0.4400 N.ar  1 <1>  -0.5670 
  6 C        2.7970    -0.9070    -1.1780 C.2   1 <1>   0.4480 
  7 N       -3.6140    -0.6210    -0.0160 N.ar  1 <1>  -0.2560 
  8 C       -2.5610    -2.7400    -0.2350 C.ar  1 <1>   0.1050 
  9 O        3.1630    -0.7280    -2.3040 O.2   1 <1>  -0.5700 
 10 C        3.7240    -0.6550     0.0400 C.3   1 <1>   0.0610 
 11 C       -3.6830    -1.9570    -0.0260 C.ar  1 <1>   0.2560 
 12 N       -2.9220    -4.0560    -0.1960 N.pl3 1 <1>   0.0330 
 13 C        4.9850     0.1250    -0.3850 C.3   1 <1>  -0.2400 
 14 C        4.1820    -1.9960     0.6410 C.3   1 <1>  -0.2400 
 15 C        3.0250     0.1660     1.1410 C.3   1 <1>  -0.2400 
 16 C       -4.7820    -2.8400     0.1520 C.ar  1 <1>   0.0000 
 17 C       -4.2790    -4.1340     0.0410 C.ar  1 <1>  -0.1520 
 18 C       -6.1430    -2.6470     0.3940 C.ar  1 <1>  -0.1500 
 19 C       -5.1150    -5.2420     0.1670 C.ar  1 <1>  -0.1500 
 20 C       -6.9700    -3.7420     0.5190 C.ar  1 <1>  -0.1500 
 21 C       -6.4570    -5.0370     0.4060 C.ar  1 <1>  -0.1500 
 22 H        1.0700    -2.0150    -1.7900 H     1 <1>   0.0800 
 23 H        1.3720    -2.0900    -0.0600 H     1 <1>   0.0800 
 24 H       -2.2810    -4.8420    -0.3280 H     1 <1>   0.2700 
 25 H        5.5360    -0.4270    -1.1260 H     1 <1>   0.0800 
 26 H        5.6320     0.3060     0.4540 H     1 <1>   0.0800 
 27 H        4.7090     1.0720    -0.8150 H     1 <1>   0.0800 
 28 H        3.3490    -2.5570     1.0230 H     1 <1>   0.0800 
 29 H        4.8730    -1.8320     1.4490 H     1 <1>   0.0800 
 30 H        4.6770    -2.5880    -0.1100 H     1 <1>   0.0800 
 31 H        2.1860    -0.3650     1.5520 H     1 <1>   0.0800 
 32 H        2.6740     1.1010     0.7410 H     1 <1>   0.0800 
 33 H        3.7070     0.3800     1.9450 H     1 <1>   0.0800 
 34 H       -6.5250    -1.6440     0.4790 H     1 <1>   0.1500 
 35 H       -4.7180    -6.2390     0.0800 H     1 <1>   0.1500 
 36 H       -8.0210    -3.6070     0.7060 H     1 <1>   0.1500 
 37 H       -7.1230    -5.8760     0.5080 H     1 <1>   0.1500 
@<TRIPOS>BOND
  1   1   2  1   
  2   1   3  1   
  3   2   4  ar  
  4   2   5  ar  
  5   3   6  1   
  6   3  22  1   
  7   3  23  1   
  8   4   7  ar  
  9   5   8  ar  
 10   6   9  2   
 11   6  10  1   
 12   7  11  ar  
 13   8  11  ar  
 14   8  12  1   
 15  10  13  1   
 16  10  14  1   
 17  10  15  1   
 18  11  16  1   
 19  12  17  1   
 20  12  24  1   
 21  13  25  1   
 22  13  26  1   
 23  13  27  1   
 24  14  28  1   
 25  14  29  1   
 26  14  30  1   
 27  15  31  1   
 28  15  32  1   
 29  15  33  1   
 30  16  17  ar  
 31  16  18  ar  
 32  17  19  ar  
 33  18  20  ar  
 34  18  34  1   
 35  19  21  ar  
 36  19  35  1   
 37  20  21  ar  
 38  20  36  1   
 39  21  37  1   
@<TRIPOS>SUBSTRUCTURE
  1 ****   5 GROUP 4 **** **** 0

# MOE 2024.06 (io_trps.svl 2023.06)
