@<TRIPOS>MOLECULE
4-Methyl-2-tetrazol-1-yl-pentanoic acid
24 24 1 0 0 
SMALL
USER_CHARGES


@<TRIPOS>ATOM
  1 O       -1.6100    -1.0580    -0.3820 O.co2 1 <1>  -0.9000 
  2 C       -2.1410     0.0470    -0.5210 C.2   1 <1>   0.9060 
  3 O       -2.6230     0.4120    -1.6010 O.co2 1 <1>  -0.9000 
  4 C       -2.2030     0.9760     0.6710 C.3   1 <1>   0.0700 
  5 N       -3.6060     1.1000     1.1130 N.pl3 1 <1>   0.3140 
  6 C       -1.5980     2.3780     0.4120 C.3   1 <1>  -0.1600 
  7 N       -3.9300     1.4010     2.3580 N.2   1 <1>  -0.4180 
  8 C       -4.7370     1.0050     0.4340 C.2   1 <1>   0.0360 
  9 C       -0.1320     2.3540    -0.0620 C.3   1 <1>  -0.0800 
 10 N       -5.2130     1.4700     2.3980 N.2   1 <1>   0.0000 
 11 N       -5.7360     1.2270     1.2020 N.2   1 <1>  -0.3380 
 12 C        0.7940     1.6770     0.9570 C.3   1 <1>  -0.2400 
 13 C        0.3490     3.7850    -0.3260 C.3   1 <1>  -0.2400 
 14 H       -1.6670     0.5000     1.4670 H     1 <1>   0.0800 
 15 H       -1.6680     2.9590     1.3150 H     1 <1>   0.0800 
 16 H       -2.1910     2.8620    -0.3470 H     1 <1>   0.0800 
 17 H       -4.7840     0.7760    -0.6160 H     1 <1>   0.1500 
 18 H       -0.0760     1.8060    -0.9910 H     1 <1>   0.0800 
 19 H        0.7050     2.1420     1.9220 H     1 <1>   0.0800 
 20 H        1.8170     1.7470     0.6320 H     1 <1>   0.0800 
 21 H        0.5540     0.6320     1.0490 H     1 <1>   0.0800 
 22 H        0.3170     4.3690     0.5760 H     1 <1>   0.0800 
 23 H       -0.2760     4.2550    -1.0650 H     1 <1>   0.0800 
 24 H        1.3590     3.7750    -0.6970 H     1 <1>   0.0800 
@<TRIPOS>BOND
  1   1   2  ar  
  2   2   3  ar  
  3   2   4  1   
  4   4   5  1   
  5   4   6  1   
  6   4  14  1   
  7   5   7  1   
  8   5   8  1   
  9   6   9  1   
 10   6  15  1   
 11   6  16  1   
 12   7  10  2   
 13   8  11  2   
 14   8  17  1   
 15   9  12  1   
 16   9  13  1   
 17   9  18  1   
 18  10  11  1   
 19  12  19  1   
 20  12  20  1   
 21  12  21  1   
 22  13  22  1   
 23  13  23  1   
 24  13  24  1   
@<TRIPOS>SUBSTRUCTURE
  1 ****   4 GROUP 4 **** **** 0

# MOE 2024.06 (io_trps.svl 2023.06)
