@<TRIPOS>MOLECULE
C-[1-(1-Phenyl-ethyl)-pyrrolidin-3-yl]-methylamine
37 38 1 0 0 
SMALL
USER_CHARGES


@<TRIPOS>ATOM
  1 N       -0.1890     0.0200    -0.3050 N.4   1 <1>  -0.9590 
  2 C       -1.3400    -0.7730     0.2200 C.3   1 <1>   0.5660 
  3 C        1.1240    -0.6860    -0.3270 C.3   1 <1>   0.3430 
  4 C        0.0000     1.3480     0.3330 C.3   1 <1>   0.3430 
  5 C       -2.6060     0.0100    -0.1020 C.ar  1 <1>  -0.1440 
  6 C       -1.1810    -1.1310     1.7010 C.3   1 <1>  -0.2400 
  7 C        2.1880     0.3750     0.0020 C.3   1 <1>  -0.0800 
  8 C        1.4330     1.7120    -0.0260 C.3   1 <1>  -0.1600 
  9 C       -3.2100    -0.2000    -1.3360 C.ar  1 <1>  -0.1500 
 10 C       -3.1730     0.9330     0.7730 C.ar  1 <1>  -0.1500 
 11 C        3.4080     0.3080    -0.9390 C.3   1 <1>   0.3430 
 12 C       -4.3470     0.5030    -1.6940 C.ar  1 <1>  -0.1500 
 13 C       -4.3100     1.6350     0.4130 C.ar  1 <1>  -0.1500 
 14 N        4.4390     1.3200    -0.5720 N.4   1 <1>  -0.8530 
 15 C       -4.8960     1.4230    -0.8200 C.ar  1 <1>  -0.1500 
 16 H       -0.4730     0.2250    -1.2730 H     1 <1>   0.4500 
 17 H       -1.3960    -1.7000    -0.3280 H     1 <1>   0.0800 
 18 H        1.2880    -1.1230    -1.3000 H     1 <1>   0.0800 
 19 H        1.1490    -1.4710     0.4130 H     1 <1>   0.0800 
 20 H       -0.0960     1.2680     1.4030 H     1 <1>   0.0800 
 21 H       -0.7130     2.0720    -0.0340 H     1 <1>   0.0800 
 22 H       -1.0580    -0.2680     2.3270 H     1 <1>   0.0800 
 23 H       -0.3540    -1.8000     1.8490 H     1 <1>   0.0800 
 24 H       -2.0680    -1.6450     2.0260 H     1 <1>   0.0800 
 25 H        2.5180     0.1760     1.0090 H     1 <1>   0.0800 
 26 H        1.8280     2.4300     0.6740 H     1 <1>   0.0800 
 27 H        1.4350     2.1460    -1.0120 H     1 <1>   0.0800 
 28 H       -2.8150    -0.9160    -2.0370 H     1 <1>   0.1500 
 29 H       -2.7550     1.1240     1.7450 H     1 <1>   0.1500 
 30 H        3.0870     0.4760    -1.9560 H     1 <1>   0.0800 
 31 H        3.8450    -0.6790    -0.8900 H     1 <1>   0.0800 
 32 H       -4.8120     0.3350    -2.6510 H     1 <1>   0.1500 
 33 H       -4.7470     2.3460     1.0940 H     1 <1>   0.1500 
 34 H        4.0810     2.2820    -0.6300 H     1 <1>   0.4500 
 35 H        5.2490     1.2670    -1.2070 H     1 <1>   0.4500 
 36 H        4.8040     1.1770     0.3790 H     1 <1>   0.4500 
 37 H       -5.7820     1.9690    -1.0990 H     1 <1>   0.1500 
@<TRIPOS>BOND
  1   1   2  1   
  2   1   3  1   
  3   1   4  1   
  4   1  16  1   
  5   2   5  1   
  6   2   6  1   
  7   2  17  1   
  8   3   7  1   
  9   3  18  1   
 10   3  19  1   
 11   4   8  1   
 12   4  20  1   
 13   4  21  1   
 14   5   9  ar  
 15   5  10  ar  
 16   6  22  1   
 17   6  23  1   
 18   6  24  1   
 19   7   8  1   
 20   7  11  1   
 21   7  25  1   
 22   8  26  1   
 23   8  27  1   
 24   9  12  ar  
 25   9  28  1   
 26  10  13  ar  
 27  10  29  1   
 28  11  14  1   
 29  11  30  1   
 30  11  31  1   
 31  12  15  ar  
 32  12  32  1   
 33  13  15  ar  
 34  13  33  1   
 35  14  34  1   
 36  14  35  1   
 37  14  36  1   
 38  15  37  1   
@<TRIPOS>SUBSTRUCTURE
  1 ****   1 GROUP 4 **** **** 0

# MOE 2024.06 (io_trps.svl 2023.06)
