@<TRIPOS>MOLECULE
[1-(2,5-Dimethoxy-benzenesulfonyl)-piperidin-4-yl]-piperidin-1-yl-methanone
55 57 1 0 0 
SMALL
USER_CHARGES


@<TRIPOS>ATOM
  1 S       -0.5230     0.2070    -1.3810 S.o2  1 <1>   1.4470 
  2 O        0.0580    -0.7700    -2.2810 O.2   1 <1>  -0.6500 
  3 O       -1.3940     1.2150    -1.9480 O.2   1 <1>  -0.6500 
  4 N        0.7930     0.9960    -0.6580 N.am  1 <1>  -0.8490 
  5 C       -1.3800    -0.6640    -0.0440 C.ar  1 <1>  -0.0090 
  6 C        1.3850     1.9830    -1.5620 C.3   1 <1>   0.1960 
  7 C        1.7870     0.0570    -0.1370 C.3   1 <1>   0.1960 
  8 C       -1.8280     0.0030     1.0930 C.ar  1 <1>   0.0830 
  9 C       -1.6230    -2.0310    -0.1340 C.ar  1 <1>  -0.1500 
 10 C        2.4690     2.7850    -0.8380 C.3   1 <1>  -0.1600 
 11 C        2.8760     0.8080     0.6330 C.3   1 <1>  -0.1600 
 12 O       -1.6130     1.3260     1.2400 O.3   1 <1>  -0.3620 
 13 C       -2.4790    -0.6730     2.1130 C.ar  1 <1>  -0.1500 
 14 C       -2.2830    -2.7180     0.8800 C.ar  1 <1>   0.0830 
 15 C        3.5550     1.8630    -0.2560 C.3   1 <1>  -0.0190 
 16 C       -2.6990     2.1750     0.9450 C.3   1 <1>   0.0400 
 17 C       -2.7070    -2.0310     2.0050 C.ar  1 <1>  -0.1500 
 18 O       -2.5450    -4.0490     0.8440 O.3   1 <1>  -0.3630 
 19 C        4.6380     2.6300     0.5170 C.2   1 <1>   0.5690 
 20 C       -2.2010    -4.8340    -0.2770 C.3   1 <1>   0.0400 
 21 O        4.2950     3.5940     1.1620 O.2   1 <1>  -0.5700 
 22 N        5.9550     2.2340     0.4800 N.am  1 <1>  -0.6600 
 23 C        6.4390     0.9780    -0.1750 C.3   1 <1>   0.1400 
 24 C        6.9910     3.0790     1.1540 C.3   1 <1>   0.1400 
 25 C        7.7200     0.4690     0.4930 C.3   1 <1>  -0.1600 
 26 C        8.3420     2.9480     0.4450 C.3   1 <1>  -0.1600 
 27 C        8.8600     1.5000     0.4320 C.3   1 <1>  -0.1600 
 28 H        0.6230     2.6660    -1.9010 H     1 <1>   0.0800 
 29 H        1.7990     1.4870    -2.4250 H     1 <1>   0.0800 
 30 H        2.2290    -0.5000    -0.9480 H     1 <1>   0.0800 
 31 H        1.3100    -0.6410     0.5310 H     1 <1>   0.0800 
 32 H       -1.2860    -2.5480    -1.0130 H     1 <1>   0.1500 
 33 H        2.0040     3.3520    -0.0500 H     1 <1>   0.0800 
 34 H        2.9150     3.4840    -1.5230 H     1 <1>   0.0800 
 35 H        3.6050     0.1070     0.9960 H     1 <1>   0.0800 
 36 H        2.4300     1.2880     1.4880 H     1 <1>   0.0800 
 37 H       -2.8010    -0.1350     2.9870 H     1 <1>   0.1500 
 38 H        4.0140     1.3670    -1.0900 H     1 <1>   0.0800 
 39 H       -2.3650     3.1920     1.0490 H     1 <1>   0.0800 
 40 H       -3.5000     1.9750     1.6330 H     1 <1>   0.0800 
 41 H       -3.0190     1.9980    -0.0670 H     1 <1>   0.0800 
 42 H       -3.2120    -2.5670     2.7890 H     1 <1>   0.1500 
 43 H       -2.5220    -5.8430    -0.0900 H     1 <1>   0.0800 
 44 H       -1.1330    -4.8090    -0.4070 H     1 <1>   0.0800 
 45 H       -2.7050    -4.4460    -1.1450 H     1 <1>   0.0800 
 46 H        6.6310     1.1790    -1.2150 H     1 <1>   0.0800 
 47 H        5.6880     0.2120    -0.1070 H     1 <1>   0.0800 
 48 H        7.0820     2.7670     2.1800 H     1 <1>   0.0800 
 49 H        6.6840     4.1110     1.1450 H     1 <1>   0.0800 
 50 H        8.0370    -0.4450     0.0230 H     1 <1>   0.0800 
 51 H        7.4960     0.2410     1.5210 H     1 <1>   0.0800 
 52 H        9.0640     3.5850     0.9250 H     1 <1>   0.0800 
 53 H        8.2240     3.3010    -0.5650 H     1 <1>   0.0800 
 54 H        9.4390     1.3490    -0.4630 H     1 <1>   0.0800 
 55 H        9.5130     1.3410     1.2720 H     1 <1>   0.0800 
@<TRIPOS>BOND
  1   1   2  2   
  2   1   3  2   
  3   1   4  am  
  4   1   5  1   
  5   4   6  1   
  6   4   7  1   
  7   5   8  ar  
  8   5   9  ar  
  9   6  10  1   
 10   6  28  1   
 11   6  29  1   
 12   7  11  1   
 13   7  30  1   
 14   7  31  1   
 15   8  12  1   
 16   8  13  ar  
 17   9  14  ar  
 18   9  32  1   
 19  10  15  1   
 20  10  33  1   
 21  10  34  1   
 22  11  15  1   
 23  11  35  1   
 24  11  36  1   
 25  12  16  1   
 26  13  17  ar  
 27  13  37  1   
 28  14  17  ar  
 29  14  18  1   
 30  15  19  1   
 31  15  38  1   
 32  16  39  1   
 33  16  40  1   
 34  16  41  1   
 35  17  42  1   
 36  18  20  1   
 37  19  21  2   
 38  19  22  am  
 39  20  43  1   
 40  20  44  1   
 41  20  45  1   
 42  22  23  1   
 43  22  24  1   
 44  23  25  1   
 45  23  46  1   
 46  23  47  1   
 47  24  26  1   
 48  24  48  1   
 49  24  49  1   
 50  25  27  1   
 51  25  50  1   
 52  25  51  1   
 53  26  27  1   
 54  26  52  1   
 55  26  53  1   
 56  27  54  1   
 57  27  55  1   
@<TRIPOS>SUBSTRUCTURE
  1 ****   7 GROUP 4 **** **** 0

# MOE 2024.06 (io_trps.svl 2023.06)
