@<TRIPOS>MOLECULE
7-(3-Allyloxy-2-hydroxy-propyl)-8-amino-1,3-dimethyl-3,7-dihydro-purine-2,6-dion
42 43 1 0 0 
SMALL
USER_CHARGES


@<TRIPOS>ATOM
  1 O        2.3620    -0.0400     2.0590 O.2   1 <1>  -0.5760 
  2 C        2.9720     0.7010     1.3170 C.2   1 <1>   0.6850 
  3 N        3.0180     2.0670     1.5790 N.am  1 <1>  -0.4270 
  4 N        3.6350     0.1810     0.2130 N.am  1 <1>  -0.4430 
  5 C        3.7790     2.9230     0.7960 C.2   1 <1>   0.6980 
  6 C        2.2740     2.6020     2.7630 C.3   1 <1>   0.0500 
  7 C        4.3770     1.0460    -0.5680 C.2   1 <1>   0.4190 
  8 C        3.5690    -1.2790    -0.0980 C.3   1 <1>   0.0500 
  9 O        3.8860     4.1050     1.0790 O.2   1 <1>  -0.5760 
 10 C        4.4630     2.3740    -0.3350 C.2   1 <1>   0.2690 
 11 N        5.1440     0.7440    -1.6530 N.pl3 1 <1>  -0.7050 
 12 N        5.2990     2.8970    -1.3400 N.pl3 1 <1>  -0.7680 
 13 C        5.7020     1.8680    -2.0770 C.cat 1 <1>   1.0680 
 14 C        5.5640     4.3570    -1.5660 C.3   1 <1>   0.3460 
 15 N        6.5530     1.9410    -3.0720 N.pl3 1 <1>  -0.8410 
 16 C        6.9950     4.7940    -1.1960 C.3   1 <1>   0.1910 
 17 O        7.9330     4.0570    -1.9170 O.3   1 <1>  -0.6850 
 18 C        7.3100     4.6500     0.3010 C.3   1 <1>   0.1100 
 19 O        8.6950     4.7220     0.4740 O.3   1 <1>  -0.5660 
 20 C        9.1330     4.7770     1.7970 C.3   1 <1>   0.2500 
 21 C        8.9910     6.1950     2.3210 C.2   1 <1>  -0.2960 
 22 C       10.0100     6.9940     2.6570 C.2   1 <1>  -0.3080 
 23 H        1.3400     2.0800     2.8820 H     1 <1>   0.0700 
 24 H        2.0600     3.6500     2.6420 H     1 <1>   0.0700 
 25 H        2.8650     2.4640     3.6510 H     1 <1>   0.0700 
 26 H        2.6790    -1.7140     0.3250 H     1 <1>   0.0700 
 27 H        4.4260    -1.7780     0.3200 H     1 <1>   0.0700 
 28 H        3.5420    -1.4370    -1.1610 H     1 <1>   0.0700 
 29 H        5.2930    -0.1800    -2.0470 H     1 <1>   0.4430 
 30 H        4.8640     4.9490    -1.0030 H     1 <1>   0.0700 
 31 H        5.3970     4.5880    -2.6050 H     1 <1>   0.0700 
 32 H        7.1520     2.7810    -3.1020 H     1 <1>   0.4430 
 33 H        6.8980     1.1510    -3.6080 H     1 <1>   0.4430 
 34 H        7.1270     5.8270    -1.4680 H     1 <1>   0.0700 
 35 H        8.7920     4.2000    -1.4430 H     1 <1>   0.3930 
 36 H        6.9730     3.7010     0.6800 H     1 <1>   0.0700 
 37 H        6.8310     5.4410     0.8530 H     1 <1>   0.0700 
 38 H       10.1690     4.4870     1.8030 H     1 <1>   0.0700 
 39 H        8.5730     4.0760     2.3940 H     1 <1>   0.0700 
 40 H        7.9680     6.5140     2.4070 H     1 <1>   0.1410 
 41 H        9.8890     7.9960     3.0290 H     1 <1>   0.1410 
 42 H       11.0470     6.7160     2.5860 H     1 <1>   0.1410 
@<TRIPOS>BOND
  1   1   2  2   
  2   2   3  am  
  3   2   4  am  
  4   3   5  am  
  5   3   6  1   
  6   4   7  1   
  7   4   8  1   
  8   5   9  2   
  9   5  10  1   
 10   6  23  1   
 11   6  24  1   
 12   6  25  1   
 13   7  10  2   
 14   7  11  1   
 15   8  26  1   
 16   8  27  1   
 17   8  28  1   
 18  10  12  1   
 19  11  13  ar  
 20  11  29  1   
 21  12  13  ar  
 22  12  14  1   
 23  13  15  ar  
 24  14  16  1   
 25  14  30  1   
 26  14  31  1   
 27  15  32  1   
 28  15  33  1   
 29  16  17  1   
 30  16  18  1   
 31  16  34  1   
 32  17  35  1   
 33  18  19  1   
 34  18  36  1   
 35  18  37  1   
 36  19  20  1   
 37  20  21  1   
 38  20  38  1   
 39  20  39  1   
 40  21  22  2   
 41  21  40  1   
 42  22  41  1   
 43  22  42  1   
@<TRIPOS>SUBSTRUCTURE
  1 ****  10 GROUP 4 **** **** 0

# MOE 2024.06 (io_trps.svl 2023.06)
