@<TRIPOS>MOLECULE
1-(3-Chloro-4-ethoxy-benzenesulfonyl)-piperidine-4-carboxylic acid (pyridin-3-yl
53 55 1 0 0 
SMALL
USER_CHARGES


@<TRIPOS>ATOM
  1 CL       0.1870    -0.1800    -1.1430 Cl    1 <1>  -0.1770 
  2 C        0.5130     1.4370    -0.5580 C.ar  1 <1>   0.1770 
  3 C        0.1180     1.8330     0.7160 C.ar  1 <1>   0.0820 
  4 C        1.1880     2.3070    -1.3930 C.ar  1 <1>  -0.1500 
  5 O       -0.5400     1.0110     1.5640 O.3   1 <1>  -0.3630 
  6 C        0.4320     3.1100     1.1470 C.ar  1 <1>  -0.1500 
  7 C        1.4990     3.5970    -0.9740 C.ar  1 <1>  -0.0090 
  8 C       -1.8890     0.7060     1.2810 C.3   1 <1>   0.1200 
  9 C        1.1090     3.9790     0.3070 C.ar  1 <1>  -0.1500 
 10 S        2.3800     4.7500    -2.0630 S.o2  1 <1>   1.4470 
 11 C       -2.7780     1.8400     1.7910 C.3   1 <1>  -0.2400 
 12 O        3.0600     4.0200    -3.1110 O.2   1 <1>  -0.6500 
 13 O        1.4880     5.8310    -2.4170 O.2   1 <1>  -0.6500 
 14 N        3.5860     5.3900    -1.0560 N.am  1 <1>  -0.8490 
 15 C        4.1300     6.6380    -1.5980 C.3   1 <1>   0.1960 
 16 C        4.6470     4.4160    -0.7810 C.3   1 <1>   0.1960 
 17 C        5.1000     7.2740    -0.5980 C.3   1 <1>  -0.1600 
 18 C        5.6230     4.9750     0.2560 C.3   1 <1>  -0.1600 
 19 C        6.2320     6.3070    -0.2160 C.3   1 <1>  -0.0190 
 20 C        7.1550     6.9120     0.8400 C.2   1 <1>   0.5690 
 21 O        6.7320     7.1440     1.9460 O.2   1 <1>  -0.5700 
 22 N        8.4430     7.1730     0.5090 N.am  1 <1>  -0.7300 
 23 C        9.4540     7.6900     1.4470 C.3   1 <1>   0.2840 
 24 C       10.7860     7.0630     1.0900 C.ar  1 <1>  -0.1430 
 25 C       11.0890     5.7830     1.5290 C.ar  1 <1>   0.1600 
 26 C       11.7120     7.7400     0.3210 C.ar  1 <1>  -0.1500 
 27 N       12.2160     5.1390     1.2680 N.ar  1 <1>  -0.6200 
 28 C       12.8920     7.0850     0.0420 C.ar  1 <1>  -0.1500 
 29 C       13.0900     5.8060     0.5330 C.ar  1 <1>   0.1600 
 30 H        1.4760     1.9750    -2.3760 H     1 <1>   0.1500 
 31 H        0.1430     3.4180     2.1370 H     1 <1>   0.1500 
 32 H       -2.1250    -0.2130     1.7890 H     1 <1>   0.0800 
 33 H       -2.0130     0.5630     0.2220 H     1 <1>   0.0800 
 34 H        1.3430     4.9740     0.6510 H     1 <1>   0.1500 
 35 H       -2.6220     1.9860     2.8450 H     1 <1>   0.0800 
 36 H       -3.8110     1.5890     1.6300 H     1 <1>   0.0800 
 37 H       -2.5650     2.7520     1.2640 H     1 <1>   0.0800 
 38 H        3.3280     7.3350    -1.7840 H     1 <1>   0.0800 
 39 H        4.6290     6.4440    -2.5340 H     1 <1>   0.0800 
 40 H        5.1760     4.1780    -1.6900 H     1 <1>   0.0800 
 41 H        4.2160     3.5060    -0.3960 H     1 <1>   0.0800 
 42 H        4.5500     7.5570     0.2830 H     1 <1>   0.0800 
 43 H        5.5150     8.1700    -1.0240 H     1 <1>   0.0800 
 44 H        6.4070     4.2610     0.4320 H     1 <1>   0.0800 
 45 H        5.0980     5.1210     1.1840 H     1 <1>   0.0800 
 46 H        6.8140     6.1100    -1.0980 H     1 <1>   0.0800 
 47 H        8.8030     6.9450    -0.4180 H     1 <1>   0.3700 
 48 H        9.1840     7.4430     2.4610 H     1 <1>   0.0800 
 49 H        9.5070     8.7620     1.3620 H     1 <1>   0.0800 
 50 H       10.3630     5.2570     2.1270 H     1 <1>   0.1500 
 51 H       11.5270     8.7350    -0.0470 H     1 <1>   0.1500 
 52 H       13.6540     7.5580    -0.5500 H     1 <1>   0.1500 
 53 H       14.0170     5.3040     0.3080 H     1 <1>   0.1500 
@<TRIPOS>BOND
  1   1   2  1   
  2   2   3  ar  
  3   2   4  ar  
  4   3   5  1   
  5   3   6  ar  
  6   4   7  ar  
  7   4  30  1   
  8   5   8  1   
  9   6   9  ar  
 10   6  31  1   
 11   7   9  ar  
 12   7  10  1   
 13   8  11  1   
 14   8  32  1   
 15   8  33  1   
 16   9  34  1   
 17  10  12  2   
 18  10  13  2   
 19  10  14  am  
 20  11  35  1   
 21  11  36  1   
 22  11  37  1   
 23  14  15  1   
 24  14  16  1   
 25  15  17  1   
 26  15  38  1   
 27  15  39  1   
 28  16  18  1   
 29  16  40  1   
 30  16  41  1   
 31  17  19  1   
 32  17  42  1   
 33  17  43  1   
 34  18  19  1   
 35  18  44  1   
 36  18  45  1   
 37  19  20  1   
 38  19  46  1   
 39  20  21  2   
 40  20  22  am  
 41  22  23  1   
 42  22  47  1   
 43  23  24  1   
 44  23  48  1   
 45  23  49  1   
 46  24  25  ar  
 47  24  26  ar  
 48  25  27  ar  
 49  25  50  1   
 50  26  28  ar  
 51  26  51  1   
 52  27  29  ar  
 53  28  29  ar  
 54  28  52  1   
 55  29  53  1   
@<TRIPOS>SUBSTRUCTURE
  1 ****  16 GROUP 4 **** **** 0

# MOE 2024.06 (io_trps.svl 2023.06)
