@<TRIPOS>MOLECULE
4-(3-Cyclopentylamino-imidazo[1,2-a]pyrazin-2-yl)-phenol
41 44 1 0 0 
SMALL
USER_CHARGES


@<TRIPOS>ATOM
  1 O        0.2520     1.5620    -0.6490 O.3   1 <1>  -0.5320 
  2 C        1.5330     1.1920    -0.5320 C.ar  1 <1>   0.0830 
  3 C        2.0620     0.2990    -1.4450 C.ar  1 <1>  -0.1500 
  4 C        2.3210     1.6950     0.4900 C.ar  1 <1>  -0.1500 
  5 C        3.3820    -0.0930    -1.3370 C.ar  1 <1>  -0.1500 
  6 C        3.6420     1.2980     0.5930 C.ar  1 <1>  -0.1500 
  7 C        4.2010     0.3970    -0.3180 C.ar  1 <1>   0.0410 
  8 C        5.5760    -0.0190    -0.2140 C.2   1 <1>   0.3090 
  9 N        6.6070     0.8610     0.0340 N.pl3 1 <1>  -0.7000 
 10 C        6.1480    -1.2600    -0.3540 C.2   1 <1>   0.4460 
 11 C        7.7670     0.1770     0.0270 C.cat 1 <1>   0.7510 
 12 N        7.4980    -1.1320    -0.2080 N.pl3 1 <1>  -0.6290 
 13 N        5.6190    -2.5120    -0.6070 N.pl3 1 <1>  -0.8650 
 14 C        9.1200     0.5930     0.2090 C.2   1 <1>   0.4390 
 15 C        8.5710    -2.0020    -0.2600 C.2   1 <1>   0.2290 
 16 C        4.4500    -2.9870     0.1630 C.3   1 <1>   0.2890 
 17 N       10.1420    -0.2150     0.1670 N.2   1 <1>  -0.6210 
 18 C        9.8390    -1.5250    -0.0740 C.2   1 <1>   0.0210 
 19 C        4.9480    -3.7530     1.3830 C.3   1 <1>  -0.1600 
 20 C        3.7450    -4.0570    -0.6570 C.3   1 <1>  -0.1600 
 21 C        5.3090    -5.1560     0.8800 C.3   1 <1>  -0.1600 
 22 C        4.5440    -5.3470    -0.4350 C.3   1 <1>  -0.1600 
 23 H       -0.0400     2.1950     0.0320 H     1 <1>   0.4500 
 24 H        1.4330    -0.0800    -2.2320 H     1 <1>   0.1500 
 25 H        1.9070     2.3880     1.2010 H     1 <1>   0.1500 
 26 H        3.7790    -0.7890    -2.0580 H     1 <1>   0.1500 
 27 H        4.2380     1.6890     1.3980 H     1 <1>   0.1500 
 28 H        6.4840     1.8710     0.1420 H     1 <1>   0.4500 
 29 H        6.2960    -3.2720    -0.6890 H     1 <1>   0.4000 
 30 H        9.2970     1.6370     0.3920 H     1 <1>   0.0600 
 31 H        8.3770    -3.0460    -0.4500 H     1 <1>   0.1500 
 32 H        3.7880    -2.1800     0.4280 H     1 <1>   0.0800 
 33 H       10.6810    -2.1990    -0.1130 H     1 <1>   0.1500 
 34 H        4.1340    -3.8380     2.0810 H     1 <1>   0.0800 
 35 H        5.7680    -3.2630     1.8770 H     1 <1>   0.0800 
 36 H        3.6660    -3.7910    -1.6970 H     1 <1>   0.0800 
 37 H        2.7530    -4.1910    -0.2620 H     1 <1>   0.0800 
 38 H        5.0310    -5.9030     1.6050 H     1 <1>   0.0800 
 39 H        6.3680    -5.2290     0.7010 H     1 <1>   0.0800 
 40 H        5.2380    -5.4930    -1.2450 H     1 <1>   0.0800 
 41 H        3.8870    -6.2000    -0.3880 H     1 <1>   0.0800 
@<TRIPOS>BOND
  1   1   2  1   
  2   1  23  1   
  3   2   3  ar  
  4   2   4  ar  
  5   3   5  ar  
  6   3  24  1   
  7   4   6  ar  
  8   4  25  1   
  9   5   7  ar  
 10   5  26  1   
 11   6   7  ar  
 12   6  27  1   
 13   7   8  1   
 14   8   9  1   
 15   8  10  2   
 16   9  11  ar  
 17   9  28  1   
 18  10  12  1   
 19  10  13  1   
 20  11  12  ar  
 21  11  14  1   
 22  12  15  1   
 23  13  16  1   
 24  13  29  1   
 25  14  17  2   
 26  14  30  1   
 27  15  18  2   
 28  15  31  1   
 29  16  19  1   
 30  16  20  1   
 31  16  32  1   
 32  17  18  1   
 33  18  33  1   
 34  19  21  1   
 35  19  34  1   
 36  19  35  1   
 37  20  22  1   
 38  20  36  1   
 39  20  37  1   
 40  21  22  1   
 41  21  38  1   
 42  21  39  1   
 43  22  40  1   
 44  22  41  1   
@<TRIPOS>SUBSTRUCTURE
  1 ****  10 GROUP 4 **** **** 0

# MOE 2024.06 (io_trps.svl 2023.06)
