@<TRIPOS>MOLECULE
6-(4-tert-Butylamino-6-dimethylamino-[1,3,5]triazin-2-yloxy)-2-methyl-2H-pyridaz
44 45 1 0 0 
SMALL
USER_CHARGES


@<TRIPOS>ATOM
  1 O       -0.9330     0.1570    -1.6320 O.2   1 <1>  -0.5700 
  2 C       -1.9310    -0.4480    -1.2580 C.2   1 <1>   0.6160 
  3 N       -2.1020    -0.8220     0.0730 N.am  1 <1>  -0.2980 
  4 C       -2.9650    -0.8040    -2.1590 C.2   1 <1>  -0.1360 
  5 N       -3.2070    -1.4950     0.5540 N.2   1 <1>  -0.5120 
  6 C       -1.0530    -0.4880     1.0620 C.3   1 <1>   0.0600 
  7 C       -4.0550    -1.4640    -1.6890 C.2   1 <1>  -0.1360 
  8 C       -4.1400    -1.7790    -0.3040 C.2   1 <1>   0.5860 
  9 O       -5.2230    -2.4450     0.1430 O.3   1 <1>  -0.2320 
 10 C       -6.4520    -1.9260     0.0360 C.ar  1 <1>   0.7020 
 11 N       -7.4170    -2.7740     0.2370 N.ar  1 <1>  -0.6200 
 12 N       -6.5780    -0.6600    -0.2690 N.ar  1 <1>  -0.6200 
 13 C       -8.6160    -2.2590     0.1120 C.ar  1 <1>   0.7200 
 14 C       -7.8170    -0.2680    -0.3520 C.ar  1 <1>   0.7200 
 15 N       -8.8720    -1.0120    -0.1850 N.ar  1 <1>  -0.6200 
 16 N       -9.6900    -3.1010     0.3050 N.pl3 1 <1>  -0.8380 
 17 N       -7.9490     1.0430    -0.6600 N.pl3 1 <1>  -0.8690 
 18 C      -11.0760    -2.7230    -0.0910 C.3   1 <1>   0.1290 
 19 C       -9.5520    -4.4400     0.9480 C.3   1 <1>   0.1290 
 20 C       -9.0710     1.9510    -0.4310 C.3   1 <1>   0.3690 
 21 C       -9.5240     1.8810     1.0270 C.3   1 <1>  -0.2400 
 22 C      -10.2100     1.6220    -1.3960 C.3   1 <1>  -0.2400 
 23 C       -8.5440     3.3520    -0.7300 C.3   1 <1>  -0.2400 
 24 H       -2.8350    -0.5290    -3.1880 H     1 <1>   0.1500 
 25 H       -0.9190     0.5780     1.0970 H     1 <1>   0.0800 
 26 H       -0.1270    -0.9520     0.7730 H     1 <1>   0.0800 
 27 H       -1.3390    -0.8420     2.0370 H     1 <1>   0.0800 
 28 H       -4.8660    -1.7580    -2.3280 H     1 <1>   0.1500 
 29 H       -7.0520     1.5200    -0.6890 H     1 <1>   0.4000 
 30 H      -11.0600    -2.0310    -0.9150 H     1 <1>   0.0800 
 31 H      -11.5750    -2.2610     0.7430 H     1 <1>   0.0800 
 32 H      -11.6250    -3.5960    -0.3950 H     1 <1>   0.0800 
 33 H       -8.6960    -4.4640     1.6000 H     1 <1>   0.0800 
 34 H       -9.4350    -5.1930     0.1890 H     1 <1>   0.0800 
 35 H      -10.4270    -4.6600     1.5340 H     1 <1>   0.0800 
 36 H       -9.9550     0.9220     1.2490 H     1 <1>   0.0800 
 37 H      -10.2710     2.6280     1.2180 H     1 <1>   0.0800 
 38 H       -8.6930     2.0520     1.6870 H     1 <1>   0.0800 
 39 H       -9.8510     1.6200    -2.4090 H     1 <1>   0.0800 
 40 H      -10.9910     2.3540    -1.3100 H     1 <1>   0.0800 
 41 H      -10.6320     0.6600    -1.1740 H     1 <1>   0.0800 
 42 H       -7.7350     3.6010    -0.0670 H     1 <1>   0.0800 
 43 H       -9.3250     4.0780    -0.5950 H     1 <1>   0.0800 
 44 H       -8.2000     3.4140    -1.7470 H     1 <1>   0.0800 
@<TRIPOS>BOND
  1   1   2  2   
  2   2   3  am  
  3   2   4  1   
  4   3   5  1   
  5   3   6  1   
  6   4   7  2   
  7   4  24  1   
  8   5   8  2   
  9   6  25  1   
 10   6  26  1   
 11   6  27  1   
 12   7   8  1   
 13   7  28  1   
 14   8   9  1   
 15   9  10  1   
 16  10  11  ar  
 17  10  12  ar  
 18  11  13  ar  
 19  12  14  ar  
 20  13  15  ar  
 21  13  16  1   
 22  14  15  ar  
 23  14  17  1   
 24  16  18  1   
 25  16  19  1   
 26  17  20  1   
 27  17  29  1   
 28  18  30  1   
 29  18  31  1   
 30  18  32  1   
 31  19  33  1   
 32  19  34  1   
 33  19  35  1   
 34  20  21  1   
 35  20  22  1   
 36  20  23  1   
 37  21  36  1   
 38  21  37  1   
 39  21  38  1   
 40  22  39  1   
 41  22  40  1   
 42  22  41  1   
 43  23  42  1   
 44  23  43  1   
 45  23  44  1   
@<TRIPOS>SUBSTRUCTURE
  1 ****  12 GROUP 4 **** **** 0

# MOE 2024.06 (io_trps.svl 2023.06)
