@<TRIPOS>MOLECULE
4,6-Dioxo-5-p-tolyl-4,5,6,6a-tetrahydro-3aH-pyrrolo[3,4-d]isoxazole-3-carboxylic
36 38 1 0 0 
SMALL
USER_CHARGES


@<TRIPOS>ATOM
  1 O        0.0150    -0.3630     0.5090 O.2   1 <1>  -0.5700 
  2 C        0.0250    -1.5390     0.2470 C.2   1 <1>   0.5690 
  3 N        1.1150    -2.3730     0.0880 N.am  1 <1>  -0.2370 
  4 C       -1.1880    -2.3960    -0.0110 C.3   1 <1>   0.2610 
  5 C        2.4670    -1.9740    -0.0470 C.ar  1 <1>   0.1170 
  6 C        0.6430    -3.6760     0.0440 C.2   1 <1>   0.5690 
  7 O       -2.4970    -2.3270     0.4710 O.3   1 <1>  -0.2170 
  8 C       -0.7500    -3.6880     0.5990 C.3   1 <1>   0.0420 
  9 C        3.4970    -2.7670     0.4500 C.ar  1 <1>  -0.1500 
 10 C        2.8060    -0.7810    -0.6800 C.ar  1 <1>  -0.1500 
 11 O        1.2080    -4.6440    -0.3860 O.2   1 <1>  -0.5700 
 12 N       -3.0020    -3.5450     0.4330 N.2   1 <1>  -0.5130 
 13 C       -2.0510    -4.4160     0.4200 C.2   1 <1>   0.3890 
 14 C        4.8200    -2.3820     0.3200 C.ar  1 <1>  -0.1500 
 15 C        4.1280    -0.3950    -0.8100 C.ar  1 <1>  -0.1500 
 16 C       -2.0660    -5.8640     0.3600 C.2   1 <1>   0.7200 
 17 C        5.1430    -1.1930    -0.3120 C.ar  1 <1>  -0.1440 
 18 O       -1.0800    -6.5160     0.6300 O.2   1 <1>  -0.5700 
 19 O       -3.1520    -6.5760     0.0240 O.3   1 <1>  -0.4300 
 20 C        6.5940    -0.7690    -0.4540 C.3   1 <1>  -0.0970 
 21 C       -4.4200    -6.0430    -0.2810 C.3   1 <1>   0.1200 
 22 C       -5.3370    -7.2030    -0.6550 C.3   1 <1>  -0.2400 
 23 H       -1.2800    -2.4880    -1.0810 H     1 <1>   0.0800 
 24 H       -0.6330    -3.5660     1.6630 H     1 <1>   0.0800 
 25 H        3.2750    -3.6970     0.9410 H     1 <1>   0.1500 
 26 H        2.0390    -0.1400    -1.0750 H     1 <1>   0.1500 
 27 H        5.5970    -3.0130     0.7120 H     1 <1>   0.1500 
 28 H        4.3630     0.5340    -1.3000 H     1 <1>   0.1500 
 29 H        7.2330    -1.6310    -0.5210 H     1 <1>   0.0800 
 30 H        6.8870    -0.1850     0.4000 H     1 <1>   0.0800 
 31 H        6.7290    -0.1780    -1.3420 H     1 <1>   0.0800 
 32 H       -4.3220    -5.3570    -1.1060 H     1 <1>   0.0800 
 33 H       -4.7980    -5.5270     0.5860 H     1 <1>   0.0800 
 34 H       -4.9490    -7.7210    -1.5140 H     1 <1>   0.0800 
 35 H       -6.3170    -6.8300    -0.8930 H     1 <1>   0.0800 
 36 H       -5.4220    -7.8880     0.1690 H     1 <1>   0.0800 
@<TRIPOS>BOND
  1   1   2  2   
  2   2   3  am  
  3   2   4  1   
  4   3   5  1   
  5   3   6  am  
  6   4   7  1   
  7   4   8  1   
  8   4  23  1   
  9   5   9  ar  
 10   5  10  ar  
 11   6   8  1   
 12   6  11  2   
 13   7  12  1   
 14   8  13  1   
 15   8  24  1   
 16   9  14  ar  
 17   9  25  1   
 18  10  15  ar  
 19  10  26  1   
 20  12  13  2   
 21  13  16  1   
 22  14  17  ar  
 23  14  27  1   
 24  15  17  ar  
 25  15  28  1   
 26  16  18  2   
 27  16  19  1   
 28  17  20  1   
 29  19  21  1   
 30  20  29  1   
 31  20  30  1   
 32  20  31  1   
 33  21  22  1   
 34  21  32  1   
 35  21  33  1   
 36  22  34  1   
 37  22  35  1   
 38  22  36  1   
@<TRIPOS>SUBSTRUCTURE
  1 ****   6 GROUP 4 **** **** 0

# MOE 2024.06 (io_trps.svl 2023.06)
