@<TRIPOS>MOLECULE
4-[3-(2-Methoxy-phenyl)-[1,2,4]oxadiazol-5-yl]-N-propyl-butyramide
43 44 1 0 0 
SMALL
USER_CHARGES


@<TRIPOS>ATOM
  1 O       -1.0440    -1.1370    -2.0800 O.2   1 <1>  -0.5700 
  2 C       -1.2150    -2.0610    -1.3250 C.2   1 <1>   0.5690 
  3 N       -0.3440    -3.0950    -1.3400 N.am  1 <1>  -0.7300 
  4 C       -2.3900    -2.0570    -0.3570 C.3   1 <1>  -0.0990 
  5 C       -0.3260    -4.3230    -0.5160 C.3   1 <1>   0.1400 
  6 C       -3.3370    -0.8480    -0.5140 C.3   1 <1>  -0.1600 
  7 C        0.8750    -4.2700     0.4270 C.3   1 <1>  -0.1600 
  8 C       -4.4400    -0.7920     0.5570 C.3   1 <1>   0.0200 
  9 C        0.9430    -5.5180     1.3140 C.3   1 <1>  -0.2400 
 10 C       -5.3240    -2.0260     0.5690 C.2   1 <1>   0.2980 
 11 O       -4.9320    -3.0760     1.2450 O.3   1 <1>  -0.0190 
 12 N       -6.4350    -2.1440    -0.0270 N.2   1 <1>  -0.5650 
 13 N       -5.8740    -3.9450     1.0520 N.2   1 <1>  -0.4100 
 14 C       -6.7710    -3.3910     0.3160 C.2   1 <1>   0.4620 
 15 C       -7.9840    -4.0320    -0.1410 C.ar  1 <1>   0.0540 
 16 C       -9.2560    -3.5370     0.1740 C.ar  1 <1>   0.0820 
 17 C       -7.9020    -5.1860    -0.9190 C.ar  1 <1>  -0.1500 
 18 O       -9.3270    -2.4310     0.9610 O.3   1 <1>  -0.3630 
 19 C      -10.3960    -4.1810    -0.3030 C.ar  1 <1>  -0.1500 
 20 C       -9.0350    -5.8240    -1.3870 C.ar  1 <1>  -0.1500 
 21 C      -10.5490    -1.8030     1.2760 C.3   1 <1>   0.0400 
 22 C      -10.2850    -5.3190    -1.0800 C.ar  1 <1>  -0.1500 
 23 H        0.4230    -2.9990    -2.0090 H     1 <1>   0.3700 
 24 H       -1.9950    -2.0740     0.6420 H     1 <1>   0.0800 
 25 H       -2.9450    -2.9610    -0.5210 H     1 <1>   0.0800 
 26 H       -0.2500    -5.1800    -1.1640 H     1 <1>   0.0800 
 27 H       -1.2350    -4.4110     0.0540 H     1 <1>   0.0800 
 28 H       -3.7930    -0.8850    -1.4890 H     1 <1>   0.0800 
 29 H       -2.7620     0.0600    -0.4600 H     1 <1>   0.0800 
 30 H        0.7990    -3.3970     1.0530 H     1 <1>   0.0800 
 31 H        1.7820    -4.1980    -0.1500 H     1 <1>   0.0800 
 32 H       -5.0620     0.0650     0.3670 H     1 <1>   0.0800 
 33 H       -4.0030    -0.6660     1.5310 H     1 <1>   0.0800 
 34 H        0.0560    -5.6020     1.9170 H     1 <1>   0.0800 
 35 H        1.7950    -5.4570     1.9680 H     1 <1>   0.0800 
 36 H        1.0400    -6.4050     0.7120 H     1 <1>   0.0800 
 37 H       -6.9310    -5.5820    -1.1590 H     1 <1>   0.1500 
 38 H      -11.3790    -3.8150    -0.0770 H     1 <1>   0.1500 
 39 H       -8.9460    -6.7130    -1.9890 H     1 <1>   0.1500 
 40 H      -10.3330    -0.9380     1.8760 H     1 <1>   0.0800 
 41 H      -11.1610    -2.4900     1.8340 H     1 <1>   0.0800 
 42 H      -11.0330    -1.5040     0.3640 H     1 <1>   0.0800 
 43 H      -11.1690    -5.8130    -1.4450 H     1 <1>   0.1500 
@<TRIPOS>BOND
  1   1   2  2   
  2   2   3  am  
  3   2   4  1   
  4   3   5  1   
  5   3  23  1   
  6   4   6  1   
  7   4  24  1   
  8   4  25  1   
  9   5   7  1   
 10   5  26  1   
 11   5  27  1   
 12   6   8  1   
 13   6  28  1   
 14   6  29  1   
 15   7   9  1   
 16   7  30  1   
 17   7  31  1   
 18   8  10  1   
 19   8  32  1   
 20   8  33  1   
 21   9  34  1   
 22   9  35  1   
 23   9  36  1   
 24  10  11  1   
 25  10  12  2   
 26  11  13  1   
 27  12  14  1   
 28  13  14  2   
 29  14  15  1   
 30  15  16  ar  
 31  15  17  ar  
 32  16  18  1   
 33  16  19  ar  
 34  17  20  ar  
 35  17  37  1   
 36  18  21  1   
 37  19  22  ar  
 38  19  38  1   
 39  20  22  ar  
 40  20  39  1   
 41  21  40  1   
 42  21  41  1   
 43  21  42  1   
 44  22  43  1   
@<TRIPOS>SUBSTRUCTURE
  1 ****  10 GROUP 4 **** **** 0

# MOE 2024.06 (io_trps.svl 2023.06)
