@<TRIPOS>MOLECULE
2-(2,2-Dimethyl-5-pyrrolidin-1-yl-1,4-dihydro-2H-3-oxa-7-thia-6,9,11-triaza-benz
54 58 1 0 0 
SMALL
USER_CHARGES


@<TRIPOS>ATOM
  1 S       -0.3720    -0.6800     0.6340 S.3   1 <1>  -0.0800 
  2 C       -1.6900     0.4420     0.2720 C.ar  1 <1>   0.2970 
  3 C        0.8300     0.6150     0.5440 C.ar  1 <1>   0.0400 
  4 N       -2.9200     0.0020     0.1770 N.ar  1 <1>  -0.5670 
  5 C       -1.2120     1.7430     0.1230 C.ar  1 <1>   0.0000 
  6 C        2.2080     0.5070     0.7130 C.ar  1 <1>   0.4100 
  7 C        0.2170     1.8040     0.2580 C.ar  1 <1>   0.3070 
  8 C       -3.8090     0.9450    -0.1030 C.ar  1 <1>   0.4100 
  9 C       -2.1710     2.7290    -0.1300 C.ar  1 <1>  -0.1430 
 10 N        2.9700     1.6040     0.5710 N.ar  1 <1>  -0.6200 
 11 N        2.8100    -0.6590     1.0090 N.pl3 1 <1>  -0.8690 
 12 N        1.0410     2.8730     0.1180 N.ar  1 <1>  -0.1250 
 13 N       -5.1140     0.5350    -0.2230 N.pl3 1 <1>  -0.8380 
 14 C       -3.4750     2.2990    -0.2660 C.ar  1 <1>  -0.1430 
 15 C       -1.8650     4.2190    -0.2680 C.3   1 <1>  -0.0170 
 16 C        2.3800     2.7300     0.2820 C.ar  1 <1>   0.5210 
 17 C        4.2610    -0.8950     1.2530 C.3   1 <1>   0.2090 
 18 C       -5.8060     0.0600     1.0020 C.3   1 <1>   0.2090 
 19 C       -5.4510    -0.3570    -1.3610 C.3   1 <1>   0.2090 
 20 C       -4.6040     3.2750    -0.5890 C.3   1 <1>   0.2630 
 21 C       -3.1250     5.0960    -0.1290 C.3   1 <1>   0.2800 
 22 C        4.8960    -1.5850     0.0420 C.3   1 <1>   0.1200 
 23 C       -6.7660    -1.0260     0.5350 C.3   1 <1>  -0.1600 
 24 C       -6.1280    -1.5690    -0.7360 C.3   1 <1>  -0.1600 
 25 O       -4.1210     4.5490    -0.9260 O.3   1 <1>  -0.5600 
 26 C       -3.6140     5.2180     1.3240 C.3   1 <1>  -0.2400 
 27 C       -2.8720     6.4950    -0.6900 C.3   1 <1>  -0.2400 
 28 O        6.2350    -1.8460     0.2980 O.3   1 <1>  -0.6800 
 29 H        2.2400    -1.5080     1.1070 H     1 <1>   0.4000 
 30 H        0.6480     3.7820    -0.1250 H     1 <1>   0.4570 
 31 H       -1.4350     4.3920    -1.2380 H     1 <1>   0.0800 
 32 H       -1.1680     4.5330     0.4850 H     1 <1>   0.0800 
 33 H        2.9980     3.6080     0.1630 H     1 <1>   0.1500 
 34 H        4.3720    -1.5240     2.1210 H     1 <1>   0.0800 
 35 H        4.7640     0.0370     1.4420 H     1 <1>   0.0800 
 36 H       -6.3340     0.8690     1.4780 H     1 <1>   0.0800 
 37 H       -5.0870    -0.3530     1.6910 H     1 <1>   0.0800 
 38 H       -4.5730    -0.6430    -1.9150 H     1 <1>   0.0800 
 39 H       -6.1350     0.1560    -2.0150 H     1 <1>   0.0800 
 40 H       -5.2730     3.3700     0.2480 H     1 <1>   0.0800 
 41 H       -5.1710     2.9180    -1.4320 H     1 <1>   0.0800 
 42 H        4.8320    -0.9620    -0.8340 H     1 <1>   0.0800 
 43 H        4.4120    -2.5280    -0.1460 H     1 <1>   0.0800 
 44 H       -7.7170    -0.5780     0.3070 H     1 <1>   0.0800 
 45 H       -6.9020    -1.7860     1.2830 H     1 <1>   0.0800 
 46 H       -5.3730    -2.2940    -0.4860 H     1 <1>   0.0800 
 47 H       -6.8440    -2.0170    -1.4020 H     1 <1>   0.0800 
 48 H       -3.7240     4.2560     1.7910 H     1 <1>   0.0800 
 49 H       -4.5580     5.7340     1.3530 H     1 <1>   0.0800 
 50 H       -2.9090     5.7820     1.9060 H     1 <1>   0.0800 
 51 H       -2.5900     6.4410    -1.7260 H     1 <1>   0.0800 
 52 H       -2.0900     6.9900    -0.1440 H     1 <1>   0.0800 
 53 H       -3.7660     7.0890    -0.6110 H     1 <1>   0.0800 
 54 H        6.7680    -1.0260     0.2830 H     1 <1>   0.4000 
@<TRIPOS>BOND
  1   1   2  1   
  2   1   3  1   
  3   2   4  ar  
  4   2   5  ar  
  5   3   6  ar  
  6   3   7  ar  
  7   4   8  ar  
  8   5   7  1   
  9   5   9  ar  
 10   6  10  ar  
 11   6  11  1   
 12   7  12  ar  
 13   8  13  1   
 14   8  14  ar  
 15   9  14  ar  
 16   9  15  1   
 17  10  16  ar  
 18  11  17  1   
 19  11  29  1   
 20  12  16  ar  
 21  12  30  1   
 22  13  18  1   
 23  13  19  1   
 24  14  20  1   
 25  15  21  1   
 26  15  31  1   
 27  15  32  1   
 28  16  33  1   
 29  17  22  1   
 30  17  34  1   
 31  17  35  1   
 32  18  23  1   
 33  18  36  1   
 34  18  37  1   
 35  19  24  1   
 36  19  38  1   
 37  19  39  1   
 38  20  25  1   
 39  20  40  1   
 40  20  41  1   
 41  21  25  1   
 42  21  26  1   
 43  21  27  1   
 44  22  28  1   
 45  22  42  1   
 46  22  43  1   
 47  23  24  1   
 48  23  44  1   
 49  23  45  1   
 50  24  46  1   
 51  24  47  1   
 52  26  48  1   
 53  26  49  1   
 54  26  50  1   
 55  27  51  1   
 56  27  52  1   
 57  27  53  1   
 58  28  54  1   
@<TRIPOS>SUBSTRUCTURE
  1 ****   5 GROUP 4 **** **** 0

# MOE 2024.06 (io_trps.svl 2023.06)
