@<TRIPOS>MOLECULE
N-(3-Imidazol-1-yl-propyl)-5-isopropyl-2-methoxy-benzenesulfonamide
46 47 1 0 0 
SMALL
USER_CHARGES


@<TRIPOS>ATOM
  1 S       -0.5690    -0.0490     0.7060 S.o2  1 <1>   1.4470 
  2 O       -0.9910    -1.4000     0.9980 O.2   1 <1>  -0.6500 
  3 O       -0.9260     0.9900     1.6480 O.2   1 <1>  -0.6500 
  4 N       -1.3650     0.2550    -0.7430 N.am  1 <1>  -0.9140 
  5 C        1.1940    -0.0370     0.2890 C.ar  1 <1>  -0.0090 
  6 C       -2.0340     1.5380    -0.8520 C.3   1 <1>   0.1960 
  7 C        1.8460     1.1370    -0.0810 C.ar  1 <1>   0.0830 
  8 C        1.9310    -1.2160     0.3270 C.ar  1 <1>  -0.1500 
  9 C       -3.4340     1.4540    -0.2390 C.3   1 <1>  -0.1600 
 10 O        1.1210     2.2840    -0.1190 O.3   1 <1>  -0.3620 
 11 C        3.2020     1.1120    -0.4000 C.ar  1 <1>  -0.1500 
 12 C        3.2810    -1.2520     0.0140 C.ar  1 <1>  -0.1430 
 13 C       -4.0730     2.8440    -0.1680 C.3   1 <1>   0.0960 
 14 C        1.7300     3.5490    -0.2610 C.3   1 <1>   0.0400 
 15 C        3.9100    -0.0730    -0.3510 C.ar  1 <1>  -0.1500 
 16 C        4.0430    -2.5750     0.0730 C.3   1 <1>   0.0630 
 17 N       -5.4570     2.7500     0.3340 N.pl3 1 <1>   0.0480 
 18 C        5.1690    -2.5110     1.1100 C.3   1 <1>  -0.2400 
 19 C        4.5930    -2.9510    -1.3060 C.3   1 <1>  -0.2400 
 20 C       -5.8720     2.6680     1.6190 C.2   1 <1>   0.0360 
 21 C       -6.5900     2.7300    -0.3910 C.2   1 <1>  -0.3020 
 22 N       -7.1570     2.6000     1.7540 N.2   1 <1>  -0.5650 
 23 C       -7.6110     2.6390     0.4880 C.2   1 <1>   0.0770 
 24 H       -2.0500    -0.4960    -0.7990 H     1 <1>   0.4200 
 25 H       -2.1200     1.7930    -1.8950 H     1 <1>   0.0800 
 26 H       -1.4470     2.3070    -0.3750 H     1 <1>   0.0800 
 27 H        1.4320    -2.1270     0.6110 H     1 <1>   0.1500 
 28 H       -3.3790     1.0540     0.7590 H     1 <1>   0.0800 
 29 H       -4.0470     0.8090    -0.8440 H     1 <1>   0.0800 
 30 H        3.7260     2.0010    -0.6920 H     1 <1>   0.1500 
 31 H       -4.0940     3.2980    -1.1430 H     1 <1>   0.0800 
 32 H       -3.5090     3.4780     0.4940 H     1 <1>   0.0800 
 33 H        0.9680     4.3000    -0.1610 H     1 <1>   0.0800 
 34 H        2.1810     3.6140    -1.2360 H     1 <1>   0.0800 
 35 H        2.4660     3.6720     0.5140 H     1 <1>   0.0800 
 36 H        4.9560    -0.0740    -0.6000 H     1 <1>   0.1500 
 37 H        3.3630    -3.3540     0.3770 H     1 <1>   0.0800 
 38 H        5.9080    -1.7820     0.8310 H     1 <1>   0.0800 
 39 H        5.6480    -3.4690     1.1990 H     1 <1>   0.0800 
 40 H        4.7660    -2.2400     2.0700 H     1 <1>   0.0800 
 41 H        5.3200    -2.2330    -1.6390 H     1 <1>   0.0800 
 42 H        3.7910    -2.9850    -2.0220 H     1 <1>   0.0800 
 43 H        5.0590    -3.9200    -1.2690 H     1 <1>   0.0800 
 44 H       -5.1780     2.6600     2.4410 H     1 <1>   0.1500 
 45 H       -6.6120     2.7790    -1.4640 H     1 <1>   0.1500 
 46 H       -8.6670     2.5980     0.2740 H     1 <1>   0.1500 
@<TRIPOS>BOND
  1   1   2  2   
  2   1   3  2   
  3   1   4  am  
  4   1   5  1   
  5   4   6  1   
  6   4  24  1   
  7   5   7  ar  
  8   5   8  ar  
  9   6   9  1   
 10   6  25  1   
 11   6  26  1   
 12   7  10  1   
 13   7  11  ar  
 14   8  12  ar  
 15   8  27  1   
 16   9  13  1   
 17   9  28  1   
 18   9  29  1   
 19  10  14  1   
 20  11  15  ar  
 21  11  30  1   
 22  12  15  ar  
 23  12  16  1   
 24  13  17  1   
 25  13  31  1   
 26  13  32  1   
 27  14  33  1   
 28  14  34  1   
 29  14  35  1   
 30  15  36  1   
 31  16  18  1   
 32  16  19  1   
 33  16  37  1   
 34  17  20  1   
 35  17  21  1   
 36  18  38  1   
 37  18  39  1   
 38  18  40  1   
 39  19  41  1   
 40  19  42  1   
 41  19  43  1   
 42  20  22  2   
 43  20  44  1   
 44  21  23  2   
 45  21  45  1   
 46  22  23  1   
 47  23  46  1   
@<TRIPOS>SUBSTRUCTURE
  1 ****   1 GROUP 4 **** **** 0

# MOE 2024.06 (io_trps.svl 2023.06)
