@<TRIPOS>MOLECULE
1-(4-Methoxy-3-methyl-benzenesulfonyl)-piperidine-4-carboxylic acid tert-butylam
53 54 1 0 0 
SMALL
USER_CHARGES


@<TRIPOS>ATOM
  1 S        0.1230    -0.4530     2.1870 S.o2  1 <1>   1.4470 
  2 O        0.4820    -1.6590     2.9010 O.2   1 <1>  -0.6500 
  3 O       -0.2660     0.7220     2.9380 O.2   1 <1>  -0.6500 
  4 N        1.4690    -0.0010     1.2590 N.am  1 <1>  -0.8490 
  5 C       -1.1270    -0.8490     0.9330 C.ar  1 <1>  -0.0090 
  6 C        2.6930     0.0000     2.0630 C.3   1 <1>   0.1960 
  7 C        1.2620     1.2850     0.5850 C.3   1 <1>   0.1960 
  8 C       -2.3930    -0.2780     0.9690 C.ar  1 <1>  -0.1500 
  9 C       -0.8440    -1.7350    -0.0990 C.ar  1 <1>  -0.1500 
 10 C        3.9120     0.2670     1.1760 C.3   1 <1>  -0.1600 
 11 C        2.4280     1.5820    -0.3580 C.3   1 <1>  -0.1600 
 12 C       -3.3500    -0.5670     0.0090 C.ar  1 <1>  -0.1430 
 13 C       -1.7850    -2.0370    -1.0650 C.ar  1 <1>  -0.1500 
 14 C        3.7660     1.5860     0.4000 C.3   1 <1>  -0.0190 
 15 C       -3.0480    -1.4530    -1.0190 C.ar  1 <1>   0.0830 
 16 C       -4.7230     0.0850     0.0900 C.3   1 <1>  -0.0970 
 17 C        4.9510     1.8160    -0.5370 C.2   1 <1>   0.5690 
 18 O       -4.0130    -1.7080    -1.9400 O.3   1 <1>  -0.3630 
 19 O        5.0950     1.0870    -1.4880 O.2   1 <1>  -0.5700 
 20 N        5.7990     2.8420    -0.2500 N.am  1 <1>  -0.7300 
 21 C       -3.8060    -2.6090    -3.0050 C.3   1 <1>   0.0400 
 22 C        7.0010     3.2680    -0.9730 C.3   1 <1>   0.3000 
 23 C        7.5640     4.4660    -0.2120 C.3   1 <1>  -0.2400 
 24 C        6.6270     3.6920    -2.3940 C.3   1 <1>  -0.2400 
 25 C        8.0280     2.1360    -0.9800 C.3   1 <1>  -0.2400 
 26 H        2.8190    -0.9600     2.5350 H     1 <1>   0.0800 
 27 H        2.6210     0.7480     2.8360 H     1 <1>   0.0800 
 28 H        1.1710     2.0740     1.3150 H     1 <1>   0.0800 
 29 H        0.3510     1.2530     0.0100 H     1 <1>   0.0800 
 30 H       -2.6290     0.4080     1.7660 H     1 <1>   0.1500 
 31 H        0.1320    -2.1910    -0.1420 H     1 <1>   0.1500 
 32 H        4.0220    -0.5510     0.4840 H     1 <1>   0.0800 
 33 H        4.7980     0.2990     1.7850 H     1 <1>   0.0800 
 34 H        2.2760     2.5370    -0.8290 H     1 <1>   0.0800 
 35 H        2.4470     0.8340    -1.1330 H     1 <1>   0.0800 
 36 H       -1.5170    -2.7270    -1.8420 H     1 <1>   0.1500 
 37 H        3.7390     2.3900     1.1130 H     1 <1>   0.0800 
 38 H       -4.7970     0.7400     0.9390 H     1 <1>   0.0800 
 39 H       -5.4810    -0.6730     0.1750 H     1 <1>   0.0800 
 40 H       -4.9080     0.6560    -0.8020 H     1 <1>   0.0800 
 41 H        5.6140     3.4100     0.5730 H     1 <1>   0.3700 
 42 H       -4.7080    -2.6470    -3.5890 H     1 <1>   0.0800 
 43 H       -3.5900    -3.5820    -2.6020 H     1 <1>   0.0800 
 44 H       -2.9930    -2.2520    -3.6120 H     1 <1>   0.0800 
 45 H        6.8490     5.2690    -0.1870 H     1 <1>   0.0800 
 46 H        8.4520     4.8260    -0.6990 H     1 <1>   0.0800 
 47 H        7.8240     4.1890     0.7940 H     1 <1>   0.0800 
 48 H        7.4900     4.0790    -2.9030 H     1 <1>   0.0800 
 49 H        6.2610     2.8530    -2.9570 H     1 <1>   0.0800 
 50 H        5.8710     4.4560    -2.3730 H     1 <1>   0.0800 
 51 H        8.2480     1.8180     0.0230 H     1 <1>   0.0800 
 52 H        8.9410     2.4680    -1.4410 H     1 <1>   0.0800 
 53 H        7.6640     1.2950    -1.5410 H     1 <1>   0.0800 
@<TRIPOS>BOND
  1   1   2  2   
  2   1   3  2   
  3   1   4  am  
  4   1   5  1   
  5   4   6  1   
  6   4   7  1   
  7   5   8  ar  
  8   5   9  ar  
  9   6  10  1   
 10   6  26  1   
 11   6  27  1   
 12   7  11  1   
 13   7  28  1   
 14   7  29  1   
 15   8  12  ar  
 16   8  30  1   
 17   9  13  ar  
 18   9  31  1   
 19  10  14  1   
 20  10  32  1   
 21  10  33  1   
 22  11  14  1   
 23  11  34  1   
 24  11  35  1   
 25  12  15  ar  
 26  12  16  1   
 27  13  15  ar  
 28  13  36  1   
 29  14  17  1   
 30  14  37  1   
 31  15  18  1   
 32  16  38  1   
 33  16  39  1   
 34  16  40  1   
 35  17  19  2   
 36  17  20  am  
 37  18  21  1   
 38  20  22  1   
 39  20  41  1   
 40  21  42  1   
 41  21  43  1   
 42  21  44  1   
 43  22  23  1   
 44  22  24  1   
 45  22  25  1   
 46  23  45  1   
 47  23  46  1   
 48  23  47  1   
 49  24  48  1   
 50  24  49  1   
 51  24  50  1   
 52  25  51  1   
 53  25  52  1   
 54  25  53  1   
@<TRIPOS>SUBSTRUCTURE
  1 ****   7 GROUP 4 **** **** 0

# MOE 2024.06 (io_trps.svl 2023.06)
