@<TRIPOS>MOLECULE
N-{1-[3-(4-Chloro-phenyl)-[1,2,4]oxadiazol-5-yl]-ethyl}-2,2-dimethyl-propionamid
39 40 1 0 0 
SMALL
USER_CHARGES


@<TRIPOS>ATOM
  1 CL       0.3580    -0.0560    -1.4350 Cl    1 <1>  -0.1770 
  2 C        1.7550     0.8740    -0.9610 C.ar  1 <1>   0.1770 
  3 C        2.9130     0.2220    -0.5860 C.ar  1 <1>  -0.1500 
  4 C        1.6880     2.2540    -0.9670 C.ar  1 <1>  -0.1500 
  5 C        4.0180     0.9660    -0.2110 C.ar  1 <1>  -0.1500 
  6 C        2.8000     2.9870    -0.5900 C.ar  1 <1>  -0.1500 
  7 C        3.9920     2.3650    -0.2020 C.ar  1 <1>   0.0540 
  8 C        5.1600     3.1350     0.1940 C.2   1 <1>   0.4620 
  9 N        6.2980     2.6480     0.5410 N.2   1 <1>  -0.4100 
 10 N        5.1630     4.4720     0.2370 N.2   1 <1>  -0.5650 
 11 O        7.0880     3.6360     0.8190 O.3   1 <1>  -0.0190 
 12 C        6.3540     4.6990     0.6180 C.2   1 <1>   0.2980 
 13 C        6.9770     6.0760     0.8540 C.3   1 <1>   0.4000 
 14 N        8.2020     6.2400     0.0420 N.am  1 <1>  -0.7300 
 15 C        7.3410     6.2710     2.3260 C.3   1 <1>  -0.2400 
 16 C        8.8480     7.2810    -0.5410 C.2   1 <1>   0.5690 
 17 O        9.8290     6.9870    -1.1790 O.2   1 <1>  -0.5700 
 18 C        8.4840     8.7960    -0.4300 C.3   1 <1>   0.0610 
 19 C        7.0040     9.1130    -0.1370 C.3   1 <1>  -0.2400 
 20 C        8.8230     9.5160    -1.7550 C.3   1 <1>  -0.2400 
 21 C        9.3370     9.4380     0.6800 C.3   1 <1>  -0.2400 
 22 H        2.9440    -0.8530    -0.5890 H     1 <1>   0.1500 
 23 H        0.7770     2.7430    -1.2630 H     1 <1>   0.1500 
 24 H        4.9190     0.4530     0.0810 H     1 <1>   0.1500 
 25 H        2.7420     4.0620    -0.5960 H     1 <1>   0.1500 
 26 H        6.2390     6.7960     0.5630 H     1 <1>   0.0800 
 27 H        8.6620     5.3480    -0.1530 H     1 <1>   0.3700 
 28 H        7.7220     7.2610     2.4920 H     1 <1>   0.0800 
 29 H        6.4640     6.1400     2.9360 H     1 <1>   0.0800 
 30 H        8.0790     5.5510     2.6310 H     1 <1>   0.0800 
 31 H        6.3650     8.5940    -0.8310 H     1 <1>   0.0800 
 32 H        6.8160    10.1670    -0.2400 H     1 <1>   0.0800 
 33 H        6.7410     8.8470     0.8690 H     1 <1>   0.0800 
 34 H        8.2620     9.0850    -2.5650 H     1 <1>   0.0800 
 35 H        9.8700     9.4140    -1.9850 H     1 <1>   0.0800 
 36 H        8.5980    10.5660    -1.6990 H     1 <1>   0.0800 
 37 H        9.1270     8.9820     1.6300 H     1 <1>   0.0800 
 38 H        9.1420    10.4930     0.7540 H     1 <1>   0.0800 
 39 H       10.3830     9.2990     0.4670 H     1 <1>   0.0800 
@<TRIPOS>BOND
  1   1   2  1   
  2   2   3  ar  
  3   2   4  ar  
  4   3   5  ar  
  5   3  22  1   
  6   4   6  ar  
  7   4  23  1   
  8   5   7  ar  
  9   5  24  1   
 10   6   7  ar  
 11   6  25  1   
 12   7   8  1   
 13   8   9  2   
 14   8  10  1   
 15   9  11  1   
 16  10  12  2   
 17  11  12  1   
 18  12  13  1   
 19  13  14  1   
 20  13  15  1   
 21  13  26  1   
 22  14  16  am  
 23  14  27  1   
 24  15  28  1   
 25  15  29  1   
 26  15  30  1   
 27  16  17  2   
 28  16  18  1   
 29  18  19  1   
 30  18  20  1   
 31  18  21  1   
 32  19  31  1   
 33  19  32  1   
 34  19  33  1   
 35  20  34  1   
 36  20  35  1   
 37  20  36  1   
 38  21  37  1   
 39  21  38  1   
 40  21  39  1   
@<TRIPOS>SUBSTRUCTURE
  1 ****  10 GROUP 4 **** **** 0

# MOE 2024.06 (io_trps.svl 2023.06)
