@<TRIPOS>MOLECULE
4-(2-Chloro-benzoyl)-piperazine-1-sulfonic acid dimethylamide
39 40 1 0 0 
SMALL
USER_CHARGES


@<TRIPOS>ATOM
  1 CL       3.1280    -0.3780     1.9650 Cl    1 <1>  -0.1770 
  2 C        2.2490    -1.4770     0.9300 C.ar  1 <1>   0.1770 
  3 C        2.4240    -1.4300    -0.4510 C.ar  1 <1>   0.0860 
  4 C        1.3940    -2.3830     1.5310 C.ar  1 <1>  -0.1500 
  5 C        3.3250    -0.4920    -1.0790 C.2   1 <1>   0.5440 
  6 C        1.6870    -2.3320    -1.2190 C.ar  1 <1>  -0.1500 
  7 C        0.6820    -3.2730     0.7470 C.ar  1 <1>  -0.1500 
  8 O        2.8590     0.4320    -1.7170 O.2   1 <1>  -0.5700 
  9 N        4.6950    -0.6330    -1.0070 N.am  1 <1>  -0.6600 
 10 C        0.8290    -3.2440    -0.6300 C.ar  1 <1>  -0.1500 
 11 C        5.6270     0.4080    -1.5420 C.3   1 <1>   0.1400 
 12 C        5.4020    -1.7820    -0.3620 C.3   1 <1>   0.1400 
 13 C        6.6570     0.8210    -0.4780 C.3   1 <1>   0.1960 
 14 C        6.4440    -1.2910     0.6590 C.3   1 <1>   0.1960 
 15 N        7.3880    -0.3440     0.0520 N.am  1 <1>  -0.8490 
 16 S        8.5650     0.1190     1.1660 S.o2  1 <1>   1.5760 
 17 O        7.9860     1.0990     2.0560 O.2   1 <1>  -0.6500 
 18 O        9.1990    -1.0700     1.6900 O.2   1 <1>  -0.6500 
 19 N        9.6630     0.8910     0.1350 N.am  1 <1>  -0.8490 
 20 C       10.6410     1.6770     0.8860 C.3   1 <1>   0.1160 
 21 C       10.3480    -0.0500    -0.7560 C.3   1 <1>   0.1160 
 22 H        1.2870    -2.3880     2.6010 H     1 <1>   0.1500 
 23 H        1.7930    -2.3060    -2.2900 H     1 <1>   0.1500 
 24 H        0.0120    -3.9830     1.2040 H     1 <1>   0.1500 
 25 H        0.2710    -3.9310    -1.2440 H     1 <1>   0.1500 
 26 H        5.0830     1.2810    -1.8560 H     1 <1>   0.0800 
 27 H        6.1430     0.0130    -2.3990 H     1 <1>   0.0800 
 28 H        5.9060    -2.3520    -1.1240 H     1 <1>   0.0800 
 29 H        4.7080    -2.4370     0.1310 H     1 <1>   0.0800 
 30 H        6.1460     1.3350     0.3200 H     1 <1>   0.0800 
 31 H        7.3520     1.5130    -0.9230 H     1 <1>   0.0800 
 32 H        6.9830    -2.1440     1.0340 H     1 <1>   0.0800 
 33 H        5.9400    -0.8260     1.4900 H     1 <1>   0.0800 
 34 H       10.1350     2.4190     1.4820 H     1 <1>   0.0800 
 35 H       11.3080     2.1850     0.2100 H     1 <1>   0.0800 
 36 H       11.2140     1.0400     1.5390 H     1 <1>   0.0800 
 37 H        9.6260    -0.6030    -1.3320 H     1 <1>   0.0800 
 38 H       10.9430    -0.7460    -0.1880 H     1 <1>   0.0800 
 39 H       10.9860     0.4850    -1.4380 H     1 <1>   0.0800 
@<TRIPOS>BOND
  1   1   2  1   
  2   2   3  ar  
  3   2   4  ar  
  4   3   5  1   
  5   3   6  ar  
  6   4   7  ar  
  7   4  22  1   
  8   5   8  2   
  9   5   9  am  
 10   6  10  ar  
 11   6  23  1   
 12   7  10  ar  
 13   7  24  1   
 14   9  11  1   
 15   9  12  1   
 16  10  25  1   
 17  11  13  1   
 18  11  26  1   
 19  11  27  1   
 20  12  14  1   
 21  12  28  1   
 22  12  29  1   
 23  13  15  1   
 24  13  30  1   
 25  13  31  1   
 26  14  15  1   
 27  14  32  1   
 28  14  33  1   
 29  15  16  am  
 30  16  17  2   
 31  16  18  2   
 32  16  19  am  
 33  19  20  1   
 34  19  21  1   
 35  20  34  1   
 36  20  35  1   
 37  20  36  1   
 38  21  37  1   
 39  21  38  1   
 40  21  39  1   
@<TRIPOS>SUBSTRUCTURE
  1 ****  12 GROUP 4 **** **** 0

# MOE 2024.06 (io_trps.svl 2023.06)
