@<TRIPOS>MOLECULE
1,7-Dimethyl-3-(2-methyl-allyl)-8-(tetrahydro-furan-2-ylmethyl)-1H,8H-imidazo[2,
50 53 1 0 0 
SMALL
USER_CHARGES


@<TRIPOS>ATOM
  1 O        1.5490    -0.6310     1.1140 O.2   1 <1>  -0.5750 
  2 C        2.2600     0.3430     0.9710 C.2   1 <1>   0.6860 
  3 N        1.7030     1.6100     0.8610 N.am  1 <1>  -0.4260 
  4 N        3.6400     0.1860     0.9260 N.am  1 <1>  -0.4420 
  5 C        2.4930     2.7490     0.8230 C.2   1 <1>   0.6990 
  6 C        0.2400     1.7530     0.6500 C.3   1 <1>   0.2720 
  7 C        4.4220     1.3190     0.8370 C.2   1 <1>   0.4210 
  8 C        4.2600    -1.1690     1.0160 C.3   1 <1>   0.0520 
  9 O        2.0030     3.8670     0.8530 O.2   1 <1>  -0.5750 
 10 C        3.9050     2.5710     0.7780 C.2   1 <1>   0.2710 
 11 C       -0.0440     1.8840    -0.8420 C.2   1 <1>  -0.2830 
 12 N        5.7820     1.3990     0.7870 N.pl3 1 <1>  -0.7040 
 13 N        5.0000     3.4440     0.6740 N.pl3 1 <1>  -0.6330 
 14 C       -0.3670     3.0460    -1.4180 C.2   1 <1>  -0.3060 
 15 C        0.0540     0.5860    -1.6300 C.3   1 <1>  -0.1090 
 16 C        6.0900     2.6890     0.6770 C.cat 1 <1>   1.0690 
 17 C        5.4180     4.7530     0.5470 C.2   1 <1>   0.2220 
 18 N        7.2050     3.4260     0.5620 N.pl3 1 <1>  -0.5720 
 19 C        6.7690     4.7420     0.4800 C.2   1 <1>   0.1580 
 20 C        8.6190     2.9350     0.6200 C.3   1 <1>   0.1600 
 21 C        7.7210     5.9160     0.3420 C.3   1 <1>  -0.1090 
 22 C        8.9400     1.8390    -0.4160 C.3   1 <1>   0.1930 
 23 O        8.1770     0.6930    -0.1910 O.3   1 <1>  -0.5650 
 24 C       10.3780     1.3450    -0.3440 C.3   1 <1>  -0.1670 
 25 C        8.7920    -0.4070    -0.7930 C.3   1 <1>   0.1120 
 26 C       10.2800    -0.0790    -0.8630 C.3   1 <1>  -0.1670 
 27 H       -0.1110     2.6320     1.1650 H     1 <1>   0.0720 
 28 H       -0.2950     0.9130     1.0580 H     1 <1>   0.0720 
 29 H        3.5800    -1.9190     0.6470 H     1 <1>   0.0720 
 30 H        4.4940    -1.3920     2.0430 H     1 <1>   0.0720 
 31 H        5.1590    -1.2140     0.4270 H     1 <1>   0.0720 
 32 H        6.5090     0.6890     0.6230 H     1 <1>   0.4450 
 33 H       -0.5790     3.1640    -2.4670 H     1 <1>   0.1430 
 34 H       -0.4460     3.9820    -0.8900 H     1 <1>   0.1430 
 35 H        1.0590     0.2040    -1.6160 H     1 <1>   0.0720 
 36 H       -0.2300     0.7430    -2.6560 H     1 <1>   0.0720 
 37 H       -0.6020    -0.1550    -1.2090 H     1 <1>   0.0720 
 38 H        4.7260     5.5810     0.5150 H     1 <1>   0.1430 
 39 H        8.8220     2.5560     1.6070 H     1 <1>   0.0720 
 40 H        9.2890     3.7590     0.4500 H     1 <1>   0.0720 
 41 H        8.3830     5.9610     1.1880 H     1 <1>   0.0720 
 42 H        7.1720     6.8390     0.2910 H     1 <1>   0.0720 
 43 H        8.3050     5.8180    -0.5560 H     1 <1>   0.0720 
 44 H        8.7280     2.1880    -1.4130 H     1 <1>   0.0720 
 45 H       10.7220     1.3380     0.6760 H     1 <1>   0.0720 
 46 H       11.0420     1.9510    -0.9360 H     1 <1>   0.0720 
 47 H        8.3770    -0.5300    -1.7800 H     1 <1>   0.0720 
 48 H        8.6000    -1.2830    -0.1990 H     1 <1>   0.0720 
 49 H       10.8570    -0.7600    -0.2620 H     1 <1>   0.0720 
 50 H       10.6200    -0.1470    -1.8830 H     1 <1>   0.0720 
@<TRIPOS>BOND
  1   1   2  2   
  2   2   3  am  
  3   2   4  am  
  4   3   5  am  
  5   3   6  1   
  6   4   7  1   
  7   4   8  1   
  8   5   9  2   
  9   5  10  1   
 10   6  11  1   
 11   6  27  1   
 12   6  28  1   
 13   7  10  2   
 14   7  12  1   
 15   8  29  1   
 16   8  30  1   
 17   8  31  1   
 18  10  13  1   
 19  11  14  2   
 20  11  15  1   
 21  12  16  ar  
 22  12  32  1   
 23  13  16  ar  
 24  13  17  1   
 25  14  33  1   
 26  14  34  1   
 27  15  35  1   
 28  15  36  1   
 29  15  37  1   
 30  16  18  ar  
 31  17  19  2   
 32  17  38  1   
 33  18  19  1   
 34  18  20  1   
 35  19  21  1   
 36  20  22  1   
 37  20  39  1   
 38  20  40  1   
 39  21  41  1   
 40  21  42  1   
 41  21  43  1   
 42  22  23  1   
 43  22  24  1   
 44  22  44  1   
 45  23  25  1   
 46  24  26  1   
 47  24  45  1   
 48  24  46  1   
 49  25  26  1   
 50  25  47  1   
 51  25  48  1   
 52  26  49  1   
 53  26  50  1   
@<TRIPOS>SUBSTRUCTURE
  1 ****   7 GROUP 4 **** **** 0

# MOE 2024.06 (io_trps.svl 2023.06)
