@<TRIPOS>MOLECULE
6-Bromo-3-ethyl-2-isopropylsulfanyl-3H-quinazolin-4-one
33 34 1 0 0 
SMALL
USER_CHARGES


@<TRIPOS>ATOM
  1 BR       0.0350    -0.8870     1.3310 Br    1 <1>  -0.1110 
  2 C        1.8860    -1.3370     1.0640 C.ar  1 <1>   0.1110 
  3 C        2.7650    -0.3520     0.6790 C.ar  1 <1>  -0.1500 
  4 C        2.2840    -2.6480     1.2680 C.ar  1 <1>  -0.1500 
  5 C        4.1120    -0.6710     0.4820 C.ar  1 <1>   0.0860 
  6 C        3.6130    -2.9650     1.0750 C.ar  1 <1>  -0.1500 
  7 C        5.1040     0.2860     0.0800 C.2   1 <1>   0.5440 
  8 C        4.5330    -1.9930     0.6850 C.ar  1 <1>   0.1790 
  9 O        4.8070     1.4560    -0.1080 O.2   1 <1>  -0.5700 
 10 N        6.4040    -0.1380    -0.0920 N.am  1 <1>  -0.4200 
 11 N        5.8450    -2.3610     0.5080 N.2   1 <1>  -0.6290 
 12 C        6.6900    -1.4690     0.1460 C.2   1 <1>   0.6510 
 13 C        7.4440     0.8460    -0.5140 C.3   1 <1>   0.1400 
 14 S        8.3910    -1.9880    -0.0670 S.3   1 <1>  -0.3710 
 15 C        8.1150     1.4610     0.7150 C.3   1 <1>  -0.2400 
 16 C        8.4120    -3.8010     0.2850 C.3   1 <1>   0.1500 
 17 C        9.8340    -4.1540     0.7150 C.3   1 <1>  -0.2400 
 18 C        7.9990    -4.5300    -0.9930 C.3   1 <1>  -0.2400 
 19 H        2.4220     0.6570     0.5290 H     1 <1>   0.1500 
 20 H        1.5660    -3.3910     1.5690 H     1 <1>   0.1500 
 21 H        3.9600    -3.9730     1.2240 H     1 <1>   0.1500 
 22 H        6.9880     1.6280    -1.0980 H     1 <1>   0.0800 
 23 H        8.1760     0.3780    -1.1470 H     1 <1>   0.0800 
 24 H        7.3860     1.9720     1.3190 H     1 <1>   0.0800 
 25 H        8.8560     2.1740     0.4020 H     1 <1>   0.0800 
 26 H        8.6010     0.7020     1.3030 H     1 <1>   0.0800 
 27 H        7.7190    -3.9900     1.0880 H     1 <1>   0.0800 
 28 H       10.5330    -3.9170    -0.0680 H     1 <1>   0.0800 
 29 H        9.9030    -5.2040     0.9360 H     1 <1>   0.0800 
 30 H       10.0990    -3.6000     1.5970 H     1 <1>   0.0800 
 31 H        8.6710    -4.2890    -1.7970 H     1 <1>   0.0800 
 32 H        8.0180    -5.5930    -0.8320 H     1 <1>   0.0800 
 33 H        7.0010    -4.2470    -1.2740 H     1 <1>   0.0800 
@<TRIPOS>BOND
  1   1   2  1   
  2   2   3  ar  
  3   2   4  ar  
  4   3   5  ar  
  5   3  19  1   
  6   4   6  ar  
  7   4  20  1   
  8   5   7  1   
  9   5   8  ar  
 10   6   8  ar  
 11   6  21  1   
 12   7   9  2   
 13   7  10  am  
 14   8  11  1   
 15  10  12  1   
 16  10  13  1   
 17  11  12  2   
 18  12  14  1   
 19  13  15  1   
 20  13  22  1   
 21  13  23  1   
 22  14  16  1   
 23  15  24  1   
 24  15  25  1   
 25  15  26  1   
 26  16  17  1   
 27  16  18  1   
 28  16  27  1   
 29  17  28  1   
 30  17  29  1   
 31  17  30  1   
 32  18  31  1   
 33  18  32  1   
 34  18  33  1   
@<TRIPOS>SUBSTRUCTURE
  1 ****  11 GROUP 4 **** **** 0

# MOE 2024.06 (io_trps.svl 2023.06)
