@<TRIPOS>MOLECULE
3-tert-Butyl-6-(4-ethoxy-phenyl)-[1,2,4]triazolo[3,4-b][1,3,4]thiadiazole
39 41 1 0 0 
SMALL
USER_CHARGES


@<TRIPOS>ATOM
  1 S        0.1760     0.0080     0.6650 S.3   1 <1>  -0.1970 
  2 C        1.0520     1.5090     0.5060 C.2   1 <1>   0.2420 
  3 C       -1.3390     0.8770     0.2840 C.2   1 <1>   0.5050 
  4 N        2.2770     1.8770     0.6120 N.2   1 <1>  -0.3380 
  5 N        0.1970     2.4680     0.2030 N.pl3 1 <1>   0.5050 
  6 N       -1.1530     2.1330     0.0730 N.2   1 <1>  -0.6520 
  7 C       -2.5830     0.1320     0.2480 C.ar  1 <1>   0.0860 
  8 N        2.2480     3.1980     0.3570 N.2   1 <1>  -0.3380 
  9 C        1.0130     3.5380     0.1170 C.2   1 <1>   0.0060 
 10 C       -3.7790     0.7910    -0.0480 C.ar  1 <1>  -0.1500 
 11 C       -2.6680    -1.2440     0.4960 C.ar  1 <1>  -0.1500 
 12 C        0.5130     4.9500    -0.2220 C.3   1 <1>   0.1800 
 13 C       -4.9870     0.1230    -0.0940 C.ar  1 <1>  -0.1500 
 14 C       -3.8730    -1.9200     0.4520 C.ar  1 <1>  -0.1500 
 15 C        1.6810     5.9510    -0.2450 C.3   1 <1>  -0.2400 
 16 C       -0.1500     4.9560    -1.6080 C.3   1 <1>  -0.2400 
 17 C       -0.4990     5.4190     0.8330 C.3   1 <1>  -0.2400 
 18 C       -5.0480    -1.2370     0.1550 C.ar  1 <1>   0.0830 
 19 O       -6.2680    -1.8180     0.0900 O.3   1 <1>  -0.3630 
 20 C       -6.4480    -3.1950     0.3260 C.3   1 <1>   0.1200 
 21 C       -7.9330    -3.5100     0.1730 C.3   1 <1>  -0.2400 
 22 H       -3.7630     1.8500    -0.2470 H     1 <1>   0.1500 
 23 H       -1.7840    -1.8100     0.7300 H     1 <1>   0.1500 
 24 H       -5.8960     0.6500    -0.3240 H     1 <1>   0.1500 
 25 H       -3.8830    -2.9750     0.6500 H     1 <1>   0.1500 
 26 H        2.4090     5.6590    -0.9810 H     1 <1>   0.0800 
 27 H        2.1670     5.9800     0.7140 H     1 <1>   0.0800 
 28 H        1.3350     6.9410    -0.4820 H     1 <1>   0.0800 
 29 H        0.5440     4.6060    -2.3510 H     1 <1>   0.0800 
 30 H       -0.4610     5.9510    -1.8730 H     1 <1>   0.0800 
 31 H       -1.0150     4.3190    -1.6230 H     1 <1>   0.0800 
 32 H       -0.0510     5.3940     1.8110 H     1 <1>   0.0800 
 33 H       -1.3680     4.7850     0.8420 H     1 <1>   0.0800 
 34 H       -0.8190     6.4250     0.6300 H     1 <1>   0.0800 
 35 H       -6.1130    -3.4180     1.3240 H     1 <1>   0.0800 
 36 H       -5.8670    -3.7440    -0.3960 H     1 <1>   0.0800 
 37 H       -8.5050    -2.9440     0.8870 H     1 <1>   0.0800 
 38 H       -8.1050    -4.5560     0.3470 H     1 <1>   0.0800 
 39 H       -8.2610    -3.2680    -0.8220 H     1 <1>   0.0800 
@<TRIPOS>BOND
  1   1   2  1   
  2   1   3  1   
  3   2   4  2   
  4   2   5  1   
  5   3   6  2   
  6   3   7  1   
  7   4   8  1   
  8   5   6  1   
  9   5   9  1   
 10   7  10  ar  
 11   7  11  ar  
 12   8   9  2   
 13   9  12  1   
 14  10  13  ar  
 15  10  22  1   
 16  11  14  ar  
 17  11  23  1   
 18  12  15  1   
 19  12  16  1   
 20  12  17  1   
 21  13  18  ar  
 22  13  24  1   
 23  14  18  ar  
 24  14  25  1   
 25  15  26  1   
 26  15  27  1   
 27  15  28  1   
 28  16  29  1   
 29  16  30  1   
 30  16  31  1   
 31  17  32  1   
 32  17  33  1   
 33  17  34  1   
 34  18  19  1   
 35  19  20  1   
 36  20  21  1   
 37  20  35  1   
 38  20  36  1   
 39  21  37  1   
 40  21  38  1   
 41  21  39  1   
@<TRIPOS>SUBSTRUCTURE
  1 ****   3 GROUP 4 **** **** 0

# MOE 2024.06 (io_trps.svl 2023.06)
