@<TRIPOS>MOLECULE
N-Propyl-3-(3-o-tolyl-[1,2,4]oxadiazol-5-yl)-propionamide
39 40 1 0 0 
SMALL
USER_CHARGES


@<TRIPOS>ATOM
  1 O        0.4110    -0.1950     0.6010 O.2   1 <1>  -0.5700 
  2 C        0.8770    -1.3050     0.6430 C.2   1 <1>   0.5690 
  3 N        2.2100    -1.4730     0.4870 N.am  1 <1>  -0.7300 
  4 C       -0.0310    -2.4990     0.8730 C.3   1 <1>  -0.0990 
  5 C        3.0080    -2.7160     0.5360 C.3   1 <1>   0.1400 
  6 C       -1.5230    -2.1550     0.7390 C.3   1 <1>   0.0200 
  7 C        3.3820    -3.1250    -0.8880 C.3   1 <1>  -0.1600 
  8 C       -2.3810    -3.3860     0.9440 C.2   1 <1>   0.2980 
  9 C        4.2030    -4.4190    -0.9000 C.3   1 <1>  -0.2400 
 10 O       -2.4870    -3.8850     2.1480 O.3   1 <1>  -0.0190 
 11 N       -3.0150    -4.0050     0.0390 N.2   1 <1>  -0.5650 
 12 N       -3.2540    -4.9180     1.9940 N.2   1 <1>  -0.4100 
 13 C       -3.5750    -4.9890     0.7510 C.2   1 <1>   0.4620 
 14 C       -4.4110    -6.0220     0.1640 C.ar  1 <1>   0.0540 
 15 C       -5.4710    -5.7630    -0.7190 C.ar  1 <1>  -0.1440 
 16 C       -4.1570    -7.3540     0.4950 C.ar  1 <1>  -0.1500 
 17 C       -6.2130    -6.8080    -1.2460 C.ar  1 <1>  -0.1500 
 18 C       -5.8450    -4.3410    -1.1200 C.3   1 <1>  -0.0970 
 19 C       -4.9020    -8.3910    -0.0290 C.ar  1 <1>  -0.1500 
 20 C       -5.9330    -8.1190    -0.9060 C.ar  1 <1>  -0.1500 
 21 H        2.7350    -0.6150     0.3040 H     1 <1>   0.3700 
 22 H        0.1600    -2.8850     1.8570 H     1 <1>   0.0800 
 23 H        0.2110    -3.2600     0.1540 H     1 <1>   0.0800 
 24 H        2.4490    -3.5040     1.0120 H     1 <1>   0.0800 
 25 H        3.8990    -2.5400     1.1160 H     1 <1>   0.0800 
 26 H       -1.7120    -1.7550    -0.2420 H     1 <1>   0.0800 
 27 H       -1.7990    -1.4090     1.4620 H     1 <1>   0.0800 
 28 H        3.9570    -2.3390    -1.3480 H     1 <1>   0.0800 
 29 H        2.4850    -3.2730    -1.4650 H     1 <1>   0.0800 
 30 H        5.1160    -4.2920    -0.3440 H     1 <1>   0.0800 
 31 H        4.4560    -4.6840    -1.9120 H     1 <1>   0.0800 
 32 H        3.6410    -5.2280    -0.4660 H     1 <1>   0.0800 
 33 H       -3.3550    -7.5750     1.1780 H     1 <1>   0.1500 
 34 H       -7.0220    -6.6100    -1.9280 H     1 <1>   0.1500 
 35 H       -5.8860    -3.7070    -0.2520 H     1 <1>   0.0800 
 36 H       -6.8070    -4.3140    -1.5990 H     1 <1>   0.0800 
 37 H       -5.1130    -3.9500    -1.8030 H     1 <1>   0.0800 
 38 H       -4.6800    -9.4090     0.2430 H     1 <1>   0.1500 
 39 H       -6.5170    -8.9220    -1.3210 H     1 <1>   0.1500 
@<TRIPOS>BOND
  1   1   2  2   
  2   2   3  am  
  3   2   4  1   
  4   3   5  1   
  5   3  21  1   
  6   4   6  1   
  7   4  22  1   
  8   4  23  1   
  9   5   7  1   
 10   5  24  1   
 11   5  25  1   
 12   6   8  1   
 13   6  26  1   
 14   6  27  1   
 15   7   9  1   
 16   7  28  1   
 17   7  29  1   
 18   8  10  1   
 19   8  11  2   
 20   9  30  1   
 21   9  31  1   
 22   9  32  1   
 23  10  12  1   
 24  11  13  1   
 25  12  13  2   
 26  13  14  1   
 27  14  15  ar  
 28  14  16  ar  
 29  15  17  ar  
 30  15  18  1   
 31  16  19  ar  
 32  16  33  1   
 33  17  20  ar  
 34  17  34  1   
 35  18  35  1   
 36  18  36  1   
 37  18  37  1   
 38  19  20  ar  
 39  19  38  1   
 40  20  39  1   
@<TRIPOS>SUBSTRUCTURE
  1 ****  11 GROUP 4 **** **** 0

# MOE 2024.06 (io_trps.svl 2023.06)
