@<TRIPOS>MOLECULE
Pentanoic acid (3-m-tolyl-[1,2,4]oxadiazol-5-ylmethyl)-amide
39 40 1 0 0 
SMALL
USER_CHARGES


@<TRIPOS>ATOM
  1 O       -1.1260    -1.0180    -1.7140 O.2   1 <1>  -0.5700 
  2 C       -1.9570    -1.1220    -0.8500 C.2   1 <1>   0.5690 
  3 N       -1.7360    -1.9720     0.1780 N.am  1 <1>  -0.7300 
  4 C       -3.2270    -0.2940    -0.9480 C.3   1 <1>  -0.0990 
  5 C       -2.6410    -2.2990     1.3110 C.3   1 <1>   0.3200 
  6 C       -3.1270     1.0180    -0.1530 C.3   1 <1>  -0.1600 
  7 C       -3.6480    -3.3780     0.9400 C.2   1 <1>   0.2980 
  8 C       -4.4280     1.8240    -0.2420 C.3   1 <1>  -0.1600 
  9 O       -3.2100    -4.5840     0.6960 O.3   1 <1>  -0.0190 
 10 N       -4.9040    -3.2230     0.8420 N.2   1 <1>  -0.5650 
 11 C       -4.3210     3.1300     0.5500 C.3   1 <1>  -0.2400 
 12 N       -4.2800    -5.2570     0.4160 N.2   1 <1>  -0.4100 
 13 C       -5.2860    -4.4580     0.4950 C.2   1 <1>   0.4620 
 14 C       -6.6740    -4.8120     0.2460 C.ar  1 <1>   0.0540 
 15 C       -7.7070    -3.8810     0.3800 C.ar  1 <1>  -0.1500 
 16 C       -7.0300    -6.1050    -0.1410 C.ar  1 <1>  -0.1500 
 17 C       -9.0290    -4.2150     0.1420 C.ar  1 <1>  -0.1430 
 18 C       -8.3470    -6.4510    -0.3800 C.ar  1 <1>  -0.1500 
 19 C       -9.3470    -5.5070    -0.2380 C.ar  1 <1>  -0.1500 
 20 C      -10.1280    -3.1790     0.2990 C.3   1 <1>  -0.0970 
 21 H       -0.8890    -2.5370     0.0960 H     1 <1>   0.3700 
 22 H       -4.0650    -0.8740    -0.6100 H     1 <1>   0.0800 
 23 H       -3.3950    -0.0660    -1.9850 H     1 <1>   0.0800 
 24 H       -3.1740    -1.4170     1.6160 H     1 <1>   0.0800 
 25 H       -2.0540    -2.6360     2.1470 H     1 <1>   0.0800 
 26 H       -2.3130     1.6030    -0.5480 H     1 <1>   0.0800 
 27 H       -2.9070     0.8030     0.8780 H     1 <1>   0.0800 
 28 H       -5.2450     1.2400     0.1480 H     1 <1>   0.0800 
 29 H       -4.6430     2.0520    -1.2720 H     1 <1>   0.0800 
 30 H       -4.1300     2.9280     1.5890 H     1 <1>   0.0800 
 31 H       -5.2410     3.6830     0.4730 H     1 <1>   0.0800 
 32 H       -3.5230     3.7400     0.1630 H     1 <1>   0.0800 
 33 H       -7.4660    -2.8760     0.6780 H     1 <1>   0.1500 
 34 H       -6.2650    -6.8520    -0.2560 H     1 <1>   0.1500 
 35 H       -8.5950    -7.4550    -0.6760 H     1 <1>   0.1500 
 36 H      -10.3710    -5.7820    -0.4240 H     1 <1>   0.1500 
 37 H      -10.8640    -3.2960    -0.4770 H     1 <1>   0.0800 
 38 H       -9.7260    -2.1840     0.2360 H     1 <1>   0.0800 
 39 H      -10.6070    -3.2990     1.2540 H     1 <1>   0.0800 
@<TRIPOS>BOND
  1   1   2  2   
  2   2   3  am  
  3   2   4  1   
  4   3   5  1   
  5   3  21  1   
  6   4   6  1   
  7   4  22  1   
  8   4  23  1   
  9   5   7  1   
 10   5  24  1   
 11   5  25  1   
 12   6   8  1   
 13   6  26  1   
 14   6  27  1   
 15   7   9  1   
 16   7  10  2   
 17   8  11  1   
 18   8  28  1   
 19   8  29  1   
 20   9  12  1   
 21  10  13  1   
 22  11  30  1   
 23  11  31  1   
 24  11  32  1   
 25  12  13  2   
 26  13  14  1   
 27  14  15  ar  
 28  14  16  ar  
 29  15  17  ar  
 30  15  33  1   
 31  16  18  ar  
 32  16  34  1   
 33  17  19  ar  
 34  17  20  1   
 35  18  19  ar  
 36  18  35  1   
 37  19  36  1   
 38  20  37  1   
 39  20  38  1   
 40  20  39  1   
@<TRIPOS>SUBSTRUCTURE
  1 ****  10 GROUP 4 **** **** 0

# MOE 2024.06 (io_trps.svl 2023.06)
