@<TRIPOS>MOLECULE
3,3,6,6-Tetramethyl-9-(2-oxo-1,2-dihydro-quinolin-3-yl)-3,4,5,6,7,9-hexahydro-2H
58 62 1 0 0 
SMALL
USER_CHARGES


@<TRIPOS>ATOM
  1 O       -0.6120     2.1710    -2.9560 O.2   1 <1>  -0.5700 
  2 C       -0.5020     2.4810    -1.7830 C.2   1 <1>   0.6160 
  3 N        0.7560     2.7150    -1.3160 N.am  1 <1>  -0.5470 
  4 C       -1.5930     2.6150    -0.8620 C.2   1 <1>  -0.1240 
  5 C        1.0350     3.0770    -0.0030 C.ar  1 <1>   0.1170 
  6 C       -1.3590     2.9670     0.4300 C.2   1 <1>  -0.1780 
  7 C       -3.0080     2.3580    -1.3770 C.3   1 <1>   0.3350 
  8 C       -0.0300     3.2110     0.9020 C.ar  1 <1>   0.0280 
  9 C        2.3400     3.3060     0.4230 C.ar  1 <1>  -0.1500 
 10 C       -3.8400     3.6290    -1.1910 C.2   1 <1>  -0.1240 
 11 C       -3.6240     1.2010    -0.5870 C.2   1 <1>  -0.1240 
 12 C        0.2510     3.5750     2.2200 C.ar  1 <1>  -0.1500 
 13 C        2.5970     3.6650     1.7290 C.ar  1 <1>  -0.1500 
 14 C       -4.8310     3.6720    -0.2720 C.2   1 <1>  -0.0620 
 15 C       -3.5140     4.7520    -2.0180 C.2   1 <1>   0.4950 
 16 C       -4.6500     1.4210     0.2670 C.2   1 <1>  -0.0610 
 17 C       -3.0570    -0.0990    -0.7830 C.2   1 <1>   0.4950 
 18 C        1.5480     3.8000     2.6300 C.ar  1 <1>  -0.1500 
 19 O       -5.1930     2.6240     0.4770 O.3   1 <1>  -0.1530 
 20 C       -5.6520     4.9230     0.0020 C.3   1 <1>  -0.0220 
 21 O       -2.6350     4.7610    -2.8390 O.2   1 <1>  -0.5700 
 22 C       -4.3510     6.0130    -1.8730 C.3   1 <1>  -0.0990 
 23 C       -5.2990     0.3150     1.0860 C.3   1 <1>  -0.0220 
 24 O       -2.2100    -0.3580    -1.5960 O.2   1 <1>  -0.5700 
 25 C       -3.5490    -1.2290     0.1070 C.3   1 <1>  -0.0990 
 26 C       -4.9130     6.2040    -0.4480 C.3   1 <1>   0.0000 
 27 C       -5.0400    -1.0850     0.4850 C.3   1 <1>   0.0000 
 28 C       -3.7630     6.5200     0.5280 C.3   1 <1>  -0.2400 
 29 C       -5.8890     7.3910    -0.4380 C.3   1 <1>  -0.2400 
 30 C       -5.4120    -2.1650     1.5130 C.3   1 <1>  -0.2400 
 31 C       -5.9160    -1.2900    -0.7650 C.3   1 <1>  -0.2400 
 32 H        1.4920     2.6080    -2.0100 H     1 <1>   0.3700 
 33 H       -2.1590     3.0750     1.1410 H     1 <1>   0.1500 
 34 H       -3.0080     2.0980    -2.4220 H     1 <1>   0.0800 
 35 H        3.1490     3.2020    -0.2760 H     1 <1>   0.1500 
 36 H       -0.5580     3.6810     2.9200 H     1 <1>   0.1500 
 37 H        3.6070     3.8420     2.0560 H     1 <1>   0.1500 
 38 H        1.7550     4.0810     3.6490 H     1 <1>   0.1500 
 39 H       -5.8700     4.9870     1.0540 H     1 <1>   0.0800 
 40 H       -6.5880     4.8290    -0.5200 H     1 <1>   0.0800 
 41 H       -5.1590     5.9450    -2.5790 H     1 <1>   0.0800 
 42 H       -3.7500     6.8610    -2.1480 H     1 <1>   0.0800 
 43 H       -6.3600     0.4870     1.1460 H     1 <1>   0.0800 
 44 H       -4.9060     0.3690     2.0860 H     1 <1>   0.0800 
 45 H       -2.9440    -1.2280     0.9950 H     1 <1>   0.0800 
 46 H       -3.3860    -2.1640    -0.3970 H     1 <1>   0.0800 
 47 H       -3.0490     5.7170     0.5710 H     1 <1>   0.0800 
 48 H       -4.1430     6.6810     1.5210 H     1 <1>   0.0800 
 49 H       -3.2420     7.4100     0.2210 H     1 <1>   0.0800 
 50 H       -6.7090     7.2180    -1.1140 H     1 <1>   0.0800 
 51 H       -5.3890     8.2950    -0.7410 H     1 <1>   0.0800 
 52 H       -6.2910     7.5430     0.5480 H     1 <1>   0.0800 
 53 H       -4.8170    -2.0670     2.4040 H     1 <1>   0.0800 
 54 H       -5.2480    -3.1480     1.1060 H     1 <1>   0.0800 
 55 H       -6.4490    -2.0840     1.7900 H     1 <1>   0.0800 
 56 H       -5.7130    -0.5460    -1.5150 H     1 <1>   0.0800 
 57 H       -6.9600    -1.2280    -0.5100 H     1 <1>   0.0800 
 58 H       -5.7360    -2.2580    -1.1990 H     1 <1>   0.0800 
@<TRIPOS>BOND
  1   1   2  2   
  2   2   3  am  
  3   2   4  1   
  4   3   5  1   
  5   3  32  1   
  6   4   6  2   
  7   4   7  1   
  8   5   8  ar  
  9   5   9  ar  
 10   6   8  1   
 11   6  33  1   
 12   7  10  1   
 13   7  11  1   
 14   7  34  1   
 15   8  12  ar  
 16   9  13  ar  
 17   9  35  1   
 18  10  14  2   
 19  10  15  1   
 20  11  16  2   
 21  11  17  1   
 22  12  18  ar  
 23  12  36  1   
 24  13  18  ar  
 25  13  37  1   
 26  14  19  1   
 27  14  20  1   
 28  15  21  2   
 29  15  22  1   
 30  16  19  1   
 31  16  23  1   
 32  17  24  2   
 33  17  25  1   
 34  18  38  1   
 35  20  26  1   
 36  20  39  1   
 37  20  40  1   
 38  22  26  1   
 39  22  41  1   
 40  22  42  1   
 41  23  27  1   
 42  23  43  1   
 43  23  44  1   
 44  25  27  1   
 45  25  45  1   
 46  25  46  1   
 47  26  28  1   
 48  26  29  1   
 49  27  30  1   
 50  27  31  1   
 51  28  47  1   
 52  28  48  1   
 53  28  49  1   
 54  29  50  1   
 55  29  51  1   
 56  29  52  1   
 57  30  53  1   
 58  30  54  1   
 59  30  55  1   
 60  31  56  1   
 61  31  57  1   
 62  31  58  1   
@<TRIPOS>SUBSTRUCTURE
  1 ****   4 GROUP 4 **** **** 0

# MOE 2024.06 (io_trps.svl 2023.06)
