@<TRIPOS>MOLECULE
3-(2-Chloro-6-fluoro-phenyl)-4,5-dihydro-isoxazole-5-carboxylic acid (2-morpholi
44 46 1 0 0 
SMALL
USER_CHARGES


@<TRIPOS>ATOM
  1 CL       0.3260     2.4150    -2.9760 Cl    1 <1>  -0.1770 
  2 C        0.2670     2.8310    -1.2800 C.ar  1 <1>   0.1770 
  3 C        1.4390     2.8330    -0.5270 C.ar  1 <1>   0.0860 
  4 C       -0.9640     3.1500    -0.7340 C.ar  1 <1>  -0.1500 
  5 C        1.2960     3.1870     0.8130 C.ar  1 <1>   0.1900 
  6 C        2.7210     2.4940    -1.0770 C.2   1 <1>   0.3030 
  7 C       -1.0620     3.4890     0.6070 C.ar  1 <1>  -0.1500 
  8 F        2.3620     3.2400     1.5690 F     1 <1>  -0.1900 
  9 C        0.0810     3.5090     1.3900 C.ar  1 <1>  -0.1500 
 10 N        3.3950     1.4450    -0.8570 N.2   1 <1>  -0.5130 
 11 C        3.4470     3.4450    -1.9880 C.3   1 <1>  -0.0990 
 12 O        4.5420     1.4910    -1.4980 O.3   1 <1>  -0.2170 
 13 C        4.8210     2.7840    -2.0030 C.3   1 <1>   0.2610 
 14 C        5.8090     3.4610    -1.0480 C.2   1 <1>   0.5690 
 15 O        6.6840     4.1760    -1.4800 O.2   1 <1>  -0.5700 
 16 N        5.7040     3.2280     0.2910 N.am  1 <1>  -0.7300 
 17 C        6.3840     3.9410     1.4100 C.3   1 <1>   0.1400 
 18 C        7.8220     3.4310     1.6320 C.3   1 <1>   0.3430 
 19 N        8.6490     3.6280     0.4070 N.4   1 <1>  -0.9590 
 20 C        9.6970     2.5720     0.2200 C.3   1 <1>   0.3430 
 21 C        9.2330     5.0060     0.2940 C.3   1 <1>   0.3430 
 22 C       10.5290     2.8330    -1.0500 C.3   1 <1>   0.1200 
 23 C       10.0810     5.1420    -0.9840 C.3   1 <1>   0.1200 
 24 O       11.0480     4.1320    -1.0340 O.3   1 <1>  -0.5600 
 25 H       -1.8430     3.1310    -1.3550 H     1 <1>   0.1500 
 26 H       -2.0190     3.7350     1.0370 H     1 <1>   0.1500 
 27 H        0.0310     3.7720     2.4320 H     1 <1>   0.1500 
 28 H        3.4800     4.4470    -1.5990 H     1 <1>   0.0800 
 29 H        3.0150     3.4410    -2.9720 H     1 <1>   0.0800 
 30 H        5.2300     2.6920    -2.9930 H     1 <1>   0.0800 
 31 H        4.9770     2.5420     0.5620 H     1 <1>   0.3700 
 32 H        5.8130     3.7930     2.3120 H     1 <1>   0.0800 
 33 H        6.4000     4.9970     1.2040 H     1 <1>   0.0800 
 34 H        7.7710     2.3830     1.8740 H     1 <1>   0.0800 
 35 H        8.2710     3.9440     2.4670 H     1 <1>   0.0800 
 36 H        7.9850     3.5590    -0.3920 H     1 <1>   0.4500 
 37 H        9.2340     1.6020     0.1480 H     1 <1>   0.0800 
 38 H       10.3630     2.5640     1.0680 H     1 <1>   0.0800 
 39 H        9.8600     5.2120     1.1450 H     1 <1>   0.0800 
 40 H        8.4420     5.7380     0.2700 H     1 <1>   0.0800 
 41 H        9.9300     2.7100    -1.9370 H     1 <1>   0.0800 
 42 H       11.3580     2.1490    -1.0990 H     1 <1>   0.0800 
 43 H       10.5930     6.0880    -0.9920 H     1 <1>   0.0800 
 44 H        9.4640     5.0790    -1.8650 H     1 <1>   0.0800 
@<TRIPOS>BOND
  1   1   2  1   
  2   2   3  ar  
  3   2   4  ar  
  4   3   5  ar  
  5   3   6  1   
  6   4   7  ar  
  7   4  25  1   
  8   5   8  1   
  9   5   9  ar  
 10   6  10  2   
 11   6  11  1   
 12   7   9  ar  
 13   7  26  1   
 14   9  27  1   
 15  10  12  1   
 16  11  13  1   
 17  11  28  1   
 18  11  29  1   
 19  12  13  1   
 20  13  14  1   
 21  13  30  1   
 22  14  15  2   
 23  14  16  am  
 24  16  17  1   
 25  16  31  1   
 26  17  18  1   
 27  17  32  1   
 28  17  33  1   
 29  18  19  1   
 30  18  34  1   
 31  18  35  1   
 32  19  20  1   
 33  19  21  1   
 34  19  36  1   
 35  20  22  1   
 36  20  37  1   
 37  20  38  1   
 38  21  23  1   
 39  21  39  1   
 40  21  40  1   
 41  22  24  1   
 42  22  41  1   
 43  22  42  1   
 44  23  24  1   
 45  23  43  1   
 46  23  44  1   
@<TRIPOS>SUBSTRUCTURE
  1 ****  16 GROUP 4 **** **** 0

# MOE 2024.06 (io_trps.svl 2023.06)
