@<TRIPOS>MOLECULE
Pentanedioic acid (furan-3-ylmethyl)-amide (furan-2-ylmethyl)-amide
39 40 1 0 0 
SMALL
USER_CHARGES


@<TRIPOS>ATOM
  1 O        1.2950     0.0830    -2.6650 O.2   1 <1>  -0.5700 
  2 C        1.1290     0.4900    -1.5430 C.2   1 <1>   0.5690 
  3 N        1.0400    -0.3480    -0.4870 N.am  1 <1>  -0.7300 
  4 C        1.0170     1.9880    -1.3180 C.3   1 <1>  -0.0990 
  5 C        1.1690    -1.8160    -0.5890 C.3   1 <1>   0.3200 
  6 C        2.3780     2.7060    -1.1900 C.3   1 <1>  -0.1600 
  7 C        1.2380    -2.4520     0.7910 C.2   1 <1>  -0.0400 
  8 C        2.8790     2.8430     0.2620 C.3   1 <1>  -0.0990 
  9 O        1.5790    -3.7240     0.8720 O.3   1 <1>  -0.2800 
 10 C        1.0090    -1.9510     2.0270 C.2   1 <1>  -0.1500 
 11 C        3.0450     1.5190     0.9780 C.2   1 <1>   0.5690 
 12 C        1.5780    -4.0610     2.1460 C.2   1 <1>  -0.0100 
 13 C        1.2340    -3.0090     2.9160 C.2   1 <1>  -0.1500 
 14 O        2.1690     1.1420     1.7180 O.2   1 <1>  -0.5700 
 15 N        4.1540     0.7860     0.7350 N.am  1 <1>  -0.7300 
 16 C        4.3850    -0.5810     1.2370 C.3   1 <1>   0.3210 
 17 C        4.6260    -1.5230     0.0720 C.2   1 <1>  -0.1810 
 18 C        4.6110    -1.2990    -1.2620 C.2   1 <1>  -0.0100 
 19 C        4.9050    -2.8890     0.2140 C.2   1 <1>  -0.1500 
 20 O        4.8670    -2.4080    -1.9260 O.3   1 <1>  -0.2800 
 21 C        5.0400    -3.3680    -1.0410 C.2   1 <1>  -0.0100 
 22 H        1.1360     0.0300     0.4650 H     1 <1>   0.3700 
 23 H        0.4010     2.1820    -0.4590 H     1 <1>   0.0800 
 24 H        0.5010     2.3890    -2.1730 H     1 <1>   0.0800 
 25 H        2.0590    -2.0580    -1.1420 H     1 <1>   0.0800 
 26 H        0.3250    -2.2120    -1.1270 H     1 <1>   0.0800 
 27 H        2.2750     3.6970    -1.5960 H     1 <1>   0.0800 
 28 H        3.1110     2.1920    -1.7890 H     1 <1>   0.0800 
 29 H        2.1840     3.4440     0.8220 H     1 <1>   0.0800 
 30 H        3.8210     3.3590     0.2670 H     1 <1>   0.0800 
 31 H        0.7130    -0.9570     2.3150 H     1 <1>   0.1500 
 32 H        1.8320    -5.0710     2.4150 H     1 <1>   0.1500 
 33 H        1.1390    -2.9550     3.9860 H     1 <1>   0.1500 
 34 H        4.8500     1.1120     0.0650 H     1 <1>   0.3700 
 35 H        3.5370    -0.9210     1.8050 H     1 <1>   0.0800 
 36 H        5.2450    -0.5790     1.8840 H     1 <1>   0.0800 
 37 H        4.4190    -0.4000    -1.8230 H     1 <1>   0.1500 
 38 H        4.9810    -3.4240     1.1440 H     1 <1>   0.1500 
 39 H        5.2520    -4.3630    -1.3910 H     1 <1>   0.1500 
@<TRIPOS>BOND
  1   1   2  2   
  2   2   3  am  
  3   2   4  1   
  4   3   5  1   
  5   3  22  1   
  6   4   6  1   
  7   4  23  1   
  8   4  24  1   
  9   5   7  1   
 10   5  25  1   
 11   5  26  1   
 12   6   8  1   
 13   6  27  1   
 14   6  28  1   
 15   7   9  1   
 16   7  10  2   
 17   8  11  1   
 18   8  29  1   
 19   8  30  1   
 20   9  12  1   
 21  10  13  1   
 22  10  31  1   
 23  11  14  2   
 24  11  15  am  
 25  12  13  2   
 26  12  32  1   
 27  13  33  1   
 28  15  16  1   
 29  15  34  1   
 30  16  17  1   
 31  16  35  1   
 32  16  36  1   
 33  17  18  2   
 34  17  19  1   
 35  18  20  1   
 36  18  37  1   
 37  19  21  2   
 38  19  38  1   
 39  20  21  1   
 40  21  39  1   
@<TRIPOS>SUBSTRUCTURE
  1 ****   3 GROUP 4 **** **** 0

# MOE 2024.06 (io_trps.svl 2023.06)
