@<TRIPOS>MOLECULE
7-(3-Allyloxy-2-hydroxy-propyl)-8-dimethylamino-3-methyl-3,7-dihydro-purine-2,6-
45 46 1 0 0 
SMALL
USER_CHARGES


@<TRIPOS>ATOM
  1 O        1.6750     1.3210     2.7660 O.2   1 <1>  -0.5750 
  2 C        2.5190     1.6290     1.9580 C.2   1 <1>   0.6860 
  3 N        3.6220     0.8290     1.6950 N.am  1 <1>  -0.4420 
  4 N        2.3740     2.8050     1.2820 N.am  1 <1>  -0.4960 
  5 C        4.5190     1.2660     0.7310 C.2   1 <1>   0.4200 
  6 C        3.8300    -0.4590     2.4200 C.3   1 <1>   0.0510 
  7 C        3.2520     3.2520     0.3370 C.2   1 <1>   0.6990 
  8 N        5.6520     0.6470     0.3110 N.pl3 1 <1>  -0.7040 
  9 C        4.3850     2.4220     0.0440 C.2   1 <1>   0.2690 
 10 O        3.0420     4.3190    -0.2020 O.2   1 <1>  -0.5750 
 11 C        6.2240     1.3900    -0.6390 C.cat 1 <1>   1.0680 
 12 N        5.4880     2.4990    -0.8330 N.pl3 1 <1>  -0.7680 
 13 N        7.3790     1.0170    -1.2460 N.pl3 1 <1>  -0.5970 
 14 C        5.7430     3.7350    -1.6470 C.3   1 <1>   0.3470 
 15 C        7.8030     1.4590    -2.6070 C.3   1 <1>   0.0790 
 16 C        8.3170     0.0100    -0.6610 C.3   1 <1>   0.0790 
 17 C        6.3760     4.8670    -0.8180 C.3   1 <1>   0.1920 
 18 O        6.7260     5.8920    -1.6790 O.3   1 <1>  -0.6850 
 19 C        7.6420     4.4490    -0.0570 C.3   1 <1>   0.1110 
 20 O        8.1730     5.5680     0.5840 O.3   1 <1>  -0.5650 
 21 C        9.4560     5.4230     1.1140 C.3   1 <1>   0.2510 
 22 C        9.4750     4.3440     2.1870 C.2   1 <1>  -0.2960 
 23 C        9.5740     4.5710     3.5000 C.2   1 <1>  -0.3070 
 24 H        1.5600     3.3760     1.5020 H     1 <1>   0.3630 
 25 H        3.0980    -0.5830     3.2000 H     1 <1>   0.0710 
 26 H        4.8060    -0.4730     2.8710 H     1 <1>   0.0710 
 27 H        3.7370    -1.2830     1.7340 H     1 <1>   0.0710 
 28 H        5.9990    -0.2550     0.6190 H     1 <1>   0.4440 
 29 H        4.8110     4.0900    -2.0530 H     1 <1>   0.0710 
 30 H        6.3870     3.5230    -2.4760 H     1 <1>   0.0710 
 31 H        6.9450     1.6330    -3.2330 H     1 <1>   0.0710 
 32 H        8.3980     0.6950    -3.0800 H     1 <1>   0.0710 
 33 H        8.3930     2.3570    -2.5390 H     1 <1>   0.0710 
 34 H        8.1450    -0.1210     0.3930 H     1 <1>   0.0710 
 35 H        9.3340     0.3420    -0.7910 H     1 <1>   0.0710 
 36 H        8.1980    -0.9370    -1.1610 H     1 <1>   0.0710 
 37 H        5.6500     5.2600    -0.1280 H     1 <1>   0.0710 
 38 H        7.2440     6.5490    -1.1610 H     1 <1>   0.3930 
 39 H        8.3760     4.0510    -0.7360 H     1 <1>   0.0710 
 40 H        7.4000     3.7180     0.6930 H     1 <1>   0.0710 
 41 H        9.7280     6.3730     1.5430 H     1 <1>   0.0710 
 42 H       10.1430     5.1960     0.3180 H     1 <1>   0.0710 
 43 H        9.4100     3.3510     1.7830 H     1 <1>   0.1420 
 44 H        9.5940     3.7970     4.2480 H     1 <1>   0.1420 
 45 H        9.6440     5.5520     3.9400 H     1 <1>   0.1420 
@<TRIPOS>BOND
  1   1   2  2   
  2   2   3  am  
  3   2   4  am  
  4   3   5  1   
  5   3   6  1   
  6   4   7  am  
  7   4  24  1   
  8   5   8  1   
  9   5   9  2   
 10   6  25  1   
 11   6  26  1   
 12   6  27  1   
 13   7   9  1   
 14   7  10  2   
 15   8  11  ar  
 16   8  28  1   
 17   9  12  1   
 18  11  12  ar  
 19  11  13  ar  
 20  12  14  1   
 21  13  15  1   
 22  13  16  1   
 23  14  17  1   
 24  14  29  1   
 25  14  30  1   
 26  15  31  1   
 27  15  32  1   
 28  15  33  1   
 29  16  34  1   
 30  16  35  1   
 31  16  36  1   
 32  17  18  1   
 33  17  19  1   
 34  17  37  1   
 35  18  38  1   
 36  19  20  1   
 37  19  39  1   
 38  19  40  1   
 39  20  21  1   
 40  21  22  1   
 41  21  41  1   
 42  21  42  1   
 43  22  23  2   
 44  22  43  1   
 45  23  44  1   
 46  23  45  1   
@<TRIPOS>SUBSTRUCTURE
  1 ****  12 GROUP 4 **** **** 0

# MOE 2024.06 (io_trps.svl 2023.06)
