@<TRIPOS>MOLECULE
C-(3-Isobutyl-isoxazol-5-yl)-methylamine
25 25 1 0 0 
SMALL
USER_CHARGES


@<TRIPOS>ATOM
  1 O       -0.1080     0.4400    -1.5060 O.3   1 <1>  -0.0190 
  2 N       -1.1460     1.1770    -1.7780 N.2   1 <1>  -0.4100 
  3 C        0.6070     0.9430    -0.5350 C.2   1 <1>  -0.0400 
  4 C       -1.1020     2.1720    -0.9630 C.2   1 <1>   0.1080 
  5 C        0.0120     2.0770    -0.1330 C.2   1 <1>  -0.1500 
  6 C        1.8590     0.2190    -0.0830 C.3   1 <1>   0.2900 
  7 C       -2.1280     3.2910    -0.9210 C.3   1 <1>   0.0210 
  8 N        2.6200     1.0470     0.8490 N.3   1 <1>  -0.9900 
  9 C       -2.9320     3.3130     0.3940 C.3   1 <1>  -0.0800 
 10 C       -3.7400     2.0210     0.5850 C.3   1 <1>  -0.2400 
 11 C       -3.8770     4.5210     0.4230 C.3   1 <1>  -0.2400 
 12 H        0.3030     2.7600     0.6430 H     1 <1>   0.1500 
 13 H        2.4660    -0.0070    -0.9430 H     1 <1>   0.0800 
 14 H        1.5820    -0.7050     0.3960 H     1 <1>   0.0800 
 15 H       -2.8000     3.1780    -1.7540 H     1 <1>   0.0800 
 16 H       -1.6100     4.2240    -1.0430 H     1 <1>   0.0800 
 17 H        2.8590     1.9240     0.3730 H     1 <1>   0.3600 
 18 H        3.5010     0.5740     1.0780 H     1 <1>   0.3600 
 19 H       -2.2420     3.4050     1.2160 H     1 <1>   0.0800 
 20 H       -4.4280     1.8790    -0.2300 H     1 <1>   0.0800 
 21 H       -4.2980     2.0600     1.5040 H     1 <1>   0.0800 
 22 H       -3.0860     1.1680     0.6280 H     1 <1>   0.0800 
 23 H       -4.5900     4.4640    -0.3810 H     1 <1>   0.0800 
 24 H       -3.3200     5.4360     0.3260 H     1 <1>   0.0800 
 25 H       -4.4140     4.5510     1.3540 H     1 <1>   0.0800 
@<TRIPOS>BOND
  1   1   2  1   
  2   1   3  1   
  3   2   4  2   
  4   3   5  2   
  5   3   6  1   
  6   4   5  1   
  7   4   7  1   
  8   5  12  1   
  9   6   8  1   
 10   6  13  1   
 11   6  14  1   
 12   7   9  1   
 13   7  15  1   
 14   7  16  1   
 15   8  17  1   
 16   8  18  1   
 17   9  10  1   
 18   9  11  1   
 19   9  19  1   
 20  10  20  1   
 21  10  21  1   
 22  10  22  1   
 23  11  23  1   
 24  11  24  1   
 25  11  25  1   
@<TRIPOS>SUBSTRUCTURE
  1 ****   4 GROUP 4 **** **** 0

# MOE 2024.06 (io_trps.svl 2023.06)
