@<TRIPOS>MOLECULE
2-(4-tert-Butylamino-6-morpholin-4-yl-[1,3,5]triazin-2-ylsulfanyl)-N-phenyl-acet
54 56 1 0 0 
SMALL
USER_CHARGES


@<TRIPOS>ATOM
  1 S       -0.5090     0.2250    -1.9360 S.3   1 <1>  -0.3320 
  2 C       -0.3300    -1.3590    -1.1370 C.ar  1 <1>   0.7220 
  3 C        1.0880     1.1120    -1.6000 C.3   1 <1>   0.1310 
  4 N        0.8520    -1.6460    -0.6830 N.ar  1 <1>  -0.6200 
  5 N       -1.4050    -2.0810    -1.1090 N.ar  1 <1>  -0.6200 
  6 C        1.1320     1.6690    -0.1800 C.2   1 <1>   0.5690 
  7 C        0.9170    -2.8430    -0.1460 C.ar  1 <1>   0.7200 
  8 C       -1.2150    -3.2340    -0.5250 C.ar  1 <1>   0.7200 
  9 O        0.1540     2.2030     0.2800 O.2   1 <1>  -0.5700 
 10 N        2.2540     1.6130     0.5900 N.am  1 <1>  -0.5470 
 11 N       -0.0920    -3.6710    -0.0330 N.ar  1 <1>  -0.6200 
 12 N        2.1410    -3.2580     0.3280 N.pl3 1 <1>  -0.8380 
 13 N       -2.2440    -4.1030    -0.4020 N.pl3 1 <1>  -0.8690 
 14 C        3.5620     1.1720     0.3580 C.ar  1 <1>   0.1170 
 15 C        2.3810    -4.6030     0.9440 C.3   1 <1>   0.2090 
 16 C        3.3900    -2.4370     0.2470 C.3   1 <1>   0.2090 
 17 C       -3.6880    -3.8890    -0.4820 C.3   1 <1>   0.3690 
 18 C        4.2520     0.5550     1.3950 C.ar  1 <1>  -0.1500 
 19 C        4.2120     1.3470    -0.8600 C.ar  1 <1>  -0.1500 
 20 C        3.5970    -5.2900     0.2980 C.3   1 <1>   0.1200 
 21 C        4.5460    -3.2500    -0.3570 C.3   1 <1>   0.1200 
 22 C       -4.0910    -3.6070    -1.9290 C.3   1 <1>  -0.2400 
 23 C       -4.1100    -2.7590     0.4570 C.3   1 <1>  -0.2400 
 24 C       -4.3290    -5.1960    -0.0230 C.3   1 <1>  -0.2400 
 25 C        5.5460     0.0980     1.2160 C.ar  1 <1>  -0.1500 
 26 C        5.5030     0.8860    -1.0450 C.ar  1 <1>  -0.1500 
 27 O        4.7240    -4.4590     0.3300 O.3   1 <1>  -0.5600 
 28 C        6.1710     0.2590    -0.0080 C.ar  1 <1>  -0.1500 
 29 H        1.1430     1.9180    -2.3070 H     1 <1>   0.0800 
 30 H        1.8810     0.4130    -1.7810 H     1 <1>   0.0800 
 31 H        2.0640     1.9410     1.5380 H     1 <1>   0.3700 
 32 H       -1.9830    -4.9420     0.1060 H     1 <1>   0.4000 
 33 H        1.5260    -5.2460     0.8360 H     1 <1>   0.0800 
 34 H        2.5650    -4.4780     1.9970 H     1 <1>   0.0800 
 35 H        3.6640    -2.1250     1.2380 H     1 <1>   0.0800 
 36 H        3.2470    -1.5540    -0.3490 H     1 <1>   0.0800 
 37 H        3.7720     0.4250     2.3480 H     1 <1>   0.1500 
 38 H        3.7200     1.8560    -1.6670 H     1 <1>   0.1500 
 39 H        3.3820    -5.5410    -0.7260 H     1 <1>   0.0800 
 40 H        3.8380    -6.1920     0.8310 H     1 <1>   0.0800 
 41 H        5.4630    -2.6930    -0.2880 H     1 <1>   0.0800 
 42 H        4.3500    -3.4670    -1.3920 H     1 <1>   0.0800 
 43 H       -3.7300    -4.3850    -2.5760 H     1 <1>   0.0800 
 44 H       -3.6920    -2.6660    -2.2590 H     1 <1>   0.0800 
 45 H       -5.1610    -3.5580    -2.0120 H     1 <1>   0.0800 
 46 H       -3.7200    -1.8160     0.1220 H     1 <1>   0.0800 
 47 H       -3.7580    -2.9480     1.4550 H     1 <1>   0.0800 
 48 H       -5.1810    -2.6800     0.4800 H     1 <1>   0.0800 
 49 H       -4.0270    -6.0070    -0.6610 H     1 <1>   0.0800 
 50 H       -5.4000    -5.1160    -0.0660 H     1 <1>   0.0800 
 51 H       -4.0500    -5.4180     0.9910 H     1 <1>   0.0800 
 52 H        6.0670    -0.3810     2.0270 H     1 <1>   0.1500 
 53 H        5.9950     1.0230    -1.9930 H     1 <1>   0.1500 
 54 H        7.1780    -0.0970    -0.1500 H     1 <1>   0.1500 
@<TRIPOS>BOND
  1   1   2  1   
  2   1   3  1   
  3   2   4  ar  
  4   2   5  ar  
  5   3   6  1   
  6   3  29  1   
  7   3  30  1   
  8   4   7  ar  
  9   5   8  ar  
 10   6   9  2   
 11   6  10  am  
 12   7  11  ar  
 13   7  12  1   
 14   8  11  ar  
 15   8  13  1   
 16  10  14  1   
 17  10  31  1   
 18  12  15  1   
 19  12  16  1   
 20  13  17  1   
 21  13  32  1   
 22  14  18  ar  
 23  14  19  ar  
 24  15  20  1   
 25  15  33  1   
 26  15  34  1   
 27  16  21  1   
 28  16  35  1   
 29  16  36  1   
 30  17  22  1   
 31  17  23  1   
 32  17  24  1   
 33  18  25  ar  
 34  18  37  1   
 35  19  26  ar  
 36  19  38  1   
 37  20  27  1   
 38  20  39  1   
 39  20  40  1   
 40  21  27  1   
 41  21  41  1   
 42  21  42  1   
 43  22  43  1   
 44  22  44  1   
 45  22  45  1   
 46  23  46  1   
 47  23  47  1   
 48  23  48  1   
 49  24  49  1   
 50  24  50  1   
 51  24  51  1   
 52  25  28  ar  
 53  25  52  1   
 54  26  28  ar  
 55  26  53  1   
 56  28  54  1   
@<TRIPOS>SUBSTRUCTURE
  1 ****   4 GROUP 4 **** **** 0

# MOE 2024.06 (io_trps.svl 2023.06)
