@<TRIPOS>MOLECULE
N-(3-Methoxy-propyl)-3-(3-o-tolyl-[1,2,4]oxadiazol-5-yl)-propionamide
43 44 1 0 0 
SMALL
USER_CHARGES


@<TRIPOS>ATOM
  1 O       -0.1060    -0.1960    -1.0000 O.2   1 <1>  -0.5700 
  2 C        0.4200    -1.0550    -0.3380 C.2   1 <1>   0.5690 
  3 N        1.6090    -0.8640     0.2860 N.am  1 <1>  -0.7300 
  4 C       -0.2750    -2.3890    -0.1880 C.3   1 <1>  -0.0990 
  5 C        2.4150     0.3720     0.2020 C.3   1 <1>   0.1400 
  6 C       -1.6960    -2.2150     0.3650 C.3   1 <1>   0.0200 
  7 C        3.8770    -0.0010    -0.0280 C.3   1 <1>  -0.1600 
  8 C       -2.3610    -3.5570     0.5950 C.2   1 <1>   0.2980 
  9 C        4.7410     1.2500    -0.1640 C.3   1 <1>   0.1200 
 10 O       -1.9300    -4.3110     1.5730 O.3   1 <1>  -0.0190 
 11 N       -3.3140    -4.0390    -0.0850 N.2   1 <1>  -0.5650 
 12 O        6.0560     0.8350    -0.3160 O.3   1 <1>  -0.5600 
 13 N       -2.6730    -5.3690     1.5050 N.2   1 <1>  -0.4100 
 14 C       -3.4970    -5.2120     0.5300 C.2   1 <1>   0.4620 
 15 C        6.9630     1.8770    -0.4780 C.3   1 <1>   0.0400 
 16 C       -4.4880    -6.1880     0.1110 C.ar  1 <1>   0.0540 
 17 C       -5.8250    -5.8740    -0.1790 C.ar  1 <1>  -0.1440 
 18 C       -4.0980    -7.5230    -0.0100 C.ar  1 <1>  -0.1500 
 19 C       -6.7050    -6.8650    -0.5860 C.ar  1 <1>  -0.1500 
 20 C       -6.3560    -4.4510    -0.0510 C.3   1 <1>  -0.0970 
 21 C       -4.9790    -8.5080    -0.4120 C.ar  1 <1>  -0.1500 
 22 C       -6.2880    -8.1780    -0.7040 C.ar  1 <1>  -0.1500 
 23 H        2.0250    -1.6180     0.8350 H     1 <1>   0.3700 
 24 H        0.2960    -3.0240     0.4650 H     1 <1>   0.0800 
 25 H       -0.3230    -2.8580    -1.1550 H     1 <1>   0.0800 
 26 H        2.3110     0.9250     1.1200 H     1 <1>   0.0800 
 27 H        2.0580     0.9860    -0.6090 H     1 <1>   0.0800 
 28 H       -2.2860    -1.6460    -0.3320 H     1 <1>   0.0800 
 29 H       -1.6660    -1.6760     1.2950 H     1 <1>   0.0800 
 30 H        3.9600    -0.5770    -0.9320 H     1 <1>   0.0800 
 31 H        4.2360    -0.5820     0.8030 H     1 <1>   0.0800 
 32 H        4.6740     1.8620     0.7200 H     1 <1>   0.0800 
 33 H        4.4540     1.8200    -1.0320 H     1 <1>   0.0800 
 34 H        7.9450     1.4510    -0.5850 H     1 <1>   0.0800 
 35 H        6.9360     2.5120     0.3900 H     1 <1>   0.0800 
 36 H        6.7110     2.4330    -1.3650 H     1 <1>   0.0800 
 37 H       -3.0800    -7.7900     0.2150 H     1 <1>   0.1500 
 38 H       -7.7280    -6.6220    -0.8140 H     1 <1>   0.1500 
 39 H       -6.0400    -4.0180     0.8810 H     1 <1>   0.0800 
 40 H       -7.4300    -4.4330    -0.0810 H     1 <1>   0.0800 
 41 H       -5.9820    -3.8480    -0.8590 H     1 <1>   0.0800 
 42 H       -4.6480    -9.5280    -0.4980 H     1 <1>   0.1500 
 43 H       -6.9800    -8.9390    -1.0200 H     1 <1>   0.1500 
@<TRIPOS>BOND
  1   1   2  2   
  2   2   3  am  
  3   2   4  1   
  4   3   5  1   
  5   3  23  1   
  6   4   6  1   
  7   4  24  1   
  8   4  25  1   
  9   5   7  1   
 10   5  26  1   
 11   5  27  1   
 12   6   8  1   
 13   6  28  1   
 14   6  29  1   
 15   7   9  1   
 16   7  30  1   
 17   7  31  1   
 18   8  10  1   
 19   8  11  2   
 20   9  12  1   
 21   9  32  1   
 22   9  33  1   
 23  10  13  1   
 24  11  14  1   
 25  12  15  1   
 26  13  14  2   
 27  14  16  1   
 28  15  34  1   
 29  15  35  1   
 30  15  36  1   
 31  16  17  ar  
 32  16  18  ar  
 33  17  19  ar  
 34  17  20  1   
 35  18  21  ar  
 36  18  37  1   
 37  19  22  ar  
 38  19  38  1   
 39  20  39  1   
 40  20  40  1   
 41  20  41  1   
 42  21  22  ar  
 43  21  42  1   
 44  22  43  1   
@<TRIPOS>SUBSTRUCTURE
  1 ****   6 GROUP 4 **** **** 0

# MOE 2024.06 (io_trps.svl 2023.06)
