@<TRIPOS>MOLECULE
1-[4-(2-Hydroxy-3-piperidin-1-yl-propoxy)-3-methoxy-phenyl]-ethanone
48 49 1 0 0 
SMALL
USER_CHARGES


@<TRIPOS>ATOM
  1 O       -1.5320    -1.3750    -1.6290 O.2   1 <1>  -0.5700 
  2 C       -2.5100    -1.9860    -1.2850 C.2   1 <1>   0.4230 
  3 C       -3.5410    -1.4160    -0.4410 C.ar  1 <1>   0.0860 
  4 C       -2.6230    -3.4150    -1.7820 C.3   1 <1>  -0.1790 
  5 C       -4.7480    -2.0660    -0.1620 C.ar  1 <1>  -0.1500 
  6 C       -3.3540    -0.1570     0.1400 C.ar  1 <1>  -0.1500 
  7 C       -5.7080    -1.4930     0.6530 C.ar  1 <1>   0.0830 
  8 C       -4.3080     0.4290     0.9520 C.ar  1 <1>  -0.1500 
  9 O       -6.8550    -2.1720     0.8860 O.3   1 <1>  -0.3630 
 10 C       -5.4990    -0.2310     1.2060 C.ar  1 <1>   0.0830 
 11 C       -6.8300    -2.9910     2.0360 C.3   1 <1>   0.0400 
 12 O       -6.4410     0.3480     1.9850 O.3   1 <1>  -0.3630 
 13 C       -7.1100     1.4770     1.4600 C.3   1 <1>   0.1200 
 14 C       -8.1590     0.9920     0.4540 C.3   1 <1>   0.2000 
 15 O       -8.8870     2.0730    -0.0500 O.3   1 <1>  -0.6800 
 16 C       -9.1420     0.0070     1.1170 C.3   1 <1>   0.3430 
 17 N      -10.3110    -0.2530     0.2240 N.4   1 <1>  -0.9590 
 18 C      -11.5090    -0.6860     0.9920 C.3   1 <1>   0.3430 
 19 C       -9.9590    -1.2000    -0.8730 C.3   1 <1>   0.3430 
 20 C      -12.7100    -0.7970     0.0510 C.3   1 <1>  -0.1600 
 21 C      -11.1340    -1.3220    -1.8440 C.3   1 <1>  -0.1600 
 22 C      -12.4250    -1.7380    -1.1270 C.3   1 <1>  -0.1600 
 23 H       -2.7790    -4.0840    -0.9570 H     1 <1>   0.0800 
 24 H       -1.7140    -3.6990    -2.2820 H     1 <1>   0.0800 
 25 H       -3.4350    -3.4990    -2.4800 H     1 <1>   0.0800 
 26 H       -4.9540    -3.0340    -0.5800 H     1 <1>   0.1500 
 27 H       -2.4320     0.3690    -0.0500 H     1 <1>   0.1500 
 28 H       -4.1210     1.3930     1.3910 H     1 <1>   0.1500 
 29 H       -7.7780    -3.4890     2.1240 H     1 <1>   0.0800 
 30 H       -6.6520    -2.3750     2.9010 H     1 <1>   0.0800 
 31 H       -6.0430    -3.7180     1.9310 H     1 <1>   0.0800 
 32 H       -6.3900     2.1280     0.9960 H     1 <1>   0.0800 
 33 H       -7.5790     1.9860     2.2850 H     1 <1>   0.0800 
 34 H       -7.6630     0.5200    -0.3760 H     1 <1>   0.0800 
 35 H       -8.2960     2.7270    -0.4830 H     1 <1>   0.4000 
 36 H       -9.4820     0.4510     2.0370 H     1 <1>   0.0800 
 37 H       -8.6400    -0.9120     1.3640 H     1 <1>   0.0800 
 38 H      -10.5120     0.6670    -0.2050 H     1 <1>   0.4500 
 39 H      -11.7270     0.0290     1.7700 H     1 <1>   0.0800 
 40 H      -11.3210    -1.6430     1.4510 H     1 <1>   0.0800 
 41 H       -9.7300    -2.1680    -0.4570 H     1 <1>   0.0800 
 42 H       -9.0900    -0.8460    -1.4040 H     1 <1>   0.0800 
 43 H      -12.9660     0.1820    -0.3150 H     1 <1>   0.0800 
 44 H      -13.5570    -1.1650     0.6040 H     1 <1>   0.0800 
 45 H      -10.8940    -2.0520    -2.5970 H     1 <1>   0.0800 
 46 H      -11.2800    -0.3800    -2.3440 H     1 <1>   0.0800 
 47 H      -13.2510    -1.7180    -1.8190 H     1 <1>   0.0800 
 48 H      -12.3260    -2.7480    -0.7650 H     1 <1>   0.0800 
@<TRIPOS>BOND
  1   1   2  2   
  2   2   3  1   
  3   2   4  1   
  4   3   5  ar  
  5   3   6  ar  
  6   4  23  1   
  7   4  24  1   
  8   4  25  1   
  9   5   7  ar  
 10   5  26  1   
 11   6   8  ar  
 12   6  27  1   
 13   7   9  1   
 14   7  10  ar  
 15   8  10  ar  
 16   8  28  1   
 17   9  11  1   
 18  10  12  1   
 19  11  29  1   
 20  11  30  1   
 21  11  31  1   
 22  12  13  1   
 23  13  14  1   
 24  13  32  1   
 25  13  33  1   
 26  14  15  1   
 27  14  16  1   
 28  14  34  1   
 29  15  35  1   
 30  16  17  1   
 31  16  36  1   
 32  16  37  1   
 33  17  18  1   
 34  17  19  1   
 35  17  38  1   
 36  18  20  1   
 37  18  39  1   
 38  18  40  1   
 39  19  21  1   
 40  19  41  1   
 41  19  42  1   
 42  20  22  1   
 43  20  43  1   
 44  20  44  1   
 45  21  22  1   
 46  21  45  1   
 47  21  46  1   
 48  22  47  1   
 49  22  48  1   
@<TRIPOS>SUBSTRUCTURE
  1 ****   9 GROUP 4 **** **** 0

# MOE 2024.06 (io_trps.svl 2023.06)
