@<TRIPOS>MOLECULE
1-(2,5-Dimethoxy-benzenesulfonyl)-piperidine-4-carboxylic acid 2-methoxy-benzyla
59 61 1 0 0 
SMALL
USER_CHARGES


@<TRIPOS>ATOM
  1 S        0.1080    -0.4660     1.5730 S.o2  1 <1>   1.4470 
  2 O        0.3430    -1.7490     2.2030 O.2   1 <1>  -0.6500 
  3 O       -0.0170     0.6870     2.4410 O.2   1 <1>  -0.6500 
  4 N        1.4460    -0.1780     0.5690 N.am  1 <1>  -0.8490 
  5 C       -1.2930    -0.6600     0.4360 C.ar  1 <1>  -0.0090 
  6 C        2.6970    -0.3470     1.3160 C.3   1 <1>   0.1960 
  7 C        1.3790     1.1390    -0.0750 C.3   1 <1>   0.1960 
  8 C       -2.0710     0.4160     0.0100 C.ar  1 <1>   0.0830 
  9 C       -1.6100    -1.9210    -0.0590 C.ar  1 <1>  -0.1500 
 10 C        3.9070    -0.2030     0.3900 C.3   1 <1>  -0.1600 
 11 C        2.5470     1.3270    -1.0450 C.3   1 <1>  -0.1600 
 12 O       -1.7950     1.6710     0.4200 O.3   1 <1>  -0.3620 
 13 C       -3.1290     0.2360    -0.8690 C.ar  1 <1>  -0.1500 
 14 C       -2.6740    -2.1140    -0.9350 C.ar  1 <1>   0.0830 
 15 C        3.8980     1.1510    -0.3340 C.3   1 <1>  -0.0190 
 16 C       -2.6360     2.2030     1.4190 C.3   1 <1>   0.0400 
 17 C       -3.4310    -1.0280    -1.3360 C.ar  1 <1>  -0.1500 
 18 O       -3.0280    -3.3240    -1.4390 O.3   1 <1>  -0.3630 
 19 C        5.0770     1.2790    -1.2960 C.2   1 <1>   0.5690 
 20 C       -2.3180    -4.4940    -1.0950 C.3   1 <1>   0.0400 
 21 O        5.1290     0.5800    -2.2790 O.2   1 <1>  -0.5700 
 22 N        6.0490     2.1790    -1.0120 N.am  1 <1>  -0.7300 
 23 C        7.2930     2.3560    -1.7800 C.3   1 <1>   0.2840 
 24 C        8.4620     2.2570    -0.8150 C.ar  1 <1>  -0.1430 
 25 C        8.9000     3.3690    -0.1010 C.ar  1 <1>   0.0830 
 26 C        9.0970     1.0360    -0.6440 C.ar  1 <1>  -0.1500 
 27 O        8.2400     4.5420    -0.2900 O.3   1 <1>  -0.3630 
 28 C        9.9780     3.2430     0.7730 C.ar  1 <1>  -0.1500 
 29 C       10.1670     0.9170     0.2250 C.ar  1 <1>  -0.1500 
 30 C        8.7020     5.7500     0.2750 C.3   1 <1>   0.0400 
 31 C       10.6070     2.0210     0.9320 C.ar  1 <1>  -0.1500 
 32 H        2.7250    -1.3280     1.7620 H     1 <1>   0.0800 
 33 H        2.7480     0.3810     2.1100 H     1 <1>   0.0800 
 34 H        1.3900     1.9170     0.6720 H     1 <1>   0.0800 
 35 H        0.4640     1.2240    -0.6340 H     1 <1>   0.0800 
 36 H       -1.0070    -2.7510     0.2580 H     1 <1>   0.1500 
 37 H        3.8890    -1.0020    -0.3310 H     1 <1>   0.0800 
 38 H        4.8100    -0.3010     0.9650 H     1 <1>   0.0800 
 39 H        2.4930     2.3080    -1.4840 H     1 <1>   0.0800 
 40 H        2.4560     0.6070    -1.8410 H     1 <1>   0.0800 
 41 H       -3.7080     1.0830    -1.1890 H     1 <1>   0.1500 
 42 H        3.9850     1.9260     0.4070 H     1 <1>   0.0800 
 43 H       -2.2730     3.1820     1.6780 H     1 <1>   0.0800 
 44 H       -2.6010     1.5620     2.2830 H     1 <1>   0.0800 
 45 H       -3.6400     2.2700     1.0390 H     1 <1>   0.0800 
 46 H       -4.2500    -1.1810    -2.0170 H     1 <1>   0.1500 
 47 H       -2.7750    -5.3230    -1.6060 H     1 <1>   0.0800 
 48 H       -2.3800    -4.6420    -0.0320 H     1 <1>   0.0800 
 49 H       -1.2960    -4.3890    -1.4120 H     1 <1>   0.0800 
 50 H        6.0250     2.7340    -0.1560 H     1 <1>   0.3700 
 51 H        7.2840     3.3170    -2.2640 H     1 <1>   0.0800 
 52 H        7.3740     1.5990    -2.5420 H     1 <1>   0.0800 
 53 H        8.7570     0.1710    -1.1880 H     1 <1>   0.1500 
 54 H       10.3410     4.0800     1.3380 H     1 <1>   0.1500 
 55 H       10.6550    -0.0340     0.3510 H     1 <1>   0.1500 
 56 H        9.7090     5.9270    -0.0580 H     1 <1>   0.0800 
 57 H        8.6570     5.6740     1.3470 H     1 <1>   0.0800 
 58 H        8.0610     6.5440    -0.0620 H     1 <1>   0.0800 
 59 H       11.4400     1.9280     1.6080 H     1 <1>   0.1500 
@<TRIPOS>BOND
  1   1   2  2   
  2   1   3  2   
  3   1   4  am  
  4   1   5  1   
  5   4   6  1   
  6   4   7  1   
  7   5   8  ar  
  8   5   9  ar  
  9   6  10  1   
 10   6  32  1   
 11   6  33  1   
 12   7  11  1   
 13   7  34  1   
 14   7  35  1   
 15   8  12  1   
 16   8  13  ar  
 17   9  14  ar  
 18   9  36  1   
 19  10  15  1   
 20  10  37  1   
 21  10  38  1   
 22  11  15  1   
 23  11  39  1   
 24  11  40  1   
 25  12  16  1   
 26  13  17  ar  
 27  13  41  1   
 28  14  17  ar  
 29  14  18  1   
 30  15  19  1   
 31  15  42  1   
 32  16  43  1   
 33  16  44  1   
 34  16  45  1   
 35  17  46  1   
 36  18  20  1   
 37  19  21  2   
 38  19  22  am  
 39  20  47  1   
 40  20  48  1   
 41  20  49  1   
 42  22  23  1   
 43  22  50  1   
 44  23  24  1   
 45  23  51  1   
 46  23  52  1   
 47  24  25  ar  
 48  24  26  ar  
 49  25  27  1   
 50  25  28  ar  
 51  26  29  ar  
 52  26  53  1   
 53  27  30  1   
 54  28  31  ar  
 55  28  54  1   
 56  29  31  ar  
 57  29  55  1   
 58  30  56  1   
 59  30  57  1   
 60  30  58  1   
 61  31  59  1   
@<TRIPOS>SUBSTRUCTURE
  1 ****  15 GROUP 4 **** **** 0

# MOE 2024.06 (io_trps.svl 2023.06)
