@<TRIPOS>MOLECULE
N-[1-(4-Ethyl-5-mercapto-4H-[1,2,4]triazol-3-yl)-ethyl]-3-methyl-benzamide
38 39 1 0 0 
SMALL
USER_CHARGES


@<TRIPOS>ATOM
  1 S       -0.3520     0.3060    -1.9770 S.3   1 <1>  -0.9360 
  2 C       -1.0380     1.7140    -1.5550 C.cat 1 <1>   0.7360 
  3 N       -0.7060     2.8800    -2.0580 N.pl3 1 <1>  -0.3930 
  4 N       -2.0030     1.8980    -0.6730 N.pl3 1 <1>  -0.7640 
  5 N       -1.4620     3.8760    -1.5100 N.2   1 <1>  -0.2600 
  6 C       -2.2330     3.2600    -0.6800 C.2   1 <1>   0.4850 
  7 C       -2.6500     0.8120     0.0870 C.3   1 <1>   0.3540 
  8 C       -3.2970     3.9480     0.2060 C.3   1 <1>   0.3880 
  9 C       -2.0530     0.7460     1.4890 C.3   1 <1>  -0.2400 
 10 N       -4.6790     3.6460    -0.2490 N.am  1 <1>  -0.7300 
 11 C       -3.1650     5.4740     0.2480 C.3   1 <1>  -0.2400 
 12 C       -5.5940     2.9240     0.4610 C.2   1 <1>   0.5440 
 13 O       -5.2310     2.4240     1.5070 O.2   1 <1>  -0.5700 
 14 C       -6.9460     2.7330    -0.0370 C.ar  1 <1>   0.0860 
 15 C       -7.6970     1.6200     0.3440 C.ar  1 <1>  -0.1500 
 16 C       -7.5490     3.6420    -0.9100 C.ar  1 <1>  -0.1500 
 17 C       -8.9810     1.4070    -0.1270 C.ar  1 <1>  -0.1430 
 18 C       -8.8300     3.4380    -1.3880 C.ar  1 <1>  -0.1500 
 19 C       -9.5440     2.3200    -1.0000 C.ar  1 <1>  -0.1500 
 20 C       -9.7730     0.1850     0.3050 C.3   1 <1>  -0.0970 
 21 H        0.0290     2.9540    -2.7610 H     1 <1>   0.4500 
 22 H       -2.4910    -0.1290    -0.4130 H     1 <1>   0.0800 
 23 H       -3.7100     0.9770     0.1360 H     1 <1>   0.0800 
 24 H       -3.1610     3.5860     1.2100 H     1 <1>   0.0800 
 25 H       -0.9930     0.5730     1.4250 H     1 <1>   0.0800 
 26 H       -2.5000    -0.0690     2.0280 H     1 <1>   0.0800 
 27 H       -2.2420     1.6540     2.0300 H     1 <1>   0.0800 
 28 H       -4.9050     3.9490    -1.1960 H     1 <1>   0.3700 
 29 H       -3.2980     5.8970    -0.7310 H     1 <1>   0.0800 
 30 H       -2.1880     5.7450     0.6080 H     1 <1>   0.0800 
 31 H       -3.8970     5.8870     0.9190 H     1 <1>   0.0800 
 32 H       -7.2560     0.9120     1.0250 H     1 <1>   0.1500 
 33 H       -7.0190     4.5250    -1.2150 H     1 <1>   0.1500 
 34 H       -9.2770     4.1490    -2.0620 H     1 <1>   0.1500 
 35 H      -10.5410     2.1660    -1.3760 H     1 <1>   0.1500 
 36 H       -9.3350    -0.2670     1.1770 H     1 <1>   0.0800 
 37 H       -9.7880    -0.5390    -0.4900 H     1 <1>   0.0800 
 38 H      -10.7840     0.4640     0.5400 H     1 <1>   0.0800 
@<TRIPOS>BOND
  1   1   2  1   
  2   2   3  ar  
  3   2   4  ar  
  4   3   5  1   
  5   3  21  1   
  6   4   6  1   
  7   4   7  1   
  8   5   6  2   
  9   6   8  1   
 10   7   9  1   
 11   7  22  1   
 12   7  23  1   
 13   8  10  1   
 14   8  11  1   
 15   8  24  1   
 16   9  25  1   
 17   9  26  1   
 18   9  27  1   
 19  10  12  am  
 20  10  28  1   
 21  11  29  1   
 22  11  30  1   
 23  11  31  1   
 24  12  13  2   
 25  12  14  1   
 26  14  15  ar  
 27  14  16  ar  
 28  15  17  ar  
 29  15  32  1   
 30  16  18  ar  
 31  16  33  1   
 32  17  19  ar  
 33  17  20  1   
 34  18  19  ar  
 35  18  34  1   
 36  19  35  1   
 37  20  36  1   
 38  20  37  1   
 39  20  38  1   
@<TRIPOS>SUBSTRUCTURE
  1 ****  10 GROUP 4 **** **** 0

# MOE 2024.06 (io_trps.svl 2023.06)
