@<TRIPOS>MOLECULE
1-[4-(Naphthalene-2-sulfonyl)-piperazine-1-sulfonyl]-azepane
56 59 1 0 0 
SMALL
USER_CHARGES


@<TRIPOS>ATOM
  1 S        0.5250     0.4730     1.2770 S.o2  1 <1>   1.5760 
  2 O        0.3230     1.8220     1.7560 O.2   1 <1>  -0.6500 
  3 O        0.8760    -0.5940     2.1870 O.2   1 <1>  -0.6500 
  4 N       -0.8260     0.0200     0.3720 N.am  1 <1>  -0.8490 
  5 N        1.6980     0.5040     0.0660 N.am  1 <1>  -0.8490 
  6 C       -1.8840    -0.4590     1.2640 C.3   1 <1>   0.1960 
  7 C       -1.2590     1.1130    -0.5060 C.3   1 <1>   0.1960 
  8 C        2.8940     1.2370     0.5260 C.3   1 <1>   0.1960 
  9 C        2.0100    -0.8490    -0.4510 C.3   1 <1>   0.1960 
 10 C       -3.0790    -1.0770     0.5250 C.3   1 <1>  -0.1600 
 11 C       -2.0140     0.5600    -1.7180 C.3   1 <1>  -0.1600 
 12 C        4.1520     0.8600    -0.2810 C.3   1 <1>   0.1960 
 13 C        3.3180    -1.4270     0.1270 C.3   1 <1>   0.1960 
 14 C       -3.9920    -0.0340    -0.1340 C.3   1 <1>  -0.1600 
 15 C       -3.5320     0.4090    -1.5300 C.3   1 <1>  -0.1600 
 16 N        4.4940    -0.5790    -0.1780 N.am  1 <1>  -0.8490 
 17 S        5.7580    -0.8900     0.9080 S.o2  1 <1>   1.4470 
 18 O        5.8610    -2.3270     1.0260 O.2   1 <1>  -0.6500 
 19 O        5.4920    -0.0860     2.0820 O.2   1 <1>  -0.6500 
 20 C        7.2090    -0.2490     0.0280 C.ar  1 <1>  -0.0090 
 21 C        7.9940     0.7490     0.5490 C.ar  1 <1>  -0.1500 
 22 C        7.5520    -0.7660    -1.2330 C.ar  1 <1>  -0.1500 
 23 C        9.1110     1.2680    -0.1350 C.ar  1 <1>   0.0000 
 24 C        8.6300    -0.2880    -1.9250 C.ar  1 <1>  -0.1500 
 25 C        9.4360     0.7400    -1.4010 C.ar  1 <1>   0.0000 
 26 C        9.9140     2.2970     0.3980 C.ar  1 <1>  -0.1500 
 27 C       10.5510     1.2610    -2.0870 C.ar  1 <1>  -0.1500 
 28 C       10.9910     2.7840    -0.2910 C.ar  1 <1>  -0.1500 
 29 C       11.3120     2.2600    -1.5480 C.ar  1 <1>  -0.1500 
 30 H       -2.2170     0.3440     1.9020 H     1 <1>   0.0800 
 31 H       -1.4760    -1.2270     1.9000 H     1 <1>   0.0800 
 32 H       -0.3910     1.6270    -0.8850 H     1 <1>   0.0800 
 33 H       -1.8470     1.8360     0.0340 H     1 <1>   0.0800 
 34 H        3.0860     1.0240     1.5660 H     1 <1>   0.0800 
 35 H        2.7090     2.2940     0.4400 H     1 <1>   0.0800 
 36 H        2.1130    -0.7920    -1.5200 H     1 <1>   0.0800 
 37 H        1.1990    -1.5300    -0.2510 H     1 <1>   0.0800 
 38 H       -3.6640    -1.6000     1.2600 H     1 <1>   0.0800 
 39 H       -2.7400    -1.8080    -0.1880 H     1 <1>   0.0800 
 40 H       -1.5810    -0.3870    -1.9910 H     1 <1>   0.0800 
 41 H       -1.8530     1.2250    -2.5480 H     1 <1>   0.0800 
 42 H        4.9780     1.4720     0.0390 H     1 <1>   0.0800 
 43 H        3.9660     1.0960    -1.3150 H     1 <1>   0.0800 
 44 H        3.4840    -2.4130    -0.2710 H     1 <1>   0.0800 
 45 H        3.1970    -1.5250     1.1940 H     1 <1>   0.0800 
 46 H       -4.0730     0.8260     0.5090 H     1 <1>   0.0800 
 47 H       -4.9830    -0.4470    -0.2280 H     1 <1>   0.0800 
 48 H       -3.8860    -0.3030    -2.2550 H     1 <1>   0.0800 
 49 H       -4.0080     1.3480    -1.7540 H     1 <1>   0.0800 
 50 H        7.7600     1.1630     1.5150 H     1 <1>   0.1500 
 51 H        6.9420    -1.5530    -1.6440 H     1 <1>   0.1500 
 52 H        8.8810    -0.6930    -2.8890 H     1 <1>   0.1500 
 53 H        9.6640     2.6950     1.3650 H     1 <1>   0.1500 
 54 H       10.7950     0.8550    -3.0520 H     1 <1>   0.1500 
 55 H       11.6010     3.5700     0.1200 H     1 <1>   0.1500 
 56 H       12.1630     2.6550    -2.0760 H     1 <1>   0.1500 
@<TRIPOS>BOND
  1   1   2  2   
  2   1   3  2   
  3   1   4  am  
  4   1   5  am  
  5   4   6  1   
  6   4   7  1   
  7   5   8  1   
  8   5   9  1   
  9   6  10  1   
 10   6  30  1   
 11   6  31  1   
 12   7  11  1   
 13   7  32  1   
 14   7  33  1   
 15   8  12  1   
 16   8  34  1   
 17   8  35  1   
 18   9  13  1   
 19   9  36  1   
 20   9  37  1   
 21  10  14  1   
 22  10  38  1   
 23  10  39  1   
 24  11  15  1   
 25  11  40  1   
 26  11  41  1   
 27  12  16  1   
 28  12  42  1   
 29  12  43  1   
 30  13  16  1   
 31  13  44  1   
 32  13  45  1   
 33  14  15  1   
 34  14  46  1   
 35  14  47  1   
 36  15  48  1   
 37  15  49  1   
 38  16  17  am  
 39  17  18  2   
 40  17  19  2   
 41  17  20  1   
 42  20  21  ar  
 43  20  22  ar  
 44  21  23  ar  
 45  21  50  1   
 46  22  24  ar  
 47  22  51  1   
 48  23  25  ar  
 49  23  26  ar  
 50  24  25  ar  
 51  24  52  1   
 52  25  27  ar  
 53  26  28  ar  
 54  26  53  1   
 55  27  29  ar  
 56  27  54  1   
 57  28  29  ar  
 58  28  55  1   
 59  29  56  1   
@<TRIPOS>SUBSTRUCTURE
  1 ****  12 GROUP 4 **** **** 0

# MOE 2024.06 (io_trps.svl 2023.06)
