@<TRIPOS>MOLECULE
[8-(3,5-Dimethyl-piperidin-1-ylmethyl)-1,3-dimethyl-2,6-dioxo-1,2,3,6-tetrahydro
58 60 1 0 0 
SMALL
USER_CHARGES


@<TRIPOS>ATOM
  1 O        0.4880    -0.7700    -0.2920 O.2   1 <1>  -0.5700 
  2 C        1.3360     0.0840    -0.1020 C.2   1 <1>   0.6900 
  3 N        0.9770     1.2910     0.4850 N.am  1 <1>  -0.4200 
  4 N        2.6510    -0.1520    -0.4600 N.am  1 <1>  -0.4230 
  5 C        1.9310     2.2470     0.7760 C.2   1 <1>   0.7150 
  6 C       -0.4530     1.5290     0.8430 C.3   1 <1>   0.0600 
  7 C        3.6080     0.8180    -0.1870 C.2   1 <1>   0.2900 
  8 C        3.0700    -1.4210    -1.1150 C.3   1 <1>   0.0600 
  9 O        1.6270     3.2800     1.3450 O.2   1 <1>  -0.5700 
 10 C        3.2780     1.9840     0.4060 C.2   1 <1>  -0.2370 
 11 N        4.9170     0.7370    -0.4500 N.2   1 <1>  -0.5650 
 12 N        4.4380     2.6910     0.5200 N.pl3 1 <1>   0.0480 
 13 C        5.3870     1.8720    -0.0140 C.2   1 <1>   0.0060 
 14 C        4.5980     4.0500     1.1120 C.3   1 <1>   0.1570 
 15 C        6.8730     2.2210    -0.1180 C.3   1 <1>   0.5230 
 16 C        5.1420     5.0170     0.0870 C.2   1 <1>   0.6590 
 17 N        7.6330     0.9660    -0.3380 N.4   1 <1>  -0.9590 
 18 O        6.3130     5.0080    -0.2010 O.2   1 <1>  -0.5700 
 19 O        4.2730     5.8400    -0.4750 O.3   1 <1>  -0.4300 
 20 C        7.8260     0.1830     0.9090 C.3   1 <1>   0.3430 
 21 C        8.8900     1.1630    -1.1240 C.3   1 <1>   0.3430 
 22 C        4.6560     6.7840    -1.4490 C.3   1 <1>   0.1200 
 23 C        8.2310    -1.2610     0.5550 C.3   1 <1>  -0.0800 
 24 C        9.8330    -0.0590    -1.0540 C.3   1 <1>  -0.0800 
 25 C        3.4080     7.5440    -1.8840 C.3   1 <1>  -0.2400 
 26 C        9.0630    -1.3570    -0.7460 C.3   1 <1>  -0.1600 
 27 C        6.9930    -2.1640     0.4560 C.3   1 <1>  -0.2400 
 28 C       10.9790     0.1650    -0.0510 C.3   1 <1>  -0.2400 
 29 H       -0.6670     1.0650     1.7890 H     1 <1>   0.0800 
 30 H       -1.0980     1.1060     0.0920 H     1 <1>   0.0800 
 31 H       -0.6620     2.5820     0.9110 H     1 <1>   0.0800 
 32 H        2.2160    -1.9720    -1.4700 H     1 <1>   0.0800 
 33 H        3.6090    -2.0270    -0.4090 H     1 <1>   0.0800 
 34 H        3.7070    -1.2020    -1.9540 H     1 <1>   0.0800 
 35 H        5.2780     3.9930     1.9400 H     1 <1>   0.0800 
 36 H        3.6620     4.4240     1.4750 H     1 <1>   0.0800 
 37 H        7.2160     2.7200     0.7730 H     1 <1>   0.0800 
 38 H        7.0110     2.8830    -0.9570 H     1 <1>   0.0800 
 39 H        6.9720     0.3950    -0.8940 H     1 <1>   0.4500 
 40 H        6.9150     0.1650     1.4860 H     1 <1>   0.0800 
 41 H        8.5980     0.6410     1.5050 H     1 <1>   0.0800 
 42 H        9.4190     2.0300    -0.7620 H     1 <1>   0.0800 
 43 H        8.6290     1.3440    -2.1550 H     1 <1>   0.0800 
 44 H        5.0980     6.2610    -2.2810 H     1 <1>   0.0800 
 45 H        5.3820     7.4520    -1.0130 H     1 <1>   0.0800 
 46 H        8.8320    -1.6260     1.3720 H     1 <1>   0.0800 
 47 H       10.2910    -0.1650    -2.0230 H     1 <1>   0.0800 
 48 H        2.6870     6.8660    -2.3060 H     1 <1>   0.0800 
 49 H        3.6690     8.2730    -2.6290 H     1 <1>   0.0800 
 50 H        2.9720     8.0550    -1.0440 H     1 <1>   0.0800 
 51 H        8.4070    -1.5530    -1.5780 H     1 <1>   0.0800 
 52 H        9.7430    -2.1900    -0.6820 H     1 <1>   0.0800 
 53 H        6.3350    -1.8370    -0.3310 H     1 <1>   0.0800 
 54 H        6.4440    -2.1560     1.3820 H     1 <1>   0.0800 
 55 H        7.2880    -3.1800     0.2530 H     1 <1>   0.0800 
 56 H       10.6230     0.3000     0.9540 H     1 <1>   0.0800 
 57 H       11.5520     1.0340    -0.3260 H     1 <1>   0.0800 
 58 H       11.6460    -0.6810    -0.0590 H     1 <1>   0.0800 
@<TRIPOS>BOND
  1   1   2  2   
  2   2   3  am  
  3   2   4  am  
  4   3   5  am  
  5   3   6  1   
  6   4   7  1   
  7   4   8  1   
  8   5   9  2   
  9   5  10  1   
 10   6  29  1   
 11   6  30  1   
 12   6  31  1   
 13   7  10  2   
 14   7  11  1   
 15   8  32  1   
 16   8  33  1   
 17   8  34  1   
 18  10  12  1   
 19  11  13  2   
 20  12  13  1   
 21  12  14  1   
 22  13  15  1   
 23  14  16  1   
 24  14  35  1   
 25  14  36  1   
 26  15  17  1   
 27  15  37  1   
 28  15  38  1   
 29  16  18  2   
 30  16  19  1   
 31  17  20  1   
 32  17  21  1   
 33  17  39  1   
 34  19  22  1   
 35  20  23  1   
 36  20  40  1   
 37  20  41  1   
 38  21  24  1   
 39  21  42  1   
 40  21  43  1   
 41  22  25  1   
 42  22  44  1   
 43  22  45  1   
 44  23  26  1   
 45  23  27  1   
 46  23  46  1   
 47  24  26  1   
 48  24  28  1   
 49  24  47  1   
 50  25  48  1   
 51  25  49  1   
 52  25  50  1   
 53  26  51  1   
 54  26  52  1   
 55  27  53  1   
 56  27  54  1   
 57  27  55  1   
 58  28  56  1   
 59  28  57  1   
 60  28  58  1   
@<TRIPOS>SUBSTRUCTURE
  1 ****  13 GROUP 4 **** **** 0

# MOE 2024.06 (io_trps.svl 2023.06)
