@<TRIPOS>MOLECULE
C-[1-(4-Chloro-phenyl)-cyclopentyl]-methylamine
31 32 1 0 0 
SMALL
USER_CHARGES


@<TRIPOS>ATOM
  1 CL       0.1380    -0.0010     1.4590 Cl    1 <1>  -0.1770 
  2 C        1.5710    -0.8960     1.0240 C.ar  1 <1>   0.1770 
  3 C        1.8450    -1.1360    -0.3060 C.ar  1 <1>  -0.1500 
  4 C        2.4140    -1.3540     2.0140 C.ar  1 <1>  -0.1500 
  5 C        2.9840    -1.8450    -0.6460 C.ar  1 <1>  -0.1500 
  6 C        3.5520    -2.0630     1.6660 C.ar  1 <1>  -0.1500 
  7 C        3.8620    -2.3200     0.3300 C.ar  1 <1>  -0.1430 
  8 C        5.1250    -3.0900    -0.1220 C.3   1 <1>   0.1430 
  9 C        4.6970    -4.3660    -0.8720 C.3   1 <1>  -0.1600 
 10 C        5.9480    -3.6970     1.0350 C.3   1 <1>  -0.1600 
 11 C        5.9600    -2.1010    -0.9730 C.3   1 <1>   0.3430 
 12 C        4.3650    -5.3780     0.2280 C.3   1 <1>  -0.1600 
 13 C        5.2050    -4.9740     1.4440 C.3   1 <1>  -0.1600 
 14 N        7.2020    -2.6870    -1.5670 N.4   1 <1>  -0.8530 
 15 H        1.1690    -0.7730    -1.0600 H     1 <1>   0.1500 
 16 H        2.1770    -1.1580     3.0450 H     1 <1>   0.1500 
 17 H        3.1630    -2.0220    -1.6920 H     1 <1>   0.1500 
 18 H        4.1700    -2.4020     2.4760 H     1 <1>   0.1500 
 19 H        5.5090    -4.7670    -1.4500 H     1 <1>   0.0800 
 20 H        3.8550    -4.2240    -1.5260 H     1 <1>   0.0800 
 21 H        6.1050    -3.0260     1.8600 H     1 <1>   0.0800 
 22 H        6.9170    -4.0040     0.6890 H     1 <1>   0.0800 
 23 H        6.2230    -1.2620    -0.3480 H     1 <1>   0.0800 
 24 H        5.3350    -1.7240    -1.7660 H     1 <1>   0.0800 
 25 H        4.5760    -6.3870    -0.0850 H     1 <1>   0.0800 
 26 H        3.3190    -5.3090     0.4810 H     1 <1>   0.0800 
 27 H        4.5550    -4.7840     2.2820 H     1 <1>   0.0800 
 28 H        5.8960    -5.7530     1.7200 H     1 <1>   0.0800 
 29 H        7.8320    -3.0240    -0.8310 H     1 <1>   0.4500 
 30 H        7.7090    -1.9890    -2.1240 H     1 <1>   0.4500 
 31 H        6.9750    -3.4800    -2.1780 H     1 <1>   0.4500 
@<TRIPOS>BOND
  1   1   2  1   
  2   2   3  ar  
  3   2   4  ar  
  4   3   5  ar  
  5   3  15  1   
  6   4   6  ar  
  7   4  16  1   
  8   5   7  ar  
  9   5  17  1   
 10   6   7  ar  
 11   6  18  1   
 12   7   8  1   
 13   8   9  1   
 14   8  10  1   
 15   8  11  1   
 16   9  12  1   
 17   9  19  1   
 18   9  20  1   
 19  10  13  1   
 20  10  21  1   
 21  10  22  1   
 22  11  14  1   
 23  11  23  1   
 24  11  24  1   
 25  12  13  1   
 26  12  25  1   
 27  12  26  1   
 28  13  27  1   
 29  13  28  1   
 30  14  29  1   
 31  14  30  1   
 32  14  31  1   
@<TRIPOS>SUBSTRUCTURE
  1 ****   7 GROUP 4 **** **** 0

# MOE 2024.06 (io_trps.svl 2023.06)
