@<TRIPOS>MOLECULE
1,6,7-Trimethyl-3-(2-oxo-propyl)-8-m-tolyl-1H,8H-imidazo[2,1-f]purine-2,4-dione
50 53 1 0 0 
SMALL
USER_CHARGES


@<TRIPOS>ATOM
  1 O        0.9860    -0.1980     0.0020 O.2   1 <1>  -0.5750 
  2 C        1.9260     0.5210     0.2750 C.2   1 <1>   0.6860 
  3 N        1.6960     1.8240     0.6940 N.am  1 <1>  -0.4260 
  4 N        3.2250     0.0440     0.1560 N.am  1 <1>  -0.4420 
  5 C        2.7400     2.6600     1.0540 C.2   1 <1>   0.6990 
  6 C        0.4210     2.4780     0.2610 C.3   1 <1>   0.1940 
  7 C        4.2620     0.9220     0.4010 C.2   1 <1>   0.4200 
  8 C        3.4810    -1.3490    -0.3150 C.3   1 <1>   0.0520 
  9 O        2.5080     3.7580     1.5320 O.2   1 <1>  -0.5750 
 10 C        4.0710     2.1910     0.8440 C.2   1 <1>   0.2700 
 11 C        0.5730     3.0510    -1.1480 C.2   1 <1>   0.4430 
 12 N        5.5980     0.6930     0.2470 N.pl3 1 <1>  -0.7040 
 13 N        5.3490     2.7580     0.9740 N.pl3 1 <1>  -0.6330 
 14 O        1.6290     3.0620    -1.7150 O.2   1 <1>  -0.5750 
 15 C       -0.6720     3.6100    -1.7990 C.3   1 <1>  -0.1860 
 16 C        6.2110     1.8280     0.5950 C.cat 1 <1>   1.0690 
 17 C        6.0880     3.8830     1.2790 C.2   1 <1>   0.2340 
 18 N        7.4740     2.2590     0.6430 N.pl3 1 <1>  -0.5550 
 19 C        7.3920     3.5760     1.0770 C.2   1 <1>   0.1580 
 20 C        5.4040     5.1550     1.7380 C.3   1 <1>  -0.1090 
 21 C        8.6070     1.5180     0.2810 C.ar  1 <1>   0.3050 
 22 C        8.6450     4.4170     1.2470 C.3   1 <1>  -0.1090 
 23 C        9.0010     1.4530    -1.0470 C.ar  1 <1>  -0.1570 
 24 C        9.3240     0.8240     1.2440 C.ar  1 <1>  -0.1570 
 25 C       10.0950     0.6910    -1.4190 C.ar  1 <1>  -0.1510 
 26 C       10.4180     0.0610     0.8780 C.ar  1 <1>  -0.1570 
 27 C       10.7980    -0.0050    -0.4510 C.ar  1 <1>  -0.1570 
 28 C       10.5360     0.6110    -2.8700 C.3   1 <1>  -0.1040 
 29 H        0.1650     3.2700     0.9420 H     1 <1>   0.0720 
 30 H       -0.3850     1.7650     0.2730 H     1 <1>   0.0720 
 31 H        2.6540    -1.9900    -0.0570 H     1 <1>   0.0720 
 32 H        4.3670    -1.7470     0.1460 H     1 <1>   0.0720 
 33 H        3.5970    -1.3530    -1.3850 H     1 <1>   0.0720 
 34 H        6.0710    -0.1400    -0.0970 H     1 <1>   0.4450 
 35 H       -1.4140     2.8390    -1.8980 H     1 <1>   0.0720 
 36 H       -0.4330     3.9860    -2.7770 H     1 <1>   0.0720 
 37 H       -1.0690     4.4140    -1.2070 H     1 <1>   0.0720 
 38 H        4.7210     5.4980     0.9810 H     1 <1>   0.0720 
 39 H        6.1210     5.9310     1.9300 H     1 <1>   0.0720 
 40 H        4.8490     4.9690     2.6400 H     1 <1>   0.0720 
 41 H        9.2980     3.9640     1.9710 H     1 <1>   0.0720 
 42 H        8.4010     5.4090     1.5830 H     1 <1>   0.0720 
 43 H        9.1680     4.4940     0.3110 H     1 <1>   0.0720 
 44 H        8.4540     2.0030    -1.7920 H     1 <1>   0.1430 
 45 H        9.0330     0.8770     2.2770 H     1 <1>   0.1430 
 46 H       10.9790    -0.4800     1.6230 H     1 <1>   0.1430 
 47 H       11.6520    -0.6010    -0.7290 H     1 <1>   0.1430 
 48 H        9.9110     1.2150    -3.5030 H     1 <1>   0.0720 
 49 H       10.4890    -0.4070    -3.2130 H     1 <1>   0.0720 
 50 H       11.5500     0.9590    -2.9630 H     1 <1>   0.0720 
@<TRIPOS>BOND
  1   1   2  2   
  2   2   3  am  
  3   2   4  am  
  4   3   5  am  
  5   3   6  1   
  6   4   7  1   
  7   4   8  1   
  8   5   9  2   
  9   5  10  1   
 10   6  11  1   
 11   6  29  1   
 12   6  30  1   
 13   7  10  2   
 14   7  12  1   
 15   8  31  1   
 16   8  32  1   
 17   8  33  1   
 18  10  13  1   
 19  11  14  2   
 20  11  15  1   
 21  12  16  ar  
 22  12  34  1   
 23  13  16  ar  
 24  13  17  1   
 25  15  35  1   
 26  15  36  1   
 27  15  37  1   
 28  16  18  ar  
 29  17  19  2   
 30  17  20  1   
 31  18  19  1   
 32  18  21  1   
 33  19  22  1   
 34  20  38  1   
 35  20  39  1   
 36  20  40  1   
 37  21  23  ar  
 38  21  24  ar  
 39  22  41  1   
 40  22  42  1   
 41  22  43  1   
 42  23  25  ar  
 43  23  44  1   
 44  24  26  ar  
 45  24  45  1   
 46  25  27  ar  
 47  25  28  1   
 48  26  27  ar  
 49  26  46  1   
 50  27  47  1   
 51  28  48  1   
 52  28  49  1   
 53  28  50  1   
@<TRIPOS>SUBSTRUCTURE
  1 ****  16 GROUP 4 **** **** 0

# MOE 2024.06 (io_trps.svl 2023.06)
