@<TRIPOS>MOLECULE
3-Allyl-8-(2,4-dimethoxy-phenyl)-1-methyl-5,6,7,8-tetrahydro-1H-1,3,4b,8,9-penta
53 56 1 0 0 
SMALL
USER_CHARGES


@<TRIPOS>ATOM
  1 O        1.4580     0.5420    -1.7030 O.2   1 <1>  -0.5740 
  2 C        2.2960     1.1870    -1.1050 C.2   1 <1>   0.6860 
  3 N        1.9660     2.4100    -0.5360 N.am  1 <1>  -0.4250 
  4 N        3.5850     0.6860    -0.9730 N.am  1 <1>  -0.4410 
  5 C        2.8600     3.1020     0.2630 C.2   1 <1>   0.7000 
  6 C        0.6740     3.0530    -0.8900 C.3   1 <1>   0.2720 
  7 C        4.4840     1.4030    -0.2070 C.2   1 <1>   0.4210 
  8 C        3.9770    -0.6060    -1.6100 C.3   1 <1>   0.0530 
  9 O        2.5330     4.1250     0.8430 O.2   1 <1>  -0.5740 
 10 C        4.1800     2.5690     0.4020 C.2   1 <1>   0.2710 
 11 C        0.8340     3.9840    -2.0860 C.2   1 <1>  -0.2940 
 12 N        5.7820     1.0970     0.0670 N.pl3 1 <1>  -0.7030 
 13 N        5.3480     2.9810     1.0590 N.pl3 1 <1>  -0.7670 
 14 C        1.9080     4.1690    -2.8650 C.2   1 <1>  -0.3060 
 15 C        6.2850     2.0680     0.8250 C.cat 1 <1>   1.0690 
 16 C        5.5530     4.2220     1.8310 C.3   1 <1>   0.3480 
 17 N        7.5380     2.1530     1.3170 N.pl3 1 <1>  -0.5800 
 18 C        7.0500     4.5430     1.8390 C.3   1 <1>  -0.1670 
 19 C        8.5470     1.1990     1.0540 C.ar  1 <1>   0.3050 
 20 C        7.9040     3.3130     2.1790 C.3   1 <1>   0.1610 
 21 C        8.9420     0.8730    -0.2530 C.ar  1 <1>   0.0750 
 22 C        9.1690     0.5630     2.1200 C.ar  1 <1>  -0.1570 
 23 O        8.3120     1.5000    -1.2890 O.3   1 <1>  -0.3680 
 24 C        9.9430    -0.0700    -0.4660 C.ar  1 <1>  -0.1570 
 25 C       10.1630    -0.3730     1.9030 C.ar  1 <1>  -0.1570 
 26 C        8.9230     1.5880    -2.5620 C.3   1 <1>   0.0320 
 27 C       10.5560    -0.6930     0.6160 C.ar  1 <1>   0.0750 
 28 O       11.5390    -1.6220     0.4990 O.3   1 <1>  -0.3680 
 29 C       12.0730    -1.9770    -0.7580 C.3   1 <1>   0.0320 
 30 H        0.3090     3.6160    -0.0480 H     1 <1>   0.0730 
 31 H       -0.0680     2.3050    -1.1150 H     1 <1>   0.0730 
 32 H        3.3210    -0.8360    -2.4330 H     1 <1>   0.0730 
 33 H        3.9120    -1.4000    -0.8870 H     1 <1>   0.0730 
 34 H        4.9810    -0.5470    -1.9900 H     1 <1>   0.0730 
 35 H       -0.0780     4.5270    -2.2700 H     1 <1>   0.1430 
 36 H        6.3560     0.3500    -0.3170 H     1 <1>   0.4450 
 37 H        1.9210     4.8560    -3.6940 H     1 <1>   0.1430 
 38 H        2.8510     3.6660    -2.7630 H     1 <1>   0.1430 
 39 H        5.1940     4.0770     2.8370 H     1 <1>   0.0730 
 40 H        5.0020     5.0340     1.3840 H     1 <1>   0.0730 
 41 H        7.2420     5.3240     2.5530 H     1 <1>   0.0730 
 42 H        7.3380     4.9210     0.8730 H     1 <1>   0.0730 
 43 H        8.9460     3.5530     2.0400 H     1 <1>   0.0730 
 44 H        7.7560     3.0430     3.2120 H     1 <1>   0.0730 
 45 H        8.8810     0.7910     3.1310 H     1 <1>   0.1430 
 46 H       10.2440    -0.3260    -1.4620 H     1 <1>   0.1430 
 47 H       10.6450    -0.8640     2.7310 H     1 <1>   0.1430 
 48 H        8.3510     2.2720    -3.1640 H     1 <1>   0.0730 
 49 H        8.9240     0.6160    -3.0230 H     1 <1>   0.0730 
 50 H        9.9270     1.9590    -2.4470 H     1 <1>   0.0730 
 51 H       12.8520    -2.7000    -0.5960 H     1 <1>   0.0730 
 52 H       12.4830    -1.0990    -1.2250 H     1 <1>   0.0730 
 53 H       11.2940    -2.4090    -1.3600 H     1 <1>   0.0730 
@<TRIPOS>BOND
  1   1   2  2   
  2   2   3  am  
  3   2   4  am  
  4   3   5  am  
  5   3   6  1   
  6   4   7  1   
  7   4   8  1   
  8   5   9  2   
  9   5  10  1   
 10   6  11  1   
 11   6  30  1   
 12   6  31  1   
 13   7  10  2   
 14   7  12  1   
 15   8  32  1   
 16   8  33  1   
 17   8  34  1   
 18  10  13  1   
 19  11  14  2   
 20  11  35  1   
 21  12  15  ar  
 22  12  36  1   
 23  13  15  ar  
 24  13  16  1   
 25  14  37  1   
 26  14  38  1   
 27  15  17  ar  
 28  16  18  1   
 29  16  39  1   
 30  16  40  1   
 31  17  19  1   
 32  17  20  1   
 33  18  20  1   
 34  18  41  1   
 35  18  42  1   
 36  19  21  ar  
 37  19  22  ar  
 38  20  43  1   
 39  20  44  1   
 40  21  23  1   
 41  21  24  ar  
 42  22  25  ar  
 43  22  45  1   
 44  23  26  1   
 45  24  27  ar  
 46  24  46  1   
 47  25  27  ar  
 48  25  47  1   
 49  26  48  1   
 50  26  49  1   
 51  26  50  1   
 52  27  28  1   
 53  28  29  1   
 54  29  51  1   
 55  29  52  1   
 56  29  53  1   
@<TRIPOS>SUBSTRUCTURE
  1 ****  12 GROUP 4 **** **** 0

# MOE 2024.06 (io_trps.svl 2023.06)
