@<TRIPOS>MOLECULE
4-Morpholin-4-ylmethyl-thiazol-2-ylamine
27 28 1 0 0 
SMALL
USER_CHARGES


@<TRIPOS>ATOM
  1 S        0.5680    -0.2500    -1.2270 S.3   1 <1>  -0.0800 
  2 C       -0.6870    -1.2650    -1.9140 C.2   1 <1>   0.4620 
  3 C       -0.3640    -0.1250     0.2400 C.2   1 <1>  -0.1100 
  4 N       -1.6800    -1.4750    -1.1330 N.2   1 <1>  -0.5650 
  5 N       -0.5310    -1.7340    -3.1720 N.pl3 1 <1>  -0.8840 
  6 C       -1.4950    -0.8340     0.0860 C.2   1 <1>   0.0460 
  7 C       -2.6070    -0.9900     1.1130 C.3   1 <1>   0.5240 
  8 N       -3.9030    -0.8420     0.3960 N.4   1 <1>  -0.9590 
  9 C       -4.1640     0.5760    -0.0260 C.3   1 <1>   0.3430 
 10 C       -5.0680    -1.4350     1.1290 C.3   1 <1>   0.3430 
 11 C       -5.5300     0.7090    -0.7230 C.3   1 <1>   0.1200 
 12 C       -6.3870    -1.1940     0.3700 C.3   1 <1>   0.1200 
 13 O       -6.5390     0.1660     0.0810 O.3   1 <1>  -0.5600 
 14 H        0.0500     0.4650     1.0390 H     1 <1>   0.1500 
 15 H       -1.1740    -2.4310    -3.5490 H     1 <1>   0.4000 
 16 H        0.3440    -1.6050    -3.6850 H     1 <1>   0.4000 
 17 H       -2.5120    -0.2590     1.8980 H     1 <1>   0.0800 
 18 H       -2.5390    -1.9770     1.5400 H     1 <1>   0.0800 
 19 H       -3.7390    -1.3740    -0.4780 H     1 <1>   0.4500 
 20 H       -3.3880     0.9090    -0.6970 H     1 <1>   0.0800 
 21 H       -4.1600     1.2220     0.8370 H     1 <1>   0.0800 
 22 H       -5.1540    -0.9850     2.1040 H     1 <1>   0.0800 
 23 H       -4.9230    -2.4950     1.2620 H     1 <1>   0.0800 
 24 H       -5.5320     0.2040    -1.6740 H     1 <1>   0.0800 
 25 H       -5.7650     1.7470    -0.8870 H     1 <1>   0.0800 
 26 H       -7.2250    -1.4950     0.9760 H     1 <1>   0.0800 
 27 H       -6.4140    -1.7510    -0.5510 H     1 <1>   0.0800 
@<TRIPOS>BOND
  1   1   2  1   
  2   1   3  1   
  3   2   4  2   
  4   2   5  1   
  5   3   6  2   
  6   3  14  1   
  7   4   6  1   
  8   5  15  1   
  9   5  16  1   
 10   6   7  1   
 11   7   8  1   
 12   7  17  1   
 13   7  18  1   
 14   8   9  1   
 15   8  10  1   
 16   8  19  1   
 17   9  11  1   
 18   9  20  1   
 19   9  21  1   
 20  10  12  1   
 21  10  22  1   
 22  10  23  1   
 23  11  13  1   
 24  11  24  1   
 25  11  25  1   
 26  12  13  1   
 27  12  26  1   
 28  12  27  1   
@<TRIPOS>SUBSTRUCTURE
  1 ****   8 GROUP 4 **** **** 0

# MOE 2024.06 (io_trps.svl 2023.06)
