@<TRIPOS>MOLECULE
1-(6-Ethyl-2-methyl-thieno[2,3-d]pyrimidin-4-yl)-piperidine-4-carboxylic acid am
41 43 1 0 0 
SMALL
USER_CHARGES


@<TRIPOS>ATOM
  1 S       -0.0870    -0.2530    -0.7870 S.3   1 <1>  -0.0800 
  2 C        1.2910     0.8360    -0.6280 C.ar  1 <1>   0.2970 
  3 C       -1.1770     0.9230    -0.0450 C.2   1 <1>  -0.1400 
  4 N        2.5090     0.5180    -1.0080 N.ar  1 <1>  -0.5670 
  5 C        0.8990     2.0200    -0.0590 C.ar  1 <1>   0.0000 
  6 C       -0.5020     2.0430     0.2760 C.2   1 <1>  -0.1500 
  7 C       -2.6240     0.4880     0.1060 C.3   1 <1>   0.0200 
  8 C        3.3760     1.4850    -0.7790 C.ar  1 <1>   0.4770 
  9 C        1.9150     2.9630     0.1010 C.ar  1 <1>   0.4100 
 10 C       -3.4870     1.5710     0.7590 C.3   1 <1>  -0.2400 
 11 N        3.1590     2.6780    -0.2450 N.ar  1 <1>  -0.6200 
 12 C        4.8070     1.2100    -1.1760 C.3   1 <1>  -0.0960 
 13 N        1.6700     4.2240     0.6090 N.pl3 1 <1>  -0.8380 
 14 C        2.6640     4.8840     1.4980 C.3   1 <1>   0.2090 
 15 C        0.7020     5.1230    -0.0710 C.3   1 <1>   0.2090 
 16 C        3.4020     5.9900     0.7400 C.3   1 <1>  -0.1600 
 17 C        1.4490     6.2270    -0.8230 C.3   1 <1>  -0.1600 
 18 C        2.4220     6.9860     0.0980 C.3   1 <1>  -0.0190 
 19 C        3.1650     8.0950    -0.6450 C.2   1 <1>   0.5690 
 20 O        3.7020     7.8800    -1.7010 O.2   1 <1>  -0.5700 
 21 N        3.2230     9.3290    -0.1110 N.am  1 <1>  -0.8000 
 22 H       -0.9190     2.9110     0.7520 H     1 <1>   0.1500 
 23 H       -2.6590    -0.4050     0.7050 H     1 <1>   0.0800 
 24 H       -3.0220     0.2520    -0.8660 H     1 <1>   0.0800 
 25 H       -3.1130     1.8030     1.7400 H     1 <1>   0.0800 
 26 H       -4.5020     1.2260     0.8500 H     1 <1>   0.0800 
 27 H       -3.4800     2.4640     0.1600 H     1 <1>   0.0800 
 28 H        4.9110     0.2100    -1.5530 H     1 <1>   0.0800 
 29 H        5.4440     1.3310    -0.3200 H     1 <1>   0.0800 
 30 H        5.1040     1.9060    -1.9370 H     1 <1>   0.0800 
 31 H        3.3700     4.1590     1.8650 H     1 <1>   0.0800 
 32 H        2.1480     5.3010     2.3460 H     1 <1>   0.0800 
 33 H        0.0470     5.5540     0.6660 H     1 <1>   0.0800 
 34 H        0.1050     4.5640    -0.7710 H     1 <1>   0.0800 
 35 H        4.0090     5.5340    -0.0250 H     1 <1>   0.0800 
 36 H        4.0600     6.5050     1.4160 H     1 <1>   0.0800 
 37 H        0.7390     6.9130    -1.2480 H     1 <1>   0.0800 
 38 H        1.9960     5.7780    -1.6350 H     1 <1>   0.0800 
 39 H        1.8460     7.4430     0.8820 H     1 <1>   0.0800 
 40 H        3.7270    10.0590    -0.6170 H     1 <1>   0.3700 
 41 H        2.8060     9.5950     0.7790 H     1 <1>   0.3700 
@<TRIPOS>BOND
  1   1   2  1   
  2   1   3  1   
  3   2   4  ar  
  4   2   5  ar  
  5   3   6  2   
  6   3   7  1   
  7   4   8  ar  
  8   5   6  1   
  9   5   9  ar  
 10   6  22  1   
 11   7  10  1   
 12   7  23  1   
 13   7  24  1   
 14   8  11  ar  
 15   8  12  1   
 16   9  11  ar  
 17   9  13  1   
 18  10  25  1   
 19  10  26  1   
 20  10  27  1   
 21  12  28  1   
 22  12  29  1   
 23  12  30  1   
 24  13  14  1   
 25  13  15  1   
 26  14  16  1   
 27  14  31  1   
 28  14  32  1   
 29  15  17  1   
 30  15  33  1   
 31  15  34  1   
 32  16  18  1   
 33  16  35  1   
 34  16  36  1   
 35  17  18  1   
 36  17  37  1   
 37  17  38  1   
 38  18  19  1   
 39  18  39  1   
 40  19  20  2   
 41  19  21  am  
 42  21  40  1   
 43  21  41  1   
@<TRIPOS>SUBSTRUCTURE
  1 ****   9 GROUP 4 **** **** 0

# MOE 2024.06 (io_trps.svl 2023.06)
