@<TRIPOS>MOLECULE
4-(2,4-Dimethyl-phenyl)-6-[(2-morpholin-4-yl-ethylamino)-methyl]-2-oxo-1,2,3,4-t
60 62 1 0 0 
SMALL
USER_CHARGES


@<TRIPOS>ATOM
  1 O       -2.4500    -0.0970    -1.0780 O.2   1 <1>  -0.5700 
  2 C       -3.2740     0.7330    -0.7740 C.2   1 <1>   0.6900 
  3 N       -4.4300     0.8310    -1.4720 N.am  1 <1>  -0.5390 
  4 N       -3.0610     1.5810     0.2420 N.am  1 <1>  -0.7300 
  5 C       -5.4190     1.7660    -1.2210 C.2   1 <1>  -0.0290 
  6 C       -3.9180     2.7460     0.5250 C.3   1 <1>   0.5020 
  7 C       -5.2490     2.7030    -0.2430 C.2   1 <1>  -0.1240 
  8 C       -6.6550     1.6360    -2.1100 C.3   1 <1>   0.2480 
  9 C       -3.0950     3.9930     0.1870 C.ar  1 <1>  -0.1430 
 10 C       -6.1950     3.6940     0.1870 C.2   1 <1>   0.7060 
 11 N       -7.7990     1.2270    -1.2950 N.3   1 <1>  -0.9000 
 12 C       -2.5520     4.8200     1.1700 C.ar  1 <1>  -0.1430 
 13 C       -2.8760     4.3050    -1.1500 C.ar  1 <1>  -0.1500 
 14 O       -7.3030     3.8250    -0.3020 O.2   1 <1>  -0.5700 
 15 O       -5.8730     4.4930     1.2100 O.3   1 <1>  -0.4300 
 16 C       -9.0170     1.0440    -2.1080 C.3   1 <1>   0.1100 
 17 C       -1.8250     5.9410     0.7950 C.ar  1 <1>  -0.1500 
 18 C       -2.7210     4.5390     2.6580 C.3   1 <1>  -0.0970 
 19 C       -2.1500     5.4240    -1.5100 C.ar  1 <1>  -0.1500 
 20 C       -6.7160     5.5410     1.6480 C.3   1 <1>   0.0400 
 21 C      -10.1690     0.5070    -1.2360 C.3   1 <1>   0.3430 
 22 C       -1.6230     6.2520    -0.5370 C.ar  1 <1>  -0.1430 
 23 N       -9.6070    -0.4370    -0.2300 N.4   1 <1>  -0.9590 
 24 C       -0.8230     7.4830    -0.9240 C.3   1 <1>  -0.0960 
 25 C       -9.2950    -1.8060    -0.7470 C.3   1 <1>   0.3430 
 26 C      -10.3400    -0.4740     1.0780 C.3   1 <1>   0.3430 
 27 C       -8.5400    -2.6440     0.3140 C.3   1 <1>   0.1200 
 28 C       -9.8300    -1.6080     1.9960 C.3   1 <1>   0.1200 
 29 O       -8.5670    -2.0490     1.5860 O.3   1 <1>  -0.5600 
 30 H       -4.5140     0.1200    -2.1980 H     1 <1>   0.3700 
 31 H       -2.1030     1.6470     0.5790 H     1 <1>   0.3700 
 32 H       -4.1460     2.7170     1.5750 H     1 <1>   0.0800 
 33 H       -6.4780     0.9090    -2.8850 H     1 <1>   0.0800 
 34 H       -6.8580     2.5850    -2.5780 H     1 <1>   0.0800 
 35 H       -7.9470     2.0530    -0.6800 H     1 <1>   0.3600 
 36 H       -3.2690     3.6720    -1.9260 H     1 <1>   0.1500 
 37 H       -8.8200     0.3370    -2.8960 H     1 <1>   0.0800 
 38 H       -9.3080     1.9780    -2.5620 H     1 <1>   0.0800 
 39 H       -1.4070     6.5850     1.5490 H     1 <1>   0.1500 
 40 H       -3.7540     4.6340     2.9390 H     1 <1>   0.0800 
 41 H       -2.1500     5.2330     3.2480 H     1 <1>   0.0800 
 42 H       -2.3780     3.5470     2.8920 H     1 <1>   0.0800 
 43 H       -1.9950     5.6440    -2.5520 H     1 <1>   0.1500 
 44 H       -6.2290     6.0540     2.4580 H     1 <1>   0.0800 
 45 H       -7.6510     5.1250     1.9820 H     1 <1>   0.0800 
 46 H       -6.8810     6.2200     0.8290 H     1 <1>   0.0800 
 47 H      -10.9200     0.0300    -1.8430 H     1 <1>   0.0800 
 48 H      -10.6230     1.3430    -0.7300 H     1 <1>   0.0800 
 49 H       -8.6650    -0.0340    -0.0370 H     1 <1>   0.4500 
 50 H       -1.1110     7.8300    -1.9000 H     1 <1>   0.0800 
 51 H        0.2250     7.2460    -0.9350 H     1 <1>   0.0800 
 52 H       -0.9940     8.2760    -0.2190 H     1 <1>   0.0800 
 53 H       -8.6890    -1.7380    -1.6350 H     1 <1>   0.0800 
 54 H      -10.2080    -2.3130    -1.0080 H     1 <1>   0.0800 
 55 H      -11.3950    -0.6130     0.9100 H     1 <1>   0.0800 
 56 H      -10.2120     0.4670     1.5860 H     1 <1>   0.0800 
 57 H       -7.5070    -2.7460     0.0310 H     1 <1>   0.0800 
 58 H       -8.9660    -3.6300     0.3870 H     1 <1>   0.0800 
 59 H      -10.5060    -2.4460     1.9820 H     1 <1>   0.0800 
 60 H       -9.7490    -1.2580     3.0110 H     1 <1>   0.0800 
@<TRIPOS>BOND
  1   1   2  2   
  2   2   3  am  
  3   2   4  am  
  4   3   5  1   
  5   3  30  1   
  6   4   6  1   
  7   4  31  1   
  8   5   7  2   
  9   5   8  1   
 10   6   7  1   
 11   6   9  1   
 12   6  32  1   
 13   7  10  1   
 14   8  11  1   
 15   8  33  1   
 16   8  34  1   
 17   9  12  ar  
 18   9  13  ar  
 19  10  14  2   
 20  10  15  1   
 21  11  16  1   
 22  11  35  1   
 23  12  17  ar  
 24  12  18  1   
 25  13  19  ar  
 26  13  36  1   
 27  15  20  1   
 28  16  21  1   
 29  16  37  1   
 30  16  38  1   
 31  17  22  ar  
 32  17  39  1   
 33  18  40  1   
 34  18  41  1   
 35  18  42  1   
 36  19  22  ar  
 37  19  43  1   
 38  20  44  1   
 39  20  45  1   
 40  20  46  1   
 41  21  23  1   
 42  21  47  1   
 43  21  48  1   
 44  22  24  1   
 45  23  25  1   
 46  23  26  1   
 47  23  49  1   
 48  24  50  1   
 49  24  51  1   
 50  24  52  1   
 51  25  27  1   
 52  25  53  1   
 53  25  54  1   
 54  26  28  1   
 55  26  55  1   
 56  26  56  1   
 57  27  29  1   
 58  27  57  1   
 59  27  58  1   
 60  28  29  1   
 61  28  59  1   
 62  28  60  1   
@<TRIPOS>SUBSTRUCTURE
  1 ****   7 GROUP 4 **** **** 0

# MOE 2024.06 (io_trps.svl 2023.06)
