@<TRIPOS>MOLECULE
5-Oxo-1-p-tolyl-pyrrolidine-3-carboxylic acid (3,4,5-trimethoxy-phenyl)-amide
52 54 1 0 0 
SMALL
USER_CHARGES


@<TRIPOS>ATOM
  1 O        2.6040    -0.7570    -2.5490 O.2   1 <1>  -0.5700 
  2 C        3.3340    -0.5650    -1.6100 C.2   1 <1>   0.5690 
  3 N        3.2850    -1.1610    -0.3820 N.am  1 <1>  -0.4770 
  4 C        4.4670     0.4170    -1.6960 C.3   1 <1>  -0.0990 
  5 C        2.4010    -2.1590     0.0780 C.ar  1 <1>   0.1170 
  6 C        4.3630    -0.6420     0.4850 C.3   1 <1>   0.1400 
  7 C        5.3330     0.0580    -0.4790 C.3   1 <1>  -0.0190 
  8 C        1.9990    -2.1990     1.4110 C.ar  1 <1>  -0.1500 
  9 C        1.9130    -3.1410    -0.7780 C.ar  1 <1>  -0.1500 
 10 C        6.0600     1.2420     0.1430 C.2   1 <1>   0.5690 
 11 C        1.1490    -3.1880     1.8720 C.ar  1 <1>  -0.1500 
 12 C        1.0610    -4.1300    -0.3210 C.ar  1 <1>  -0.1500 
 13 O        6.0620     1.3590     1.3430 O.2   1 <1>  -0.5700 
 14 N        6.7050     2.1070    -0.6980 N.am  1 <1>  -0.5470 
 15 C        0.6760    -4.1620     1.0090 C.ar  1 <1>  -0.1430 
 16 C        7.3950     3.2980    -0.4220 C.ar  1 <1>   0.1170 
 17 C       -0.2600    -5.2470     1.5090 C.3   1 <1>  -0.0970 
 18 C        7.1170     4.0910     0.6850 C.ar  1 <1>  -0.1500 
 19 C        8.3840     3.7130    -1.3020 C.ar  1 <1>  -0.1500 
 20 C        7.8100     5.2680     0.9060 C.ar  1 <1>   0.0830 
 21 C        9.0900     4.8870    -1.1000 C.ar  1 <1>   0.0830 
 22 O        7.4840     5.9880     2.0070 O.3   1 <1>  -0.3620 
 23 C        8.7900     5.6920     0.0060 C.ar  1 <1>   0.0830 
 24 O       10.0380     5.1710    -2.0350 O.3   1 <1>  -0.3630 
 25 C        8.4350     5.9850     3.0480 C.3   1 <1>   0.0400 
 26 O        9.4220     6.8850     0.2010 O.3   1 <1>  -0.3630 
 27 C       11.2810     5.7010    -1.6280 C.3   1 <1>   0.0400 
 28 C        8.6670     8.0190    -0.1580 C.3   1 <1>   0.0400 
 29 H        4.0590     1.4090    -1.6170 H     1 <1>   0.0800 
 30 H        4.9990     0.3050    -2.6230 H     1 <1>   0.0800 
 31 H        4.8480    -1.4400     1.0200 H     1 <1>   0.0800 
 32 H        3.9380     0.0590     1.1840 H     1 <1>   0.0800 
 33 H        6.0700    -0.6660    -0.7760 H     1 <1>   0.0800 
 34 H        2.3440    -1.4510     2.0990 H     1 <1>   0.1500 
 35 H        2.2010    -3.1330    -1.8140 H     1 <1>   0.1500 
 36 H        0.8530    -3.1950     2.9060 H     1 <1>   0.1500 
 37 H        0.6990    -4.8740    -1.0080 H     1 <1>   0.1500 
 38 H        6.7200     1.8380    -1.6800 H     1 <1>   0.3700 
 39 H       -0.0790    -5.4510     2.5490 H     1 <1>   0.0800 
 40 H       -0.1120    -6.1560     0.9550 H     1 <1>   0.0800 
 41 H       -1.2800    -4.9290     1.3900 H     1 <1>   0.0800 
 42 H        6.3560     3.8040     1.3860 H     1 <1>   0.1500 
 43 H        8.6240     3.1190    -2.1630 H     1 <1>   0.1500 
 44 H        8.0270     6.5320     3.8780 H     1 <1>   0.0800 
 45 H        9.3380     6.4580     2.7040 H     1 <1>   0.0800 
 46 H        8.6310     4.9670     3.3360 H     1 <1>   0.0800 
 47 H       12.0070     5.4760    -2.3880 H     1 <1>   0.0800 
 48 H       11.5710     5.2490    -0.6950 H     1 <1>   0.0800 
 49 H       11.1880     6.7660    -1.5200 H     1 <1>   0.0800 
 50 H        9.2710     8.8930     0.0040 H     1 <1>   0.0800 
 51 H        7.7840     8.0640     0.4540 H     1 <1>   0.0800 
 52 H        8.3990     7.9420    -1.1980 H     1 <1>   0.0800 
@<TRIPOS>BOND
  1   1   2  2   
  2   2   3  am  
  3   2   4  1   
  4   3   5  1   
  5   3   6  1   
  6   4   7  1   
  7   4  29  1   
  8   4  30  1   
  9   5   8  ar  
 10   5   9  ar  
 11   6   7  1   
 12   6  31  1   
 13   6  32  1   
 14   7  10  1   
 15   7  33  1   
 16   8  11  ar  
 17   8  34  1   
 18   9  12  ar  
 19   9  35  1   
 20  10  13  2   
 21  10  14  am  
 22  11  15  ar  
 23  11  36  1   
 24  12  15  ar  
 25  12  37  1   
 26  14  16  1   
 27  14  38  1   
 28  15  17  1   
 29  16  18  ar  
 30  16  19  ar  
 31  17  39  1   
 32  17  40  1   
 33  17  41  1   
 34  18  20  ar  
 35  18  42  1   
 36  19  21  ar  
 37  19  43  1   
 38  20  22  1   
 39  20  23  ar  
 40  21  23  ar  
 41  21  24  1   
 42  22  25  1   
 43  23  26  1   
 44  24  27  1   
 45  25  44  1   
 46  25  45  1   
 47  25  46  1   
 48  26  28  1   
 49  27  47  1   
 50  27  48  1   
 51  27  49  1   
 52  28  50  1   
 53  28  51  1   
 54  28  52  1   
@<TRIPOS>SUBSTRUCTURE
  1 ****  10 GROUP 4 **** **** 0

# MOE 2024.06 (io_trps.svl 2023.06)
