@<TRIPOS>MOLECULE
N-(2-Methoxy-ethyl)-2-[2-methyl-4-(piperidine-1-sulfonyl)-phenoxy]-acetamide
51 52 1 0 0 
SMALL
USER_CHARGES


@<TRIPOS>ATOM
  1 S       -0.4850     0.3230     1.6040 S.o2  1 <1>   1.4470 
  2 O       -0.6070    -0.9590     2.2660 O.2   1 <1>  -0.6500 
  3 O       -1.1900     1.4670     2.1400 O.2   1 <1>  -0.6500 
  4 N       -1.0110     0.1030     0.0070 N.am  1 <1>  -0.8490 
  5 C        1.2650     0.7500     1.4080 C.ar  1 <1>  -0.0090 
  6 C       -2.4750     0.1220    -0.0770 C.3   1 <1>   0.1960 
  7 C       -0.4680    -1.1230    -0.5870 C.3   1 <1>   0.1960 
  8 C        1.6640     1.7110     0.4880 C.ar  1 <1>  -0.1500 
  9 C        2.2470     0.1360     2.1750 C.ar  1 <1>  -0.1500 
 10 C       -2.9260     0.0770    -1.5420 C.3   1 <1>  -0.1600 
 11 C       -0.8360    -1.2010    -2.0720 C.3   1 <1>  -0.1600 
 12 C        2.9960     2.0530     0.3220 C.ar  1 <1>  -0.1430 
 13 C        3.5820     0.4620     2.0260 C.ar  1 <1>  -0.1500 
 14 C       -2.3550    -1.1450    -2.2700 C.3   1 <1>  -0.1600 
 15 C        3.9650     1.4250     1.0970 C.ar  1 <1>   0.0830 
 16 C        3.3800     3.1110    -0.7020 C.3   1 <1>  -0.0970 
 17 O        5.2560     1.7920     0.9070 O.3   1 <1>  -0.3630 
 18 C        6.3110     1.2620     1.7000 C.3   1 <1>   0.1810 
 19 C        7.6470     1.8850     1.3170 C.2   1 <1>   0.5690 
 20 O        8.6560     1.4450     1.8110 O.2   1 <1>  -0.5700 
 21 N        7.6710     2.9130     0.4280 N.am  1 <1>  -0.7300 
 22 C        8.8850     3.6420    -0.0160 C.3   1 <1>   0.1400 
 23 C        9.6350     2.8330    -1.0730 C.3   1 <1>   0.1200 
 24 O       10.6500     3.6290    -1.6000 O.3   1 <1>  -0.5600 
 25 C       11.4600     2.9690    -2.5190 C.3   1 <1>   0.0400 
 26 H       -2.8540     1.0270     0.3700 H     1 <1>   0.0800 
 27 H       -2.8820    -0.7160     0.4640 H     1 <1>   0.0800 
 28 H       -0.8560    -1.9870    -0.0700 H     1 <1>   0.0800 
 29 H        0.6050    -1.1300    -0.4940 H     1 <1>   0.0800 
 30 H        0.9070     2.1950    -0.1070 H     1 <1>   0.1500 
 31 H        1.9600    -0.6100     2.8980 H     1 <1>   0.1500 
 32 H       -2.5960     0.9780    -2.0300 H     1 <1>   0.0800 
 33 H       -4.0000     0.0550    -1.5830 H     1 <1>   0.0800 
 34 H       -0.4500    -2.1150    -2.4880 H     1 <1>   0.0800 
 35 H       -0.3700    -0.3800    -2.5880 H     1 <1>   0.0800 
 36 H        4.3010    -0.0440     2.6420 H     1 <1>   0.1500 
 37 H       -2.5890    -1.0920    -3.3190 H     1 <1>   0.0800 
 38 H       -2.8020    -2.0400    -1.8710 H     1 <1>   0.0800 
 39 H        2.5160     3.4740    -1.2290 H     1 <1>   0.0800 
 40 H        4.0660     2.6950    -1.4180 H     1 <1>   0.0800 
 41 H        3.8520     3.9410    -0.2090 H     1 <1>   0.0800 
 42 H        6.3570     0.2010     1.5430 H     1 <1>   0.0800 
 43 H        6.1040     1.4770     2.7320 H     1 <1>   0.0800 
 44 H        6.7760     3.2120     0.0280 H     1 <1>   0.3700 
 45 H        9.5320     3.8030     0.8300 H     1 <1>   0.0800 
 46 H        8.5970     4.5940    -0.4240 H     1 <1>   0.0800 
 47 H        8.9720     2.5540    -1.8740 H     1 <1>   0.0800 
 48 H       10.0730     1.9580    -0.6240 H     1 <1>   0.0800 
 49 H       12.2020     3.6640    -2.8700 H     1 <1>   0.0800 
 50 H       10.8590     2.6320    -3.3460 H     1 <1>   0.0800 
 51 H       11.9410     2.1370    -2.0350 H     1 <1>   0.0800 
@<TRIPOS>BOND
  1   1   2  2   
  2   1   3  2   
  3   1   4  am  
  4   1   5  1   
  5   4   6  1   
  6   4   7  1   
  7   5   8  ar  
  8   5   9  ar  
  9   6  10  1   
 10   6  26  1   
 11   6  27  1   
 12   7  11  1   
 13   7  28  1   
 14   7  29  1   
 15   8  12  ar  
 16   8  30  1   
 17   9  13  ar  
 18   9  31  1   
 19  10  14  1   
 20  10  32  1   
 21  10  33  1   
 22  11  14  1   
 23  11  34  1   
 24  11  35  1   
 25  12  15  ar  
 26  12  16  1   
 27  13  15  ar  
 28  13  36  1   
 29  14  37  1   
 30  14  38  1   
 31  15  17  1   
 32  16  39  1   
 33  16  40  1   
 34  16  41  1   
 35  17  18  1   
 36  18  19  1   
 37  18  42  1   
 38  18  43  1   
 39  19  20  2   
 40  19  21  am  
 41  21  22  1   
 42  21  44  1   
 43  22  23  1   
 44  22  45  1   
 45  22  46  1   
 46  23  24  1   
 47  23  47  1   
 48  23  48  1   
 49  24  25  1   
 50  25  49  1   
 51  25  50  1   
 52  25  51  1   
@<TRIPOS>SUBSTRUCTURE
  1 ****  12 GROUP 4 **** **** 0

# MOE 2024.06 (io_trps.svl 2023.06)
