@<TRIPOS>MOLECULE
1-[1-(3-Chloro-4-methoxy-benzenesulfonyl)-piperidine-4-carbonyl]-piperidine-4-ca
55 57 1 0 0 
SMALL
USER_CHARGES


@<TRIPOS>ATOM
  1 CL       1.0270     2.1020     3.2060 Cl    1 <1>  -0.1770 
  2 C        1.1600     1.8770     1.4750 C.ar  1 <1>   0.1770 
  3 C        0.3370     0.9690     0.8190 C.ar  1 <1>   0.0830 
  4 C        2.1000     2.6230     0.7920 C.ar  1 <1>  -0.1500 
  5 O       -0.5660     0.2660     1.5500 O.3   1 <1>  -0.3630 
  6 C        0.4820     0.8270    -0.5580 C.ar  1 <1>  -0.1500 
  7 C        2.2560     2.4830    -0.5810 C.ar  1 <1>  -0.0090 
  8 C       -1.4550    -0.6520     0.9540 C.3   1 <1>   0.0400 
  9 C        1.4280     1.5770    -1.2390 C.ar  1 <1>  -0.1500 
 10 S        3.4900     3.4590    -1.4830 S.o2  1 <1>   1.4470 
 11 O        3.8090     2.8130    -2.7390 O.2   1 <1>  -0.6500 
 12 O        3.0800     4.8460    -1.4840 O.2   1 <1>  -0.6500 
 13 N        4.8690     3.3300    -0.5040 N.am  1 <1>  -0.8490 
 14 C        5.8370     4.3910    -0.7940 C.3   1 <1>   0.1960 
 15 C        5.4830     2.0010    -0.5880 C.3   1 <1>   0.1960 
 16 C        6.9930     4.3400     0.2070 C.3   1 <1>  -0.1600 
 17 C        6.6210     1.8770     0.4270 C.3   1 <1>  -0.1600 
 18 C        7.6860     2.9640     0.2030 C.3   1 <1>  -0.0190 
 19 C        8.8180     2.8580     1.2360 C.2   1 <1>   0.5690 
 20 O        8.7160     3.5120     2.2490 O.2   1 <1>  -0.5700 
 21 N        9.9080     2.0440     1.0230 N.am  1 <1>  -0.6600 
 22 C       10.0690     1.0640    -0.0880 C.3   1 <1>   0.1400 
 23 C       11.0870     2.1030     1.9330 C.3   1 <1>   0.1400 
 24 C       11.2930     1.4430    -0.9250 C.3   1 <1>  -0.1600 
 25 C       12.3330     2.4870     1.1280 C.3   1 <1>  -0.1600 
 26 C       12.5650     1.5320    -0.0580 C.3   1 <1>  -0.0190 
 27 C       13.7830     1.9580    -0.8760 C.2   1 <1>   0.5690 
 28 O       13.7130     2.8810    -1.6450 O.2   1 <1>  -0.5700 
 29 N       14.9460     1.2980    -0.7310 N.am  1 <1>  -0.8000 
 30 H        2.7180     3.3180     1.3350 H     1 <1>   0.1500 
 31 H       -0.1300     0.1420    -1.1150 H     1 <1>   0.1500 
 32 H       -2.0720    -1.0700     1.7290 H     1 <1>   0.0800 
 33 H       -0.8870    -1.4330     0.4810 H     1 <1>   0.0800 
 34 H       -2.0690    -0.1320     0.2400 H     1 <1>   0.0800 
 35 H        1.5270     1.4570    -2.3060 H     1 <1>   0.1500 
 36 H        5.3600     5.3540    -0.7130 H     1 <1>   0.0800 
 37 H        6.2080     4.2840    -1.8010 H     1 <1>   0.0800 
 38 H        5.8620     1.8330    -1.5840 H     1 <1>   0.0800 
 39 H        4.7450     1.2460    -0.3770 H     1 <1>   0.0800 
 40 H        6.6040     4.5560     1.1880 H     1 <1>   0.0800 
 41 H        7.7100     5.1050    -0.0330 H     1 <1>   0.0800 
 42 H        7.0650     0.9020     0.3450 H     1 <1>   0.0800 
 43 H        6.2160     1.9680     1.4210 H     1 <1>   0.0800 
 44 H        8.1110     2.8440    -0.7750 H     1 <1>   0.0800 
 45 H        9.1990     1.0240    -0.7150 H     1 <1>   0.0800 
 46 H       10.2100     0.0840     0.3350 H     1 <1>   0.0800 
 47 H       11.2240     1.1410     2.3950 H     1 <1>   0.0800 
 48 H       10.9350     2.8270     2.7160 H     1 <1>   0.0800 
 49 H       11.1080     2.3910    -1.4010 H     1 <1>   0.0800 
 50 H       11.4370     0.7120    -1.7010 H     1 <1>   0.0800 
 51 H       13.1900     2.4780     1.7760 H     1 <1>   0.0800 
 52 H       12.2120     3.4940     0.7640 H     1 <1>   0.0800 
 53 H       12.7600     0.5520     0.3380 H     1 <1>   0.0800 
 54 H       15.7530     1.5990    -1.2790 H     1 <1>   0.3700 
 55 H       15.0930     0.5170    -0.0930 H     1 <1>   0.3700 
@<TRIPOS>BOND
  1   1   2  1   
  2   2   3  ar  
  3   2   4  ar  
  4   3   5  1   
  5   3   6  ar  
  6   4   7  ar  
  7   4  30  1   
  8   5   8  1   
  9   6   9  ar  
 10   6  31  1   
 11   7   9  ar  
 12   7  10  1   
 13   8  32  1   
 14   8  33  1   
 15   8  34  1   
 16   9  35  1   
 17  10  11  2   
 18  10  12  2   
 19  10  13  am  
 20  13  14  1   
 21  13  15  1   
 22  14  16  1   
 23  14  36  1   
 24  14  37  1   
 25  15  17  1   
 26  15  38  1   
 27  15  39  1   
 28  16  18  1   
 29  16  40  1   
 30  16  41  1   
 31  17  18  1   
 32  17  42  1   
 33  17  43  1   
 34  18  19  1   
 35  18  44  1   
 36  19  20  2   
 37  19  21  am  
 38  21  22  1   
 39  21  23  1   
 40  22  24  1   
 41  22  45  1   
 42  22  46  1   
 43  23  25  1   
 44  23  47  1   
 45  23  48  1   
 46  24  26  1   
 47  24  49  1   
 48  24  50  1   
 49  25  26  1   
 50  25  51  1   
 51  25  52  1   
 52  26  27  1   
 53  26  53  1   
 54  27  28  2   
 55  27  29  am  
 56  29  54  1   
 57  29  55  1   
@<TRIPOS>SUBSTRUCTURE
  1 ****  17 GROUP 4 **** **** 0

# MOE 2024.06 (io_trps.svl 2023.06)
