@<TRIPOS>MOLECULE
N-(4-{2-Hydroxy-3-[4-(toluene-4-sulfonyl)-piperazin-1-yl]-propoxy}-phenyl)-aceta
60 62 1 0 0 
SMALL
USER_CHARGES


@<TRIPOS>ATOM
  1 S       -0.1950    -0.0650    -1.4960 S.o2  1 <1>   1.4470 
  2 O       -0.5360    -1.2820    -2.2000 O.2   1 <1>  -0.6500 
  3 O       -0.3900     1.2120    -2.1500 O.2   1 <1>  -0.6500 
  4 N        1.4510    -0.1690    -1.1130 N.am  1 <1>  -0.8490 
  5 C       -0.9920    -0.0660     0.1350 C.ar  1 <1>  -0.0090 
  6 C        1.9610     1.0640    -0.4900 C.3   1 <1>   0.1960 
  7 C        2.2550    -0.4780    -2.3050 C.3   1 <1>   0.1960 
  8 C       -1.8040     0.9850     0.5460 C.ar  1 <1>  -0.1500 
  9 C       -0.7990    -1.1200     1.0200 C.ar  1 <1>  -0.1500 
 10 C        3.4500     0.9280    -0.1210 C.3   1 <1>   0.1100 
 11 C        3.7500    -0.6150    -1.9560 C.3   1 <1>   0.1100 
 12 C       -2.3970     0.9870     1.7960 C.ar  1 <1>  -0.1500 
 13 C       -1.3890    -1.1240     2.2720 C.ar  1 <1>  -0.1500 
 14 N        4.2790     0.6030    -1.3050 N.3   1 <1>  -0.8100 
 15 C       -2.1900    -0.0680     2.6680 C.ar  1 <1>  -0.1430 
 16 C        5.7050     0.4140    -0.9390 C.3   1 <1>   0.1100 
 17 C       -2.8410    -0.0710     4.0400 C.3   1 <1>  -0.0970 
 18 C        6.3940     1.7500    -0.6040 C.3   1 <1>   0.2000 
 19 O        5.9270     2.6820    -1.5090 O.3   1 <1>  -0.6800 
 20 C        7.9190     1.6790    -0.6990 C.3   1 <1>   0.1200 
 21 O        8.3790     0.6260     0.1250 O.3   1 <1>  -0.3630 
 22 C        9.7000     0.3190     0.1950 C.ar  1 <1>   0.0820 
 23 C       10.0500    -0.7500     1.0020 C.ar  1 <1>  -0.1500 
 24 C       10.6960     1.0100    -0.4890 C.ar  1 <1>  -0.1500 
 25 C       11.3730    -1.1310     1.1280 C.ar  1 <1>  -0.1500 
 26 C       12.0190     0.6230    -0.3570 C.ar  1 <1>  -0.1500 
 27 C       12.3800    -0.4480     0.4520 C.ar  1 <1>   0.1170 
 28 N       13.7380    -0.8000     0.5370 N.am  1 <1>  -0.5470 
 29 C       14.4210    -1.5260     1.4710 C.2   1 <1>   0.5690 
 30 O       13.9270    -1.9990     2.4620 O.2   1 <1>  -0.5700 
 31 C       15.8970    -1.7310     1.2390 C.3   1 <1>  -0.1790 
 32 H        1.4010     1.2760     0.4050 H     1 <1>   0.0800 
 33 H        1.8450     1.8980    -1.1620 H     1 <1>   0.0800 
 34 H        2.1320     0.2960    -3.0440 H     1 <1>   0.0800 
 35 H        1.9180    -1.4060    -2.7350 H     1 <1>   0.0800 
 36 H       -1.9760     1.8130    -0.1220 H     1 <1>   0.1500 
 37 H       -0.1770    -1.9470     0.7210 H     1 <1>   0.1500 
 38 H        3.5540     0.1580     0.6240 H     1 <1>   0.0800 
 39 H        3.7810     1.8580     0.3090 H     1 <1>   0.0800 
 40 H        4.3000    -0.8010    -2.8620 H     1 <1>   0.0800 
 41 H        3.8760    -1.4640    -1.3060 H     1 <1>   0.0800 
 42 H       -3.0220     1.8140     2.0870 H     1 <1>   0.1500 
 43 H       -1.2230    -1.9560     2.9350 H     1 <1>   0.1500 
 44 H        6.2270    -0.0250    -1.7720 H     1 <1>   0.0800 
 45 H        5.7980    -0.2640    -0.1070 H     1 <1>   0.0800 
 46 H       -2.9980     0.9350     4.3860 H     1 <1>   0.0800 
 47 H       -2.2160    -0.5800     4.7510 H     1 <1>   0.0800 
 48 H       -3.7900    -0.5730     3.9900 H     1 <1>   0.0800 
 49 H        6.1090     2.0790     0.3800 H     1 <1>   0.0800 
 50 H        5.0520     2.3260    -1.8040 H     1 <1>   0.4000 
 51 H        8.3560     2.5990    -0.3520 H     1 <1>   0.0800 
 52 H        8.2180     1.4720    -1.7110 H     1 <1>   0.0800 
 53 H        9.2810    -1.2830     1.5310 H     1 <1>   0.1500 
 54 H       10.4640     1.8450    -1.1220 H     1 <1>   0.1500 
 55 H       11.6160    -1.9680     1.7570 H     1 <1>   0.1500 
 56 H       12.7780     1.1670    -0.8890 H     1 <1>   0.1500 
 57 H       14.3160    -0.4210    -0.2090 H     1 <1>   0.3700 
 58 H       16.4020    -0.7840     1.2470 H     1 <1>   0.0800 
 59 H       16.0540    -2.2180     0.2950 H     1 <1>   0.0800 
 60 H       16.3030    -2.3480     2.0190 H     1 <1>   0.0800 
@<TRIPOS>BOND
  1   1   2  2   
  2   1   3  2   
  3   1   4  am  
  4   1   5  1   
  5   4   6  1   
  6   4   7  1   
  7   5   8  ar  
  8   5   9  ar  
  9   6  10  1   
 10   6  32  1   
 11   6  33  1   
 12   7  11  1   
 13   7  34  1   
 14   7  35  1   
 15   8  12  ar  
 16   8  36  1   
 17   9  13  ar  
 18   9  37  1   
 19  10  14  1   
 20  10  38  1   
 21  10  39  1   
 22  11  14  1   
 23  11  40  1   
 24  11  41  1   
 25  12  15  ar  
 26  12  42  1   
 27  13  15  ar  
 28  13  43  1   
 29  14  16  1   
 30  15  17  1   
 31  16  18  1   
 32  16  44  1   
 33  16  45  1   
 34  17  46  1   
 35  17  47  1   
 36  17  48  1   
 37  18  19  1   
 38  18  20  1   
 39  18  49  1   
 40  19  50  1   
 41  20  21  1   
 42  20  51  1   
 43  20  52  1   
 44  21  22  1   
 45  22  23  ar  
 46  22  24  ar  
 47  23  25  ar  
 48  23  53  1   
 49  24  26  ar  
 50  24  54  1   
 51  25  27  ar  
 52  25  55  1   
 53  26  27  ar  
 54  26  56  1   
 55  27  28  1   
 56  28  29  am  
 57  28  57  1   
 58  29  30  2   
 59  29  31  1   
 60  31  58  1   
 61  31  59  1   
 62  31  60  1   
@<TRIPOS>SUBSTRUCTURE
  1 ****  16 GROUP 4 **** **** 0

# MOE 2024.06 (io_trps.svl 2023.06)
