@<TRIPOS>MOLECULE
3-(2-Chloro-6-fluoro-benzyl)-8-(3-methoxy-propyl)-1,7-dimethyl-1H,8H-imidazo[2,1
52 55 1 0 0 
SMALL
USER_CHARGES


@<TRIPOS>ATOM
  1 CL      -1.4430    -3.6710     1.0870 Cl    1 <1>  -0.1840 
  2 C       -0.4170    -3.5580    -0.3230 C.ar  1 <1>   0.1700 
  3 C        0.8390    -2.9690    -0.2470 C.ar  1 <1>  -0.1510 
  4 C       -0.9130    -4.0720    -1.5100 C.ar  1 <1>  -0.1570 
  5 C        1.5640    -2.9080    -1.4310 C.ar  1 <1>   0.1830 
  6 C        1.3860    -2.4190     1.0710 C.3   1 <1>   0.2770 
  7 C       -0.1580    -3.9990    -2.6700 C.ar  1 <1>  -0.1570 
  8 F        2.7530    -2.3640    -1.4390 F     1 <1>  -0.1970 
  9 C        1.0920    -3.4090    -2.6320 C.ar  1 <1>  -0.1570 
 10 N        2.7020    -3.0370     1.3960 N.am  1 <1>  -0.4250 
 11 C        2.7570    -4.4050     1.6230 C.2   1 <1>   0.6860 
 12 C        3.8550    -2.2750     1.3060 C.2   1 <1>   0.7000 
 13 O        1.7450    -5.0200     1.8850 O.2   1 <1>  -0.5740 
 14 N        3.9770    -5.0700     1.5670 N.am  1 <1>  -0.4410 
 15 O        3.8090    -1.0570     1.2820 O.2   1 <1>  -0.5740 
 16 C        5.0990    -2.9680     1.2540 C.2   1 <1>   0.2710 
 17 C        5.1190    -4.3180     1.3800 C.2   1 <1>   0.4210 
 18 C        4.0410    -6.5540     1.7260 C.3   1 <1>   0.0530 
 19 N        6.4320    -2.5690     1.0780 N.pl3 1 <1>  -0.6330 
 20 N        6.4080    -4.7610     1.2910 N.pl3 1 <1>  -0.7030 
 21 C        7.1650    -3.6730     1.1000 C.cat 1 <1>   1.0690 
 22 C        7.2950    -1.5170     0.8440 C.2   1 <1>   0.2220 
 23 N        8.4630    -3.4090     0.9050 N.pl3 1 <1>  -0.5720 
 24 C        8.5420    -2.0320     0.7390 C.2   1 <1>   0.1580 
 25 C        9.5650    -4.4000     0.8600 C.3   1 <1>   0.1610 
 26 C        9.8520    -1.3120     0.4790 C.3   1 <1>  -0.1090 
 27 C        9.4360    -5.2520    -0.4020 C.3   1 <1>  -0.1670 
 28 C       10.4060    -6.4330    -0.3700 C.3   1 <1>   0.1130 
 29 O        9.9320    -7.3990    -1.2450 O.3   1 <1>  -0.5640 
 30 C       10.4060    -7.2970    -2.5510 C.3   1 <1>   0.0320 
 31 H       -1.8880    -4.5250    -1.5230 H     1 <1>   0.1430 
 32 H        0.7130    -2.6140     1.8860 H     1 <1>   0.0730 
 33 H        1.4730    -1.3490     0.9860 H     1 <1>   0.0730 
 34 H       -0.5440    -4.3970    -3.5930 H     1 <1>   0.1430 
 35 H        1.6940    -3.3370    -3.5210 H     1 <1>   0.1430 
 36 H        3.0960    -7.0020     1.4670 H     1 <1>   0.0730 
 37 H        4.2670    -6.8000     2.7500 H     1 <1>   0.0730 
 38 H        4.7930    -6.9710     1.0810 H     1 <1>   0.0730 
 39 H        6.7480    -5.7200     1.3000 H     1 <1>   0.4450 
 40 H        6.9550    -0.4940     0.7700 H     1 <1>   0.1430 
 41 H        9.5080    -5.0270     1.7350 H     1 <1>   0.0730 
 42 H       10.5200    -3.9020     0.8710 H     1 <1>   0.0730 
 43 H       10.3080    -1.6840    -0.4210 H     1 <1>   0.0730 
 44 H       10.5280    -1.4620     1.3020 H     1 <1>   0.0730 
 45 H        9.6840    -0.2560     0.3650 H     1 <1>   0.0730 
 46 H        9.6390    -4.6490    -1.2700 H     1 <1>   0.0730 
 47 H        8.4400    -5.6490    -0.4750 H     1 <1>   0.0730 
 48 H       10.4190    -6.8870     0.6070 H     1 <1>   0.0730 
 49 H       11.4120    -6.1500    -0.6350 H     1 <1>   0.0730 
 50 H        9.9580    -8.0840    -3.1320 H     1 <1>   0.0730 
 51 H       11.4760    -7.4160    -2.5500 H     1 <1>   0.0730 
 52 H       10.1310    -6.3420    -2.9630 H     1 <1>   0.0730 
@<TRIPOS>BOND
  1   1   2  1   
  2   2   3  ar  
  3   2   4  ar  
  4   3   5  ar  
  5   3   6  1   
  6   4   7  ar  
  7   4  31  1   
  8   5   8  1   
  9   5   9  ar  
 10   6  10  1   
 11   6  32  1   
 12   6  33  1   
 13   7   9  ar  
 14   7  34  1   
 15   9  35  1   
 16  10  11  am  
 17  10  12  am  
 18  11  13  2   
 19  11  14  am  
 20  12  15  2   
 21  12  16  1   
 22  14  17  1   
 23  14  18  1   
 24  16  17  2   
 25  16  19  1   
 26  17  20  1   
 27  18  36  1   
 28  18  37  1   
 29  18  38  1   
 30  19  21  ar  
 31  19  22  1   
 32  20  21  ar  
 33  20  39  1   
 34  21  23  ar  
 35  22  24  2   
 36  22  40  1   
 37  23  24  1   
 38  23  25  1   
 39  24  26  1   
 40  25  27  1   
 41  25  41  1   
 42  25  42  1   
 43  26  43  1   
 44  26  44  1   
 45  26  45  1   
 46  27  28  1   
 47  27  46  1   
 48  27  47  1   
 49  28  29  1   
 50  28  48  1   
 51  28  49  1   
 52  29  30  1   
 53  30  50  1   
 54  30  51  1   
 55  30  52  1   
@<TRIPOS>SUBSTRUCTURE
  1 ****  17 GROUP 4 **** **** 0

# MOE 2024.06 (io_trps.svl 2023.06)
