@<TRIPOS>MOLECULE
2-Morpholin-4-yl-1-[3-(toluene-4-sulfonyl)-imidazolidin-1-yl]-ethanone
47 49 1 0 0 
SMALL
USER_CHARGES


@<TRIPOS>ATOM
  1 S       -1.1260    -1.1160     1.2510 S.o2  1 <1>   1.4470 
  2 O        0.1680    -0.4870     1.3900 O.2   1 <1>  -0.6500 
  3 O       -1.6030    -1.9980     2.2950 O.2   1 <1>  -0.6500 
  4 N       -1.0550    -2.0390    -0.1570 N.am  1 <1>  -0.8490 
  5 C       -2.3950     0.1200     0.8540 C.ar  1 <1>  -0.0090 
  6 C       -2.3240    -2.6740    -0.4120 C.3   1 <1>   0.4960 
  7 C       -0.0720    -3.1120    -0.0880 C.3   1 <1>   0.1960 
  8 C       -2.1510     1.1210    -0.0770 C.ar  1 <1>  -0.1500 
  9 C       -3.6530     0.0750     1.4450 C.ar  1 <1>  -0.1500 
 10 N       -1.9930    -3.8620    -1.1980 N.am  1 <1>  -0.6600 
 11 C       -0.5490    -4.1310    -1.1110 C.3   1 <1>   0.1400 
 12 C       -3.1260     2.0450    -0.4100 C.ar  1 <1>  -0.1500 
 13 C       -4.6330     0.9960     1.1170 C.ar  1 <1>  -0.1500 
 14 C       -2.9170    -4.7380    -1.6950 C.2   1 <1>   0.5690 
 15 C       -4.3750     1.9860     0.1840 C.ar  1 <1>  -0.1430 
 16 O       -2.5790    -5.8120    -2.1340 O.2   1 <1>  -0.5700 
 17 C       -4.4170    -4.3850    -1.7320 C.3   1 <1>   0.1710 
 18 C       -5.4440     3.0010    -0.1750 C.3   1 <1>  -0.0970 
 19 N       -4.9810    -3.8090    -0.4760 N.3   1 <1>  -0.8100 
 20 C       -4.9900    -4.7990     0.6210 C.3   1 <1>   0.1100 
 21 C       -6.3450    -3.2890    -0.6750 C.3   1 <1>   0.1100 
 22 C       -5.5830    -4.1840     1.9020 C.3   1 <1>   0.1200 
 23 C       -6.8990    -2.7090     0.6390 C.3   1 <1>   0.1200 
 24 O       -6.8620    -3.6710     1.6550 O.3   1 <1>  -0.5600 
 25 H       -2.9800    -2.0170    -0.9600 H     1 <1>   0.0800 
 26 H       -2.8010    -2.9840     0.5040 H     1 <1>   0.0800 
 27 H       -0.0710    -3.5670     0.8890 H     1 <1>   0.0800 
 28 H        0.9170    -2.7490    -0.3110 H     1 <1>   0.0800 
 29 H       -1.1830     1.1760    -0.5480 H     1 <1>   0.1500 
 30 H       -3.8730    -0.6880     2.1730 H     1 <1>   0.1500 
 31 H       -0.3540    -5.1410    -0.7930 H     1 <1>   0.0800 
 32 H       -0.0900    -3.9510    -2.0670 H     1 <1>   0.0800 
 33 H       -2.9070     2.8110    -1.1330 H     1 <1>   0.1500 
 34 H       -5.5960     0.9410     1.5940 H     1 <1>   0.1500 
 35 H       -4.9660    -5.2720    -1.9940 H     1 <1>   0.0800 
 36 H       -4.5500    -3.6760    -2.5290 H     1 <1>   0.0800 
 37 H       -5.3280     3.3270    -1.1940 H     1 <1>   0.0800 
 38 H       -5.3650     3.8560     0.4720 H     1 <1>   0.0800 
 39 H       -6.4240     2.5730    -0.0660 H     1 <1>   0.0800 
 40 H       -3.9860    -5.1300     0.8240 H     1 <1>   0.0800 
 41 H       -5.5760    -5.6590     0.3410 H     1 <1>   0.0800 
 42 H       -6.9980    -4.0750    -1.0160 H     1 <1>   0.0800 
 43 H       -6.3290    -2.5130    -1.4220 H     1 <1>   0.0800 
 44 H       -4.9550    -3.3890     2.2640 H     1 <1>   0.0800 
 45 H       -5.6720    -4.9330     2.6690 H     1 <1>   0.0800 
 46 H       -7.9220    -2.4050     0.5110 H     1 <1>   0.0800 
 47 H       -6.3180    -1.8580     0.9490 H     1 <1>   0.0800 
@<TRIPOS>BOND
  1   1   2  2   
  2   1   3  2   
  3   1   4  am  
  4   1   5  1   
  5   4   6  1   
  6   4   7  1   
  7   5   8  ar  
  8   5   9  ar  
  9   6  10  1   
 10   6  25  1   
 11   6  26  1   
 12   7  11  1   
 13   7  27  1   
 14   7  28  1   
 15   8  12  ar  
 16   8  29  1   
 17   9  13  ar  
 18   9  30  1   
 19  10  11  1   
 20  10  14  am  
 21  11  31  1   
 22  11  32  1   
 23  12  15  ar  
 24  12  33  1   
 25  13  15  ar  
 26  13  34  1   
 27  14  16  2   
 28  14  17  1   
 29  15  18  1   
 30  17  19  1   
 31  17  35  1   
 32  17  36  1   
 33  18  37  1   
 34  18  38  1   
 35  18  39  1   
 36  19  20  1   
 37  19  21  1   
 38  20  22  1   
 39  20  40  1   
 40  20  41  1   
 41  21  23  1   
 42  21  42  1   
 43  21  43  1   
 44  22  24  1   
 45  22  44  1   
 46  22  45  1   
 47  23  24  1   
 48  23  46  1   
 49  23  47  1   
@<TRIPOS>SUBSTRUCTURE
  1 ****   6 GROUP 4 **** **** 0

# MOE 2024.06 (io_trps.svl 2023.06)
