@<TRIPOS>MOLECULE
1-(3-Fluoro-benzyl)-piperidine-2-carboxylic acid
33 34 1 0 0 
SMALL
USER_CHARGES


@<TRIPOS>ATOM
  1 F       -0.8360     1.0730     2.1570 F     1 <1>  -0.1900 
  2 C       -1.7350     1.2070     1.2210 C.ar  1 <1>   0.1900 
  3 C       -2.9210     0.5080     1.3360 C.ar  1 <1>  -0.1500 
  4 C       -1.4660     2.0370     0.1510 C.ar  1 <1>  -0.1500 
  5 C       -3.8760     0.6390     0.3370 C.ar  1 <1>  -0.1440 
  6 C       -2.4250     2.1720    -0.8380 C.ar  1 <1>  -0.1500 
  7 C       -3.6220     1.4780    -0.7430 C.ar  1 <1>  -0.1500 
  8 C       -5.1850    -0.1290     0.4170 C.3   1 <1>   0.4870 
  9 N       -5.1350    -1.2910    -0.5270 N.4   1 <1>  -0.9590 
 10 C       -6.4990    -2.0000    -0.5630 C.3   1 <1>   0.3170 
 11 C       -3.9640    -2.1760    -0.2480 C.3   1 <1>   0.3430 
 12 C       -7.7300    -1.0930    -0.3140 C.2   1 <1>   0.9060 
 13 C       -6.4760    -3.2270     0.3650 C.3   1 <1>  -0.1600 
 14 C       -4.2140    -3.5890    -0.7720 C.3   1 <1>  -0.1600 
 15 O       -7.9320    -0.6690     0.8310 O.co2 1 <1>  -0.9000 
 16 O       -8.3650    -0.7030    -1.2940 O.co2 1 <1>  -0.9000 
 17 C       -5.4050    -4.2500    -0.0560 C.3   1 <1>  -0.1600 
 18 H       -3.0820    -0.1180     2.1970 H     1 <1>   0.1500 
 19 H       -0.5300     2.5650     0.0980 H     1 <1>   0.1500 
 20 H       -2.2410     2.8200    -1.6790 H     1 <1>   0.1500 
 21 H       -4.3610     1.6040    -1.5190 H     1 <1>   0.1500 
 22 H       -5.9960     0.5330     0.1540 H     1 <1>   0.0800 
 23 H       -5.3620    -0.4760     1.4220 H     1 <1>   0.0800 
 24 H       -5.0250    -0.8730    -1.4560 H     1 <1>   0.4500 
 25 H       -6.6420    -2.3770    -1.5600 H     1 <1>   0.0800 
 26 H       -3.8050    -2.2320     0.8170 H     1 <1>   0.0800 
 27 H       -3.0770    -1.7600    -0.6980 H     1 <1>   0.0800 
 28 H       -7.4450    -3.6970     0.3520 H     1 <1>   0.0800 
 29 H       -6.3060    -2.8920     1.3740 H     1 <1>   0.0800 
 30 H       -3.3330    -4.1880    -0.6240 H     1 <1>   0.0800 
 31 H       -4.3980    -3.5410    -1.8310 H     1 <1>   0.0800 
 32 H       -5.8420    -4.9810    -0.7150 H     1 <1>   0.0800 
 33 H       -5.0640    -4.7720     0.8220 H     1 <1>   0.0800 
@<TRIPOS>BOND
  1   1   2  1   
  2   2   3  ar  
  3   2   4  ar  
  4   3   5  ar  
  5   3  18  1   
  6   4   6  ar  
  7   4  19  1   
  8   5   7  ar  
  9   5   8  1   
 10   6   7  ar  
 11   6  20  1   
 12   7  21  1   
 13   8   9  1   
 14   8  22  1   
 15   8  23  1   
 16   9  10  1   
 17   9  11  1   
 18   9  24  1   
 19  10  12  1   
 20  10  13  1   
 21  10  25  1   
 22  11  14  1   
 23  11  26  1   
 24  11  27  1   
 25  12  15  ar  
 26  12  16  ar  
 27  13  17  1   
 28  13  28  1   
 29  13  29  1   
 30  14  17  1   
 31  14  30  1   
 32  14  31  1   
 33  17  32  1   
 34  17  33  1   
@<TRIPOS>SUBSTRUCTURE
  1 ****   8 GROUP 4 **** **** 0

# MOE 2024.06 (io_trps.svl 2023.06)
