@<TRIPOS>MOLECULE
1-(2,5-Dimethoxy-benzenesulfonyl)-piperidine-4-carboxylic acid (1-phenyl-ethyl)-
58 60 1 0 0 
SMALL
USER_CHARGES


@<TRIPOS>ATOM
  1 S       -0.0520     0.1490    -1.7940 S.o2  1 <1>   1.4470 
  2 O        0.3590    -0.8640    -2.7440 O.2   1 <1>  -0.6500 
  3 O       -0.9730     1.1640    -2.2590 O.2   1 <1>  -0.6500 
  4 N        1.3670     0.9540    -1.3200 N.am  1 <1>  -0.8490 
  5 C       -0.6240    -0.7050    -0.2980 C.ar  1 <1>  -0.0090 
  6 C        1.0830     2.0880    -0.4350 C.3   1 <1>   0.1960 
  7 C        2.1290     1.3870    -2.4950 C.3   1 <1>   0.1960 
  8 C       -1.4740    -0.1070     0.6310 C.ar  1 <1>   0.0820 
  9 C       -0.1970    -2.0040    -0.0390 C.ar  1 <1>  -0.1500 
 10 C        2.3890     2.6960     0.0800 C.3   1 <1>  -0.1600 
 11 C        3.4780     1.9650    -2.0660 C.3   1 <1>  -0.1600 
 12 O       -1.8990     1.1620     0.4600 O.3   1 <1>  -0.3620 
 13 C       -1.8820    -0.7820     1.7720 C.ar  1 <1>  -0.1500 
 14 C       -0.6080    -2.6930     1.0980 C.ar  1 <1>   0.0820 
 15 C        3.2990     3.1320    -1.0810 C.3   1 <1>  -0.0190 
 16 C       -3.2250     1.3220     0.0050 C.3   1 <1>   0.0400 
 17 C       -1.4520    -2.0730     2.0020 C.ar  1 <1>  -0.1500 
 18 O       -0.2280    -3.9630     1.3890 O.3   1 <1>  -0.3630 
 19 C        4.6390     3.6650    -0.5860 C.2   1 <1>   0.5690 
 20 C        0.5540    -4.7180     0.4890 C.3   1 <1>   0.0400 
 21 O        4.9610     4.7950    -0.8600 O.2   1 <1>  -0.5700 
 22 N        5.4350     2.8510     0.1450 N.am  1 <1>  -0.7300 
 23 C        6.7880     3.1760     0.5940 C.3   1 <1>   0.3640 
 24 C        7.5840     1.8770     0.6370 C.ar  1 <1>  -0.1430 
 25 C        6.7070     3.8510     1.9610 C.3   1 <1>  -0.2400 
 26 C        8.6740     1.7130    -0.2060 C.ar  1 <1>  -0.1500 
 27 C        7.2370     0.8410     1.4960 C.ar  1 <1>  -0.1500 
 28 C        9.4060     0.5380    -0.1910 C.ar  1 <1>  -0.1500 
 29 C        7.9680    -0.3340     1.5130 C.ar  1 <1>  -0.1500 
 30 C        9.0530    -0.4860     0.6690 C.ar  1 <1>  -0.1500 
 31 H        0.5140     1.7560     0.4150 H     1 <1>   0.0800 
 32 H        0.5050     2.8340    -0.9570 H     1 <1>   0.0800 
 33 H        1.5650     2.1230    -3.0480 H     1 <1>   0.0800 
 34 H        2.3110     0.5480    -3.1460 H     1 <1>   0.0800 
 35 H        0.4650    -2.4670    -0.7480 H     1 <1>   0.1500 
 36 H        2.8850     1.9640     0.6920 H     1 <1>   0.0800 
 37 H        2.1650     3.5460     0.6990 H     1 <1>   0.0800 
 38 H        4.0100     2.3080    -2.9360 H     1 <1>   0.0800 
 39 H        4.0580     1.1780    -1.6170 H     1 <1>   0.0800 
 40 H       -2.5300    -0.2940     2.4780 H     1 <1>   0.1500 
 41 H        2.8070     3.9350    -1.6040 H     1 <1>   0.0800 
 42 H       -3.4090     2.3730    -0.1300 H     1 <1>   0.0800 
 43 H       -3.9020     0.9190     0.7360 H     1 <1>   0.0800 
 44 H       -3.3360     0.8100    -0.9350 H     1 <1>   0.0800 
 45 H       -1.7640    -2.6080     2.8810 H     1 <1>   0.1500 
 46 H        0.6940    -5.6970     0.9090 H     1 <1>   0.0800 
 47 H        1.5060    -4.2350     0.3630 H     1 <1>   0.0800 
 48 H        0.0320    -4.7940    -0.4490 H     1 <1>   0.0800 
 49 H        5.1790     1.8750     0.2860 H     1 <1>   0.3700 
 50 H        7.2380     3.8590    -0.1080 H     1 <1>   0.0800 
 51 H        6.1890     3.2330     2.6700 H     1 <1>   0.0800 
 52 H        6.1960     4.7920     1.8690 H     1 <1>   0.0800 
 53 H        7.7000     4.0390     2.3260 H     1 <1>   0.0800 
 54 H        8.9590     2.5000    -0.8830 H     1 <1>   0.1500 
 55 H        6.3960     0.9420     2.1590 H     1 <1>   0.1500 
 56 H       10.2500     0.4210    -0.8480 H     1 <1>   0.1500 
 57 H        7.6940    -1.1300     2.1830 H     1 <1>   0.1500 
 58 H        9.6220    -1.4000     0.6820 H     1 <1>   0.1500 
@<TRIPOS>BOND
  1   1   2  2   
  2   1   3  2   
  3   1   4  am  
  4   1   5  1   
  5   4   6  1   
  6   4   7  1   
  7   5   8  ar  
  8   5   9  ar  
  9   6  10  1   
 10   6  31  1   
 11   6  32  1   
 12   7  11  1   
 13   7  33  1   
 14   7  34  1   
 15   8  12  1   
 16   8  13  ar  
 17   9  14  ar  
 18   9  35  1   
 19  10  15  1   
 20  10  36  1   
 21  10  37  1   
 22  11  15  1   
 23  11  38  1   
 24  11  39  1   
 25  12  16  1   
 26  13  17  ar  
 27  13  40  1   
 28  14  17  ar  
 29  14  18  1   
 30  15  19  1   
 31  15  41  1   
 32  16  42  1   
 33  16  43  1   
 34  16  44  1   
 35  17  45  1   
 36  18  20  1   
 37  19  21  2   
 38  19  22  am  
 39  20  46  1   
 40  20  47  1   
 41  20  48  1   
 42  22  23  1   
 43  22  49  1   
 44  23  24  1   
 45  23  25  1   
 46  23  50  1   
 47  24  26  ar  
 48  24  27  ar  
 49  25  51  1   
 50  25  52  1   
 51  25  53  1   
 52  26  28  ar  
 53  26  54  1   
 54  27  29  ar  
 55  27  55  1   
 56  28  30  ar  
 57  28  56  1   
 58  29  30  ar  
 59  29  57  1   
 60  30  58  1   
@<TRIPOS>SUBSTRUCTURE
  1 ****   4 GROUP 4 **** **** 0

# MOE 2024.06 (io_trps.svl 2023.06)
