@<TRIPOS>MOLECULE
2-(4-Methoxy-phenyl)-thiazolidin-4-one
25 26 1 0 0 
SMALL
USER_CHARGES


@<TRIPOS>ATOM
  1 S       -0.0770     0.4570    -1.3970 S.3   1 <1>  -0.4600 
  2 C       -0.7740     2.0010    -0.7660 C.3   1 <1>   0.5940 
  3 C        1.2300     0.2570    -0.1580 C.3   1 <1>   0.1310 
  4 N        0.0540     2.2920     0.4040 N.am  1 <1>  -0.7300 
  5 C       -2.2370     1.7940    -0.3950 C.ar  1 <1>  -0.1430 
  6 C        1.0330     1.4400     0.7620 C.2   1 <1>   0.5690 
  7 C       -3.2290     2.4600    -1.1040 C.ar  1 <1>  -0.1500 
  8 C       -2.6070     0.9520     0.6460 C.ar  1 <1>  -0.1500 
  9 O        1.6970     1.5990     1.7540 O.2   1 <1>  -0.5700 
 10 C       -4.5640     2.2910    -0.7800 C.ar  1 <1>  -0.1500 
 11 C       -3.9400     0.7820     0.9720 C.ar  1 <1>  -0.1500 
 12 C       -4.9270     1.4480     0.2660 C.ar  1 <1>   0.0830 
 13 O       -6.2090     1.2270     0.6500 O.3   1 <1>  -0.3630 
 14 C       -7.2920     1.8270    -0.0260 C.3   1 <1>   0.0400 
 15 H       -0.6480     2.7520    -1.5280 H     1 <1>   0.0800 
 16 H        2.1820     0.2910    -0.6530 H     1 <1>   0.0800 
 17 H        1.0770    -0.6750     0.3530 H     1 <1>   0.0800 
 18 H       -0.2290     3.0480     1.0240 H     1 <1>   0.3700 
 19 H       -2.9690     3.1140    -1.9180 H     1 <1>   0.1500 
 20 H       -1.8570     0.4210     1.2070 H     1 <1>   0.1500 
 21 H       -5.3040     2.8210    -1.3490 H     1 <1>   0.1500 
 22 H       -4.2250     0.1300     1.7780 H     1 <1>   0.1500 
 23 H       -8.2010     1.4970     0.4430 H     1 <1>   0.0800 
 24 H       -7.2770     1.5140    -1.0550 H     1 <1>   0.0800 
 25 H       -7.2060     2.8960     0.0550 H     1 <1>   0.0800 
@<TRIPOS>BOND
  1   1   2  1   
  2   1   3  1   
  3   2   4  1   
  4   2   5  1   
  5   2  15  1   
  6   3   6  1   
  7   3  16  1   
  8   3  17  1   
  9   4   6  am  
 10   4  18  1   
 11   5   7  ar  
 12   5   8  ar  
 13   6   9  2   
 14   7  10  ar  
 15   7  19  1   
 16   8  11  ar  
 17   8  20  1   
 18  10  12  ar  
 19  10  21  1   
 20  11  12  ar  
 21  11  22  1   
 22  12  13  1   
 23  13  14  1   
 24  14  23  1   
 25  14  24  1   
 26  14  25  1   
@<TRIPOS>SUBSTRUCTURE
  1 ****   5 GROUP 4 **** **** 0

# MOE 2024.06 (io_trps.svl 2023.06)
