@<TRIPOS>MOLECULE
1-(4-Methoxy-3-methyl-benzenesulfonyl)-piperidine-3-carboxylic acid (2-methoxy-1
54 55 1 0 0 
SMALL
USER_CHARGES


@<TRIPOS>ATOM
  1 S        0.7520     0.9850     0.7220 S.o2  1 <1>   1.4470 
  2 O        1.0330     0.0200     1.7630 O.2   1 <1>  -0.6500 
  3 O        1.2950     2.3200     0.8500 O.2   1 <1>  -0.6500 
  4 N        1.3300     0.3640    -0.7510 N.am  1 <1>  -0.8490 
  5 C       -1.0360     1.1030     0.4370 C.ar  1 <1>  -0.0090 
  6 C        2.7670     0.5810    -0.9880 C.3   1 <1>   0.1960 
  7 C        0.8990    -0.9950    -1.1050 C.3   1 <1>   0.1960 
  8 C       -1.9340     0.3090     1.1400 C.ar  1 <1>  -0.1500 
  9 C       -1.5490     1.9790    -0.5110 C.ar  1 <1>  -0.1500 
 10 C        3.6350    -0.4290    -0.2220 C.3   1 <1>  -0.0190 
 11 C        1.7390    -2.0890    -0.4250 C.3   1 <1>  -0.1600 
 12 C       -3.3000     0.3770     0.9130 C.ar  1 <1>  -0.1430 
 13 C       -2.9090     2.0630    -0.7520 C.ar  1 <1>  -0.1500 
 14 C        5.1040    -0.1570    -0.5020 C.2   1 <1>   0.5690 
 15 C        3.2460    -1.8670    -0.6120 C.3   1 <1>  -0.1600 
 16 C       -3.7950     1.2600    -0.0410 C.ar  1 <1>   0.0830 
 17 C       -4.2440    -0.5120     1.7100 C.3   1 <1>  -0.0960 
 18 O        5.4860    -0.0830    -1.6450 O.2   1 <1>  -0.5700 
 19 N        5.9540    -0.0150     0.5460 N.am  1 <1>  -0.7300 
 20 O       -5.1400     1.2950    -0.2330 O.3   1 <1>  -0.3630 
 21 C        7.3890     0.3110     0.4300 C.3   1 <1>   0.2200 
 22 C       -5.7370     2.1820    -1.1520 C.3   1 <1>   0.0400 
 23 C        8.1780    -0.9430     0.0130 C.3   1 <1>   0.1200 
 24 C        7.8360     0.8790     1.7770 C.3   1 <1>  -0.2400 
 25 O        9.5500    -0.6750     0.0140 O.3   1 <1>  -0.5600 
 26 C       10.3300    -1.7370    -0.4290 C.3   1 <1>   0.0400 
 27 H        3.0430     1.5850    -0.7140 H     1 <1>   0.0800 
 28 H        2.9600     0.4770    -2.0430 H     1 <1>   0.0800 
 29 H        0.9960    -1.1080    -2.1720 H     1 <1>   0.0800 
 30 H       -0.1420    -1.1290    -0.8630 H     1 <1>   0.0800 
 31 H       -1.5520    -0.3730     1.8810 H     1 <1>   0.1500 
 32 H       -0.8690     2.6030    -1.0670 H     1 <1>   0.1500 
 33 H        3.4670    -0.2920     0.8310 H     1 <1>   0.0800 
 34 H        1.4680    -3.0440    -0.8400 H     1 <1>   0.0800 
 35 H        1.5050    -2.1300     0.6230 H     1 <1>   0.0800 
 36 H       -3.2550     2.7560    -1.4940 H     1 <1>   0.1500 
 37 H        3.7980    -2.5710    -0.0140 H     1 <1>   0.0800 
 38 H        3.5030    -2.0340    -1.6440 H     1 <1>   0.0800 
 39 H       -3.7070    -1.1310     2.4050 H     1 <1>   0.0800 
 40 H       -4.7980    -1.1460     1.0410 H     1 <1>   0.0800 
 41 H       -4.9390     0.0980     2.2590 H     1 <1>   0.0800 
 42 H        5.6020    -0.0750     1.5020 H     1 <1>   0.3700 
 43 H        7.5130     1.0590    -0.3370 H     1 <1>   0.0800 
 44 H       -6.8010     2.0330    -1.1140 H     1 <1>   0.0800 
 45 H       -5.3720     1.9610    -2.1390 H     1 <1>   0.0800 
 46 H       -5.4990     3.1910    -0.8670 H     1 <1>   0.0800 
 47 H        7.8870    -1.2360    -0.9810 H     1 <1>   0.0800 
 48 H        7.9910    -1.7450     0.7050 H     1 <1>   0.0800 
 49 H        7.7510     0.1370     2.5500 H     1 <1>   0.0800 
 50 H        7.2480     1.7420     2.0330 H     1 <1>   0.0800 
 51 H        8.8660     1.1840     1.7160 H     1 <1>   0.0800 
 52 H       11.3610    -1.4350    -0.3880 H     1 <1>   0.0800 
 53 H       10.0620    -1.9740    -1.4450 H     1 <1>   0.0800 
 54 H       10.1730    -2.5860     0.2130 H     1 <1>   0.0800 
@<TRIPOS>BOND
  1   1   2  2   
  2   1   3  2   
  3   1   4  am  
  4   1   5  1   
  5   4   6  1   
  6   4   7  1   
  7   5   8  ar  
  8   5   9  ar  
  9   6  10  1   
 10   6  27  1   
 11   6  28  1   
 12   7  11  1   
 13   7  29  1   
 14   7  30  1   
 15   8  12  ar  
 16   8  31  1   
 17   9  13  ar  
 18   9  32  1   
 19  10  14  1   
 20  10  15  1   
 21  10  33  1   
 22  11  15  1   
 23  11  34  1   
 24  11  35  1   
 25  12  16  ar  
 26  12  17  1   
 27  13  16  ar  
 28  13  36  1   
 29  14  18  2   
 30  14  19  am  
 31  15  37  1   
 32  15  38  1   
 33  16  20  1   
 34  17  39  1   
 35  17  40  1   
 36  17  41  1   
 37  19  21  1   
 38  19  42  1   
 39  20  22  1   
 40  21  23  1   
 41  21  24  1   
 42  21  43  1   
 43  22  44  1   
 44  22  45  1   
 45  22  46  1   
 46  23  25  1   
 47  23  47  1   
 48  23  48  1   
 49  24  49  1   
 50  24  50  1   
 51  24  51  1   
 52  25  26  1   
 53  26  52  1   
 54  26  53  1   
 55  26  54  1   
@<TRIPOS>SUBSTRUCTURE
  1 ****   4 GROUP 4 **** **** 0

# MOE 2024.06 (io_trps.svl 2023.06)
