@<TRIPOS>MOLECULE
4-Chloro-N-cyclopropyl-3-(morpholine-4-sulfonyl)-benzamide
39 41 1 0 0 
SMALL
USER_CHARGES


@<TRIPOS>ATOM
  1 CL       0.6560    -0.0460    -2.7310 Cl    1 <1>  -0.1770 
  2 C        1.7810    -0.9690    -1.7690 C.ar  1 <1>   0.1770 
  3 C        1.4500    -2.1990    -1.2130 C.ar  1 <1>  -0.0090 
  4 C        3.0250    -0.3980    -1.5750 C.ar  1 <1>  -0.1500 
  5 S       -0.1690    -2.9890    -1.4160 S.o2  1 <1>   1.4470 
  6 C        2.4220    -2.8190    -0.4350 C.ar  1 <1>  -0.1500 
  7 C        3.9700    -1.0460    -0.8040 C.ar  1 <1>  -0.1500 
  8 O        0.0110    -4.4110    -1.2210 O.2   1 <1>  -0.6500 
  9 O       -0.8700    -2.5540    -2.6030 O.2   1 <1>  -0.6500 
 10 N       -1.0450    -2.4290    -0.0770 N.am  1 <1>  -0.8490 
 11 C        3.6890    -2.2780    -0.2140 C.ar  1 <1>   0.0860 
 12 C       -1.5610    -1.0600    -0.2530 C.3   1 <1>   0.1960 
 13 C       -2.1650    -3.3280     0.2480 C.3   1 <1>   0.1960 
 14 C        4.6600    -2.9760     0.6060 C.2   1 <1>   0.5440 
 15 C       -2.3650    -0.6060     0.9790 C.3   1 <1>   0.1200 
 16 C       -2.9600    -2.8160     1.4630 C.3   1 <1>   0.1200 
 17 O        4.2950    -3.6180     1.5710 O.2   1 <1>  -0.5700 
 18 N        5.9910    -2.9270     0.2940 N.am  1 <1>  -0.5790 
 19 O       -3.4010    -1.5060     1.2490 O.3   1 <1>  -0.5600 
 20 C        7.0730    -3.5810     1.0440 C.3   1 <1>   0.0490 
 21 C        8.4120    -2.9230     1.0610 C.3   1 <1>  -0.2000 
 22 C        8.2000    -4.1780     0.2700 C.3   1 <1>  -0.2000 
 23 H        3.2460     0.5550    -2.0240 H     1 <1>   0.1500 
 24 H        2.1920    -3.7670     0.0280 H     1 <1>   0.1500 
 25 H        4.9310    -0.5850    -0.6480 H     1 <1>   0.1500 
 26 H       -2.1970    -1.0060    -1.1210 H     1 <1>   0.0800 
 27 H       -0.7420    -0.3790    -0.3950 H     1 <1>   0.0800 
 28 H       -1.7880    -4.3110     0.4760 H     1 <1>   0.0800 
 29 H       -2.8270    -3.4150    -0.5990 H     1 <1>   0.0800 
 30 H       -2.8070     0.3590     0.8010 H     1 <1>   0.0800 
 31 H       -1.7280    -0.5430     1.8440 H     1 <1>   0.0800 
 32 H       -2.3470    -2.8340     2.3470 H     1 <1>   0.0800 
 33 H       -3.8260    -3.4320     1.6280 H     1 <1>   0.0800 
 34 H        6.2870    -2.4800    -0.5720 H     1 <1>   0.3700 
 35 H        6.7330    -4.0870     1.9350 H     1 <1>   0.1000 
 36 H        9.0010    -2.9820     1.9600 H     1 <1>   0.1000 
 37 H        8.5430    -1.9900     0.5420 H     1 <1>   0.1000 
 38 H        8.1840    -4.1240    -0.8040 H     1 <1>   0.1000 
 39 H        8.6440    -5.0890     0.6310 H     1 <1>   0.1000 
@<TRIPOS>BOND
  1   1   2  1   
  2   2   3  ar  
  3   2   4  ar  
  4   3   5  1   
  5   3   6  ar  
  6   4   7  ar  
  7   4  23  1   
  8   5   8  2   
  9   5   9  2   
 10   5  10  am  
 11   6  11  ar  
 12   6  24  1   
 13   7  11  ar  
 14   7  25  1   
 15  10  12  1   
 16  10  13  1   
 17  11  14  1   
 18  12  15  1   
 19  12  26  1   
 20  12  27  1   
 21  13  16  1   
 22  13  28  1   
 23  13  29  1   
 24  14  17  2   
 25  14  18  am  
 26  15  19  1   
 27  15  30  1   
 28  15  31  1   
 29  16  19  1   
 30  16  32  1   
 31  16  33  1   
 32  18  20  1   
 33  18  34  1   
 34  20  21  1   
 35  20  22  1   
 36  20  35  1   
 37  21  22  1   
 38  21  36  1   
 39  21  37  1   
 40  22  38  1   
 41  22  39  1   
@<TRIPOS>SUBSTRUCTURE
  1 ****   6 GROUP 4 **** **** 0

# MOE 2024.06 (io_trps.svl 2023.06)
