@<TRIPOS>MOLECULE
5-(4-Methyl-piperidin-1-yl)-furan-2-carbaldehyde
29 30 1 0 0 
SMALL
USER_CHARGES


@<TRIPOS>ATOM
  1 O       -0.6990    -0.6270    -1.2360 O.2   1 <1>  -0.5700 
  2 C       -1.7020    -1.1310    -0.7810 C.2   1 <1>   0.5950 
  3 C       -2.9060    -0.4340    -0.4790 C.2   1 <1>   0.0550 
  4 O       -3.9570    -1.0920     0.0190 O.3   1 <1>  -0.2800 
  5 C       -3.2460     0.8810    -0.6000 C.2   1 <1>  -0.1500 
  6 C       -4.9500    -0.2500     0.2180 C.2   1 <1>   0.2240 
  7 C       -4.5550     0.9990    -0.1530 C.2   1 <1>  -0.1500 
  8 N       -6.1540    -0.7080     0.7320 N.pl3 1 <1>  -0.8220 
  9 C       -7.3540     0.1600     0.8230 C.3   1 <1>   0.2090 
 10 C       -6.4180    -2.1570     0.9410 C.3   1 <1>   0.2090 
 11 C       -8.3960    -0.3040    -0.1990 C.3   1 <1>  -0.1600 
 12 C       -7.4550    -2.6370    -0.0790 C.3   1 <1>  -0.1600 
 13 C       -8.7390    -1.7930    -0.0250 C.3   1 <1>  -0.0800 
 14 C       -9.7320    -2.2490    -1.1000 C.3   1 <1>  -0.2400 
 15 H       -1.6870    -2.1890    -0.5890 H     1 <1>   0.0600 
 16 H       -2.6260     1.6790    -0.9690 H     1 <1>   0.1500 
 17 H       -5.1240     1.9070    -0.1160 H     1 <1>   0.1500 
 18 H       -7.0950     1.1870     0.6400 H     1 <1>   0.0800 
 19 H       -7.7600     0.0920     1.8180 H     1 <1>   0.0800 
 20 H       -6.7900    -2.3030     1.9400 H     1 <1>   0.0800 
 21 H       -5.5130    -2.7310     0.8380 H     1 <1>   0.0800 
 22 H       -8.0040    -0.1310    -1.1860 H     1 <1>   0.0800 
 23 H       -9.2850     0.2900    -0.0880 H     1 <1>   0.0800 
 24 H       -7.6870    -3.6680     0.1160 H     1 <1>   0.0800 
 25 H       -7.0160    -2.5770    -1.0600 H     1 <1>   0.0800 
 26 H       -9.1960    -1.9280     0.9420 H     1 <1>   0.0800 
 27 H       -9.3070    -2.1300    -2.0810 H     1 <1>   0.0800 
 28 H      -10.6350    -1.6680    -1.0440 H     1 <1>   0.0800 
 29 H       -9.9850    -3.2840    -0.9580 H     1 <1>   0.0800 
@<TRIPOS>BOND
  1   1   2  2   
  2   2   3  1   
  3   2  15  1   
  4   3   4  1   
  5   3   5  2   
  6   4   6  1   
  7   5   7  1   
  8   5  16  1   
  9   6   7  2   
 10   6   8  1   
 11   7  17  1   
 12   8   9  1   
 13   8  10  1   
 14   9  11  1   
 15   9  18  1   
 16   9  19  1   
 17  10  12  1   
 18  10  20  1   
 19  10  21  1   
 20  11  13  1   
 21  11  22  1   
 22  11  23  1   
 23  12  13  1   
 24  12  24  1   
 25  12  25  1   
 26  13  14  1   
 27  13  26  1   
 28  14  27  1   
 29  14  28  1   
 30  14  29  1   
@<TRIPOS>SUBSTRUCTURE
  1 ****   6 GROUP 4 **** **** 0

# MOE 2024.06 (io_trps.svl 2023.06)
