@<TRIPOS>MOLECULE
1-(4-Ethoxy-phenyl)-5-oxo-pyrrolidine-3-carboxylic acid 2-(4-chloro-phenyl)-1-me
51 53 1 0 0 
SMALL
USER_CHARGES


@<TRIPOS>ATOM
  1 CL      -2.0280     1.1560    -1.3910 Cl    1 <1>  -0.1770 
  2 C       -2.8090    -0.2940    -0.8240 C.ar  1 <1>   0.1770 
  3 C       -3.8920    -0.8010    -1.5160 C.ar  1 <1>  -0.1500 
  4 C       -2.3420    -0.9210     0.3140 C.ar  1 <1>  -0.1500 
  5 C       -4.5090    -1.9540    -1.0660 C.ar  1 <1>  -0.1500 
  6 C       -2.9670    -2.0740     0.7540 C.ar  1 <1>  -0.1500 
  7 C       -4.0560    -2.6310     0.0750 C.ar  1 <1>   0.0860 
  8 C       -4.6570    -3.8500     0.5760 C.2   1 <1>   0.4230 
  9 O       -4.6520    -4.1290     1.7510 O.2   1 <1>  -0.5700 
 10 C       -5.2790    -4.8630    -0.4030 C.3   1 <1>   0.2610 
 11 O       -6.5800    -5.2270     0.0250 O.3   1 <1>  -0.4300 
 12 C       -4.4640    -6.1570    -0.4880 C.3   1 <1>  -0.2400 
 13 C       -7.5890    -4.3730    -0.0280 C.2   1 <1>   0.6590 
 14 O       -7.4820    -3.3020    -0.5660 O.2   1 <1>  -0.5700 
 15 C       -8.8670    -4.8260     0.6560 C.3   1 <1>  -0.0190 
 16 C       -9.2670    -6.2450     0.2390 C.3   1 <1>   0.1400 
 17 C      -10.1080    -3.9600     0.3800 C.3   1 <1>  -0.0990 
 18 N      -10.7430    -6.2410     0.2530 N.am  1 <1>  -0.4770 
 19 C      -11.2230    -4.9650     0.3230 C.2   1 <1>   0.5690 
 20 C      -11.4730    -7.4280     0.0440 C.ar  1 <1>   0.1170 
 21 O      -12.3810    -4.6270     0.3330 O.2   1 <1>  -0.5700 
 22 C      -12.5380    -7.4600    -0.8500 C.ar  1 <1>  -0.1500 
 23 C      -11.1400    -8.6010     0.7150 C.ar  1 <1>  -0.1500 
 24 C      -13.2380    -8.6310    -1.0780 C.ar  1 <1>  -0.1500 
 25 C      -11.8350    -9.7760     0.4910 C.ar  1 <1>  -0.1500 
 26 C      -12.8920    -9.7960    -0.4150 C.ar  1 <1>   0.0830 
 27 O      -13.6270   -10.9030    -0.7000 O.3   1 <1>  -0.3630 
 28 C      -13.3840   -12.1250    -0.0440 C.3   1 <1>   0.1200 
 29 C      -14.3840   -13.1500    -0.5690 C.3   1 <1>  -0.2400 
 30 H       -4.2460    -0.2900    -2.3940 H     1 <1>   0.1500 
 31 H       -1.5030    -0.5080     0.8450 H     1 <1>   0.1500 
 32 H       -5.3650    -2.3130    -1.6090 H     1 <1>   0.1500 
 33 H       -2.6050    -2.5600     1.6460 H     1 <1>   0.1500 
 34 H       -5.3630    -4.4480    -1.3900 H     1 <1>   0.0800 
 35 H       -4.3960    -6.6160     0.4830 H     1 <1>   0.0800 
 36 H       -3.4680    -5.9390    -0.8300 H     1 <1>   0.0800 
 37 H       -4.9210    -6.8410    -1.1780 H     1 <1>   0.0800 
 38 H       -8.6840    -4.8340     1.7160 H     1 <1>   0.0800 
 39 H       -8.8690    -6.9730     0.9250 H     1 <1>   0.0800 
 40 H       -8.9320    -6.4680    -0.7600 H     1 <1>   0.0800 
 41 H      -10.0530    -3.4640    -0.5710 H     1 <1>   0.0800 
 42 H      -10.2770    -3.2400     1.1600 H     1 <1>   0.0800 
 43 H      -12.8230    -6.5630    -1.3690 H     1 <1>   0.1500 
 44 H      -10.3350    -8.5980     1.4260 H     1 <1>   0.1500 
 45 H      -14.0590    -8.6470    -1.7710 H     1 <1>   0.1500 
 46 H      -11.5440   -10.6570     1.0280 H     1 <1>   0.1500 
 47 H      -13.5130   -11.9750     1.0140 H     1 <1>   0.0800 
 48 H      -12.3750   -12.4330    -0.2600 H     1 <1>   0.0800 
 49 H      -15.3880   -12.8240    -0.3640 H     1 <1>   0.0800 
 50 H      -14.2240   -14.0960    -0.0860 H     1 <1>   0.0800 
 51 H      -14.2580   -13.2780    -1.6290 H     1 <1>   0.0800 
@<TRIPOS>BOND
  1   1   2  1   
  2   2   3  ar  
  3   2   4  ar  
  4   3   5  ar  
  5   3  30  1   
  6   4   6  ar  
  7   4  31  1   
  8   5   7  ar  
  9   5  32  1   
 10   6   7  ar  
 11   6  33  1   
 12   7   8  1   
 13   8   9  2   
 14   8  10  1   
 15  10  11  1   
 16  10  12  1   
 17  10  34  1   
 18  11  13  1   
 19  12  35  1   
 20  12  36  1   
 21  12  37  1   
 22  13  14  2   
 23  13  15  1   
 24  15  16  1   
 25  15  17  1   
 26  15  38  1   
 27  16  18  1   
 28  16  39  1   
 29  16  40  1   
 30  17  19  1   
 31  17  41  1   
 32  17  42  1   
 33  18  19  am  
 34  18  20  1   
 35  19  21  2   
 36  20  22  ar  
 37  20  23  ar  
 38  22  24  ar  
 39  22  43  1   
 40  23  25  ar  
 41  23  44  1   
 42  24  26  ar  
 43  24  45  1   
 44  25  26  ar  
 45  25  46  1   
 46  26  27  1   
 47  27  28  1   
 48  28  29  1   
 49  28  47  1   
 50  28  48  1   
 51  29  49  1   
 52  29  50  1   
 53  29  51  1   
@<TRIPOS>SUBSTRUCTURE
  1 ****  15 GROUP 4 **** **** 0

# MOE 2024.06 (io_trps.svl 2023.06)
