@<TRIPOS>MOLECULE
1-Azepan-1-yl-2-([1,2,4]triazolo[3,4-b][1,3,4]thiadiazol-6-ylsulfanyl)-ethanone
34 36 1 0 0 
SMALL
USER_CHARGES


@<TRIPOS>ATOM
  1 S        0.5670    -0.1140     1.9740 S.3   1 <1>  -0.1970 
  2 C        0.9720    -0.1950     0.2500 C.2   1 <1>   0.7320 
  3 C        0.1850     1.5770     1.7160 C.2   1 <1>   0.2430 
  4 S        1.5130    -1.7800    -0.3810 S.3   1 <1>  -0.3710 
  5 N        0.8380     0.8750    -0.4180 N.2   1 <1>  -0.6520 
  6 N       -0.2320     2.5490     2.4460 N.2   1 <1>  -0.3380 
  7 N        0.3900     1.8800     0.4430 N.pl3 1 <1>   0.5050 
  8 C        1.5860    -2.9170     1.0940 C.3   1 <1>   0.1310 
  9 N       -0.3160     3.5930     1.5980 N.2   1 <1>  -0.3380 
 10 C        0.0550     3.1760     0.4240 C.2   1 <1>   0.0360 
 11 C        2.1980    -4.2630     0.7250 C.2   1 <1>   0.5690 
 12 O        3.2690    -4.5160     1.2280 O.2   1 <1>  -0.5700 
 13 N        1.5590    -5.1540    -0.1090 N.am  1 <1>  -0.6600 
 14 C        2.2170    -6.4480    -0.4440 C.3   1 <1>   0.1400 
 15 C        0.2540    -4.8780    -0.7790 C.3   1 <1>   0.1400 
 16 C        1.8050    -7.5200     0.5700 C.3   1 <1>  -0.1600 
 17 C       -0.6680    -6.1030    -0.8850 C.3   1 <1>  -0.1600 
 18 C        0.3770    -8.0590     0.3900 C.3   1 <1>  -0.1600 
 19 C       -0.7190    -6.9820     0.3760 C.3   1 <1>  -0.1600 
 20 H        0.5910    -3.0420     1.4740 H     1 <1>   0.0800 
 21 H        2.2020    -2.4390     1.8340 H     1 <1>   0.0800 
 22 H        0.0990     3.7680    -0.4700 H     1 <1>   0.1500 
 23 H        3.2860    -6.3230    -0.4060 H     1 <1>   0.0800 
 24 H        1.9660    -6.7500    -1.4460 H     1 <1>   0.0800 
 25 H        0.4450    -4.4910    -1.7650 H     1 <1>   0.0800 
 26 H       -0.2790    -4.1210    -0.2330 H     1 <1>   0.0800 
 27 H        1.9270    -7.1250     1.5630 H     1 <1>   0.0800 
 28 H        2.4860    -8.3470     0.4750 H     1 <1>   0.0800 
 29 H       -0.3850    -6.6950    -1.7370 H     1 <1>   0.0800 
 30 H       -1.6590    -5.7380    -1.0880 H     1 <1>   0.0800 
 31 H        0.1740    -8.7410     1.1970 H     1 <1>   0.0800 
 32 H        0.3250    -8.6270    -0.5230 H     1 <1>   0.0800 
 33 H       -1.6710    -7.4850     0.3950 H     1 <1>   0.0800 
 34 H       -0.6590    -6.3750     1.2640 H     1 <1>   0.0800 
@<TRIPOS>BOND
  1   1   2  1   
  2   1   3  1   
  3   2   4  1   
  4   2   5  2   
  5   3   6  2   
  6   3   7  1   
  7   4   8  1   
  8   5   7  1   
  9   6   9  1   
 10   7  10  1   
 11   8  11  1   
 12   8  20  1   
 13   8  21  1   
 14   9  10  2   
 15  10  22  1   
 16  11  12  2   
 17  11  13  am  
 18  13  14  1   
 19  13  15  1   
 20  14  16  1   
 21  14  23  1   
 22  14  24  1   
 23  15  17  1   
 24  15  25  1   
 25  15  26  1   
 26  16  18  1   
 27  16  27  1   
 28  16  28  1   
 29  17  19  1   
 30  17  29  1   
 31  17  30  1   
 32  18  19  1   
 33  18  31  1   
 34  18  32  1   
 35  19  33  1   
 36  19  34  1   
@<TRIPOS>SUBSTRUCTURE
  1 ****   8 GROUP 4 **** **** 0

# MOE 2024.06 (io_trps.svl 2023.06)
