@<TRIPOS>MOLECULE
N-[2-(4-Acetyl-piperazin-1-yl)-phenyl]-4-ethoxy-benzamide
52 54 1 0 0 
SMALL
USER_CHARGES


@<TRIPOS>ATOM
  1 O        0.1860     0.1900     0.4550 O.2   1 <1>  -0.5700 
  2 C       -0.5850     1.1080     0.2560 C.2   1 <1>   0.5440 
  3 N       -0.1090     2.3530    -0.0660 N.am  1 <1>  -0.5470 
  4 C       -2.0180     0.9100     0.3760 C.ar  1 <1>   0.0860 
  5 C        1.1540     2.9030    -0.3260 C.ar  1 <1>   0.1170 
  6 C       -2.9380     1.6970    -0.3250 C.ar  1 <1>  -0.1500 
  7 C       -2.5380    -0.0820     1.2090 C.ar  1 <1>  -0.1500 
  8 C        1.1820     4.2830    -0.5730 C.ar  1 <1>   0.1000 
  9 C        2.3370     2.1770    -0.3570 C.ar  1 <1>  -0.1500 
 10 C       -4.3030     1.5150    -0.1920 C.ar  1 <1>  -0.1500 
 11 C       -3.9010    -0.2700     1.3480 C.ar  1 <1>  -0.1500 
 12 N       -0.0150     5.0240    -0.5430 N.pl3 1 <1>  -0.8380 
 13 C        2.3970     4.9000    -0.8420 C.ar  1 <1>  -0.1500 
 14 C        3.5410     2.8060    -0.6260 C.ar  1 <1>  -0.1500 
 15 C       -4.7950     0.5260     0.6540 C.ar  1 <1>   0.0830 
 16 C       -0.1400     5.9970     0.5850 C.3   1 <1>   0.2090 
 17 C       -0.5210     5.5150    -1.8710 C.3   1 <1>   0.2090 
 18 C        3.5710     4.1680    -0.8690 C.ar  1 <1>  -0.1500 
 19 O       -6.1110     0.2820     0.8450 O.3   1 <1>  -0.3630 
 20 C       -1.5510     6.6120     0.6410 C.3   1 <1>   0.1400 
 21 C       -1.0730     6.9530    -1.8280 C.3   1 <1>   0.1400 
 22 C       -7.1100     1.0030     0.1630 C.3   1 <1>   0.1200 
 23 N       -2.0180     7.1490    -0.6800 N.am  1 <1>  -0.6600 
 24 C       -8.4670     0.4610     0.6010 C.3   1 <1>  -0.2400 
 25 C       -3.2540     7.7030    -0.8730 C.2   1 <1>   0.5690 
 26 O       -3.6340     8.0680    -1.9590 O.2   1 <1>  -0.5700 
 27 C       -4.2000     7.8750     0.2930 C.3   1 <1>  -0.1790 
 28 H       -0.8010     3.1050    -0.1060 H     1 <1>   0.3700 
 29 H       -2.5830     2.4600    -0.9950 H     1 <1>   0.1500 
 30 H       -1.8560    -0.7130     1.7550 H     1 <1>   0.1500 
 31 H        2.3260     1.1190    -0.1710 H     1 <1>   0.1500 
 32 H       -4.9660     2.1470    -0.7520 H     1 <1>   0.1500 
 33 H       -4.2810    -1.0390     1.9970 H     1 <1>   0.1500 
 34 H        2.4220     5.9560    -1.0320 H     1 <1>   0.1500 
 35 H        4.4510     2.2320    -0.6450 H     1 <1>   0.1500 
 36 H        0.5870     6.7820     0.4670 H     1 <1>   0.0800 
 37 H        0.0690     5.4920     1.5120 H     1 <1>   0.0800 
 38 H       -1.3100     4.8600    -2.1970 H     1 <1>   0.0800 
 39 H        0.2640     5.4610    -2.6050 H     1 <1>   0.0800 
 40 H        4.5070     4.6550    -1.0780 H     1 <1>   0.1500 
 41 H       -1.5560     7.4040     1.3700 H     1 <1>   0.0800 
 42 H       -2.2370     5.8500     0.9690 H     1 <1>   0.0800 
 43 H       -1.5630     7.1640    -2.7620 H     1 <1>   0.0800 
 44 H       -0.2550     7.6430    -1.7300 H     1 <1>   0.0800 
 45 H       -6.9690     0.8640    -0.8950 H     1 <1>   0.0800 
 46 H       -7.0150     2.0440     0.4200 H     1 <1>   0.0800 
 47 H       -8.5440    -0.5830     0.3550 H     1 <1>   0.0800 
 48 H       -9.2540     0.9920     0.0970 H     1 <1>   0.0800 
 49 H       -8.5910     0.5890     1.6620 H     1 <1>   0.0800 
 50 H       -3.7470     8.4940     1.0440 H     1 <1>   0.0800 
 51 H       -4.4470     6.9170     0.7080 H     1 <1>   0.0800 
 52 H       -5.1040     8.3490    -0.0420 H     1 <1>   0.0800 
@<TRIPOS>BOND
  1   1   2  2   
  2   2   3  am  
  3   2   4  1   
  4   3   5  1   
  5   3  28  1   
  6   4   6  ar  
  7   4   7  ar  
  8   5   8  ar  
  9   5   9  ar  
 10   6  10  ar  
 11   6  29  1   
 12   7  11  ar  
 13   7  30  1   
 14   8  12  1   
 15   8  13  ar  
 16   9  14  ar  
 17   9  31  1   
 18  10  15  ar  
 19  10  32  1   
 20  11  15  ar  
 21  11  33  1   
 22  12  16  1   
 23  12  17  1   
 24  13  18  ar  
 25  13  34  1   
 26  14  18  ar  
 27  14  35  1   
 28  15  19  1   
 29  16  20  1   
 30  16  36  1   
 31  16  37  1   
 32  17  21  1   
 33  17  38  1   
 34  17  39  1   
 35  18  40  1   
 36  19  22  1   
 37  20  23  1   
 38  20  41  1   
 39  20  42  1   
 40  21  23  1   
 41  21  43  1   
 42  21  44  1   
 43  22  24  1   
 44  22  45  1   
 45  22  46  1   
 46  23  25  am  
 47  24  47  1   
 48  24  48  1   
 49  24  49  1   
 50  25  26  2   
 51  25  27  1   
 52  27  50  1   
 53  27  51  1   
 54  27  52  1   
@<TRIPOS>SUBSTRUCTURE
  1 ****   3 GROUP 4 **** **** 0

# MOE 2024.06 (io_trps.svl 2023.06)
