@<TRIPOS>MOLECULE
1-Allyl-4-hydroxy-6,7-dimethoxy-2-oxo-1,2-dihydro-quinoline-3-carboxylic acid (t
51 53 1 0 0 
SMALL
USER_CHARGES


@<TRIPOS>ATOM
  1 O       -0.1230     0.5980     1.3820 O.2   1 <1>  -0.5700 
  2 C       -1.1610     1.1060     0.9480 C.2   1 <1>   0.5350 
  3 N       -2.3060     0.3150     0.9150 N.am  1 <1>  -0.4770 
  4 C       -1.2060     2.4470     0.5230 C.3   1 <1>  -0.7150 
  5 C       -3.5280     0.8180     0.4280 C.ar  1 <1>   0.1170 
  6 C       -2.2350    -1.0600     1.4920 C.3   1 <1>   0.2780 
  7 C       -2.4630     3.0170     0.2680 C.2   1 <1>   0.3890 
  8 C       -0.0350     3.1990     0.3280 C.2   1 <1>   0.5350 
  9 C       -3.6260     2.1790     0.1220 C.ar  1 <1>   0.0860 
 10 C       -4.6510     0.0110     0.2340 C.ar  1 <1>  -0.1500 
 11 C       -2.0920    -2.1380     0.4180 C.2   1 <1>  -0.2880 
 12 O       -2.6180     4.2420     0.1950 O.2   1 <1>  -0.5700 
 13 O        0.1650     3.8820    -0.6720 O.2   1 <1>  -0.5700 
 14 N        0.9590     3.0940     1.2490 N.am  1 <1>  -0.7300 
 15 C       -4.8490     2.6880    -0.3240 C.ar  1 <1>  -0.1500 
 16 C       -5.8550     0.5140    -0.2180 C.ar  1 <1>   0.0820 
 17 C       -1.9390    -1.9520    -0.8990 C.2   1 <1>  -0.3000 
 18 C        2.3910     3.2860     0.9100 C.3   1 <1>   0.1400 
 19 C       -5.9690     1.8880    -0.4870 C.ar  1 <1>   0.0820 
 20 O       -6.8510    -0.4020    -0.3610 O.3   1 <1>  -0.3630 
 21 C        3.0220     1.9640     0.4460 C.3   1 <1>   0.2000 
 22 O       -7.1710     2.4090    -0.8850 O.3   1 <1>  -0.3630 
 23 C       -7.8040    -0.2880    -1.3950 C.3   1 <1>   0.0400 
 24 O        4.4030     2.1310     0.2680 O.3   1 <1>  -0.5600 
 25 C        2.4860     1.4310    -0.8800 C.3   1 <1>  -0.1600 
 26 C       -7.3660     3.8040    -0.9800 C.3   1 <1>   0.0400 
 27 C        4.8360     1.5930    -0.9430 C.3   1 <1>   0.1200 
 28 C        3.6940     0.7400    -1.4710 C.3   1 <1>  -0.1600 
 29 H       -3.1270    -1.2380     2.0650 H     1 <1>   0.0800 
 30 H       -1.4140    -1.1400     2.1810 H     1 <1>   0.0800 
 31 H       -4.6040    -1.0430     0.4220 H     1 <1>   0.1500 
 32 H       -2.1210    -3.1230     0.8480 H     1 <1>   0.1500 
 33 H        0.7720     2.2600     1.8150 H     1 <1>   0.3700 
 34 H       -4.8770     3.7390    -0.5390 H     1 <1>   0.1500 
 35 H       -1.8400    -2.7470    -1.6160 H     1 <1>   0.1500 
 36 H       -1.8940    -0.9820    -1.3670 H     1 <1>   0.1500 
 37 H        2.9040     3.6360     1.7870 H     1 <1>   0.0800 
 38 H        2.4840     4.0270     0.1360 H     1 <1>   0.0800 
 39 H        2.8980     1.2180     1.2120 H     1 <1>   0.0800 
 40 H       -8.2270    -1.2600    -1.5690 H     1 <1>   0.0800 
 41 H       -7.3180     0.0700    -2.2850 H     1 <1>   0.0800 
 42 H       -8.5750     0.3930    -1.0810 H     1 <1>   0.0800 
 43 H        2.1750     2.2510    -1.5040 H     1 <1>   0.0800 
 44 H        1.6470     0.7730    -0.7310 H     1 <1>   0.0800 
 45 H       -6.7330     4.1940    -1.7580 H     1 <1>   0.0800 
 46 H       -7.1320     4.2560    -0.0320 H     1 <1>   0.0800 
 47 H       -8.3970     3.9820    -1.2260 H     1 <1>   0.0800 
 48 H        5.7340     1.0240    -0.7770 H     1 <1>   0.0800 
 49 H        5.0360     2.4160    -1.6080 H     1 <1>   0.0800 
 50 H        3.6680     0.7100    -2.5450 H     1 <1>   0.0800 
 51 H        3.7800    -0.2590    -1.0810 H     1 <1>   0.0800 
@<TRIPOS>BOND
  1   1   2  2   
  2   2   3  am  
  3   2   4  1   
  4   3   5  1   
  5   3   6  1   
  6   4   7  1   
  7   4   8  1   
  8   5   9  ar  
  9   5  10  ar  
 10   6  11  1   
 11   6  29  1   
 12   6  30  1   
 13   7   9  1   
 14   7  12  2   
 15   8  13  2   
 16   8  14  am  
 17   9  15  ar  
 18  10  16  ar  
 19  10  31  1   
 20  11  17  2   
 21  11  32  1   
 22  14  18  1   
 23  14  33  1   
 24  15  19  ar  
 25  15  34  1   
 26  16  19  ar  
 27  16  20  1   
 28  17  35  1   
 29  17  36  1   
 30  18  21  1   
 31  18  37  1   
 32  18  38  1   
 33  19  22  1   
 34  20  23  1   
 35  21  24  1   
 36  21  25  1   
 37  21  39  1   
 38  22  26  1   
 39  23  40  1   
 40  23  41  1   
 41  23  42  1   
 42  24  27  1   
 43  25  28  1   
 44  25  43  1   
 45  25  44  1   
 46  26  45  1   
 47  26  46  1   
 48  26  47  1   
 49  27  28  1   
 50  27  48  1   
 51  27  49  1   
 52  28  50  1   
 53  28  51  1   
@<TRIPOS>SUBSTRUCTURE
  1 ****   2 GROUP 4 **** **** 0

# MOE 2024.06 (io_trps.svl 2023.06)
