@<TRIPOS>MOLECULE
1-(2-Methoxy-phenyl)-N*1*,N*1*-dimethyl-ethane-1,2-diamine
34 34 1 0 0 
SMALL
USER_CHARGES


@<TRIPOS>ATOM
  1 O       -0.6040     1.0290    -1.0090 O.3   1 <1>  -0.3630 
  2 C       -1.5970     1.2870    -0.1130 C.ar  1 <1>   0.0830 
  3 C       -0.6500    -0.1220    -1.8360 C.3   1 <1>   0.0400 
  4 C       -1.4750     2.4320     0.6750 C.ar  1 <1>  -0.1440 
  5 C       -2.7110     0.4660     0.0380 C.ar  1 <1>  -0.1500 
  6 C       -2.4650     2.7430     1.5970 C.ar  1 <1>  -0.1500 
  7 C       -0.2690     3.3430     0.5360 C.3   1 <1>   0.5660 
  8 C       -3.6890     0.7850     0.9600 C.ar  1 <1>  -0.1500 
  9 C       -3.5670     1.9210     1.7380 C.ar  1 <1>  -0.1500 
 10 N       -0.2450     3.8410    -0.8940 N.4   1 <1>  -0.9590 
 11 C        0.9710     2.5260     1.0440 C.3   1 <1>   0.3430 
 12 C        0.9260     4.6520    -1.3470 C.3   1 <1>   0.2630 
 13 C       -1.5110     4.5880    -1.2220 C.3   1 <1>   0.2630 
 14 N        2.2570     3.2650     1.3600 N.4   1 <1>  -0.8530 
 15 H        0.2280    -0.1350    -2.4580 H     1 <1>   0.0800 
 16 H       -1.5300    -0.0780    -2.4560 H     1 <1>   0.0800 
 17 H       -0.6670    -1.0030    -1.2180 H     1 <1>   0.0800 
 18 H       -2.8450    -0.4260    -0.5470 H     1 <1>   0.1500 
 19 H       -2.4050     3.6200     2.2210 H     1 <1>   0.1500 
 20 H       -0.4150     4.1820     1.1960 H     1 <1>   0.0800 
 21 H       -4.5510     0.1470     1.0750 H     1 <1>   0.1500 
 22 H       -4.3380     2.1590     2.4550 H     1 <1>   0.1500 
 23 H       -0.2990     2.9710    -1.4620 H     1 <1>   0.4500 
 24 H        1.1740     1.7450     0.3290 H     1 <1>   0.0800 
 25 H        0.6530     2.0280     1.9460 H     1 <1>   0.0800 
 26 H        1.0250     5.5440    -0.7490 H     1 <1>   0.0800 
 27 H        0.7880     4.9530    -2.3750 H     1 <1>   0.0800 
 28 H        1.8340     4.0780    -1.2920 H     1 <1>   0.0800 
 29 H       -1.5880     5.4880    -0.6320 H     1 <1>   0.0800 
 30 H       -2.3770     3.9740    -1.0250 H     1 <1>   0.0800 
 31 H       -1.5270     4.8600    -2.2650 H     1 <1>   0.0800 
 32 H        2.7360     3.6470     0.5380 H     1 <1>   0.4500 
 33 H        2.9280     2.6060     1.7860 H     1 <1>   0.4500 
 34 H        2.1340     4.0140     2.0560 H     1 <1>   0.4500 
@<TRIPOS>BOND
  1   1   2  1   
  2   1   3  1   
  3   2   4  ar  
  4   2   5  ar  
  5   3  15  1   
  6   3  16  1   
  7   3  17  1   
  8   4   6  ar  
  9   4   7  1   
 10   5   8  ar  
 11   5  18  1   
 12   6   9  ar  
 13   6  19  1   
 14   7  10  1   
 15   7  11  1   
 16   7  20  1   
 17   8   9  ar  
 18   8  21  1   
 19   9  22  1   
 20  10  12  1   
 21  10  13  1   
 22  10  23  1   
 23  11  14  1   
 24  11  24  1   
 25  11  25  1   
 26  12  26  1   
 27  12  27  1   
 28  12  28  1   
 29  13  29  1   
 30  13  30  1   
 31  13  31  1   
 32  14  32  1   
 33  14  33  1   
 34  14  34  1   
@<TRIPOS>SUBSTRUCTURE
  1 ****   4 GROUP 4 **** **** 0

# MOE 2024.06 (io_trps.svl 2023.06)
