@<TRIPOS>MOLECULE
N-Cyclopropyl-2-[2-methyl-4-(piperidine-1-sulfonyl)-phenoxy]-acetamide
48 50 1 0 0 
SMALL
USER_CHARGES


@<TRIPOS>ATOM
  1 S       -0.1300     0.2630    -1.4610 S.o2  1 <1>   1.4470 
  2 O       -0.3640    -0.9900    -2.1480 O.2   1 <1>  -0.6500 
  3 O       -0.8540     1.4440    -1.8800 O.2   1 <1>  -0.6500 
  4 N       -0.4910     0.0010     0.1750 N.am  1 <1>  -0.8490 
  5 C        1.6450     0.6340    -1.4400 C.ar  1 <1>  -0.0090 
  6 C       -1.9360     0.0490     0.4130 C.3   1 <1>   0.1960 
  7 C        0.0800    -1.2580     0.6670 C.3   1 <1>   0.1960 
  8 C        2.1610     1.5820    -0.5630 C.ar  1 <1>  -0.1500 
  9 C        2.5280    -0.0160    -2.2940 C.ar  1 <1>  -0.1500 
 10 C       -2.2320    -0.0370     1.9150 C.3   1 <1>  -0.1600 
 11 C       -0.1310    -1.3790     2.1790 C.3   1 <1>  -0.1600 
 12 C        3.5130     1.8840    -0.5230 C.ar  1 <1>  -0.1430 
 13 C        3.8790     0.2730    -2.2750 C.ar  1 <1>  -0.1500 
 14 C       -1.6190    -1.2960     2.5400 C.3   1 <1>  -0.1600 
 15 C        4.3700     1.2270    -1.4010 C.ar  1 <1>   0.0830 
 16 C        4.0150     2.9170     0.4770 C.3   1 <1>  -0.0970 
 17 O        5.6900     1.4910    -1.4240 O.3   1 <1>  -0.3630 
 18 C        6.0860     2.6720    -2.1130 C.3   1 <1>   0.1810 
 19 C        6.9490     3.5580    -1.2270 C.2   1 <1>   0.5690 
 20 O        7.0790     4.7210    -1.5270 O.2   1 <1>  -0.5700 
 21 N        7.5370     3.0130    -0.1280 N.am  1 <1>  -0.5790 
 22 C        8.3740     3.7170     0.8510 C.3   1 <1>   0.0490 
 23 C        9.4580     2.9500     1.5290 C.3   1 <1>  -0.2000 
 24 C        8.2290     3.3480     2.2890 C.3   1 <1>  -0.2000 
 25 H       -2.4200    -0.7620    -0.1080 H     1 <1>   0.0800 
 26 H       -2.3380     0.9760     0.0380 H     1 <1>   0.0800 
 27 H        1.1370    -1.2850     0.4600 H     1 <1>   0.0800 
 28 H       -0.3820    -2.0940     0.1670 H     1 <1>   0.0800 
 29 H        1.4790     2.0860     0.1020 H     1 <1>   0.1500 
 30 H        2.1520    -0.7570    -2.9810 H     1 <1>   0.1500 
 31 H       -3.2960    -0.0370     2.0690 H     1 <1>   0.0800 
 32 H       -1.8300     0.8390     2.3940 H     1 <1>   0.0800 
 33 H        0.4090    -0.5870     2.6700 H     1 <1>   0.0800 
 34 H        0.2720    -2.3150     2.5220 H     1 <1>   0.0800 
 35 H        4.5560    -0.2370    -2.9380 H     1 <1>   0.1500 
 36 H       -2.1280    -2.1670     2.1620 H     1 <1>   0.0800 
 37 H       -1.7390    -1.2740     3.6090 H     1 <1>   0.0800 
 38 H        3.2730     3.1160     1.2290 H     1 <1>   0.0800 
 39 H        4.2450     3.8390    -0.0260 H     1 <1>   0.0800 
 40 H        4.9000     2.5570     0.9700 H     1 <1>   0.0800 
 41 H        5.2120     3.2190    -2.4220 H     1 <1>   0.0800 
 42 H        6.6420     2.3780    -2.9830 H     1 <1>   0.0800 
 43 H        7.3370     2.0310     0.0760 H     1 <1>   0.3700 
 44 H        8.5510     4.7510     0.5960 H     1 <1>   0.1000 
 45 H       10.3810     3.4540     1.7550 H     1 <1>   0.1000 
 46 H        9.6030     1.9160     1.2700 H     1 <1>   0.1000 
 47 H        7.5170     2.5900     2.5650 H     1 <1>   0.1000 
 48 H        8.3190     4.1220     3.0310 H     1 <1>   0.1000 
@<TRIPOS>BOND
  1   1   2  2   
  2   1   3  2   
  3   1   4  am  
  4   1   5  1   
  5   4   6  1   
  6   4   7  1   
  7   5   8  ar  
  8   5   9  ar  
  9   6  10  1   
 10   6  25  1   
 11   6  26  1   
 12   7  11  1   
 13   7  27  1   
 14   7  28  1   
 15   8  12  ar  
 16   8  29  1   
 17   9  13  ar  
 18   9  30  1   
 19  10  14  1   
 20  10  31  1   
 21  10  32  1   
 22  11  14  1   
 23  11  33  1   
 24  11  34  1   
 25  12  15  ar  
 26  12  16  1   
 27  13  15  ar  
 28  13  35  1   
 29  14  36  1   
 30  14  37  1   
 31  15  17  1   
 32  16  38  1   
 33  16  39  1   
 34  16  40  1   
 35  17  18  1   
 36  18  19  1   
 37  18  41  1   
 38  18  42  1   
 39  19  20  2   
 40  19  21  am  
 41  21  22  1   
 42  21  43  1   
 43  22  23  1   
 44  22  24  1   
 45  22  44  1   
 46  23  24  1   
 47  23  45  1   
 48  23  46  1   
 49  24  47  1   
 50  24  48  1   
@<TRIPOS>SUBSTRUCTURE
  1 ****  12 GROUP 4 **** **** 0

# MOE 2024.06 (io_trps.svl 2023.06)
