@<TRIPOS>MOLECULE
4-(2,4-Dimethyl-phenyl)-2-oxo-6-(3-trifluoromethyl-pyrazol-1-ylmethyl)-1,2,3,4-t
48 50 1 0 0 
SMALL
USER_CHARGES


@<TRIPOS>ATOM
  1 F       -0.1260    -0.2330     1.1290 F     1 <1>  -0.3400 
  2 C       -0.7690     0.8330     1.5960 C.3   1 <1>   1.2010 
  3 F       -2.0050     0.7530     1.1080 F     1 <1>  -0.3400 
  4 F       -0.8860     0.6530     2.9090 F     1 <1>  -0.3400 
  5 C       -0.0680     2.1680     1.2180 C.2   1 <1>   0.1080 
  6 N        0.9920     2.6870     1.7960 N.2   1 <1>  -0.7070 
  7 C       -0.5100     2.9870     0.1770 C.2   1 <1>  -0.1500 
  8 N        1.2410     3.8370     1.1360 N.pl3 1 <1>   0.3140 
  9 C        0.3420     4.0330     0.1540 C.2   1 <1>  -0.3020 
 10 C        2.3790     4.7160     1.4840 C.3   1 <1>   0.2340 
 11 C        3.6810     4.2010     0.8550 C.2   1 <1>  -0.0290 
 12 N        3.9360     2.8620     1.0990 N.am  1 <1>  -0.5390 
 13 C        4.5570     4.9360     0.1120 C.2   1 <1>  -0.1240 
 14 C        5.0060     2.1780     0.6290 C.2   1 <1>   0.6900 
 15 C        4.4580     6.3220    -0.2320 C.2   1 <1>   0.7060 
 16 C        5.8250     4.2680    -0.4390 C.3   1 <1>   0.5020 
 17 O        5.1800     1.0190     0.9230 O.2   1 <1>  -0.5700 
 18 N        5.8760     2.8220    -0.1630 N.am  1 <1>  -0.7300 
 19 O        3.7690     7.1150     0.3790 O.2   1 <1>  -0.5700 
 20 O        5.1400     6.7680    -1.2940 O.3   1 <1>  -0.4300 
 21 C        7.0930     4.8810     0.1600 C.ar  1 <1>  -0.1430 
 22 C        5.1430     8.1350    -1.6580 C.3   1 <1>   0.0400 
 23 C        8.1540     5.3320    -0.6260 C.ar  1 <1>  -0.1430 
 24 C        7.1890     4.9850     1.5420 C.ar  1 <1>  -0.1500 
 25 C        9.2670     5.8900    -0.0160 C.ar  1 <1>  -0.1500 
 26 C        8.1440     5.2310    -2.1470 C.3   1 <1>  -0.0970 
 27 C        8.3040     5.5420     2.1390 C.ar  1 <1>  -0.1500 
 28 C        9.3490     6.0030     1.3600 C.ar  1 <1>  -0.1430 
 29 C       10.5780     6.6160     2.0070 C.3   1 <1>  -0.0970 
 30 H       -1.3560     2.8040    -0.4650 H     1 <1>   0.1500 
 31 H        0.3570     4.8880    -0.4970 H     1 <1>   0.1500 
 32 H        2.4790     4.7190     2.5540 H     1 <1>   0.0800 
 33 H        2.1270     5.7070     1.1710 H     1 <1>   0.0800 
 34 H        3.2440     2.2810     1.5930 H     1 <1>   0.3700 
 35 H        5.8190     4.3820    -1.5080 H     1 <1>   0.0800 
 36 H        6.7780     2.3720    -0.3060 H     1 <1>   0.3700 
 37 H        4.1350     8.4430    -1.8740 H     1 <1>   0.0800 
 38 H        5.7630     8.2560    -2.5280 H     1 <1>   0.0800 
 39 H        5.5410     8.7110    -0.8390 H     1 <1>   0.0800 
 40 H        6.3910     4.6270     2.1700 H     1 <1>   0.1500 
 41 H       10.0870     6.2430    -0.6160 H     1 <1>   0.1500 
 42 H        7.3730     5.8590    -2.5560 H     1 <1>   0.0800 
 43 H        7.9740     4.2140    -2.4510 H     1 <1>   0.0800 
 44 H        9.0850     5.5470    -2.5600 H     1 <1>   0.0800 
 45 H        8.3540     5.6130     3.2110 H     1 <1>   0.1500 
 46 H       11.3370     5.8650     2.1310 H     1 <1>   0.0800 
 47 H       10.3340     7.0260     2.9710 H     1 <1>   0.0800 
 48 H       10.9680     7.4070     1.3920 H     1 <1>   0.0800 
@<TRIPOS>BOND
  1   1   2  1   
  2   2   3  1   
  3   2   4  1   
  4   2   5  1   
  5   5   6  2   
  6   5   7  1   
  7   6   8  1   
  8   7   9  2   
  9   7  30  1   
 10   8   9  1   
 11   8  10  1   
 12   9  31  1   
 13  10  11  1   
 14  10  32  1   
 15  10  33  1   
 16  11  12  1   
 17  11  13  2   
 18  12  14  am  
 19  12  34  1   
 20  13  15  1   
 21  13  16  1   
 22  14  17  2   
 23  14  18  am  
 24  15  19  2   
 25  15  20  1   
 26  16  18  1   
 27  16  21  1   
 28  16  35  1   
 29  18  36  1   
 30  20  22  1   
 31  21  23  ar  
 32  21  24  ar  
 33  22  37  1   
 34  22  38  1   
 35  22  39  1   
 36  23  25  ar  
 37  23  26  1   
 38  24  27  ar  
 39  24  40  1   
 40  25  28  ar  
 41  25  41  1   
 42  26  42  1   
 43  26  43  1   
 44  26  44  1   
 45  27  28  ar  
 46  27  45  1   
 47  28  29  1   
 48  29  46  1   
 49  29  47  1   
 50  29  48  1   
@<TRIPOS>SUBSTRUCTURE
  1 ****  11 GROUP 4 **** **** 0

# MOE 2024.06 (io_trps.svl 2023.06)
