@<TRIPOS>MOLECULE
1-(3-Chloro-4-ethoxy-benzenesulfonyl)-piperidine-4-carboxylic acid (2-methoxy-1-
54 55 1 0 0 
SMALL
USER_CHARGES


@<TRIPOS>ATOM
  1 CL       0.7380    -0.1690    -1.1990 Cl    1 <1>  -0.1770 
  2 C        1.0080     1.4260    -0.5290 C.ar  1 <1>   0.1770 
  3 C        0.7940     1.6830     0.8210 C.ar  1 <1>   0.0820 
  4 C        1.4550     2.4200    -1.3780 C.ar  1 <1>  -0.1500 
  5 O        0.3610     0.7370     1.6850 O.3   1 <1>  -0.3630 
  6 C        1.0580     2.9510     1.3110 C.ar  1 <1>  -0.1500 
  7 C        1.7140     3.7000    -0.8990 C.ar  1 <1>  -0.0090 
  8 C       -0.9840     0.3160     1.5900 C.3   1 <1>   0.1200 
  9 C        1.5070     3.9440     0.4560 C.ar  1 <1>  -0.1500 
 10 S        2.2930     5.0160    -2.0060 S.o2  1 <1>   1.4470 
 11 C       -1.8750     1.3110     2.3310 C.3   1 <1>  -0.2400 
 12 O        2.8860     4.4370    -3.1930 O.2   1 <1>  -0.6500 
 13 O        1.2430     6.0000    -2.1470 O.2   1 <1>  -0.6500 
 14 N        3.5550     5.7340    -1.1280 N.am  1 <1>  -0.8490 
 15 C        3.8650     7.0750    -1.6320 C.3   1 <1>   0.1960 
 16 C        4.7500     4.8850    -1.0860 C.3   1 <1>   0.1960 
 17 C        4.8900     7.7590    -0.7240 C.3   1 <1>  -0.1600 
 18 C        5.7970     5.4920    -0.1510 C.3   1 <1>  -0.1600 
 19 C        6.1710     6.9180    -0.5880 C.3   1 <1>  -0.0190 
 20 C        7.1770     7.5360     0.3800 C.2   1 <1>   0.5690 
 21 O        6.8000     7.9190     1.4620 O.2   1 <1>  -0.5700 
 22 N        8.4770     7.5980    -0.0110 N.am  1 <1>  -0.7300 
 23 C        9.6440     7.8800     0.8590 C.3   1 <1>   0.2200 
 24 C        9.7330     6.8630     2.0100 C.3   1 <1>   0.1200 
 25 C        9.5910     9.3260     1.3550 C.3   1 <1>  -0.2400 
 26 O        9.8120     5.5670     1.4880 O.3   1 <1>  -0.5600 
 27 C        9.7520     4.5730     2.4590 C.3   1 <1>   0.0400 
 28 H        1.6070     2.1930    -2.4190 H     1 <1>   0.1500 
 29 H        0.9080     3.1530     2.3570 H     1 <1>   0.1500 
 30 H       -1.0490    -0.6570     2.0440 H     1 <1>   0.0800 
 31 H       -1.2650     0.2390     0.5540 H     1 <1>   0.0800 
 32 H        1.7030     4.9300     0.8470 H     1 <1>   0.1500 
 33 H       -1.5620     1.3950     3.3570 H     1 <1>   0.0800 
 34 H       -2.8930     0.9680     2.3110 H     1 <1>   0.0800 
 35 H       -1.8340     2.2770     1.8600 H     1 <1>   0.0800 
 36 H        2.9700     7.6760    -1.6460 H     1 <1>   0.0800 
 37 H        4.2410     7.0100    -2.6400 H     1 <1>   0.0800 
 38 H        5.1620     4.7780    -2.0770 H     1 <1>   0.0800 
 39 H        4.4880     3.9040    -0.7240 H     1 <1>   0.0800 
 40 H        4.4450     7.9090     0.2450 H     1 <1>   0.0800 
 41 H        5.1340     8.7270    -1.1230 H     1 <1>   0.0800 
 42 H        6.6770     4.8730    -0.1460 H     1 <1>   0.0800 
 43 H        5.4040     5.5100     0.8510 H     1 <1>   0.0800 
 44 H        6.6310     6.8620    -1.5580 H     1 <1>   0.0800 
 45 H        8.7390     7.1000    -0.8610 H     1 <1>   0.3700 
 46 H       10.5350     7.7720     0.2640 H     1 <1>   0.0800 
 47 H        8.8630     6.9400     2.6390 H     1 <1>   0.0800 
 48 H       10.6140     7.0470     2.5980 H     1 <1>   0.0800 
 49 H        8.7550     9.4760     2.0140 H     1 <1>   0.0800 
 50 H        9.5100    10.0000     0.5220 H     1 <1>   0.0800 
 51 H       10.4910     9.5590     1.8950 H     1 <1>   0.0800 
 52 H        9.8380     3.6190     1.9680 H     1 <1>   0.0800 
 53 H        8.8070     4.6340     2.9700 H     1 <1>   0.0800 
 54 H       10.5670     4.7000     3.1500 H     1 <1>   0.0800 
@<TRIPOS>BOND
  1   1   2  1   
  2   2   3  ar  
  3   2   4  ar  
  4   3   5  1   
  5   3   6  ar  
  6   4   7  ar  
  7   4  28  1   
  8   5   8  1   
  9   6   9  ar  
 10   6  29  1   
 11   7   9  ar  
 12   7  10  1   
 13   8  11  1   
 14   8  30  1   
 15   8  31  1   
 16   9  32  1   
 17  10  12  2   
 18  10  13  2   
 19  10  14  am  
 20  11  33  1   
 21  11  34  1   
 22  11  35  1   
 23  14  15  1   
 24  14  16  1   
 25  15  17  1   
 26  15  36  1   
 27  15  37  1   
 28  16  18  1   
 29  16  38  1   
 30  16  39  1   
 31  17  19  1   
 32  17  40  1   
 33  17  41  1   
 34  18  19  1   
 35  18  42  1   
 36  18  43  1   
 37  19  20  1   
 38  19  44  1   
 39  20  21  2   
 40  20  22  am  
 41  22  23  1   
 42  22  45  1   
 43  23  24  1   
 44  23  25  1   
 45  23  46  1   
 46  24  26  1   
 47  24  47  1   
 48  24  48  1   
 49  25  49  1   
 50  25  50  1   
 51  25  51  1   
 52  26  27  1   
 53  27  52  1   
 54  27  53  1   
 55  27  54  1   
@<TRIPOS>SUBSTRUCTURE
  1 ****  16 GROUP 4 **** **** 0

# MOE 2024.06 (io_trps.svl 2023.06)
