@<TRIPOS>MOLECULE
Cyanomethyl-(4-isopropylamino-6-morpholin-4-yl-[1,3,5]triazin-2-yl)-cyanamide
40 41 1 0 0 
SMALL
USER_CHARGES


@<TRIPOS>ATOM
  1 O       -1.1190     0.0940     0.7190 O.3   1 <1>  -0.5600 
  2 C       -2.3120    -0.4460     0.2200 C.3   1 <1>   0.1200 
  3 C       -1.2200     1.4420     1.0930 C.3   1 <1>   0.1200 
  4 C       -2.7800     0.3210    -1.0300 C.3   1 <1>   0.2090 
  5 C       -1.6420     2.3200    -0.1000 C.3   1 <1>   0.2090 
  6 N       -2.8900     1.7820    -0.7310 N.pl3 1 <1>  -0.8380 
  7 C       -4.0980     2.4140    -0.5670 C.ar  1 <1>   0.7200 
  8 N       -4.0780     3.7200    -0.5740 N.ar  1 <1>  -0.6200 
  9 N       -5.1630     1.6740    -0.4070 N.ar  1 <1>  -0.6200 
 10 C       -5.2350     4.2800    -0.3560 C.ar  1 <1>   0.8190 
 11 C       -6.2540     2.3540    -0.2270 C.ar  1 <1>   0.7200 
 12 N       -6.3640     3.6510    -0.1840 N.ar  1 <1>  -0.6200 
 13 N       -5.2520     5.6540    -0.3080 N.pl3 1 <1>  -0.6810 
 14 N       -7.3660     1.6050    -0.0610 N.pl3 1 <1>  -0.8690 
 15 C       -6.3380     6.3600     0.2270 C.1   1 <1>   0.6830 
 16 C       -4.0310     6.4600    -0.5860 C.3   1 <1>   0.3960 
 17 C       -8.6750     2.0720     0.4030 C.3   1 <1>   0.2890 
 18 N       -7.1800     6.9950     0.6510 N.1   1 <1>  -0.5570 
 19 C       -3.0490     6.4370     0.5460 C.1   1 <1>   0.3570 
 20 C       -8.7630     1.8220     1.9030 C.3   1 <1>  -0.2400 
 21 C       -9.7420     1.2940    -0.3540 C.3   1 <1>  -0.2400 
 22 N       -2.2860     6.4210     1.3910 N.1   1 <1>  -0.5570 
 23 H       -3.0630    -0.3990     0.9890 H     1 <1>   0.0800 
 24 H       -2.1300    -1.4770    -0.0250 H     1 <1>   0.0800 
 25 H       -0.2600     1.7550     1.4610 H     1 <1>   0.0800 
 26 H       -1.9390     1.5250     1.8900 H     1 <1>   0.0800 
 27 H       -3.7190    -0.0780    -1.3710 H     1 <1>   0.0800 
 28 H       -2.0630     0.1760    -1.8180 H     1 <1>   0.0800 
 29 H       -0.8520     2.3300    -0.8300 H     1 <1>   0.0800 
 30 H       -1.7810     3.3300     0.2460 H     1 <1>   0.0800 
 31 H       -7.1940     0.6050     0.0090 H     1 <1>   0.4000 
 32 H       -4.3060     7.4820    -0.7790 H     1 <1>   0.0800 
 33 H       -3.5460     6.0830    -1.4700 H     1 <1>   0.0800 
 34 H       -8.7920     3.1260     0.2020 H     1 <1>   0.0800 
 35 H       -8.6490     0.7760     2.1230 H     1 <1>   0.0800 
 36 H       -9.7170     2.1510     2.2730 H     1 <1>   0.0800 
 37 H       -7.9950     2.3790     2.4100 H     1 <1>   0.0800 
 38 H       -9.6530     0.2390    -0.1650 H     1 <1>   0.0800 
 39 H       -9.6460     1.4760    -1.4090 H     1 <1>   0.0800 
 40 H      -10.7190     1.6180    -0.0440 H     1 <1>   0.0800 
@<TRIPOS>BOND
  1   1   2  1   
  2   1   3  1   
  3   2   4  1   
  4   2  23  1   
  5   2  24  1   
  6   3   5  1   
  7   3  25  1   
  8   3  26  1   
  9   4   6  1   
 10   4  27  1   
 11   4  28  1   
 12   5   6  1   
 13   5  29  1   
 14   5  30  1   
 15   6   7  1   
 16   7   8  ar  
 17   7   9  ar  
 18   8  10  ar  
 19   9  11  ar  
 20  10  12  ar  
 21  10  13  1   
 22  11  12  ar  
 23  11  14  1   
 24  13  15  1   
 25  13  16  1   
 26  14  17  1   
 27  14  31  1   
 28  15  18  3   
 29  16  19  1   
 30  16  32  1   
 31  16  33  1   
 32  17  20  1   
 33  17  21  1   
 34  17  34  1   
 35  19  22  3   
 36  20  35  1   
 37  20  36  1   
 38  20  37  1   
 39  21  38  1   
 40  21  39  1   
 41  21  40  1   
@<TRIPOS>SUBSTRUCTURE
  1 ****   8 GROUP 4 **** **** 0

# MOE 2024.06 (io_trps.svl 2023.06)
