@<TRIPOS>MOLECULE
1-(4-Methoxy-3-methyl-benzenesulfonyl)-piperidine-4-carboxylic acid (2-methoxy-1
54 55 1 0 0 
SMALL
USER_CHARGES


@<TRIPOS>ATOM
  1 S       -0.0980    -0.1860    -2.3300 S.o2  1 <1>   1.4470 
  2 O        0.3950    -1.3540    -3.0280 O.2   1 <1>  -0.6500 
  3 O       -0.7250     0.8810    -3.0830 O.2   1 <1>  -0.6500 
  4 N        1.2310     0.5100    -1.5350 N.am  1 <1>  -0.8490 
  5 C       -1.1640    -0.7140    -0.9610 C.ar  1 <1>  -0.0090 
  6 C        0.8730     1.7690    -0.8740 C.3   1 <1>   0.1960 
  7 C        2.3530     0.7010    -2.4580 C.3   1 <1>   0.1960 
  8 C       -2.3770    -0.0840    -0.7030 C.ar  1 <1>  -0.1500 
  9 C       -0.7790    -1.7490    -0.1190 C.ar  1 <1>  -0.1500 
 10 C        2.0480     2.2660    -0.0310 C.3   1 <1>  -0.1600 
 11 C        3.5920     1.1650    -1.6870 C.3   1 <1>  -0.1600 
 12 C       -3.1830    -0.4640     0.3570 C.ar  1 <1>  -0.1430 
 13 C       -1.5710    -2.1440     0.9440 C.ar  1 <1>  -0.1500 
 14 C        3.3080     2.4520    -0.8930 C.3   1 <1>  -0.0190 
 15 C       -2.7800    -1.5010     1.1920 C.ar  1 <1>   0.0830 
 16 C       -4.5030     0.2550     0.5990 C.3   1 <1>  -0.0970 
 17 C        4.5060     2.8950    -0.0590 C.2   1 <1>   0.5690 
 18 O       -3.5980    -1.8400     2.2210 O.3   1 <1>  -0.3630 
 19 O        4.9980     3.9750    -0.2730 O.2   1 <1>  -0.5700 
 20 N        4.9880     2.0660     0.9020 N.am  1 <1>  -0.7300 
 21 C       -3.2960    -2.9060     3.0940 C.3   1 <1>   0.0400 
 22 C        6.0660     2.4060     1.8520 C.3   1 <1>   0.2200 
 23 C        7.4310     2.3510     1.1440 C.3   1 <1>   0.1200 
 24 C        5.9590     1.4290     3.0230 C.3   1 <1>  -0.2400 
 25 O        8.4620     2.5560     2.0660 O.3   1 <1>  -0.5600 
 26 C        9.7260     2.6080     1.4910 C.3   1 <1>   0.0400 
 27 H        0.0240     1.6170    -0.2290 H     1 <1>   0.0800 
 28 H        0.6080     2.5120    -1.6100 H     1 <1>   0.0800 
 29 H        2.0890     1.4240    -3.2130 H     1 <1>   0.0800 
 30 H        2.5850    -0.2280    -2.9510 H     1 <1>   0.0800 
 31 H       -2.6910     0.7180    -1.3500 H     1 <1>   0.1500 
 32 H        0.1560    -2.2510    -0.3030 H     1 <1>   0.1500 
 33 H        2.2310     1.5550     0.7560 H     1 <1>   0.0800 
 34 H        1.7850     3.2040     0.4270 H     1 <1>   0.0800 
 35 H        4.3960     1.3400    -2.3790 H     1 <1>   0.0800 
 36 H        3.8950     0.3730    -1.0240 H     1 <1>   0.0800 
 37 H       -1.2300    -2.9500     1.5650 H     1 <1>   0.1500 
 38 H        3.1090     3.2370    -1.6020 H     1 <1>   0.0800 
 39 H       -4.6690     1.0260    -0.1310 H     1 <1>   0.0800 
 40 H       -4.5000     0.7020     1.5770 H     1 <1>   0.0800 
 41 H       -5.3140    -0.4490     0.5470 H     1 <1>   0.0800 
 42 H        4.5470     1.1590     1.0530 H     1 <1>   0.3700 
 43 H       -4.0950    -2.9890     3.8080 H     1 <1>   0.0800 
 44 H       -2.3730    -2.6890     3.6020 H     1 <1>   0.0800 
 45 H       -3.2200    -3.8140     2.5230 H     1 <1>   0.0800 
 46 H        5.9080     3.4130     2.2040 H     1 <1>   0.0800 
 47 H        7.4800     3.1260     0.3980 H     1 <1>   0.0800 
 48 H        7.5740     1.3880     0.6870 H     1 <1>   0.0800 
 49 H        6.1470     0.4220     2.6960 H     1 <1>   0.0800 
 50 H        4.9860     1.4920     3.4760 H     1 <1>   0.0800 
 51 H        6.6910     1.6820     3.7700 H     1 <1>   0.0800 
 52 H       10.4450     2.7610     2.2760 H     1 <1>   0.0800 
 53 H        9.7670     3.4310     0.7980 H     1 <1>   0.0800 
 54 H        9.9280     1.6780     0.9890 H     1 <1>   0.0800 
@<TRIPOS>BOND
  1   1   2  2   
  2   1   3  2   
  3   1   4  am  
  4   1   5  1   
  5   4   6  1   
  6   4   7  1   
  7   5   8  ar  
  8   5   9  ar  
  9   6  10  1   
 10   6  27  1   
 11   6  28  1   
 12   7  11  1   
 13   7  29  1   
 14   7  30  1   
 15   8  12  ar  
 16   8  31  1   
 17   9  13  ar  
 18   9  32  1   
 19  10  14  1   
 20  10  33  1   
 21  10  34  1   
 22  11  14  1   
 23  11  35  1   
 24  11  36  1   
 25  12  15  ar  
 26  12  16  1   
 27  13  15  ar  
 28  13  37  1   
 29  14  17  1   
 30  14  38  1   
 31  15  18  1   
 32  16  39  1   
 33  16  40  1   
 34  16  41  1   
 35  17  19  2   
 36  17  20  am  
 37  18  21  1   
 38  20  22  1   
 39  20  42  1   
 40  21  43  1   
 41  21  44  1   
 42  21  45  1   
 43  22  23  1   
 44  22  24  1   
 45  22  46  1   
 46  23  25  1   
 47  23  47  1   
 48  23  48  1   
 49  24  49  1   
 50  24  50  1   
 51  24  51  1   
 52  25  26  1   
 53  26  52  1   
 54  26  53  1   
 55  26  54  1   
@<TRIPOS>SUBSTRUCTURE
  1 ****   6 GROUP 4 **** **** 0

# MOE 2024.06 (io_trps.svl 2023.06)
