@<TRIPOS>MOLECULE
N-[1,3,4]Thiadiazol-2-yl-4-o-tolyloxy-butyramide
34 35 1 0 0 
SMALL
USER_CHARGES


@<TRIPOS>ATOM
  1 S        0.2570    -0.8430     0.0170 S.3   1 <1>  -0.0800 
  2 C        1.2990     0.5490     0.0350 C.2   1 <1>   0.4420 
  3 C        1.6850    -1.8180     0.0210 C.2   1 <1>   0.2280 
  4 N        2.5380     0.2190     0.0420 N.2   1 <1>  -0.3380 
  5 N        0.8160     1.8400     0.0400 N.am  1 <1>  -0.4940 
  6 N        2.7530    -1.1310     0.0340 N.2   1 <1>  -0.3380 
  7 C       -0.4010     2.4470     0.0350 C.2   1 <1>   0.5690 
  8 O       -0.4320     3.6490     0.0430 O.2   1 <1>  -0.5700 
  9 C       -1.7090     1.6610     0.0190 C.3   1 <1>  -0.0990 
 10 C       -2.9770     2.5360     0.0160 C.3   1 <1>  -0.1600 
 11 C       -4.2450     1.6810     0.0000 C.3   1 <1>   0.1200 
 12 O       -5.3560     2.5450    -0.0020 O.3   1 <1>  -0.3630 
 13 C       -6.6320     2.0720    -0.0150 C.ar  1 <1>   0.0820 
 14 C       -7.6650     3.0070    -0.0170 C.ar  1 <1>  -0.1430 
 15 C       -6.9350     0.7120    -0.0270 C.ar  1 <1>  -0.1500 
 16 C       -8.9810     2.5740    -0.0300 C.ar  1 <1>  -0.1500 
 17 C       -7.3590     4.4980    -0.0040 C.3   1 <1>  -0.0970 
 18 C       -8.2520     0.2910    -0.0410 C.ar  1 <1>  -0.1500 
 19 C       -9.2760     1.2220    -0.0420 C.ar  1 <1>  -0.1500 
 20 H        1.5710    -2.8870     0.0120 H     1 <1>   0.1500 
 21 H        1.5630     2.5330     0.0510 H     1 <1>   0.3700 
 22 H       -1.7320     1.0300     0.8890 H     1 <1>   0.0800 
 23 H       -1.7190     1.0430    -0.8590 H     1 <1>   0.0800 
 24 H       -2.9700     3.1720    -0.8530 H     1 <1>   0.0800 
 25 H       -2.9840     3.1590     0.8940 H     1 <1>   0.0800 
 26 H       -4.3010     1.0630     0.8800 H     1 <1>   0.0800 
 27 H       -4.2880     1.0760    -0.8890 H     1 <1>   0.0800 
 28 H       -6.1640    -0.0330    -0.0260 H     1 <1>   0.1500 
 29 H       -9.7860     3.2870    -0.0320 H     1 <1>   0.1500 
 30 H       -6.7780     4.7560    -0.8710 H     1 <1>   0.0800 
 31 H       -6.7920     4.7440     0.8760 H     1 <1>   0.0800 
 32 H       -8.2610     5.0810    -0.0070 H     1 <1>   0.0800 
 33 H       -8.4840    -0.7590    -0.0500 H     1 <1>   0.1500 
 34 H      -10.3010     0.8950    -0.0530 H     1 <1>   0.1500 
@<TRIPOS>BOND
  1   1   2  1   
  2   1   3  1   
  3   2   4  2   
  4   2   5  1   
  5   3   6  2   
  6   3  20  1   
  7   4   6  1   
  8   5   7  am  
  9   5  21  1   
 10   7   8  2   
 11   7   9  1   
 12   9  10  1   
 13   9  22  1   
 14   9  23  1   
 15  10  11  1   
 16  10  24  1   
 17  10  25  1   
 18  11  12  1   
 19  11  26  1   
 20  11  27  1   
 21  12  13  1   
 22  13  14  ar  
 23  13  15  ar  
 24  14  16  ar  
 25  14  17  1   
 26  15  18  ar  
 27  15  28  1   
 28  16  19  ar  
 29  16  29  1   
 30  17  30  1   
 31  17  31  1   
 32  17  32  1   
 33  18  19  ar  
 34  18  33  1   
 35  19  34  1   
@<TRIPOS>SUBSTRUCTURE
  1 ****  11 GROUP 4 **** **** 0

# MOE 2024.06 (io_trps.svl 2023.06)
