@<TRIPOS>MOLECULE
[8-(3,4-Dimethyl-phenyl)-1,6-dimethyl-2,4-dioxo-1,4,5,6,7,8-hexahydro-2H-1,3,4b,
59 62 1 0 0 
SMALL
USER_CHARGES


@<TRIPOS>ATOM
  1 O        1.0140    -0.0230    -1.6860 O.2   1 <1>  -0.5740 
  2 C        1.9110     0.7690    -1.4870 C.2   1 <1>   0.6870 
  3 N        1.6220     2.1210    -1.3660 N.am  1 <1>  -0.4250 
  4 N        3.2210     0.3230    -1.3740 N.am  1 <1>  -0.4410 
  5 C        2.6180     3.0520    -1.1260 C.2   1 <1>   0.7000 
  6 C        0.2040     2.5220    -1.0730 C.3   1 <1>   0.1950 
  7 C        4.1990     1.2510    -1.0710 C.2   1 <1>   0.4210 
  8 C        3.5460    -1.1290    -1.4950 C.3   1 <1>   0.0530 
  9 O        2.3550     4.2420    -1.0740 O.2   1 <1>  -0.5740 
 10 C        3.9540     2.5750    -0.9470 C.2   1 <1>   0.2720 
 11 C       -0.0870     2.4800     0.4240 C.2   1 <1>   0.6560 
 12 N        5.5250     1.0310    -0.8440 N.pl3 1 <1>  -0.7030 
 13 N        5.1850     3.1710    -0.6410 N.pl3 1 <1>  -0.7670 
 14 O        0.7840     2.2690     1.2350 O.2   1 <1>  -0.5740 
 15 O       -1.3470     2.6960     0.7730 O.3   1 <1>  -0.4350 
 16 C        6.0910     2.2060    -0.5780 C.cat 1 <1>   1.0690 
 17 C        5.4600     4.6000    -0.3840 C.3   1 <1>   0.3490 
 18 C       -1.7550     2.6810     2.1220 C.3   1 <1>   0.1140 
 19 N        7.3830     2.4250    -0.2770 N.pl3 1 <1>  -0.5790 
 20 C        6.9600     4.8720    -0.6010 C.3   1 <1>  -0.0870 
 21 C       -3.2530     2.9650     2.1660 C.3   1 <1>  -0.2460 
 22 C        8.3100     1.3870    -0.1710 C.ar  1 <1>   0.3060 
 23 C        7.8370     3.7990     0.0780 C.3   1 <1>   0.1620 
 24 C        7.3410     6.2730    -0.0990 C.3   1 <1>  -0.2460 
 25 C        8.2920     0.5420     0.9290 C.ar  1 <1>  -0.1560 
 26 C        9.2330     1.1640    -1.1810 C.ar  1 <1>  -0.1560 
 27 C        9.1670    -0.5270     1.0210 C.ar  1 <1>  -0.1500 
 28 C       10.1120     0.1010    -1.0950 C.ar  1 <1>  -0.1560 
 29 C       10.0830    -0.7500    -0.0010 C.ar  1 <1>  -0.1500 
 30 C        9.1110    -1.4300     2.2460 C.3   1 <1>  -0.1030 
 31 C       11.0680    -1.9100     0.0550 C.3   1 <1>  -0.1030 
 32 H       -0.4830     1.8660    -1.5770 H     1 <1>   0.0730 
 33 H        0.0210     3.5180    -1.4320 H     1 <1>   0.0730 
 34 H        2.8020    -1.6340    -2.0890 H     1 <1>   0.0730 
 35 H        3.5660    -1.5790    -0.5170 H     1 <1>   0.0730 
 36 H        4.5000    -1.2630    -1.9720 H     1 <1>   0.0730 
 37 H        6.0280     0.1470    -0.8480 H     1 <1>   0.4460 
 38 H        5.1800     4.8350     0.6300 H     1 <1>   0.0730 
 39 H        4.8750     5.2150    -1.0490 H     1 <1>   0.0730 
 40 H       -1.2030     3.4360     2.6550 H     1 <1>   0.0730 
 41 H       -1.5340     1.7110     2.5350 H     1 <1>   0.0730 
 42 H        7.1560     4.8450    -1.6590 H     1 <1>   0.0730 
 43 H       -3.4600     3.9310     1.7420 H     1 <1>   0.0730 
 44 H       -3.5910     2.9590     3.1860 H     1 <1>   0.0730 
 45 H       -3.7910     2.2090     1.6230 H     1 <1>   0.0730 
 46 H        8.8630     3.9300    -0.2250 H     1 <1>   0.0730 
 47 H        7.7900     3.9110     1.1490 H     1 <1>   0.0730 
 48 H        7.1720     6.3650     0.9600 H     1 <1>   0.0730 
 49 H        6.7580     7.0250    -0.6040 H     1 <1>   0.0730 
 50 H        8.3800     6.4720    -0.2960 H     1 <1>   0.0730 
 51 H        7.5910     0.7250     1.7230 H     1 <1>   0.1440 
 52 H        9.2660     1.8150    -2.0350 H     1 <1>   0.1440 
 53 H       10.8250    -0.0620    -1.8860 H     1 <1>   0.1440 
 54 H        8.3230    -1.1340     2.9160 H     1 <1>   0.0730 
 55 H       10.0420    -1.3810     2.7810 H     1 <1>   0.0730 
 56 H        8.9350    -2.4490     1.9500 H     1 <1>   0.0730 
 57 H       11.6890    -1.8250     0.9290 H     1 <1>   0.0730 
 58 H       11.7070    -1.9180    -0.8100 H     1 <1>   0.0730 
 59 H       10.5390    -2.8450     0.0900 H     1 <1>   0.0730 
@<TRIPOS>BOND
  1   1   2  2   
  2   2   3  am  
  3   2   4  am  
  4   3   5  am  
  5   3   6  1   
  6   4   7  1   
  7   4   8  1   
  8   5   9  2   
  9   5  10  1   
 10   6  11  1   
 11   6  32  1   
 12   6  33  1   
 13   7  10  2   
 14   7  12  1   
 15   8  34  1   
 16   8  35  1   
 17   8  36  1   
 18  10  13  1   
 19  11  14  2   
 20  11  15  1   
 21  12  16  ar  
 22  12  37  1   
 23  13  16  ar  
 24  13  17  1   
 25  15  18  1   
 26  16  19  ar  
 27  17  20  1   
 28  17  38  1   
 29  17  39  1   
 30  18  21  1   
 31  18  40  1   
 32  18  41  1   
 33  19  22  1   
 34  19  23  1   
 35  20  23  1   
 36  20  24  1   
 37  20  42  1   
 38  21  43  1   
 39  21  44  1   
 40  21  45  1   
 41  22  25  ar  
 42  22  26  ar  
 43  23  46  1   
 44  23  47  1   
 45  24  48  1   
 46  24  49  1   
 47  24  50  1   
 48  25  27  ar  
 49  25  51  1   
 50  26  28  ar  
 51  26  52  1   
 52  27  29  ar  
 53  27  30  1   
 54  28  29  ar  
 55  28  53  1   
 56  29  31  1   
 57  30  54  1   
 58  30  55  1   
 59  30  56  1   
 60  31  57  1   
 61  31  58  1   
 62  31  59  1   
@<TRIPOS>SUBSTRUCTURE
  1 ****   7 GROUP 4 **** **** 0

# MOE 2024.06 (io_trps.svl 2023.06)
