@<TRIPOS>MOLECULE
8-Cyclohexyl-3-(4-fluoro-benzyl)-1,7-dimethyl-1H,8H-imidazo[2,1-f]purine-2,4-dio
55 59 1 0 0 
SMALL
USER_CHARGES


@<TRIPOS>ATOM
  1 F        3.0850    -1.5180    -3.0760 F     1 <1>  -0.1960 
  2 C        3.7230    -1.0660    -2.0310 C.ar  1 <1>   0.1840 
  3 C        3.6040    -1.7420    -0.8320 C.ar  1 <1>  -0.1570 
  4 C        4.4950     0.0720    -2.1620 C.ar  1 <1>  -0.1570 
  5 C        4.2860    -1.2580     0.2720 C.ar  1 <1>  -0.1570 
  6 C        5.1720     0.5470    -1.0510 C.ar  1 <1>  -0.1570 
  7 C        5.0710    -0.1160     0.1680 C.ar  1 <1>  -0.1500 
  8 C        5.8230     0.4030     1.3840 C.3   1 <1>   0.2780 
  9 N        7.1360    -0.2910     1.4670 N.am  1 <1>  -0.4250 
 10 C        7.2260    -1.4870     2.1660 C.2   1 <1>   0.6870 
 11 C        8.1970     0.1910     0.7190 C.2   1 <1>   0.7000 
 12 O        6.3160    -1.8430     2.8870 O.2   1 <1>  -0.5740 
 13 N        8.3660    -2.2760     2.0550 N.am  1 <1>  -0.4410 
 14 O        8.1420     1.2800     0.1720 O.2   1 <1>  -0.5740 
 15 C        9.3640    -0.6230     0.6260 C.2   1 <1>   0.2710 
 16 C        9.4110    -1.8060     1.2840 C.2   1 <1>   0.4210 
 17 C        8.4550    -3.5850     2.7700 C.3   1 <1>   0.0530 
 18 N       10.5960    -0.4910    -0.0310 N.pl3 1 <1>  -0.6330 
 19 N       10.6210    -2.4010     1.0580 N.pl3 1 <1>  -0.7030 
 20 C       11.3060    -1.5730     0.2560 C.cat 1 <1>   1.0690 
 21 C       11.3800     0.2990    -0.8450 C.2   1 <1>   0.2230 
 22 N       12.5130    -1.5470    -0.3210 N.pl3 1 <1>  -0.5710 
 23 C       12.5550    -0.3430    -1.0270 C.2   1 <1>   0.1580 
 24 C       13.5290    -2.6160    -0.1260 C.3   1 <1>   0.2420 
 25 C       13.7280     0.1480    -1.8590 C.3   1 <1>  -0.1090 
 26 C       14.6830    -2.1280     0.7590 C.3   1 <1>  -0.1670 
 27 C       14.0330    -3.1960    -1.4520 C.3   1 <1>  -0.1670 
 28 C       15.6800    -3.2670     1.0170 C.3   1 <1>  -0.1670 
 29 C       15.0190    -4.3440    -1.1900 C.3   1 <1>  -0.1670 
 30 C       16.1800    -3.8800    -0.2990 C.3   1 <1>  -0.1670 
 31 H        2.9910    -2.6220    -0.7680 H     1 <1>   0.1430 
 32 H        4.5610     0.5720    -3.1110 H     1 <1>   0.1430 
 33 H        4.2000    -1.7760     1.2140 H     1 <1>   0.1430 
 34 H        5.7750     1.4350    -1.1410 H     1 <1>   0.1430 
 35 H        5.2450     0.2280     2.2750 H     1 <1>   0.0730 
 36 H        5.9680     1.4670     1.3030 H     1 <1>   0.0730 
 37 H        7.4710    -3.9860     2.9450 H     1 <1>   0.0730 
 38 H        8.9420    -3.4470     3.7200 H     1 <1>   0.0730 
 39 H        9.0040    -4.2990     2.1830 H     1 <1>   0.0730 
 40 H       10.9640    -3.2870     1.4220 H     1 <1>   0.4450 
 41 H       11.0410     1.2500    -1.2290 H     1 <1>   0.1430 
 42 H       13.0590    -3.4290     0.4010 H     1 <1>   0.0730 
 43 H       13.8530    -0.4650    -2.7320 H     1 <1>   0.0730 
 44 H       14.6370     0.1440    -1.2890 H     1 <1>   0.0730 
 45 H       13.5490     1.1560    -2.1890 H     1 <1>   0.0730 
 46 H       14.3040    -1.7750     1.7020 H     1 <1>   0.0730 
 47 H       15.2090    -1.3240     0.2800 H     1 <1>   0.0730 
 48 H       14.5520    -2.4490    -2.0200 H     1 <1>   0.0730 
 49 H       13.2070    -3.5650    -2.0350 H     1 <1>   0.0730 
 50 H       15.2110    -4.0350     1.6090 H     1 <1>   0.0730 
 51 H       16.5200    -2.8920     1.5770 H     1 <1>   0.0730 
 52 H       15.4100    -4.7050    -2.1270 H     1 <1>   0.0730 
 53 H       14.5080    -5.1630    -0.7130 H     1 <1>   0.0730 
 54 H       16.8230    -4.7160    -0.0840 H     1 <1>   0.0730 
 55 H       16.7660    -3.1490    -0.8310 H     1 <1>   0.0730 
@<TRIPOS>BOND
  1   1   2  1   
  2   2   3  ar  
  3   2   4  ar  
  4   3   5  ar  
  5   3  31  1   
  6   4   6  ar  
  7   4  32  1   
  8   5   7  ar  
  9   5  33  1   
 10   6   7  ar  
 11   6  34  1   
 12   7   8  1   
 13   8   9  1   
 14   8  35  1   
 15   8  36  1   
 16   9  10  am  
 17   9  11  am  
 18  10  12  2   
 19  10  13  am  
 20  11  14  2   
 21  11  15  1   
 22  13  16  1   
 23  13  17  1   
 24  15  16  2   
 25  15  18  1   
 26  16  19  1   
 27  17  37  1   
 28  17  38  1   
 29  17  39  1   
 30  18  20  ar  
 31  18  21  1   
 32  19  20  ar  
 33  19  40  1   
 34  20  22  ar  
 35  21  23  2   
 36  21  41  1   
 37  22  23  1   
 38  22  24  1   
 39  23  25  1   
 40  24  26  1   
 41  24  27  1   
 42  24  42  1   
 43  25  43  1   
 44  25  44  1   
 45  25  45  1   
 46  26  28  1   
 47  26  46  1   
 48  26  47  1   
 49  27  29  1   
 50  27  48  1   
 51  27  49  1   
 52  28  30  1   
 53  28  50  1   
 54  28  51  1   
 55  29  30  1   
 56  29  52  1   
 57  29  53  1   
 58  30  54  1   
 59  30  55  1   
@<TRIPOS>SUBSTRUCTURE
  1 ****  15 GROUP 4 **** **** 0

# MOE 2024.06 (io_trps.svl 2023.06)
