@<TRIPOS>MOLECULE
Benzyl-methyl-piperidin-4-yl-amine
37 38 1 0 0 
SMALL
USER_CHARGES


@<TRIPOS>ATOM
  1 N       -0.2440    -0.0620     0.0570 N.4   1 <1>  -0.9590 
  2 C        1.0080     0.6810    -0.3110 C.3   1 <1>   0.4230 
  3 C       -0.5320    -1.2530    -0.8110 C.3   1 <1>   0.4860 
  4 C       -1.4820     0.7980     0.0940 C.3   1 <1>   0.2630 
  5 C        2.2340    -0.2450    -0.2080 C.3   1 <1>  -0.1600 
  6 C        1.2060     1.8970     0.6120 C.3   1 <1>  -0.1600 
  7 C       -1.5580    -2.1150    -0.1060 C.ar  1 <1>  -0.1430 
  8 C        3.5490     0.5010    -0.4600 C.3   1 <1>   0.3430 
  9 C        2.5310     2.6180     0.3500 C.3   1 <1>   0.3430 
 10 C       -2.8680    -2.1590    -0.5650 C.ar  1 <1>  -0.1500 
 11 C       -1.1990    -2.8630     1.0070 C.ar  1 <1>  -0.1500 
 12 N        3.6600     1.6610     0.4610 N.4   1 <1>  -0.9060 
 13 C       -3.8100    -2.9300     0.0930 C.ar  1 <1>  -0.1500 
 14 C       -2.1430    -3.6320     1.6630 C.ar  1 <1>  -0.1500 
 15 C       -3.4490    -3.6640     1.2080 C.ar  1 <1>  -0.1500 
 16 H       -0.1450    -0.4560     1.0040 H     1 <1>   0.4500 
 17 H        0.9210     1.0320    -1.3280 H     1 <1>   0.0800 
 18 H        0.3530    -1.8460    -0.9630 H     1 <1>   0.0800 
 19 H       -0.9060    -0.9420    -1.7730 H     1 <1>   0.0800 
 20 H       -1.6730     1.2320    -0.8750 H     1 <1>   0.0800 
 21 H       -1.3790     1.5900     0.8170 H     1 <1>   0.0800 
 22 H       -2.3410     0.2090     0.3770 H     1 <1>   0.0800 
 23 H        2.1780    -1.0250    -0.9450 H     1 <1>   0.0800 
 24 H        2.2780    -0.7040     0.7640 H     1 <1>   0.0800 
 25 H        1.1730     1.5950     1.6440 H     1 <1>   0.0800 
 26 H        0.4250     2.6170     0.4490 H     1 <1>   0.0800 
 27 H        3.5820     0.8450    -1.4820 H     1 <1>   0.0800 
 28 H        4.3820    -0.1700    -0.3100 H     1 <1>   0.0800 
 29 H        2.6560     3.4200     1.0620 H     1 <1>   0.0800 
 30 H        2.5190     3.0530    -0.6390 H     1 <1>   0.0800 
 31 H       -3.1750    -1.6040    -1.4350 H     1 <1>   0.1500 
 32 H       -0.1890    -2.8700     1.3790 H     1 <1>   0.1500 
 33 H        4.5430     2.1610     0.2640 H     1 <1>   0.4500 
 34 H        3.7550     1.3350     1.4350 H     1 <1>   0.4500 
 35 H       -4.8270    -2.9650    -0.2620 H     1 <1>   0.1500 
 36 H       -1.8680    -4.2140     2.5270 H     1 <1>   0.1500 
 37 H       -4.1830    -4.2640     1.7190 H     1 <1>   0.1500 
@<TRIPOS>BOND
  1   1   2  1   
  2   1   3  1   
  3   1   4  1   
  4   1  16  1   
  5   2   5  1   
  6   2   6  1   
  7   2  17  1   
  8   3   7  1   
  9   3  18  1   
 10   3  19  1   
 11   4  20  1   
 12   4  21  1   
 13   4  22  1   
 14   5   8  1   
 15   5  23  1   
 16   5  24  1   
 17   6   9  1   
 18   6  25  1   
 19   6  26  1   
 20   7  10  ar  
 21   7  11  ar  
 22   8  12  1   
 23   8  27  1   
 24   8  28  1   
 25   9  12  1   
 26   9  29  1   
 27   9  30  1   
 28  10  13  ar  
 29  10  31  1   
 30  11  14  ar  
 31  11  32  1   
 32  12  33  1   
 33  12  34  1   
 34  13  15  ar  
 35  13  35  1   
 36  14  15  ar  
 37  14  36  1   
 38  15  37  1   
@<TRIPOS>SUBSTRUCTURE
  1 ****   1 GROUP 4 **** **** 0

# MOE 2024.06 (io_trps.svl 2023.06)
