@<TRIPOS>MOLECULE
1-(2,5-Dimethoxy-benzenesulfonyl)-piperidine-4-carboxylic acid (pyridin-3-ylmeth
54 56 1 0 0 
SMALL
USER_CHARGES


@<TRIPOS>ATOM
  1 S       -0.0140    -0.7180    -1.3990 S.o2  1 <1>   1.4470 
  2 O        0.1510    -2.0990    -1.8050 O.2   1 <1>  -0.6500 
  3 O       -0.0720     0.2800    -2.4470 O.2   1 <1>  -0.6500 
  4 N        1.3370    -0.3420    -0.4420 N.am  1 <1>  -0.8490 
  5 C       -1.4260    -0.6450    -0.2600 C.ar  1 <1>  -0.0090 
  6 C        1.3410     1.0650    -0.0240 C.3   1 <1>   0.1960 
  7 C        2.5770    -0.7010    -1.1370 C.3   1 <1>   0.1960 
  8 C       -2.1430     0.5270    -0.0280 C.ar  1 <1>   0.0820 
  9 C       -1.8130    -1.7870     0.4320 C.ar  1 <1>  -0.1500 
 10 C        2.5150     1.3460     0.9160 C.3   1 <1>  -0.1600 
 11 C        3.7910    -0.4730    -0.2330 C.3   1 <1>  -0.1600 
 12 O       -1.7970     1.6810    -0.6360 O.3   1 <1>  -0.3620 
 13 C       -3.2110     0.5530     0.8570 C.ar  1 <1>  -0.1500 
 14 C       -2.8870    -1.7740     1.3170 C.ar  1 <1>   0.0820 
 15 C        3.8560     0.9810     0.2580 C.3   1 <1>  -0.0190 
 16 C       -2.6060     2.0850    -1.7190 C.3   1 <1>   0.0400 
 17 C       -3.5830    -0.5970     1.5250 C.ar  1 <1>  -0.1500 
 18 O       -3.3080    -2.8630     2.0100 O.3   1 <1>  -0.3630 
 19 C        5.0360     1.2040     1.2020 C.2   1 <1>   0.5690 
 20 C       -2.6640    -4.1110     1.8730 C.3   1 <1>   0.0400 
 21 O        5.0630     0.6530     2.2760 O.2   1 <1>  -0.5700 
 22 N        6.0420     2.0200     0.8060 N.am  1 <1>  -0.7300 
 23 C        7.2650     2.2700     1.5880 C.3   1 <1>   0.2840 
 24 C        8.4120     2.4550     0.6160 C.ar  1 <1>  -0.1430 
 25 C        9.0570     1.3480     0.0850 C.ar  1 <1>   0.1600 
 26 C        8.8290     3.7160     0.2360 C.ar  1 <1>  -0.1500 
 27 N       10.0620     1.3970    -0.7750 N.ar  1 <1>  -0.6200 
 28 C        9.8770     3.7840    -0.6580 C.ar  1 <1>  -0.1500 
 29 C       10.4490     2.6130    -1.1240 C.ar  1 <1>   0.1600 
 30 H        0.4300     1.2900     0.5030 H     1 <1>   0.0800 
 31 H        1.3970     1.7070    -0.8890 H     1 <1>   0.0800 
 32 H        2.6710    -0.1180    -2.0390 H     1 <1>   0.0800 
 33 H        2.5510    -1.7420    -1.4130 H     1 <1>   0.0800 
 34 H       -1.2560    -2.6900     0.2640 H     1 <1>   0.1500 
 35 H        2.3820     0.7730     1.8180 H     1 <1>   0.0800 
 36 H        2.5140     2.3870     1.1860 H     1 <1>   0.0800 
 37 H        4.6880    -0.7150    -0.7730 H     1 <1>   0.0800 
 38 H        3.7260    -1.1410     0.6100 H     1 <1>   0.0800 
 39 H       -3.7430     1.4730     1.0260 H     1 <1>   0.1500 
 40 H        3.9870     1.6160    -0.5990 H     1 <1>   0.0800 
 41 H       -2.1890     2.9850    -2.1320 H     1 <1>   0.0800 
 42 H       -3.6050     2.2680    -1.3660 H     1 <1>   0.0800 
 43 H       -2.6060     1.3080    -2.4640 H     1 <1>   0.0800 
 44 H       -4.4110    -0.5900     2.2120 H     1 <1>   0.1500 
 45 H       -3.1670    -4.8170     2.5080 H     1 <1>   0.0800 
 46 H       -1.6380    -4.0100     2.1780 H     1 <1>   0.0800 
 47 H       -2.7330    -4.4290     0.8470 H     1 <1>   0.0800 
 48 H        6.0320     2.4550    -0.1170 H     1 <1>   0.3700 
 49 H        7.4620     1.4400     2.2470 H     1 <1>   0.0800 
 50 H        7.1320     3.1550     2.1870 H     1 <1>   0.0800 
 51 H        8.7270     0.3670     0.3820 H     1 <1>   0.1500 
 52 H        8.3630     4.6090     0.6160 H     1 <1>   0.1500 
 53 H       10.2500     4.7350    -0.9920 H     1 <1>   0.1500 
 54 H       11.2670     2.6800    -1.8210 H     1 <1>   0.1500 
@<TRIPOS>BOND
  1   1   2  2   
  2   1   3  2   
  3   1   4  am  
  4   1   5  1   
  5   4   6  1   
  6   4   7  1   
  7   5   8  ar  
  8   5   9  ar  
  9   6  10  1   
 10   6  30  1   
 11   6  31  1   
 12   7  11  1   
 13   7  32  1   
 14   7  33  1   
 15   8  12  1   
 16   8  13  ar  
 17   9  14  ar  
 18   9  34  1   
 19  10  15  1   
 20  10  35  1   
 21  10  36  1   
 22  11  15  1   
 23  11  37  1   
 24  11  38  1   
 25  12  16  1   
 26  13  17  ar  
 27  13  39  1   
 28  14  17  ar  
 29  14  18  1   
 30  15  19  1   
 31  15  40  1   
 32  16  41  1   
 33  16  42  1   
 34  16  43  1   
 35  17  44  1   
 36  18  20  1   
 37  19  21  2   
 38  19  22  am  
 39  20  45  1   
 40  20  46  1   
 41  20  47  1   
 42  22  23  1   
 43  22  48  1   
 44  23  24  1   
 45  23  49  1   
 46  23  50  1   
 47  24  25  ar  
 48  24  26  ar  
 49  25  27  ar  
 50  25  51  1   
 51  26  28  ar  
 52  26  52  1   
 53  27  29  ar  
 54  28  29  ar  
 55  28  53  1   
 56  29  54  1   
@<TRIPOS>SUBSTRUCTURE
  1 ****  10 GROUP 4 **** **** 0

# MOE 2024.06 (io_trps.svl 2023.06)
