@<TRIPOS>MOLECULE
1-Cyclopropyl-4-hydroxy-2-oxo-1,2,5,6,7,8-hexahydro-quinoline-3-carboxylic acid
45 48 1 0 0 
SMALL
USER_CHARGES


@<TRIPOS>ATOM
  1 O       -0.3340     0.2650     0.8780 O.3   1 <1>  -0.8500 
  2 C       -1.3450     0.8990     0.5600 C.2   1 <1>  -0.0500 
  3 N       -2.5190     0.1850     0.3060 N.pl3 1 <1>  -0.3690 
  4 C       -1.3340     2.3180     0.4770 C.2   1 <1>   0.0290 
  5 C       -3.7450     0.8510     0.3020 C.2   1 <1>  -0.0380 
  6 C       -2.4240    -1.2970     0.1470 C.3   1 <1>   0.0690 
  7 C       -2.5550     2.9620     0.1920 C.2   1 <1>   0.5410 
  8 C       -0.1420     3.0640     0.6660 C.2   1 <1>   0.6160 
  9 C       -3.7730     2.2090     0.2600 C.2   1 <1>  -0.1240 
 10 C       -5.0300     0.0210     0.3980 C.3   1 <1>  -0.0220 
 11 C       -1.4280    -1.8740    -0.8180 C.3   1 <1>  -0.2000 
 12 C       -2.8820    -1.9450    -1.1300 C.3   1 <1>  -0.2000 
 13 O       -2.6350     4.1550    -0.1520 O.2   1 <1>  -0.5700 
 14 O       -0.1260     4.2330     1.0580 O.2   1 <1>  -0.5700 
 15 N        1.0740     2.4690     0.4350 N.am  1 <1>  -0.5470 
 16 C       -5.0800     3.0040     0.2920 C.3   1 <1>  -0.0220 
 17 C       -6.3070     0.8260     0.1300 C.3   1 <1>  -0.1600 
 18 C        2.3530     2.9810     0.4780 C.ar  1 <1>   0.4270 
 19 C       -6.2540     2.1830     0.8310 C.3   1 <1>  -0.1600 
 20 N        3.1860     2.3150     1.2700 N.ar  1 <1>  -0.6200 
 21 C        2.7470     4.0930    -0.2860 C.ar  1 <1>  -0.1430 
 22 C        4.4190     2.7760     1.3490 C.ar  1 <1>   0.1600 
 23 C        4.0420     4.5540    -0.1840 C.ar  1 <1>  -0.1500 
 24 C        1.8020     4.8100    -1.2460 C.3   1 <1>  -0.0970 
 25 C        4.8940     3.8750     0.6610 C.ar  1 <1>  -0.1500 
 26 H       -2.5140    -1.8030     1.0920 H     1 <1>   0.1000 
 27 H       -5.0720    -0.4000     1.3870 H     1 <1>   0.0800 
 28 H       -5.0180    -0.7890    -0.3020 H     1 <1>   0.0800 
 29 H       -0.8980    -2.7530    -0.5030 H     1 <1>   0.1000 
 30 H       -0.7900    -1.1650    -1.3160 H     1 <1>   0.1000 
 31 H       -3.2550    -1.3180    -1.9190 H     1 <1>   0.1000 
 32 H       -3.3670    -2.9020    -1.0820 H     1 <1>   0.1000 
 33 H        0.9670     1.4490     0.6050 H     1 <1>   0.3700 
 34 H       -5.2950     3.3440    -0.7060 H     1 <1>   0.0800 
 35 H       -4.9580     3.8740     0.9150 H     1 <1>   0.0800 
 36 H       -7.1620     0.2680     0.4690 H     1 <1>   0.0800 
 37 H       -6.4080     0.9810    -0.9300 H     1 <1>   0.0800 
 38 H       -7.1730     2.7190     0.6720 H     1 <1>   0.0800 
 39 H       -6.1280     2.0340     1.8900 H     1 <1>   0.0800 
 40 H        5.0890     2.2440     2.0020 H     1 <1>   0.1500 
 41 H        4.3820     5.4090    -0.7400 H     1 <1>   0.1500 
 42 H        1.1310     4.1090    -1.7100 H     1 <1>   0.0800 
 43 H        2.3510     5.3100    -2.0220 H     1 <1>   0.0800 
 44 H        1.2220     5.5380    -0.7100 H     1 <1>   0.0800 
 45 H        5.9130     4.1920     0.7810 H     1 <1>   0.1500 
@<TRIPOS>BOND
  1   1   2  1   
  2   2   3  1   
  3   2   4  2   
  4   3   5  1   
  5   3   6  1   
  6   4   7  1   
  7   4   8  1   
  8   5   9  2   
  9   5  10  1   
 10   6  11  1   
 11   6  12  1   
 12   6  26  1   
 13   7   9  1   
 14   7  13  2   
 15   8  14  2   
 16   8  15  am  
 17   9  16  1   
 18  10  17  1   
 19  10  27  1   
 20  10  28  1   
 21  11  12  1   
 22  11  29  1   
 23  11  30  1   
 24  12  31  1   
 25  12  32  1   
 26  15  18  1   
 27  15  33  1   
 28  16  19  1   
 29  16  34  1   
 30  16  35  1   
 31  17  19  1   
 32  17  36  1   
 33  17  37  1   
 34  18  20  ar  
 35  18  21  ar  
 36  19  38  1   
 37  19  39  1   
 38  20  22  ar  
 39  21  23  ar  
 40  21  24  1   
 41  22  25  ar  
 42  22  40  1   
 43  23  25  ar  
 44  23  41  1   
 45  24  42  1   
 46  24  43  1   
 47  24  44  1   
 48  25  45  1   
@<TRIPOS>SUBSTRUCTURE
  1 ****   4 GROUP 4 **** **** 0

# MOE 2024.06 (io_trps.svl 2023.06)
