@<TRIPOS>MOLECULE
1-(4-Methoxy-3-methyl-benzenesulfonyl)-piperidine-4-carboxylic acid benzyl-methy
57 59 1 0 0 
SMALL
USER_CHARGES


@<TRIPOS>ATOM
  1 S        0.1240    -0.3580    -2.0550 S.o2  1 <1>   1.4470 
  2 O        0.6150    -1.5240    -2.7560 O.2   1 <1>  -0.6500 
  3 O       -0.5470     0.6890    -2.7980 O.2   1 <1>  -0.6500 
  4 N        1.4620     0.3710    -1.3090 N.am  1 <1>  -0.8490 
  5 C       -0.8900    -0.8910    -0.6480 C.ar  1 <1>  -0.0090 
  6 C        1.0990     1.6280    -0.6470 C.3   1 <1>   0.1960 
  7 C        2.5450     0.5860    -2.2740 C.3   1 <1>   0.1960 
  8 C       -2.1210    -0.3050    -0.3790 C.ar  1 <1>  -0.1500 
  9 C       -0.4450    -1.8880     0.2110 C.ar  1 <1>  -0.1500 
 10 C        2.2800     2.1510     0.1720 C.3   1 <1>  -0.1600 
 11 C        3.8080     1.0560    -1.5510 C.3   1 <1>  -0.1600 
 12 C       -2.8890    -0.6900     0.7080 C.ar  1 <1>  -0.1430 
 13 C       -1.1980    -2.2880     1.3000 C.ar  1 <1>  -0.1500 
 14 C        3.5330     2.3170    -0.7090 C.3   1 <1>  -0.0190 
 15 C       -2.4270    -1.6900     1.5580 C.ar  1 <1>   0.0820 
 16 C       -4.2320    -0.0200     0.9610 C.3   1 <1>  -0.0970 
 17 C        4.7530     2.8610     0.0480 C.2   1 <1>   0.5690 
 18 O       -3.2100    -2.0370     2.6120 O.3   1 <1>  -0.3630 
 19 O        5.0640     3.9970    -0.2270 O.2   1 <1>  -0.5700 
 20 N        5.4740     2.1430     0.9770 N.am  1 <1>  -0.6600 
 21 C       -2.8480    -3.0690     3.5010 C.3   1 <1>   0.0400 
 22 C        6.7210     2.7250     1.5570 C.3   1 <1>   0.2840 
 23 C        5.2210     0.7440     1.4320 C.3   1 <1>   0.0600 
 24 C        7.9370     1.9690     1.0420 C.ar  1 <1>  -0.1430 
 25 C        8.2930     2.0690    -0.2950 C.ar  1 <1>  -0.1500 
 26 C        8.6990     1.1800     1.8910 C.ar  1 <1>  -0.1500 
 27 C        9.3960     1.3870    -0.7790 C.ar  1 <1>  -0.1500 
 28 C        9.8030     0.4980     1.4080 C.ar  1 <1>  -0.1500 
 29 C       10.1520     0.6010     0.0730 C.ar  1 <1>  -0.1500 
 30 H        0.2650     1.4680     0.0150 H     1 <1>   0.0800 
 31 H        0.8070     2.3620    -1.3820 H     1 <1>   0.0800 
 32 H        2.2410     1.3120    -3.0110 H     1 <1>   0.0800 
 33 H        2.7690    -0.3360    -2.7870 H     1 <1>   0.0800 
 34 H       -2.4810     0.4680    -1.0370 H     1 <1>   0.1500 
 35 H        0.5070    -2.3550     0.0190 H     1 <1>   0.1500 
 36 H        2.4550     1.4770     0.9860 H     1 <1>   0.0800 
 37 H        2.0190     3.1050     0.5960 H     1 <1>   0.0800 
 38 H        4.5710     1.2730    -2.2770 H     1 <1>   0.0800 
 39 H        4.1630     0.2450    -0.9480 H     1 <1>   0.0800 
 40 H       -0.8110    -3.0640     1.9330 H     1 <1>   0.1500 
 41 H        3.2790     3.0820    -1.4230 H     1 <1>   0.0800 
 42 H       -4.4450     0.7260     0.2160 H     1 <1>   0.0800 
 43 H       -4.2280     0.4510     1.9280 H     1 <1>   0.0800 
 44 H       -5.0150    -0.7570     0.9420 H     1 <1>   0.0800 
 45 H       -3.6290    -3.1680     4.2330 H     1 <1>   0.0800 
 46 H       -1.9250    -2.8050     3.9860 H     1 <1>   0.0800 
 47 H       -2.7470    -3.9860     2.9490 H     1 <1>   0.0800 
 48 H        6.6730     2.6660     2.6300 H     1 <1>   0.0800 
 49 H        6.8230     3.7660     1.3010 H     1 <1>   0.0800 
 50 H        4.2290     0.4160     1.1980 H     1 <1>   0.0800 
 51 H        5.3500     0.6800     2.4990 H     1 <1>   0.0800 
 52 H        5.9250     0.0800     0.9590 H     1 <1>   0.0800 
 53 H        7.7050     2.6800    -0.9590 H     1 <1>   0.1500 
 54 H        8.4380     1.0920     2.9300 H     1 <1>   0.1500 
 55 H        9.6640     1.4700    -1.8180 H     1 <1>   0.1500 
 56 H       10.3920    -0.1120     2.0700 H     1 <1>   0.1500 
 57 H       11.0110     0.0720    -0.3030 H     1 <1>   0.1500 
@<TRIPOS>BOND
  1   1   2  2   
  2   1   3  2   
  3   1   4  am  
  4   1   5  1   
  5   4   6  1   
  6   4   7  1   
  7   5   8  ar  
  8   5   9  ar  
  9   6  10  1   
 10   6  30  1   
 11   6  31  1   
 12   7  11  1   
 13   7  32  1   
 14   7  33  1   
 15   8  12  ar  
 16   8  34  1   
 17   9  13  ar  
 18   9  35  1   
 19  10  14  1   
 20  10  36  1   
 21  10  37  1   
 22  11  14  1   
 23  11  38  1   
 24  11  39  1   
 25  12  15  ar  
 26  12  16  1   
 27  13  15  ar  
 28  13  40  1   
 29  14  17  1   
 30  14  41  1   
 31  15  18  1   
 32  16  42  1   
 33  16  43  1   
 34  16  44  1   
 35  17  19  2   
 36  17  20  am  
 37  18  21  1   
 38  20  22  1   
 39  20  23  1   
 40  21  45  1   
 41  21  46  1   
 42  21  47  1   
 43  22  24  1   
 44  22  48  1   
 45  22  49  1   
 46  23  50  1   
 47  23  51  1   
 48  23  52  1   
 49  24  25  ar  
 50  24  26  ar  
 51  25  27  ar  
 52  25  53  1   
 53  26  28  ar  
 54  26  54  1   
 55  27  29  ar  
 56  27  55  1   
 57  28  29  ar  
 58  28  56  1   
 59  29  57  1   
@<TRIPOS>SUBSTRUCTURE
  1 ****  10 GROUP 4 **** **** 0

# MOE 2024.06 (io_trps.svl 2023.06)
