@<TRIPOS>MOLECULE
N-(1-Methyl-2-morpholin-4-yl-2-oxo-ethyl)-N-p-tolyl-methanesulfonamide
44 45 1 0 0 
SMALL
USER_CHARGES


@<TRIPOS>ATOM
  1 S        0.6020    -0.3460    -0.3020 S.o2  1 <1>   1.3330 
  2 O        1.2600    -0.2110     0.9740 O.2   1 <1>  -0.6500 
  3 O        1.2880    -0.9890    -1.3960 O.2   1 <1>  -0.6500 
  4 N        0.1800     1.2380    -0.8420 N.am  1 <1>  -0.6930 
  5 C       -0.9880    -1.1200    -0.0990 C.3   1 <1>  -0.1350 
  6 C       -0.6830     2.0330    -0.0930 C.ar  1 <1>   0.1990 
  7 C        1.1540     1.9000    -1.7670 C.3   1 <1>   0.3370 
  8 C       -1.9240     2.3870    -0.6080 C.ar  1 <1>  -0.1500 
  9 C       -0.3450     2.4750     1.1810 C.ar  1 <1>  -0.1500 
 10 C        1.8060     3.1810    -1.1760 C.2   1 <1>   0.5690 
 11 C        0.4470     2.1390    -3.1090 C.3   1 <1>  -0.2400 
 12 C       -2.8050     3.1570     0.1290 C.ar  1 <1>  -0.1500 
 13 C       -1.2240     3.2440     1.9210 C.ar  1 <1>  -0.1500 
 14 O        1.3450     4.2570    -1.4940 O.2   1 <1>  -0.5700 
 15 N        2.8860     3.1150    -0.3210 N.am  1 <1>  -0.6600 
 16 C       -2.4590     3.5910     1.3990 C.ar  1 <1>  -0.1430 
 17 C        3.4200     4.3420     0.3450 C.3   1 <1>   0.1400 
 18 C        3.6190     1.8780     0.0970 C.3   1 <1>   0.1400 
 19 C       -3.4230     4.4370     2.2100 C.3   1 <1>  -0.0970 
 20 C        3.5320     4.1260     1.8620 C.3   1 <1>   0.1200 
 21 C        3.7390     1.8000     1.6290 C.3   1 <1>   0.1200 
 22 O        4.2870     2.9820     2.1440 O.3   1 <1>  -0.5600 
 23 H       -0.8640    -2.1390     0.2120 H     1 <1>   0.0800 
 24 H       -1.5270    -1.1060    -1.0260 H     1 <1>   0.0800 
 25 H       -1.5610    -0.6010     0.6430 H     1 <1>   0.0800 
 26 H        1.9600     1.2250    -1.9800 H     1 <1>   0.0800 
 27 H       -2.1970     2.0550    -1.5920 H     1 <1>   0.1500 
 28 H        0.6120     2.2160     1.5920 H     1 <1>   0.1500 
 29 H       -0.3510     2.8490    -2.9940 H     1 <1>   0.0800 
 30 H        0.0590     1.2140    -3.4950 H     1 <1>   0.0800 
 31 H        1.1490     2.5390    -3.8180 H     1 <1>   0.0800 
 32 H       -3.7600     3.4210    -0.2900 H     1 <1>   0.1500 
 33 H       -0.9410     3.5730     2.9060 H     1 <1>   0.1500 
 34 H        2.7820     5.1880     0.1590 H     1 <1>   0.0800 
 35 H        4.3930     4.5670    -0.0550 H     1 <1>   0.0800 
 36 H        4.6090     1.9020    -0.3230 H     1 <1>   0.0800 
 37 H        3.1380     0.9900    -0.2600 H     1 <1>   0.0800 
 38 H       -4.0460     3.8020     2.8150 H     1 <1>   0.0800 
 39 H       -4.0490     5.0220     1.5600 H     1 <1>   0.0800 
 40 H       -2.8830     5.1090     2.8530 H     1 <1>   0.0800 
 41 H        2.5550     4.0140     2.3000 H     1 <1>   0.0800 
 42 H        4.0240     4.9650     2.3210 H     1 <1>   0.0800 
 43 H        4.3850     0.9870     1.9080 H     1 <1>   0.0800 
 44 H        2.7760     1.6380     2.0810 H     1 <1>   0.0800 
@<TRIPOS>BOND
  1   1   2  2   
  2   1   3  2   
  3   1   4  am  
  4   1   5  1   
  5   4   6  1   
  6   4   7  1   
  7   5  23  1   
  8   5  24  1   
  9   5  25  1   
 10   6   8  ar  
 11   6   9  ar  
 12   7  10  1   
 13   7  11  1   
 14   7  26  1   
 15   8  12  ar  
 16   8  27  1   
 17   9  13  ar  
 18   9  28  1   
 19  10  14  2   
 20  10  15  am  
 21  11  29  1   
 22  11  30  1   
 23  11  31  1   
 24  12  16  ar  
 25  12  32  1   
 26  13  16  ar  
 27  13  33  1   
 28  15  17  1   
 29  15  18  1   
 30  16  19  1   
 31  17  20  1   
 32  17  34  1   
 33  17  35  1   
 34  18  21  1   
 35  18  36  1   
 36  18  37  1   
 37  19  38  1   
 38  19  39  1   
 39  19  40  1   
 40  20  22  1   
 41  20  41  1   
 42  20  42  1   
 43  21  22  1   
 44  21  43  1   
 45  21  44  1   
@<TRIPOS>SUBSTRUCTURE
  1 ****   6 GROUP 4 **** **** 0

# MOE 2024.06 (io_trps.svl 2023.06)
