@<TRIPOS>MOLECULE
[1-(4-Methoxy-3-methyl-benzenesulfonyl)-piperidin-4-yl]-piperidin-1-yl-methanone
54 56 1 0 0 
SMALL
USER_CHARGES


@<TRIPOS>ATOM
  1 S       -0.3390     0.3190    -2.0750 S.o2  1 <1>   1.4470 
  2 O        0.3390    -0.6020    -2.9640 O.2   1 <1>  -0.6500 
  3 O       -1.1830     1.3490    -2.6410 O.2   1 <1>  -0.6500 
  4 N        0.8710     1.0930    -1.1730 N.am  1 <1>  -0.8490 
  5 C       -1.2730    -0.5990    -0.8200 C.ar  1 <1>  -0.0090 
  6 C        1.4900     2.1830    -1.9310 C.3   1 <1>   0.1960 
  7 C        1.8720     0.1470    -0.6710 C.3   1 <1>   0.1960 
  8 C       -1.6420     0.0020     0.3770 C.ar  1 <1>  -0.1500 
  9 C       -1.6470    -1.9220    -1.0240 C.ar  1 <1>  -0.1500 
 10 C        2.4680     2.9560    -1.0430 C.3   1 <1>  -0.1600 
 11 C        2.8550     0.8590     0.2600 C.3   1 <1>  -0.1600 
 12 C       -2.3500    -0.6840     1.3510 C.ar  1 <1>  -0.1430 
 13 C       -2.3550    -2.6240    -0.0650 C.ar  1 <1>  -0.1500 
 14 C        3.5500     2.0300    -0.4530 C.3   1 <1>  -0.0190 
 15 C       -2.7110    -2.0100     1.1320 C.ar  1 <1>   0.0830 
 16 C       -2.7260     0.0190     2.6470 C.3   1 <1>  -0.0970 
 17 C        4.5230     2.7560     0.4880 C.2   1 <1>   0.5690 
 18 O       -3.4030    -2.6470     2.1110 O.3   1 <1>  -0.3630 
 19 O        4.1310     3.7650     1.0300 O.2   1 <1>  -0.5700 
 20 N        5.7940     2.2750     0.7150 N.am  1 <1>  -0.6600 
 21 C       -3.8380    -3.9810     1.9680 C.3   1 <1>   0.0400 
 22 C        6.3760     1.0200     0.1580 C.3   1 <1>   0.1400 
 23 C        6.7310     3.0010     1.6230 C.3   1 <1>   0.1400 
 24 C        6.7730     0.0820     1.3030 C.3   1 <1>  -0.1600 
 25 C        7.1320     2.0890     2.7870 C.3   1 <1>  -0.1600 
 26 C        7.7300     0.7660     2.2890 C.3   1 <1>  -0.1600 
 27 H        0.7290     2.8660    -2.2740 H     1 <1>   0.0800 
 28 H        1.9990     1.7860    -2.7940 H     1 <1>   0.0800 
 29 H        2.4050    -0.2970    -1.4970 H     1 <1>   0.0800 
 30 H        1.3830    -0.6420    -0.1240 H     1 <1>   0.0800 
 31 H       -1.3630     1.0290     0.5420 H     1 <1>   0.1500 
 32 H       -1.3780    -2.4080    -1.9470 H     1 <1>   0.1500 
 33 H        1.9110     3.4250    -0.2500 H     1 <1>   0.0800 
 34 H        2.9340     3.7360    -1.6180 H     1 <1>   0.0800 
 35 H        3.5850     0.1520     0.6100 H     1 <1>   0.0800 
 36 H        2.3200     1.2260     1.1200 H     1 <1>   0.0800 
 37 H       -2.6190    -3.6440    -0.2690 H     1 <1>   0.1500 
 38 H        4.1100     1.6530    -1.2880 H     1 <1>   0.0800 
 39 H       -2.3610     1.0300     2.6640 H     1 <1>   0.0800 
 40 H       -2.3070    -0.5120     3.4830 H     1 <1>   0.0800 
 41 H       -3.7960     0.0370     2.7520 H     1 <1>   0.0800 
 42 H       -4.3690    -4.2550     2.8620 H     1 <1>   0.0800 
 43 H       -2.9800    -4.6170     1.8430 H     1 <1>   0.0800 
 44 H       -4.4950    -4.0440     1.1190 H     1 <1>   0.0800 
 45 H        7.2480     1.2700    -0.4230 H     1 <1>   0.0800 
 46 H        5.6860     0.5100    -0.4870 H     1 <1>   0.0800 
 47 H        6.2780     3.8970     2.0120 H     1 <1>   0.0800 
 48 H        7.6050     3.2890     1.0660 H     1 <1>   0.0800 
 49 H        7.2430    -0.7970     0.8980 H     1 <1>   0.0800 
 50 H        5.8840    -0.2310     1.8220 H     1 <1>   0.0800 
 51 H        6.2610     1.8930     3.3880 H     1 <1>   0.0800 
 52 H        7.8480     2.5990     3.4070 H     1 <1>   0.0800 
 53 H        8.6680     0.9620     1.7980 H     1 <1>   0.0800 
 54 H        7.9210     0.1150     3.1250 H     1 <1>   0.0800 
@<TRIPOS>BOND
  1   1   2  2   
  2   1   3  2   
  3   1   4  am  
  4   1   5  1   
  5   4   6  1   
  6   4   7  1   
  7   5   8  ar  
  8   5   9  ar  
  9   6  10  1   
 10   6  27  1   
 11   6  28  1   
 12   7  11  1   
 13   7  29  1   
 14   7  30  1   
 15   8  12  ar  
 16   8  31  1   
 17   9  13  ar  
 18   9  32  1   
 19  10  14  1   
 20  10  33  1   
 21  10  34  1   
 22  11  14  1   
 23  11  35  1   
 24  11  36  1   
 25  12  15  ar  
 26  12  16  1   
 27  13  15  ar  
 28  13  37  1   
 29  14  17  1   
 30  14  38  1   
 31  15  18  1   
 32  16  39  1   
 33  16  40  1   
 34  16  41  1   
 35  17  19  2   
 36  17  20  am  
 37  18  21  1   
 38  20  22  1   
 39  20  23  1   
 40  21  42  1   
 41  21  43  1   
 42  21  44  1   
 43  22  24  1   
 44  22  45  1   
 45  22  46  1   
 46  23  25  1   
 47  23  47  1   
 48  23  48  1   
 49  24  26  1   
 50  24  49  1   
 51  24  50  1   
 52  25  26  1   
 53  25  51  1   
 54  25  52  1   
 55  26  53  1   
 56  26  54  1   
@<TRIPOS>SUBSTRUCTURE
  1 ****   7 GROUP 4 **** **** 0

# MOE 2024.06 (io_trps.svl 2023.06)
