@<TRIPOS>MOLECULE
3-Dimethylsulfamoyl-4-methoxy-benzoic acid
29 29 1 0 0 
SMALL
USER_CHARGES


@<TRIPOS>ATOM
  1 S       -0.2340    -0.0500     1.2580 S.o2  1 <1>   1.4470 
  2 O        1.0780    -0.0640     1.8740 O.2   1 <1>  -0.6500 
  3 O       -1.3460    -0.5020     2.0700 O.2   1 <1>  -0.6500 
  4 N       -0.1080    -1.1160    -0.0650 N.am  1 <1>  -0.8490 
  5 C       -0.5570     1.5640     0.4950 C.ar  1 <1>  -0.0090 
  6 C        1.0520    -0.8270    -0.9140 C.3   1 <1>   0.1160 
  7 C       -0.0900    -2.5130     0.3650 C.3   1 <1>   0.1160 
  8 C       -1.7900     1.8610    -0.0820 C.ar  1 <1>   0.0820 
  9 C        0.4430     2.5270     0.4360 C.ar  1 <1>  -0.1500 
 10 O       -2.7560     0.9120    -0.0480 O.3   1 <1>  -0.3630 
 11 C       -1.9980     3.1020    -0.6790 C.ar  1 <1>  -0.1500 
 12 C        0.2700     3.7720    -0.1710 C.ar  1 <1>  -0.1790 
 13 C       -4.0600     1.1340    -0.5330 C.3   1 <1>   0.0400 
 14 C       -0.9830     4.0360    -0.7190 C.ar  1 <1>  -0.1500 
 15 C        1.3490     4.7480    -0.2380 C.2   1 <1>   0.9790 
 16 O        1.1450     5.8890    -0.6900 O.co2 1 <1>  -0.9000 
 17 O        2.4950     4.4500     0.1430 O.co2 1 <1>  -0.9000 
 18 H        1.0040     0.1860    -1.2760 H     1 <1>   0.0800 
 19 H        1.0590    -1.4870    -1.7640 H     1 <1>   0.0800 
 20 H        1.9680    -0.9530    -0.3620 H     1 <1>   0.0800 
 21 H       -0.9920    -2.7380     0.9100 H     1 <1>   0.0800 
 22 H        0.7570    -2.6970     1.0050 H     1 <1>   0.0800 
 23 H       -0.0410    -3.1650    -0.4890 H     1 <1>   0.0800 
 24 H        1.4080     2.3140     0.8710 H     1 <1>   0.1500 
 25 H       -2.9390     3.3620    -1.1230 H     1 <1>   0.1500 
 26 H       -4.6340     0.2420    -0.3580 H     1 <1>   0.0800 
 27 H       -4.0090     1.3350    -1.5880 H     1 <1>   0.0800 
 28 H       -4.4940     1.9600     0.0000 H     1 <1>   0.0800 
 29 H       -1.1460     4.9940    -1.1850 H     1 <1>   0.1500 
@<TRIPOS>BOND
  1   1   2  2   
  2   1   3  2   
  3   1   4  am  
  4   1   5  1   
  5   4   6  1   
  6   4   7  1   
  7   5   8  ar  
  8   5   9  ar  
  9   6  18  1   
 10   6  19  1   
 11   6  20  1   
 12   7  21  1   
 13   7  22  1   
 14   7  23  1   
 15   8  10  1   
 16   8  11  ar  
 17   9  12  ar  
 18   9  24  1   
 19  10  13  1   
 20  11  14  ar  
 21  11  25  1   
 22  12  14  ar  
 23  12  15  1   
 24  13  26  1   
 25  13  27  1   
 26  13  28  1   
 27  14  29  1   
 28  15  16  ar  
 29  15  17  ar  
@<TRIPOS>SUBSTRUCTURE
  1 ****   5 GROUP 4 **** **** 0

# MOE 2024.06 (io_trps.svl 2023.06)
