@<TRIPOS>MOLECULE
1-[4-(2-Chloro-phenyl)-piperazine-1-sulfonyl]-azepane
47 49 1 0 0 
SMALL
USER_CHARGES


@<TRIPOS>ATOM
  1 CL       0.5670    -0.1740    -1.9350 Cl    1 <1>  -0.1770 
  2 C        0.5990    -1.7650    -1.1950 C.ar  1 <1>   0.1770 
  3 C       -0.5960    -2.4290    -0.8910 C.ar  1 <1>   0.1000 
  4 C        1.8350    -2.3250    -0.9320 C.ar  1 <1>  -0.1500 
  5 N       -1.8530    -1.8670    -1.1560 N.pl3 1 <1>  -0.8380 
  6 C       -0.4920    -3.6850    -0.2990 C.ar  1 <1>  -0.1500 
  7 C        1.9080    -3.5780    -0.3470 C.ar  1 <1>  -0.1500 
  8 C       -2.3100    -0.7040    -0.3360 C.3   1 <1>   0.2090 
  9 C       -2.9700    -2.6750    -1.7350 C.3   1 <1>   0.2090 
 10 C        0.7410    -4.2540    -0.0310 C.ar  1 <1>  -0.1500 
 11 C       -3.4120    -1.1080     0.6620 C.3   1 <1>   0.1960 
 12 C       -4.0580    -2.9930    -0.6900 C.3   1 <1>   0.1960 
 13 N       -4.5430    -1.7870     0.0070 N.am  1 <1>  -0.8490 
 14 S       -5.7420    -2.1620     1.1300 S.o2  1 <1>   1.5760 
 15 O       -5.2770    -3.2970     1.8960 O.2   1 <1>  -0.6500 
 16 O       -6.1490    -0.9450     1.7950 O.2   1 <1>  -0.6500 
 17 N       -6.9870    -2.6480     0.0960 N.am  1 <1>  -0.8490 
 18 C       -7.4940    -1.5040    -0.6710 C.3   1 <1>   0.1960 
 19 C       -8.0390    -3.3470     0.8410 C.3   1 <1>   0.1960 
 20 C       -8.4620    -1.9030    -1.7920 C.3   1 <1>  -0.1600 
 21 C       -8.7910    -4.3130    -0.0790 C.3   1 <1>  -0.1600 
 22 C       -9.8630    -2.2650    -1.2780 C.3   1 <1>  -0.1600 
 23 C      -10.0070    -3.7180    -0.8070 C.3   1 <1>  -0.1600 
 24 H        2.7290    -1.7830    -1.1830 H     1 <1>   0.1500 
 25 H       -1.3840    -4.2210    -0.0380 H     1 <1>   0.1500 
 26 H        2.8660    -4.0230    -0.1390 H     1 <1>   0.1500 
 27 H       -2.6890     0.0600    -0.9930 H     1 <1>   0.0800 
 28 H       -1.4760    -0.2900     0.2040 H     1 <1>   0.0800 
 29 H       -2.5820    -3.5910    -2.1440 H     1 <1>   0.0800 
 30 H       -3.4150    -2.1200    -2.5420 H     1 <1>   0.0800 
 31 H        0.7940    -5.2270     0.4260 H     1 <1>   0.1500 
 32 H       -3.7660    -0.2180     1.1560 H     1 <1>   0.0800 
 33 H       -2.9820    -1.7520     1.4120 H     1 <1>   0.0800 
 34 H       -3.6570    -3.6930     0.0230 H     1 <1>   0.0800 
 35 H       -4.8810    -3.4740    -1.1900 H     1 <1>   0.0800 
 36 H       -6.6620    -1.0000    -1.1330 H     1 <1>   0.0800 
 37 H       -7.9680    -0.7960    -0.0100 H     1 <1>   0.0800 
 38 H       -8.7070    -2.6500     1.3190 H     1 <1>   0.0800 
 39 H       -7.5890    -3.9460     1.6160 H     1 <1>   0.0800 
 40 H       -8.0430    -2.6980    -2.3840 H     1 <1>   0.0800 
 41 H       -8.5650    -1.0480    -2.4360 H     1 <1>   0.0800 
 42 H       -9.1400    -5.1390     0.5140 H     1 <1>   0.0800 
 43 H       -8.0970    -4.7180    -0.7950 H     1 <1>   0.0800 
 44 H      -10.5770    -2.1010    -2.0680 H     1 <1>   0.0800 
 45 H      -10.1300    -1.5990    -0.4750 H     1 <1>   0.0800 
 46 H      -10.8650    -3.7750    -0.1600 H     1 <1>   0.0800 
 47 H      -10.2170    -4.3400    -1.6610 H     1 <1>   0.0800 
@<TRIPOS>BOND
  1   1   2  1   
  2   2   3  ar  
  3   2   4  ar  
  4   3   5  1   
  5   3   6  ar  
  6   4   7  ar  
  7   4  24  1   
  8   5   8  1   
  9   5   9  1   
 10   6  10  ar  
 11   6  25  1   
 12   7  10  ar  
 13   7  26  1   
 14   8  11  1   
 15   8  27  1   
 16   8  28  1   
 17   9  12  1   
 18   9  29  1   
 19   9  30  1   
 20  10  31  1   
 21  11  13  1   
 22  11  32  1   
 23  11  33  1   
 24  12  13  1   
 25  12  34  1   
 26  12  35  1   
 27  13  14  am  
 28  14  15  2   
 29  14  16  2   
 30  14  17  am  
 31  17  18  1   
 32  17  19  1   
 33  18  20  1   
 34  18  36  1   
 35  18  37  1   
 36  19  21  1   
 37  19  38  1   
 38  19  39  1   
 39  20  22  1   
 40  20  40  1   
 41  20  41  1   
 42  21  23  1   
 43  21  42  1   
 44  21  43  1   
 45  22  23  1   
 46  22  44  1   
 47  22  45  1   
 48  23  46  1   
 49  23  47  1   
@<TRIPOS>SUBSTRUCTURE
  1 ****  12 GROUP 4 **** **** 0

# MOE 2024.06 (io_trps.svl 2023.06)
