@<TRIPOS>MOLECULE
N-[2-(4-Acetyl-piperazin-1-yl)-phenyl]-2-(4-chloro-phenoxy)-2-methyl-propionamid
55 57 1 0 0 
SMALL
USER_CHARGES


@<TRIPOS>ATOM
  1 CL       0.5850     2.0830     0.6130 Cl    1 <1>  -0.1770 
  2 C        2.3270     1.9900     0.5440 C.ar  1 <1>   0.1770 
  3 C        2.9580     2.0130    -0.6870 C.ar  1 <1>  -0.1500 
  4 C        3.0460     1.8980     1.7220 C.ar  1 <1>  -0.1500 
  5 C        4.3390     1.9350    -0.7400 C.ar  1 <1>  -0.1500 
  6 C        4.4280     1.8210     1.6660 C.ar  1 <1>  -0.1500 
  7 C        5.0710     1.8230     0.4350 C.ar  1 <1>   0.0830 
  8 O        6.4210     1.7760     0.3810 O.3   1 <1>  -0.3630 
  9 C        7.1520     0.5410     0.3160 C.3   1 <1>   0.3410 
 10 C        8.6650     0.8830     0.2530 C.2   1 <1>   0.5690 
 11 C        6.8510    -0.2900     1.5760 C.3   1 <1>  -0.2400 
 12 C        6.7220    -0.2280    -0.9460 C.3   1 <1>  -0.2400 
 13 O        9.4760    -0.0060     0.1100 O.2   1 <1>  -0.5700 
 14 N        9.0220     2.1960     0.3600 N.am  1 <1>  -0.5470 
 15 C       10.2190     2.9220     0.2870 C.ar  1 <1>   0.1170 
 16 C       10.0930     4.3180     0.2720 C.ar  1 <1>   0.1000 
 17 C       11.4770     2.3410     0.2370 C.ar  1 <1>  -0.1500 
 18 N        8.8130     4.9000     0.3140 N.pl3 1 <1>  -0.8380 
 19 C       11.2390     5.0980     0.2040 C.ar  1 <1>  -0.1500 
 20 C       12.6120     3.1320     0.1720 C.ar  1 <1>  -0.1500 
 21 C        8.5310     5.9420     1.3420 C.3   1 <1>   0.2090 
 22 C        8.1730     5.2020    -1.0020 C.3   1 <1>   0.2090 
 23 C       12.4920     4.5110     0.1560 C.ar  1 <1>  -0.1500 
 24 C        7.0120     6.1220     1.5260 C.3   1 <1>   0.1400 
 25 C        6.6530     5.3740    -0.8370 C.3   1 <1>   0.1400 
 26 N        6.3310     6.3900     0.2170 N.am  1 <1>  -0.6600 
 27 C        5.5090     7.4520    -0.0530 C.2   1 <1>   0.5690 
 28 O        5.0460     7.6420    -1.1520 O.2   1 <1>  -0.5700 
 29 C        5.1500     8.4410     1.0300 C.3   1 <1>  -0.1790 
 30 H        2.3730     2.0950    -1.5860 H     1 <1>   0.1500 
 31 H        2.5280     1.8900     2.6640 H     1 <1>   0.1500 
 32 H        4.8490     1.9630    -1.6860 H     1 <1>   0.1500 
 33 H        5.0060     1.7620     2.5710 H     1 <1>   0.1500 
 34 H        7.4550    -1.1810     1.5710 H     1 <1>   0.0800 
 35 H        5.8200    -0.5910     1.6080 H     1 <1>   0.0800 
 36 H        7.0960     0.2730     2.4580 H     1 <1>   0.0800 
 37 H        7.3100    -1.1240    -1.0410 H     1 <1>   0.0800 
 38 H        6.8910     0.3740    -1.8210 H     1 <1>   0.0800 
 39 H        5.6890    -0.5170    -0.8940 H     1 <1>   0.0800 
 40 H        8.2350     2.8470     0.4630 H     1 <1>   0.3700 
 41 H       11.5760     1.2710     0.2510 H     1 <1>   0.1500 
 42 H       11.1510     6.1680     0.1820 H     1 <1>   0.1500 
 43 H       13.5840     2.6730     0.1350 H     1 <1>   0.1500 
 44 H        8.9660     6.8780     1.0370 H     1 <1>   0.0800 
 45 H        8.9770     5.6500     2.2770 H     1 <1>   0.0800 
 46 H        8.3710     4.3990    -1.6920 H     1 <1>   0.0800 
 47 H        8.5920     6.1050    -1.4100 H     1 <1>   0.0800 
 48 H       13.3740     5.1260     0.1030 H     1 <1>   0.1500 
 49 H        6.8400     6.9190     2.2240 H     1 <1>   0.0800 
 50 H        6.6070     5.2190     1.9490 H     1 <1>   0.0800 
 51 H        6.2210     4.4300    -0.5560 H     1 <1>   0.0800 
 52 H        6.2290     5.6600    -1.7840 H     1 <1>   0.0800 
 53 H        6.0280     8.9710     1.3470 H     1 <1>   0.0800 
 54 H        4.7070     7.9280     1.8620 H     1 <1>   0.0800 
 55 H        4.4390     9.1510     0.6480 H     1 <1>   0.0800 
@<TRIPOS>BOND
  1   1   2  1   
  2   2   3  ar  
  3   2   4  ar  
  4   3   5  ar  
  5   3  30  1   
  6   4   6  ar  
  7   4  31  1   
  8   5   7  ar  
  9   5  32  1   
 10   6   7  ar  
 11   6  33  1   
 12   7   8  1   
 13   8   9  1   
 14   9  10  1   
 15   9  11  1   
 16   9  12  1   
 17  10  13  2   
 18  10  14  am  
 19  11  34  1   
 20  11  35  1   
 21  11  36  1   
 22  12  37  1   
 23  12  38  1   
 24  12  39  1   
 25  14  15  1   
 26  14  40  1   
 27  15  16  ar  
 28  15  17  ar  
 29  16  18  1   
 30  16  19  ar  
 31  17  20  ar  
 32  17  41  1   
 33  18  21  1   
 34  18  22  1   
 35  19  23  ar  
 36  19  42  1   
 37  20  23  ar  
 38  20  43  1   
 39  21  24  1   
 40  21  44  1   
 41  21  45  1   
 42  22  25  1   
 43  22  46  1   
 44  22  47  1   
 45  23  48  1   
 46  24  26  1   
 47  24  49  1   
 48  24  50  1   
 49  25  26  1   
 50  25  51  1   
 51  25  52  1   
 52  26  27  am  
 53  27  28  2   
 54  27  29  1   
 55  29  53  1   
 56  29  54  1   
 57  29  55  1   
@<TRIPOS>SUBSTRUCTURE
  1 ****   8 GROUP 4 **** **** 0

# MOE 2024.06 (io_trps.svl 2023.06)
