@<TRIPOS>MOLECULE
2-[5-(4-Chloro-phenyl)-tetrazol-2-yl]-N-cyclopentyl-acetamide
37 39 1 0 0 
SMALL
USER_CHARGES


@<TRIPOS>ATOM
  1 CL       0.8720     3.4600     1.6810 Cl    1 <1>  -0.1770 
  2 C        2.4330     3.0820     1.0000 C.ar  1 <1>   0.1770 
  3 C        2.8660     3.7550    -0.1250 C.ar  1 <1>  -0.1500 
  4 C        3.2190     2.1150     1.5940 C.ar  1 <1>  -0.1500 
  5 C        4.1060     3.4520    -0.6610 C.ar  1 <1>  -0.1500 
  6 C        4.4560     1.8200     1.0490 C.ar  1 <1>  -0.1500 
  7 C        4.9330     2.4790    -0.0890 C.ar  1 <1>   0.0540 
  8 C        6.2360     2.1570    -0.6480 C.2   1 <1>   0.4620 
  9 N        6.7590     2.8090    -1.6960 N.2   1 <1>  -0.2270 
 10 N        7.0190     1.2290    -0.2040 N.2   1 <1>  -0.7070 
 11 N        7.8950     2.2870    -1.9240 N.2   1 <1>  -0.4180 
 12 N        8.0490     1.3430    -1.0120 N.pl3 1 <1>   0.5800 
 13 C        9.2390     0.4960    -0.9500 C.3   1 <1>   0.1570 
 14 C       10.0190     0.7980     0.3060 C.2   1 <1>   0.5690 
 15 O       10.1500    -0.0810     1.1190 O.2   1 <1>  -0.5700 
 16 N       10.6090     1.9980     0.5360 N.am  1 <1>  -0.7300 
 17 C       10.6190     3.2300    -0.2740 C.3   1 <1>   0.2200 
 18 C       11.9830     3.8930    -0.1350 C.3   1 <1>  -0.1600 
 19 C        9.6700     4.2410     0.3580 C.3   1 <1>  -0.1600 
 20 C       11.9380     4.6660     1.1880 C.3   1 <1>  -0.1600 
 21 C       10.4540     4.8870     1.5060 C.3   1 <1>  -0.1600 
 22 H        2.2380     4.5050    -0.5720 H     1 <1>   0.1500 
 23 H        2.8640     1.6020     2.4700 H     1 <1>   0.1500 
 24 H        4.4350     3.9810    -1.5390 H     1 <1>   0.1500 
 25 H        5.0690     1.0660     1.5140 H     1 <1>   0.1500 
 26 H        9.8500     0.6750    -1.8120 H     1 <1>   0.0800 
 27 H        8.9260    -0.5290    -0.9420 H     1 <1>   0.0800 
 28 H       11.0640     2.0980     1.4450 H     1 <1>   0.3700 
 29 H       10.3780     3.0260    -1.3040 H     1 <1>   0.0800 
 30 H       12.1020     4.5960    -0.9410 H     1 <1>   0.0800 
 31 H       12.7910     3.1840    -0.1750 H     1 <1>   0.0800 
 32 H        8.7500     3.7900     0.6890 H     1 <1>   0.0800 
 33 H        9.4360     4.9930    -0.3750 H     1 <1>   0.0800 
 34 H       12.4650     5.6020     1.1040 H     1 <1>   0.0800 
 35 H       12.3930     4.0830     1.9710 H     1 <1>   0.0800 
 36 H       10.2060     4.4010     2.4340 H     1 <1>   0.0800 
 37 H       10.2180     5.9340     1.5890 H     1 <1>   0.0800 
@<TRIPOS>BOND
  1   1   2  1   
  2   2   3  ar  
  3   2   4  ar  
  4   3   5  ar  
  5   3  22  1   
  6   4   6  ar  
  7   4  23  1   
  8   5   7  ar  
  9   5  24  1   
 10   6   7  ar  
 11   6  25  1   
 12   7   8  1   
 13   8   9  1   
 14   8  10  2   
 15   9  11  2   
 16  10  12  1   
 17  11  12  1   
 18  12  13  1   
 19  13  14  1   
 20  13  26  1   
 21  13  27  1   
 22  14  15  2   
 23  14  16  am  
 24  16  17  1   
 25  16  28  1   
 26  17  18  1   
 27  17  19  1   
 28  17  29  1   
 29  18  20  1   
 30  18  30  1   
 31  18  31  1   
 32  19  21  1   
 33  19  32  1   
 34  19  33  1   
 35  20  21  1   
 36  20  34  1   
 37  20  35  1   
 38  21  36  1   
 39  21  37  1   
@<TRIPOS>SUBSTRUCTURE
  1 ****   8 GROUP 4 **** **** 0

# MOE 2024.06 (io_trps.svl 2023.06)
