@<TRIPOS>MOLECULE
2-(4-Ethyl-piperazin-1-yl)-6-oxo-3,4,5,6-tetrahydro-pyrimidine-4-carboxylic acid
53 55 1 0 0 
SMALL
USER_CHARGES


@<TRIPOS>ATOM
  1 O       -1.0870    -0.3910    -1.0160 O.2   1 <1>  -0.5700 
  2 C       -0.8480    -1.4930    -0.6300 C.2   1 <1>   0.8520 
  3 N       -1.6750    -2.4960    -0.9830 N.pl3 1 <1>  -0.8600 
  4 C        0.3350    -1.7790     0.2560 C.3   1 <1>  -0.0990 
  5 C       -1.4780    -3.7630    -0.7110 C.cat 1 <1>   1.2000 
  6 C        0.8770    -3.1730    -0.0630 C.3   1 <1>   0.3090 
  7 N       -2.4580    -4.6690    -0.8570 N.pl3 1 <1>  -0.7220 
  8 N       -0.2840    -4.0900    -0.2850 N.pl3 1 <1>  -0.8440 
  9 C        1.7990    -3.7340     1.0430 C.2   1 <1>   0.5690 
 10 C       -2.2640    -6.1570    -0.6590 C.3   1 <1>   0.1680 
 11 C       -3.8640    -4.3320    -1.3050 C.3   1 <1>   0.1680 
 12 O        1.4410    -4.7400     1.6100 O.2   1 <1>  -0.5700 
 13 N        2.9740    -3.1370     1.3720 N.am  1 <1>  -0.5470 
 14 C       -3.3690    -6.7990     0.2160 C.3   1 <1>   0.3430 
 15 C       -4.9520    -4.9950    -0.4260 C.3   1 <1>   0.3430 
 16 C        3.5600    -2.0100     0.7930 C.ar  1 <1>   0.1170 
 17 N       -4.7510    -6.4800    -0.2820 N.4   1 <1>  -0.9590 
 18 C        4.0120    -2.0430    -0.5200 C.ar  1 <1>  -0.1500 
 19 C        3.6680    -0.8310     1.5180 C.ar  1 <1>  -0.1500 
 20 C       -5.7760    -7.0980     0.6090 C.3   1 <1>   0.3430 
 21 C        4.5290    -0.9030    -1.1080 C.ar  1 <1>  -0.1500 
 22 C        4.1870     0.3100     0.9330 C.ar  1 <1>  -0.1500 
 23 C       -7.1300    -7.1040    -0.0910 C.3   1 <1>  -0.2400 
 24 C        4.6120     0.2800    -0.3920 C.ar  1 <1>   0.0820 
 25 O        5.1180     1.3530    -1.0510 O.3   1 <1>  -0.3630 
 26 C        5.2700     2.6000    -0.4080 C.3   1 <1>   0.0400 
 27 H       -2.4430    -2.1890    -1.5600 H     1 <1>   0.4500 
 28 H        0.0260    -1.7210     1.2840 H     1 <1>   0.0800 
 29 H        1.0900    -1.0320     0.0900 H     1 <1>   0.0800 
 30 H        1.4470    -3.1270    -0.9760 H     1 <1>   0.0800 
 31 H       -0.0760    -5.0280     0.0680 H     1 <1>   0.4500 
 32 H       -1.3150    -6.3730    -0.2000 H     1 <1>   0.0800 
 33 H       -2.2630    -6.6400    -1.6220 H     1 <1>   0.0800 
 34 H       -3.9960    -4.6570    -2.3240 H     1 <1>   0.0800 
 35 H       -4.0360    -3.2690    -1.2860 H     1 <1>   0.0800 
 36 H        3.4740    -3.5690     2.1550 H     1 <1>   0.3700 
 37 H       -3.2590    -6.4430     1.2280 H     1 <1>   0.0800 
 38 H       -3.2270    -7.8680     0.2310 H     1 <1>   0.0800 
 39 H       -5.9180    -4.7990    -0.8640 H     1 <1>   0.0800 
 40 H       -4.9400    -4.5350     0.5480 H     1 <1>   0.0800 
 41 H       -4.8710    -6.9180    -1.2080 H     1 <1>   0.4500 
 42 H        3.9710    -2.9570    -1.0850 H     1 <1>   0.1500 
 43 H        3.3400    -0.8020     2.5430 H     1 <1>   0.1500 
 44 H       -5.8430    -6.5580     1.5400 H     1 <1>   0.0800 
 45 H       -5.5000    -8.1180     0.8310 H     1 <1>   0.0800 
 46 H        4.8780    -0.9200    -2.1250 H     1 <1>   0.1500 
 47 H        4.2530     1.2090     1.5180 H     1 <1>   0.1500 
 48 H       -7.5050    -6.1080    -0.2460 H     1 <1>   0.0800 
 49 H       -7.8410    -7.6200     0.5310 H     1 <1>   0.0800 
 50 H       -7.0790    -7.6270    -1.0300 H     1 <1>   0.0800 
 51 H        4.3030     2.9500    -0.0910 H     1 <1>   0.0800 
 52 H        5.6940     3.2900    -1.1150 H     1 <1>   0.0800 
 53 H        5.9330     2.4820     0.4300 H     1 <1>   0.0800 
@<TRIPOS>BOND
  1   1   2  2   
  2   2   3  1   
  3   2   4  1   
  4   3   5  ar  
  5   3  27  1   
  6   4   6  1   
  7   4  28  1   
  8   4  29  1   
  9   5   7  ar  
 10   5   8  ar  
 11   6   8  1   
 12   6   9  1   
 13   6  30  1   
 14   7  10  1   
 15   7  11  1   
 16   8  31  1   
 17   9  12  2   
 18   9  13  am  
 19  10  14  1   
 20  10  32  1   
 21  10  33  1   
 22  11  15  1   
 23  11  34  1   
 24  11  35  1   
 25  13  16  1   
 26  13  36  1   
 27  14  17  1   
 28  14  37  1   
 29  14  38  1   
 30  15  17  1   
 31  15  39  1   
 32  15  40  1   
 33  16  18  ar  
 34  16  19  ar  
 35  17  20  1   
 36  17  41  1   
 37  18  21  ar  
 38  18  42  1   
 39  19  22  ar  
 40  19  43  1   
 41  20  23  1   
 42  20  44  1   
 43  20  45  1   
 44  21  24  ar  
 45  21  46  1   
 46  22  24  ar  
 47  22  47  1   
 48  23  48  1   
 49  23  49  1   
 50  23  50  1   
 51  24  25  1   
 52  25  26  1   
 53  26  51  1   
 54  26  52  1   
 55  26  53  1   
@<TRIPOS>SUBSTRUCTURE
  1 ****   6 GROUP 4 **** **** 0

# MOE 2024.06 (io_trps.svl 2023.06)
