@<TRIPOS>MOLECULE
3-(5-Hydroxy-3-methyl-5-trifluoromethyl-4,5-dihydro-pyrazol-1-yl)-3-oxo-propioni
24 24 1 0 0 
SMALL
USER_CHARGES


@<TRIPOS>ATOM
  1 F       -1.4770    -0.9670     1.4340 F     1 <1>  -0.3400 
  2 C       -1.3090    -1.2060     0.1350 C.3   1 <1>   1.0200 
  3 F       -0.6660    -2.3670     0.0610 F     1 <1>  -0.3400 
  4 F       -0.4380    -0.2890    -0.2830 F     1 <1>  -0.3400 
  5 C       -2.6730    -1.1570    -0.6730 C.3   1 <1>   0.5800 
  6 O       -2.5590    -1.5390    -2.0150 O.3   1 <1>  -0.6800 
  7 N       -3.7600    -2.0020    -0.0870 N.am  1 <1>  -0.2980 
  8 C       -3.3070     0.2460    -0.6450 C.3   1 <1>  -0.0990 
  9 N       -4.8060    -1.2260     0.3680 N.2   1 <1>  -0.5120 
 10 C       -3.7520    -3.3790    -0.1480 C.2   1 <1>   0.5690 
 11 C       -4.6010    -0.0210     0.0770 C.2   1 <1>   0.3280 
 12 O       -2.8600    -3.9850    -0.6950 O.2   1 <1>  -0.5700 
 13 C       -4.8880    -4.1620     0.4690 C.3   1 <1>   0.1010 
 14 C       -5.5270     1.1310     0.3910 C.3   1 <1>  -0.1790 
 15 C       -6.0060    -4.2530    -0.5000 C.1   1 <1>   0.3570 
 16 N       -6.8730    -4.3440    -1.2300 N.1   1 <1>  -0.5570 
 17 H       -2.4330    -2.5160    -2.0350 H     1 <1>   0.4000 
 18 H       -3.4930     0.6250    -1.6340 H     1 <1>   0.0800 
 19 H       -2.7170     0.9520    -0.0910 H     1 <1>   0.0800 
 20 H       -5.2270    -3.6850     1.3680 H     1 <1>   0.0800 
 21 H       -4.5510    -5.1520     0.7090 H     1 <1>   0.0800 
 22 H       -5.0290     1.8440     1.0230 H     1 <1>   0.0800 
 23 H       -6.4020     0.7680     0.9000 H     1 <1>   0.0800 
 24 H       -5.8330     1.6150    -0.5180 H     1 <1>   0.0800 
@<TRIPOS>BOND
  1   1   2  1   
  2   2   3  1   
  3   2   4  1   
  4   2   5  1   
  5   5   6  1   
  6   5   7  1   
  7   5   8  1   
  8   6  17  1   
  9   7   9  1   
 10   7  10  am  
 11   8  11  1   
 12   8  18  1   
 13   8  19  1   
 14   9  11  2   
 15  10  12  2   
 16  10  13  1   
 17  11  14  1   
 18  13  15  1   
 19  13  20  1   
 20  13  21  1   
 21  14  22  1   
 22  14  23  1   
 23  14  24  1   
 24  15  16  3   
@<TRIPOS>SUBSTRUCTURE
  1 ****   7 GROUP 4 **** **** 0

# MOE 2024.06 (io_trps.svl 2023.06)
