@<TRIPOS>MOLECULE
2-(Adamantan-1-yloxy)-1,1-dimethyl-ethylamine
42 44 1 0 0 
SMALL
USER_CHARGES


@<TRIPOS>ATOM
  1 O       -0.3010    -0.5360    -0.6640 O.3   1 <1>  -0.5600 
  2 C       -1.6230    -0.1640    -0.3740 C.3   1 <1>   0.2800 
  3 C        0.4570    -1.1940     0.3240 C.3   1 <1>   0.1200 
  4 C       -1.6540     1.0000     0.6390 C.3   1 <1>  -0.1600 
  5 C       -2.2230     0.3190    -1.7070 C.3   1 <1>  -0.1600 
  6 C       -2.4590    -1.3520     0.1520 C.3   1 <1>  -0.1600 
  7 C        1.9340    -1.2180    -0.1300 C.3   1 <1>   0.5030 
  8 C       -3.1110     1.4520     0.8620 C.3   1 <1>  -0.0800 
  9 C       -3.6800     0.7750    -1.5020 C.3   1 <1>  -0.0800 
 10 C       -3.9160    -0.8980     0.3740 C.3   1 <1>  -0.0800 
 11 N        1.9480    -1.4000    -1.5740 N.4   1 <1>  -0.8530 
 12 C        2.7180    -2.3600     0.5090 C.3   1 <1>  -0.2400 
 13 C        2.6060     0.1250     0.1510 C.3   1 <1>  -0.2400 
 14 C       -3.7080     1.9240    -0.4770 C.3   1 <1>  -0.1600 
 15 C       -3.9370     0.2620     1.3900 C.3   1 <1>  -0.1600 
 16 C       -4.5060    -0.4070    -0.9620 C.3   1 <1>  -0.1600 
 17 H        0.0820    -2.1970     0.4280 H     1 <1>   0.0800 
 18 H        0.3660    -0.6870     1.2680 H     1 <1>   0.0800 
 19 H       -1.0760     1.8260     0.2650 H     1 <1>   0.0800 
 20 H       -1.2500     0.6980     1.5860 H     1 <1>   0.0800 
 21 H       -2.2000    -0.4780    -2.4280 H     1 <1>   0.0800 
 22 H       -1.6470     1.1420    -2.0900 H     1 <1>   0.0800 
 23 H       -2.0750    -1.7050     1.0910 H     1 <1>   0.0800 
 24 H       -2.4410    -2.1590    -0.5580 H     1 <1>   0.0800 
 25 H       -3.1380     2.2590     1.5750 H     1 <1>   0.0800 
 26 H       -4.0950     1.1110    -2.4380 H     1 <1>   0.0800 
 27 H       -4.5030    -1.7200     0.7480 H     1 <1>   0.0800 
 28 H        1.8240    -2.3810    -1.8270 H     1 <1>   0.4500 
 29 H        2.7870    -1.0080    -2.0010 H     1 <1>   0.4500 
 30 H        1.1110    -0.8840    -1.8960 H     1 <1>   0.4500 
 31 H        3.7380    -2.3700     0.1660 H     1 <1>   0.0800 
 32 H        2.2630    -3.3120     0.2930 H     1 <1>   0.0800 
 33 H        2.7320    -2.2390     1.5780 H     1 <1>   0.0800 
 34 H        3.6250     0.1340    -0.1930 H     1 <1>   0.0800 
 35 H        2.6180     0.3120     1.2110 H     1 <1>   0.0800 
 36 H        2.0650     0.9310    -0.3140 H     1 <1>   0.0800 
 37 H       -3.1490     2.7630    -0.8530 H     1 <1>   0.0800 
 38 H       -4.7220     2.2520    -0.3270 H     1 <1>   0.0800 
 39 H       -4.9530     0.5750     1.5590 H     1 <1>   0.0800 
 40 H       -3.5410    -0.0700     2.3340 H     1 <1>   0.0800 
 41 H       -4.5090    -1.2100    -1.6790 H     1 <1>   0.0800 
 42 H       -5.5280    -0.1000    -0.8170 H     1 <1>   0.0800 
@<TRIPOS>BOND
  1   1   2  1   
  2   1   3  1   
  3   2   4  1   
  4   2   5  1   
  5   2   6  1   
  6   3   7  1   
  7   3  17  1   
  8   3  18  1   
  9   4   8  1   
 10   4  19  1   
 11   4  20  1   
 12   5   9  1   
 13   5  21  1   
 14   5  22  1   
 15   6  10  1   
 16   6  23  1   
 17   6  24  1   
 18   7  11  1   
 19   7  12  1   
 20   7  13  1   
 21   8  14  1   
 22   8  15  1   
 23   8  25  1   
 24   9  14  1   
 25   9  16  1   
 26   9  26  1   
 27  10  15  1   
 28  10  16  1   
 29  10  27  1   
 30  11  28  1   
 31  11  29  1   
 32  11  30  1   
 33  12  31  1   
 34  12  32  1   
 35  12  33  1   
 36  13  34  1   
 37  13  35  1   
 38  13  36  1   
 39  14  37  1   
 40  14  38  1   
 41  15  39  1   
 42  15  40  1   
 43  16  41  1   
 44  16  42  1   
@<TRIPOS>SUBSTRUCTURE
  1 ****   2 GROUP 4 **** **** 0

# MOE 2024.06 (io_trps.svl 2023.06)
