@<TRIPOS>MOLECULE
(8-Benzylamino-1,3-dimethyl-2,6-dioxo-1,2,3,6-tetrahydro-purin-7-yl)-acetic acid
49 51 1 0 0 
SMALL
USER_CHARGES


@<TRIPOS>ATOM
  1 O        0.7100     0.2570     0.2160 O.2   1 <1>  -0.5750 
  2 C        1.7730     0.8420     0.2510 C.2   1 <1>   0.6860 
  3 N        1.8180     2.1880     0.6000 N.am  1 <1>  -0.4260 
  4 N        2.9440     0.1650    -0.0670 N.am  1 <1>  -0.4420 
  5 C        3.0120     2.8950     0.5760 C.2   1 <1>   0.6990 
  6 C        0.5440     2.8860     0.9580 C.3   1 <1>   0.0520 
  7 C        4.1250     0.8810    -0.0780 C.2   1 <1>   0.4200 
  8 C        2.9100    -1.2870    -0.4140 C.3   1 <1>   0.0520 
  9 O        3.0410     4.0880     0.8280 O.2   1 <1>  -0.5750 
 10 C        4.2110     2.1910     0.2320 C.2   1 <1>   0.2700 
 11 N        5.3690     0.4320    -0.3980 N.pl3 1 <1>  -0.7040 
 12 N        5.5720     2.5450     0.1100 N.pl3 1 <1>  -0.7680 
 13 C        6.2220     1.4470    -0.2880 C.cat 1 <1>   1.0690 
 14 C        6.0820     3.9200     0.4900 C.3   1 <1>   0.4090 
 15 N        7.5160     1.3550    -0.5610 N.pl3 1 <1>  -0.7180 
 16 C        7.5270     3.9710     0.9930 C.2   1 <1>   0.6550 
 17 C        8.3320     0.1470    -0.7610 C.3   1 <1>   0.3040 
 18 O        7.7930     3.9480     2.1640 O.2   1 <1>  -0.5750 
 19 O        8.4620     3.9820     0.0500 O.3   1 <1>  -0.4360 
 20 C        9.6350     0.3850    -0.0330 C.ar  1 <1>  -0.1510 
 21 C        9.8360     4.0600     0.3680 C.3   1 <1>   0.1120 
 22 C        9.6660     0.4150     1.3540 C.ar  1 <1>  -0.1580 
 23 C       10.8080     0.5890    -0.7450 C.ar  1 <1>  -0.1580 
 24 C       10.6130     4.1810    -0.9380 C.3   1 <1>  -0.2470 
 25 C       10.8540     0.6540     2.0210 C.ar  1 <1>  -0.1580 
 26 C       11.9960     0.8280    -0.0770 C.ar  1 <1>  -0.1580 
 27 C       12.0190     0.8630     1.3060 C.ar  1 <1>  -0.1580 
 28 H       -0.0990     2.2250     1.5150 H     1 <1>   0.0720 
 29 H        0.0350     3.1900     0.0610 H     1 <1>   0.0720 
 30 H        0.7360     3.7550     1.5640 H     1 <1>   0.0720 
 31 H        2.0550    -1.7620     0.0360 H     1 <1>   0.0720 
 32 H        3.7930    -1.7830    -0.0520 H     1 <1>   0.0720 
 33 H        2.8430    -1.4030    -1.4820 H     1 <1>   0.0720 
 34 H        5.6090    -0.5060    -0.7030 H     1 <1>   0.4440 
 35 H        5.4690     4.3180     1.2790 H     1 <1>   0.0720 
 36 H        5.9880     4.5790    -0.3550 H     1 <1>   0.0720 
 37 H        8.1070     2.1920    -0.4810 H     1 <1>   0.4440 
 38 H        8.5120    -0.0040    -1.8120 H     1 <1>   0.0720 
 39 H        7.8450    -0.7250    -0.3570 H     1 <1>   0.0720 
 40 H       10.1210     3.1730     0.9080 H     1 <1>   0.0720 
 41 H        9.9990     4.9250     0.9910 H     1 <1>   0.0720 
 42 H        8.7720     0.2550     1.9320 H     1 <1>   0.1420 
 43 H       10.8150     0.5650    -1.8210 H     1 <1>   0.1420 
 44 H       10.4280     3.3320    -1.5700 H     1 <1>   0.0720 
 45 H       11.6660     4.2200    -0.7240 H     1 <1>   0.0720 
 46 H       10.3390     5.0840    -1.4540 H     1 <1>   0.0720 
 47 H       10.8760     0.6790     3.0970 H     1 <1>   0.1420 
 48 H       12.9050     0.9860    -0.6310 H     1 <1>   0.1420 
 49 H       12.9440     1.0480     1.8250 H     1 <1>   0.1420 
@<TRIPOS>BOND
  1   1   2  2   
  2   2   3  am  
  3   2   4  am  
  4   3   5  am  
  5   3   6  1   
  6   4   7  1   
  7   4   8  1   
  8   5   9  2   
  9   5  10  1   
 10   6  28  1   
 11   6  29  1   
 12   6  30  1   
 13   7  10  2   
 14   7  11  1   
 15   8  31  1   
 16   8  32  1   
 17   8  33  1   
 18  10  12  1   
 19  11  13  ar  
 20  11  34  1   
 21  12  13  ar  
 22  12  14  1   
 23  13  15  ar  
 24  14  16  1   
 25  14  35  1   
 26  14  36  1   
 27  15  17  1   
 28  15  37  1   
 29  16  18  2   
 30  16  19  1   
 31  17  20  1   
 32  17  38  1   
 33  17  39  1   
 34  19  21  1   
 35  20  22  ar  
 36  20  23  ar  
 37  21  24  1   
 38  21  40  1   
 39  21  41  1   
 40  22  25  ar  
 41  22  42  1   
 42  23  26  ar  
 43  23  43  1   
 44  24  44  1   
 45  24  45  1   
 46  24  46  1   
 47  25  27  ar  
 48  25  47  1   
 49  26  27  ar  
 50  26  48  1   
 51  27  49  1   
@<TRIPOS>SUBSTRUCTURE
  1 ****  13 GROUP 4 **** **** 0

# MOE 2024.06 (io_trps.svl 2023.06)
