@<TRIPOS>MOLECULE
3-[3-(3,4-Dimethoxy-phenyl)-[1,2,4]oxadiazol-5-yl]-1-piperidin-1-yl-propan-1-one
48 50 1 0 0 
SMALL
USER_CHARGES


@<TRIPOS>ATOM
  1 O        0.2250    -0.4200    -0.9320 O.2   1 <1>  -0.5700 
  2 C        0.6640    -1.3740    -0.3330 C.2   1 <1>   0.5690 
  3 N        1.8170    -1.2950     0.4080 N.am  1 <1>  -0.6600 
  4 C       -0.1020    -2.6860    -0.4220 C.3   1 <1>  -0.0990 
  5 C        2.4270    -2.4130     1.1850 C.3   1 <1>   0.1400 
  6 C        2.5980    -0.0260     0.4810 C.3   1 <1>   0.1400 
  7 C       -1.3750    -2.5960    -1.2810 C.3   1 <1>   0.0200 
  8 C        3.8460    -2.6810     0.6720 C.3   1 <1>  -0.1600 
  9 C        4.0220    -0.2650    -0.0330 C.3   1 <1>  -0.1600 
 10 C       -2.0920    -3.9300    -1.3360 C.2   1 <1>   0.2980 
 11 C        4.7110    -1.4140     0.7170 C.3   1 <1>  -0.1600 
 12 O       -1.5470    -4.9110    -2.0070 O.3   1 <1>  -0.0190 
 13 N       -3.1950    -4.2010    -0.7750 N.2   1 <1>  -0.5650 
 14 N       -2.3780    -5.8940    -1.8590 N.2   1 <1>  -0.4100 
 15 C       -3.3570    -5.4790    -1.1340 C.2   1 <1>   0.4620 
 16 C       -4.5080    -6.2700    -0.7320 C.ar  1 <1>   0.0540 
 17 C       -5.5210    -5.7420     0.0680 C.ar  1 <1>  -0.1500 
 18 C       -4.6510    -7.5980    -1.1330 C.ar  1 <1>  -0.1500 
 19 C       -6.6240    -6.4830     0.4540 C.ar  1 <1>   0.0820 
 20 C       -5.7390    -8.3620    -0.7520 C.ar  1 <1>  -0.1500 
 21 O       -7.5280    -5.8160     1.2250 O.3   1 <1>  -0.3630 
 22 C       -6.7390    -7.8230     0.0540 C.ar  1 <1>   0.0820 
 23 C       -8.9120    -6.0330     1.0550 C.3   1 <1>   0.0400 
 24 O       -7.8020    -8.5710     0.4680 O.3   1 <1>  -0.3630 
 25 C       -7.8690    -9.9640     0.2530 C.3   1 <1>   0.0400 
 26 H       -0.3800    -2.9870     0.5720 H     1 <1>   0.0800 
 27 H        0.5510    -3.4300    -0.8390 H     1 <1>   0.0800 
 28 H        1.8440    -3.3120     1.1080 H     1 <1>   0.0800 
 29 H        2.4650    -2.1320     2.2230 H     1 <1>   0.0800 
 30 H        2.6280     0.3080     1.5040 H     1 <1>   0.0800 
 31 H        2.1310     0.7470    -0.1060 H     1 <1>   0.0800 
 32 H       -1.1250    -2.2910    -2.2810 H     1 <1>   0.0800 
 33 H       -2.0390    -1.8590    -0.8640 H     1 <1>   0.0800 
 34 H        3.7880    -3.0450    -0.3390 H     1 <1>   0.0800 
 35 H        4.3020    -3.4490     1.2720 H     1 <1>   0.0800 
 36 H        4.5960     0.6370     0.0800 H     1 <1>   0.0800 
 37 H        3.9740    -0.4930    -1.0840 H     1 <1>   0.0800 
 38 H        5.6730    -1.6120     0.2760 H     1 <1>   0.0800 
 39 H        4.8690    -1.1250     1.7420 H     1 <1>   0.0800 
 40 H       -5.4550    -4.7220     0.4010 H     1 <1>   0.1500 
 41 H       -3.8940    -8.0420    -1.7560 H     1 <1>   0.1500 
 42 H       -5.7850    -9.3770    -1.0950 H     1 <1>   0.1500 
 43 H       -9.4340    -5.1710     1.4270 H     1 <1>   0.0800 
 44 H       -9.1980    -6.9020     1.6190 H     1 <1>   0.0800 
 45 H       -9.1220    -6.1710     0.0090 H     1 <1>   0.0800 
 46 H       -8.7550   -10.3330     0.7370 H     1 <1>   0.0800 
 47 H       -6.9980   -10.4260     0.6840 H     1 <1>   0.0800 
 48 H       -7.9260   -10.1520    -0.8040 H     1 <1>   0.0800 
@<TRIPOS>BOND
  1   1   2  2   
  2   2   3  am  
  3   2   4  1   
  4   3   5  1   
  5   3   6  1   
  6   4   7  1   
  7   4  26  1   
  8   4  27  1   
  9   5   8  1   
 10   5  28  1   
 11   5  29  1   
 12   6   9  1   
 13   6  30  1   
 14   6  31  1   
 15   7  10  1   
 16   7  32  1   
 17   7  33  1   
 18   8  11  1   
 19   8  34  1   
 20   8  35  1   
 21   9  11  1   
 22   9  36  1   
 23   9  37  1   
 24  10  12  1   
 25  10  13  2   
 26  11  38  1   
 27  11  39  1   
 28  12  14  1   
 29  13  15  1   
 30  14  15  2   
 31  15  16  1   
 32  16  17  ar  
 33  16  18  ar  
 34  17  19  ar  
 35  17  40  1   
 36  18  20  ar  
 37  18  41  1   
 38  19  21  1   
 39  19  22  ar  
 40  20  22  ar  
 41  20  42  1   
 42  21  23  1   
 43  22  24  1   
 44  23  43  1   
 45  23  44  1   
 46  23  45  1   
 47  24  25  1   
 48  25  46  1   
 49  25  47  1   
 50  25  48  1   
@<TRIPOS>SUBSTRUCTURE
  1 ****  13 GROUP 4 **** **** 0

# MOE 2024.06 (io_trps.svl 2023.06)
