@<TRIPOS>MOLECULE
NONAME
41 43 1 0 0 
SMALL
USER_CHARGES


@<TRIPOS>ATOM
  1 S       -0.6350     0.1120     1.7040 S.3   1 <1>  -0.4600 
  2 C       -1.8790     0.3240     0.3820 C.3   1 <1>   0.3680 
  3 C        0.5300    -1.1390     1.0930 C.3   1 <1>   0.1310 
  4 C       -2.4540    -1.0320    -0.0550 C.2   1 <1>  -0.1240 
  5 C       -2.9720     1.2120     1.0230 C.3   1 <1>  -0.1600 
  6 C       -1.1880     1.0640    -0.7890 C.3   1 <1>  -0.1600 
  7 C        0.0200    -2.5090     1.4790 C.2   1 <1>   0.5690 
  8 C       -3.5070    -1.0790    -0.9810 C.2   1 <1>   0.6160 
  9 C       -2.1710    -2.3400     0.2820 C.2   1 <1>   0.2090 
 10 C       -2.5070     2.6440     1.3510 C.3   1 <1>  -0.1600 
 11 C       -0.7240     2.4890    -0.4380 C.3   1 <1>  -0.1600 
 12 O        0.7320    -3.2610     2.0950 O.2   1 <1>  -0.5700 
 13 N       -1.2220    -2.9110     1.1160 N.am  1 <1>  -0.5390 
 14 O       -4.0260    -0.1720    -1.6450 O.2   1 <1>  -0.5700 
 15 N       -3.8830    -2.3580    -1.1490 N.am  1 <1>  -0.4100 
 16 N       -3.0250    -3.1770    -0.3680 N.pl3 1 <1>  -0.4890 
 17 C       -1.8830     3.3200     0.1240 C.3   1 <1>  -0.1600 
 18 C       -3.4870    -4.5160     0.0960 C.3   1 <1>   0.2890 
 19 C       -3.9340    -5.3560    -1.1000 C.3   1 <1>  -0.2400 
 20 C       -4.6190    -4.3440     1.1090 C.3   1 <1>  -0.2400 
 21 H        1.4740    -0.9470     1.5670 H     1 <1>   0.0800 
 22 H        0.6230    -1.0460     0.0300 H     1 <1>   0.0800 
 23 H       -3.3340     0.7380     1.9170 H     1 <1>   0.0800 
 24 H       -3.8050     1.2990     0.3510 H     1 <1>   0.0800 
 25 H       -1.8830     1.1490    -1.6040 H     1 <1>   0.0800 
 26 H       -0.3550     0.4940    -1.1530 H     1 <1>   0.0800 
 27 H       -1.7880     2.6240     2.1520 H     1 <1>   0.0800 
 28 H       -3.3490     3.2230     1.6890 H     1 <1>   0.0800 
 29 H       -0.3400     2.9670    -1.3230 H     1 <1>   0.0800 
 30 H        0.0730     2.4520     0.2840 H     1 <1>   0.0800 
 31 H       -1.4110    -3.8620     1.4190 H     1 <1>   0.3700 
 32 H       -4.1550    -2.6320    -2.0970 H     1 <1>   0.3700 
 33 H       -1.5260     4.2980     0.3970 H     1 <1>   0.0800 
 34 H       -2.6360     3.4440    -0.6360 H     1 <1>   0.0800 
 35 H       -2.6660    -5.0230     0.5720 H     1 <1>   0.0800 
 36 H       -4.7990    -4.9240    -1.5710 H     1 <1>   0.0800 
 37 H       -4.1880    -6.3480    -0.7730 H     1 <1>   0.0800 
 38 H       -3.1350    -5.4290    -1.8160 H     1 <1>   0.0800 
 39 H       -5.4620    -3.8550     0.6540 H     1 <1>   0.0800 
 40 H       -4.2810    -3.7560     1.9440 H     1 <1>   0.0800 
 41 H       -4.9360    -5.3030     1.4740 H     1 <1>   0.0800 
@<TRIPOS>BOND
  1   1   2  1   
  2   1   3  1   
  3   2   4  1   
  4   2   5  1   
  5   2   6  1   
  6   3   7  1   
  7   3  21  1   
  8   3  22  1   
  9   4   8  1   
 10   4   9  2   
 11   5  10  1   
 12   5  23  1   
 13   5  24  1   
 14   6  11  1   
 15   6  25  1   
 16   6  26  1   
 17   7  12  2   
 18   7  13  am  
 19   8  14  2   
 20   8  15  am  
 21   9  13  1   
 22   9  16  1   
 23  10  17  1   
 24  10  27  1   
 25  10  28  1   
 26  11  17  1   
 27  11  29  1   
 28  11  30  1   
 29  13  31  1   
 30  15  16  1   
 31  15  32  1   
 32  16  18  1   
 33  17  33  1   
 34  17  34  1   
 35  18  19  1   
 36  18  20  1   
 37  18  35  1   
 38  19  36  1   
 39  19  37  1   
 40  19  38  1   
 41  20  39  1   
 42  20  40  1   
 43  20  41  1   
@<TRIPOS>SUBSTRUCTURE
  1 ****   4 GROUP 4 **** **** 0

# MOE 2024.06 (io_trps.svl 2023.06)
