@<TRIPOS>MOLECULE
1-(2,5-Dimethoxy-benzenesulfonyl)-piperidine-4-carboxylic acid phenethyl-amide
58 60 1 0 0 
SMALL
USER_CHARGES


@<TRIPOS>ATOM
  1 S        0.0550    -0.2790    -1.5730 S.o2  1 <1>   1.4470 
  2 O        0.3250    -1.5520    -2.2090 O.2   1 <1>  -0.6500 
  3 O       -0.3680     0.8120    -2.4260 O.2   1 <1>  -0.6500 
  4 N        1.5110     0.2060    -0.8470 N.am  1 <1>  -0.8490 
  5 C       -1.0760    -0.5850    -0.1880 C.ar  1 <1>  -0.0090 
  6 C        1.4020     1.5320    -0.2280 C.3   1 <1>   0.1960 
  7 C        2.6130     0.1490    -1.8110 C.3   1 <1>   0.1960 
  8 C       -1.8890     0.4100     0.3540 C.ar  1 <1>   0.0820 
  9 C       -1.1390    -1.8510     0.3850 C.ar  1 <1>  -0.1500 
 10 C        2.6970     1.8950     0.5020 C.3   1 <1>  -0.1600 
 11 C        3.9460     0.4700    -1.1310 C.3   1 <1>  -0.1600 
 12 O       -1.8490     1.6700    -0.1280 O.3   1 <1>  -0.3620 
 13 C       -2.7360     0.1470     1.4200 C.ar  1 <1>  -0.1500 
 14 C       -1.9900    -2.1280     1.4500 C.ar  1 <1>   0.0820 
 15 C        3.9060     1.8450    -0.4450 C.3   1 <1>  -0.0190 
 16 C       -2.9200     2.0560    -0.9610 C.3   1 <1>   0.0400 
 17 C       -2.7880    -1.1220     1.9640 C.ar  1 <1>  -0.1500 
 18 O       -2.0930    -3.3480     2.0380 O.3   1 <1>  -0.3630 
 19 C        5.2130     2.1490     0.2850 C.2   1 <1>   0.5690 
 20 C       -1.3210    -4.4420     1.5910 C.3   1 <1>   0.0400 
 21 O        5.5620     1.4500     1.2050 O.2   1 <1>  -0.5700 
 22 N        5.9630     3.2040    -0.1320 N.am  1 <1>  -0.7300 
 23 C        7.2370     3.6240     0.4990 C.3   1 <1>   0.1400 
 24 C        8.4180     2.9840    -0.2300 C.3   1 <1>  -0.0170 
 25 C        9.7270     3.4320     0.4000 C.ar  1 <1>  -0.1430 
 26 C       10.4580     4.4720    -0.1530 C.ar  1 <1>  -0.1500 
 27 C       10.1970     2.8010     1.5410 C.ar  1 <1>  -0.1500 
 28 C       11.6470     4.8780     0.4300 C.ar  1 <1>  -0.1500 
 29 C       11.3850     3.2060     2.1250 C.ar  1 <1>  -0.1500 
 30 C       12.1110     4.2450     1.5700 C.ar  1 <1>  -0.1500 
 31 H        0.6020     1.5330     0.4910 H     1 <1>   0.0800 
 32 H        1.1800     2.2730    -0.9790 H     1 <1>   0.0800 
 33 H        2.4290     0.8430    -2.6160 H     1 <1>   0.0800 
 34 H        2.6770    -0.8410    -2.2320 H     1 <1>   0.0800 
 35 H       -0.5060    -2.6180    -0.0230 H     1 <1>   0.1500 
 36 H        2.8410     1.2040     1.3160 H     1 <1>   0.0800 
 37 H        2.6060     2.8800     0.9230 H     1 <1>   0.0800 
 38 H        4.7340     0.4510    -1.8620 H     1 <1>   0.0800 
 39 H        4.1560    -0.2950    -0.4030 H     1 <1>   0.0800 
 40 H       -3.3450     0.9340     1.8250 H     1 <1>   0.1500 
 41 H        3.7630     2.5920    -1.2050 H     1 <1>   0.0800 
 42 H       -2.7340     3.0570    -1.3050 H     1 <1>   0.0800 
 43 H       -3.8370     2.0220    -0.3990 H     1 <1>   0.0800 
 44 H       -2.9680     1.3850    -1.8010 H     1 <1>   0.0800 
 45 H       -3.4420    -1.3390     2.7890 H     1 <1>   0.1500 
 46 H       -1.5690    -5.2950     2.1960 H     1 <1>   0.0800 
 47 H       -0.2780    -4.2040     1.7070 H     1 <1>   0.0800 
 48 H       -1.5600    -4.6420     0.5620 H     1 <1>   0.0800 
 49 H        5.6570     3.7620    -0.9290 H     1 <1>   0.3700 
 50 H        7.2480     3.3190     1.5330 H     1 <1>   0.0800 
 51 H        7.3200     4.6960     0.4660 H     1 <1>   0.0800 
 52 H        8.4010     3.2610    -1.2680 H     1 <1>   0.0800 
 53 H        8.3400     1.9130    -0.1620 H     1 <1>   0.0800 
 54 H       10.1080     4.9720    -1.0390 H     1 <1>   0.1500 
 55 H        9.6380     1.9930     1.9810 H     1 <1>   0.1500 
 56 H       12.2100     5.6850    -0.0030 H     1 <1>   0.1500 
 57 H       11.7430     2.7120     3.0110 H     1 <1>   0.1500 
 58 H       13.0340     4.5590     2.0230 H     1 <1>   0.1500 
@<TRIPOS>BOND
  1   1   2  2   
  2   1   3  2   
  3   1   4  am  
  4   1   5  1   
  5   4   6  1   
  6   4   7  1   
  7   5   8  ar  
  8   5   9  ar  
  9   6  10  1   
 10   6  31  1   
 11   6  32  1   
 12   7  11  1   
 13   7  33  1   
 14   7  34  1   
 15   8  12  1   
 16   8  13  ar  
 17   9  14  ar  
 18   9  35  1   
 19  10  15  1   
 20  10  36  1   
 21  10  37  1   
 22  11  15  1   
 23  11  38  1   
 24  11  39  1   
 25  12  16  1   
 26  13  17  ar  
 27  13  40  1   
 28  14  17  ar  
 29  14  18  1   
 30  15  19  1   
 31  15  41  1   
 32  16  42  1   
 33  16  43  1   
 34  16  44  1   
 35  17  45  1   
 36  18  20  1   
 37  19  21  2   
 38  19  22  am  
 39  20  46  1   
 40  20  47  1   
 41  20  48  1   
 42  22  23  1   
 43  22  49  1   
 44  23  24  1   
 45  23  50  1   
 46  23  51  1   
 47  24  25  1   
 48  24  52  1   
 49  24  53  1   
 50  25  26  ar  
 51  25  27  ar  
 52  26  28  ar  
 53  26  54  1   
 54  27  29  ar  
 55  27  55  1   
 56  28  30  ar  
 57  28  56  1   
 58  29  30  ar  
 59  29  57  1   
 60  30  58  1   
@<TRIPOS>SUBSTRUCTURE
  1 ****  10 GROUP 4 **** **** 0

# MOE 2024.06 (io_trps.svl 2023.06)
