@<TRIPOS>MOLECULE
8-(2-Methoxy-ethyl)-1,7-dimethyl-3-(2-oxo-propyl)-1H,8H-imidazo[2,1-f]purine-2,4
44 46 1 0 0 
SMALL
USER_CHARGES


@<TRIPOS>ATOM
  1 O        0.9700    -0.1830    -0.2580 O.2   1 <1>  -0.5750 
  2 C        1.8810     0.5790    -0.0030 C.2   1 <1>   0.6860 
  3 N        1.6160     1.7750     0.6510 N.am  1 <1>  -0.4270 
  4 N        3.1820     0.2580    -0.3700 N.am  1 <1>  -0.4420 
  5 C        2.6340     2.6500     0.9940 C.2   1 <1>   0.6990 
  6 C        0.2390     2.3460     0.5280 C.3   1 <1>   0.1930 
  7 C        4.1730     1.1860    -0.1210 C.2   1 <1>   0.4200 
  8 C        3.4770    -1.0000    -1.1150 C.3   1 <1>   0.0510 
  9 O        2.3970     3.6420     1.6650 O.2   1 <1>  -0.5750 
 10 C        3.9510     2.3450     0.5460 C.2   1 <1>   0.2690 
 11 C        0.1050     3.1350    -0.7740 C.2   1 <1>   0.4420 
 12 N        5.4900     1.1150    -0.4600 N.pl3 1 <1>  -0.7040 
 13 N        5.1920     2.9950     0.6320 N.pl3 1 <1>  -0.6340 
 14 O        1.0460     3.3570    -1.4810 O.2   1 <1>  -0.5750 
 15 C       -1.2780     3.6340    -1.1330 C.3   1 <1>  -0.1870 
 16 C        6.0690     2.2160     0.0140 C.cat 1 <1>   1.0680 
 17 C        5.8840     4.1010     1.0800 C.2   1 <1>   0.2210 
 18 N        7.3030     2.7420     0.0320 N.pl3 1 <1>  -0.5730 
 19 C        7.1770     3.9470     0.7120 C.2   1 <1>   0.1560 
 20 C        8.5180     2.1950    -0.6460 C.3   1 <1>   0.1590 
 21 C        8.3490     4.8790     0.9560 C.3   1 <1>  -0.1110 
 22 C        8.8950     0.7780    -0.1820 C.3   1 <1>   0.1110 
 23 O        7.8720    -0.1250    -0.4910 O.3   1 <1>  -0.5650 
 24 C        8.1980    -1.4470    -0.1870 C.3   1 <1>   0.0310 
 25 H        0.0360     2.9960     1.3600 H     1 <1>   0.0710 
 26 H       -0.4930     1.5570     0.5450 H     1 <1>   0.0710 
 27 H        2.7570    -1.7620    -0.8650 H     1 <1>   0.0710 
 28 H        4.4560    -1.3670    -0.8620 H     1 <1>   0.0710 
 29 H        3.4270    -0.8130    -2.1730 H     1 <1>   0.0710 
 30 H        6.0780     0.3390    -0.7920 H     1 <1>   0.4440 
 31 H       -1.9500     2.8030    -1.2490 H     1 <1>   0.0710 
 32 H       -1.2390     4.1780    -2.0590 H     1 <1>   0.0710 
 33 H       -1.6460     4.2870    -0.3630 H     1 <1>   0.0710 
 34 H        5.4040     4.9040     1.6190 H     1 <1>   0.1420 
 35 H        9.3550     2.8430    -0.4550 H     1 <1>   0.0710 
 36 H        8.3580     2.1850    -1.7110 H     1 <1>   0.0710 
 37 H        8.7660     5.2060     0.0190 H     1 <1>   0.0710 
 38 H        9.1120     4.3760     1.5230 H     1 <1>   0.0710 
 39 H        8.0300     5.7450     1.5070 H     1 <1>   0.0710 
 40 H        9.0690     0.7620     0.8810 H     1 <1>   0.0710 
 41 H        9.7910     0.4620    -0.6900 H     1 <1>   0.0710 
 42 H        7.3620    -2.0730    -0.4470 H     1 <1>   0.0710 
 43 H        8.4010    -1.5330     0.8670 H     1 <1>   0.0710 
 44 H        9.0600    -1.7430    -0.7600 H     1 <1>   0.0710 
@<TRIPOS>BOND
  1   1   2  2   
  2   2   3  am  
  3   2   4  am  
  4   3   5  am  
  5   3   6  1   
  6   4   7  1   
  7   4   8  1   
  8   5   9  2   
  9   5  10  1   
 10   6  11  1   
 11   6  25  1   
 12   6  26  1   
 13   7  10  2   
 14   7  12  1   
 15   8  27  1   
 16   8  28  1   
 17   8  29  1   
 18  10  13  1   
 19  11  14  2   
 20  11  15  1   
 21  12  16  ar  
 22  12  30  1   
 23  13  16  ar  
 24  13  17  1   
 25  15  31  1   
 26  15  32  1   
 27  15  33  1   
 28  16  18  ar  
 29  17  19  2   
 30  17  34  1   
 31  18  19  1   
 32  18  20  1   
 33  19  21  1   
 34  20  22  1   
 35  20  35  1   
 36  20  36  1   
 37  21  37  1   
 38  21  38  1   
 39  21  39  1   
 40  22  23  1   
 41  22  40  1   
 42  22  41  1   
 43  23  24  1   
 44  24  42  1   
 45  24  43  1   
 46  24  44  1   
@<TRIPOS>SUBSTRUCTURE
  1 ****  10 GROUP 4 **** **** 0

# MOE 2024.06 (io_trps.svl 2023.06)
