@<TRIPOS>MOLECULE
3-tert-Butyl-6-(3,4-dimethoxy-benzyl)-[1,2,4]triazolo[3,4-b][1,3,4]thiadiazole
43 45 1 0 0 
SMALL
USER_CHARGES


@<TRIPOS>ATOM
  1 S       -2.0770    -0.3880     1.2200 S.3   1 <1>  -0.1970 
  2 C       -0.9220    -1.6360     1.6350 C.2   1 <1>   0.2420 
  3 C       -2.1760    -1.0970    -0.4060 C.2   1 <1>   0.5300 
  4 N       -0.2460    -1.9510     2.6800 N.2   1 <1>  -0.3380 
  5 N       -0.7310    -2.4170     0.5840 N.pl3 1 <1>   0.5050 
  6 N       -1.4360    -2.1140    -0.5910 N.2   1 <1>  -0.6520 
  7 C       -3.1120    -0.4190    -1.3860 C.3   1 <1>   0.0450 
  8 N        0.4580    -3.0340     2.3050 N.2   1 <1>  -0.3380 
  9 C        0.1630    -3.3020     1.0640 C.2   1 <1>   0.0070 
 10 C       -4.5660    -0.6550    -1.0040 C.ar  1 <1>  -0.1440 
 11 C        0.7320    -4.4580     0.2280 C.3   1 <1>   0.1800 
 12 C       -5.2540     0.2690    -0.2320 C.ar  1 <1>  -0.1500 
 13 C       -5.2120    -1.8070    -1.4200 C.ar  1 <1>  -0.1500 
 14 C        1.7230    -5.2940     1.0560 C.3   1 <1>  -0.2400 
 15 C        1.4780    -3.9060    -0.9960 C.3   1 <1>  -0.2400 
 16 C       -0.4040    -5.3810    -0.2360 C.3   1 <1>  -0.2400 
 17 C       -6.5790     0.0540     0.1360 C.ar  1 <1>   0.0830 
 18 C       -6.5330    -2.0240    -1.0760 C.ar  1 <1>  -0.1500 
 19 O       -7.2220     0.9520     0.9330 O.3   1 <1>  -0.3630 
 20 C       -7.2330    -1.1050    -0.3130 C.ar  1 <1>   0.0830 
 21 C       -6.5160     1.6230     1.9540 C.3   1 <1>   0.0400 
 22 O       -8.5310    -1.4360    -0.0580 O.3   1 <1>  -0.3630 
 23 C       -9.5200    -0.4410     0.0890 C.3   1 <1>   0.0400 
 24 H       -2.9300    -0.8120    -2.3690 H     1 <1>   0.0800 
 25 H       -2.8970     0.6340    -1.4100 H     1 <1>   0.0800 
 26 H       -4.7500     1.1630     0.0830 H     1 <1>   0.1500 
 27 H       -4.6950    -2.5420    -2.0140 H     1 <1>   0.1500 
 28 H        2.5390    -4.6810     1.3940 H     1 <1>   0.0800 
 29 H        2.1230    -6.1050     0.4740 H     1 <1>   0.0800 
 30 H        1.2320    -5.7050     1.9220 H     1 <1>   0.0800 
 31 H        0.8100    -3.3670    -1.6430 H     1 <1>   0.0800 
 32 H        1.9190    -4.7070    -1.5620 H     1 <1>   0.0800 
 33 H        2.2610    -3.2390    -0.6820 H     1 <1>   0.0800 
 34 H       -0.0100    -6.2190    -0.7840 H     1 <1>   0.0800 
 35 H       -0.9470    -5.7540     0.6140 H     1 <1>   0.0800 
 36 H       -1.0910    -4.8560    -0.8740 H     1 <1>   0.0800 
 37 H       -7.0360    -2.9170    -1.4030 H     1 <1>   0.1500 
 38 H       -7.2340     2.0550     2.6280 H     1 <1>   0.0800 
 39 H       -5.9170     2.4010     1.5160 H     1 <1>   0.0800 
 40 H       -5.9020     0.9130     2.4810 H     1 <1>   0.0800 
 41 H      -10.4790    -0.8960    -0.0760 H     1 <1>   0.0800 
 42 H       -9.3490     0.3350    -0.6360 H     1 <1>   0.0800 
 43 H       -9.4710    -0.0490     1.0880 H     1 <1>   0.0800 
@<TRIPOS>BOND
  1   1   2  1   
  2   1   3  1   
  3   2   4  2   
  4   2   5  1   
  5   3   6  2   
  6   3   7  1   
  7   4   8  1   
  8   5   6  1   
  9   5   9  1   
 10   7  10  1   
 11   7  24  1   
 12   7  25  1   
 13   8   9  2   
 14   9  11  1   
 15  10  12  ar  
 16  10  13  ar  
 17  11  14  1   
 18  11  15  1   
 19  11  16  1   
 20  12  17  ar  
 21  12  26  1   
 22  13  18  ar  
 23  13  27  1   
 24  14  28  1   
 25  14  29  1   
 26  14  30  1   
 27  15  31  1   
 28  15  32  1   
 29  15  33  1   
 30  16  34  1   
 31  16  35  1   
 32  16  36  1   
 33  17  19  1   
 34  17  20  ar  
 35  18  20  ar  
 36  18  37  1   
 37  19  21  1   
 38  20  22  1   
 39  21  38  1   
 40  21  39  1   
 41  21  40  1   
 42  22  23  1   
 43  23  41  1   
 44  23  42  1   
 45  23  43  1   
@<TRIPOS>SUBSTRUCTURE
  1 ****   3 GROUP 4 **** **** 0

# MOE 2024.06 (io_trps.svl 2023.06)
