@<TRIPOS>MOLECULE
1-(2-Dimethylamino-ethyl)-1H-indole-3-carbaldehyde
33 34 1 0 0 
SMALL
USER_CHARGES


@<TRIPOS>ATOM
  1 O       -0.7200     0.1140     1.2590 O.2   1 <1>  -0.5700 
  2 C       -1.7330    -0.3600     0.8040 C.2   1 <1>   0.5960 
  3 C       -2.0130    -1.7620     0.7360 C.2   1 <1>  -0.0860 
  4 C       -3.1720    -2.3450     0.1570 C.ar  1 <1>   0.0000 
  5 C       -1.2570    -2.8080     1.1900 C.2   1 <1>  -0.3020 
  6 C       -3.0550    -3.7240     0.3020 C.ar  1 <1>  -0.1520 
  7 C       -4.2980    -1.8120    -0.4790 C.ar  1 <1>  -0.1500 
  8 N       -1.8680    -3.9880     0.9420 N.pl3 1 <1>   0.0480 
  9 C       -4.0550    -4.5800    -0.1690 C.ar  1 <1>  -0.1500 
 10 C       -5.2770    -2.6570    -0.9480 C.ar  1 <1>  -0.1500 
 11 C       -1.2990    -5.3190     1.1870 C.3   1 <1>   0.0960 
 12 C       -5.1570    -4.0410    -0.7920 C.ar  1 <1>  -0.1500 
 13 C       -0.6860    -5.8100    -0.1280 C.3   1 <1>   0.3430 
 14 N       -0.0090    -7.1470    -0.0010 N.4   1 <1>  -0.9590 
 15 C        0.7530    -7.4500    -1.2540 C.3   1 <1>   0.2630 
 16 C       -0.9750    -8.2570     0.2880 C.3   1 <1>   0.2630 
 17 H       -2.4760     0.3150     0.4190 H     1 <1>   0.0600 
 18 H       -0.3010    -2.7300     1.6810 H     1 <1>   0.1500 
 19 H       -4.3950    -0.7480    -0.5980 H     1 <1>   0.1500 
 20 H       -3.9770    -5.6440    -0.0440 H     1 <1>   0.1500 
 21 H       -6.1490    -2.2590    -1.4390 H     1 <1>   0.1500 
 22 H       -2.0860    -5.9680     1.5230 H     1 <1>   0.0800 
 23 H       -0.5470    -5.2340     1.9500 H     1 <1>   0.0800 
 24 H       -5.9420    -4.6760    -1.1630 H     1 <1>   0.1500 
 25 H        0.0360    -5.0780    -0.4530 H     1 <1>   0.0800 
 26 H       -1.4610    -5.8660    -0.8750 H     1 <1>   0.0800 
 27 H        0.6750    -7.0970     0.7710 H     1 <1>   0.4500 
 28 H        0.0840    -7.5100    -2.0970 H     1 <1>   0.0800 
 29 H        1.2720    -8.3910    -1.1600 H     1 <1>   0.0800 
 30 H        1.4810    -6.6780    -1.4470 H     1 <1>   0.0800 
 31 H       -1.7100    -8.3300    -0.4980 H     1 <1>   0.0800 
 32 H       -1.4850    -8.0830     1.2220 H     1 <1>   0.0800 
 33 H       -0.4530    -9.1980     0.3570 H     1 <1>   0.0800 
@<TRIPOS>BOND
  1   1   2  2   
  2   2   3  1   
  3   2  17  1   
  4   3   4  1   
  5   3   5  2   
  6   4   6  ar  
  7   4   7  ar  
  8   5   8  1   
  9   5  18  1   
 10   6   8  1   
 11   6   9  ar  
 12   7  10  ar  
 13   7  19  1   
 14   8  11  1   
 15   9  12  ar  
 16   9  20  1   
 17  10  12  ar  
 18  10  21  1   
 19  11  13  1   
 20  11  22  1   
 21  11  23  1   
 22  12  24  1   
 23  13  14  1   
 24  13  25  1   
 25  13  26  1   
 26  14  15  1   
 27  14  16  1   
 28  14  27  1   
 29  15  28  1   
 30  15  29  1   
 31  15  30  1   
 32  16  31  1   
 33  16  32  1   
 34  16  33  1   
@<TRIPOS>SUBSTRUCTURE
  1 ****   8 GROUP 4 **** **** 0

# MOE 2024.06 (io_trps.svl 2023.06)
