@<TRIPOS>MOLECULE
2-(4-Methyl-benzylamino)-4,5,6,7-tetrahydro-cyclopenta[d][1,2,4]triazolo[1,5-a]p
39 42 1 0 0 
SMALL
USER_CHARGES


@<TRIPOS>ATOM
  1 O       -0.8600    -0.9700    -0.1670 O.2   1 <1>  -0.5700 
  2 C       -0.0410    -1.8790    -0.1920 C.2   1 <1>   0.5650 
  3 N       -0.3650    -3.1990    -0.5950 N.pl3 1 <1>   0.5610 
  4 C        1.3190    -1.6680     0.1950 C.2   1 <1>  -0.1240 
  5 N       -1.5230    -3.7720    -1.0130 N.2   1 <1>  -0.7070 
  6 C        0.5820    -4.1810    -0.5920 C.2   1 <1>   0.2700 
  7 C        2.2300    -2.6570     0.1830 C.2   1 <1>  -0.0380 
  8 C        1.9260    -0.3630     0.6520 C.3   1 <1>  -0.0220 
  9 C       -1.1600    -4.9820    -1.2220 C.2   1 <1>   0.5990 
 10 N        0.1140    -5.3100    -0.9720 N.2   1 <1>  -0.5650 
 11 N        1.8930    -3.9280    -0.2060 N.pl3 1 <1>  -0.5840 
 12 C        3.5990    -2.2130     0.6220 C.3   1 <1>  -0.0220 
 13 C        3.3710    -0.7450     1.0420 C.3   1 <1>  -0.1600 
 14 N       -2.0580    -5.8970    -1.6760 N.pl3 1 <1>  -0.8520 
 15 C       -2.2260    -7.0840    -0.8230 C.3   1 <1>   0.3530 
 16 C       -3.6710    -7.1290    -0.3570 C.ar  1 <1>  -0.1440 
 17 C       -4.5300    -8.1210    -0.8050 C.ar  1 <1>  -0.1500 
 18 C       -4.1470    -6.1700     0.5240 C.ar  1 <1>  -0.1500 
 19 C       -5.8450    -8.1560    -0.3730 C.ar  1 <1>  -0.1500 
 20 C       -5.4620    -6.2050     0.9540 C.ar  1 <1>  -0.1500 
 21 C       -6.3180    -7.1980     0.5080 C.ar  1 <1>  -0.1440 
 22 C       -7.7600    -7.2350     0.9810 C.3   1 <1>  -0.0970 
 23 H        1.3860     0.0390     1.4920 H     1 <1>   0.0800 
 24 H        1.9170     0.3490    -0.1550 H     1 <1>   0.0800 
 25 H        2.5580    -4.7090    -0.2420 H     1 <1>   0.4000 
 26 H        4.2910    -2.2790    -0.1990 H     1 <1>   0.0800 
 27 H        3.9510    -2.8050     1.4490 H     1 <1>   0.0800 
 28 H        3.4880    -0.6560     2.1080 H     1 <1>   0.0800 
 29 H        4.0810    -0.0950     0.5620 H     1 <1>   0.0800 
 30 H       -2.9590    -5.4170    -1.7240 H     1 <1>   0.4000 
 31 H       -1.5730    -7.0450     0.0330 H     1 <1>   0.0800 
 32 H       -1.9830    -7.9630    -1.3930 H     1 <1>   0.0800 
 33 H       -4.1810    -8.8710    -1.4930 H     1 <1>   0.1500 
 34 H       -3.4950    -5.3880     0.8750 H     1 <1>   0.1500 
 35 H       -6.4990    -8.9330    -0.7280 H     1 <1>   0.1500 
 36 H       -5.8150    -5.4530     1.6380 H     1 <1>   0.1500 
 37 H       -7.8300    -7.8140     1.8850 H     1 <1>   0.0800 
 38 H       -8.3900    -7.6800     0.2330 H     1 <1>   0.0800 
 39 H       -8.1160    -6.2400     1.1770 H     1 <1>   0.0800 
@<TRIPOS>BOND
  1   1   2  2   
  2   2   3  1   
  3   2   4  1   
  4   3   5  1   
  5   3   6  1   
  6   4   7  2   
  7   4   8  1   
  8   5   9  2   
  9   6  10  2   
 10   6  11  1   
 11   7  11  1   
 12   7  12  1   
 13   8  13  1   
 14   8  23  1   
 15   8  24  1   
 16   9  10  1   
 17   9  14  1   
 18  11  25  1   
 19  12  13  1   
 20  12  26  1   
 21  12  27  1   
 22  13  28  1   
 23  13  29  1   
 24  14  15  1   
 25  14  30  1   
 26  15  16  1   
 27  15  31  1   
 28  15  32  1   
 29  16  17  ar  
 30  16  18  ar  
 31  17  19  ar  
 32  17  33  1   
 33  18  20  ar  
 34  18  34  1   
 35  19  21  ar  
 36  19  35  1   
 37  20  21  ar  
 38  20  36  1   
 39  21  22  1   
 40  22  37  1   
 41  22  38  1   
 42  22  39  1   
@<TRIPOS>SUBSTRUCTURE
  1 ****   5 GROUP 4 **** **** 0

# MOE 2024.06 (io_trps.svl 2023.06)
