@<TRIPOS>MOLECULE
5-Methoxymethyl-2-trifluoromethyl-4H-[1,2,4]triazolo[1,5-a]pyrimidin-7-one
24 25 1 0 0 
SMALL
USER_CHARGES


@<TRIPOS>ATOM
  1 F       -0.4170     0.3580    -0.7560 F     1 <1>  -0.3400 
  2 C       -0.8970     1.1380     0.2110 C.3   1 <1>   1.2010 
  3 F       -0.2480     2.2960     0.0940 F     1 <1>  -0.3400 
  4 F       -0.4720     0.6030     1.3550 F     1 <1>  -0.3400 
  5 C       -2.4620     1.2820     0.1530 C.2   1 <1>   0.3350 
  6 N       -3.1050     2.4090     0.0050 N.2   1 <1>  -0.7070 
  7 N       -3.2630     0.1900     0.2590 N.2   1 <1>  -0.5650 
  8 N       -4.4100     2.0440     0.0130 N.pl3 1 <1>   0.5610 
  9 C       -4.4360     0.7000     0.1690 C.2   1 <1>   0.2700 
 10 C       -5.6210     2.7710    -0.1040 C.2   1 <1>   0.5650 
 11 N       -5.6290    -0.0030     0.2190 N.pl3 1 <1>  -0.5840 
 12 O       -5.6440     3.9850    -0.2460 O.2   1 <1>  -0.5700 
 13 C       -6.8280     2.0130    -0.0470 C.2   1 <1>  -0.1360 
 14 C       -6.8370     0.6590     0.1100 C.2   1 <1>  -0.0380 
 15 C       -8.1070    -0.1890     0.1750 C.3   1 <1>   0.2580 
 16 O       -9.2320     0.6230     0.0510 O.3   1 <1>  -0.5600 
 17 C      -10.4410    -0.0630     0.0990 C.3   1 <1>   0.0400 
 18 H       -5.5520    -1.0200     0.3390 H     1 <1>   0.4000 
 19 H       -7.7370     2.5800    -0.1370 H     1 <1>   0.1500 
 20 H       -8.1600    -0.7010     1.1200 H     1 <1>   0.0800 
 21 H       -8.1130    -0.9050    -0.6290 H     1 <1>   0.0800 
 22 H      -11.2360     0.6540    -0.0060 H     1 <1>   0.0800 
 23 H      -10.5300    -0.5650     1.0470 H     1 <1>   0.0800 
 24 H      -10.4830    -0.7700    -0.7120 H     1 <1>   0.0800 
@<TRIPOS>BOND
  1   1   2  1   
  2   2   3  1   
  3   2   4  1   
  4   2   5  1   
  5   5   6  2   
  6   5   7  1   
  7   6   8  1   
  8   7   9  2   
  9   8   9  1   
 10   8  10  1   
 11   9  11  1   
 12  10  12  2   
 13  10  13  1   
 14  11  14  1   
 15  11  18  1   
 16  13  14  2   
 17  13  19  1   
 18  14  15  1   
 19  15  16  1   
 20  15  20  1   
 21  15  21  1   
 22  16  17  1   
 23  17  22  1   
 24  17  23  1   
 25  17  24  1   
@<TRIPOS>SUBSTRUCTURE
  1 ****   9 GROUP 4 **** **** 0

# MOE 2024.06 (io_trps.svl 2023.06)
