@<TRIPOS>MOLECULE
3-tert-Butyl-6-(2-methoxy-phenyl)-[1,2,4]triazolo[3,4-b][1,3,4]thiadiazole
36 38 1 0 0 
SMALL
USER_CHARGES


@<TRIPOS>ATOM
  1 S       -0.3010     0.0280    -1.4940 S.3   1 <1>  -0.1970 
  2 C        0.6990     1.4460    -1.2960 C.2   1 <1>   0.2420 
  3 C       -1.5400     0.7940    -0.4610 C.2   1 <1>   0.5050 
  4 N        1.8550     1.8220    -1.7060 N.2   1 <1>  -0.3380 
  5 N        0.0640     2.3090    -0.5260 N.pl3 1 <1>   0.5050 
  6 N       -1.1940     1.9560    -0.0330 N.2   1 <1>  -0.6520 
  7 C       -2.7390     0.0310    -0.2210 C.ar  1 <1>   0.0860 
  8 N        2.0150     3.0460    -1.1680 N.2   1 <1>  -0.3380 
  9 C        0.9480     3.3240    -0.4720 C.2   1 <1>   0.0060 
 10 C       -4.0130     0.5630    -0.4640 C.ar  1 <1>   0.0830 
 11 C       -2.6570    -1.2740     0.2680 C.ar  1 <1>  -0.1500 
 12 C        0.6920     4.6170     0.3140 C.3   1 <1>   0.1800 
 13 O       -4.0830     1.8190    -0.9710 O.3   1 <1>  -0.3630 
 14 C       -5.1520    -0.1960    -0.2040 C.ar  1 <1>  -0.1500 
 15 C       -3.7890    -2.0240     0.5210 C.ar  1 <1>  -0.1500 
 16 C        1.8770     5.5870     0.1720 C.3   1 <1>  -0.2400 
 17 C        0.5090     4.3000     1.8060 C.3   1 <1>  -0.2400 
 18 C       -0.5670     5.3180    -0.2190 C.3   1 <1>  -0.2400 
 19 C       -5.3080     2.4860    -1.1870 C.3   1 <1>   0.0400 
 20 C       -5.0400    -1.4830     0.2860 C.ar  1 <1>  -0.1500 
 21 H       -1.6900    -1.7080     0.4600 H     1 <1>   0.1500 
 22 H       -6.1360     0.1950    -0.3810 H     1 <1>   0.1500 
 23 H       -3.7010    -3.0280     0.9000 H     1 <1>   0.1500 
 24 H        2.7780     5.1320     0.5440 H     1 <1>   0.0800 
 25 H        1.7010     6.4940     0.7210 H     1 <1>   0.0800 
 26 H        2.0320     5.8380    -0.8630 H     1 <1>   0.0800 
 27 H        1.3750     3.7860     2.1840 H     1 <1>   0.0800 
 28 H       -0.3520     3.6760     1.9630 H     1 <1>   0.0800 
 29 H        0.3740     5.2050     2.3720 H     1 <1>   0.0800 
 30 H       -0.4600     5.5210    -1.2700 H     1 <1>   0.0800 
 31 H       -0.7280     6.2490     0.2950 H     1 <1>   0.0800 
 32 H       -1.4370     4.7030    -0.0790 H     1 <1>   0.0800 
 33 H       -5.0900     3.4720    -1.5560 H     1 <1>   0.0800 
 34 H       -5.8370     2.5550    -0.2530 H     1 <1>   0.0800 
 35 H       -5.8800     1.9410    -1.9170 H     1 <1>   0.0800 
 36 H       -5.9240    -2.0660     0.4850 H     1 <1>   0.1500 
@<TRIPOS>BOND
  1   1   2  1   
  2   1   3  1   
  3   2   4  2   
  4   2   5  1   
  5   3   6  2   
  6   3   7  1   
  7   4   8  1   
  8   5   6  1   
  9   5   9  1   
 10   7  10  ar  
 11   7  11  ar  
 12   8   9  2   
 13   9  12  1   
 14  10  13  1   
 15  10  14  ar  
 16  11  15  ar  
 17  11  21  1   
 18  12  16  1   
 19  12  17  1   
 20  12  18  1   
 21  13  19  1   
 22  14  20  ar  
 23  14  22  1   
 24  15  20  ar  
 25  15  23  1   
 26  16  24  1   
 27  16  25  1   
 28  16  26  1   
 29  17  27  1   
 30  17  28  1   
 31  17  29  1   
 32  18  30  1   
 33  18  31  1   
 34  18  32  1   
 35  19  33  1   
 36  19  34  1   
 37  19  35  1   
 38  20  36  1   
@<TRIPOS>SUBSTRUCTURE
  1 ****   6 GROUP 4 **** **** 0

# MOE 2024.06 (io_trps.svl 2023.06)
