@<TRIPOS>MOLECULE
[2-(3,4-Dimethoxy-phenyl)-ethyl]-(4,6-dimethyl-pyrimidin-2-yl)-amine
42 43 1 0 0 
SMALL
USER_CHARGES


@<TRIPOS>ATOM
  1 O       -0.9160     0.2740     0.6040 O.3   1 <1>  -0.3630 
  2 C       -1.4610     1.4610     0.2110 C.ar  1 <1>   0.0830 
  3 C        0.2850    -0.1970     0.0360 C.3   1 <1>   0.0400 
  4 C       -0.7420     2.6010    -0.1850 C.ar  1 <1>   0.0830 
  5 C       -2.8460     1.4990     0.2280 C.ar  1 <1>  -0.1500 
  6 O        0.6240     2.5890    -0.1610 O.3   1 <1>  -0.3630 
  7 C       -1.4480     3.7360    -0.5790 C.ar  1 <1>  -0.1500 
  8 C       -3.5390     2.6340    -0.1580 C.ar  1 <1>  -0.1430 
  9 C        1.3860     3.7600    -0.3530 C.3   1 <1>   0.0400 
 10 C       -2.8310     3.7510    -0.5650 C.ar  1 <1>  -0.1500 
 11 C       -5.0580     2.6600    -0.1290 C.3   1 <1>  -0.0170 
 12 C       -5.5510     3.2640     1.1860 C.3   1 <1>   0.2090 
 13 N       -7.0300     3.2800     1.2120 N.pl3 1 <1>  -0.8690 
 14 C       -7.8130     4.2060     0.6130 C.ar  1 <1>   0.7200 
 15 N       -9.0830     3.8480     0.5030 N.ar  1 <1>  -0.6200 
 16 N       -7.2520     5.3360     0.1950 N.ar  1 <1>  -0.6200 
 17 C       -9.8710     4.7190    -0.0750 C.ar  1 <1>   0.1670 
 18 C       -8.0590     6.1910    -0.3790 C.ar  1 <1>   0.1670 
 19 C       -9.3990     5.9250    -0.5400 C.ar  1 <1>  -0.1500 
 20 C      -11.3300     4.3410    -0.2100 C.3   1 <1>  -0.0970 
 21 C       -7.4510     7.4910    -0.8600 C.3   1 <1>  -0.0970 
 22 H        1.1130     0.2770     0.5320 H     1 <1>   0.0800 
 23 H        0.3330    -1.2600     0.1860 H     1 <1>   0.0800 
 24 H        0.2890     0.0280    -1.0160 H     1 <1>   0.0800 
 25 H       -3.3770     0.6200     0.5470 H     1 <1>   0.1500 
 26 H       -0.9430     4.6260    -0.9010 H     1 <1>   0.1500 
 27 H        2.4220     3.5120    -0.2080 H     1 <1>   0.0800 
 28 H        1.2330     4.1160    -1.3570 H     1 <1>   0.0800 
 29 H        1.0820     4.4960     0.3700 H     1 <1>   0.0800 
 30 H       -3.3580     4.6390    -0.8700 H     1 <1>   0.1500 
 31 H       -5.4430     1.6620    -0.2340 H     1 <1>   0.0800 
 32 H       -5.4230     3.2520    -0.9500 H     1 <1>   0.0800 
 33 H       -5.1730     4.2670     1.2910 H     1 <1>   0.0800 
 34 H       -5.1870     2.6830     2.0160 H     1 <1>   0.0800 
 35 H       -7.5130     2.4000     1.3770 H     1 <1>   0.4000 
 36 H      -10.0530     6.6330    -1.0110 H     1 <1>   0.1500 
 37 H      -11.4150     3.4390    -0.7890 H     1 <1>   0.0800 
 38 H      -11.8900     5.1200    -0.6930 H     1 <1>   0.0800 
 39 H      -11.7460     4.1660     0.7660 H     1 <1>   0.0800 
 40 H       -6.6770     7.2820    -1.5750 H     1 <1>   0.0800 
 41 H       -7.0200     8.0140    -0.0260 H     1 <1>   0.0800 
 42 H       -8.1920     8.1180    -1.3200 H     1 <1>   0.0800 
@<TRIPOS>BOND
  1   1   2  1   
  2   1   3  1   
  3   2   4  ar  
  4   2   5  ar  
  5   3  22  1   
  6   3  23  1   
  7   3  24  1   
  8   4   6  1   
  9   4   7  ar  
 10   5   8  ar  
 11   5  25  1   
 12   6   9  1   
 13   7  10  ar  
 14   7  26  1   
 15   8  10  ar  
 16   8  11  1   
 17   9  27  1   
 18   9  28  1   
 19   9  29  1   
 20  10  30  1   
 21  11  12  1   
 22  11  31  1   
 23  11  32  1   
 24  12  13  1   
 25  12  33  1   
 26  12  34  1   
 27  13  14  1   
 28  13  35  1   
 29  14  15  ar  
 30  14  16  ar  
 31  15  17  ar  
 32  16  18  ar  
 33  17  19  ar  
 34  17  20  1   
 35  18  19  ar  
 36  18  21  1   
 37  19  36  1   
 38  20  37  1   
 39  20  38  1   
 40  20  39  1   
 41  21  40  1   
 42  21  41  1   
 43  21  42  1   
@<TRIPOS>SUBSTRUCTURE
  1 ****  11 GROUP 4 **** **** 0

# MOE 2024.06 (io_trps.svl 2023.06)
