@<TRIPOS>MOLECULE
8-Azepan-1-yl-7-(2-hydroxy-3-isopropoxy-propyl)-1,3-dimethyl-3,7-dihydro-purine-
60 62 1 0 0 
SMALL
USER_CHARGES


@<TRIPOS>ATOM
  1 O        2.7240     3.6780     2.9030 O.2   1 <1>  -0.5740 
  2 C        3.5080     3.4320     2.0090 C.2   1 <1>   0.6870 
  3 N        3.5430     4.2360     0.8750 N.am  1 <1>  -0.4250 
  4 N        4.3560     2.3390     2.1180 N.am  1 <1>  -0.4410 
  5 C        4.4220     3.9680    -0.1680 C.2   1 <1>   0.7000 
  6 C        2.5910     5.3860     0.7770 C.3   1 <1>   0.0540 
  7 C        5.1950     2.0620     1.0560 C.2   1 <1>   0.4220 
  8 C        4.3780     1.5070     3.3570 C.3   1 <1>   0.0540 
  9 O        4.4440     4.6760    -1.1630 O.2   1 <1>  -0.5740 
 10 C        5.2720     2.8200    -0.0550 C.2   1 <1>   0.2720 
 11 N        6.0390     1.0070     0.9180 N.pl3 1 <1>  -0.7030 
 12 N        6.2460     2.2250    -0.8790 N.pl3 1 <1>  -0.7670 
 13 C        6.6390     1.0950    -0.2720 C.cat 1 <1>   1.0690 
 14 C        7.0660     3.0550    -1.8210 C.3   1 <1>   0.3490 
 15 N        7.4300     0.1130    -0.7640 N.pl3 1 <1>  -0.5950 
 16 C        8.1520     3.9150    -1.1200 C.3   1 <1>   0.1940 
 17 C        7.4490    -0.2450    -2.2120 C.3   1 <1>   0.1620 
 18 C        8.1840    -0.8320     0.1050 C.3   1 <1>   0.1620 
 19 O        8.8400     3.1560    -0.1840 O.3   1 <1>  -0.6830 
 20 C        7.6320     5.1590    -0.3770 C.3   1 <1>   0.1140 
 21 C        8.8590    -0.4290    -2.7950 C.3   1 <1>  -0.1660 
 22 C        9.5880    -0.2840     0.3670 C.3   1 <1>  -0.1660 
 23 O        7.1240     4.7850     0.8810 O.3   1 <1>  -0.5640 
 24 C        9.9980     0.3520    -2.1170 C.3   1 <1>  -0.1660 
 25 C       10.5260    -0.3370    -0.8490 C.3   1 <1>  -0.1660 
 26 C        7.1760     5.7670     1.8670 C.3   1 <1>   0.1940 
 27 C        6.8710     5.0730     3.1890 C.3   1 <1>  -0.2460 
 28 C        6.1510     6.8630     1.5700 C.3   1 <1>  -0.2460 
 29 H        2.5090     5.8800     1.7310 H     1 <1>   0.0740 
 30 H        1.6190     5.0260     0.4890 H     1 <1>   0.0740 
 31 H        2.9260     6.1090     0.0540 H     1 <1>   0.0740 
 32 H        3.9990     2.0680     4.1950 H     1 <1>   0.0740 
 33 H        5.3830     1.2050     3.5880 H     1 <1>   0.0740 
 34 H        3.7600     0.6370     3.2200 H     1 <1>   0.0740 
 35 H        6.1670     0.2410     1.5660 H     1 <1>   0.4460 
 36 H        6.4200     3.6970    -2.3940 H     1 <1>   0.0740 
 37 H        7.5710     2.4230    -2.5260 H     1 <1>   0.0740 
 38 H        8.8590     4.2340    -1.8660 H     1 <1>   0.0740 
 39 H        6.9210     0.4940    -2.7850 H     1 <1>   0.0740 
 40 H        6.9070    -1.1670    -2.3430 H     1 <1>   0.0740 
 41 H        8.2510    -1.8000    -0.3640 H     1 <1>   0.0740 
 42 H        7.6810    -0.9650     1.0460 H     1 <1>   0.0740 
 43 H        8.5750     3.5030     0.7000 H     1 <1>   0.3950 
 44 H        6.8590     5.6570    -0.9370 H     1 <1>   0.0740 
 45 H        8.4510     5.8450    -0.2380 H     1 <1>   0.0740 
 46 H        8.8200    -0.1410    -3.8320 H     1 <1>   0.0740 
 47 H        9.1030    -1.4770    -2.7910 H     1 <1>   0.0740 
 48 H       10.0370    -0.8680     1.1510 H     1 <1>   0.0740 
 49 H        9.5220     0.7260     0.7290 H     1 <1>   0.0740 
 50 H        9.7020     1.3620    -1.9020 H     1 <1>   0.0740 
 51 H       10.8170     0.4080    -2.8130 H     1 <1>   0.0740 
 52 H       10.7610    -1.3640    -1.0750 H     1 <1>   0.0740 
 53 H       11.4520     0.1390    -0.5710 H     1 <1>   0.0740 
 54 H        8.1730     6.1770     1.9010 H     1 <1>   0.0740 
 55 H        5.8760     4.6690     3.1870 H     1 <1>   0.0740 
 56 H        6.9450     5.7800     3.9950 H     1 <1>   0.0740 
 57 H        7.5810     4.2860     3.3670 H     1 <1>   0.0740 
 58 H        5.1620     6.4530     1.5080 H     1 <1>   0.0740 
 59 H        6.3860     7.3770     0.6570 H     1 <1>   0.0740 
 60 H        6.1620     7.5880     2.3640 H     1 <1>   0.0740 
@<TRIPOS>BOND
  1   1   2  2   
  2   2   3  am  
  3   2   4  am  
  4   3   5  am  
  5   3   6  1   
  6   4   7  1   
  7   4   8  1   
  8   5   9  2   
  9   5  10  1   
 10   6  29  1   
 11   6  30  1   
 12   6  31  1   
 13   7  10  2   
 14   7  11  1   
 15   8  32  1   
 16   8  33  1   
 17   8  34  1   
 18  10  12  1   
 19  11  13  ar  
 20  11  35  1   
 21  12  13  ar  
 22  12  14  1   
 23  13  15  ar  
 24  14  16  1   
 25  14  36  1   
 26  14  37  1   
 27  15  17  1   
 28  15  18  1   
 29  16  19  1   
 30  16  20  1   
 31  16  38  1   
 32  17  21  1   
 33  17  39  1   
 34  17  40  1   
 35  18  22  1   
 36  18  41  1   
 37  18  42  1   
 38  19  43  1   
 39  20  23  1   
 40  20  44  1   
 41  20  45  1   
 42  21  24  1   
 43  21  46  1   
 44  21  47  1   
 45  22  25  1   
 46  22  48  1   
 47  22  49  1   
 48  23  26  1   
 49  24  25  1   
 50  24  50  1   
 51  24  51  1   
 52  25  52  1   
 53  25  53  1   
 54  26  27  1   
 55  26  28  1   
 56  26  54  1   
 57  27  55  1   
 58  27  56  1   
 59  27  57  1   
 60  28  58  1   
 61  28  59  1   
 62  28  60  1   
@<TRIPOS>SUBSTRUCTURE
  1 ****  10 GROUP 4 **** **** 0

# MOE 2024.06 (io_trps.svl 2023.06)
