@<TRIPOS>MOLECULE
4-(3-p-Tolyl-[1,2,4]oxadiazol-5-yl)-butyric acid
31 32 1 0 0 
SMALL
USER_CHARGES


@<TRIPOS>ATOM
  1 O        1.0060     0.5480    -0.9680 O.co2 1 <1>  -0.9000 
  2 C        1.4070     0.0440     0.0840 C.2   1 <1>   0.9060 
  3 O        1.1220     0.4880     1.1990 O.co2 1 <1>  -0.9000 
  4 C        2.2940    -1.1760     0.0030 C.3   1 <1>  -0.2660 
  5 C        1.4840    -2.4850     0.0100 C.3   1 <1>  -0.1600 
  6 C        2.4060    -3.7110    -0.0730 C.3   1 <1>   0.0200 
  7 C        1.6690    -5.0420    -0.0700 C.2   1 <1>   0.2980 
  8 O        2.3880    -6.1330    -0.1390 O.3   1 <1>  -0.0190 
  9 N        0.4150    -5.2270    -0.0090 N.2   1 <1>  -0.5650 
 10 N        1.5170    -7.0920    -0.1190 N.2   1 <1>  -0.4100 
 11 C        0.3480    -6.5600    -0.0420 C.2   1 <1>   0.4620 
 12 C       -0.9150    -7.2810     0.0050 C.ar  1 <1>   0.0540 
 13 C       -0.9560    -8.6750    -0.0320 C.ar  1 <1>  -0.1500 
 14 C       -2.1380    -6.6140     0.0890 C.ar  1 <1>  -0.1500 
 15 C       -2.1530    -9.3670     0.0130 C.ar  1 <1>  -0.1500 
 16 C       -3.3380    -7.3000     0.1340 C.ar  1 <1>  -0.1500 
 17 C       -3.3530    -8.6840     0.0980 C.ar  1 <1>  -0.1430 
 18 C       -4.6680    -9.4400     0.1460 C.3   1 <1>  -0.0970 
 19 H        2.9620    -1.1460     0.8420 H     1 <1>   0.0800 
 20 H        2.8700    -1.0980    -0.8990 H     1 <1>   0.0800 
 21 H        0.8040    -2.4810    -0.8260 H     1 <1>   0.0800 
 22 H        0.8970    -2.5290     0.9120 H     1 <1>   0.0800 
 23 H        3.0810    -3.6980     0.7630 H     1 <1>   0.0800 
 24 H        2.9890    -3.6500    -0.9730 H     1 <1>   0.0800 
 25 H       -0.0350    -9.2280    -0.0970 H     1 <1>   0.1500 
 26 H       -2.1500    -5.5370     0.1180 H     1 <1>   0.1500 
 27 H       -2.1450   -10.4430    -0.0190 H     1 <1>   0.1500 
 28 H       -4.2610    -6.7510     0.1970 H     1 <1>   0.1500 
 29 H       -4.5350   -10.3980     0.6170 H     1 <1>   0.0800 
 30 H       -5.0370    -9.5920    -0.8530 H     1 <1>   0.0800 
 31 H       -5.4000    -8.8870     0.7060 H     1 <1>   0.0800 
@<TRIPOS>BOND
  1   1   2  ar  
  2   2   3  ar  
  3   2   4  1   
  4   4   5  1   
  5   4  19  1   
  6   4  20  1   
  7   5   6  1   
  8   5  21  1   
  9   5  22  1   
 10   6   7  1   
 11   6  23  1   
 12   6  24  1   
 13   7   8  1   
 14   7   9  2   
 15   8  10  1   
 16   9  11  1   
 17  10  11  2   
 18  11  12  1   
 19  12  13  ar  
 20  12  14  ar  
 21  13  15  ar  
 22  13  25  1   
 23  14  16  ar  
 24  14  26  1   
 25  15  17  ar  
 26  15  27  1   
 27  16  17  ar  
 28  16  28  1   
 29  17  18  1   
 30  18  29  1   
 31  18  30  1   
 32  18  31  1   
@<TRIPOS>SUBSTRUCTURE
  1 ****   9 GROUP 4 **** **** 0

# MOE 2024.06 (io_trps.svl 2023.06)
