@<TRIPOS>MOLECULE
2-(5-Amino-4-phenyl-4H-[1,2,4]triazol-3-ylsulfanyl)-N-cyclohexyl-acetamide
44 46 1 0 0 
SMALL
USER_CHARGES


@<TRIPOS>ATOM
  1 S        0.8030    -0.4090     0.4070 S.3   1 <1>  -0.2860 
  2 C       -0.4680     0.4030     1.3920 C.2   1 <1>   0.2420 
  3 C        2.2870     0.6980     0.5820 C.3   1 <1>   0.1310 
  4 N       -0.2100     1.3020     2.2720 N.2   1 <1>  -0.3380 
  5 N       -1.7800     0.1380     1.2430 N.pl3 1 <1>   0.3260 
  6 C        2.0880     1.9740    -0.2220 C.2   1 <1>   0.5690 
  7 N       -1.3960     1.7060     2.7460 N.2   1 <1>  -0.3380 
  8 C       -2.4480    -0.7620     0.3720 C.ar  1 <1>  -0.0230 
  9 C       -2.3080     1.0170     2.1350 C.2   1 <1>   0.2700 
 10 O        2.7320     2.1330    -1.2310 O.2   1 <1>  -0.5700 
 11 N        1.1930     2.8940     0.2170 N.am  1 <1>  -0.7300 
 12 C       -3.4210    -0.2970    -0.5080 C.ar  1 <1>  -0.1500 
 13 C       -2.1520    -2.1220     0.3860 C.ar  1 <1>  -0.1500 
 14 N       -3.6600     1.1890     2.3970 N.pl3 1 <1>  -0.8840 
 15 C        0.7620     4.0970    -0.5020 C.3   1 <1>   0.2200 
 16 C       -4.0820    -1.1690    -1.3530 C.ar  1 <1>  -0.1500 
 17 C       -2.8130    -2.9940    -0.4600 C.ar  1 <1>  -0.1500 
 18 C        0.9930     5.3170     0.3940 C.3   1 <1>  -0.1600 
 19 C       -0.7200     3.9400    -0.8550 C.3   1 <1>  -0.1600 
 20 C       -3.7780    -2.5190    -1.3300 C.ar  1 <1>  -0.1500 
 21 C        0.4420     6.5960    -0.2550 C.3   1 <1>  -0.1600 
 22 C       -1.2760     5.2150    -1.5070 C.3   1 <1>  -0.1600 
 23 C       -1.0420     6.4400    -0.6130 C.3   1 <1>  -0.1600 
 24 H        3.1330     0.1520     0.2100 H     1 <1>   0.0800 
 25 H        2.4160     0.9150     1.6260 H     1 <1>   0.0800 
 26 H        0.6550     2.6980     1.0710 H     1 <1>   0.3700 
 27 H       -3.6630     0.7530    -0.5340 H     1 <1>   0.1500 
 28 H       -1.4010    -2.5040     1.0560 H     1 <1>   0.1500 
 29 H       -3.8430     1.7240     3.2520 H     1 <1>   0.4000 
 30 H       -4.2530     0.3570     2.3240 H     1 <1>   0.4000 
 31 H        1.3360     4.2060    -1.4090 H     1 <1>   0.0800 
 32 H       -4.8320    -0.8000    -2.0310 H     1 <1>   0.1500 
 33 H       -2.5750    -4.0440    -0.4440 H     1 <1>   0.1500 
 34 H        2.0480     5.4330     0.5710 H     1 <1>   0.0800 
 35 H        0.5020     5.1660     1.3400 H     1 <1>   0.0800 
 36 H       -1.2820     3.7310     0.0390 H     1 <1>   0.0800 
 37 H       -0.8370     3.1130    -1.5340 H     1 <1>   0.0800 
 38 H       -4.2920    -3.1990    -1.9880 H     1 <1>   0.1500 
 39 H        1.0030     6.8110    -1.1490 H     1 <1>   0.0800 
 40 H        0.5660     7.4250     0.4200 H     1 <1>   0.0800 
 41 H       -2.3300     5.0970    -1.6910 H     1 <1>   0.0800 
 42 H       -0.7900     5.3690    -2.4560 H     1 <1>   0.0800 
 43 H       -1.3860     7.3260    -1.1180 H     1 <1>   0.0800 
 44 H       -1.6170     6.3330     0.2920 H     1 <1>   0.0800 
@<TRIPOS>BOND
  1   1   2  1   
  2   1   3  1   
  3   2   4  2   
  4   2   5  1   
  5   3   6  1   
  6   3  24  1   
  7   3  25  1   
  8   4   7  1   
  9   5   8  1   
 10   5   9  1   
 11   6  10  2   
 12   6  11  am  
 13   7   9  2   
 14   8  12  ar  
 15   8  13  ar  
 16   9  14  1   
 17  11  15  1   
 18  11  26  1   
 19  12  16  ar  
 20  12  27  1   
 21  13  17  ar  
 22  13  28  1   
 23  14  29  1   
 24  14  30  1   
 25  15  18  1   
 26  15  19  1   
 27  15  31  1   
 28  16  20  ar  
 29  16  32  1   
 30  17  20  ar  
 31  17  33  1   
 32  18  21  1   
 33  18  34  1   
 34  18  35  1   
 35  19  22  1   
 36  19  36  1   
 37  19  37  1   
 38  20  38  1   
 39  21  23  1   
 40  21  39  1   
 41  21  40  1   
 42  22  23  1   
 43  22  41  1   
 44  22  42  1   
 45  23  43  1   
 46  23  44  1   
@<TRIPOS>SUBSTRUCTURE
  1 ****   2 GROUP 4 **** **** 0

# MOE 2024.06 (io_trps.svl 2023.06)
