@<TRIPOS>MOLECULE
2-Morpholin-4-yl-succinic acid 1-(tetrahydro-furan-2-ylmethyl) ester
40 41 1 0 0 
SMALL
USER_CHARGES


@<TRIPOS>ATOM
  1 O       -0.1960     1.6550     1.9140 O.2   1 <1>  -0.5700 
  2 C       -0.1230     2.1530     0.8140 C.2   1 <1>   0.6590 
  3 O        1.0330     2.1830     0.1560 O.3   1 <1>  -0.4300 
  4 C       -1.3180     2.8080     0.0800 C.3   1 <1>   0.2510 
  5 C        2.2100     1.6130     0.6920 C.3   1 <1>   0.1200 
  6 N       -1.6650     4.1890     0.5710 N.3   1 <1>  -0.8100 
  7 C       -2.5430     1.8780     0.1150 C.3   1 <1>  -0.2660 
  8 C        3.3390     1.7390    -0.3340 C.3   1 <1>   0.2000 
  9 C       -0.4790     5.0690     0.5820 C.3   1 <1>   0.1100 
 10 C       -2.7170     4.8150    -0.2680 C.3   1 <1>   0.1100 
 11 C       -3.1630     1.8110    -1.2480 C.2   1 <1>   0.9060 
 12 O        4.5340     1.3120     0.2320 O.3   1 <1>  -0.5600 
 13 C        3.6320     3.1650    -0.7850 C.3   1 <1>  -0.1600 
 14 C       -0.8460     6.4990     1.0160 C.3   1 <1>   0.1200 
 15 C       -3.0010     6.2670     0.1550 C.3   1 <1>   0.1200 
 16 O       -4.3160     2.2190    -1.4080 O.co2 1 <1>  -0.9000 
 17 O       -2.4770     1.3620    -2.1710 O.co2 1 <1>  -0.9000 
 18 C        5.6100     1.8300    -0.4810 C.3   1 <1>   0.1200 
 19 C        5.1140     3.1240    -1.1230 C.3   1 <1>  -0.1600 
 20 O       -1.8270     7.0320     0.1750 O.3   1 <1>  -0.5600 
 21 H       -1.0000     2.8990    -0.9450 H     1 <1>   0.0800 
 22 H        2.0160     0.5770     0.9100 H     1 <1>   0.0800 
 23 H        2.4570     2.1410     1.5960 H     1 <1>   0.0800 
 24 H       -3.2600     2.1960     0.8450 H     1 <1>   0.0800 
 25 H       -2.2440     0.8760     0.3510 H     1 <1>   0.0800 
 26 H        3.1410     1.1050    -1.1820 H     1 <1>   0.0800 
 27 H       -0.0350     5.1020    -0.3990 H     1 <1>   0.0800 
 28 H        0.2510     4.6850     1.2730 H     1 <1>   0.0800 
 29 H       -3.6360     4.2650    -0.1730 H     1 <1>   0.0800 
 30 H       -2.4280     4.7950    -1.3050 H     1 <1>   0.0800 
 31 H        3.4540     3.8460     0.0280 H     1 <1>   0.0800 
 32 H        3.0190     3.4450    -1.6230 H     1 <1>   0.0800 
 33 H        0.0160     7.1380     0.9600 H     1 <1>   0.0800 
 34 H       -1.2190     6.4990     2.0250 H     1 <1>   0.0800 
 35 H       -3.4410     6.2860     1.1360 H     1 <1>   0.0800 
 36 H       -3.6820     6.7250    -0.5400 H     1 <1>   0.0800 
 37 H        5.8950     1.1080    -1.2270 H     1 <1>   0.0800 
 38 H        6.4240     1.9990     0.2020 H     1 <1>   0.0800 
 39 H        5.6320     3.9780    -0.7230 H     1 <1>   0.0800 
 40 H        5.2710     3.0850    -2.1870 H     1 <1>   0.0800 
@<TRIPOS>BOND
  1   1   2  2   
  2   2   3  1   
  3   2   4  1   
  4   3   5  1   
  5   4   6  1   
  6   4   7  1   
  7   4  21  1   
  8   5   8  1   
  9   5  22  1   
 10   5  23  1   
 11   6   9  1   
 12   6  10  1   
 13   7  11  1   
 14   7  24  1   
 15   7  25  1   
 16   8  12  1   
 17   8  13  1   
 18   8  26  1   
 19   9  14  1   
 20   9  27  1   
 21   9  28  1   
 22  10  15  1   
 23  10  29  1   
 24  10  30  1   
 25  11  16  ar  
 26  11  17  ar  
 27  12  18  1   
 28  13  19  1   
 29  13  31  1   
 30  13  32  1   
 31  14  20  1   
 32  14  33  1   
 33  14  34  1   
 34  15  20  1   
 35  15  35  1   
 36  15  36  1   
 37  18  19  1   
 38  18  37  1   
 39  18  38  1   
 40  19  39  1   
 41  19  40  1   
@<TRIPOS>SUBSTRUCTURE
  1 ****   2 GROUP 4 **** **** 0

# MOE 2024.06 (io_trps.svl 2023.06)
