@<TRIPOS>MOLECULE
N-(5-Phenethyl-[1,3,4]thiadiazol-2-yl)-butyramide
36 37 1 0 0 
SMALL
USER_CHARGES


@<TRIPOS>ATOM
  1 S       -0.1860     0.9440     0.3680 S.3   1 <1>  -0.0800 
  2 C        1.2680     0.2900    -0.3230 C.2   1 <1>   0.4420 
  3 C       -0.9390    -0.5760     0.0280 C.2   1 <1>   0.1980 
  4 N        1.1120    -0.9170    -0.7260 N.2   1 <1>  -0.3380 
  5 N        2.4370     1.0160    -0.4080 N.am  1 <1>  -0.4940 
  6 N       -0.1490    -1.4050    -0.5230 N.2   1 <1>  -0.3380 
  7 C       -2.3950    -0.7540     0.4070 C.3   1 <1>   0.0200 
  8 C        2.7450     2.2920    -0.0360 C.2   1 <1>   0.5690 
  9 C       -3.3160    -0.0190    -0.5710 C.3   1 <1>  -0.0170 
 10 O        1.9600     3.0530     0.4650 O.2   1 <1>  -0.5700 
 11 C        4.1660     2.7660    -0.2760 C.3   1 <1>  -0.0990 
 12 C       -4.7700    -0.2200    -0.1800 C.ar  1 <1>  -0.1440 
 13 C        5.1680     2.1320     0.7030 C.3   1 <1>  -0.1600 
 14 C       -5.4780    -1.3100    -0.6610 C.ar  1 <1>  -0.1500 
 15 C       -5.3990     0.6820     0.6640 C.ar  1 <1>  -0.1500 
 16 C        6.5920     2.6340     0.4450 C.3   1 <1>  -0.2400 
 17 C       -6.8010    -1.4980    -0.3000 C.ar  1 <1>  -0.1500 
 18 C       -6.7230     0.4950     1.0250 C.ar  1 <1>  -0.1500 
 19 C       -7.4240    -0.5950     0.5430 C.ar  1 <1>  -0.1500 
 20 H        3.1980     0.4830    -0.8190 H     1 <1>   0.3700 
 21 H       -2.5510    -0.3880     1.4050 H     1 <1>   0.0800 
 22 H       -2.6300    -1.8040     0.3960 H     1 <1>   0.0800 
 23 H       -3.1530    -0.3910    -1.5680 H     1 <1>   0.0800 
 24 H       -3.0840     1.0320    -0.5740 H     1 <1>   0.0800 
 25 H        4.1890     3.8360    -0.1650 H     1 <1>   0.0800 
 26 H        4.4440     2.5380    -1.2890 H     1 <1>   0.0800 
 27 H        5.1490     1.0600     0.6100 H     1 <1>   0.0800 
 28 H        4.8820     2.3810     1.7120 H     1 <1>   0.0800 
 29 H       -5.0040    -2.0190    -1.3170 H     1 <1>   0.1500 
 30 H       -4.8640     1.5340     1.0460 H     1 <1>   0.1500 
 31 H        6.9090     2.3790    -0.5510 H     1 <1>   0.0800 
 32 H        7.2730     2.1830     1.1450 H     1 <1>   0.0800 
 33 H        6.6420     3.7020     0.5630 H     1 <1>   0.0800 
 34 H       -7.3460    -2.3460    -0.6770 H     1 <1>   0.1500 
 35 H       -7.2070     1.1980     1.6800 H     1 <1>   0.1500 
 36 H       -8.4530    -0.7410     0.8230 H     1 <1>   0.1500 
@<TRIPOS>BOND
  1   1   2  1   
  2   1   3  1   
  3   2   4  2   
  4   2   5  1   
  5   3   6  2   
  6   3   7  1   
  7   4   6  1   
  8   5   8  am  
  9   5  20  1   
 10   7   9  1   
 11   7  21  1   
 12   7  22  1   
 13   8  10  2   
 14   8  11  1   
 15   9  12  1   
 16   9  23  1   
 17   9  24  1   
 18  11  13  1   
 19  11  25  1   
 20  11  26  1   
 21  12  14  ar  
 22  12  15  ar  
 23  13  16  1   
 24  13  27  1   
 25  13  28  1   
 26  14  17  ar  
 27  14  29  1   
 28  15  18  ar  
 29  15  30  1   
 30  16  31  1   
 31  16  32  1   
 32  16  33  1   
 33  17  19  ar  
 34  17  34  1   
 35  18  19  ar  
 36  18  35  1   
 37  19  36  1   
@<TRIPOS>SUBSTRUCTURE
  1 ****   1 GROUP 4 **** **** 0

# MOE 2024.06 (io_trps.svl 2023.06)
