@<TRIPOS>MOLECULE
1-(3-Chloro-4-methoxy-benzenesulfonyl)-piperidine-4-carboxylic acid (furan-2-ylm
48 50 1 0 0 
SMALL
USER_CHARGES


@<TRIPOS>ATOM
  1 CL       2.8710     3.2040    -2.4350 Cl    1 <1>  -0.1770 
  2 C        2.8970     2.2220    -0.9860 C.ar  1 <1>   0.1770 
  3 C        2.0580     2.5210     0.0810 C.ar  1 <1>   0.0820 
  4 C        3.7710     1.1540    -0.9390 C.ar  1 <1>  -0.1500 
  5 O        1.2230     3.5880    -0.0290 O.3   1 <1>  -0.3630 
  6 C        2.1170     1.7100     1.2110 C.ar  1 <1>  -0.1500 
  7 C        3.8400     0.3430     0.1870 C.ar  1 <1>  -0.0090 
  8 C        0.3220     3.9370     0.9990 C.3   1 <1>   0.0400 
  9 C        2.9960     0.6400     1.2540 C.ar  1 <1>  -0.1500 
 10 S        4.9860    -1.0610     0.2540 S.o2  1 <1>   1.4470 
 11 O        4.5460    -2.0710    -0.6820 O.2   1 <1>  -0.6500 
 12 O        5.2350    -1.4320     1.6320 O.2   1 <1>  -0.6500 
 13 N        6.4340    -0.4070    -0.3410 N.am  1 <1>  -0.8490 
 14 C        7.3590    -1.4570    -0.7760 C.3   1 <1>   0.1960 
 15 C        7.0660     0.5010     0.6230 C.3   1 <1>   0.1960 
 16 C        8.5870    -0.8380    -1.4500 C.3   1 <1>  -0.1600 
 17 C        8.2720     1.1920    -0.0150 C.3   1 <1>  -0.1600 
 18 C        9.2950     0.1640    -0.5250 C.3   1 <1>  -0.0190 
 19 C       10.4750     0.8380    -1.2220 C.2   1 <1>   0.5690 
 20 O       10.2810     1.5490    -2.1780 O.2   1 <1>  -0.5700 
 21 N       11.7240     0.6210    -0.7490 N.am  1 <1>  -0.7300 
 22 C       12.9440     1.2510    -1.2840 C.3   1 <1>   0.3200 
 23 C       13.9190     1.4620    -0.1410 C.2   1 <1>  -0.0400 
 24 O       14.3390     0.4140     0.5450 O.3   1 <1>  -0.2800 
 25 C       14.4710     2.5950     0.3440 C.2   1 <1>  -0.1500 
 26 C       15.1670     0.8520     1.4730 C.2   1 <1>  -0.0100 
 27 C       15.2930     2.1940     1.4050 C.2   1 <1>  -0.1500 
 28 H        4.4040     0.9530    -1.7870 H     1 <1>   0.1500 
 29 H        1.4890     1.8950     2.0630 H     1 <1>   0.1500 
 30 H       -0.2320     4.8000     0.6750 H     1 <1>   0.0800 
 31 H        0.8790     4.1750     1.8880 H     1 <1>   0.0800 
 32 H       -0.3500     3.1150     1.1700 H     1 <1>   0.0800 
 33 H        3.0290     0.0200     2.1350 H     1 <1>   0.1500 
 34 H        6.8690    -2.1020    -1.4880 H     1 <1>   0.0800 
 35 H        7.6570    -2.0550     0.0700 H     1 <1>   0.0800 
 36 H        7.3780    -0.0480     1.4970 H     1 <1>   0.0800 
 37 H        6.3590     1.2530     0.9330 H     1 <1>   0.0800 
 38 H        8.2710    -0.3400    -2.3520 H     1 <1>   0.0800 
 39 H        9.2710    -1.6190    -1.7320 H     1 <1>   0.0800 
 40 H        8.7380     1.8390     0.7070 H     1 <1>   0.0800 
 41 H        7.9310     1.8060    -0.8320 H     1 <1>   0.0800 
 42 H        9.6730    -0.3770     0.3240 H     1 <1>   0.0800 
 43 H       11.8990     0.0390     0.0720 H     1 <1>   0.3700 
 44 H       12.7030     2.1930    -1.7460 H     1 <1>   0.0800 
 45 H       13.3860     0.6050    -2.0220 H     1 <1>   0.0800 
 46 H       14.3330     3.6090     0.0120 H     1 <1>   0.1500 
 47 H       15.6230     0.1410     2.1410 H     1 <1>   0.1500 
 48 H       15.8880     2.8470     2.0180 H     1 <1>   0.1500 
@<TRIPOS>BOND
  1   1   2  1   
  2   2   3  ar  
  3   2   4  ar  
  4   3   5  1   
  5   3   6  ar  
  6   4   7  ar  
  7   4  28  1   
  8   5   8  1   
  9   6   9  ar  
 10   6  29  1   
 11   7   9  ar  
 12   7  10  1   
 13   8  30  1   
 14   8  31  1   
 15   8  32  1   
 16   9  33  1   
 17  10  11  2   
 18  10  12  2   
 19  10  13  am  
 20  13  14  1   
 21  13  15  1   
 22  14  16  1   
 23  14  34  1   
 24  14  35  1   
 25  15  17  1   
 26  15  36  1   
 27  15  37  1   
 28  16  18  1   
 29  16  38  1   
 30  16  39  1   
 31  17  18  1   
 32  17  40  1   
 33  17  41  1   
 34  18  19  1   
 35  18  42  1   
 36  19  20  2   
 37  19  21  am  
 38  21  22  1   
 39  21  43  1   
 40  22  23  1   
 41  22  44  1   
 42  22  45  1   
 43  23  24  1   
 44  23  25  2   
 45  24  26  1   
 46  25  27  1   
 47  25  46  1   
 48  26  27  2   
 49  26  47  1   
 50  27  48  1   
@<TRIPOS>SUBSTRUCTURE
  1 ****  17 GROUP 4 **** **** 0

# MOE 2024.06 (io_trps.svl 2023.06)
