@<TRIPOS>MOLECULE
2-Chloro-N-[1-(4-ethyl-5-mercapto-4H-[1,2,4]triazol-3-yl)-2-methyl-propyl]-benza
41 42 1 0 0 
SMALL
USER_CHARGES


@<TRIPOS>ATOM
  1 CL       2.6480    -0.7230     1.9910 Cl    1 <1>  -0.1770 
  2 C        2.4930    -1.8290     0.6430 C.ar  1 <1>   0.1770 
  3 C        3.0160    -1.5440    -0.6260 C.ar  1 <1>   0.0860 
  4 C        1.8160    -3.0050     0.9160 C.ar  1 <1>  -0.1500 
  5 C        3.7420    -0.3320    -0.9820 C.2   1 <1>   0.5440 
  6 C        2.8080    -2.5210    -1.6060 C.ar  1 <1>  -0.1500 
  7 C        1.6330    -3.9460    -0.0790 C.ar  1 <1>  -0.1500 
  8 O        3.8610    -0.0080    -2.1460 O.2   1 <1>  -0.5700 
  9 N        4.3410     0.4730    -0.0620 N.am  1 <1>  -0.7300 
 10 C        2.1320    -3.7000    -1.3440 C.ar  1 <1>  -0.1500 
 11 C        5.1060     1.7050    -0.4050 C.3   1 <1>   0.3880 
 12 C        6.5550     1.3930    -0.8410 C.2   1 <1>   0.4850 
 13 C        5.0400     2.7060     0.7800 C.3   1 <1>  -0.0800 
 14 N        7.0790     1.8770    -1.9140 N.2   1 <1>  -0.2600 
 15 N        7.4540     0.6130    -0.1300 N.pl3 1 <1>  -0.7640 
 16 C        3.5900     3.0700     1.1550 C.3   1 <1>  -0.2400 
 17 C        5.8040     4.0070     0.4780 C.3   1 <1>  -0.2400 
 18 N        8.3590     1.4060    -1.8990 N.pl3 1 <1>  -0.3930 
 19 C        8.5690     0.6660    -0.8340 C.cat 1 <1>   0.7360 
 20 C        7.3090    -0.1890     1.0960 C.3   1 <1>   0.3540 
 21 S        9.9860    -0.0340    -0.4650 S.3   1 <1>  -0.9360 
 22 C        6.9840    -1.6340     0.7260 C.3   1 <1>  -0.2400 
 23 H        1.4290    -3.1830     1.9040 H     1 <1>   0.1500 
 24 H        3.1860    -2.3530    -2.6020 H     1 <1>   0.1500 
 25 H        1.1060    -4.8630     0.1270 H     1 <1>   0.1500 
 26 H        4.1520     0.3300     0.9310 H     1 <1>   0.3700 
 27 H        1.9930    -4.4260    -2.1270 H     1 <1>   0.1500 
 28 H        4.6230     2.1710    -1.2460 H     1 <1>   0.0800 
 29 H        5.5070     2.2540     1.6370 H     1 <1>   0.0800 
 30 H        3.0810     3.5090     0.3150 H     1 <1>   0.0800 
 31 H        3.5790     3.7780     1.9650 H     1 <1>   0.0800 
 32 H        3.0370     2.2050     1.4730 H     1 <1>   0.0800 
 33 H        5.4090     4.4870    -0.4020 H     1 <1>   0.0800 
 34 H        6.8520     3.8160     0.3240 H     1 <1>   0.0800 
 35 H        5.7190     4.6930     1.3030 H     1 <1>   0.0800 
 36 H        9.0970     1.5610    -2.5850 H     1 <1>   0.4500 
 37 H        6.5300     0.2180     1.7130 H     1 <1>   0.0800 
 38 H        8.2300    -0.1580     1.6570 H     1 <1>   0.0800 
 39 H        6.0930    -1.6870     0.1300 H     1 <1>   0.0800 
 40 H        6.8420    -2.2140     1.6190 H     1 <1>   0.0800 
 41 H        7.8040    -2.0590     0.1740 H     1 <1>   0.0800 
@<TRIPOS>BOND
  1   1   2  1   
  2   2   3  ar  
  3   2   4  ar  
  4   3   5  1   
  5   3   6  ar  
  6   4   7  ar  
  7   4  23  1   
  8   5   8  2   
  9   5   9  am  
 10   6  10  ar  
 11   6  24  1   
 12   7  10  ar  
 13   7  25  1   
 14   9  11  1   
 15   9  26  1   
 16  10  27  1   
 17  11  12  1   
 18  11  13  1   
 19  11  28  1   
 20  12  14  2   
 21  12  15  1   
 22  13  16  1   
 23  13  17  1   
 24  13  29  1   
 25  14  18  1   
 26  15  19  ar  
 27  15  20  1   
 28  16  30  1   
 29  16  31  1   
 30  16  32  1   
 31  17  33  1   
 32  17  34  1   
 33  17  35  1   
 34  18  19  ar  
 35  18  36  1   
 36  19  21  1   
 37  20  22  1   
 38  20  37  1   
 39  20  38  1   
 40  22  39  1   
 41  22  40  1   
 42  22  41  1   
@<TRIPOS>SUBSTRUCTURE
  1 ****   9 GROUP 4 **** **** 0

# MOE 2024.06 (io_trps.svl 2023.06)
