@<TRIPOS>MOLECULE
4,5-Dimethyl-2-(2-o-tolyloxy-butyrylamino)-thiophene-3-carboxylic acid amide
46 47 1 0 0 
SMALL
USER_CHARGES


@<TRIPOS>ATOM
  1 S       -0.8740     0.2800    -1.7430 S.3   1 <1>  -0.0800 
  2 C       -1.8850    -0.3830    -0.4730 C.2   1 <1>   0.1040 
  3 C        0.5820     0.0490    -0.7950 C.2   1 <1>  -0.1400 
  4 N       -3.2640    -0.4300    -0.6280 N.am  1 <1>  -0.4940 
  5 C       -1.1240    -0.7860     0.5890 C.2   1 <1>  -0.0860 
  6 C        0.2870    -0.5020     0.3990 C.2   1 <1>  -0.1810 
  7 C        1.8620     0.5110    -1.4670 C.3   1 <1>  -0.0600 
  8 C       -4.0990    -0.2160    -1.6970 C.2   1 <1>   0.5690 
  9 C       -1.7070    -1.4270     1.7400 C.2   1 <1>   0.7160 
 10 C        1.3240    -0.7780     1.4800 C.3   1 <1>  -0.0590 
 11 O       -3.7130     0.0340    -2.8140 O.2   1 <1>  -0.5700 
 12 C       -5.6070    -0.3480    -1.4660 C.3   1 <1>   0.2610 
 13 O       -2.8340    -1.1690     2.1160 O.2   1 <1>  -0.5700 
 14 N       -1.0700    -2.3960     2.4310 N.am  1 <1>  -0.8000 
 15 O       -5.9380     0.0370    -0.1340 O.3   1 <1>  -0.3630 
 16 C       -6.0880    -1.7940    -1.6830 C.3   1 <1>  -0.1600 
 17 C       -6.4460     1.2740     0.0870 C.ar  1 <1>   0.0820 
 18 C       -7.6060    -1.9630    -1.5140 C.3   1 <1>  -0.2400 
 19 C       -5.8620     2.0880     1.0540 C.ar  1 <1>  -0.1440 
 20 C       -7.5520     1.7230    -0.6250 C.ar  1 <1>  -0.1500 
 21 C       -6.3780     3.3550     1.2730 C.ar  1 <1>  -0.1500 
 22 C       -4.6690     1.6120     1.8710 C.3   1 <1>  -0.0970 
 23 C       -8.0590     2.9900    -0.3970 C.ar  1 <1>  -0.1500 
 24 C       -7.4690     3.8070     0.5510 C.ar  1 <1>  -0.1500 
 25 H       -3.7720    -0.6290     0.2430 H     1 <1>   0.3700 
 26 H        1.9780     0.0050    -2.4090 H     1 <1>   0.0800 
 27 H        2.7220     0.3040    -0.8600 H     1 <1>   0.0800 
 28 H        1.8130     1.5700    -1.6490 H     1 <1>   0.0800 
 29 H        2.2520    -0.2850     1.2590 H     1 <1>   0.0800 
 30 H        1.5150    -1.8320     1.5550 H     1 <1>   0.0800 
 31 H        0.9770    -0.4090     2.4280 H     1 <1>   0.0800 
 32 H       -6.1030     0.3030    -2.1610 H     1 <1>   0.0800 
 33 H       -1.5790    -2.8810     3.1690 H     1 <1>   0.3700 
 34 H       -0.2340    -2.8480     2.0670 H     1 <1>   0.3700 
 35 H       -5.5730    -2.4440    -0.9970 H     1 <1>   0.0800 
 36 H       -5.8160    -2.0960    -2.6800 H     1 <1>   0.0800 
 37 H       -7.9070    -1.6980    -0.5150 H     1 <1>   0.0800 
 38 H       -7.8840    -2.9870    -1.6910 H     1 <1>   0.0800 
 39 H       -8.1350    -1.3390    -2.2130 H     1 <1>   0.0800 
 40 H       -8.0250     1.0880    -1.3490 H     1 <1>   0.1500 
 41 H       -5.9320     4.0000     2.0100 H     1 <1>   0.1500 
 42 H       -4.8440     0.6150     2.2330 H     1 <1>   0.0800 
 43 H       -4.5030     2.2510     2.7190 H     1 <1>   0.0800 
 44 H       -3.7830     1.6150     1.2630 H     1 <1>   0.0800 
 45 H       -8.9130     3.3380    -0.9520 H     1 <1>   0.1500 
 46 H       -7.8610     4.7930     0.7290 H     1 <1>   0.1500 
@<TRIPOS>BOND
  1   1   2  1   
  2   1   3  1   
  3   2   4  1   
  4   2   5  2   
  5   3   6  2   
  6   3   7  1   
  7   4   8  am  
  8   4  25  1   
  9   5   6  1   
 10   5   9  1   
 11   6  10  1   
 12   7  26  1   
 13   7  27  1   
 14   7  28  1   
 15   8  11  2   
 16   8  12  1   
 17   9  13  2   
 18   9  14  am  
 19  10  29  1   
 20  10  30  1   
 21  10  31  1   
 22  12  15  1   
 23  12  16  1   
 24  12  32  1   
 25  14  33  1   
 26  14  34  1   
 27  15  17  1   
 28  16  18  1   
 29  16  35  1   
 30  16  36  1   
 31  17  19  ar  
 32  17  20  ar  
 33  18  37  1   
 34  18  38  1   
 35  18  39  1   
 36  19  21  ar  
 37  19  22  1   
 38  20  23  ar  
 39  20  40  1   
 40  21  24  ar  
 41  21  41  1   
 42  22  42  1   
 43  22  43  1   
 44  22  44  1   
 45  23  24  ar  
 46  23  45  1   
 47  24  46  1   
@<TRIPOS>SUBSTRUCTURE
  1 ****   4 GROUP 4 **** **** 0

# MOE 2024.06 (io_trps.svl 2023.06)
