@<TRIPOS>MOLECULE
N-(5-Chloro-2-morpholin-4-yl-phenyl)-2-(4-methoxy-phenoxy)-acetamide
47 49 1 0 0 
SMALL
USER_CHARGES


@<TRIPOS>ATOM
  1 CL       0.8680     0.4390     1.9460 Cl    1 <1>  -0.1770 
  2 C        2.1380     1.3930     1.2160 C.ar  1 <1>   0.1770 
  3 C        3.3380     1.5490     1.8830 C.ar  1 <1>  -0.1500 
  4 C        1.9170     1.9740    -0.0170 C.ar  1 <1>  -0.1500 
  5 C        4.3480     2.3050     1.3060 C.ar  1 <1>   0.1170 
  6 C        2.9220     2.7320    -0.5940 C.ar  1 <1>  -0.1500 
  7 N        5.5990     2.5140     1.9080 N.am  1 <1>  -0.5470 
  8 C        4.1380     2.9110     0.0560 C.ar  1 <1>   0.1000 
  9 C        6.2580     1.9200     2.9450 C.2   1 <1>   0.5690 
 10 N        5.1580     3.6810    -0.5300 N.pl3 1 <1>  -0.8380 
 11 O        5.7760     1.0490     3.6290 O.2   1 <1>  -0.5700 
 12 C        7.6880     2.3560     3.2530 C.3   1 <1>   0.1810 
 13 C        5.9200     3.0060    -1.6290 C.3   1 <1>   0.2090 
 14 C        4.8480     5.1220    -0.8060 C.3   1 <1>   0.2090 
 15 O        8.2740     3.1220     2.2040 O.3   1 <1>  -0.3630 
 16 C        6.7140     4.0180    -2.4740 C.3   1 <1>   0.1200 
 17 C        4.7630     5.4180    -2.3180 C.3   1 <1>   0.1200 
 18 C        8.6600     2.5610     1.0270 C.ar  1 <1>   0.0830 
 19 O        5.8980     5.0120    -3.0440 O.3   1 <1>  -0.5600 
 20 C        9.2580     3.4070     0.1080 C.ar  1 <1>  -0.1500 
 21 C        8.4780     1.2170     0.7050 C.ar  1 <1>  -0.1500 
 22 C        9.6620     2.9270    -1.1240 C.ar  1 <1>  -0.1500 
 23 C        8.8800     0.7390    -0.5310 C.ar  1 <1>  -0.1500 
 24 C        9.4700     1.5960    -1.4560 C.ar  1 <1>   0.0830 
 25 O        9.8740     1.2120    -2.6930 O.3   1 <1>  -0.3620 
 26 C        9.8190    -0.1400    -3.0910 C.3   1 <1>   0.0400 
 27 H        3.4700     1.0820     2.8400 H     1 <1>   0.1500 
 28 H        0.9740     1.8330    -0.5140 H     1 <1>   0.1500 
 29 H        2.7640     3.1840    -1.5550 H     1 <1>   0.1500 
 30 H        6.1600     3.1650     1.3440 H     1 <1>   0.3700 
 31 H        8.3090     1.5000     3.4440 H     1 <1>   0.0800 
 32 H        7.6780     2.9720     4.1320 H     1 <1>   0.0800 
 33 H        5.2440     2.4650    -2.2680 H     1 <1>   0.0800 
 34 H        6.6010     2.2970    -1.1950 H     1 <1>   0.0800 
 35 H        5.6190     5.7340    -0.3720 H     1 <1>   0.0800 
 36 H        3.9180     5.3900    -0.3360 H     1 <1>   0.0800 
 37 H        7.2280     3.5160    -3.2730 H     1 <1>   0.0800 
 38 H        7.4430     4.5080    -1.8550 H     1 <1>   0.0800 
 39 H        4.6340     6.4720    -2.4810 H     1 <1>   0.0800 
 40 H        3.9140     4.9070    -2.7350 H     1 <1>   0.0800 
 41 H        9.4050     4.4410     0.3630 H     1 <1>   0.1500 
 42 H        8.0240     0.5290     1.3930 H     1 <1>   0.1500 
 43 H       10.1290     3.5830    -1.8380 H     1 <1>   0.1500 
 44 H        8.7230    -0.2990    -0.7540 H     1 <1>   0.1500 
 45 H       10.2270    -0.2130    -4.0830 H     1 <1>   0.0800 
 46 H        8.7940    -0.4640    -3.0920 H     1 <1>   0.0800 
 47 H       10.4090    -0.7290    -2.4100 H     1 <1>   0.0800 
@<TRIPOS>BOND
  1   1   2  1   
  2   2   3  ar  
  3   2   4  ar  
  4   3   5  ar  
  5   3  27  1   
  6   4   6  ar  
  7   4  28  1   
  8   5   7  1   
  9   5   8  ar  
 10   6   8  ar  
 11   6  29  1   
 12   7   9  am  
 13   7  30  1   
 14   8  10  1   
 15   9  11  2   
 16   9  12  1   
 17  10  13  1   
 18  10  14  1   
 19  12  15  1   
 20  12  31  1   
 21  12  32  1   
 22  13  16  1   
 23  13  33  1   
 24  13  34  1   
 25  14  17  1   
 26  14  35  1   
 27  14  36  1   
 28  15  18  1   
 29  16  19  1   
 30  16  37  1   
 31  16  38  1   
 32  17  19  1   
 33  17  39  1   
 34  17  40  1   
 35  18  20  ar  
 36  18  21  ar  
 37  20  22  ar  
 38  20  41  1   
 39  21  23  ar  
 40  21  42  1   
 41  22  24  ar  
 42  22  43  1   
 43  23  24  ar  
 44  23  44  1   
 45  24  25  1   
 46  25  26  1   
 47  26  45  1   
 48  26  46  1   
 49  26  47  1   
@<TRIPOS>SUBSTRUCTURE
  1 ****  10 GROUP 4 **** **** 0

# MOE 2024.06 (io_trps.svl 2023.06)
