@<TRIPOS>MOLECULE
1,3-Dimethyl-8-m-tolyl-5,6,7,8-tetrahydro-1H-1,3,4b,8,9-pentaaza-fluorene-2,4-di
44 47 1 0 0 
SMALL
USER_CHARGES


@<TRIPOS>ATOM
  1 O        1.2850    -0.2750     1.2540 O.2   1 <1>  -0.5750 
  2 C        2.1240     0.5180     0.8800 C.2   1 <1>   0.6860 
  3 N        1.7750     1.8480     0.6620 N.am  1 <1>  -0.4260 
  4 N        3.4300     0.0940     0.6690 N.am  1 <1>  -0.4420 
  5 C        2.7180     2.7800     0.2470 C.2   1 <1>   0.6990 
  6 C        0.3610     2.2730     0.9080 C.3   1 <1>   0.0510 
  7 C        4.3520     1.0240     0.2290 C.2   1 <1>   0.4200 
  8 C        3.8220    -1.3290     0.8930 C.3   1 <1>   0.0510 
  9 O        2.4190     3.9510     0.0840 O.2   1 <1>  -0.5750 
 10 C        4.0540     2.3250     0.0170 C.2   1 <1>   0.2700 
 11 N        5.6680     0.8250    -0.0630 N.pl3 1 <1>  -0.7040 
 12 N        5.2440     2.9310    -0.4140 N.pl3 1 <1>  -0.7680 
 13 C        6.1800     1.9910    -0.4490 C.cat 1 <1>   1.0690 
 14 C        5.4580     4.3460    -0.7770 C.3   1 <1>   0.3470 
 15 N        7.4480     2.2250    -0.8320 N.pl3 1 <1>  -0.5800 
 16 C        6.9560     4.6570    -0.6740 C.3   1 <1>  -0.1680 
 17 C        8.4290     1.2310    -0.8210 C.ar  1 <1>   0.3040 
 18 C        7.8270     3.5750    -1.3310 C.3   1 <1>   0.1590 
 19 C        8.9160     0.7440     0.3860 C.ar  1 <1>  -0.1580 
 20 C        8.9040     0.6940    -2.0100 C.ar  1 <1>  -0.1580 
 21 C        9.8480    -0.2780     0.4120 C.ar  1 <1>  -0.1520 
 22 C        9.8390    -0.3240    -1.9910 C.ar  1 <1>  -0.1580 
 23 C       10.3060    -0.8090    -0.7830 C.ar  1 <1>  -0.1580 
 24 C       10.3800    -0.8110     1.7300 C.3   1 <1>  -0.1050 
 25 H       -0.3190     1.5190     0.5490 H     1 <1>   0.0710 
 26 H        0.1380     3.1950     0.4000 H     1 <1>   0.0710 
 27 H        0.2040     2.4060     1.9640 H     1 <1>   0.0710 
 28 H        3.1260    -1.8150     1.5560 H     1 <1>   0.0710 
 29 H        4.7990    -1.3840     1.3380 H     1 <1>   0.0710 
 30 H        3.8250    -1.8560    -0.0460 H     1 <1>   0.0710 
 31 H        6.1990    -0.0420    -0.0200 H     1 <1>   0.4440 
 32 H        4.9000     4.9890    -0.1160 H     1 <1>   0.0710 
 33 H        5.1120     4.5080    -1.7850 H     1 <1>   0.0710 
 34 H        7.2280     4.7500     0.3630 H     1 <1>   0.0710 
 35 H        7.1530     5.6070    -1.1370 H     1 <1>   0.0710 
 36 H        7.7000     3.6010    -2.4010 H     1 <1>   0.0710 
 37 H        8.8650     3.7650    -1.1110 H     1 <1>   0.0710 
 38 H        8.5700     1.1700     1.3100 H     1 <1>   0.1420 
 39 H        8.5440     1.0660    -2.9520 H     1 <1>   0.1420 
 40 H       10.2100    -0.7410    -2.9130 H     1 <1>   0.1420 
 41 H       11.0360    -1.6020    -0.7760 H     1 <1>   0.1420 
 42 H        9.7090    -0.5820     2.5390 H     1 <1>   0.0710 
 43 H       11.3380    -0.3690     1.9410 H     1 <1>   0.0710 
 44 H       10.4990    -1.8790     1.6810 H     1 <1>   0.0710 
@<TRIPOS>BOND
  1   1   2  2   
  2   2   3  am  
  3   2   4  am  
  4   3   5  am  
  5   3   6  1   
  6   4   7  1   
  7   4   8  1   
  8   5   9  2   
  9   5  10  1   
 10   6  25  1   
 11   6  26  1   
 12   6  27  1   
 13   7  10  2   
 14   7  11  1   
 15   8  28  1   
 16   8  29  1   
 17   8  30  1   
 18  10  12  1   
 19  11  13  ar  
 20  11  31  1   
 21  12  13  ar  
 22  12  14  1   
 23  13  15  ar  
 24  14  16  1   
 25  14  32  1   
 26  14  33  1   
 27  15  17  1   
 28  15  18  1   
 29  16  18  1   
 30  16  34  1   
 31  16  35  1   
 32  17  19  ar  
 33  17  20  ar  
 34  18  36  1   
 35  18  37  1   
 36  19  21  ar  
 37  19  38  1   
 38  20  22  ar  
 39  20  39  1   
 40  21  23  ar  
 41  21  24  1   
 42  22  23  ar  
 43  22  40  1   
 44  23  41  1   
 45  24  42  1   
 46  24  43  1   
 47  24  44  1   
@<TRIPOS>SUBSTRUCTURE
  1 ****  11 GROUP 4 **** **** 0

# MOE 2024.06 (io_trps.svl 2023.06)
