@<TRIPOS>MOLECULE
1-(3,4-Dichloro-benzyl)-piperidine-4-carboxylic acid (2-morpholin-4-yl-ethyl)-am
55 57 1 0 0 
SMALL
USER_CHARGES


@<TRIPOS>ATOM
  1 CL       0.6220     4.0200     4.0930 Cl    1 <1>  -0.1770 
  2 C        0.2560     3.8960     2.3900 C.ar  1 <1>   0.1770 
  3 C        1.1100     3.2330     1.5240 C.ar  1 <1>   0.1770 
  4 C       -0.9080     4.4780     1.9190 C.ar  1 <1>  -0.1500 
  5 CL       2.5840     2.4980     2.1040 Cl    1 <1>  -0.1770 
  6 C        0.8020     3.1460     0.1780 C.ar  1 <1>  -0.1500 
  7 C       -1.2210     4.4030     0.5670 C.ar  1 <1>  -0.1440 
  8 C       -0.3620     3.7300    -0.2980 C.ar  1 <1>  -0.1500 
  9 C       -2.4910     5.0480     0.0370 C.3   1 <1>   0.4870 
 10 N       -2.3180     6.5280     0.0230 N.4   1 <1>  -0.9590 
 11 C       -3.6090     7.2180    -0.2550 C.3   1 <1>   0.3430 
 12 C       -1.2390     6.9530    -0.9170 C.3   1 <1>   0.3430 
 13 C       -3.4250     8.7290    -0.1090 C.3   1 <1>  -0.1600 
 14 C       -1.0070     8.4580    -0.7850 C.3   1 <1>  -0.1600 
 15 C       -2.2970     9.2720    -1.0080 C.3   1 <1>  -0.0190 
 16 C       -2.0630    10.7620    -0.7480 C.2   1 <1>   0.5690 
 17 O       -1.7000    11.1160     0.3470 O.2   1 <1>  -0.5700 
 18 N       -2.2660    11.6650    -1.7420 N.am  1 <1>  -0.7300 
 19 C       -2.2060    13.1460    -1.5760 C.3   1 <1>   0.1400 
 20 C       -0.8070    13.6250    -1.1250 C.3   1 <1>   0.3430 
 21 N       -0.8470    14.5470     0.0600 N.4   1 <1>  -0.9590 
 22 C        0.4830    15.2210     0.2590 C.3   1 <1>   0.3430 
 23 C       -1.2210    13.8020     1.3180 C.3   1 <1>   0.3430 
 24 C        0.4980    16.0730     1.5430 C.3   1 <1>   0.1200 
 25 C       -1.1280    14.7010     2.5650 C.3   1 <1>   0.1200 
 26 O        0.1360    15.2950     2.6460 O.3   1 <1>  -0.5600 
 27 H       -1.5500     4.9760     2.6250 H     1 <1>   0.1500 
 28 H        1.4720     2.6230    -0.4840 H     1 <1>   0.1500 
 29 H       -0.5870     3.6470    -1.3490 H     1 <1>   0.1500 
 30 H       -3.3150     4.7780     0.6780 H     1 <1>   0.0800 
 31 H       -2.7020     4.6870    -0.9560 H     1 <1>   0.0800 
 32 H       -2.0110     6.7970     0.9670 H     1 <1>   0.4500 
 33 H       -4.3660     6.8830     0.4370 H     1 <1>   0.0800 
 34 H       -3.9390     6.9890    -1.2560 H     1 <1>   0.0800 
 35 H       -1.5210     6.7150    -1.9300 H     1 <1>   0.0800 
 36 H       -0.3220     6.4320    -0.6890 H     1 <1>   0.0800 
 37 H       -3.2160     8.9570     0.9230 H     1 <1>   0.0800 
 38 H       -4.3500     9.2190    -0.3600 H     1 <1>   0.0800 
 39 H       -0.2650     8.7610    -1.5030 H     1 <1>   0.0800 
 40 H       -0.6050     8.6640     0.1930 H     1 <1>   0.0800 
 41 H       -2.5980     9.1520    -2.0350 H     1 <1>   0.0800 
 42 H       -2.6140    11.3430    -2.6520 H     1 <1>   0.3700 
 43 H       -2.9530    13.4370    -0.8590 H     1 <1>   0.0800 
 44 H       -2.4480    13.6100    -2.5170 H     1 <1>   0.0800 
 45 H       -0.3380    14.1280    -1.9550 H     1 <1>   0.0800 
 46 H       -0.2080    12.7630    -0.8790 H     1 <1>   0.0800 
 47 H       -1.5490    15.2820    -0.0930 H     1 <1>   0.4500 
 48 H        0.7120    15.8480    -0.5860 H     1 <1>   0.0800 
 49 H        1.2600    14.4770     0.3410 H     1 <1>   0.0800 
 50 H       -0.5570    12.9640     1.4540 H     1 <1>   0.0800 
 51 H       -2.2210    13.4080     1.2340 H     1 <1>   0.0800 
 52 H       -0.1790    16.9060     1.4680 H     1 <1>   0.0800 
 53 H        1.4890    16.4520     1.7250 H     1 <1>   0.0800 
 54 H       -1.2700    14.1120     3.4540 H     1 <1>   0.0800 
 55 H       -1.8760    15.4750     2.5450 H     1 <1>   0.0800 
@<TRIPOS>BOND
  1   1   2  1   
  2   2   3  ar  
  3   2   4  ar  
  4   3   5  1   
  5   3   6  ar  
  6   4   7  ar  
  7   4  27  1   
  8   6   8  ar  
  9   6  28  1   
 10   7   8  ar  
 11   7   9  1   
 12   8  29  1   
 13   9  10  1   
 14   9  30  1   
 15   9  31  1   
 16  10  11  1   
 17  10  12  1   
 18  10  32  1   
 19  11  13  1   
 20  11  33  1   
 21  11  34  1   
 22  12  14  1   
 23  12  35  1   
 24  12  36  1   
 25  13  15  1   
 26  13  37  1   
 27  13  38  1   
 28  14  15  1   
 29  14  39  1   
 30  14  40  1   
 31  15  16  1   
 32  15  41  1   
 33  16  17  2   
 34  16  18  am  
 35  18  19  1   
 36  18  42  1   
 37  19  20  1   
 38  19  43  1   
 39  19  44  1   
 40  20  21  1   
 41  20  45  1   
 42  20  46  1   
 43  21  22  1   
 44  21  23  1   
 45  21  47  1   
 46  22  24  1   
 47  22  48  1   
 48  22  49  1   
 49  23  25  1   
 50  23  50  1   
 51  23  51  1   
 52  24  26  1   
 53  24  52  1   
 54  24  53  1   
 55  25  26  1   
 56  25  54  1   
 57  25  55  1   
@<TRIPOS>SUBSTRUCTURE
  1 ****  14 GROUP 4 **** **** 0

# MOE 2024.06 (io_trps.svl 2023.06)
