@<TRIPOS>MOLECULE
1-(4-Methoxy-benzenesulfonyl)-piperidine-4-carboxylic acid (2-methoxy-1-methyl-e
51 52 1 0 0 
SMALL
USER_CHARGES


@<TRIPOS>ATOM
  1 S       -0.4070     0.5510    -1.9470 S.o2  1 <1>   1.4470 
  2 O        0.0430    -0.2990    -3.0300 O.2   1 <1>  -0.6500 
  3 O       -1.2190     1.7080    -2.2520 O.2   1 <1>  -0.6500 
  4 N        0.9920     1.1080    -1.1640 N.am  1 <1>  -0.8490 
  5 C       -1.2340    -0.4430    -0.6750 C.ar  1 <1>  -0.0090 
  6 C        1.5980     2.2260    -1.8900 C.3   1 <1>   0.1960 
  7 C        1.9570     0.0280    -0.9310 C.3   1 <1>   0.1960 
  8 C       -1.7230    -1.7150    -0.9570 C.ar  1 <1>  -0.1500 
  9 C       -1.4050     0.0460     0.6160 C.ar  1 <1>  -0.1500 
 10 C        2.7710     2.8060    -1.0950 C.3   1 <1>  -0.1600 
 11 C        3.1310     0.5380    -0.0930 C.3   1 <1>  -0.1600 
 12 C       -2.3530    -2.4780     0.0110 C.ar  1 <1>  -0.1500 
 13 C       -2.0320    -0.7090     1.5910 C.ar  1 <1>  -0.1500 
 14 C        3.8220     1.7310    -0.7750 C.3   1 <1>  -0.0190 
 15 C       -2.5100    -1.9750     1.2990 C.ar  1 <1>   0.0830 
 16 C        4.9610     2.3030     0.0680 C.2   1 <1>   0.5690 
 17 O       -3.1100    -2.6520     2.3070 O.3   1 <1>  -0.3630 
 18 O        4.7660     2.5520     1.2330 O.2   1 <1>  -0.5700 
 19 N        6.1590     2.5250    -0.5390 N.am  1 <1>  -0.7300 
 20 C       -3.6550    -3.9370     2.1090 C.3   1 <1>   0.0400 
 21 C        7.3730     3.1490     0.0470 C.3   1 <1>   0.2200 
 22 C        7.7190     2.5810     1.4360 C.3   1 <1>   0.1200 
 23 C        7.1700     4.6640     0.0710 C.3   1 <1>  -0.2400 
 24 O        9.0110     2.9820     1.7880 O.3   1 <1>  -0.5600 
 25 C        9.3910     2.5800     3.0630 C.3   1 <1>   0.0400 
 26 H        0.8660     3.0050    -2.0350 H     1 <1>   0.0800 
 27 H        1.9300     1.8940    -2.8610 H     1 <1>   0.0800 
 28 H        2.3180    -0.3550    -1.8720 H     1 <1>   0.0800 
 29 H        1.4790    -0.7800    -0.4010 H     1 <1>   0.0800 
 30 H       -1.6070    -2.1130    -1.9520 H     1 <1>   0.1500 
 31 H       -1.0400     1.0300     0.8580 H     1 <1>   0.1500 
 32 H        2.3930     3.2280    -0.1790 H     1 <1>   0.0800 
 33 H        3.2240     3.6020    -1.6580 H     1 <1>   0.0800 
 34 H        3.8400    -0.2570     0.0530 H     1 <1>   0.0800 
 35 H        2.7630     0.8310     0.8760 H     1 <1>   0.0800 
 36 H       -2.7120    -3.4540    -0.2530 H     1 <1>   0.1500 
 37 H       -2.1560    -0.3200     2.5860 H     1 <1>   0.1500 
 38 H        4.2360     1.3820    -1.7040 H     1 <1>   0.0800 
 39 H        6.2400     2.3380    -1.5370 H     1 <1>   0.3700 
 40 H       -4.0830    -4.2650     3.0390 H     1 <1>   0.0800 
 41 H       -2.8680    -4.6080     1.8120 H     1 <1>   0.0800 
 42 H       -4.4200    -3.8800     1.3550 H     1 <1>   0.0800 
 43 H        8.2000     2.9200    -0.6020 H     1 <1>   0.0800 
 44 H        7.6940     1.5060     1.4130 H     1 <1>   0.0800 
 45 H        7.0320     2.9520     2.1760 H     1 <1>   0.0800 
 46 H        6.3510     4.9200     0.7210 H     1 <1>   0.0800 
 47 H        6.9740     5.0330    -0.9180 H     1 <1>   0.0800 
 48 H        8.0580     5.1410     0.4430 H     1 <1>   0.0800 
 49 H       10.3930     2.9280     3.2390 H     1 <1>   0.0800 
 50 H        9.3640     1.5050     3.1200 H     1 <1>   0.0800 
 51 H        8.7230     3.0150     3.7860 H     1 <1>   0.0800 
@<TRIPOS>BOND
  1   1   2  2   
  2   1   3  2   
  3   1   4  am  
  4   1   5  1   
  5   4   6  1   
  6   4   7  1   
  7   5   8  ar  
  8   5   9  ar  
  9   6  10  1   
 10   6  26  1   
 11   6  27  1   
 12   7  11  1   
 13   7  28  1   
 14   7  29  1   
 15   8  12  ar  
 16   8  30  1   
 17   9  13  ar  
 18   9  31  1   
 19  10  14  1   
 20  10  32  1   
 21  10  33  1   
 22  11  14  1   
 23  11  34  1   
 24  11  35  1   
 25  12  15  ar  
 26  12  36  1   
 27  13  15  ar  
 28  13  37  1   
 29  14  16  1   
 30  14  38  1   
 31  15  17  1   
 32  16  18  2   
 33  16  19  am  
 34  17  20  1   
 35  19  21  1   
 36  19  39  1   
 37  20  40  1   
 38  20  41  1   
 39  20  42  1   
 40  21  22  1   
 41  21  23  1   
 42  21  43  1   
 43  22  24  1   
 44  22  44  1   
 45  22  45  1   
 46  23  46  1   
 47  23  47  1   
 48  23  48  1   
 49  24  25  1   
 50  25  49  1   
 51  25  50  1   
 52  25  51  1   
@<TRIPOS>SUBSTRUCTURE
  1 ****  11 GROUP 4 **** **** 0

# MOE 2024.06 (io_trps.svl 2023.06)
