@<TRIPOS>MOLECULE
1-(2,5-Dimethoxy-benzenesulfonyl)-piperidine-4-carboxylic acid (2-cyclohex-1-eny
62 64 1 0 0 
SMALL
USER_CHARGES


@<TRIPOS>ATOM
  1 S       -0.1610    -0.2360     1.2010 S.o2  1 <1>   1.4470 
  2 O        0.0530    -1.4780     1.9150 O.2   1 <1>  -0.6500 
  3 O       -0.5770     0.9130     1.9780 O.2   1 <1>  -0.6500 
  4 N        1.3290     0.1660     0.4920 N.am  1 <1>  -0.8490 
  5 C       -1.2610    -0.5900    -0.1990 C.ar  1 <1>  -0.0090 
  6 C        2.4010     0.1340     1.4910 C.3   1 <1>   0.1960 
  7 C        1.2760     1.4570    -0.2030 C.3   1 <1>   0.1960 
  8 C       -2.0280     0.3950    -0.8190 C.ar  1 <1>   0.0830 
  9 C       -1.3440    -1.8840    -0.7010 C.ar  1 <1>  -0.1500 
 10 C        3.7610     0.3810     0.8350 C.3   1 <1>  -0.1600 
 11 C        2.6010     1.7430    -0.9120 C.3   1 <1>  -0.1600 
 12 O       -1.9660     1.6780    -0.4090 O.3   1 <1>  -0.3620 
 13 C       -2.8520     0.0940    -1.8940 C.ar  1 <1>  -0.1500 
 14 C       -2.1710    -2.1990    -1.7740 C.ar  1 <1>   0.0830 
 15 C        3.7790     1.7160     0.0740 C.3   1 <1>  -0.0190 
 16 C       -3.0490     2.1400     0.3690 C.3   1 <1>   0.0400 
 17 C       -2.9250    -1.2010    -2.3670 C.ar  1 <1>  -0.1500 
 18 O       -2.2930    -3.4460    -2.2950 O.3   1 <1>  -0.3630 
 19 C        5.1140     1.9490    -0.6310 C.2   1 <1>   0.5690 
 20 C       -1.5660    -4.5330    -1.7650 C.3   1 <1>   0.0400 
 21 O        5.4920     1.1650    -1.4670 O.2   1 <1>  -0.5700 
 22 N        5.8460     3.0430    -0.2900 N.am  1 <1>  -0.7300 
 23 C        7.1550     3.4090    -0.8840 C.3   1 <1>   0.1400 
 24 C        8.2540     3.3180     0.1770 C.3   1 <1>  -0.0220 
 25 C        9.6320     3.7670    -0.3110 C.2   1 <1>  -0.2760 
 26 C        9.9260     4.1660    -1.5560 C.2   1 <1>  -0.2880 
 27 C       10.6850     3.7180     0.7930 C.3   1 <1>  -0.0220 
 28 C       11.3000     4.6350    -2.0080 C.3   1 <1>  -0.0220 
 29 C       12.1130     3.8220     0.2400 C.3   1 <1>  -0.1600 
 30 C       12.2170     4.9300    -0.8140 C.3   1 <1>  -0.1600 
 31 H        2.4250    -0.8330     1.9680 H     1 <1>   0.0800 
 32 H        2.2140     0.8760     2.2500 H     1 <1>   0.0800 
 33 H        1.0530     2.2460     0.4970 H     1 <1>   0.0800 
 34 H        0.4970     1.4380    -0.9460 H     1 <1>   0.0800 
 35 H       -0.7460    -2.6440    -0.2320 H     1 <1>   0.1500 
 36 H        3.9710    -0.4290     0.1570 H     1 <1>   0.0800 
 37 H        4.5270     0.3820     1.5890 H     1 <1>   0.0800 
 38 H        2.5500     2.7050    -1.3900 H     1 <1>   0.0800 
 39 H        2.7510     1.0040    -1.6800 H     1 <1>   0.0800 
 40 H       -3.4270     0.8740    -2.3610 H     1 <1>   0.1500 
 41 H        3.6330     2.5060     0.7880 H     1 <1>   0.0800 
 42 H       -2.8430     3.1540     0.6630 H     1 <1>   0.0800 
 43 H       -3.1400     1.5200     1.2440 H     1 <1>   0.0800 
 44 H       -3.9490     2.1000    -0.2170 H     1 <1>   0.0800 
 45 H       -3.5610    -1.4470    -3.1990 H     1 <1>   0.1500 
 46 H       -1.8210    -5.4120    -2.3290 H     1 <1>   0.0800 
 47 H       -1.8400    -4.6690    -0.7340 H     1 <1>   0.0800 
 48 H       -0.5130    -4.3310    -1.8620 H     1 <1>   0.0800 
 49 H        5.4930     3.6860     0.4180 H     1 <1>   0.3700 
 50 H        7.0990     4.4130    -1.2680 H     1 <1>   0.0800 
 51 H        7.3900     2.7460    -1.7010 H     1 <1>   0.0800 
 52 H        8.3210     2.2970     0.5080 H     1 <1>   0.0800 
 53 H        7.9760     3.9320     1.0150 H     1 <1>   0.0800 
 54 H        9.2150     4.1910    -2.3630 H     1 <1>   0.1500 
 55 H       10.6000     2.7960     1.3420 H     1 <1>   0.0800 
 56 H       10.5060     4.5300     1.4770 H     1 <1>   0.0800 
 57 H       11.2010     5.5260    -2.6030 H     1 <1>   0.0800 
 58 H       11.7390     3.8690    -2.6240 H     1 <1>   0.0800 
 59 H       12.3830     2.8830    -0.2120 H     1 <1>   0.0800 
 60 H       12.7990     4.0140     1.0460 H     1 <1>   0.0800 
 61 H       11.9260     5.8660    -0.3690 H     1 <1>   0.0800 
 62 H       13.2340     5.0240    -1.1540 H     1 <1>   0.0800 
@<TRIPOS>BOND
  1   1   2  2   
  2   1   3  2   
  3   1   4  am  
  4   1   5  1   
  5   4   6  1   
  6   4   7  1   
  7   5   8  ar  
  8   5   9  ar  
  9   6  10  1   
 10   6  31  1   
 11   6  32  1   
 12   7  11  1   
 13   7  33  1   
 14   7  34  1   
 15   8  12  1   
 16   8  13  ar  
 17   9  14  ar  
 18   9  35  1   
 19  10  15  1   
 20  10  36  1   
 21  10  37  1   
 22  11  15  1   
 23  11  38  1   
 24  11  39  1   
 25  12  16  1   
 26  13  17  ar  
 27  13  40  1   
 28  14  17  ar  
 29  14  18  1   
 30  15  19  1   
 31  15  41  1   
 32  16  42  1   
 33  16  43  1   
 34  16  44  1   
 35  17  45  1   
 36  18  20  1   
 37  19  21  2   
 38  19  22  am  
 39  20  46  1   
 40  20  47  1   
 41  20  48  1   
 42  22  23  1   
 43  22  49  1   
 44  23  24  1   
 45  23  50  1   
 46  23  51  1   
 47  24  25  1   
 48  24  52  1   
 49  24  53  1   
 50  25  26  2   
 51  25  27  1   
 52  26  28  1   
 53  26  54  1   
 54  27  29  1   
 55  27  55  1   
 56  27  56  1   
 57  28  30  1   
 58  28  57  1   
 59  28  58  1   
 60  29  30  1   
 61  29  59  1   
 62  29  60  1   
 63  30  61  1   
 64  30  62  1   
@<TRIPOS>SUBSTRUCTURE
  1 ****  11 GROUP 4 **** **** 0

# MOE 2024.06 (io_trps.svl 2023.06)
