@<TRIPOS>MOLECULE
NONAME
50 53 1 0 0 
SMALL
USER_CHARGES


@<TRIPOS>ATOM
  1 S       -0.2610    -0.3750    -0.8120 S.3   1 <1>  -0.0800 
  2 C       -1.3780    -1.7160    -0.9050 C.2   1 <1>   0.1660 
  3 C        0.7980    -1.2710     0.2710 C.2   1 <1>  -0.1400 
  4 N       -2.5090    -1.6540    -1.6510 N.2   1 <1>  -0.5760 
  5 C       -0.9520    -2.7650    -0.1520 C.2   1 <1>  -0.0860 
  6 C        0.2990    -2.5000     0.5200 C.2   1 <1>  -0.1810 
  7 C        2.0430    -0.5300     0.7200 C.3   1 <1>  -0.0600 
  8 C       -3.2360    -2.7140    -1.6260 C.2   1 <1>   0.4500 
  9 C       -1.7960    -3.9180    -0.1540 C.2   1 <1>   0.7160 
 10 C        0.9380    -3.5560     1.4090 C.3   1 <1>  -0.0590 
 11 N       -2.9480    -3.8550    -0.9170 N.am  1 <1>  -0.4200 
 12 O       -1.5480    -4.9330     0.4850 O.2   1 <1>  -0.5700 
 13 C       -3.8780    -5.0090    -0.9730 C.3   1 <1>   0.1400 
 14 C       -4.8390    -4.9630     0.2210 C.3   1 <1>  -0.1600 
 15 C       -5.7980    -6.1600     0.2050 C.3   1 <1>  -0.1600 
 16 C       -6.7590    -6.1130     1.3980 C.3   1 <1>   0.1400 
 17 N       -7.6910    -7.2650     1.3400 N.am  1 <1>  -0.4200 
 18 C       -8.8430    -7.2010     0.5770 C.2   1 <1>   0.7160 
 19 C       -7.4060    -8.4080     2.0490 C.2   1 <1>   0.4500 
 20 O       -9.0890    -6.1850    -0.0620 O.2   1 <1>  -0.5700 
 21 C       -9.6880    -8.3520     0.5740 C.2   1 <1>  -0.0860 
 22 N       -8.1340    -9.4670     2.0740 N.2   1 <1>  -0.5760 
 23 C       -9.2640    -9.4020     1.3260 C.2   1 <1>   0.1660 
 24 C      -10.9390    -8.6150    -0.0990 C.2   1 <1>  -0.1810 
 25 S      -10.3830   -10.7420     1.2320 S.3   1 <1>  -0.0800 
 26 C      -11.4400    -9.8440     0.1490 C.2   1 <1>  -0.1400 
 27 C      -11.5760    -7.5580    -0.9890 C.3   1 <1>  -0.0590 
 28 C      -12.6860   -10.5830    -0.3020 C.3   1 <1>  -0.0600 
 29 H        1.7620     0.3690     1.2390 H     1 <1>   0.0800 
 30 H        2.6350    -0.2640    -0.1360 H     1 <1>   0.0800 
 31 H        2.6390    -1.1340     1.3770 H     1 <1>   0.0800 
 32 H       -4.1470    -2.7240    -2.1990 H     1 <1>   0.0600 
 33 H        1.8610    -3.2080     1.8320 H     1 <1>   0.0800 
 34 H        1.1400    -4.4430     0.8370 H     1 <1>   0.0800 
 35 H        0.2710    -3.8090     2.2140 H     1 <1>   0.0800 
 36 H       -3.3130    -5.9270    -0.9570 H     1 <1>   0.0800 
 37 H       -4.4350    -4.9810    -1.8940 H     1 <1>   0.0800 
 38 H       -5.4070    -4.0480     0.1860 H     1 <1>   0.0800 
 39 H       -4.2680    -4.9800     1.1340 H     1 <1>   0.0800 
 40 H       -5.2310    -7.0740     0.2400 H     1 <1>   0.0800 
 41 H       -6.3690    -6.1430    -0.7090 H     1 <1>   0.0800 
 42 H       -7.3230    -5.1950     1.3830 H     1 <1>   0.0800 
 43 H       -6.2030    -6.1430     2.3200 H     1 <1>   0.0800 
 44 H       -6.4950    -8.3990     2.6220 H     1 <1>   0.0600 
 45 H      -11.7770    -6.6710    -0.4160 H     1 <1>   0.0800 
 46 H      -12.5000    -7.9040    -1.4120 H     1 <1>   0.0800 
 47 H      -10.9080    -7.3050    -1.7920 H     1 <1>   0.0800 
 48 H      -13.2810    -9.9770    -0.9590 H     1 <1>   0.0800 
 49 H      -13.2790   -10.8480     0.5540 H     1 <1>   0.0800 
 50 H      -12.4060   -11.4810    -0.8210 H     1 <1>   0.0800 
@<TRIPOS>BOND
  1   1   2  1   
  2   1   3  1   
  3   2   4  1   
  4   2   5  2   
  5   3   6  2   
  6   3   7  1   
  7   4   8  2   
  8   5   6  1   
  9   5   9  1   
 10   6  10  1   
 11   7  29  1   
 12   7  30  1   
 13   7  31  1   
 14   8  11  1   
 15   8  32  1   
 16   9  11  am  
 17   9  12  2   
 18  10  33  1   
 19  10  34  1   
 20  10  35  1   
 21  11  13  1   
 22  13  14  1   
 23  13  36  1   
 24  13  37  1   
 25  14  15  1   
 26  14  38  1   
 27  14  39  1   
 28  15  16  1   
 29  15  40  1   
 30  15  41  1   
 31  16  17  1   
 32  16  42  1   
 33  16  43  1   
 34  17  18  am  
 35  17  19  1   
 36  18  20  2   
 37  18  21  1   
 38  19  22  2   
 39  19  44  1   
 40  21  23  2   
 41  21  24  1   
 42  22  23  1   
 43  23  25  1   
 44  24  26  2   
 45  24  27  1   
 46  25  26  1   
 47  26  28  1   
 48  27  45  1   
 49  27  46  1   
 50  27  47  1   
 51  28  48  1   
 52  28  49  1   
 53  28  50  1   
@<TRIPOS>SUBSTRUCTURE
  1 ****  14 GROUP 4 **** **** 0

# MOE 2024.06 (io_trps.svl 2023.06)
