@<TRIPOS>MOLECULE
1-(6-Bromo-naphthalen-2-yloxy)-3-morpholin-4-yl-propan-2-ol
43 45 1 0 0 
SMALL
USER_CHARGES


@<TRIPOS>ATOM
  1 BR      -0.4930    -0.6870     0.1950 Br    1 <1>  -0.1110 
  2 C       -2.0030     0.5050     0.1850 C.ar  1 <1>   0.1110 
  3 C       -2.9680     0.3650    -0.7700 C.ar  1 <1>  -0.1500 
  4 C       -2.0630     1.4900     1.1730 C.ar  1 <1>  -0.1500 
  5 C       -4.0740     1.2380    -0.7780 C.ar  1 <1>   0.0000 
  6 C       -3.1300     2.3460     1.1790 C.ar  1 <1>  -0.1500 
  7 C       -4.1570     2.2450     0.2130 C.ar  1 <1>   0.0000 
  8 C       -5.1020     1.1450    -1.7370 C.ar  1 <1>  -0.1500 
  9 C       -5.2640     3.1170     0.2030 C.ar  1 <1>  -0.1500 
 10 C       -6.1640     2.0050    -1.7220 C.ar  1 <1>  -0.1500 
 11 C       -6.2550     3.0040    -0.7440 C.ar  1 <1>   0.0830 
 12 O       -7.3480     3.8030    -0.8130 O.3   1 <1>  -0.3630 
 13 C       -7.5280     4.8730     0.0880 C.3   1 <1>   0.1200 
 14 C       -8.8550     5.5570    -0.2540 C.3   1 <1>   0.2000 
 15 O       -9.1760     6.4890     0.7400 O.3   1 <1>  -0.6800 
 16 C       -9.9970     4.5210    -0.3650 C.3   1 <1>   0.3430 
 17 N      -11.3270     5.1590    -0.1170 N.4   1 <1>  -0.9590 
 18 C      -12.3510     4.1830     0.3870 C.3   1 <1>   0.3430 
 19 C      -11.8390     5.9210    -1.3060 C.3   1 <1>   0.3430 
 20 C      -13.7250     4.8550     0.5700 C.3   1 <1>   0.1200 
 21 C      -13.2380     6.5080    -1.0370 C.3   1 <1>   0.1200 
 22 O      -14.1110     5.5030    -0.6080 O.3   1 <1>  -0.5600 
 23 H       -2.8910    -0.4040    -1.5160 H     1 <1>   0.1500 
 24 H       -1.2740     1.5540     1.9010 H     1 <1>   0.1500 
 25 H       -3.2010     3.1140     1.9280 H     1 <1>   0.1500 
 26 H       -5.0330     0.3790    -2.4890 H     1 <1>   0.1500 
 27 H       -5.2940     3.8680     0.9670 H     1 <1>   0.1500 
 28 H       -6.9440     1.9300    -2.4580 H     1 <1>   0.1500 
 29 H       -6.7020     5.5540    -0.0260 H     1 <1>   0.0800 
 30 H       -7.5550     4.4680     1.0860 H     1 <1>   0.0800 
 31 H       -8.7510     6.0900    -1.1840 H     1 <1>   0.0800 
 32 H       -8.4620     7.1550     0.8430 H     1 <1>   0.4000 
 33 H       -9.8220     3.7610     0.3780 H     1 <1>   0.0800 
 34 H       -9.9700     4.0410    -1.3300 H     1 <1>   0.0800 
 35 H      -11.1300     5.8540     0.6270 H     1 <1>   0.4500 
 36 H      -12.0300     3.7650     1.3270 H     1 <1>   0.0800 
 37 H      -12.4600     3.3750    -0.3170 H     1 <1>   0.0800 
 38 H      -11.9050     5.2660    -2.1590 H     1 <1>   0.0800 
 39 H      -11.1590     6.7210    -1.5510 H     1 <1>   0.0800 
 40 H      -13.7040     5.5740     1.3710 H     1 <1>   0.0800 
 41 H      -14.4730     4.1140     0.7960 H     1 <1>   0.0800 
 42 H      -13.6440     6.9300    -1.9400 H     1 <1>   0.0800 
 43 H      -13.1990     7.2780    -0.2860 H     1 <1>   0.0800 
@<TRIPOS>BOND
  1   1   2  1   
  2   2   3  ar  
  3   2   4  ar  
  4   3   5  ar  
  5   3  23  1   
  6   4   6  ar  
  7   4  24  1   
  8   5   7  ar  
  9   5   8  ar  
 10   6   7  ar  
 11   6  25  1   
 12   7   9  ar  
 13   8  10  ar  
 14   8  26  1   
 15   9  11  ar  
 16   9  27  1   
 17  10  11  ar  
 18  10  28  1   
 19  11  12  1   
 20  12  13  1   
 21  13  14  1   
 22  13  29  1   
 23  13  30  1   
 24  14  15  1   
 25  14  16  1   
 26  14  31  1   
 27  15  32  1   
 28  16  17  1   
 29  16  33  1   
 30  16  34  1   
 31  17  18  1   
 32  17  19  1   
 33  17  35  1   
 34  18  20  1   
 35  18  36  1   
 36  18  37  1   
 37  19  21  1   
 38  19  38  1   
 39  19  39  1   
 40  20  22  1   
 41  20  40  1   
 42  20  41  1   
 43  21  22  1   
 44  21  42  1   
 45  21  43  1   
@<TRIPOS>SUBSTRUCTURE
  1 ****  12 GROUP 4 **** **** 0

# MOE 2024.06 (io_trps.svl 2023.06)
