@<TRIPOS>MOLECULE
4,6-Di-piperidin-1-yl-1H-[1,3,5]triazin-2-one
40 42 1 0 0 
SMALL
USER_CHARGES


@<TRIPOS>ATOM
  1 O       -0.2450    -0.5010    -0.3830 O.2   1 <1>  -0.5700 
  2 C       -0.1690    -1.7170    -0.3160 C.2   1 <1>   0.8410 
  3 N        0.9820    -2.3540    -0.5240 N.2   1 <1>  -0.6610 
  4 N       -1.2840    -2.3970    -0.0310 N.am  1 <1>  -0.4900 
  5 C        0.9380    -3.6480    -0.4520 C.2   1 <1>   0.7110 
  6 C       -1.2670    -3.7270     0.0270 C.2   1 <1>   0.5600 
  7 N       -0.1720    -4.3690    -0.1900 N.2   1 <1>  -0.6610 
  8 N        2.0990    -4.3590    -0.6570 N.pl3 1 <1>  -0.7880 
  9 N       -2.4310    -4.3810     0.3070 N.pl3 1 <1>  -0.7880 
 10 C        2.1910    -5.8440    -0.5460 C.3   1 <1>   0.2090 
 11 C        3.4000    -3.7060    -0.9860 C.3   1 <1>   0.2090 
 12 C       -2.6140    -5.8210    -0.0300 C.3   1 <1>   0.2090 
 13 C       -3.5630    -3.8000     1.0820 C.3   1 <1>   0.2090 
 14 C        3.2140    -6.2140     0.5330 C.3   1 <1>  -0.1600 
 15 C        4.4340    -4.0540     0.0890 C.3   1 <1>  -0.1600 
 16 C       -3.9060    -5.9950    -0.8370 C.3   1 <1>  -0.1600 
 17 C       -4.8560    -3.9380     0.2730 C.3   1 <1>  -0.1600 
 18 C        4.5830    -5.5720     0.2670 C.3   1 <1>  -0.1600 
 19 C       -5.1230    -5.4000    -0.1130 C.3   1 <1>  -0.1600 
 20 H       -2.1390    -1.8720     0.0400 H     1 <1>   0.3700 
 21 H        2.5020    -6.2430    -1.4960 H     1 <1>   0.0800 
 22 H        1.2440    -6.2890    -0.3000 H     1 <1>   0.0800 
 23 H        3.3060    -2.6360    -1.0540 H     1 <1>   0.0800 
 24 H        3.7340    -4.0650    -1.9440 H     1 <1>   0.0800 
 25 H       -2.6640    -6.3930     0.8810 H     1 <1>   0.0800 
 26 H       -1.7840    -6.1890    -0.6100 H     1 <1>   0.0800 
 27 H       -3.3850    -2.7670     1.3210 H     1 <1>   0.0800 
 28 H       -3.6590    -4.3380     2.0100 H     1 <1>   0.0800 
 29 H        3.3160    -7.2840     0.5720 H     1 <1>   0.0800 
 30 H        2.8370    -5.8850     1.4860 H     1 <1>   0.0800 
 31 H        4.1220    -3.6070     1.0170 H     1 <1>   0.0800 
 32 H        5.3820    -3.6250    -0.1800 H     1 <1>   0.0800 
 33 H       -4.0700    -7.0420    -1.0200 H     1 <1>   0.0800 
 34 H       -3.7790    -5.5120    -1.7900 H     1 <1>   0.0800 
 35 H       -4.7760    -3.3370    -0.6160 H     1 <1>   0.0800 
 36 H       -5.6800    -3.5620     0.8520 H     1 <1>   0.0800 
 37 H        5.0090    -5.9960    -0.6270 H     1 <1>   0.0800 
 38 H        5.2490    -5.7800     1.0860 H     1 <1>   0.0800 
 39 H       -5.3230    -5.9730     0.7770 H     1 <1>   0.0800 
 40 H       -5.9890    -5.4580    -0.7490 H     1 <1>   0.0800 
@<TRIPOS>BOND
  1   1   2  2   
  2   2   3  1   
  3   2   4  am  
  4   3   5  2   
  5   4   6  1   
  6   4  20  1   
  7   5   7  1   
  8   5   8  1   
  9   6   7  2   
 10   6   9  1   
 11   8  10  1   
 12   8  11  1   
 13   9  12  1   
 14   9  13  1   
 15  10  14  1   
 16  10  21  1   
 17  10  22  1   
 18  11  15  1   
 19  11  23  1   
 20  11  24  1   
 21  12  16  1   
 22  12  25  1   
 23  12  26  1   
 24  13  17  1   
 25  13  27  1   
 26  13  28  1   
 27  14  18  1   
 28  14  29  1   
 29  14  30  1   
 30  15  18  1   
 31  15  31  1   
 32  15  32  1   
 33  16  19  1   
 34  16  33  1   
 35  16  34  1   
 36  17  19  1   
 37  17  35  1   
 38  17  36  1   
 39  18  37  1   
 40  18  38  1   
 41  19  39  1   
 42  19  40  1   
@<TRIPOS>SUBSTRUCTURE
  1 ****   7 GROUP 4 **** **** 0

# MOE 2024.06 (io_trps.svl 2023.06)
