@<TRIPOS>MOLECULE
[2-(4-Ethyl-benzylamino)-5-methyl-7-oxo-4,7-dihydro-[1,2,4]triazolo[1,5-a]pyrimi
47 49 1 0 0 
SMALL
USER_CHARGES


@<TRIPOS>ATOM
  1 O        0.3250    -0.7170     0.0560 O.2   1 <1>  -0.5700 
  2 C       -0.0650    -1.8680    -0.1110 C.2   1 <1>   0.5650 
  3 N       -1.3500    -2.2780     0.3090 N.pl3 1 <1>   0.5610 
  4 C        0.7620    -2.8470    -0.7660 C.2   1 <1>  -0.1240 
  5 N       -2.3730    -1.6260     0.9210 N.2   1 <1>  -0.7070 
  6 C       -1.7810    -3.5350     0.0570 C.2   1 <1>   0.2700 
  7 C        0.3070    -4.1210    -0.9710 C.2   1 <1>  -0.0380 
  8 C        2.1590    -2.3710    -1.1880 C.3   1 <1>   0.0390 
  9 C       -3.2700    -2.5450     0.9870 C.2   1 <1>   0.5990 
 10 N       -2.9790    -3.7370     0.4620 N.2   1 <1>  -0.5650 
 11 N       -0.9680    -4.4540    -0.5810 N.pl3 1 <1>  -0.5840 
 12 C        1.0840    -5.2710    -1.5940 C.3   1 <1>  -0.1020 
 13 C        3.1350    -2.3480    -0.0260 C.2   1 <1>   0.6590 
 14 N       -4.4970    -2.3670     1.5560 N.pl3 1 <1>  -0.8520 
 15 O        2.9910    -3.0460     0.9440 O.2   1 <1>  -0.5700 
 16 O        4.1720    -1.5290    -0.1600 O.3   1 <1>  -0.4300 
 17 C       -5.1680    -1.0890     1.2700 C.3   1 <1>   0.3530 
 18 C        5.1460    -1.3970     0.8550 C.3   1 <1>   0.0400 
 19 C       -6.5980    -1.3970     0.8670 C.ar  1 <1>  -0.1430 
 20 C       -7.5720    -1.5880     1.8350 C.ar  1 <1>  -0.1500 
 21 C       -6.9450    -1.4970    -0.4710 C.ar  1 <1>  -0.1500 
 22 C       -8.8760    -1.8710     1.4700 C.ar  1 <1>  -0.1500 
 23 C       -8.2500    -1.7810    -0.8360 C.ar  1 <1>  -0.1500 
 24 C       -9.2230    -1.9700     0.1320 C.ar  1 <1>  -0.1430 
 25 C      -10.6560    -2.2810    -0.2700 C.3   1 <1>  -0.0170 
 26 C      -11.4590    -0.9900    -0.4390 C.3   1 <1>  -0.2400 
 27 H        2.0970    -1.3780    -1.5970 H     1 <1>   0.0800 
 28 H        2.5710    -2.9880    -1.9600 H     1 <1>   0.0800 
 29 H       -1.3570    -5.3970    -0.7020 H     1 <1>   0.4000 
 30 H        0.7410    -5.4440    -2.5980 H     1 <1>   0.0800 
 31 H        0.9290    -6.1680    -1.0190 H     1 <1>   0.0800 
 32 H        2.1410    -5.0890    -1.6120 H     1 <1>   0.0800 
 33 H       -5.0990    -3.1340     1.2540 H     1 <1>   0.4000 
 34 H       -4.6690    -0.5560     0.4770 H     1 <1>   0.0800 
 35 H       -5.1500    -0.4740     2.1540 H     1 <1>   0.0800 
 36 H        5.8800    -0.6800     0.5330 H     1 <1>   0.0800 
 37 H        5.6090    -2.3550     1.0200 H     1 <1>   0.0800 
 38 H        4.6650    -1.0570     1.7560 H     1 <1>   0.0800 
 39 H       -7.3140    -1.5210     2.8780 H     1 <1>   0.1500 
 40 H       -6.2000    -1.3580    -1.2350 H     1 <1>   0.1500 
 41 H       -9.6210    -2.0150     2.2320 H     1 <1>   0.1500 
 42 H       -8.5060    -1.8530    -1.8780 H     1 <1>   0.1500 
 43 H      -11.1160    -2.8990     0.4820 H     1 <1>   0.0800 
 44 H      -10.6610    -2.8340    -1.1930 H     1 <1>   0.0800 
 45 H      -11.4750    -0.4400     0.4850 H     1 <1>   0.0800 
 46 H      -12.4700    -1.2170    -0.7250 H     1 <1>   0.0800 
 47 H      -11.0130    -0.3740    -1.1990 H     1 <1>   0.0800 
@<TRIPOS>BOND
  1   1   2  2   
  2   2   3  1   
  3   2   4  1   
  4   3   5  1   
  5   3   6  1   
  6   4   7  2   
  7   4   8  1   
  8   5   9  2   
  9   6  10  2   
 10   6  11  1   
 11   7  11  1   
 12   7  12  1   
 13   8  13  1   
 14   8  27  1   
 15   8  28  1   
 16   9  10  1   
 17   9  14  1   
 18  11  29  1   
 19  12  30  1   
 20  12  31  1   
 21  12  32  1   
 22  13  15  2   
 23  13  16  1   
 24  14  17  1   
 25  14  33  1   
 26  16  18  1   
 27  17  19  1   
 28  17  34  1   
 29  17  35  1   
 30  18  36  1   
 31  18  37  1   
 32  18  38  1   
 33  19  20  ar  
 34  19  21  ar  
 35  20  22  ar  
 36  20  39  1   
 37  21  23  ar  
 38  21  40  1   
 39  22  24  ar  
 40  22  41  1   
 41  23  24  ar  
 42  23  42  1   
 43  24  25  1   
 44  25  26  1   
 45  25  43  1   
 46  25  44  1   
 47  26  45  1   
 48  26  46  1   
 49  26  47  1   
@<TRIPOS>SUBSTRUCTURE
  1 ****   9 GROUP 4 **** **** 0

# MOE 2024.06 (io_trps.svl 2023.06)
