@<TRIPOS>MOLECULE
4-Chloro-N-ethyl-3-(morpholine-4-sulfonyl)-benzamide
38 39 1 0 0 
SMALL
USER_CHARGES


@<TRIPOS>ATOM
  1 CL       0.6590     0.0590    -2.4070 Cl    1 <1>  -0.1770 
  2 C        1.7240    -0.6520    -1.2220 C.ar  1 <1>   0.1770 
  3 C        1.4890    -1.9050    -0.6670 C.ar  1 <1>  -0.0090 
  4 C        2.8150     0.1120    -0.8490 C.ar  1 <1>  -0.1500 
  5 S        0.0670    -2.9420    -1.1000 S.o2  1 <1>   1.4470 
  6 C        2.3910    -2.3470     0.2950 C.ar  1 <1>  -0.1500 
  7 C        3.6950    -0.3620     0.1030 C.ar  1 <1>  -0.1500 
  8 O        0.4210    -4.3140    -0.8040 O.2   1 <1>  -0.6500 
  9 O       -0.4750    -2.6520    -2.4080 O.2   1 <1>  -0.6500 
 10 N       -1.1040    -2.4950     0.0420 N.am  1 <1>  -0.8490 
 11 C        3.5030    -1.6070     0.6980 C.ar  1 <1>   0.0860 
 12 C       -1.7670    -1.2190    -0.2780 C.3   1 <1>   0.1960 
 13 C       -2.1250    -3.5430     0.2040 C.3   1 <1>   0.1960 
 14 C        4.4060    -2.1190     1.7120 C.2   1 <1>   0.5440 
 15 C       -2.8330    -0.8670     0.7760 C.3   1 <1>   0.1200 
 16 C       -3.1860    -3.1330     1.2420 C.3   1 <1>   0.1200 
 17 O        3.9710    -2.6350     2.7180 O.2   1 <1>  -0.5700 
 18 N        5.7600    -2.0630     1.6010 N.am  1 <1>  -0.7300 
 19 O       -3.7630    -1.9040     0.9010 O.3   1 <1>  -0.5600 
 20 C        6.5690    -1.8920     0.3800 C.3   1 <1>   0.1400 
 21 C        7.6420    -2.9730     0.3570 C.3   1 <1>  -0.2400 
 22 H        2.9660     1.0770    -1.3010 H     1 <1>   0.1500 
 23 H        2.2300    -3.3060     0.7630 H     1 <1>   0.1500 
 24 H        4.5370     0.2390     0.4030 H     1 <1>   0.1500 
 25 H       -2.2400    -1.2730    -1.2450 H     1 <1>   0.0800 
 26 H       -1.0400    -0.4280    -0.3040 H     1 <1>   0.0800 
 27 H       -1.6600    -4.4560     0.5350 H     1 <1>   0.0800 
 28 H       -2.6080    -3.7380    -0.7390 H     1 <1>   0.0800 
 29 H       -3.3670     0.0200     0.4850 H     1 <1>   0.0800 
 30 H       -2.3740    -0.6980     1.7350 H     1 <1>   0.0800 
 31 H       -2.7430    -3.0470     2.2190 H     1 <1>   0.0800 
 32 H       -3.9720    -3.8650     1.2800 H     1 <1>   0.0800 
 33 H        6.2620    -2.4380     2.4090 H     1 <1>   0.3700 
 34 H        7.0270    -0.9170     0.3880 H     1 <1>   0.0800 
 35 H        5.9460    -1.9770    -0.4960 H     1 <1>   0.0800 
 36 H        8.2900    -2.8800     1.2100 H     1 <1>   0.0800 
 37 H        8.2370    -2.8730    -0.5330 H     1 <1>   0.0800 
 38 H        7.1880    -3.9480     0.3540 H     1 <1>   0.0800 
@<TRIPOS>BOND
  1   1   2  1   
  2   2   3  ar  
  3   2   4  ar  
  4   3   5  1   
  5   3   6  ar  
  6   4   7  ar  
  7   4  22  1   
  8   5   8  2   
  9   5   9  2   
 10   5  10  am  
 11   6  11  ar  
 12   6  23  1   
 13   7  11  ar  
 14   7  24  1   
 15  10  12  1   
 16  10  13  1   
 17  11  14  1   
 18  12  15  1   
 19  12  25  1   
 20  12  26  1   
 21  13  16  1   
 22  13  27  1   
 23  13  28  1   
 24  14  17  2   
 25  14  18  am  
 26  15  19  1   
 27  15  29  1   
 28  15  30  1   
 29  16  19  1   
 30  16  31  1   
 31  16  32  1   
 32  18  20  1   
 33  18  33  1   
 34  20  21  1   
 35  20  34  1   
 36  20  35  1   
 37  21  36  1   
 38  21  37  1   
 39  21  38  1   
@<TRIPOS>SUBSTRUCTURE
  1 ****   3 GROUP 4 **** **** 0

# MOE 2024.06 (io_trps.svl 2023.06)
