@<TRIPOS>MOLECULE
N-(4-{3-[4-(4-Chloro-phenyl)-piperazin-1-yl]-2-hydroxy-propoxy}-phenyl)-acetamid
55 57 1 0 0 
SMALL
USER_CHARGES


@<TRIPOS>ATOM
  1 CL       0.1350    -0.6620     0.3020 Cl    1 <1>  -0.1770 
  2 C        1.7360    -1.3620     0.2690 C.ar  1 <1>   0.1770 
  3 C        2.7110    -0.7900    -0.5270 C.ar  1 <1>  -0.1500 
  4 C        2.0040    -2.4780     1.0410 C.ar  1 <1>  -0.1500 
  5 C        3.9770    -1.3470    -0.5510 C.ar  1 <1>  -0.1500 
  6 C        3.2740    -3.0280     1.0110 C.ar  1 <1>  -0.1500 
  7 C        4.2710    -2.4710     0.2180 C.ar  1 <1>   0.1000 
  8 N        5.5360    -3.0450     0.2090 N.pl3 1 <1>  -0.8380 
  9 C        6.6300    -2.2410     0.8280 C.3   1 <1>   0.2090 
 10 C        5.9310    -3.7490    -1.0470 C.3   1 <1>   0.2090 
 11 C        7.8910    -3.1050     1.0450 C.3   1 <1>   0.3430 
 12 C        7.1970    -4.6040    -0.8240 C.3   1 <1>   0.3430 
 13 N        8.3270    -3.8170    -0.2110 N.4   1 <1>  -0.9590 
 14 C        9.5540    -4.6460    -0.0050 C.3   1 <1>   0.3430 
 15 C       10.8240    -3.7650     0.0020 C.3   1 <1>   0.2000 
 16 O       10.6570    -2.7120    -0.9070 O.3   1 <1>  -0.6800 
 17 C       12.0610    -4.5850    -0.3770 C.3   1 <1>   0.1200 
 18 O       12.0680    -5.7490     0.4190 O.3   1 <1>  -0.3630 
 19 C       13.0660    -6.6660     0.3100 C.ar  1 <1>   0.0830 
 20 C       13.0230    -7.7410     1.1830 C.ar  1 <1>  -0.1500 
 21 C       14.1050    -6.5770    -0.6130 C.ar  1 <1>  -0.1500 
 22 C       14.0000    -8.7190     1.1380 C.ar  1 <1>  -0.1500 
 23 C       15.0780    -7.5600    -0.6540 C.ar  1 <1>  -0.1500 
 24 C       15.0350    -8.6430     0.2140 C.ar  1 <1>   0.1170 
 25 N       16.0350    -9.6200     0.1540 N.am  1 <1>  -0.5470 
 26 C       15.9470   -10.9700     0.0350 C.2   1 <1>   0.5690 
 27 O       16.9470   -11.6380     0.0320 O.2   1 <1>  -0.5700 
 28 C       14.6090   -11.6550    -0.1150 C.3   1 <1>  -0.1790 
 29 H        2.4740     0.0770    -1.1170 H     1 <1>   0.1500 
 30 H        1.2290    -2.9040     1.6520 H     1 <1>   0.1500 
 31 H        4.7390    -0.9090    -1.1670 H     1 <1>   0.1500 
 32 H        3.5020    -3.8950     1.6030 H     1 <1>   0.1500 
 33 H        6.2930    -1.8560     1.7750 H     1 <1>   0.0800 
 34 H        6.8680    -1.4030     0.1960 H     1 <1>   0.0800 
 35 H        6.1110    -3.0280    -1.8260 H     1 <1>   0.0800 
 36 H        5.1220    -4.3840    -1.3650 H     1 <1>   0.0800 
 37 H        7.6680    -3.8310     1.8100 H     1 <1>   0.0800 
 38 H        8.6870    -2.4760     1.4050 H     1 <1>   0.0800 
 39 H        7.5080    -5.0210    -1.7670 H     1 <1>   0.0800 
 40 H        6.9340    -5.4210    -0.1710 H     1 <1>   0.0800 
 41 H        8.6320    -3.0880    -0.8830 H     1 <1>   0.4500 
 42 H        9.6480    -5.3490    -0.8150 H     1 <1>   0.0800 
 43 H        9.4910    -5.2120     0.9090 H     1 <1>   0.0800 
 44 H       10.9670    -3.3350     0.9780 H     1 <1>   0.0800 
 45 H       11.4570    -2.1430    -0.9390 H     1 <1>   0.4000 
 46 H       12.9640    -4.0330    -0.1780 H     1 <1>   0.0800 
 47 H       12.0160    -4.8870    -1.4100 H     1 <1>   0.0800 
 48 H       12.2270    -7.8090     1.9020 H     1 <1>   0.1500 
 49 H       14.1790    -5.7600    -1.3060 H     1 <1>   0.1500 
 50 H       13.9640    -9.5420     1.8290 H     1 <1>   0.1500 
 51 H       15.8780    -7.4910    -1.3690 H     1 <1>   0.1500 
 52 H       17.0010    -9.2910     0.1550 H     1 <1>   0.3700 
 53 H       13.9540   -11.0670    -0.7300 H     1 <1>   0.0800 
 54 H       14.1670   -11.7990     0.8520 H     1 <1>   0.0800 
 55 H       14.7480   -12.6140    -0.5790 H     1 <1>   0.0800 
@<TRIPOS>BOND
  1   1   2  1   
  2   2   3  ar  
  3   2   4  ar  
  4   3   5  ar  
  5   3  29  1   
  6   4   6  ar  
  7   4  30  1   
  8   5   7  ar  
  9   5  31  1   
 10   6   7  ar  
 11   6  32  1   
 12   7   8  1   
 13   8   9  1   
 14   8  10  1   
 15   9  11  1   
 16   9  33  1   
 17   9  34  1   
 18  10  12  1   
 19  10  35  1   
 20  10  36  1   
 21  11  13  1   
 22  11  37  1   
 23  11  38  1   
 24  12  13  1   
 25  12  39  1   
 26  12  40  1   
 27  13  14  1   
 28  13  41  1   
 29  14  15  1   
 30  14  42  1   
 31  14  43  1   
 32  15  16  1   
 33  15  17  1   
 34  15  44  1   
 35  16  45  1   
 36  17  18  1   
 37  17  46  1   
 38  17  47  1   
 39  18  19  1   
 40  19  20  ar  
 41  19  21  ar  
 42  20  22  ar  
 43  20  48  1   
 44  21  23  ar  
 45  21  49  1   
 46  22  24  ar  
 47  22  50  1   
 48  23  24  ar  
 49  23  51  1   
 50  24  25  1   
 51  25  26  am  
 52  25  52  1   
 53  26  27  2   
 54  26  28  1   
 55  28  53  1   
 56  28  54  1   
 57  28  55  1   
@<TRIPOS>SUBSTRUCTURE
  1 ****  14 GROUP 4 **** **** 0

# MOE 2024.06 (io_trps.svl 2023.06)
