@<TRIPOS>MOLECULE
N-Cyclohexyl-2-[5-(4-methylsulfanyl-phenyl)-tetrazol-2-yl]-acetamide
44 46 1 0 0 
SMALL
USER_CHARGES


@<TRIPOS>ATOM
  1 S        0.6030     2.0260    -1.0650 S.3   1 <1>  -0.3320 
  2 C        2.2920     2.0990    -0.4420 C.ar  1 <1>   0.1020 
  3 C       -0.3700     3.2740    -0.1130 C.3   1 <1>  -0.0100 
  4 C        2.6740     2.9720     0.5630 C.ar  1 <1>  -0.1500 
  5 C        3.2120     1.2400    -1.0100 C.ar  1 <1>  -0.1500 
  6 C        3.9890     2.9760     0.9940 C.ar  1 <1>  -0.1500 
  7 C        4.5240     1.2540    -0.5700 C.ar  1 <1>  -0.1500 
  8 C        4.9480     2.1200     0.4410 C.ar  1 <1>   0.0540 
  9 C        6.3300     2.1270     0.8920 C.2   1 <1>   0.4620 
 10 N        6.7900     2.9810     1.8160 N.2   1 <1>  -0.2270 
 11 N        7.2510     1.3290     0.4570 N.2   1 <1>  -0.7070 
 12 N        8.0240     2.7260     1.9730 N.2   1 <1>  -0.4180 
 13 N        8.2970     1.7350     1.1410 N.pl3 1 <1>   0.5800 
 14 C        9.6310     1.1470     1.0340 C.3   1 <1>   0.1570 
 15 C       10.1890     1.3640    -0.3520 C.2   1 <1>   0.5690 
 16 O       10.4430     0.3930    -1.0180 O.2   1 <1>  -0.5700 
 17 N       10.4580     2.5930    -0.8600 N.am  1 <1>  -0.7300 
 18 C       10.2610     3.9300    -0.2730 C.3   1 <1>   0.2200 
 19 C        9.0540     4.5940    -0.9420 C.3   1 <1>  -0.1600 
 20 C       11.5310     4.7590    -0.4830 C.3   1 <1>  -0.1600 
 21 C        8.8520     6.0210    -0.4140 C.3   1 <1>  -0.1600 
 22 C       11.3440     6.1910     0.0420 C.3   1 <1>  -0.1600 
 23 C       10.1220     6.8630    -0.6010 C.3   1 <1>  -0.1600 
 24 H       -1.3820     3.2390    -0.4740 H     1 <1>   0.0800 
 25 H        0.0660     4.2400    -0.2890 H     1 <1>   0.0800 
 26 H       -0.3270     3.0050     0.9270 H     1 <1>   0.0800 
 27 H        1.9700     3.6440     1.0130 H     1 <1>   0.1500 
 28 H        2.9020     0.5670    -1.7890 H     1 <1>   0.1500 
 29 H        4.2750     3.6580     1.7760 H     1 <1>   0.1500 
 30 H        5.2350     0.5810    -1.0190 H     1 <1>   0.1500 
 31 H        9.5530     0.0950     1.2300 H     1 <1>   0.0800 
 32 H       10.2780     1.5960     1.7610 H     1 <1>   0.0800 
 33 H       10.8060     2.5980    -1.8210 H     1 <1>   0.3700 
 34 H       10.0800     3.8500     0.7850 H     1 <1>   0.0800 
 35 H        9.2060     4.6310    -2.0070 H     1 <1>   0.0800 
 36 H        8.1670     4.0180    -0.7480 H     1 <1>   0.0800 
 37 H       11.7670     4.8000    -1.5320 H     1 <1>   0.0800 
 38 H       12.3530     4.2960     0.0340 H     1 <1>   0.0800 
 39 H        8.5990     5.9790     0.6320 H     1 <1>   0.0800 
 40 H        8.0310     6.4840    -0.9320 H     1 <1>   0.0800 
 41 H       11.2130     6.1650     1.1100 H     1 <1>   0.0800 
 42 H       12.2260     6.7710    -0.1680 H     1 <1>   0.0800 
 43 H        9.9750     7.8360    -0.1640 H     1 <1>   0.0800 
 44 H       10.3040     7.0010    -1.6530 H     1 <1>   0.0800 
@<TRIPOS>BOND
  1   1   2  1   
  2   1   3  1   
  3   2   4  ar  
  4   2   5  ar  
  5   3  24  1   
  6   3  25  1   
  7   3  26  1   
  8   4   6  ar  
  9   4  27  1   
 10   5   7  ar  
 11   5  28  1   
 12   6   8  ar  
 13   6  29  1   
 14   7   8  ar  
 15   7  30  1   
 16   8   9  1   
 17   9  10  1   
 18   9  11  2   
 19  10  12  2   
 20  11  13  1   
 21  12  13  1   
 22  13  14  1   
 23  14  15  1   
 24  14  31  1   
 25  14  32  1   
 26  15  16  2   
 27  15  17  am  
 28  17  18  1   
 29  17  33  1   
 30  18  19  1   
 31  18  20  1   
 32  18  34  1   
 33  19  21  1   
 34  19  35  1   
 35  19  36  1   
 36  20  22  1   
 37  20  37  1   
 38  20  38  1   
 39  21  23  1   
 40  21  39  1   
 41  21  40  1   
 42  22  23  1   
 43  22  41  1   
 44  22  42  1   
 45  23  43  1   
 46  23  44  1   
@<TRIPOS>SUBSTRUCTURE
  1 ****   9 GROUP 4 **** **** 0

# MOE 2024.06 (io_trps.svl 2023.06)
