@<TRIPOS>MOLECULE
1-(3-Pyridin-4-yl-4-oxa-1,2-diaza-spiro[4.5]dec-2-en-1-yl)-ethanone
36 38 1 0 0 
SMALL
USER_CHARGES


@<TRIPOS>ATOM
  1 O        0.4270    -0.2220    -0.9180 O.2   1 <1>  -0.5700 
  2 C        1.3020    -1.0550    -0.9170 C.2   1 <1>   0.5690 
  3 N        1.0850    -2.3570    -0.4840 N.am  1 <1>  -0.2980 
  4 C        2.6380    -0.5830    -1.4560 C.3   1 <1>  -0.1790 
  5 N       -0.1580    -2.8770    -0.2140 N.2   1 <1>  -0.5120 
  6 C        2.0880    -3.4080    -0.1820 C.3   1 <1>   0.5800 
  7 C       -0.0160    -4.0830     0.1620 C.2   1 <1>   0.5140 
  8 O        1.2680    -4.4900     0.1910 O.3   1 <1>  -0.4300 
  9 C        2.9170    -3.8730    -1.3930 C.3   1 <1>  -0.1600 
 10 C        2.9620    -3.0780     1.0420 C.3   1 <1>  -0.1600 
 11 C       -1.0460    -5.0180     0.5460 C.ar  1 <1>   0.0860 
 12 C        3.8780    -5.0190    -1.0280 C.3   1 <1>  -0.1600 
 13 C        3.9340    -4.2220     1.3860 C.3   1 <1>  -0.1600 
 14 C       -0.7840    -6.3260     0.9370 C.ar  1 <1>  -0.1500 
 15 C       -2.3910    -4.6720     0.5520 C.ar  1 <1>  -0.1500 
 16 C        4.7680    -4.6350     0.1640 C.3   1 <1>  -0.1600 
 17 C       -1.8170    -7.1710     1.2920 C.ar  1 <1>   0.1600 
 18 C       -3.3510    -5.5910     0.9240 C.ar  1 <1>   0.1600 
 19 N       -3.0960    -6.8350     1.2960 N.ar  1 <1>  -0.6200 
 20 H        2.7960    -0.9970    -2.4330 H     1 <1>   0.0800 
 21 H        3.4490    -0.8410    -0.8090 H     1 <1>   0.0800 
 22 H        2.6220     0.4880    -1.5500 H     1 <1>   0.0800 
 23 H        3.5150    -3.0640    -1.7590 H     1 <1>   0.0800 
 24 H        2.2540    -4.1840    -2.1810 H     1 <1>   0.0800 
 25 H        2.3270    -2.8740     1.8860 H     1 <1>   0.0800 
 26 H        3.5430    -2.1990     0.8530 H     1 <1>   0.0800 
 27 H        4.4950    -5.2570    -1.8780 H     1 <1>   0.0800 
 28 H        3.3110    -5.9000    -0.7800 H     1 <1>   0.0800 
 29 H        3.3760    -5.0730     1.7370 H     1 <1>   0.0800 
 30 H        4.5890    -3.9120     2.1830 H     1 <1>   0.0800 
 31 H        0.2280    -6.6860     0.9640 H     1 <1>   0.1500 
 32 H       -2.6860    -3.6780     0.2630 H     1 <1>   0.1500 
 33 H        5.4160    -3.8220    -0.1190 H     1 <1>   0.0800 
 34 H        5.3930    -5.4720     0.4250 H     1 <1>   0.0800 
 35 H       -1.5820    -8.1790     1.5910 H     1 <1>   0.1500 
 36 H       -4.3860    -5.2910     0.9180 H     1 <1>   0.1500 
@<TRIPOS>BOND
  1   1   2  2   
  2   2   3  am  
  3   2   4  1   
  4   3   5  1   
  5   3   6  1   
  6   4  20  1   
  7   4  21  1   
  8   4  22  1   
  9   5   7  2   
 10   6   8  1   
 11   6   9  1   
 12   6  10  1   
 13   7   8  1   
 14   7  11  1   
 15   9  12  1   
 16   9  23  1   
 17   9  24  1   
 18  10  13  1   
 19  10  25  1   
 20  10  26  1   
 21  11  14  ar  
 22  11  15  ar  
 23  12  16  1   
 24  12  27  1   
 25  12  28  1   
 26  13  16  1   
 27  13  29  1   
 28  13  30  1   
 29  14  17  ar  
 30  14  31  1   
 31  15  18  ar  
 32  15  32  1   
 33  16  33  1   
 34  16  34  1   
 35  17  19  ar  
 36  17  35  1   
 37  18  19  ar  
 38  18  36  1   
@<TRIPOS>SUBSTRUCTURE
  1 ****   8 GROUP 4 **** **** 0

# MOE 2024.06 (io_trps.svl 2023.06)
