@<TRIPOS>MOLECULE
1-(3,5-Dimethyl-phenyl)-5-oxo-pyrrolidine-3-carboxylic acid (4-methoxy-phenyl)-a
47 49 1 0 0 
SMALL
USER_CHARGES


@<TRIPOS>ATOM
  1 O       -0.4260    -0.7070     0.4160 O.2   1 <1>  -0.5700 
  2 C        0.7770    -0.7500     0.4890 C.2   1 <1>   0.5690 
  3 N        1.5860    -1.8030     0.1710 N.am  1 <1>  -0.4770 
  4 C        1.5750     0.4280     0.9730 C.3   1 <1>  -0.0990 
  5 C        1.2060    -3.1070    -0.2060 C.ar  1 <1>   0.1170 
  6 C        2.9980    -1.4680     0.4480 C.3   1 <1>   0.1400 
  7 C        3.0130     0.0630     0.5780 C.3   1 <1>  -0.0190 
  8 C        0.1040    -3.7250     0.3750 C.ar  1 <1>  -0.1500 
  9 C        1.9270    -3.8160    -1.1630 C.ar  1 <1>  -0.1500 
 10 C        4.0790     0.5960     1.5310 C.2   1 <1>   0.5690 
 11 C       -0.2660    -5.0120     0.0250 C.ar  1 <1>  -0.1440 
 12 C        1.5720    -5.1050    -1.5200 C.ar  1 <1>  -0.1440 
 13 O        4.8010    -0.1700     2.1170 O.2   1 <1>  -0.5700 
 14 N        4.2280     1.9320     1.7340 N.am  1 <1>  -0.5470 
 15 C        0.4740    -5.7000    -0.9210 C.ar  1 <1>  -0.1500 
 16 C       -1.4730    -5.6690     0.6710 C.3   1 <1>  -0.0970 
 17 C        2.3680    -5.8700    -2.5630 C.3   1 <1>  -0.0970 
 18 C        3.5370     3.0040     1.1630 C.ar  1 <1>   0.1170 
 19 C        2.7340     3.8110     1.9570 C.ar  1 <1>  -0.1500 
 20 C        3.6380     3.2790    -0.1950 C.ar  1 <1>  -0.1500 
 21 C        2.0340     4.8650     1.4000 C.ar  1 <1>  -0.1500 
 22 C        2.9380     4.3330    -0.7560 C.ar  1 <1>  -0.1500 
 23 C        2.1270     5.1330     0.0440 C.ar  1 <1>   0.0820 
 24 O        1.4030     6.1840    -0.4210 O.3   1 <1>  -0.3620 
 25 C        1.4170     6.5310    -1.7880 C.3   1 <1>   0.0400 
 26 H        1.4660     0.5040     2.0390 H     1 <1>   0.0800 
 27 H        1.2420     1.3350     0.5020 H     1 <1>   0.0800 
 28 H        3.6490    -1.7930    -0.3440 H     1 <1>   0.0800 
 29 H        3.2850    -1.9480     1.3690 H     1 <1>   0.0800 
 30 H        3.2100     0.4590    -0.4010 H     1 <1>   0.0800 
 31 H       -0.4660    -3.1870     1.1100 H     1 <1>   0.1500 
 32 H        2.7680    -3.3520    -1.6390 H     1 <1>   0.1500 
 33 H        4.9180     2.1590     2.4520 H     1 <1>   0.3700 
 34 H        0.1920    -6.7010    -1.1960 H     1 <1>   0.1500 
 35 H       -2.1140    -4.9290     1.1160 H     1 <1>   0.0800 
 36 H       -1.1500    -6.3530     1.4340 H     1 <1>   0.0800 
 37 H       -2.0400    -6.2080    -0.0660 H     1 <1>   0.0800 
 38 H        3.3130    -5.3930    -2.7500 H     1 <1>   0.0800 
 39 H        1.8130    -5.9120    -3.4830 H     1 <1>   0.0800 
 40 H        2.5530    -6.8730    -2.2230 H     1 <1>   0.0800 
 41 H        2.6520     3.6120     3.0100 H     1 <1>   0.1500 
 42 H        4.2730     2.6710    -0.8140 H     1 <1>   0.1500 
 43 H        1.4080     5.4890     2.0120 H     1 <1>   0.1500 
 44 H        3.0370     4.5170    -1.8090 H     1 <1>   0.1500 
 45 H        0.7750     7.3820    -1.9230 H     1 <1>   0.0800 
 46 H        1.0480     5.7000    -2.3630 H     1 <1>   0.0800 
 47 H        2.4230     6.7830    -2.0740 H     1 <1>   0.0800 
@<TRIPOS>BOND
  1   1   2  2   
  2   2   3  am  
  3   2   4  1   
  4   3   5  1   
  5   3   6  1   
  6   4   7  1   
  7   4  26  1   
  8   4  27  1   
  9   5   8  ar  
 10   5   9  ar  
 11   6   7  1   
 12   6  28  1   
 13   6  29  1   
 14   7  10  1   
 15   7  30  1   
 16   8  11  ar  
 17   8  31  1   
 18   9  12  ar  
 19   9  32  1   
 20  10  13  2   
 21  10  14  am  
 22  11  15  ar  
 23  11  16  1   
 24  12  15  ar  
 25  12  17  1   
 26  14  18  1   
 27  14  33  1   
 28  15  34  1   
 29  16  35  1   
 30  16  36  1   
 31  16  37  1   
 32  17  38  1   
 33  17  39  1   
 34  17  40  1   
 35  18  19  ar  
 36  18  20  ar  
 37  19  21  ar  
 38  19  41  1   
 39  20  22  ar  
 40  20  42  1   
 41  21  23  ar  
 42  21  43  1   
 43  22  23  ar  
 44  22  44  1   
 45  23  24  1   
 46  24  25  1   
 47  25  45  1   
 48  25  46  1   
 49  25  47  1   
@<TRIPOS>SUBSTRUCTURE
  1 ****   4 GROUP 4 **** **** 0

# MOE 2024.06 (io_trps.svl 2023.06)
