@<TRIPOS>MOLECULE
6-Benzyl-3-tert-butyl-[1,2,4]triazolo[3,4-b][1,3,4]thiadiazole
35 37 1 0 0 
SMALL
USER_CHARGES


@<TRIPOS>ATOM
  1 S        0.0410     0.9950     2.5120 S.3   1 <1>  -0.1970 
  2 C        1.6920     0.5770     2.1070 C.2   1 <1>   0.2420 
  3 C        0.0180     2.0580     1.0900 C.2   1 <1>   0.5300 
  4 N        2.5970    -0.1830     2.6080 N.2   1 <1>  -0.3380 
  5 N        2.0470     1.2310     1.0130 N.pl3 1 <1>   0.5050 
  6 N        1.1030     2.0870     0.4280 N.2   1 <1>  -0.6520 
  7 C       -1.2690     2.8150     0.8280 C.3   1 <1>   0.0450 
  8 N        3.6510    -0.0310     1.7850 N.2   1 <1>  -0.3380 
  9 C        3.3140     0.8080     0.8450 C.2   1 <1>   0.0070 
 10 C       -2.3660     1.8780     0.3480 C.ar  1 <1>  -0.1440 
 11 C        4.2080     1.2730    -0.3140 C.3   1 <1>   0.1800 
 12 C       -2.3650     1.4270    -0.9640 C.ar  1 <1>  -0.1500 
 13 C       -3.3700     1.4620     1.2100 C.ar  1 <1>  -0.1500 
 14 C        3.5710     0.8900    -1.6580 C.3   1 <1>  -0.2400 
 15 C        4.4010     2.7960    -0.2530 C.3   1 <1>  -0.2400 
 16 C        5.5950     0.6110    -0.2340 C.3   1 <1>  -0.2400 
 17 C       -3.3560     0.5700    -1.4090 C.ar  1 <1>  -0.1500 
 18 C       -4.3610     0.6050     0.7650 C.ar  1 <1>  -0.1500 
 19 C       -4.3550     0.1590    -0.5450 C.ar  1 <1>  -0.1500 
 20 H       -1.0860     3.5630     0.0770 H     1 <1>   0.0800 
 21 H       -1.5710     3.3200     1.7270 H     1 <1>   0.0800 
 22 H       -1.5920     1.7380    -1.6460 H     1 <1>   0.1500 
 23 H       -3.3880     1.7980     2.2320 H     1 <1>   0.1500 
 24 H        4.2120     1.1710    -2.4740 H     1 <1>   0.0800 
 25 H        2.6250     1.3820    -1.7890 H     1 <1>   0.0800 
 26 H        3.4100    -0.1730    -1.7000 H     1 <1>   0.0800 
 27 H        3.4630     3.3070    -0.3720 H     1 <1>   0.0800 
 28 H        5.0630     3.1250    -1.0340 H     1 <1>   0.0800 
 29 H        4.8240     3.0770     0.6950 H     1 <1>   0.0800 
 30 H        5.5000    -0.4590    -0.2810 H     1 <1>   0.0800 
 31 H        6.0760     0.8640     0.6940 H     1 <1>   0.0800 
 32 H        6.2230     0.9350    -1.0440 H     1 <1>   0.0800 
 33 H       -3.3500     0.2230    -2.4270 H     1 <1>   0.1500 
 34 H       -5.1380     0.2850     1.4370 H     1 <1>   0.1500 
 35 H       -5.1260    -0.5080    -0.8910 H     1 <1>   0.1500 
@<TRIPOS>BOND
  1   1   2  1   
  2   1   3  1   
  3   2   4  2   
  4   2   5  1   
  5   3   6  2   
  6   3   7  1   
  7   4   8  1   
  8   5   6  1   
  9   5   9  1   
 10   7  10  1   
 11   7  20  1   
 12   7  21  1   
 13   8   9  2   
 14   9  11  1   
 15  10  12  ar  
 16  10  13  ar  
 17  11  14  1   
 18  11  15  1   
 19  11  16  1   
 20  12  17  ar  
 21  12  22  1   
 22  13  18  ar  
 23  13  23  1   
 24  14  24  1   
 25  14  25  1   
 26  14  26  1   
 27  15  27  1   
 28  15  28  1   
 29  15  29  1   
 30  16  30  1   
 31  16  31  1   
 32  16  32  1   
 33  17  19  ar  
 34  17  33  1   
 35  18  19  ar  
 36  18  34  1   
 37  19  35  1   
@<TRIPOS>SUBSTRUCTURE
  1 ****   6 GROUP 4 **** **** 0

# MOE 2024.06 (io_trps.svl 2023.06)
