@<TRIPOS>MOLECULE
N-[2-(4-Acetyl-piperazin-1-yl)-phenyl]-3-ethoxy-benzamide
52 54 1 0 0 
SMALL
USER_CHARGES


@<TRIPOS>ATOM
  1 O        0.2760    -0.2110    -0.0980 O.2   1 <1>  -0.5700 
  2 C        0.7130     0.8750    -0.4210 C.2   1 <1>   0.5440 
  3 N        2.0550     1.1400    -0.3180 N.am  1 <1>  -0.5470 
  4 C       -0.1780     1.9180    -0.8960 C.ar  1 <1>   0.0860 
  5 C        3.1770     0.3940     0.0740 C.ar  1 <1>   0.1170 
  6 C       -1.4890     2.0060    -0.4330 C.ar  1 <1>  -0.1500 
  7 C        0.2380     2.8740    -1.8270 C.ar  1 <1>  -0.1500 
  8 C        4.3550     1.1200     0.3060 C.ar  1 <1>   0.1000 
  9 C        3.1800    -0.9850     0.2290 C.ar  1 <1>  -0.1500 
 10 C       -2.3500     3.0020    -0.8580 C.ar  1 <1>   0.0830 
 11 C       -0.6120     3.8750    -2.2620 C.ar  1 <1>  -0.1500 
 12 N        4.3590     2.5200     0.1480 N.pl3 1 <1>  -0.8380 
 13 C        5.5000     0.4420     0.7050 C.ar  1 <1>  -0.1500 
 14 C        4.3320    -1.6480     0.6200 C.ar  1 <1>  -0.1500 
 15 O       -3.6010     2.9920    -0.3340 O.3   1 <1>  -0.3630 
 16 C       -1.9060     3.9450    -1.7800 C.ar  1 <1>  -0.1500 
 17 C        5.3470     3.0750    -0.8320 C.3   1 <1>   0.2090 
 18 C        4.2080     3.3030     1.4230 C.3   1 <1>   0.2090 
 19 C        5.4920    -0.9330     0.8600 C.ar  1 <1>  -0.1500 
 20 C       -4.5710     3.9350    -0.7240 C.3   1 <1>   0.1200 
 21 C        5.2780     4.6110    -0.9060 C.3   1 <1>   0.1400 
 22 C        5.3050     4.3640     1.6220 C.3   1 <1>   0.1400 
 23 C       -5.8580     3.6280     0.0350 C.3   1 <1>  -0.2400 
 24 N        5.4320     5.2680     0.4330 N.am  1 <1>  -0.6600 
 25 C        5.6240     6.6120     0.6000 C.2   1 <1>   0.5690 
 26 O        5.7430     7.1130     1.6910 O.2   1 <1>  -0.5700 
 27 C        5.6930     7.5270    -0.6010 C.3   1 <1>  -0.1790 
 28 H        2.3310     2.1180    -0.4250 H     1 <1>   0.3700 
 29 H       -1.8460     1.2800     0.2760 H     1 <1>   0.1500 
 30 H        1.2370     2.8290    -2.2240 H     1 <1>   0.1500 
 31 H        2.2860    -1.5500     0.0440 H     1 <1>   0.1500 
 32 H       -0.2680     4.6000    -2.9800 H     1 <1>   0.1500 
 33 H        6.4010     0.9910     0.9000 H     1 <1>   0.1500 
 34 H        4.3200    -2.7170     0.7370 H     1 <1>   0.1500 
 35 H       -2.5480     4.7310    -2.1310 H     1 <1>   0.1500 
 36 H        5.1430     2.6600    -1.8040 H     1 <1>   0.0800 
 37 H        6.3440     2.7830    -0.5520 H     1 <1>   0.0800 
 38 H        4.2130     2.6310     2.2650 H     1 <1>   0.0800 
 39 H        3.2520     3.7970     1.4130 H     1 <1>   0.0800 
 40 H        6.3860    -1.4470     1.1670 H     1 <1>   0.1500 
 41 H       -4.7260     3.8470    -1.7860 H     1 <1>   0.0800 
 42 H       -4.2100     4.9190    -0.4780 H     1 <1>   0.0800 
 43 H        4.3260     4.8900    -1.3230 H     1 <1>   0.0800 
 44 H        6.0510     4.9580    -1.5670 H     1 <1>   0.0800 
 45 H        6.2460     3.8720     1.7920 H     1 <1>   0.0800 
 46 H        5.0730     4.9370     2.5030 H     1 <1>   0.0800 
 47 H       -6.2000     2.6370    -0.2050 H     1 <1>   0.0800 
 48 H       -6.6220     4.3320    -0.2410 H     1 <1>   0.0800 
 49 H       -5.6880     3.7030     1.0940 H     1 <1>   0.0800 
 50 H        4.8080     7.4190    -1.1980 H     1 <1>   0.0800 
 51 H        6.5620     7.2940    -1.1860 H     1 <1>   0.0800 
 52 H        5.7640     8.5470    -0.2730 H     1 <1>   0.0800 
@<TRIPOS>BOND
  1   1   2  2   
  2   2   3  am  
  3   2   4  1   
  4   3   5  1   
  5   3  28  1   
  6   4   6  ar  
  7   4   7  ar  
  8   5   8  ar  
  9   5   9  ar  
 10   6  10  ar  
 11   6  29  1   
 12   7  11  ar  
 13   7  30  1   
 14   8  12  1   
 15   8  13  ar  
 16   9  14  ar  
 17   9  31  1   
 18  10  15  1   
 19  10  16  ar  
 20  11  16  ar  
 21  11  32  1   
 22  12  17  1   
 23  12  18  1   
 24  13  19  ar  
 25  13  33  1   
 26  14  19  ar  
 27  14  34  1   
 28  15  20  1   
 29  16  35  1   
 30  17  21  1   
 31  17  36  1   
 32  17  37  1   
 33  18  22  1   
 34  18  38  1   
 35  18  39  1   
 36  19  40  1   
 37  20  23  1   
 38  20  41  1   
 39  20  42  1   
 40  21  24  1   
 41  21  43  1   
 42  21  44  1   
 43  22  24  1   
 44  22  45  1   
 45  22  46  1   
 46  23  47  1   
 47  23  48  1   
 48  23  49  1   
 49  24  25  am  
 50  25  26  2   
 51  25  27  1   
 52  27  50  1   
 53  27  51  1   
 54  27  52  1   
@<TRIPOS>SUBSTRUCTURE
  1 ****   3 GROUP 4 **** **** 0

# MOE 2024.06 (io_trps.svl 2023.06)
