@<TRIPOS>MOLECULE
5-Oxo-1-p-tolyl-pyrrolidine-3-carboxylic acid (3-methoxy-propyl)-amide
43 44 1 0 0 
SMALL
USER_CHARGES


@<TRIPOS>ATOM
  1 O        0.6810     0.0760    -0.8800 O.2   1 <1>  -0.5700 
  2 C        1.8300     0.2740    -0.5720 C.2   1 <1>   0.5690 
  3 N        2.7670    -0.6630    -0.2400 N.am  1 <1>  -0.4770 
  4 C        2.4020     1.6630    -0.5270 C.3   1 <1>  -0.0990 
  5 C        2.5820    -2.0480    -0.0620 C.ar  1 <1>   0.1170 
  6 C        4.0500    -0.0100     0.0970 C.3   1 <1>   0.1400 
  7 C        3.9140     1.4090    -0.4700 C.3   1 <1>  -0.0190 
  8 C        1.4230    -2.5440     0.5270 C.ar  1 <1>  -0.1500 
  9 C        3.5530    -2.9620    -0.4610 C.ar  1 <1>  -0.1500 
 10 C        4.6740     2.4480     0.3350 C.2   1 <1>   0.5690 
 11 C        1.2430    -3.9020     0.7190 C.ar  1 <1>  -0.1500 
 12 C        3.3770    -4.3200    -0.2690 C.ar  1 <1>  -0.1500 
 13 O        4.5960     2.4340     1.5390 O.2   1 <1>  -0.5700 
 14 N        5.4170     3.3720    -0.3270 N.am  1 <1>  -0.7300 
 15 C        2.2200    -4.8000     0.3230 C.ar  1 <1>  -0.1430 
 16 C        6.2360     4.4180     0.3210 C.3   1 <1>   0.1400 
 17 C        2.0240    -6.2890     0.5360 C.3   1 <1>  -0.0970 
 18 C        7.6210     4.4330    -0.3200 C.3   1 <1>  -0.1600 
 19 C        8.5190     5.4690     0.3500 C.3   1 <1>   0.1200 
 20 O        9.7370     5.4560    -0.3140 O.3   1 <1>  -0.5600 
 21 C       10.6760     6.3400     0.2070 C.3   1 <1>   0.0400 
 22 H        2.0510     2.1500     0.3650 H     1 <1>   0.0800 
 23 H        2.1180     2.2290    -1.3950 H     1 <1>   0.0800 
 24 H        4.8860    -0.5220    -0.3430 H     1 <1>   0.0800 
 25 H        4.1580     0.0020     1.1690 H     1 <1>   0.0800 
 26 H        4.2970     1.3910    -1.4740 H     1 <1>   0.0800 
 27 H        0.6540    -1.8590     0.8370 H     1 <1>   0.1500 
 28 H        4.4510    -2.6160    -0.9340 H     1 <1>   0.1500 
 29 H        0.3370    -4.2540     1.1790 H     1 <1>   0.1500 
 30 H        4.1440    -5.0050    -0.5840 H     1 <1>   0.1500 
 31 H        5.4420     3.3760    -1.3480 H     1 <1>   0.3700 
 32 H        6.3210     4.2150     1.3770 H     1 <1>   0.0800 
 33 H        5.7550     5.3730     0.1960 H     1 <1>   0.0800 
 34 H        0.9810    -6.5430     0.4730 H     1 <1>   0.0800 
 35 H        2.3920    -6.5690     1.5070 H     1 <1>   0.0800 
 36 H        2.5550    -6.8500    -0.2120 H     1 <1>   0.0800 
 37 H        7.5320     4.6750    -1.3640 H     1 <1>   0.0800 
 38 H        8.0750     3.4640    -0.2130 H     1 <1>   0.0800 
 39 H        8.6840     5.2190     1.3850 H     1 <1>   0.0800 
 40 H        8.0950     6.4560     0.2700 H     1 <1>   0.0800 
 41 H       11.5760     6.2530    -0.3760 H     1 <1>   0.0800 
 42 H       10.8800     6.0800     1.2310 H     1 <1>   0.0800 
 43 H       10.2950     7.3450     0.1370 H     1 <1>   0.0800 
@<TRIPOS>BOND
  1   1   2  2   
  2   2   3  am  
  3   2   4  1   
  4   3   5  1   
  5   3   6  1   
  6   4   7  1   
  7   4  22  1   
  8   4  23  1   
  9   5   8  ar  
 10   5   9  ar  
 11   6   7  1   
 12   6  24  1   
 13   6  25  1   
 14   7  10  1   
 15   7  26  1   
 16   8  11  ar  
 17   8  27  1   
 18   9  12  ar  
 19   9  28  1   
 20  10  13  2   
 21  10  14  am  
 22  11  15  ar  
 23  11  29  1   
 24  12  15  ar  
 25  12  30  1   
 26  14  16  1   
 27  14  31  1   
 28  15  17  1   
 29  16  18  1   
 30  16  32  1   
 31  16  33  1   
 32  17  34  1   
 33  17  35  1   
 34  17  36  1   
 35  18  19  1   
 36  18  37  1   
 37  18  38  1   
 38  19  20  1   
 39  19  39  1   
 40  19  40  1   
 41  20  21  1   
 42  21  41  1   
 43  21  42  1   
 44  21  43  1   
@<TRIPOS>SUBSTRUCTURE
  1 ****   6 GROUP 4 **** **** 0

# MOE 2024.06 (io_trps.svl 2023.06)
