@<TRIPOS>MOLECULE
N-Isopropyl-3-(3-phenyl-[1,2,4]oxadiazol-5-yl)-propionamide
36 37 1 0 0 
SMALL
USER_CHARGES


@<TRIPOS>ATOM
  1 O        0.1250    -0.6560    -1.9510 O.2   1 <1>  -0.5700 
  2 C        0.5580    -1.5980    -1.3400 C.2   1 <1>   0.5690 
  3 N        1.7730    -1.5150    -0.7520 N.am  1 <1>  -0.7300 
  4 C       -0.2920    -2.8460    -1.2370 C.3   1 <1>  -0.0990 
  5 C        2.5010    -2.4920     0.0660 C.3   1 <1>   0.2200 
  6 C       -1.1350    -2.8190     0.0440 C.3   1 <1>   0.0200 
  7 C        2.9080    -1.8080     1.3660 C.3   1 <1>  -0.2400 
  8 C        3.7200    -2.9570    -0.7210 C.3   1 <1>  -0.2400 
  9 C       -1.9080    -4.1100     0.2180 C.2   1 <1>   0.2980 
 10 O       -1.2460    -5.2050     0.4870 O.3   1 <1>  -0.0190 
 11 N       -3.1650    -4.2400     0.1290 N.2   1 <1>  -0.5650 
 12 N       -2.1640    -6.1140     0.5730 N.2   1 <1>  -0.4100 
 13 C       -3.3020    -5.5500     0.3620 C.2   1 <1>   0.4620 
 14 C       -4.5940    -6.2180     0.3680 C.ar  1 <1>   0.0540 
 15 C       -4.7010    -7.5860     0.6250 C.ar  1 <1>  -0.1500 
 16 C       -5.7810    -5.5240     0.1180 C.ar  1 <1>  -0.1500 
 17 C       -5.9250    -8.2300     0.6330 C.ar  1 <1>  -0.1500 
 18 C       -7.0090    -6.1610     0.1240 C.ar  1 <1>  -0.1500 
 19 C       -7.0830    -7.5180     0.3820 C.ar  1 <1>  -0.1500 
 20 H        2.2640    -0.6330    -0.9060 H     1 <1>   0.3700 
 21 H        0.3340    -3.7170    -1.2680 H     1 <1>   0.0800 
 22 H       -0.9470    -2.8870    -2.0900 H     1 <1>   0.0800 
 23 H        1.8750    -3.3380     0.2930 H     1 <1>   0.0800 
 24 H       -1.8260    -1.9960    -0.0020 H     1 <1>   0.0800 
 25 H       -0.5040    -2.6760     0.9020 H     1 <1>   0.0800 
 26 H        3.5480    -0.9660     1.1710 H     1 <1>   0.0800 
 27 H        3.4390    -2.5020     1.9930 H     1 <1>   0.0800 
 28 H        2.0350    -1.4750     1.8980 H     1 <1>   0.0800 
 29 H        4.3670    -2.1280    -0.9490 H     1 <1>   0.0800 
 30 H        3.4100    -3.4260    -1.6380 H     1 <1>   0.0800 
 31 H        4.2760    -3.6750    -0.1470 H     1 <1>   0.0800 
 32 H       -3.8100    -8.1570     0.8230 H     1 <1>   0.1500 
 33 H       -5.7420    -4.4680    -0.0840 H     1 <1>   0.1500 
 34 H       -5.9770    -9.2860     0.8340 H     1 <1>   0.1500 
 35 H       -7.9070    -5.6020    -0.0720 H     1 <1>   0.1500 
 36 H       -8.0370    -8.0160     0.3870 H     1 <1>   0.1500 
@<TRIPOS>BOND
  1   1   2  2   
  2   2   3  am  
  3   2   4  1   
  4   3   5  1   
  5   3  20  1   
  6   4   6  1   
  7   4  21  1   
  8   4  22  1   
  9   5   7  1   
 10   5   8  1   
 11   5  23  1   
 12   6   9  1   
 13   6  24  1   
 14   6  25  1   
 15   7  26  1   
 16   7  27  1   
 17   7  28  1   
 18   8  29  1   
 19   8  30  1   
 20   8  31  1   
 21   9  10  1   
 22   9  11  2   
 23  10  12  1   
 24  11  13  1   
 25  12  13  2   
 26  13  14  1   
 27  14  15  ar  
 28  14  16  ar  
 29  15  17  ar  
 30  15  32  1   
 31  16  18  ar  
 32  16  33  1   
 33  17  19  ar  
 34  17  34  1   
 35  18  19  ar  
 36  18  35  1   
 37  19  36  1   
@<TRIPOS>SUBSTRUCTURE
  1 ****   9 GROUP 4 **** **** 0

# MOE 2024.06 (io_trps.svl 2023.06)
