@<TRIPOS>MOLECULE
Thiophene-2-carboxylic acid (2-hydroxy-quinolin-3-ylmethyl)-(tetrahydro-furan-2-
46 49 1 0 0 
SMALL
USER_CHARGES


@<TRIPOS>ATOM
  1 S       -1.2650     0.9770     0.6000 S.3   1 <1>  -0.0800 
  2 C       -0.3640     1.3060    -0.8870 C.2   1 <1>  -0.0450 
  3 C       -0.8670    -0.7260     0.5550 C.2   1 <1>  -0.1100 
  4 C       -0.3120     2.6380    -1.4400 C.2   1 <1>   0.7150 
  5 C        0.1610     0.1360    -1.3350 C.2   1 <1>  -0.1500 
  6 C       -0.1140    -1.0030    -0.5240 C.2   1 <1>  -0.1500 
  7 O       -0.2210     2.7630    -2.6470 O.2   1 <1>  -0.5700 
  8 N       -0.3230     3.7800    -0.6660 N.am  1 <1>  -0.6600 
  9 C       -0.7230     5.0930    -1.2560 C.3   1 <1>   0.2780 
 10 C        0.3420     3.8740     0.6770 C.3   1 <1>   0.1400 
 11 C       -1.9180     5.6960    -0.5270 C.2   1 <1>  -0.1240 
 12 C        1.7720     3.3080     0.6750 C.3   1 <1>   0.2000 
 13 C       -2.0660     7.1150    -0.6410 C.2   1 <1>   0.6160 
 14 C       -2.8220     4.9730     0.1870 C.2   1 <1>  -0.1780 
 15 O        2.3710     3.5810     1.8970 O.3   1 <1>  -0.5600 
 16 C        2.7100     3.9400    -0.3460 C.3   1 <1>  -0.1600 
 17 O       -1.3010     7.8260    -1.2680 O.2   1 <1>  -0.5700 
 18 N       -3.1200     7.7070    -0.0140 N.am  1 <1>  -0.5470 
 19 C       -3.9260     5.6090     0.8420 C.ar  1 <1>   0.0280 
 20 C        3.7580     3.5400     1.7780 C.3   1 <1>   0.1200 
 21 C        4.0740     3.7710     0.3010 C.3   1 <1>  -0.1600 
 22 C       -4.0600     7.0020     0.7280 C.ar  1 <1>   0.1170 
 23 C       -4.8710     4.9020     1.5870 C.ar  1 <1>  -0.1500 
 24 C       -5.1230     7.6500     1.3530 C.ar  1 <1>  -0.1500 
 25 C       -5.9190     5.5550     2.2010 C.ar  1 <1>  -0.1500 
 26 C       -6.0460     6.9330     2.0840 C.ar  1 <1>  -0.1500 
 27 H       -1.2430    -1.3490     1.3480 H     1 <1>   0.1500 
 28 H        0.7430     0.0460    -2.2370 H     1 <1>   0.1500 
 29 H        0.2630    -1.9760    -0.7880 H     1 <1>   0.1500 
 30 H       -0.9770     4.9880    -2.2960 H     1 <1>   0.0800 
 31 H        0.1200     5.7610    -1.1990 H     1 <1>   0.0800 
 32 H       -0.2470     3.3560     1.4110 H     1 <1>   0.0800 
 33 H        0.3950     4.9060     0.9760 H     1 <1>   0.0800 
 34 H        1.7590     2.2370     0.5650 H     1 <1>   0.0800 
 35 H       -2.7500     3.9040     0.2840 H     1 <1>   0.1500 
 36 H        2.4790     4.9850    -0.4540 H     1 <1>   0.0800 
 37 H        2.6410     3.4600    -1.3060 H     1 <1>   0.0800 
 38 H       -3.1830     8.7170    -0.1250 H     1 <1>   0.3700 
 39 H        4.0970     2.5730     2.1060 H     1 <1>   0.0800 
 40 H        4.1740     4.3100     2.4050 H     1 <1>   0.0800 
 41 H        4.6920     4.6400     0.1630 H     1 <1>   0.0800 
 42 H        4.5840     2.9110    -0.0960 H     1 <1>   0.0800 
 43 H       -4.7760     3.8350     1.6800 H     1 <1>   0.1500 
 44 H       -5.2210     8.7160     1.2610 H     1 <1>   0.1500 
 45 H       -6.6440     5.0000     2.7740 H     1 <1>   0.1500 
 46 H       -6.8680     7.4360     2.5660 H     1 <1>   0.1500 
@<TRIPOS>BOND
  1   1   2  1   
  2   1   3  1   
  3   2   4  1   
  4   2   5  2   
  5   3   6  2   
  6   3  27  1   
  7   4   7  2   
  8   4   8  am  
  9   5   6  1   
 10   5  28  1   
 11   6  29  1   
 12   8   9  1   
 13   8  10  1   
 14   9  11  1   
 15   9  30  1   
 16   9  31  1   
 17  10  12  1   
 18  10  32  1   
 19  10  33  1   
 20  11  13  1   
 21  11  14  2   
 22  12  15  1   
 23  12  16  1   
 24  12  34  1   
 25  13  17  2   
 26  13  18  am  
 27  14  19  1   
 28  14  35  1   
 29  15  20  1   
 30  16  21  1   
 31  16  36  1   
 32  16  37  1   
 33  18  22  1   
 34  18  38  1   
 35  19  22  ar  
 36  19  23  ar  
 37  20  21  1   
 38  20  39  1   
 39  20  40  1   
 40  21  41  1   
 41  21  42  1   
 42  22  24  ar  
 43  23  25  ar  
 44  23  43  1   
 45  24  26  ar  
 46  24  44  1   
 47  25  26  ar  
 48  25  45  1   
 49  26  46  1   
@<TRIPOS>SUBSTRUCTURE
  1 ****   8 GROUP 4 **** **** 0

# MOE 2024.06 (io_trps.svl 2023.06)
