@<TRIPOS>MOLECULE
8-(4-Methoxy-benzyl)-3-(2-methoxy-ethyl)-1,6,7-trimethyl-1H,8H-imidazo[2,1-f]pur
56 59 1 0 0 
SMALL
USER_CHARGES


@<TRIPOS>ATOM
  1 O        2.7820     0.3550    -2.4630 O.2   1 <1>  -0.5740 
  2 C        3.3250     0.9250    -1.5400 C.2   1 <1>   0.6870 
  3 N        2.5810     1.7220    -0.6750 N.am  1 <1>  -0.4250 
  4 N        4.6950     0.7870    -1.3530 N.am  1 <1>  -0.4410 
  5 C        3.1860     2.4330     0.3540 C.2   1 <1>   0.7000 
  6 C        1.0970     1.8110    -0.8600 C.3   1 <1>   0.1340 
  7 C        5.2770     1.4680    -0.3050 C.2   1 <1>   0.4210 
  8 C        5.5190    -0.0920    -2.2390 C.3   1 <1>   0.0530 
  9 O        2.5330     3.1770     1.0660 O.2   1 <1>  -0.5740 
 10 C        4.5910     2.2730     0.5420 C.2   1 <1>   0.2710 
 11 C        0.7430     2.9020    -1.8700 C.3   1 <1>   0.1130 
 12 N        6.5870     1.4590     0.0530 N.pl3 1 <1>  -0.7030 
 13 N        5.5360     2.7790     1.4570 N.pl3 1 <1>  -0.6330 
 14 O       -0.6420     2.9790    -1.9510 O.3   1 <1>  -0.5640 
 15 C        6.7080     2.2590     1.1170 C.cat 1 <1>   1.0690 
 16 C        5.7590     3.5820     2.5560 C.2   1 <1>   0.2350 
 17 C       -1.1020     3.9220    -2.8630 C.3   1 <1>   0.0330 
 18 N        7.6930     2.6750     1.9300 N.pl3 1 <1>  -0.5710 
 19 C        7.0830     3.5180     2.8460 C.2   1 <1>   0.1580 
 20 C        4.6150     4.3360     3.2060 C.3   1 <1>  -0.1090 
 21 C        9.1390     2.3150     1.8680 C.3   1 <1>   0.3060 
 22 C        7.8770     4.1990     3.9480 C.3   1 <1>  -0.1090 
 23 C        9.3720     1.4140     0.6690 C.ar  1 <1>  -0.1500 
 24 C        9.2230     0.0400     0.7940 C.ar  1 <1>  -0.1560 
 25 C        9.6410     1.9640    -0.5760 C.ar  1 <1>  -0.1560 
 26 C        9.2860    -0.7660    -0.3280 C.ar  1 <1>  -0.1560 
 27 C        9.7090     1.1570    -1.6960 C.ar  1 <1>  -0.1560 
 28 C        9.5110    -0.2150    -1.5780 C.ar  1 <1>   0.0760 
 29 O        9.5150    -1.0680    -2.6280 O.3   1 <1>  -0.3680 
 30 C       10.0060    -0.6730    -3.8910 C.3   1 <1>   0.0330 
 31 H        0.6190     2.0300     0.0790 H     1 <1>   0.0730 
 32 H        0.7170     0.8680    -1.2130 H     1 <1>   0.0730 
 33 H        4.9940    -0.3170    -3.1520 H     1 <1>   0.0730 
 34 H        5.7380    -1.0160    -1.7330 H     1 <1>   0.0730 
 35 H        6.4420     0.3970    -2.4970 H     1 <1>   0.0730 
 36 H        1.1300     2.6550    -2.8440 H     1 <1>   0.0730 
 37 H        1.1160     3.8580    -1.5420 H     1 <1>   0.0730 
 38 H        7.3850     0.9630    -0.3620 H     1 <1>   0.4450 
 39 H       -2.1770     3.9010    -2.8510 H     1 <1>   0.0730 
 40 H       -0.7440     3.6690    -3.8460 H     1 <1>   0.0730 
 41 H       -0.7540     4.8980    -2.5710 H     1 <1>   0.0730 
 42 H        4.1650     5.0050     2.4950 H     1 <1>   0.0730 
 43 H        4.9570     4.9100     4.0460 H     1 <1>   0.0730 
 44 H        3.8650     3.6440     3.5460 H     1 <1>   0.0730 
 45 H        9.4250     1.8080     2.7740 H     1 <1>   0.0730 
 46 H        9.7320     3.2100     1.7770 H     1 <1>   0.0730 
 47 H        8.6380     4.8290     3.5220 H     1 <1>   0.0730 
 48 H        8.3460     3.4630     4.5770 H     1 <1>   0.0730 
 49 H        7.2390     4.8080     4.5610 H     1 <1>   0.0730 
 50 H        9.0440    -0.4130     1.7550 H     1 <1>   0.1440 
 51 H        9.7860     3.0270    -0.6870 H     1 <1>   0.1440 
 52 H        9.1640    -1.8330    -0.2430 H     1 <1>   0.1440 
 53 H        9.9120     1.6070    -2.6510 H     1 <1>   0.1440 
 54 H       10.0110    -1.5360    -4.5320 H     1 <1>   0.0730 
 55 H       11.0080    -0.2990    -3.7750 H     1 <1>   0.0730 
 56 H        9.3590     0.0810    -4.3020 H     1 <1>   0.0730 
@<TRIPOS>BOND
  1   1   2  2   
  2   2   3  am  
  3   2   4  am  
  4   3   5  am  
  5   3   6  1   
  6   4   7  1   
  7   4   8  1   
  8   5   9  2   
  9   5  10  1   
 10   6  11  1   
 11   6  31  1   
 12   6  32  1   
 13   7  10  2   
 14   7  12  1   
 15   8  33  1   
 16   8  34  1   
 17   8  35  1   
 18  10  13  1   
 19  11  14  1   
 20  11  36  1   
 21  11  37  1   
 22  12  15  ar  
 23  12  38  1   
 24  13  15  ar  
 25  13  16  1   
 26  14  17  1   
 27  15  18  ar  
 28  16  19  2   
 29  16  20  1   
 30  17  39  1   
 31  17  40  1   
 32  17  41  1   
 33  18  19  1   
 34  18  21  1   
 35  19  22  1   
 36  20  42  1   
 37  20  43  1   
 38  20  44  1   
 39  21  23  1   
 40  21  45  1   
 41  21  46  1   
 42  22  47  1   
 43  22  48  1   
 44  22  49  1   
 45  23  24  ar  
 46  23  25  ar  
 47  24  26  ar  
 48  24  50  1   
 49  25  27  ar  
 50  25  51  1   
 51  26  28  ar  
 52  26  52  1   
 53  27  28  ar  
 54  27  53  1   
 55  28  29  1   
 56  29  30  1   
 57  30  54  1   
 58  30  55  1   
 59  30  56  1   
@<TRIPOS>SUBSTRUCTURE
  1 ****   7 GROUP 4 **** **** 0

# MOE 2024.06 (io_trps.svl 2023.06)
