@<TRIPOS>MOLECULE
C-[1-(4-Methoxy-phenyl)-cyclopentyl]-methylamine
35 36 1 0 0 
SMALL
USER_CHARGES


@<TRIPOS>ATOM
  1 O        1.0240    -1.2090    -0.9060 O.3   1 <1>  -0.3630 
  2 C        1.8200    -0.1540    -0.6100 C.ar  1 <1>   0.0830 
  3 C       -0.1220    -1.5070    -0.1390 C.3   1 <1>   0.0400 
  4 C        1.6820     0.6260     0.5320 C.ar  1 <1>  -0.1500 
  5 C        2.8220     0.1450    -1.5140 C.ar  1 <1>  -0.1500 
  6 C        2.5480     1.6810     0.7590 C.ar  1 <1>  -0.1500 
  7 C        3.6850     1.2010    -1.2870 C.ar  1 <1>  -0.1500 
  8 C        3.5650     1.9810    -0.1410 C.ar  1 <1>  -0.1430 
  9 C        4.5500     3.1190     0.1750 C.3   1 <1>   0.1430 
 10 C        5.3430     3.6390    -1.0360 C.3   1 <1>  -0.1600 
 11 C        3.8460     4.3980     0.6480 C.3   1 <1>  -0.1600 
 12 C        5.5110     2.6160     1.2760 C.3   1 <1>   0.3430 
 13 C        5.8240     5.0390    -0.6480 C.3   1 <1>  -0.1600 
 14 C        4.8370     5.5420     0.4090 C.3   1 <1>  -0.1600 
 15 N        6.0250     1.2490     0.9650 N.4   1 <1>  -0.8530 
 16 H       -0.6230    -2.3410    -0.5970 H     1 <1>   0.0800 
 17 H       -0.7720    -0.6490    -0.1350 H     1 <1>   0.0800 
 18 H        0.1820    -1.7670     0.8590 H     1 <1>   0.0800 
 19 H        0.9060     0.4260     1.2480 H     1 <1>   0.1500 
 20 H        2.9130    -0.4570    -2.4020 H     1 <1>   0.1500 
 21 H        2.4070     2.2640     1.6530 H     1 <1>   0.1500 
 22 H        4.4400     1.3910    -2.0290 H     1 <1>   0.1500 
 23 H        4.6730     3.7440    -1.8740 H     1 <1>   0.0800 
 24 H        6.1590     3.0030    -1.3280 H     1 <1>   0.0800 
 25 H        3.5290     4.3570     1.6750 H     1 <1>   0.0800 
 26 H        2.9770     4.5640     0.0320 H     1 <1>   0.0800 
 27 H        4.9660     2.5810     2.2060 H     1 <1>   0.0800 
 28 H        6.3270     3.3110     1.3940 H     1 <1>   0.0800 
 29 H        5.8400     5.6900    -1.5060 H     1 <1>   0.0800 
 30 H        6.8170     4.9990    -0.2330 H     1 <1>   0.0800 
 31 H        5.3610     5.7880     1.3180 H     1 <1>   0.0800 
 32 H        4.3190     6.4240     0.0670 H     1 <1>   0.0800 
 33 H        5.2210     0.6570     0.7020 H     1 <1>   0.4500 
 34 H        6.5010     0.8200     1.7650 H     1 <1>   0.4500 
 35 H        6.6630     1.2660     0.1630 H     1 <1>   0.4500 
@<TRIPOS>BOND
  1   1   2  1   
  2   1   3  1   
  3   2   4  ar  
  4   2   5  ar  
  5   3  16  1   
  6   3  17  1   
  7   3  18  1   
  8   4   6  ar  
  9   4  19  1   
 10   5   7  ar  
 11   5  20  1   
 12   6   8  ar  
 13   6  21  1   
 14   7   8  ar  
 15   7  22  1   
 16   8   9  1   
 17   9  10  1   
 18   9  11  1   
 19   9  12  1   
 20  10  13  1   
 21  10  23  1   
 22  10  24  1   
 23  11  14  1   
 24  11  25  1   
 25  11  26  1   
 26  12  15  1   
 27  12  27  1   
 28  12  28  1   
 29  13  14  1   
 30  13  29  1   
 31  13  30  1   
 32  14  31  1   
 33  14  32  1   
 34  15  33  1   
 35  15  34  1   
 36  15  35  1   
@<TRIPOS>SUBSTRUCTURE
  1 ****   8 GROUP 4 **** **** 0

# MOE 2024.06 (io_trps.svl 2023.06)
