@<TRIPOS>MOLECULE
3-[3-(4-Chloro-phenyl)-[1,2,4]oxadiazol-5-yl]-1-(4-methyl-piperidin-1-yl)-propan
43 45 1 0 0 
SMALL
USER_CHARGES


@<TRIPOS>ATOM
  1 CL       1.4420     0.2510    -2.2920 Cl    1 <1>  -0.1770 
  2 C        2.5350     1.2840    -1.4090 C.ar  1 <1>   0.1770 
  3 C        2.8740     2.5190    -1.9280 C.ar  1 <1>  -0.1500 
  4 C        3.0500     0.8580    -0.2010 C.ar  1 <1>  -0.1500 
  5 C        3.7420     3.3340    -1.2220 C.ar  1 <1>  -0.1500 
  6 C        3.9160     1.6820     0.4950 C.ar  1 <1>  -0.1500 
  7 C        4.2850     2.9390     0.0050 C.ar  1 <1>   0.0540 
  8 C        5.1980     3.7960     0.7460 C.2   1 <1>   0.4620 
  9 N        5.7400     3.5140     1.8780 N.2   1 <1>  -0.4100 
 10 N        5.5770     4.9990     0.3040 N.2   1 <1>  -0.5650 
 11 O        6.4860     4.5150     2.2230 O.3   1 <1>  -0.0190 
 12 C        6.3460     5.3680     1.2420 C.2   1 <1>   0.2980 
 13 C        7.1020     6.6800     1.3050 C.3   1 <1>   0.0200 
 14 C        8.6080     6.4580     1.0880 C.3   1 <1>  -0.0990 
 15 C        9.4220     7.7420     1.1280 C.2   1 <1>   0.5690 
 16 O        8.8510     8.7670     1.4190 O.2   1 <1>  -0.5700 
 17 N       10.7640     7.7170     0.8430 N.am  1 <1>  -0.6600 
 18 C       11.5620     6.4970     0.5300 C.3   1 <1>   0.1400 
 19 C       11.5620     8.9750     0.7900 C.3   1 <1>   0.1400 
 20 C       12.1670     6.6280    -0.8710 C.3   1 <1>  -0.1600 
 21 C       12.1780     9.1340    -0.6040 C.3   1 <1>  -0.1600 
 22 C       13.0120     7.9050    -1.0020 C.3   1 <1>  -0.0800 
 23 C       13.5480     8.0560    -2.4290 C.3   1 <1>  -0.2400 
 24 H        2.4630     2.8330    -2.8700 H     1 <1>   0.1500 
 25 H        2.7730    -0.1070     0.1860 H     1 <1>   0.1500 
 26 H        4.0030     4.2960    -1.6300 H     1 <1>   0.1500 
 27 H        4.3150     1.3450     1.4380 H     1 <1>   0.1500 
 28 H        6.9280     7.1400     2.2620 H     1 <1>   0.0800 
 29 H        6.7220     7.3400     0.5440 H     1 <1>   0.0800 
 30 H        8.7480     5.9940     0.1300 H     1 <1>   0.0800 
 31 H        8.9800     5.7980     1.8500 H     1 <1>   0.0800 
 32 H       10.9620     5.6070     0.5800 H     1 <1>   0.0800 
 33 H       12.3510     6.4030     1.2570 H     1 <1>   0.0800 
 34 H       12.3400     8.9280     1.5330 H     1 <1>   0.0800 
 35 H       10.9460     9.8300     1.0090 H     1 <1>   0.0800 
 36 H       11.3700     6.6380    -1.5930 H     1 <1>   0.0800 
 37 H       12.7810     5.7670    -1.0700 H     1 <1>   0.0800 
 38 H       12.7970    10.0130    -0.6140 H     1 <1>   0.0800 
 39 H       11.3820     9.2860    -1.3120 H     1 <1>   0.0800 
 40 H       13.8510     7.8310    -0.3300 H     1 <1>   0.0800 
 41 H       12.7370     8.1330    -3.1330 H     1 <1>   0.0800 
 42 H       14.1520     7.2050    -2.6940 H     1 <1>   0.0800 
 43 H       14.1560     8.9390    -2.5080 H     1 <1>   0.0800 
@<TRIPOS>BOND
  1   1   2  1   
  2   2   3  ar  
  3   2   4  ar  
  4   3   5  ar  
  5   3  24  1   
  6   4   6  ar  
  7   4  25  1   
  8   5   7  ar  
  9   5  26  1   
 10   6   7  ar  
 11   6  27  1   
 12   7   8  1   
 13   8   9  2   
 14   8  10  1   
 15   9  11  1   
 16  10  12  2   
 17  11  12  1   
 18  12  13  1   
 19  13  14  1   
 20  13  28  1   
 21  13  29  1   
 22  14  15  1   
 23  14  30  1   
 24  14  31  1   
 25  15  16  2   
 26  15  17  am  
 27  17  18  1   
 28  17  19  1   
 29  18  20  1   
 30  18  32  1   
 31  18  33  1   
 32  19  21  1   
 33  19  34  1   
 34  19  35  1   
 35  20  22  1   
 36  20  36  1   
 37  20  37  1   
 38  21  22  1   
 39  21  38  1   
 40  21  39  1   
 41  22  23  1   
 42  22  40  1   
 43  23  41  1   
 44  23  42  1   
 45  23  43  1   
@<TRIPOS>SUBSTRUCTURE
  1 ****  12 GROUP 4 **** **** 0

# MOE 2024.06 (io_trps.svl 2023.06)
