@<TRIPOS>MOLECULE
N-[4-(2-Ethyl-piperidin-1-yl)-phenyl]-succinamic acid
45 46 1 0 0 
SMALL
USER_CHARGES


@<TRIPOS>ATOM
  1 O       -2.8400    -0.0260     2.1620 O.co2 1 <1>  -0.9000 
  2 C       -3.4730    -0.3920     1.1730 C.2   1 <1>   0.9060 
  3 O       -4.5220    -1.0410     1.2610 O.co2 1 <1>  -0.9000 
  4 C       -2.9340    -0.0210    -0.1920 C.3   1 <1>  -0.2660 
  5 C       -3.7810    -0.4860    -1.4020 C.3   1 <1>  -0.0990 
  6 C       -5.0860     0.2740    -1.5990 C.2   1 <1>   0.5690 
  7 O       -5.2270     0.9170    -2.6140 O.2   1 <1>  -0.5700 
  8 N       -6.0330     0.1690    -0.6270 N.am  1 <1>  -0.5470 
  9 C       -7.3200     0.7050    -0.4720 C.ar  1 <1>   0.1170 
 10 C       -7.8960     0.6660     0.7910 C.ar  1 <1>  -0.1500 
 11 C       -8.0520     1.2590    -1.5170 C.ar  1 <1>  -0.1500 
 12 C       -9.1680     1.1640     1.0060 C.ar  1 <1>  -0.1500 
 13 C       -9.3240     1.7560    -1.3020 C.ar  1 <1>  -0.1500 
 14 C       -9.9010     1.7110    -0.0370 C.ar  1 <1>   0.1000 
 15 N      -11.1820     2.2090     0.2030 N.pl3 1 <1>  -0.8380 
 16 C      -12.3590     1.4310    -0.3060 C.3   1 <1>   0.2890 
 17 C      -11.2820     3.6740    -0.0310 C.3   1 <1>   0.2090 
 18 C      -13.6400     2.0050     0.3290 C.3   1 <1>  -0.1600 
 19 C      -12.2720    -0.0750     0.0300 C.3   1 <1>  -0.1600 
 20 C      -12.5400     4.2340     0.6300 C.3   1 <1>  -0.1600 
 21 C      -13.7910     3.5160     0.1170 C.3   1 <1>  -0.1600 
 22 C      -11.4600    -0.9250    -0.9620 C.3   1 <1>  -0.2400 
 23 H       -1.9560    -0.4550    -0.2600 H     1 <1>   0.0800 
 24 H       -2.8220     1.0460    -0.2180 H     1 <1>   0.0800 
 25 H       -4.0070    -1.5320    -1.2990 H     1 <1>   0.0800 
 26 H       -3.1940    -0.3690    -2.2940 H     1 <1>   0.0800 
 27 H       -5.6810    -0.3510     0.2030 H     1 <1>   0.3700 
 28 H       -7.3350     0.2420     1.6060 H     1 <1>   0.1500 
 29 H       -7.6270     1.2980    -2.5020 H     1 <1>   0.1500 
 30 H       -9.6080     1.1340     1.9840 H     1 <1>   0.1500 
 31 H       -9.8790     2.1760    -2.1190 H     1 <1>   0.1500 
 32 H      -12.4210     1.5530    -1.3740 H     1 <1>   0.0800 
 33 H      -11.3100     3.8660    -1.0900 H     1 <1>   0.0800 
 34 H      -10.4120     4.1600     0.3780 H     1 <1>   0.0800 
 35 H      -13.6210     1.7960     1.3850 H     1 <1>   0.0800 
 36 H      -14.4980     1.5080    -0.0870 H     1 <1>   0.0800 
 37 H      -13.2670    -0.4810     0.0300 H     1 <1>   0.0800 
 38 H      -11.8830    -0.1950     1.0260 H     1 <1>   0.0800 
 39 H      -12.6130     5.2870     0.4230 H     1 <1>   0.0800 
 40 H      -12.4550     4.1100     1.6950 H     1 <1>   0.0800 
 41 H      -14.6600     3.8740     0.6410 H     1 <1>   0.0800 
 42 H      -13.9210     3.7210    -0.9320 H     1 <1>   0.0800 
 43 H      -10.4090    -0.7160    -0.8880 H     1 <1>   0.0800 
 44 H      -11.7800    -0.7390    -1.9720 H     1 <1>   0.0800 
 45 H      -11.5990    -1.9690    -0.7450 H     1 <1>   0.0800 
@<TRIPOS>BOND
  1   1   2  ar  
  2   2   3  ar  
  3   2   4  1   
  4   4   5  1   
  5   4  23  1   
  6   4  24  1   
  7   5   6  1   
  8   5  25  1   
  9   5  26  1   
 10   6   7  2   
 11   6   8  am  
 12   8   9  1   
 13   8  27  1   
 14   9  10  ar  
 15   9  11  ar  
 16  10  12  ar  
 17  10  28  1   
 18  11  13  ar  
 19  11  29  1   
 20  12  14  ar  
 21  12  30  1   
 22  13  14  ar  
 23  13  31  1   
 24  14  15  1   
 25  15  16  1   
 26  15  17  1   
 27  16  18  1   
 28  16  19  1   
 29  16  32  1   
 30  17  20  1   
 31  17  33  1   
 32  17  34  1   
 33  18  21  1   
 34  18  35  1   
 35  18  36  1   
 36  19  22  1   
 37  19  37  1   
 38  19  38  1   
 39  20  21  1   
 40  20  39  1   
 41  20  40  1   
 42  21  41  1   
 43  21  42  1   
 44  22  43  1   
 45  22  44  1   
 46  22  45  1   
@<TRIPOS>SUBSTRUCTURE
  1 ****  10 GROUP 4 **** **** 0

# MOE 2024.06 (io_trps.svl 2023.06)
