@<TRIPOS>MOLECULE
7-(3-Allyloxy-2-hydroxy-propyl)-8-azepan-1-yl-3-methyl-3,7-dihydro-purine-2,6-di
55 57 1 0 0 
SMALL
USER_CHARGES


@<TRIPOS>ATOM
  1 O        1.2880     2.1250    -0.0820 O.2   1 <1>  -0.5740 
  2 C        2.4890     2.1840    -0.2100 C.2   1 <1>   0.6870 
  3 N        3.3450     1.2700     0.3870 N.am  1 <1>  -0.4410 
  4 N        3.0120     3.1870    -0.9700 N.am  1 <1>  -0.4950 
  5 C        4.7070     1.4370     0.1800 C.2   1 <1>   0.4210 
  6 C        2.8210     0.1580     1.2320 C.3   1 <1>   0.0530 
  7 C        4.3500     3.3640    -1.1780 C.2   1 <1>   0.7000 
  8 N        5.7150     0.6690     0.6600 N.pl3 1 <1>  -0.7030 
  9 C        5.2450     2.4270    -0.5610 C.2   1 <1>   0.2710 
 10 O        4.7170     4.3020    -1.8590 O.2   1 <1>  -0.5740 
 11 C        6.8890     1.1540     0.2360 C.cat 1 <1>   1.0690 
 12 N        6.6430     2.2510    -0.5150 N.pl3 1 <1>  -0.7670 
 13 N        8.0540     0.5200     0.5510 N.pl3 1 <1>  -0.5960 
 14 C        7.5710     3.2880    -1.0730 C.3   1 <1>   0.3480 
 15 C        9.4260     0.9750     0.1680 C.3   1 <1>   0.1610 
 16 C        8.0750    -0.7900     1.2930 C.3   1 <1>   0.1610 
 17 C        7.9630     4.3740    -0.0420 C.3   1 <1>   0.1940 
 18 C        9.8820     0.3530    -1.1680 C.3   1 <1>  -0.1670 
 19 C        9.1260    -1.7940     0.7830 C.3   1 <1>  -0.1670 
 20 O        8.2070     3.8090     1.2060 O.3   1 <1>  -0.6840 
 21 C        6.9010     5.4720     0.1510 C.3   1 <1>   0.1130 
 22 C        9.0700    -0.8610    -1.6620 C.3   1 <1>  -0.1670 
 23 C        9.0970    -2.0850    -0.7290 C.3   1 <1>  -0.1670 
 24 O        7.2200     6.2280     1.2860 O.3   1 <1>  -0.5640 
 25 C        7.6690     7.5310     1.0640 C.3   1 <1>   0.2520 
 26 C        9.0130     7.5050     0.3530 C.2   1 <1>  -0.2940 
 27 C       10.1930     7.7460     0.9330 C.2   1 <1>  -0.3060 
 28 H        2.3580     3.8420    -1.3940 H     1 <1>   0.3650 
 29 H        1.7440     0.1640     1.2510 H     1 <1>   0.0730 
 30 H        3.1780     0.2670     2.2410 H     1 <1>   0.0730 
 31 H        3.1460    -0.7880     0.8350 H     1 <1>   0.0730 
 32 H        5.6240    -0.1370     1.2650 H     1 <1>   0.4450 
 33 H        7.1180     3.7640    -1.9250 H     1 <1>   0.0730 
 34 H        8.4570     2.8210    -1.4530 H     1 <1>   0.0730 
 35 H       10.1150     0.6910     0.9450 H     1 <1>   0.0730 
 36 H        9.4960     2.0410     0.1240 H     1 <1>   0.0730 
 37 H        7.1210    -1.2790     1.2250 H     1 <1>   0.0730 
 38 H        8.2690    -0.5910     2.3340 H     1 <1>   0.0730 
 39 H        8.8750     4.8440    -0.3660 H     1 <1>   0.0730 
 40 H       10.9170     0.0700    -1.0750 H     1 <1>   0.0730 
 41 H        9.8480     1.1100    -1.9290 H     1 <1>   0.0730 
 42 H        8.9730    -2.7250     1.3010 H     1 <1>   0.0730 
 43 H       10.1120    -1.4700     1.0650 H     1 <1>   0.0730 
 44 H        8.1830     4.5570     1.8520 H     1 <1>   0.3950 
 45 H        5.9410     5.0300     0.3380 H     1 <1>   0.0730 
 46 H        6.8220     6.1040    -0.7170 H     1 <1>   0.0730 
 47 H        9.4560    -1.1640    -2.6210 H     1 <1>   0.0730 
 48 H        8.0500    -0.5660    -1.8320 H     1 <1>   0.0730 
 49 H        8.2460    -2.7040    -0.9560 H     1 <1>   0.0730 
 50 H        9.9730    -2.6670    -0.9630 H     1 <1>   0.0730 
 51 H        7.7730     7.9970     2.0290 H     1 <1>   0.0730 
 52 H        6.9300     8.0720     0.4970 H     1 <1>   0.0730 
 53 H        8.9270     7.2780    -0.6940 H     1 <1>   0.1430 
 54 H       11.1350     7.7290     0.4130 H     1 <1>   0.1430 
 55 H       10.3170     7.9780     1.9770 H     1 <1>   0.1430 
@<TRIPOS>BOND
  1   1   2  2   
  2   2   3  am  
  3   2   4  am  
  4   3   5  1   
  5   3   6  1   
  6   4   7  am  
  7   4  28  1   
  8   5   8  1   
  9   5   9  2   
 10   6  29  1   
 11   6  30  1   
 12   6  31  1   
 13   7   9  1   
 14   7  10  2   
 15   8  11  ar  
 16   8  32  1   
 17   9  12  1   
 18  11  12  ar  
 19  11  13  ar  
 20  12  14  1   
 21  13  15  1   
 22  13  16  1   
 23  14  17  1   
 24  14  33  1   
 25  14  34  1   
 26  15  18  1   
 27  15  35  1   
 28  15  36  1   
 29  16  19  1   
 30  16  37  1   
 31  16  38  1   
 32  17  20  1   
 33  17  21  1   
 34  17  39  1   
 35  18  22  1   
 36  18  40  1   
 37  18  41  1   
 38  19  23  1   
 39  19  42  1   
 40  19  43  1   
 41  20  44  1   
 42  21  24  1   
 43  21  45  1   
 44  21  46  1   
 45  22  23  1   
 46  22  47  1   
 47  22  48  1   
 48  23  49  1   
 49  23  50  1   
 50  24  25  1   
 51  25  26  1   
 52  25  51  1   
 53  25  52  1   
 54  26  27  2   
 55  26  53  1   
 56  27  54  1   
 57  27  55  1   
@<TRIPOS>SUBSTRUCTURE
  1 ****  12 GROUP 4 **** **** 0

# MOE 2024.06 (io_trps.svl 2023.06)
