@<TRIPOS>MOLECULE
1-(4-Methoxy-3-methyl-benzenesulfonyl)-piperidine-4-carboxylic acid cyclopropyla
48 50 1 0 0 
SMALL
USER_CHARGES


@<TRIPOS>ATOM
  1 S       -0.0570    -0.0890    -2.4030 S.o2  1 <1>   1.4470 
  2 O        0.2940    -1.1990    -3.2630 O.2   1 <1>  -0.6500 
  3 O       -0.4330     1.1750    -3.0010 O.2   1 <1>  -0.6500 
  4 N        1.2910     0.2310    -1.4230 N.am  1 <1>  -0.8490 
  5 C       -1.3130    -0.6280    -1.2110 C.ar  1 <1>  -0.0090 
  6 C        1.0930     1.4230    -0.5940 C.3   1 <1>   0.1960 
  7 C        2.5170     0.3210    -2.2190 C.3   1 <1>   0.1960 
  8 C       -2.5720    -0.0400    -1.1700 C.ar  1 <1>  -0.1500 
  9 C       -1.0430    -1.6440    -0.3030 C.ar  1 <1>  -0.1500 
 10 C        2.2590     1.5870     0.3820 C.3   1 <1>  -0.1600 
 11 C        3.7360     0.4610    -1.3020 C.3   1 <1>  -0.1600 
 12 C       -3.5330    -0.4380    -0.2550 C.ar  1 <1>  -0.1430 
 13 C       -1.9890    -2.0570     0.6180 C.ar  1 <1>  -0.1500 
 14 C        3.6010     1.6720    -0.3650 C.3   1 <1>  -0.0190 
 15 C       -3.2430    -1.4550     0.6490 C.ar  1 <1>   0.0830 
 16 C       -4.8970     0.2370    -0.2490 C.3   1 <1>  -0.0970 
 17 C        4.7830     1.7680     0.5990 C.2   1 <1>   0.5690 
 18 O       -4.2120    -1.8140     1.5310 O.3   1 <1>  -0.3630 
 19 O        4.9290     0.9150     1.4420 O.2   1 <1>  -0.5700 
 20 N        5.6370     2.8190     0.4720 N.am  1 <1>  -0.5790 
 21 C       -4.0180    -2.8480     2.4700 C.3   1 <1>   0.0400 
 22 C        6.8180     3.0620     1.3120 C.3   1 <1>   0.0490 
 23 C        7.1780     4.4760     1.6240 C.3   1 <1>  -0.2000 
 24 C        8.0180     3.6770     0.6730 C.3   1 <1>  -0.2000 
 25 H        0.1800     1.3280    -0.0290 H     1 <1>   0.0800 
 26 H        1.0110     2.2990    -1.2180 H     1 <1>   0.0800 
 27 H        2.4550     1.1610    -2.8920 H     1 <1>   0.0800 
 28 H        2.6350    -0.5730    -2.8090 H     1 <1>   0.0800 
 29 H       -2.7980     0.7460    -1.8720 H     1 <1>   0.1500 
 30 H       -0.0730    -2.1150    -0.3200 H     1 <1>   0.1500 
 31 H        2.2670     0.7470     1.0560 H     1 <1>   0.0800 
 32 H        2.1130     2.4760     0.9700 H     1 <1>   0.0800 
 33 H        4.6230     0.5600    -1.9010 H     1 <1>   0.0800 
 34 H        3.8340    -0.4400    -0.7200 H     1 <1>   0.0800 
 35 H       -1.7300    -2.8450     1.2980 H     1 <1>   0.1500 
 36 H        3.5850     2.5610    -0.9700 H     1 <1>   0.0800 
 37 H       -4.9610     0.9980    -1.0060 H     1 <1>   0.0800 
 38 H       -5.0740     0.6900     0.7100 H     1 <1>   0.0800 
 39 H       -5.6650    -0.4940    -0.4310 H     1 <1>   0.0800 
 40 H        5.4820     3.5160    -0.2540 H     1 <1>   0.3700 
 41 H       -4.9200    -2.9490     3.0450 H     1 <1>   0.0800 
 42 H       -3.2000    -2.5830     3.1160 H     1 <1>   0.0800 
 43 H       -3.8150    -3.7630     1.9430 H     1 <1>   0.0800 
 44 H        6.9650     2.3110     2.0730 H     1 <1>   0.1000 
 45 H        7.5830     4.7000     2.5950 H     1 <1>   0.1000 
 46 H        6.5610     5.2690     1.2400 H     1 <1>   0.1000 
 47 H        7.9900     3.9110    -0.3760 H     1 <1>   0.1000 
 48 H        8.9930     3.3590     1.0000 H     1 <1>   0.1000 
@<TRIPOS>BOND
  1   1   2  2   
  2   1   3  2   
  3   1   4  am  
  4   1   5  1   
  5   4   6  1   
  6   4   7  1   
  7   5   8  ar  
  8   5   9  ar  
  9   6  10  1   
 10   6  25  1   
 11   6  26  1   
 12   7  11  1   
 13   7  27  1   
 14   7  28  1   
 15   8  12  ar  
 16   8  29  1   
 17   9  13  ar  
 18   9  30  1   
 19  10  14  1   
 20  10  31  1   
 21  10  32  1   
 22  11  14  1   
 23  11  33  1   
 24  11  34  1   
 25  12  15  ar  
 26  12  16  1   
 27  13  15  ar  
 28  13  35  1   
 29  14  17  1   
 30  14  36  1   
 31  15  18  1   
 32  16  37  1   
 33  16  38  1   
 34  16  39  1   
 35  17  19  2   
 36  17  20  am  
 37  18  21  1   
 38  20  22  1   
 39  20  40  1   
 40  21  41  1   
 41  21  42  1   
 42  21  43  1   
 43  22  23  1   
 44  22  24  1   
 45  22  44  1   
 46  23  24  1   
 47  23  45  1   
 48  23  46  1   
 49  24  47  1   
 50  24  48  1   
@<TRIPOS>SUBSTRUCTURE
  1 ****   6 GROUP 4 **** **** 0

# MOE 2024.06 (io_trps.svl 2023.06)
