@<TRIPOS>MOLECULE
1-(5-Chloro-2-methoxy-4-methyl-benzenesulfonyl)-4-methyl-piperidine
40 41 1 0 0 
SMALL
USER_CHARGES


@<TRIPOS>ATOM
  1 CL      -0.4620     0.0990    -1.0680 Cl    1 <1>  -0.1770 
  2 C       -1.2050     1.5960    -0.5540 C.ar  1 <1>   0.1770 
  3 C       -0.6650     2.8120    -0.9390 C.ar  1 <1>  -0.1440 
  4 C       -2.3350     1.5290     0.2360 C.ar  1 <1>  -0.1500 
  5 C       -1.2930     3.9700    -0.5120 C.ar  1 <1>  -0.1500 
  6 C        0.5800     2.8810    -1.8100 C.3   1 <1>  -0.0960 
  7 C       -2.9700     2.6830     0.6810 C.ar  1 <1>  -0.0090 
  8 C       -2.4360     3.9110     0.2870 C.ar  1 <1>   0.0830 
  9 S       -4.4580     2.5370     1.7130 S.o2  1 <1>   1.4470 
 10 O       -3.0650     5.0400     0.6940 O.3   1 <1>  -0.3630 
 11 O       -4.4100     1.2400     2.3580 O.2   1 <1>  -0.6500 
 12 O       -4.7040     3.6890     2.5550 O.2   1 <1>  -0.6500 
 13 N       -5.7320     2.4620     0.5950 N.am  1 <1>  -0.8490 
 14 C       -2.4070     6.2870     0.7470 C.3   1 <1>   0.0400 
 15 C       -5.9800     3.7600    -0.0430 C.3   1 <1>   0.1960 
 16 C       -6.9520     1.9520     1.2290 C.3   1 <1>   0.1960 
 17 C       -7.0540     3.6300    -1.1270 C.3   1 <1>  -0.1600 
 18 C       -8.0620     1.7630     0.1900 C.3   1 <1>  -0.1600 
 19 C       -8.3610     3.0710    -0.5520 C.3   1 <1>  -0.0800 
 20 C       -9.3950     2.8490    -1.6600 C.3   1 <1>  -0.2400 
 21 H       -2.7220     0.5620     0.5090 H     1 <1>   0.1500 
 22 H       -0.8880     4.9160    -0.8160 H     1 <1>   0.1500 
 23 H        1.4010     2.3900    -1.3170 H     1 <1>   0.0800 
 24 H        0.8620     3.8990    -2.0080 H     1 <1>   0.0800 
 25 H        0.3990     2.3890    -2.7490 H     1 <1>   0.0800 
 26 H       -3.0430     6.9750     1.2760 H     1 <1>   0.0800 
 27 H       -2.2420     6.6410    -0.2550 H     1 <1>   0.0800 
 28 H       -1.4780     6.1710     1.2760 H     1 <1>   0.0800 
 29 H       -5.0770     4.1160    -0.5060 H     1 <1>   0.0800 
 30 H       -6.2880     4.4830     0.6960 H     1 <1>   0.0800 
 31 H       -7.2760     2.6350     1.9990 H     1 <1>   0.0800 
 32 H       -6.7530     0.9980     1.6900 H     1 <1>   0.0800 
 33 H       -6.6830     2.9820    -1.9020 H     1 <1>   0.0800 
 34 H       -7.2320     4.5970    -1.5630 H     1 <1>   0.0800 
 35 H       -8.9510     1.4150     0.6850 H     1 <1>   0.0800 
 36 H       -7.7520     1.0040    -0.5060 H     1 <1>   0.0800 
 37 H       -8.7590     3.7840     0.1520 H     1 <1>   0.0800 
 38 H       -9.0300     2.1410    -2.3840 H     1 <1>   0.0800 
 39 H       -9.6080     3.7750    -2.1640 H     1 <1>   0.0800 
 40 H      -10.3120     2.4710    -1.2430 H     1 <1>   0.0800 
@<TRIPOS>BOND
  1   1   2  1   
  2   2   3  ar  
  3   2   4  ar  
  4   3   5  ar  
  5   3   6  1   
  6   4   7  ar  
  7   4  21  1   
  8   5   8  ar  
  9   5  22  1   
 10   6  23  1   
 11   6  24  1   
 12   6  25  1   
 13   7   8  ar  
 14   7   9  1   
 15   8  10  1   
 16   9  11  2   
 17   9  12  2   
 18   9  13  am  
 19  10  14  1   
 20  13  15  1   
 21  13  16  1   
 22  14  26  1   
 23  14  27  1   
 24  14  28  1   
 25  15  17  1   
 26  15  29  1   
 27  15  30  1   
 28  16  18  1   
 29  16  31  1   
 30  16  32  1   
 31  17  19  1   
 32  17  33  1   
 33  17  34  1   
 34  18  19  1   
 35  18  35  1   
 36  18  36  1   
 37  19  20  1   
 38  19  37  1   
 39  20  38  1   
 40  20  39  1   
 41  20  40  1   
@<TRIPOS>SUBSTRUCTURE
  1 ****   7 GROUP 4 **** **** 0

# MOE 2024.06 (io_trps.svl 2023.06)
