@<TRIPOS>MOLECULE
2-(2-Chloro-phenoxy)-N-[2-(4-methanesulfonyl-piperazin-1-yl)-phenyl]-acetamide
50 52 1 0 0 
SMALL
USER_CHARGES


@<TRIPOS>ATOM
  1 CL      -2.7620     1.0910    -2.1340 Cl    1 <1>  -0.1770 
  2 C       -1.4570     1.5590    -1.0630 C.ar  1 <1>   0.1770 
  3 C       -1.7350     2.1470     0.1670 C.ar  1 <1>   0.0830 
  4 C       -0.1540     1.3290    -1.4600 C.ar  1 <1>  -0.1500 
  5 O       -3.0030     2.3550     0.5830 O.3   1 <1>  -0.3630 
  6 C       -0.6900     2.5020     1.0050 C.ar  1 <1>  -0.1500 
  7 C        0.8880     1.6930    -0.6210 C.ar  1 <1>  -0.1500 
  8 C       -3.7010     3.4540     0.0080 C.3   1 <1>   0.1810 
  9 C        0.6190     2.2780     0.6080 C.ar  1 <1>  -0.1500 
 10 C       -5.2010     3.2090     0.0530 C.2   1 <1>   0.5690 
 11 O       -5.9320     4.1290     0.3310 O.2   1 <1>  -0.5700 
 12 N       -5.6370     1.9470    -0.2230 N.am  1 <1>  -0.5470 
 13 C       -6.8730     1.2950    -0.1060 C.ar  1 <1>   0.1170 
 14 C       -6.8420    -0.1080    -0.0950 C.ar  1 <1>   0.1000 
 15 C       -8.0860     1.9600    -0.0090 C.ar  1 <1>  -0.1500 
 16 N       -5.6060    -0.7780    -0.1840 N.pl3 1 <1>  -0.8380 
 17 C       -8.0380    -0.8060     0.0180 C.ar  1 <1>  -0.1500 
 18 C       -9.2690     1.2490     0.1000 C.ar  1 <1>  -0.1500 
 19 C       -4.8540    -0.9700     1.0910 C.3   1 <1>   0.2090 
 20 C       -5.4780    -1.9560    -1.0920 C.3   1 <1>   0.2090 
 21 C       -9.2450    -0.1340     0.1140 C.ar  1 <1>  -0.1500 
 22 C       -3.3840    -1.3290     0.8010 C.3   1 <1>   0.1960 
 23 C       -3.9970    -2.3190    -1.3210 C.3   1 <1>   0.1960 
 24 N       -3.2540    -2.5280    -0.0580 N.am  1 <1>  -0.8490 
 25 S       -1.6410    -2.9360    -0.3640 S.o2  1 <1>   1.3330 
 26 O       -0.8670    -1.7170    -0.4150 O.2   1 <1>  -0.6500 
 27 O       -1.6170    -3.8540    -1.4780 O.2   1 <1>  -0.6500 
 28 C       -1.1880    -3.8490     1.0950 C.3   1 <1>  -0.1350 
 29 H        0.0420     0.8620    -2.4080 H     1 <1>   0.1500 
 30 H       -0.9010     2.9470     1.9600 H     1 <1>   0.1500 
 31 H        1.9060     1.5140    -0.9220 H     1 <1>   0.1500 
 32 H       -3.3920     3.5800    -1.0130 H     1 <1>   0.0800 
 33 H       -3.4550     4.3360     0.5690 H     1 <1>   0.0800 
 34 H        1.4320     2.5550     1.2570 H     1 <1>   0.1500 
 35 H       -4.9030     1.2550    -0.4120 H     1 <1>   0.3700 
 36 H       -8.1120     3.0340    -0.0200 H     1 <1>   0.1500 
 37 H       -8.0280    -1.8780     0.0390 H     1 <1>   0.1500 
 38 H      -10.2050     1.7750     0.1750 H     1 <1>   0.1500 
 39 H       -5.3110    -1.7580     1.6630 H     1 <1>   0.0800 
 40 H       -4.8940    -0.0650     1.6730 H     1 <1>   0.0800 
 41 H       -5.9410    -1.7290    -2.0360 H     1 <1>   0.0800 
 42 H       -5.9820    -2.8030    -0.6610 H     1 <1>   0.0800 
 43 H      -10.1650    -0.6860     0.2010 H     1 <1>   0.1500 
 44 H       -2.8790    -1.4970     1.7360 H     1 <1>   0.0800 
 45 H       -2.9180    -0.4840     0.3250 H     1 <1>   0.0800 
 46 H       -3.5290    -1.5360    -1.8920 H     1 <1>   0.0800 
 47 H       -3.9620    -3.2180    -1.9110 H     1 <1>   0.0800 
 48 H       -1.2640    -3.2280     1.9650 H     1 <1>   0.0800 
 49 H       -0.1780    -4.1980     1.0080 H     1 <1>   0.0800 
 50 H       -1.8350    -4.6960     1.2130 H     1 <1>   0.0800 
@<TRIPOS>BOND
  1   1   2  1   
  2   2   3  ar  
  3   2   4  ar  
  4   3   5  1   
  5   3   6  ar  
  6   4   7  ar  
  7   4  29  1   
  8   5   8  1   
  9   6   9  ar  
 10   6  30  1   
 11   7   9  ar  
 12   7  31  1   
 13   8  10  1   
 14   8  32  1   
 15   8  33  1   
 16   9  34  1   
 17  10  11  2   
 18  10  12  am  
 19  12  13  1   
 20  12  35  1   
 21  13  14  ar  
 22  13  15  ar  
 23  14  16  1   
 24  14  17  ar  
 25  15  18  ar  
 26  15  36  1   
 27  16  19  1   
 28  16  20  1   
 29  17  21  ar  
 30  17  37  1   
 31  18  21  ar  
 32  18  38  1   
 33  19  22  1   
 34  19  39  1   
 35  19  40  1   
 36  20  23  1   
 37  20  41  1   
 38  20  42  1   
 39  21  43  1   
 40  22  24  1   
 41  22  44  1   
 42  22  45  1   
 43  23  24  1   
 44  23  46  1   
 45  23  47  1   
 46  24  25  am  
 47  25  26  2   
 48  25  27  2   
 49  25  28  1   
 50  28  48  1   
 51  28  49  1   
 52  28  50  1   
@<TRIPOS>SUBSTRUCTURE
  1 ****  22 GROUP 4 **** **** 0

# MOE 2024.06 (io_trps.svl 2023.06)
