@<TRIPOS>MOLECULE
2-(3-Methylsulfanyl-[1,2,4]thiadiazol-5-ylsulfanyl)-1-piperidin-1-yl-ethanone
32 33 1 0 0 
SMALL
USER_CHARGES


@<TRIPOS>ATOM
  1 S        0.6080    -0.6140    -1.2160 S.3   1 <1>   0.1810 
  2 N        1.6620    -1.4550    -0.1940 N.2   1 <1>  -0.5100 
  3 C       -0.7310    -1.5780    -0.6900 C.2   1 <1>   0.4340 
  4 C        0.9350    -2.3230     0.3930 C.2   1 <1>   0.5710 
  5 S       -2.3290    -1.2410    -1.3950 S.3   1 <1>  -0.2860 
  6 N       -0.4240    -2.4450     0.1750 N.2   1 <1>  -0.5650 
  7 S        1.6500    -3.4720     1.5660 S.3   1 <1>  -0.2850 
  8 C       -3.3670    -2.6350    -0.7410 C.3   1 <1>   0.1310 
  9 C        0.2590    -4.5970     2.0270 C.3   1 <1>  -0.0100 
 10 C       -2.8430    -3.9920    -1.2120 C.2   1 <1>   0.5690 
 11 O       -2.4330    -4.0630    -2.3490 O.2   1 <1>  -0.5700 
 12 N       -2.8580    -5.0970    -0.3890 N.am  1 <1>  -0.6600 
 13 C       -3.4840    -5.1740     0.9630 C.3   1 <1>   0.1400 
 14 C       -2.2560    -6.3870    -0.8390 C.3   1 <1>   0.1400 
 15 C       -4.5620    -6.2630     0.9750 C.3   1 <1>  -0.1600 
 16 C       -3.3240    -7.4850    -0.8480 C.3   1 <1>  -0.1600 
 17 C       -4.0060    -7.6190     0.5200 C.3   1 <1>  -0.1600 
 18 H       -4.3660    -2.4790    -1.0990 H     1 <1>   0.0800 
 19 H       -3.3310    -2.5390     0.3250 H     1 <1>   0.0800 
 20 H        0.6490    -5.3440     2.6950 H     1 <1>   0.0800 
 21 H       -0.1150    -5.0430     1.1220 H     1 <1>   0.0800 
 22 H       -0.4980    -4.0040     2.5060 H     1 <1>   0.0800 
 23 H       -3.9340    -4.2420     1.2490 H     1 <1>   0.0800 
 24 H       -2.7230    -5.4110     1.6860 H     1 <1>   0.0800 
 25 H       -1.4610    -6.6560    -0.1660 H     1 <1>   0.0800 
 26 H       -1.8320    -6.2920    -1.8250 H     1 <1>   0.0800 
 27 H       -5.3650    -5.9650     0.3230 H     1 <1>   0.0800 
 28 H       -4.9650    -6.3550     1.9680 H     1 <1>   0.0800 
 29 H       -2.8680    -8.4200    -1.1190 H     1 <1>   0.0800 
 30 H       -4.0550    -7.2470    -1.6010 H     1 <1>   0.0800 
 31 H       -4.8040    -8.3390     0.4590 H     1 <1>   0.0800 
 32 H       -3.2910    -7.9740     1.2430 H     1 <1>   0.0800 
@<TRIPOS>BOND
  1   1   2  1   
  2   1   3  1   
  3   2   4  2   
  4   3   5  1   
  5   3   6  2   
  6   4   6  1   
  7   4   7  1   
  8   5   8  1   
  9   7   9  1   
 10   8  10  1   
 11   8  18  1   
 12   8  19  1   
 13   9  20  1   
 14   9  21  1   
 15   9  22  1   
 16  10  11  2   
 17  10  12  am  
 18  12  13  1   
 19  12  14  1   
 20  13  15  1   
 21  13  23  1   
 22  13  24  1   
 23  14  16  1   
 24  14  25  1   
 25  14  26  1   
 26  15  17  1   
 27  15  27  1   
 28  15  28  1   
 29  16  17  1   
 30  16  29  1   
 31  16  30  1   
 32  17  31  1   
 33  17  32  1   
@<TRIPOS>SUBSTRUCTURE
  1 ****  10 GROUP 4 **** **** 0

# MOE 2024.06 (io_trps.svl 2023.06)
