@<TRIPOS>MOLECULE
4-(Naphthalene-2-sulfonyl)-piperazine-1-carboxylic acid dimethylamide
45 47 1 0 0 
SMALL
USER_CHARGES


@<TRIPOS>ATOM
  1 S       -0.0130    -0.1400    -1.8470 S.o2  1 <1>   1.4470 
  2 O       -0.4920     1.1650    -2.2490 O.2   1 <1>  -0.6500 
  3 O        0.1910    -1.1610    -2.8510 O.2   1 <1>  -0.6500 
  4 N       -1.1420    -0.7600    -0.7470 N.am  1 <1>  -0.8490 
  5 C        1.4910     0.0210    -0.8440 C.ar  1 <1>  -0.0090 
  6 C       -2.3540    -1.2260    -1.4440 C.3   1 <1>   0.1960 
  7 C       -1.5160     0.2240     0.2880 C.3   1 <1>   0.1960 
  8 C        2.0930    -1.0720    -0.2730 C.ar  1 <1>  -0.1500 
  9 C        2.0670     1.2840    -0.6140 C.ar  1 <1>  -0.1500 
 10 C       -3.3710    -1.8590    -0.4760 C.3   1 <1>   0.1400 
 11 C       -2.4790    -0.3870     1.3180 C.3   1 <1>   0.1400 
 12 C        3.2490    -0.9710     0.5250 C.ar  1 <1>   0.0000 
 13 C        3.1890     1.4210     0.1560 C.ar  1 <1>  -0.1500 
 14 N       -3.6950    -0.9280     0.6440 N.am  1 <1>  -0.6600 
 15 C        3.8090     0.3040     0.7470 C.ar  1 <1>   0.0000 
 16 C        3.8680    -2.0940     1.1110 C.ar  1 <1>  -0.1500 
 17 C       -4.8540    -0.1960     0.6280 C.2   1 <1>   0.6900 
 18 C        4.9640     0.4080     1.5470 C.ar  1 <1>  -0.1500 
 19 C        4.9880    -1.9640     1.8840 C.ar  1 <1>  -0.1500 
 20 O       -4.8030     1.0050     0.8300 O.2   1 <1>  -0.5700 
 21 N       -6.0630    -0.8000     0.3710 N.am  1 <1>  -0.6600 
 22 C        5.5430    -0.6980     2.1050 C.ar  1 <1>  -0.1500 
 23 C       -7.2530     0.0120     0.0030 C.3   1 <1>   0.0600 
 24 C       -6.3670    -2.1940     0.7910 C.3   1 <1>   0.0600 
 25 H       -2.0860    -1.9620    -2.1830 H     1 <1>   0.0800 
 26 H       -2.8210    -0.4000    -1.9550 H     1 <1>   0.0800 
 27 H       -1.9910     1.0810    -0.1640 H     1 <1>   0.0800 
 28 H       -0.6350     0.5650     0.8030 H     1 <1>   0.0800 
 29 H        1.6730    -2.0500    -0.4340 H     1 <1>   0.1500 
 30 H        1.6060     2.1500    -1.0600 H     1 <1>   0.1500 
 31 H       -2.9620    -2.7680    -0.0740 H     1 <1>   0.0800 
 32 H       -4.2630    -2.1050    -1.0240 H     1 <1>   0.0800 
 33 H       -2.7590     0.3630     2.0380 H     1 <1>   0.0800 
 34 H       -1.9820    -1.1820     1.8450 H     1 <1>   0.0800 
 35 H        3.6200     2.3920     0.3220 H     1 <1>   0.1500 
 36 H        3.4400    -3.0650     0.9370 H     1 <1>   0.1500 
 37 H        5.3880     1.3820     1.7130 H     1 <1>   0.1500 
 38 H        5.4570    -2.8250     2.3290 H     1 <1>   0.1500 
 39 H        6.4250    -0.6140     2.7160 H     1 <1>   0.1500 
 40 H       -6.9470     0.9520    -0.4240 H     1 <1>   0.0800 
 41 H       -7.8440     0.2080     0.8810 H     1 <1>   0.0800 
 42 H       -7.8490    -0.5160    -0.7200 H     1 <1>   0.0800 
 43 H       -5.5300    -2.6240     1.3140 H     1 <1>   0.0800 
 44 H       -6.5890    -2.7930    -0.0740 H     1 <1>   0.0800 
 45 H       -7.2160    -2.1980     1.4520 H     1 <1>   0.0800 
@<TRIPOS>BOND
  1   1   2  2   
  2   1   3  2   
  3   1   4  am  
  4   1   5  1   
  5   4   6  1   
  6   4   7  1   
  7   5   8  ar  
  8   5   9  ar  
  9   6  10  1   
 10   6  25  1   
 11   6  26  1   
 12   7  11  1   
 13   7  27  1   
 14   7  28  1   
 15   8  12  ar  
 16   8  29  1   
 17   9  13  ar  
 18   9  30  1   
 19  10  14  1   
 20  10  31  1   
 21  10  32  1   
 22  11  14  1   
 23  11  33  1   
 24  11  34  1   
 25  12  15  ar  
 26  12  16  ar  
 27  13  15  ar  
 28  13  35  1   
 29  14  17  am  
 30  15  18  ar  
 31  16  19  ar  
 32  16  36  1   
 33  17  20  2   
 34  17  21  am  
 35  18  22  ar  
 36  18  37  1   
 37  19  22  ar  
 38  19  38  1   
 39  21  23  1   
 40  21  24  1   
 41  22  39  1   
 42  23  40  1   
 43  23  41  1   
 44  23  42  1   
 45  24  43  1   
 46  24  44  1   
 47  24  45  1   
@<TRIPOS>SUBSTRUCTURE
  1 ****   4 GROUP 4 **** **** 0

# MOE 2024.06 (io_trps.svl 2023.06)
