@<TRIPOS>MOLECULE
2-(3,4-Dimethoxy-benzylamino)-5,6-dimethyl-4H-[1,2,4]triazolo[1,5-a]pyrimidin-7-
43 45 1 0 0 
SMALL
USER_CHARGES


@<TRIPOS>ATOM
  1 O       -0.4200    -1.0650     1.8780 O.2   1 <1>  -0.5700 
  2 C       -0.7610    -1.7500     0.9200 C.2   1 <1>   0.5650 
  3 N       -2.0350    -2.3580     0.8730 N.pl3 1 <1>   0.5610 
  4 C        0.1180    -1.9650    -0.2040 C.2   1 <1>  -0.1240 
  5 N       -3.0920    -2.3550     1.7260 N.2   1 <1>  -0.7070 
  6 C       -2.4000    -3.0990    -0.1990 C.2   1 <1>   0.2700 
  7 C       -0.2770    -2.7410    -1.2590 C.2   1 <1>  -0.0380 
  8 C        1.4860    -1.2790    -0.1330 C.3   1 <1>  -0.1020 
  9 C       -3.9400    -3.0880     1.1000 C.2   1 <1>   0.5990 
 10 N       -3.5890    -3.5650    -0.0960 N.2   1 <1>  -0.5650 
 11 N       -1.5370    -3.2930    -1.2600 N.pl3 1 <1>  -0.5840 
 12 C        0.5480    -3.0910    -2.4890 C.3   1 <1>  -0.1020 
 13 N       -5.1770    -3.3990     1.5820 N.pl3 1 <1>  -0.8520 
 14 C       -5.9710    -2.2680     2.0920 C.3   1 <1>   0.3530 
 15 C       -7.1640    -2.0850     1.1700 C.ar  1 <1>  -0.1440 
 16 C       -6.9710    -1.6240    -0.1240 C.ar  1 <1>  -0.1500 
 17 C       -8.4460    -2.3820     1.6020 C.ar  1 <1>  -0.1500 
 18 C       -8.0490    -1.4560    -0.9890 C.ar  1 <1>   0.0820 
 19 C       -9.5280    -2.2150     0.7540 C.ar  1 <1>  -0.1500 
 20 O       -7.8930    -1.0130    -2.2710 O.3   1 <1>  -0.3620 
 21 C       -9.3410    -1.7510    -0.5450 C.ar  1 <1>   0.0820 
 22 C       -6.6170    -0.8400    -2.8430 C.3   1 <1>   0.0400 
 23 O      -10.3760    -1.5740    -1.4160 O.3   1 <1>  -0.3630 
 24 C      -11.7060    -1.8720    -1.0610 C.3   1 <1>   0.0400 
 25 H        1.3750    -0.2680     0.2210 H     1 <1>   0.0800 
 26 H        1.9740    -1.2230    -1.0870 H     1 <1>   0.0800 
 27 H        2.1230    -1.8070     0.5540 H     1 <1>   0.0800 
 28 H       -1.8790    -3.8880    -2.0240 H     1 <1>   0.4000 
 29 H        0.4160    -4.1290    -2.7360 H     1 <1>   0.0800 
 30 H        1.5980    -2.9350    -2.3340 H     1 <1>   0.0800 
 31 H        0.2280    -2.4950    -3.3240 H     1 <1>   0.0800 
 32 H       -5.6950    -3.8460     0.8250 H     1 <1>   0.4000 
 33 H       -5.3920    -1.3600     2.1200 H     1 <1>   0.0800 
 34 H       -6.2940    -2.4900     3.0940 H     1 <1>   0.0800 
 35 H       -5.9700    -1.4020    -0.4400 H     1 <1>   0.1500 
 36 H       -8.6110    -2.7460     2.6020 H     1 <1>   0.1500 
 37 H      -10.5060    -2.4530     1.1250 H     1 <1>   0.1500 
 38 H       -6.7500    -0.5550    -3.8710 H     1 <1>   0.0800 
 39 H       -6.0800    -1.7710    -2.7880 H     1 <1>   0.0800 
 40 H       -6.0990    -0.0610    -2.3130 H     1 <1>   0.0800 
 41 H      -12.3320    -1.6620    -1.9100 H     1 <1>   0.0800 
 42 H      -11.9940    -1.2510    -0.2320 H     1 <1>   0.0800 
 43 H      -11.7740    -2.9150    -0.8070 H     1 <1>   0.0800 
@<TRIPOS>BOND
  1   1   2  2   
  2   2   3  1   
  3   2   4  1   
  4   3   5  1   
  5   3   6  1   
  6   4   7  2   
  7   4   8  1   
  8   5   9  2   
  9   6  10  2   
 10   6  11  1   
 11   7  11  1   
 12   7  12  1   
 13   8  25  1   
 14   8  26  1   
 15   8  27  1   
 16   9  10  1   
 17   9  13  1   
 18  11  28  1   
 19  12  29  1   
 20  12  30  1   
 21  12  31  1   
 22  13  14  1   
 23  13  32  1   
 24  14  15  1   
 25  14  33  1   
 26  14  34  1   
 27  15  16  ar  
 28  15  17  ar  
 29  16  18  ar  
 30  16  35  1   
 31  17  19  ar  
 32  17  36  1   
 33  18  20  1   
 34  18  21  ar  
 35  19  21  ar  
 36  19  37  1   
 37  20  22  1   
 38  21  23  1   
 39  22  38  1   
 40  22  39  1   
 41  22  40  1   
 42  23  24  1   
 43  24  41  1   
 44  24  42  1   
 45  24  43  1   
@<TRIPOS>SUBSTRUCTURE
  1 ****   9 GROUP 4 **** **** 0

# MOE 2024.06 (io_trps.svl 2023.06)
