@<TRIPOS>MOLECULE
5-Amino-2-methyl-3-oxo-7-p-tolyl-2,3-dihydro-7H-thiazolo[3,2-a]pyridine-6,8-dica
53 55 1 0 0 
SMALL
USER_CHARGES


@<TRIPOS>ATOM
  1 S        0.5380    -0.6150     1.3800 S.3   1 <1>  -0.3310 
  2 C        1.6970     0.6160     0.8370 C.2   1 <1>   0.2100 
  3 C        1.6620    -1.4140     2.5760 C.3   1 <1>   0.2110 
  4 N        2.9200     0.4100     1.4720 N.am  1 <1>  -0.2780 
  5 C        1.4110     1.5910    -0.0580 C.2   1 <1>  -0.1240 
  6 C        2.9270    -0.5710     2.4710 C.2   1 <1>   0.5690 
  7 C        1.8270    -2.8790     2.1560 C.3   1 <1>  -0.2400 
  8 C        4.0280     1.1410     1.0140 C.2   1 <1>   0.2090 
  9 C        0.1570     1.8490    -0.6980 C.2   1 <1>   0.7060 
 10 C        2.5280     2.5700    -0.4070 C.3   1 <1>   0.3400 
 11 O        3.8320    -0.7820     3.2490 O.2   1 <1>  -0.5700 
 12 N        5.2360     0.7480     1.5040 N.pl3 1 <1>  -0.9000 
 13 C        3.9110     2.1620     0.1060 C.2   1 <1>  -0.1240 
 14 O       -0.9140     1.4530    -0.2850 O.2   1 <1>  -0.5700 
 15 O        0.1640     2.5850    -1.8180 O.3   1 <1>  -0.4300 
 16 C        2.1700     3.9430     0.1650 C.ar  1 <1>  -0.1430 
 17 C        4.9690     2.9350    -0.4500 C.2   1 <1>   0.7060 
 18 C       -1.0160     3.0210    -2.4630 C.3   1 <1>   0.1200 
 19 C        1.9370     4.1080     1.5240 C.ar  1 <1>  -0.1500 
 20 C        2.0730     5.0470    -0.6700 C.ar  1 <1>  -0.1500 
 21 O        4.8430     3.6130    -1.4600 O.2   1 <1>  -0.5700 
 22 O        6.1800     2.9310     0.1340 O.3   1 <1>  -0.4300 
 23 C       -1.4970     4.3040    -1.7880 C.3   1 <1>  -0.2400 
 24 C        1.6030     5.3500     2.0330 C.ar  1 <1>  -0.1500 
 25 C        1.7390     6.2880    -0.1590 C.ar  1 <1>  -0.1500 
 26 C        7.2450     3.7040    -0.3730 C.3   1 <1>   0.1200 
 27 C        1.4990     6.4470     1.1950 C.ar  1 <1>  -0.1430 
 28 C        8.4630     3.4650     0.5130 C.3   1 <1>  -0.2400 
 29 C        1.1330     7.8090     1.7540 C.3   1 <1>  -0.0970 
 30 H        1.2210    -1.3200     3.5520 H     1 <1>   0.0800 
 31 H        2.2230    -2.9400     1.1580 H     1 <1>   0.0800 
 32 H        0.8780    -3.3820     2.1910 H     1 <1>   0.0800 
 33 H        2.5060    -3.3750     2.8270 H     1 <1>   0.0800 
 34 H        2.5860     2.6250    -1.4810 H     1 <1>   0.0800 
 35 H        6.0900     1.3000     1.3470 H     1 <1>   0.4000 
 36 H        5.2750     0.0930     2.3030 H     1 <1>   0.4000 
 37 H       -1.7610     2.2430    -2.4160 H     1 <1>   0.0800 
 38 H       -0.7730     3.2090    -3.4940 H     1 <1>   0.0800 
 39 H        2.0120     3.2720     2.1980 H     1 <1>   0.1500 
 40 H        2.2590     4.9470    -1.7260 H     1 <1>   0.1500 
 41 H       -1.7460     4.1150    -0.7590 H     1 <1>   0.0800 
 42 H       -2.3770     4.6680    -2.2870 H     1 <1>   0.0800 
 43 H       -0.7350     5.0610    -1.8390 H     1 <1>   0.0800 
 44 H        1.4250     5.4590     3.0890 H     1 <1>   0.1500 
 45 H        1.6700     7.1320    -0.8230 H     1 <1>   0.1500 
 46 H        6.9520     4.7400    -0.3570 H     1 <1>   0.0800 
 47 H        7.4390     3.3980    -1.3870 H     1 <1>   0.0800 
 48 H        8.2510     3.7630     1.5240 H     1 <1>   0.0800 
 49 H        9.2920     4.0470     0.1520 H     1 <1>   0.0800 
 50 H        8.7410     2.4260     0.4920 H     1 <1>   0.0800 
 51 H        0.5840     8.3780     1.0260 H     1 <1>   0.0800 
 52 H        2.0270     8.3470     2.0140 H     1 <1>   0.0800 
 53 H        0.5220     7.7040     2.6320 H     1 <1>   0.0800 
@<TRIPOS>BOND
  1   1   2  1   
  2   1   3  1   
  3   2   4  1   
  4   2   5  2   
  5   3   6  1   
  6   3   7  1   
  7   3  30  1   
  8   4   6  am  
  9   4   8  1   
 10   5   9  1   
 11   5  10  1   
 12   6  11  2   
 13   7  31  1   
 14   7  32  1   
 15   7  33  1   
 16   8  12  1   
 17   8  13  2   
 18   9  14  2   
 19   9  15  1   
 20  10  13  1   
 21  10  16  1   
 22  10  34  1   
 23  12  35  1   
 24  12  36  1   
 25  13  17  1   
 26  15  18  1   
 27  16  19  ar  
 28  16  20  ar  
 29  17  21  2   
 30  17  22  1   
 31  18  23  1   
 32  18  37  1   
 33  18  38  1   
 34  19  24  ar  
 35  19  39  1   
 36  20  25  ar  
 37  20  40  1   
 38  22  26  1   
 39  23  41  1   
 40  23  42  1   
 41  23  43  1   
 42  24  27  ar  
 43  24  44  1   
 44  25  27  ar  
 45  25  45  1   
 46  26  28  1   
 47  26  46  1   
 48  26  47  1   
 49  27  29  1   
 50  28  48  1   
 51  28  49  1   
 52  28  50  1   
 53  29  51  1   
 54  29  52  1   
 55  29  53  1   
@<TRIPOS>SUBSTRUCTURE
  1 ****  10 GROUP 4 **** **** 0

# MOE 2024.06 (io_trps.svl 2023.06)
