@<TRIPOS>MOLECULE
5-(2,4-Dichloro-phenyl)-isoxazole-3-carboxylic acid (2-morpholin-4-yl-ethyl)-ami
42 44 1 0 0 
SMALL
USER_CHARGES


@<TRIPOS>ATOM
  1 CL       0.8400     0.2020    -0.7740 Cl    1 <1>  -0.1770 
  2 C        0.2400     1.8390    -0.8880 C.ar  1 <1>   0.1770 
  3 C        1.0440     2.9160    -0.5010 C.ar  1 <1>   0.0530 
  4 C       -1.0360     2.0150    -1.3870 C.ar  1 <1>  -0.1500 
  5 C        2.3740     2.7470     0.0310 C.2   1 <1>   0.0870 
  6 C        0.5130     4.1980    -0.6500 C.ar  1 <1>  -0.1500 
  7 C       -1.5260     3.2990    -1.5140 C.ar  1 <1>   0.1770 
  8 O        2.5880     1.9260     1.0470 O.3   1 <1>  -0.0190 
  9 C        3.5270     3.3330    -0.3330 C.2   1 <1>  -0.1500 
 10 C       -0.7630     4.3930    -1.1520 C.ar  1 <1>  -0.1500 
 11 CL      -3.1330     3.5460    -2.1440 Cl    1 <1>  -0.1770 
 12 N        3.8650     1.9770     1.3330 N.2   1 <1>  -0.4100 
 13 C        4.4660     2.8030     0.5310 C.2   1 <1>   0.2030 
 14 C        5.8850     3.1080     0.5480 C.2   1 <1>   0.7160 
 15 O        6.3860     3.9010    -0.2300 O.2   1 <1>  -0.5700 
 16 N        6.7140     2.4950     1.4490 N.am  1 <1>  -0.7300 
 17 C        8.1440     2.8160     1.6920 C.3   1 <1>   0.1400 
 18 C        9.0200     2.4440     0.4760 C.3   1 <1>   0.3430 
 19 N        9.9200     3.5590     0.0260 N.4   1 <1>  -0.9590 
 20 C        9.1350     4.6740    -0.6210 C.3   1 <1>   0.3430 
 21 C       10.9550     3.0520    -0.9420 C.3   1 <1>   0.3430 
 22 C       10.0580     5.7550    -1.2140 C.3   1 <1>   0.1200 
 23 C       11.8130     4.2020    -1.5050 C.3   1 <1>   0.1200 
 24 O       10.9950     5.1800    -2.0790 O.3   1 <1>  -0.5600 
 25 H       -1.6350     1.1710    -1.6760 H     1 <1>   0.1500 
 26 H        1.1040     5.0510    -0.3630 H     1 <1>   0.1500 
 27 H        3.7140     4.0490    -1.1130 H     1 <1>   0.1500 
 28 H       -1.1680     5.3840    -1.2620 H     1 <1>   0.1500 
 29 H        6.2470     1.8770     2.1260 H     1 <1>   0.3700 
 30 H        8.4800     2.2650     2.5540 H     1 <1>   0.0800 
 31 H        8.2260     3.8670     1.9130 H     1 <1>   0.0800 
 32 H        8.3750     2.1600    -0.3400 H     1 <1>   0.0800 
 33 H        9.6160     1.5860     0.7400 H     1 <1>   0.0800 
 34 H       10.4160     3.9520     0.8350 H     1 <1>   0.4500 
 35 H        8.4700     5.1270     0.0970 H     1 <1>   0.0800 
 36 H        8.5240     4.2760    -1.4150 H     1 <1>   0.0800 
 37 H       10.4700     2.5580    -1.7680 H     1 <1>   0.0800 
 38 H       11.5970     2.3360    -0.4560 H     1 <1>   0.0800 
 39 H       10.5820     6.2880    -0.4390 H     1 <1>   0.0800 
 40 H        9.4790     6.4620    -1.7830 H     1 <1>   0.0800 
 41 H       12.4680     3.8330    -2.2750 H     1 <1>   0.0800 
 42 H       12.4120     4.6580    -0.7360 H     1 <1>   0.0800 
@<TRIPOS>BOND
  1   1   2  1   
  2   2   3  ar  
  3   2   4  ar  
  4   3   5  1   
  5   3   6  ar  
  6   4   7  ar  
  7   4  25  1   
  8   5   8  1   
  9   5   9  2   
 10   6  10  ar  
 11   6  26  1   
 12   7  10  ar  
 13   7  11  1   
 14   8  12  1   
 15   9  13  1   
 16   9  27  1   
 17  10  28  1   
 18  12  13  2   
 19  13  14  1   
 20  14  15  2   
 21  14  16  am  
 22  16  17  1   
 23  16  29  1   
 24  17  18  1   
 25  17  30  1   
 26  17  31  1   
 27  18  19  1   
 28  18  32  1   
 29  18  33  1   
 30  19  20  1   
 31  19  21  1   
 32  19  34  1   
 33  20  22  1   
 34  20  35  1   
 35  20  36  1   
 36  21  23  1   
 37  21  37  1   
 38  21  38  1   
 39  22  24  1   
 40  22  39  1   
 41  22  40  1   
 42  23  24  1   
 43  23  41  1   
 44  23  42  1   
@<TRIPOS>SUBSTRUCTURE
  1 ****  13 GROUP 4 **** **** 0

# MOE 2024.06 (io_trps.svl 2023.06)
