@<TRIPOS>MOLECULE
1-Acetyl-5-(3-chloro-4-methyl-phenyl)-4,6-dioxo-1,3a,4,5,6,6a-hexahydro-pyrrolo[
42 44 1 0 0 
SMALL
USER_CHARGES


@<TRIPOS>ATOM
  1 CL      -0.1270    -0.4530     1.4490 Cl    1 <1>  -0.1770 
  2 C       -0.5590    -1.9130     0.5900 C.ar  1 <1>   0.1770 
  3 C        0.4280    -2.6980     0.0110 C.ar  1 <1>  -0.1440 
  4 C       -1.8950    -2.2530     0.5120 C.ar  1 <1>  -0.1500 
  5 C        0.0420    -3.8480    -0.6580 C.ar  1 <1>  -0.1500 
  6 C        1.8980    -2.3160     0.1030 C.3   1 <1>  -0.0960 
  7 C       -2.2870    -3.4070    -0.1580 C.ar  1 <1>   0.1170 
  8 C       -1.2960    -4.1960    -0.7400 C.ar  1 <1>  -0.1500 
  9 N       -3.6520    -3.7730    -0.2460 N.am  1 <1>  -0.2370 
 10 C       -4.7290    -2.9090    -0.3170 C.2   1 <1>   0.5690 
 11 C       -4.1510    -5.0620    -0.2570 C.2   1 <1>   0.5690 
 12 O       -4.6970    -1.7390    -0.5950 O.2   1 <1>  -0.5700 
 13 C       -5.9590    -3.7420    -0.0090 C.3   1 <1>   0.2810 
 14 O       -3.5940    -6.0650     0.0940 O.2   1 <1>  -0.5700 
 15 C       -5.5710    -4.9980    -0.7320 C.3   1 <1>   0.0420 
 16 N       -7.3880    -3.6980    -0.3420 N.am  1 <1>  -0.2980 
 17 C       -6.8300    -5.8060    -0.5580 C.2   1 <1>   0.3890 
 18 N       -7.8340    -4.9980    -0.4370 N.2   1 <1>  -0.5120 
 19 C       -8.1400    -2.5490    -0.1870 C.2   1 <1>   0.5690 
 20 C       -6.7730    -7.2460    -0.6600 C.2   1 <1>   0.7200 
 21 O       -7.6690    -1.5270     0.2390 O.2   1 <1>  -0.5700 
 22 C       -9.6110    -2.5870    -0.5310 C.3   1 <1>  -0.1790 
 23 O       -5.7990    -7.8100    -1.1130 O.2   1 <1>  -0.5700 
 24 O       -7.7800    -8.0530    -0.2890 O.3   1 <1>  -0.4300 
 25 C       -8.9950    -7.6310     0.2890 C.3   1 <1>   0.1200 
 26 C       -9.7870    -8.8760     0.6710 C.3   1 <1>  -0.2400 
 27 H       -2.6190    -1.6070     0.9740 H     1 <1>   0.1500 
 28 H        0.7810    -4.4820    -1.1180 H     1 <1>   0.1500 
 29 H        2.0560    -1.3520    -0.3490 H     1 <1>   0.0800 
 30 H        2.5180    -3.0340    -0.4030 H     1 <1>   0.0800 
 31 H        2.2020    -2.2680     1.1330 H     1 <1>   0.0800 
 32 H       -1.5640    -5.0980    -1.2630 H     1 <1>   0.1500 
 33 H       -5.9270    -3.9090     1.0550 H     1 <1>   0.0800 
 34 H       -5.5090    -4.8010    -1.7900 H     1 <1>   0.0800 
 35 H       -9.7410    -2.9820    -1.5210 H     1 <1>   0.0800 
 36 H      -10.0220    -1.5950    -0.4910 H     1 <1>   0.0800 
 37 H      -10.1280    -3.2110     0.1730 H     1 <1>   0.0800 
 38 H       -9.5370    -7.0460    -0.4350 H     1 <1>   0.0800 
 39 H       -8.7800    -7.0370     1.1610 H     1 <1>   0.0800 
 40 H       -9.9890    -9.4700    -0.2030 H     1 <1>   0.0800 
 41 H      -10.7240    -8.5910     1.1140 H     1 <1>   0.0800 
 42 H       -9.2350    -9.4640     1.3830 H     1 <1>   0.0800 
@<TRIPOS>BOND
  1   1   2  1   
  2   2   3  ar  
  3   2   4  ar  
  4   3   5  ar  
  5   3   6  1   
  6   4   7  ar  
  7   4  27  1   
  8   5   8  ar  
  9   5  28  1   
 10   6  29  1   
 11   6  30  1   
 12   6  31  1   
 13   7   8  ar  
 14   7   9  1   
 15   8  32  1   
 16   9  10  am  
 17   9  11  am  
 18  10  12  2   
 19  10  13  1   
 20  11  14  2   
 21  11  15  1   
 22  13  15  1   
 23  13  16  1   
 24  13  33  1   
 25  15  17  1   
 26  15  34  1   
 27  16  18  1   
 28  16  19  am  
 29  17  18  2   
 30  17  20  1   
 31  19  21  2   
 32  19  22  1   
 33  20  23  2   
 34  20  24  1   
 35  22  35  1   
 36  22  36  1   
 37  22  37  1   
 38  24  25  1   
 39  25  26  1   
 40  25  38  1   
 41  25  39  1   
 42  26  40  1   
 43  26  41  1   
 44  26  42  1   
@<TRIPOS>SUBSTRUCTURE
  1 ****  11 GROUP 4 **** **** 0

# MOE 2024.06 (io_trps.svl 2023.06)
