@<TRIPOS>MOLECULE
(4-Cyclopropyl-4-methyl-2,5-dioxo-imidazolidin-1-yl)-acetic acid
26 27 1 0 0 
SMALL
USER_CHARGES


@<TRIPOS>ATOM
  1 O       -1.2450    -0.9520     2.2960 O.2   1 <1>  -0.5700 
  2 C       -2.1590    -1.1190     1.5170 C.2   1 <1>   0.6900 
  3 N       -2.2760    -2.1690     0.6490 N.am  1 <1>  -0.4200 
  4 N       -3.1960    -0.2600     1.4310 N.am  1 <1>  -0.7300 
  5 C       -3.3980    -1.9940    -0.1030 C.2   1 <1>   0.5690 
  6 C       -1.0840    -2.9180     0.1390 C.3   1 <1>   0.0340 
  7 C       -4.0770    -0.6840     0.3340 C.3   1 <1>   0.4560 
  8 O       -3.8370    -2.7650    -0.9290 O.2   1 <1>  -0.5700 
  9 C       -0.2800    -2.1590    -0.9140 C.2   1 <1>   0.9060 
 10 C       -4.1260     0.3850    -0.7790 C.3   1 <1>  -0.1950 
 11 C       -5.4750    -0.9140     0.9150 C.3   1 <1>  -0.2400 
 12 O       -0.6470    -1.0370    -1.2900 O.co2 1 <1>  -0.9000 
 13 O        0.7290    -2.7060    -1.3720 O.co2 1 <1>  -0.9000 
 14 C       -2.9610     1.2560    -1.1420 C.3   1 <1>  -0.2000 
 15 C       -4.1850     1.8610    -0.5100 C.3   1 <1>  -0.2000 
 16 H       -2.9580     0.7270     1.4690 H     1 <1>   0.3700 
 17 H       -1.4070    -3.8420    -0.3000 H     1 <1>   0.0800 
 18 H       -0.4260    -3.1380     0.9570 H     1 <1>   0.0800 
 19 H       -4.6960     0.0210    -1.6170 H     1 <1>   0.1000 
 20 H       -5.4310    -1.6360     1.7110 H     1 <1>   0.0800 
 21 H       -6.1250    -1.2920     0.1480 H     1 <1>   0.0800 
 22 H       -5.8790     0.0090     1.2890 H     1 <1>   0.0800 
 23 H       -2.7610     1.4010    -2.1890 H     1 <1>   0.1000 
 24 H       -2.0450     1.1550    -0.5810 H     1 <1>   0.1000 
 25 H       -4.1070     2.2300     0.4980 H     1 <1>   0.1000 
 26 H       -4.8260     2.4720    -1.1210 H     1 <1>   0.1000 
@<TRIPOS>BOND
  1   1   2  2   
  2   2   3  am  
  3   2   4  am  
  4   3   5  am  
  5   3   6  1   
  6   4   7  1   
  7   4  16  1   
  8   5   7  1   
  9   5   8  2   
 10   6   9  1   
 11   6  17  1   
 12   6  18  1   
 13   7  10  1   
 14   7  11  1   
 15   9  12  ar  
 16   9  13  ar  
 17  10  14  1   
 18  10  15  1   
 19  10  19  1   
 20  11  20  1   
 21  11  21  1   
 22  11  22  1   
 23  14  15  1   
 24  14  23  1   
 25  14  24  1   
 26  15  25  1   
 27  15  26  1   
@<TRIPOS>SUBSTRUCTURE
  1 ****   5 GROUP 4 **** **** 0

# MOE 2024.06 (io_trps.svl 2023.06)
