@<TRIPOS>MOLECULE
2-(1-Allyl-6-amino-4-oxo-1,4-dihydro-pyrimidin-2-ylsulfanyl)-N,N-dicyclohexyl-ac
60 62 1 0 0 
SMALL
USER_CHARGES


@<TRIPOS>ATOM
  1 S        0.6150    -2.5530     1.4560 S.3   1 <1>  -0.3710 
  2 C       -0.1630    -2.1280    -0.0890 C.2   1 <1>   0.6410 
  3 C        2.1310    -1.4820     1.4580 C.3   1 <1>   0.1310 
  4 N        0.6300    -1.9350    -1.0740 N.2   1 <1>  -0.6610 
  5 N       -1.5390    -2.0320    -0.1180 N.pl3 1 <1>  -0.5190 
  6 C        1.7140    -0.0130     1.4720 C.2   1 <1>   0.5690 
  7 C        0.0520    -1.5970    -2.2570 C.2   1 <1>   0.7670 
  8 C       -2.1290    -1.6120    -1.2820 C.2   1 <1>   0.2000 
  9 C       -2.3670    -2.3780     1.0720 C.3   1 <1>   0.3470 
 10 O        1.0000     0.3240     2.3900 O.2   1 <1>  -0.5700 
 11 N        2.1020     0.8800     0.4950 N.am  1 <1>  -0.6600 
 12 O        0.7860    -1.4220    -3.2240 O.2   1 <1>  -0.5700 
 13 C       -1.3330    -1.4240    -2.3660 C.2   1 <1>  -0.1360 
 14 N       -3.4690    -1.3710    -1.2960 N.pl3 1 <1>  -0.9000 
 15 C       -2.7250    -1.1070     1.8230 C.2   1 <1>  -0.2880 
 16 C        3.4240     0.8910    -0.2060 C.3   1 <1>   0.2200 
 17 C        1.2420     2.0470     0.1170 C.3   1 <1>   0.2200 
 18 C       -3.9620    -0.6710     2.0830 C.2   1 <1>  -0.3000 
 19 C        3.3840     0.0830    -1.5090 C.3   1 <1>  -0.1600 
 20 C        4.6040     0.4880     0.6950 C.3   1 <1>  -0.1600 
 21 C        1.3560     3.1800     1.1470 C.3   1 <1>  -0.1600 
 22 C       -0.2210     1.6440    -0.1300 C.3   1 <1>  -0.1600 
 23 C        4.7180     0.1930    -2.2620 C.3   1 <1>  -0.1600 
 24 C        5.9300     0.6180    -0.0700 C.3   1 <1>  -0.1600 
 25 C        0.5090     4.3910     0.7270 C.3   1 <1>  -0.1600 
 26 C       -1.0600     2.8580    -0.5530 C.3   1 <1>  -0.1600 
 27 C        5.9010    -0.2040    -1.3670 C.3   1 <1>  -0.1600 
 28 C       -0.9530     3.9880     0.4810 C.3   1 <1>  -0.1600 
 29 H        2.6970    -1.7450     0.5890 H     1 <1>   0.0800 
 30 H        2.6830    -1.7190     2.3470 H     1 <1>   0.0800 
 31 H       -1.8600    -3.0630     1.7250 H     1 <1>   0.0800 
 32 H       -3.2620    -2.8790     0.7470 H     1 <1>   0.0800 
 33 H       -1.7230    -1.1270    -3.3170 H     1 <1>   0.1500 
 34 H       -3.9320    -0.9750    -2.1190 H     1 <1>   0.4000 
 35 H       -3.9360    -1.1380    -0.4130 H     1 <1>   0.4000 
 36 H       -1.8430    -0.5700     2.1400 H     1 <1>   0.1500 
 37 H        3.6260     1.9110    -0.4870 H     1 <1>   0.0800 
 38 H        1.5990     2.4350    -0.8220 H     1 <1>   0.0800 
 39 H       -4.1680     0.2400     2.6200 H     1 <1>   0.1500 
 40 H       -4.8680    -1.1770     1.7940 H     1 <1>   0.1500 
 41 H        2.5920     0.4490    -2.1380 H     1 <1>   0.0800 
 42 H        3.1930    -0.9530    -1.3080 H     1 <1>   0.0800 
 43 H        4.5170    -0.5290     1.0190 H     1 <1>   0.0800 
 44 H        4.6260     1.1270     1.5600 H     1 <1>   0.0800 
 45 H        2.3840     3.4770     1.2440 H     1 <1>   0.0800 
 46 H        1.0110     2.8350     2.1050 H     1 <1>   0.0800 
 47 H       -0.6540     1.2310     0.7620 H     1 <1>   0.0800 
 48 H       -0.2570     0.9030    -0.9040 H     1 <1>   0.0800 
 49 H        4.8520     1.2050    -2.6030 H     1 <1>   0.0800 
 50 H        4.6900    -0.4440    -3.1290 H     1 <1>   0.0800 
 51 H        6.7400     0.2810     0.5530 H     1 <1>   0.0800 
 52 H        6.1070     1.6540    -0.3080 H     1 <1>   0.0800 
 53 H        0.9170     4.8180    -0.1730 H     1 <1>   0.0800 
 54 H        0.5500     5.1420     1.4970 H     1 <1>   0.0800 
 55 H       -2.0890     2.5620    -0.6580 H     1 <1>   0.0800 
 56 H       -0.7180     3.2150    -1.5100 H     1 <1>   0.0800 
 57 H        6.8220    -0.0590    -1.9050 H     1 <1>   0.0800 
 58 H        5.8250    -1.2500    -1.1240 H     1 <1>   0.0800 
 59 H       -1.5100     4.8430     0.1410 H     1 <1>   0.0800 
 60 H       -1.3890     3.6590     1.4100 H     1 <1>   0.0800 
@<TRIPOS>BOND
  1   1   2  1   
  2   1   3  1   
  3   2   4  2   
  4   2   5  1   
  5   3   6  1   
  6   3  29  1   
  7   3  30  1   
  8   4   7  1   
  9   5   8  1   
 10   5   9  1   
 11   6  10  2   
 12   6  11  am  
 13   7  12  2   
 14   7  13  1   
 15   8  13  2   
 16   8  14  1   
 17   9  15  1   
 18   9  31  1   
 19   9  32  1   
 20  11  16  1   
 21  11  17  1   
 22  13  33  1   
 23  14  34  1   
 24  14  35  1   
 25  15  18  2   
 26  15  36  1   
 27  16  19  1   
 28  16  20  1   
 29  16  37  1   
 30  17  21  1   
 31  17  22  1   
 32  17  38  1   
 33  18  39  1   
 34  18  40  1   
 35  19  23  1   
 36  19  41  1   
 37  19  42  1   
 38  20  24  1   
 39  20  43  1   
 40  20  44  1   
 41  21  25  1   
 42  21  45  1   
 43  21  46  1   
 44  22  26  1   
 45  22  47  1   
 46  22  48  1   
 47  23  27  1   
 48  23  49  1   
 49  23  50  1   
 50  24  27  1   
 51  24  51  1   
 52  24  52  1   
 53  25  28  1   
 54  25  53  1   
 55  25  54  1   
 56  26  28  1   
 57  26  55  1   
 58  26  56  1   
 59  27  57  1   
 60  27  58  1   
 61  28  59  1   
 62  28  60  1   
@<TRIPOS>SUBSTRUCTURE
  1 ****  11 GROUP 4 **** **** 0

# MOE 2024.06 (io_trps.svl 2023.06)
