@<TRIPOS>MOLECULE
1-(3,4-Dimethyl-phenyl)-5-oxo-pyrrolidine-3-carboxylic acid 3,3-dimethyl-2-oxo-b
49 50 1 0 0 
SMALL
USER_CHARGES


@<TRIPOS>ATOM
  1 O        0.3320     0.0620     0.2040 O.2   1 <1>  -0.5700 
  2 C        1.4410     0.5350     0.2270 C.2   1 <1>   0.5690 
  3 N        2.6270    -0.1280     0.0680 N.am  1 <1>  -0.4770 
  4 C        1.6620     2.0060     0.4380 C.3   1 <1>  -0.0990 
  5 C        2.8440    -1.4940    -0.2050 C.ar  1 <1>   0.1170 
  6 C        3.7590     0.8150     0.1480 C.3   1 <1>   0.1400 
  7 C        3.1240     2.2020     0.0050 C.3   1 <1>  -0.0190 
  8 C        3.9630    -2.1550     0.2950 C.ar  1 <1>  -0.1500 
  9 C        1.9600    -2.2200    -0.9930 C.ar  1 <1>  -0.1500 
 10 C        3.8960     3.2620     0.7720 C.2   1 <1>   0.6590 
 11 C        4.2070    -3.4900     0.0150 C.ar  1 <1>  -0.1440 
 12 C        2.1910    -3.5520    -1.2770 C.ar  1 <1>  -0.1500 
 13 O        3.3620     4.0600     1.4960 O.2   1 <1>  -0.5700 
 14 O        5.2070     3.2540     0.5930 O.3   1 <1>  -0.4300 
 15 C        3.3120    -4.1980    -0.7800 C.ar  1 <1>  -0.1430 
 16 C        5.4500    -4.1540     0.5910 C.3   1 <1>  -0.0970 
 17 C        6.0500     4.1510     1.2990 C.3   1 <1>   0.1810 
 18 C        3.5300    -5.6660    -1.1170 C.3   1 <1>  -0.0970 
 19 C        7.5100     3.9100     0.9390 C.2   1 <1>   0.4480 
 20 O        8.1820     3.2110     1.6430 O.2   1 <1>  -0.5700 
 21 C        8.0810     4.6060    -0.3230 C.3   1 <1>   0.0610 
 22 C        9.4780     4.0520    -0.6690 C.3   1 <1>  -0.2400 
 23 C        7.1800     4.3870    -1.5540 C.3   1 <1>  -0.2400 
 24 C        8.2230     6.1190    -0.0760 C.3   1 <1>  -0.2400 
 25 H        1.5170     2.2240     1.4810 H     1 <1>   0.0800 
 26 H        0.9830     2.5900    -0.1560 H     1 <1>   0.0800 
 27 H        4.4720     0.6250    -0.6370 H     1 <1>   0.0800 
 28 H        4.2360     0.7080     1.1080 H     1 <1>   0.0800 
 29 H        3.1420     2.4680    -1.0360 H     1 <1>   0.0800 
 30 H        4.6510    -1.6180     0.9190 H     1 <1>   0.1500 
 31 H        1.0840    -1.7410    -1.3900 H     1 <1>   0.1500 
 32 H        1.4850    -4.0840    -1.8900 H     1 <1>   0.1500 
 33 H        6.0300    -3.4560     1.1680 H     1 <1>   0.0800 
 34 H        6.0680    -4.5300    -0.2040 H     1 <1>   0.0800 
 35 H        5.1670    -4.9680     1.2330 H     1 <1>   0.0800 
 36 H        5.9110     3.9790     2.3520 H     1 <1>   0.0800 
 37 H        5.7540     5.1580     1.0660 H     1 <1>   0.0800 
 38 H        3.5600    -6.2490    -0.2150 H     1 <1>   0.0800 
 39 H        4.4570    -5.7890    -1.6480 H     1 <1>   0.0800 
 40 H        2.7350    -6.0420    -1.7350 H     1 <1>   0.0800 
 41 H        9.4260     2.9930    -0.8510 H     1 <1>   0.0800 
 42 H       10.1590     4.2150     0.1480 H     1 <1>   0.0800 
 43 H        9.8800     4.5300    -1.5450 H     1 <1>   0.0800 
 44 H        6.2160     4.8430    -1.4170 H     1 <1>   0.0800 
 45 H        7.0400     3.3350    -1.7290 H     1 <1>   0.0800 
 46 H        7.6270     4.8200    -2.4320 H     1 <1>   0.0800 
 47 H        7.2680     6.5790     0.0990 H     1 <1>   0.0800 
 48 H        8.6740     6.6000    -0.9260 H     1 <1>   0.0800 
 49 H        8.8490     6.2970     0.7820 H     1 <1>   0.0800 
@<TRIPOS>BOND
  1   1   2  2   
  2   2   3  am  
  3   2   4  1   
  4   3   5  1   
  5   3   6  1   
  6   4   7  1   
  7   4  25  1   
  8   4  26  1   
  9   5   8  ar  
 10   5   9  ar  
 11   6   7  1   
 12   6  27  1   
 13   6  28  1   
 14   7  10  1   
 15   7  29  1   
 16   8  11  ar  
 17   8  30  1   
 18   9  12  ar  
 19   9  31  1   
 20  10  13  2   
 21  10  14  1   
 22  11  15  ar  
 23  11  16  1   
 24  12  15  ar  
 25  12  32  1   
 26  14  17  1   
 27  15  18  1   
 28  16  33  1   
 29  16  34  1   
 30  16  35  1   
 31  17  19  1   
 32  17  36  1   
 33  17  37  1   
 34  18  38  1   
 35  18  39  1   
 36  18  40  1   
 37  19  20  2   
 38  19  21  1   
 39  21  22  1   
 40  21  23  1   
 41  21  24  1   
 42  22  41  1   
 43  22  42  1   
 44  22  43  1   
 45  23  44  1   
 46  23  45  1   
 47  23  46  1   
 48  24  47  1   
 49  24  48  1   
 50  24  49  1   
@<TRIPOS>SUBSTRUCTURE
  1 ****   6 GROUP 4 **** **** 0

# MOE 2024.06 (io_trps.svl 2023.06)
