@<TRIPOS>MOLECULE
8-(2-Methoxy-ethylamino)-1,3-dimethyl-7-(3-phenyl-propyl)-3,7-dihydro-purine-2,6
53 55 1 0 0 
SMALL
USER_CHARGES


@<TRIPOS>ATOM
  1 O        0.5940    -0.2490     0.4440 O.2   1 <1>  -0.5740 
  2 C        1.5360     0.5120     0.3510 C.2   1 <1>   0.6870 
  3 N        1.3270     1.8860     0.3830 N.am  1 <1>  -0.4250 
  4 N        2.8200     0.0050     0.2020 N.am  1 <1>  -0.4410 
  5 C        2.3780     2.7770     0.2050 C.2   1 <1>   0.7000 
  6 C       -0.0660     2.4020     0.5690 C.3   1 <1>   0.0530 
  7 C        3.8560     0.9030     0.0300 C.2   1 <1>   0.4210 
  8 C        3.0620    -1.4680     0.1920 C.3   1 <1>   0.0530 
  9 O        2.1790     3.9810     0.1920 O.2   1 <1>  -0.5740 
 10 C        3.6970     2.2430     0.0280 C.2   1 <1>   0.2710 
 11 N        5.1700     0.6240    -0.1710 N.pl3 1 <1>  -0.7030 
 12 N        4.9770     2.8050    -0.1760 N.pl3 1 <1>  -0.7670 
 13 C        5.8210     1.7740    -0.3010 C.cat 1 <1>   1.0690 
 14 C        5.1530     4.2930    -0.2050 C.3   1 <1>   0.3480 
 15 N        7.1210     1.8460    -0.5310 N.pl3 1 <1>  -0.7180 
 16 C        6.6070     4.7560    -0.0880 C.3   1 <1>  -0.1670 
 17 C        8.2100     0.8460    -0.5490 C.3   1 <1>   0.1610 
 18 C        6.7080     6.2720     0.1130 C.3   1 <1>  -0.0240 
 19 C        9.5090     1.5750    -0.1720 C.3   1 <1>   0.1130 
 20 C        8.1700     6.6710     0.2200 C.ar  1 <1>  -0.1500 
 21 O        9.4350     2.8860    -0.6590 O.3   1 <1>  -0.5640 
 22 C        8.8560     7.1340    -0.8930 C.ar  1 <1>  -0.1570 
 23 C        8.8330     6.5710     1.4330 C.ar  1 <1>  -0.1570 
 24 C       10.5140     3.6920    -0.3010 C.3   1 <1>   0.0320 
 25 C       10.1890     7.4920    -0.7940 C.ar  1 <1>  -0.1570 
 26 C       10.1670     6.9270     1.5330 C.ar  1 <1>  -0.1570 
 27 C       10.8460     7.3880     0.4190 C.ar  1 <1>  -0.1570 
 28 H       -0.6070     1.7740     1.2560 H     1 <1>   0.0730 
 29 H       -0.5780     2.4030    -0.3770 H     1 <1>   0.0730 
 30 H       -0.0580     3.4030     0.9650 H     1 <1>   0.0730 
 31 H        2.2650    -1.9860     0.7000 H     1 <1>   0.0730 
 32 H        3.9820    -1.7020     0.6960 H     1 <1>   0.0730 
 33 H        3.1060    -1.8220    -0.8240 H     1 <1>   0.0730 
 34 H        5.6010    -0.2900    -0.2530 H     1 <1>   0.4450 
 35 H        4.6020     4.7150     0.6200 H     1 <1>   0.0730 
 36 H        4.7240     4.6820    -1.1140 H     1 <1>   0.0730 
 37 H        7.5490     2.7770    -0.6450 H     1 <1>   0.4450 
 38 H        7.1420     4.5120    -0.9890 H     1 <1>   0.0730 
 39 H        7.0770     4.2800     0.7550 H     1 <1>   0.0730 
 40 H        8.3110     0.4440    -1.5440 H     1 <1>   0.0730 
 41 H        8.0180     0.0390     0.1370 H     1 <1>   0.0730 
 42 H        6.1940     6.5670     1.0110 H     1 <1>   0.0730 
 43 H        6.2520     6.7900    -0.7140 H     1 <1>   0.0730 
 44 H       10.3670     1.0840    -0.5990 H     1 <1>   0.0730 
 45 H        9.6170     1.6150     0.8990 H     1 <1>   0.0730 
 46 H        8.3580     7.2200    -1.8420 H     1 <1>   0.1430 
 47 H        8.3160     6.2190     2.3080 H     1 <1>   0.1430 
 48 H       10.3770     4.6580    -0.7540 H     1 <1>   0.0730 
 49 H       11.4270     3.2510    -0.6620 H     1 <1>   0.0730 
 50 H       10.5410     3.8010     0.7690 H     1 <1>   0.0730 
 51 H       10.7150     7.8530    -1.6610 H     1 <1>   0.1430 
 52 H       10.6760     6.8500     2.4780 H     1 <1>   0.1430 
 53 H       11.8820     7.6690     0.4970 H     1 <1>   0.1430 
@<TRIPOS>BOND
  1   1   2  2   
  2   2   3  am  
  3   2   4  am  
  4   3   5  am  
  5   3   6  1   
  6   4   7  1   
  7   4   8  1   
  8   5   9  2   
  9   5  10  1   
 10   6  28  1   
 11   6  29  1   
 12   6  30  1   
 13   7  10  2   
 14   7  11  1   
 15   8  31  1   
 16   8  32  1   
 17   8  33  1   
 18  10  12  1   
 19  11  13  ar  
 20  11  34  1   
 21  12  13  ar  
 22  12  14  1   
 23  13  15  ar  
 24  14  16  1   
 25  14  35  1   
 26  14  36  1   
 27  15  17  1   
 28  15  37  1   
 29  16  18  1   
 30  16  38  1   
 31  16  39  1   
 32  17  19  1   
 33  17  40  1   
 34  17  41  1   
 35  18  20  1   
 36  18  42  1   
 37  18  43  1   
 38  19  21  1   
 39  19  44  1   
 40  19  45  1   
 41  20  22  ar  
 42  20  23  ar  
 43  21  24  1   
 44  22  25  ar  
 45  22  46  1   
 46  23  26  ar  
 47  23  47  1   
 48  24  48  1   
 49  24  49  1   
 50  24  50  1   
 51  25  27  ar  
 52  25  51  1   
 53  26  27  ar  
 54  26  52  1   
 55  27  53  1   
@<TRIPOS>SUBSTRUCTURE
  1 ****  12 GROUP 4 **** **** 0

# MOE 2024.06 (io_trps.svl 2023.06)
