@<TRIPOS>MOLECULE
N-(2,4-Dimethoxy-phenyl)-2-[4-(morpholine-4-sulfonyl)-phenoxy]-acetamide
54 56 1 0 0 
SMALL
USER_CHARGES


@<TRIPOS>ATOM
  1 S       -0.0510     0.8640     0.1930 S.o2  1 <1>   1.4470 
  2 O       -0.5720     0.2990     1.4200 O.2   1 <1>  -0.6500 
  3 O       -0.7420     1.9770    -0.4200 O.2   1 <1>  -0.6500 
  4 N       -0.0190    -0.3890    -0.9460 N.am  1 <1>  -0.8490 
  5 C        1.6980     1.2900     0.3990 C.ar  1 <1>  -0.0090 
  6 C       -1.3370    -0.6440    -1.5340 C.3   1 <1>   0.1960 
  7 C        0.5910    -1.6390    -0.4440 C.3   1 <1>   0.1960 
  8 C        2.5280     1.4540    -0.7040 C.ar  1 <1>  -0.1500 
  9 C        2.2510     1.4750     1.6630 C.ar  1 <1>  -0.1500 
 10 C       -1.2620    -1.6930    -2.6680 C.3   1 <1>   0.1200 
 11 C        0.1080    -2.9110    -1.1780 C.3   1 <1>   0.1200 
 12 C        3.8620     1.7870    -0.5530 C.ar  1 <1>  -0.1500 
 13 C        3.5840     1.8090     1.8260 C.ar  1 <1>  -0.1500 
 14 O       -0.2300    -2.6340    -2.5040 O.3   1 <1>  -0.5600 
 15 C        4.3980     1.9680     0.7100 C.ar  1 <1>   0.0830 
 16 O        5.7070     2.2990     0.7720 O.3   1 <1>  -0.3630 
 17 C        6.3420     2.6070     2.0070 C.3   1 <1>   0.1810 
 18 C        7.7870     3.0320     1.7870 C.2   1 <1>   0.5690 
 19 O        8.4580     3.2790     2.7600 O.2   1 <1>  -0.5700 
 20 N        8.2420     3.1130     0.5020 N.am  1 <1>  -0.5470 
 21 C        9.4720     3.4620    -0.0870 C.ar  1 <1>   0.1170 
 22 C        9.5670     3.4250    -1.4830 C.ar  1 <1>   0.0830 
 23 C       10.5880     3.8390     0.6510 C.ar  1 <1>  -0.1500 
 24 O        8.4490     3.0500    -2.1770 O.3   1 <1>  -0.3620 
 25 C       10.7630     3.7620    -2.1080 C.ar  1 <1>  -0.1500 
 26 C       11.7760     4.1740     0.0260 C.ar  1 <1>  -0.1500 
 27 C        8.4550     2.9810    -3.5860 C.3   1 <1>   0.0400 
 28 C       11.8670     4.1360    -1.3610 C.ar  1 <1>   0.0830 
 29 O       12.9940     4.4480    -2.0550 O.3   1 <1>  -0.3620 
 30 C       14.1720     4.8410    -1.3850 C.3   1 <1>   0.0400 
 31 H       -1.7480     0.2670    -1.9370 H     1 <1>   0.0800 
 32 H       -2.0110    -0.9920    -0.7680 H     1 <1>   0.0800 
 33 H        0.3830    -1.7740     0.6040 H     1 <1>   0.0800 
 34 H        1.6600    -1.5640    -0.5500 H     1 <1>   0.0800 
 35 H        2.1200     1.3200    -1.6930 H     1 <1>   0.1500 
 36 H        1.6250     1.3560     2.5320 H     1 <1>   0.1500 
 37 H       -1.0840    -1.1950    -3.6050 H     1 <1>   0.0800 
 38 H       -2.1930    -2.2240    -2.7420 H     1 <1>   0.0800 
 39 H       -0.7580    -3.3210    -0.6890 H     1 <1>   0.0800 
 40 H        0.8820    -3.6580    -1.1800 H     1 <1>   0.0800 
 41 H        4.4910     1.9110    -1.4160 H     1 <1>   0.1500 
 42 H        3.9630     1.9390     2.8220 H     1 <1>   0.1500 
 43 H        6.3190     1.7330     2.6300 H     1 <1>   0.0800 
 44 H        5.8050     3.4110     2.4760 H     1 <1>   0.0800 
 45 H        7.5380     2.8620    -0.2010 H     1 <1>   0.3700 
 46 H       10.5380     3.8740     1.7230 H     1 <1>   0.1500 
 47 H       10.8720     3.7450    -3.1740 H     1 <1>   0.1500 
 48 H       12.6120     4.4590     0.6360 H     1 <1>   0.1500 
 49 H        7.4800     2.6650    -3.9100 H     1 <1>   0.0800 
 50 H        9.1940     2.2630    -3.8980 H     1 <1>   0.0800 
 51 H        8.6740     3.9570    -3.9830 H     1 <1>   0.0800 
 52 H       14.9270     5.0370    -2.1250 H     1 <1>   0.0800 
 53 H       14.4900     4.0400    -0.7410 H     1 <1>   0.0800 
 54 H       13.9710     5.7350    -0.8210 H     1 <1>   0.0800 
@<TRIPOS>BOND
  1   1   2  2   
  2   1   3  2   
  3   1   4  am  
  4   1   5  1   
  5   4   6  1   
  6   4   7  1   
  7   5   8  ar  
  8   5   9  ar  
  9   6  10  1   
 10   6  31  1   
 11   6  32  1   
 12   7  11  1   
 13   7  33  1   
 14   7  34  1   
 15   8  12  ar  
 16   8  35  1   
 17   9  13  ar  
 18   9  36  1   
 19  10  14  1   
 20  10  37  1   
 21  10  38  1   
 22  11  14  1   
 23  11  39  1   
 24  11  40  1   
 25  12  15  ar  
 26  12  41  1   
 27  13  15  ar  
 28  13  42  1   
 29  15  16  1   
 30  16  17  1   
 31  17  18  1   
 32  17  43  1   
 33  17  44  1   
 34  18  19  2   
 35  18  20  am  
 36  20  21  1   
 37  20  45  1   
 38  21  22  ar  
 39  21  23  ar  
 40  22  24  1   
 41  22  25  ar  
 42  23  26  ar  
 43  23  46  1   
 44  24  27  1   
 45  25  28  ar  
 46  25  47  1   
 47  26  28  ar  
 48  26  48  1   
 49  27  49  1   
 50  27  50  1   
 51  27  51  1   
 52  28  29  1   
 53  29  30  1   
 54  30  52  1   
 55  30  53  1   
 56  30  54  1   
@<TRIPOS>SUBSTRUCTURE
  1 ****  16 GROUP 4 **** **** 0

# MOE 2024.06 (io_trps.svl 2023.06)
