@<TRIPOS>MOLECULE
4-Chloro-2-(3-dimethylamino-propylamino)-5-(piperidine-1-sulfonyl)-benzoic acid
52 53 1 0 0 
SMALL
USER_CHARGES


@<TRIPOS>ATOM
  1 CL      -0.2180    -0.6490    -2.5000 Cl    1 <1>  -0.1770 
  2 C       -1.8600    -0.8050    -1.9240 C.ar  1 <1>   0.1770 
  3 C       -2.2000    -1.7860    -1.0040 C.ar  1 <1>  -0.0090 
  4 C       -2.7880     0.0870    -2.4180 C.ar  1 <1>  -0.1500 
  5 S       -0.9490    -2.9470    -0.4080 S.o2  1 <1>   1.4470 
  6 C       -3.5190    -1.8070    -0.5670 C.ar  1 <1>  -0.1500 
  7 C       -4.1070     0.0300    -1.9970 C.ar  1 <1>   0.1000 
  8 O       -0.1190    -2.2780     0.5720 O.2   1 <1>  -0.6500 
  9 O       -0.3110    -3.6310    -1.5130 O.2   1 <1>  -0.6500 
 10 N       -1.8300    -4.1420     0.4170 N.am  1 <1>  -0.8490 
 11 C       -4.4910    -0.9290    -1.0500 C.ar  1 <1>  -0.1790 
 12 N       -5.0400     0.9000    -2.5260 N.pl3 1 <1>  -0.8690 
 13 C       -2.5190    -5.0580    -0.5020 C.3   1 <1>   0.1960 
 14 C       -0.9950    -4.8830     1.3660 C.3   1 <1>   0.1960 
 15 C       -5.8440    -0.9790    -0.5370 C.2   1 <1>   0.9790 
 16 C       -4.9890     2.3550    -2.2760 C.3   1 <1>   0.2090 
 17 C       -3.4530    -5.9840     0.2820 C.3   1 <1>  -0.1600 
 18 C       -1.8610    -5.8240     2.2120 C.3   1 <1>  -0.1600 
 19 O       -6.0400    -1.0400     0.6900 O.co2 1 <1>  -0.9000 
 20 O       -6.8360    -0.7540    -1.2570 O.co2 1 <1>  -0.9000 
 21 C       -6.1530     2.7550    -1.3650 C.3   1 <1>  -0.1600 
 22 C       -2.6800    -6.7820     1.3390 C.3   1 <1>  -0.1600 
 23 C       -5.9590     2.1690     0.0370 C.3   1 <1>   0.3430 
 24 N       -7.2070     2.1710     0.8580 N.4   1 <1>  -0.9590 
 25 C       -6.8530     1.6660     2.2170 C.3   1 <1>   0.2630 
 26 C       -8.2270     1.2160     0.3040 C.3   1 <1>   0.2630 
 27 H       -2.4960     0.8220    -3.1430 H     1 <1>   0.1500 
 28 H       -3.8250    -2.5190     0.1840 H     1 <1>   0.1500 
 29 H       -5.9990     0.5010    -2.3980 H     1 <1>   0.4000 
 30 H       -1.7970    -5.6460    -1.0470 H     1 <1>   0.0800 
 31 H       -3.1000    -4.4980    -1.2150 H     1 <1>   0.0800 
 32 H       -0.4940    -4.1960     2.0280 H     1 <1>   0.0800 
 33 H       -0.2450    -5.4430     0.8310 H     1 <1>   0.0800 
 34 H       -5.0730     2.8650    -3.2210 H     1 <1>   0.0800 
 35 H       -4.0440     2.6200    -1.8310 H     1 <1>   0.0800 
 36 H       -3.9410    -6.6590    -0.3980 H     1 <1>   0.0800 
 37 H       -4.2140    -5.3870     0.7560 H     1 <1>   0.0800 
 38 H       -2.5240    -5.2270     2.8140 H     1 <1>   0.0800 
 39 H       -1.2310    -6.3870     2.8770 H     1 <1>   0.0800 
 40 H       -7.0590     2.4060    -1.8230 H     1 <1>   0.0800 
 41 H       -6.1930     3.8260    -1.2980 H     1 <1>   0.0800 
 42 H       -2.0180    -7.4750     0.8500 H     1 <1>   0.0800 
 43 H       -3.3650    -7.3440     1.9500 H     1 <1>   0.0800 
 44 H       -5.1930     2.7340     0.5430 H     1 <1>   0.0800 
 45 H       -5.5950     1.1660    -0.0450 H     1 <1>   0.0800 
 46 H       -7.5980     3.1180     0.9020 H     1 <1>   0.4500 
 47 H       -6.4540     0.6650     2.1430 H     1 <1>   0.0800 
 48 H       -7.7270     1.6360     2.8460 H     1 <1>   0.0800 
 49 H       -6.1130     2.2990     2.6750 H     1 <1>   0.0800 
 50 H       -7.9030     0.1980     0.4510 H     1 <1>   0.0800 
 51 H       -8.3730     1.3640    -0.7520 H     1 <1>   0.0800 
 52 H       -9.1700     1.3390     0.8060 H     1 <1>   0.0800 
@<TRIPOS>BOND
  1   1   2  1   
  2   2   3  ar  
  3   2   4  ar  
  4   3   5  1   
  5   3   6  ar  
  6   4   7  ar  
  7   4  27  1   
  8   5   8  2   
  9   5   9  2   
 10   5  10  am  
 11   6  11  ar  
 12   6  28  1   
 13   7  11  ar  
 14   7  12  1   
 15  10  13  1   
 16  10  14  1   
 17  11  15  1   
 18  12  16  1   
 19  12  29  1   
 20  13  17  1   
 21  13  30  1   
 22  13  31  1   
 23  14  18  1   
 24  14  32  1   
 25  14  33  1   
 26  15  19  ar  
 27  15  20  ar  
 28  16  21  1   
 29  16  34  1   
 30  16  35  1   
 31  17  22  1   
 32  17  36  1   
 33  17  37  1   
 34  18  22  1   
 35  18  38  1   
 36  18  39  1   
 37  21  23  1   
 38  21  40  1   
 39  21  41  1   
 40  22  42  1   
 41  22  43  1   
 42  23  24  1   
 43  23  44  1   
 44  23  45  1   
 45  24  25  1   
 46  24  26  1   
 47  24  46  1   
 48  25  47  1   
 49  25  48  1   
 50  25  49  1   
 51  26  50  1   
 52  26  51  1   
 53  26  52  1   
@<TRIPOS>SUBSTRUCTURE
  1 ****   6 GROUP 4 **** **** 0

# MOE 2024.06 (io_trps.svl 2023.06)
