@<TRIPOS>MOLECULE
7-(4-Dimethylamino-phenyl)-5-methyl-4,7-dihydro-tetrazolo[1,5-a]pyrimidine-6-car
45 47 1 0 0 
SMALL
USER_CHARGES


@<TRIPOS>ATOM
  1 O       -0.8310    -0.8210    -1.3480 O.2   1 <1>  -0.5700 
  2 C       -0.4020    -1.3870    -0.3600 C.2   1 <1>   0.7060 
  3 O       -1.1470    -1.4120     0.7490 O.3   1 <1>  -0.4300 
  4 C        0.8850    -2.0050    -0.3360 C.2   1 <1>  -0.1240 
  5 C       -2.4480    -0.8710     0.7930 C.3   1 <1>   0.2580 
  6 C        1.2990    -3.0900     0.3880 C.2   1 <1>  -0.0380 
  7 C        1.8730    -1.2730    -1.2630 C.3   1 <1>   0.4570 
  8 C       -3.4250    -1.9570     0.3800 C.2   1 <1>  -0.2880 
  9 N        2.5900    -3.5590     0.2880 N.pl3 1 <1>  -0.5840 
 10 C        0.4320    -3.9080     1.3330 C.3   1 <1>  -0.1020 
 11 N        3.1530    -2.0070    -1.3960 N.pl3 1 <1>   0.3140 
 12 C        2.1400     0.1300    -0.7140 C.ar  1 <1>  -0.1440 
 13 C       -4.2170    -1.9100    -0.6970 C.2   1 <1>  -0.3000 
 14 C        3.4710    -3.0470    -0.6530 C.2   1 <1>   0.2700 
 15 N        4.1600    -1.7810    -2.2240 N.2   1 <1>  -0.4180 
 16 C        1.7160     1.2500    -1.4170 C.ar  1 <1>  -0.1500 
 17 C        2.7960     0.3080     0.4980 C.ar  1 <1>  -0.1500 
 18 N        4.6370    -3.4730    -0.9630 N.2   1 <1>  -0.3380 
 19 N        5.0480    -2.6680    -1.9460 N.2   1 <1>   0.0000 
 20 C        1.9470     2.5190    -0.9200 C.ar  1 <1>  -0.1500 
 21 C        3.0230     1.5800     0.9900 C.ar  1 <1>  -0.1500 
 22 C        2.6020     2.7020     0.2920 C.ar  1 <1>   0.1000 
 23 N        2.8540     3.9680     0.8120 N.pl3 1 <1>  -0.8380 
 24 C        4.2250     4.5040     0.6190 C.3   1 <1>   0.1290 
 25 C        1.7730     4.9870     0.7740 C.3   1 <1>   0.1290 
 26 H       -2.5090    -0.0080     0.1510 H     1 <1>   0.0800 
 27 H       -2.6410    -0.5630     1.8050 H     1 <1>   0.0800 
 28 H        1.4550    -1.2030    -2.2510 H     1 <1>   0.0800 
 29 H       -3.4150    -2.7930     1.0570 H     1 <1>   0.1500 
 30 H        2.9200    -4.3700     0.8230 H     1 <1>   0.4000 
 31 H        0.6460    -4.9560     1.2200 H     1 <1>   0.0800 
 32 H       -0.6140    -3.7760     1.1340 H     1 <1>   0.0800 
 33 H        0.6310    -3.6230     2.3500 H     1 <1>   0.0800 
 34 H       -4.9050    -2.6900    -0.9730 H     1 <1>   0.1500 
 35 H       -4.2400    -1.0890    -1.3940 H     1 <1>   0.1500 
 36 H        1.1990     1.1420    -2.3560 H     1 <1>   0.1500 
 37 H        3.1360    -0.5390     1.0700 H     1 <1>   0.1500 
 38 H        1.6220     3.3780    -1.4760 H     1 <1>   0.1500 
 39 H        3.5280     1.7200     1.9280 H     1 <1>   0.1500 
 40 H        4.9310     3.6940     0.5480 H     1 <1>   0.0800 
 41 H        4.4930     5.1250     1.4560 H     1 <1>   0.0800 
 42 H        4.2700     5.0840    -0.2860 H     1 <1>   0.0800 
 43 H        0.8130     4.5030     0.8360 H     1 <1>   0.0800 
 44 H        1.8260     5.5500    -0.1410 H     1 <1>   0.0800 
 45 H        1.8770     5.6550     1.6110 H     1 <1>   0.0800 
@<TRIPOS>BOND
  1   1   2  2   
  2   2   3  1   
  3   2   4  1   
  4   3   5  1   
  5   4   6  2   
  6   4   7  1   
  7   5   8  1   
  8   5  26  1   
  9   5  27  1   
 10   6   9  1   
 11   6  10  1   
 12   7  11  1   
 13   7  12  1   
 14   7  28  1   
 15   8  13  2   
 16   8  29  1   
 17   9  14  1   
 18   9  30  1   
 19  10  31  1   
 20  10  32  1   
 21  10  33  1   
 22  11  14  1   
 23  11  15  1   
 24  12  16  ar  
 25  12  17  ar  
 26  13  34  1   
 27  13  35  1   
 28  14  18  2   
 29  15  19  2   
 30  16  20  ar  
 31  16  36  1   
 32  17  21  ar  
 33  17  37  1   
 34  18  19  1   
 35  20  22  ar  
 36  20  38  1   
 37  21  22  ar  
 38  21  39  1   
 39  22  23  1   
 40  23  24  1   
 41  23  25  1   
 42  24  40  1   
 43  24  41  1   
 44  24  42  1   
 45  25  43  1   
 46  25  44  1   
 47  25  45  1   
@<TRIPOS>SUBSTRUCTURE
  1 ****  12 GROUP 4 **** **** 0

# MOE 2024.06 (io_trps.svl 2023.06)
