@<TRIPOS>MOLECULE
2-Amino-3-(1H-indol-3-yl)-N-isopropyl-propionamide
37 38 1 0 0 
SMALL
USER_CHARGES


@<TRIPOS>ATOM
  1 O        1.6310     1.3520     1.4590 O.2   1 <1>  -0.5700 
  2 C        0.5610     1.5450     0.8850 C.2   1 <1>   0.5690 
  3 N        0.3290     1.1140    -0.3900 N.am  1 <1>  -0.7300 
  4 C       -0.5790     2.3080     1.6190 C.3   1 <1>   0.2510 
  5 C        1.2130     0.3490    -1.2840 C.3   1 <1>   0.2200 
  6 N       -0.1240     3.0700     2.8010 N.3   1 <1>  -0.9900 
  7 C       -1.7110     1.3640     2.0470 C.3   1 <1>   0.0210 
  8 C        1.4800    -1.0300    -0.6880 C.3   1 <1>  -0.2400 
  9 C        2.5010     1.1230    -1.5530 C.3   1 <1>  -0.2400 
 10 C       -2.3180     0.5580     0.9370 C.2   1 <1>  -0.1810 
 11 C       -3.0510     1.0270    -0.2360 C.ar  1 <1>   0.0000 
 12 C       -2.2570    -0.7860     0.8160 C.2   1 <1>  -0.3020 
 13 C       -3.3870    -0.1010    -1.0420 C.ar  1 <1>  -0.1520 
 14 C       -3.4560     2.2950    -0.7070 C.ar  1 <1>  -0.1500 
 15 N       -2.8940    -1.1810    -0.3410 N.pl3 1 <1>   0.0330 
 16 C       -4.0770     0.0230    -2.2580 C.ar  1 <1>  -0.1500 
 17 C       -4.1480     2.4330    -1.9260 C.ar  1 <1>  -0.1500 
 18 C       -4.4560     1.3010    -2.7020 C.ar  1 <1>  -0.1500 
 19 H       -0.6480     1.1260    -0.7040 H     1 <1>   0.3700 
 20 H       -0.9960     3.0210     0.9080 H     1 <1>   0.0800 
 21 H        0.6980     0.2200    -2.2210 H     1 <1>   0.0800 
 22 H        0.5670     3.7350     2.4790 H     1 <1>   0.3600 
 23 H        0.3950     2.4140     3.3750 H     1 <1>   0.3600 
 24 H       -2.4990     1.9590     2.5090 H     1 <1>   0.0800 
 25 H       -1.3230     0.6830     2.8050 H     1 <1>   0.0800 
 26 H        2.0280    -0.9450     0.2340 H     1 <1>   0.0800 
 27 H        2.0620    -1.6180    -1.3730 H     1 <1>   0.0800 
 28 H        0.5520    -1.5390    -0.5030 H     1 <1>   0.0800 
 29 H        3.0830     1.2250    -0.6540 H     1 <1>   0.0800 
 30 H        2.2720     2.1000    -1.9390 H     1 <1>   0.0800 
 31 H        3.0960     0.6000    -2.2790 H     1 <1>   0.0800 
 32 H       -1.7750    -1.4520     1.5180 H     1 <1>   0.1500 
 33 H       -3.2330     3.1730    -0.1200 H     1 <1>   0.1500 
 34 H       -2.9760    -2.1480    -0.6210 H     1 <1>   0.2700 
 35 H       -4.3170    -0.8510    -2.8460 H     1 <1>   0.1500 
 36 H       -4.4470     3.4140    -2.2660 H     1 <1>   0.1500 
 37 H       -4.9890     1.4140    -3.6360 H     1 <1>   0.1500 
@<TRIPOS>BOND
  1   1   2  2   
  2   2   3  am  
  3   2   4  1   
  4   3   5  1   
  5   3  19  1   
  6   4   6  1   
  7   4   7  1   
  8   4  20  1   
  9   5   8  1   
 10   5   9  1   
 11   5  21  1   
 12   6  22  1   
 13   6  23  1   
 14   7  10  1   
 15   7  24  1   
 16   7  25  1   
 17   8  26  1   
 18   8  27  1   
 19   8  28  1   
 20   9  29  1   
 21   9  30  1   
 22   9  31  1   
 23  10  11  1   
 24  10  12  2   
 25  11  13  ar  
 26  11  14  ar  
 27  12  15  1   
 28  12  32  1   
 29  13  15  1   
 30  13  16  ar  
 31  14  17  ar  
 32  14  33  1   
 33  15  34  1   
 34  16  18  ar  
 35  16  35  1   
 36  17  18  ar  
 37  17  36  1   
 38  18  37  1   
@<TRIPOS>SUBSTRUCTURE
  1 ****  10 GROUP 4 **** **** 0

# MOE 2024.06 (io_trps.svl 2023.06)
