@<TRIPOS>MOLECULE
Tetrahydro-furan-2-carboxylic acid [2-(5-methyl-1H-indol-3-yl)-ethyl]-amide
40 42 1 0 0 
SMALL
USER_CHARGES


@<TRIPOS>ATOM
  1 O        0.7080    -0.4330     1.6200 O.2   1 <1>  -0.5700 
  2 C        1.0550    -1.2460     0.7950 C.2   1 <1>   0.5690 
  3 N        2.0080    -0.9660    -0.1350 N.am  1 <1>  -0.7300 
  4 C        0.4050    -2.6390     0.7890 C.3   1 <1>   0.2610 
  5 C        2.7440     0.3110    -0.2820 C.3   1 <1>   0.1400 
  6 O        1.0110    -3.5150    -0.1290 O.3   1 <1>  -0.5600 
  7 C       -1.0610    -2.6330     0.3700 C.3   1 <1>  -0.1600 
  8 C        4.2320     0.0950    -0.0030 C.3   1 <1>   0.0210 
  9 C        0.1430    -4.5600    -0.4330 C.3   1 <1>   0.1200 
 10 C       -1.2700    -4.0280    -0.1990 C.3   1 <1>  -0.1600 
 11 C        5.0520     1.3570    -0.2200 C.2   1 <1>  -0.1810 
 12 C        6.4630     1.3820    -0.1380 C.ar  1 <1>   0.0000 
 13 C        4.6390     2.6160    -0.5090 C.2   1 <1>  -0.3020 
 14 C        6.8510     2.6930    -0.3920 C.ar  1 <1>  -0.1520 
 15 C        7.4380     0.4150     0.1280 C.ar  1 <1>  -0.1500 
 16 N        5.7240     3.4390    -0.6170 N.pl3 1 <1>   0.0330 
 17 C        8.2000     3.0550    -0.3890 C.ar  1 <1>  -0.1500 
 18 C        8.7700     0.7660     0.1330 C.ar  1 <1>  -0.1440 
 19 C        9.1460     2.0910    -0.1270 C.ar  1 <1>  -0.1500 
 20 C        9.8490    -0.2620     0.4180 C.3   1 <1>  -0.0970 
 21 H        2.2450    -1.7280    -0.7790 H     1 <1>   0.3700 
 22 H        0.5080    -3.0760     1.7660 H     1 <1>   0.0800 
 23 H        2.3520     1.0410     0.4070 H     1 <1>   0.0800 
 24 H        2.6110     0.6810    -1.2830 H     1 <1>   0.0800 
 25 H       -1.2100    -1.8900    -0.3940 H     1 <1>   0.0800 
 26 H       -1.7070    -2.4170     1.2020 H     1 <1>   0.0800 
 27 H        4.6070    -0.6700    -0.6590 H     1 <1>   0.0800 
 28 H        4.3570    -0.2290     1.0150 H     1 <1>   0.0800 
 29 H        0.3640    -5.3830     0.2260 H     1 <1>   0.0800 
 30 H        0.3040    -4.8530    -1.4560 H     1 <1>   0.0800 
 31 H       -1.8290    -3.9990    -1.1180 H     1 <1>   0.0800 
 32 H       -1.7850    -4.6620     0.5020 H     1 <1>   0.0800 
 33 H        3.6390     2.9880    -0.6450 H     1 <1>   0.1500 
 34 H        7.1240    -0.5920     0.3250 H     1 <1>   0.1500 
 35 H        5.7130     4.4420    -0.8240 H     1 <1>   0.2700 
 36 H        8.4850     4.0720    -0.5880 H     1 <1>   0.1500 
 37 H       10.1890     2.3510    -0.1200 H     1 <1>   0.1500 
 38 H        9.4180    -1.2300     0.5990 H     1 <1>   0.0800 
 39 H       10.4130     0.0300     1.2850 H     1 <1>   0.0800 
 40 H       10.5150    -0.3350    -0.4230 H     1 <1>   0.0800 
@<TRIPOS>BOND
  1   1   2  2   
  2   2   3  am  
  3   2   4  1   
  4   3   5  1   
  5   3  21  1   
  6   4   6  1   
  7   4   7  1   
  8   4  22  1   
  9   5   8  1   
 10   5  23  1   
 11   5  24  1   
 12   6   9  1   
 13   7  10  1   
 14   7  25  1   
 15   7  26  1   
 16   8  11  1   
 17   8  27  1   
 18   8  28  1   
 19   9  10  1   
 20   9  29  1   
 21   9  30  1   
 22  10  31  1   
 23  10  32  1   
 24  11  12  1   
 25  11  13  2   
 26  12  14  ar  
 27  12  15  ar  
 28  13  16  1   
 29  13  33  1   
 30  14  16  1   
 31  14  17  ar  
 32  15  18  ar  
 33  15  34  1   
 34  16  35  1   
 35  17  19  ar  
 36  17  36  1   
 37  18  19  ar  
 38  18  20  1   
 39  19  37  1   
 40  20  38  1   
 41  20  39  1   
 42  20  40  1   
@<TRIPOS>SUBSTRUCTURE
  1 ****   8 GROUP 4 **** **** 0

# MOE 2024.06 (io_trps.svl 2023.06)
