@<TRIPOS>MOLECULE
N-Cyclohexyl-2-(4-phenyl-5-pyridin-4-yl-4H-[1,2,4]triazol-3-ylsulfanyl)-acetamid
51 54 1 0 0 
SMALL
USER_CHARGES


@<TRIPOS>ATOM
  1 S       -0.3300     0.4380     0.7200 S.3   1 <1>  -0.2860 
  2 C        1.3760     0.9840     0.8370 C.2   1 <1>   0.2420 
  3 C       -1.2960     1.9520     1.2130 C.3   1 <1>   0.1310 
  4 N        1.7040     2.1780     1.1790 N.2   1 <1>  -0.3380 
  5 N        2.4150     0.1870     0.5670 N.pl3 1 <1>   0.3260 
  6 C       -2.7960     1.7050     1.1610 C.2   1 <1>   0.5690 
  7 N        3.0330     2.2110     1.1420 N.2   1 <1>  -0.3380 
  8 C        2.4090    -1.1550     0.0990 C.ar  1 <1>  -0.0230 
  9 C        3.4580     1.0280     0.7830 C.2   1 <1>   0.1330 
 10 O       -3.5230     2.4830     1.7290 O.2   1 <1>  -0.5700 
 11 N       -3.2820     0.6350     0.4790 N.am  1 <1>  -0.7300 
 12 C        1.8850    -2.1760     0.8850 C.ar  1 <1>  -0.1500 
 13 C        2.9400    -1.4700    -1.1470 C.ar  1 <1>  -0.1500 
 14 C        4.8520     0.6820     0.6270 C.ar  1 <1>   0.0530 
 15 C       -4.7000     0.2690     0.3480 C.3   1 <1>   0.2200 
 16 C        1.8970    -3.4840     0.4370 C.ar  1 <1>  -0.1500 
 17 C        2.9540    -2.7790    -1.5940 C.ar  1 <1>  -0.1500 
 18 C        5.7710     1.6050     0.1480 C.ar  1 <1>  -0.1500 
 19 C        5.3910    -0.5600     0.9360 C.ar  1 <1>  -0.1500 
 20 C       -4.9210    -1.0930     1.0130 C.3   1 <1>  -0.1600 
 21 C       -5.0650     0.2280    -1.1400 C.3   1 <1>  -0.1600 
 22 C        2.4320    -3.7870    -0.8030 C.ar  1 <1>  -0.1500 
 23 C        7.0990     1.2600    -0.0090 C.ar  1 <1>   0.1600 
 24 C        6.7360    -0.8090     0.7410 C.ar  1 <1>   0.1600 
 25 C       -6.3640    -1.5820     0.8120 C.3   1 <1>  -0.1600 
 26 C       -6.5070    -0.2580    -1.3440 C.3   1 <1>  -0.1600 
 27 N        7.6040     0.0700     0.2700 N.ar  1 <1>  -0.6200 
 28 C       -6.7330    -1.6210    -0.6770 C.3   1 <1>  -0.1600 
 29 H       -1.0250     2.7400     0.5360 H     1 <1>   0.0800 
 30 H       -0.9960     2.2110     2.2110 H     1 <1>   0.0800 
 31 H       -2.6210    -0.0130     0.0450 H     1 <1>   0.3700 
 32 H        1.4630    -1.9530     1.8510 H     1 <1>   0.1500 
 33 H        3.3490    -0.6950    -1.7730 H     1 <1>   0.1500 
 34 H       -5.3130     1.0060     0.8410 H     1 <1>   0.0800 
 35 H        1.4880    -4.2690     1.0500 H     1 <1>   0.1500 
 36 H        3.3690    -3.0160    -2.5590 H     1 <1>   0.1500 
 37 H        5.4460     2.5990    -0.1030 H     1 <1>   0.1500 
 38 H        4.7730    -1.3430     1.3350 H     1 <1>   0.1500 
 39 H       -4.7180    -1.0100     2.0660 H     1 <1>   0.0800 
 40 H       -4.2460    -1.8160     0.5900 H     1 <1>   0.0800 
 41 H       -4.3960    -0.4360    -1.6570 H     1 <1>   0.0800 
 42 H       -4.9590     1.2140    -1.5570 H     1 <1>   0.0800 
 43 H        2.4420    -4.8060    -1.1520 H     1 <1>   0.1500 
 44 H        7.7850     2.0010    -0.3850 H     1 <1>   0.1500 
 45 H        7.1230    -1.7840     0.9860 H     1 <1>   0.1500 
 46 H       -7.0380    -0.9200     1.3290 H     1 <1>   0.0800 
 47 H       -6.4750    -2.5640     1.2390 H     1 <1>   0.0800 
 48 H       -6.7180    -0.3310    -2.3980 H     1 <1>   0.0800 
 49 H       -7.1880     0.4620    -0.9220 H     1 <1>   0.0800 
 50 H       -7.7660    -1.9080    -0.7840 H     1 <1>   0.0800 
 51 H       -6.1330    -2.3650    -1.1730 H     1 <1>   0.0800 
@<TRIPOS>BOND
  1   1   2  1   
  2   1   3  1   
  3   2   4  2   
  4   2   5  1   
  5   3   6  1   
  6   3  29  1   
  7   3  30  1   
  8   4   7  1   
  9   5   8  1   
 10   5   9  1   
 11   6  10  2   
 12   6  11  am  
 13   7   9  2   
 14   8  12  ar  
 15   8  13  ar  
 16   9  14  1   
 17  11  15  1   
 18  11  31  1   
 19  12  16  ar  
 20  12  32  1   
 21  13  17  ar  
 22  13  33  1   
 23  14  18  ar  
 24  14  19  ar  
 25  15  20  1   
 26  15  21  1   
 27  15  34  1   
 28  16  22  ar  
 29  16  35  1   
 30  17  22  ar  
 31  17  36  1   
 32  18  23  ar  
 33  18  37  1   
 34  19  24  ar  
 35  19  38  1   
 36  20  25  1   
 37  20  39  1   
 38  20  40  1   
 39  21  26  1   
 40  21  41  1   
 41  21  42  1   
 42  22  43  1   
 43  23  27  ar  
 44  23  44  1   
 45  24  27  ar  
 46  24  45  1   
 47  25  28  1   
 48  25  46  1   
 49  25  47  1   
 50  26  28  1   
 51  26  48  1   
 52  26  49  1   
 53  28  50  1   
 54  28  51  1   
@<TRIPOS>SUBSTRUCTURE
  1 ****   1 GROUP 4 **** **** 0

# MOE 2024.06 (io_trps.svl 2023.06)
