@<TRIPOS>MOLECULE
4-(4-Chloro-phenyl)-6-morpholin-4-ylmethyl-2-oxo-1,2,3,4-tetrahydro-pyrimidine-5
45 47 1 0 0 
SMALL
USER_CHARGES


@<TRIPOS>ATOM
  1 CL      -0.6720    -0.4810    -1.9370 Cl    1 <1>  -0.1770 
  2 C       -2.0270    -1.1380    -1.0560 C.ar  1 <1>   0.1770 
  3 C       -2.1470    -0.8800     0.2960 C.ar  1 <1>  -0.1500 
  4 C       -2.9610    -1.9060    -1.7240 C.ar  1 <1>  -0.1500 
  5 C       -3.2240    -1.4020     0.9920 C.ar  1 <1>  -0.1500 
  6 C       -4.0360    -2.4250    -1.0220 C.ar  1 <1>  -0.1500 
  7 C       -4.1750    -2.1800     0.3400 C.ar  1 <1>  -0.1430 
  8 C       -5.3630    -2.7460     1.1170 C.3   1 <1>   0.5020 
  9 N       -5.3840    -4.2080     0.9090 N.am  1 <1>  -0.7300 
 10 C       -6.6650    -2.0680     0.6790 C.2   1 <1>  -0.1240 
 11 C       -6.3160    -4.8430     0.1790 C.2   1 <1>   0.6900 
 12 C       -7.6020    -2.7930     0.0070 C.2   1 <1>  -0.0290 
 13 C       -6.7060    -0.6890     1.0510 C.2   1 <1>   0.7060 
 14 O       -6.2040    -6.0190    -0.0780 O.2   1 <1>  -0.5700 
 15 N       -7.3770    -4.1290    -0.2640 N.am  1 <1>  -0.5390 
 16 C       -8.9530    -2.2720    -0.4980 C.3   1 <1>   0.2480 
 17 O       -6.0640    -0.2340     1.9780 O.2   1 <1>  -0.5700 
 18 O       -7.4820     0.1440     0.3480 O.3   1 <1>  -0.4300 
 19 N       -9.9950    -3.3160    -0.4220 N.3   1 <1>  -0.8100 
 20 C       -7.5430     1.5270     0.6390 C.3   1 <1>   0.0400 
 21 C      -10.3650    -3.6130     0.9800 C.3   1 <1>   0.1100 
 22 C      -11.2010    -2.9150    -1.1700 C.3   1 <1>   0.1100 
 23 C      -11.5020    -4.6490     1.0450 C.3   1 <1>   0.1200 
 24 C      -12.3120    -3.9730    -1.0400 C.3   1 <1>   0.1200 
 25 O      -12.6060    -4.2100     0.3070 O.3   1 <1>  -0.5600 
 26 H       -1.4080    -0.2770     0.7920 H     1 <1>   0.1500 
 27 H       -2.8470    -2.0930    -2.7760 H     1 <1>   0.1500 
 28 H       -3.3210    -1.1910     2.0440 H     1 <1>   0.1500 
 29 H       -4.7660    -3.0230    -1.5430 H     1 <1>   0.1500 
 30 H       -5.2200    -2.5760     2.1710 H     1 <1>   0.0800 
 31 H       -4.5170    -4.7100     1.0820 H     1 <1>   0.3700 
 32 H       -8.1340    -4.6650    -0.6990 H     1 <1>   0.3700 
 33 H       -8.8280    -1.9770    -1.5260 H     1 <1>   0.0800 
 34 H       -9.2750    -1.4120     0.0610 H     1 <1>   0.0800 
 35 H       -8.2200     1.9930    -0.0540 H     1 <1>   0.0800 
 36 H       -6.5580     1.9490     0.5330 H     1 <1>   0.0800 
 37 H       -7.8950     1.6580     1.6470 H     1 <1>   0.0800 
 38 H      -10.6880    -2.7140     1.4770 H     1 <1>   0.0800 
 39 H       -9.5120    -4.0020     1.5090 H     1 <1>   0.0800 
 40 H      -10.9550    -2.7940    -2.2110 H     1 <1>   0.0800 
 41 H      -11.5730    -1.9740    -0.7990 H     1 <1>   0.0800 
 42 H      -11.8210    -4.7910     2.0620 H     1 <1>   0.0800 
 43 H      -11.1740    -5.5940     0.6480 H     1 <1>   0.0800 
 44 H      -12.0060    -4.8990    -1.4950 H     1 <1>   0.0800 
 45 H      -13.2130    -3.6310    -1.5180 H     1 <1>   0.0800 
@<TRIPOS>BOND
  1   1   2  1   
  2   2   3  ar  
  3   2   4  ar  
  4   3   5  ar  
  5   3  26  1   
  6   4   6  ar  
  7   4  27  1   
  8   5   7  ar  
  9   5  28  1   
 10   6   7  ar  
 11   6  29  1   
 12   7   8  1   
 13   8   9  1   
 14   8  10  1   
 15   8  30  1   
 16   9  11  am  
 17   9  31  1   
 18  10  12  2   
 19  10  13  1   
 20  11  14  2   
 21  11  15  am  
 22  12  15  1   
 23  12  16  1   
 24  13  17  2   
 25  13  18  1   
 26  15  32  1   
 27  16  19  1   
 28  16  33  1   
 29  16  34  1   
 30  18  20  1   
 31  19  21  1   
 32  19  22  1   
 33  20  35  1   
 34  20  36  1   
 35  20  37  1   
 36  21  23  1   
 37  21  38  1   
 38  21  39  1   
 39  22  24  1   
 40  22  40  1   
 41  22  41  1   
 42  23  25  1   
 43  23  42  1   
 44  23  43  1   
 45  24  25  1   
 46  24  44  1   
 47  24  45  1   
@<TRIPOS>SUBSTRUCTURE
  1 ****  10 GROUP 4 **** **** 0

# MOE 2024.06 (io_trps.svl 2023.06)
