@<TRIPOS>MOLECULE
1-{2-[2-Methyl-4-(pyrrolidine-1-sulfonyl)-phenoxy]-acetyl}-piperidine-4-carboxyl
55 57 1 0 0 
SMALL
USER_CHARGES


@<TRIPOS>ATOM
  1 S       -0.3650     0.3210    -1.3140 S.o2  1 <1>   1.4470 
  2 O       -0.9680     1.4750    -1.9440 O.2   1 <1>  -0.6500 
  3 O       -0.9050    -0.9950    -1.5910 O.2   1 <1>  -0.6500 
  4 N       -0.4910     0.5610     0.3570 N.am  1 <1>  -0.8490 
  5 C        1.4290     0.3350    -1.5880 C.ar  1 <1>  -0.0090 
  6 C       -1.8550     0.7990     0.7910 C.3   1 <1>   0.1960 
  7 C       -0.0120    -0.5480     1.1660 C.3   1 <1>   0.1960 
  8 C        2.2110     1.3880    -1.1250 C.ar  1 <1>  -0.1500 
  9 C        2.0660    -0.7020    -2.2590 C.ar  1 <1>  -0.1500 
 10 C       -1.8170     0.5940     2.3010 C.3   1 <1>  -0.1600 
 11 C       -0.5820    -0.2730     2.5520 C.3   1 <1>  -0.1600 
 12 C        3.5850     1.4130    -1.3040 C.ar  1 <1>  -0.1430 
 13 C        3.4360    -0.6960    -2.4480 C.ar  1 <1>  -0.1500 
 14 C        4.1990     0.3540    -1.9610 C.ar  1 <1>   0.0830 
 15 C        4.3950     2.5850    -0.7710 C.3   1 <1>  -0.0970 
 16 O        5.5380     0.3540    -2.1430 O.3   1 <1>  -0.3630 
 17 C        6.2870    -0.6540    -1.4770 C.3   1 <1>   0.1810 
 18 C        6.5630    -0.2910    -0.0180 C.2   1 <1>   0.5690 
 19 O        6.0500    -0.9890     0.8270 O.2   1 <1>  -0.5700 
 20 N        7.3890     0.7590     0.3220 N.am  1 <1>  -0.6600 
 21 C        7.6780     1.0870     1.7460 C.3   1 <1>   0.1400 
 22 C        8.0410     1.6780    -0.6520 C.3   1 <1>   0.1400 
 23 C        9.1890     1.0300     1.9810 C.3   1 <1>  -0.1600 
 24 C        9.5580     1.6270    -0.4550 C.3   1 <1>  -0.1600 
 25 C        9.9480     1.9480     1.0010 C.3   1 <1>  -0.0190 
 26 C       11.4590     1.8840     1.2020 C.2   1 <1>   0.5690 
 27 O       12.0730     2.8950     1.4210 O.2   1 <1>  -0.5700 
 28 N       12.1070     0.7070     1.1300 N.am  1 <1>  -0.8000 
 29 H       -2.5150     0.0750     0.3390 H     1 <1>   0.0800 
 30 H       -2.1750     1.7930     0.5240 H     1 <1>   0.0800 
 31 H        1.0650    -0.5870     1.1760 H     1 <1>   0.0800 
 32 H       -0.4040    -1.4810     0.7950 H     1 <1>   0.0800 
 33 H        1.7230     2.1980    -0.6090 H     1 <1>   0.1500 
 34 H        1.4820    -1.5250    -2.6370 H     1 <1>   0.1500 
 35 H       -2.7210     0.1190     2.6410 H     1 <1>   0.0800 
 36 H       -1.7120     1.5440     2.7930 H     1 <1>   0.0800 
 37 H        0.1400     0.2690     3.1360 H     1 <1>   0.0800 
 38 H       -0.8250    -1.1920     3.0550 H     1 <1>   0.0800 
 39 H        3.9090    -1.5030    -2.9780 H     1 <1>   0.1500 
 40 H        3.7570     3.4160    -0.5310 H     1 <1>   0.0800 
 41 H        5.1090     2.9070    -1.5080 H     1 <1>   0.0800 
 42 H        4.9210     2.2860     0.1180 H     1 <1>   0.0800 
 43 H        7.2170    -0.7700    -1.9990 H     1 <1>   0.0800 
 44 H        5.7510    -1.5830    -1.5230 H     1 <1>   0.0800 
 45 H        7.1850     0.3940     2.4070 H     1 <1>   0.0800 
 46 H        7.3060     2.0740     1.9630 H     1 <1>   0.0800 
 47 H        7.6840     2.6800    -0.4790 H     1 <1>   0.0800 
 48 H        7.8010     1.4170    -1.6670 H     1 <1>   0.0800 
 49 H        9.5110     0.0100     1.8680 H     1 <1>   0.0800 
 50 H        9.4000     1.3310     2.9920 H     1 <1>   0.0800 
 51 H       10.0240     2.3400    -1.1140 H     1 <1>   0.0800 
 52 H        9.9110     0.6490    -0.7280 H     1 <1>   0.0800 
 53 H        9.6480     2.9610     1.2050 H     1 <1>   0.0800 
 54 H       13.1180     0.6860     1.2710 H     1 <1>   0.3700 
 55 H       11.6470    -0.1860     0.9610 H     1 <1>   0.3700 
@<TRIPOS>BOND
  1   1   2  2   
  2   1   3  2   
  3   1   4  am  
  4   1   5  1   
  5   4   6  1   
  6   4   7  1   
  7   5   8  ar  
  8   5   9  ar  
  9   6  10  1   
 10   6  29  1   
 11   6  30  1   
 12   7  11  1   
 13   7  31  1   
 14   7  32  1   
 15   8  12  ar  
 16   8  33  1   
 17   9  13  ar  
 18   9  34  1   
 19  10  11  1   
 20  10  35  1   
 21  10  36  1   
 22  11  37  1   
 23  11  38  1   
 24  12  14  ar  
 25  12  15  1   
 26  13  14  ar  
 27  13  39  1   
 28  14  16  1   
 29  15  40  1   
 30  15  41  1   
 31  15  42  1   
 32  16  17  1   
 33  17  18  1   
 34  17  43  1   
 35  17  44  1   
 36  18  19  2   
 37  18  20  am  
 38  20  21  1   
 39  20  22  1   
 40  21  23  1   
 41  21  45  1   
 42  21  46  1   
 43  22  24  1   
 44  22  47  1   
 45  22  48  1   
 46  23  25  1   
 47  23  49  1   
 48  23  50  1   
 49  24  25  1   
 50  24  51  1   
 51  24  52  1   
 52  25  26  1   
 53  25  53  1   
 54  26  27  2   
 55  26  28  am  
 56  28  54  1   
 57  28  55  1   
@<TRIPOS>SUBSTRUCTURE
  1 ****  12 GROUP 4 **** **** 0

# MOE 2024.06 (io_trps.svl 2023.06)
