@<TRIPOS>MOLECULE
1-(4-Ethoxy-3-methyl-benzenesulfonyl)-piperidine-4-carboxylic acid (2,6-difluoro
54 56 1 0 0 
SMALL
USER_CHARGES


@<TRIPOS>ATOM
  1 S        0.1630    -0.3040    -2.6990 S.o2  1 <1>   1.4470 
  2 O        0.5940    -1.4230    -3.5080 O.2   1 <1>  -0.6500 
  3 O       -0.2770     0.9110    -3.3520 O.2   1 <1>  -0.6500 
  4 N        1.4740     0.1340    -1.7150 N.am  1 <1>  -0.8490 
  5 C       -1.0790    -0.8700    -1.5040 C.ar  1 <1>  -0.0090 
  6 C        1.1910     1.3410    -0.9320 C.3   1 <1>   0.1960 
  7 C        2.7050     0.2700    -2.4970 C.3   1 <1>   0.1960 
  8 C       -2.3750    -0.3680    -1.5160 C.ar  1 <1>  -0.1500 
  9 C       -0.7620    -1.8210    -0.5420 C.ar  1 <1>  -0.1500 
 10 C        2.3290     1.6080     0.0540 C.3   1 <1>  -0.1600 
 11 C        3.8980     0.5150    -1.5690 C.3   1 <1>  -0.1600 
 12 C       -3.3280    -0.7870    -0.6010 C.ar  1 <1>  -0.1430 
 13 C       -1.6990    -2.2530     0.3790 C.ar  1 <1>  -0.1500 
 14 C        3.6760     1.7470    -0.6770 C.3   1 <1>  -0.0190 
 15 C       -2.9910    -1.7370     0.3570 C.ar  1 <1>   0.0830 
 16 C       -4.7340    -0.2070    -0.6540 C.3   1 <1>  -0.0970 
 17 C        4.8350     1.9450     0.2990 C.2   1 <1>   0.5690 
 18 O       -3.9540    -2.1180     1.2350 O.3   1 <1>  -0.3630 
 19 O        4.9730     1.1770     1.2190 O.2   1 <1>  -0.5700 
 20 N        5.6980     2.9770     0.0700 N.am  1 <1>  -0.5470 
 21 C       -3.7180    -3.0910     2.2250 C.3   1 <1>   0.1200 
 22 C        6.8050     3.3510     0.8660 C.ar  1 <1>   0.1170 
 23 C       -5.0080    -3.2790     3.0190 C.3   1 <1>  -0.2400 
 24 C        6.7170     3.6430     2.2280 C.ar  1 <1>   0.1900 
 25 C        8.0790     3.4650     0.3140 C.ar  1 <1>   0.1900 
 26 F        5.5490     3.6250     2.8210 F     1 <1>  -0.1900 
 27 C        7.8150     3.9880     2.9980 C.ar  1 <1>  -0.1500 
 28 F        8.2340     3.2400    -0.9680 F     1 <1>  -0.1900 
 29 C        9.1990     3.8110     1.0500 C.ar  1 <1>  -0.1500 
 30 C        9.0660     4.0700     2.4060 C.ar  1 <1>  -0.1500 
 31 H        0.2760     1.2110    -0.3780 H     1 <1>   0.0800 
 32 H        1.0690     2.1870    -1.5890 H     1 <1>   0.0800 
 33 H        2.6020     1.0810    -3.2000 H     1 <1>   0.0800 
 34 H        2.8850    -0.6350    -3.0530 H     1 <1>   0.0800 
 35 H       -2.6380     0.3670    -2.2590 H     1 <1>   0.1500 
 36 H        0.2370    -2.2250    -0.5180 H     1 <1>   0.1500 
 37 H        2.3750     0.7940     0.7570 H     1 <1>   0.0800 
 38 H        2.1220     2.5060     0.6080 H     1 <1>   0.0800 
 39 H        4.7870     0.6460    -2.1600 H     1 <1>   0.0800 
 40 H        4.0410    -0.3570    -0.9540 H     1 <1>   0.0800 
 41 H       -1.4020    -2.9890     1.1020 H     1 <1>   0.1500 
 42 H        3.6160     2.6130    -1.3110 H     1 <1>   0.0800 
 43 H       -4.8320     0.5120    -1.4470 H     1 <1>   0.0800 
 44 H       -4.9620     0.2770     0.2790 H     1 <1>   0.0800 
 45 H       -5.4460    -0.9960    -0.8140 H     1 <1>   0.0800 
 46 H        5.6510     3.4170    -0.8480 H     1 <1>   0.3700 
 47 H       -2.9260    -2.7420     2.8640 H     1 <1>   0.0800 
 48 H       -3.4330    -4.0090     1.7400 H     1 <1>   0.0800 
 49 H       -5.2930    -2.3530     3.4860 H     1 <1>   0.0800 
 50 H       -4.8600    -4.0190     3.7850 H     1 <1>   0.0800 
 51 H       -5.7970    -3.6120     2.3680 H     1 <1>   0.0800 
 52 H        7.6870     4.1930     4.0470 H     1 <1>   0.1500 
 53 H       10.1590     3.8750     0.5690 H     1 <1>   0.1500 
 54 H        9.9280     4.3350     2.9950 H     1 <1>   0.1500 
@<TRIPOS>BOND
  1   1   2  2   
  2   1   3  2   
  3   1   4  am  
  4   1   5  1   
  5   4   6  1   
  6   4   7  1   
  7   5   8  ar  
  8   5   9  ar  
  9   6  10  1   
 10   6  31  1   
 11   6  32  1   
 12   7  11  1   
 13   7  33  1   
 14   7  34  1   
 15   8  12  ar  
 16   8  35  1   
 17   9  13  ar  
 18   9  36  1   
 19  10  14  1   
 20  10  37  1   
 21  10  38  1   
 22  11  14  1   
 23  11  39  1   
 24  11  40  1   
 25  12  15  ar  
 26  12  16  1   
 27  13  15  ar  
 28  13  41  1   
 29  14  17  1   
 30  14  42  1   
 31  15  18  1   
 32  16  43  1   
 33  16  44  1   
 34  16  45  1   
 35  17  19  2   
 36  17  20  am  
 37  18  21  1   
 38  20  22  1   
 39  20  46  1   
 40  21  23  1   
 41  21  47  1   
 42  21  48  1   
 43  22  24  ar  
 44  22  25  ar  
 45  23  49  1   
 46  23  50  1   
 47  23  51  1   
 48  24  26  1   
 49  24  27  ar  
 50  25  28  1   
 51  25  29  ar  
 52  27  30  ar  
 53  27  52  1   
 54  29  30  ar  
 55  29  53  1   
 56  30  54  1   
@<TRIPOS>SUBSTRUCTURE
  1 ****  10 GROUP 4 **** **** 0

# MOE 2024.06 (io_trps.svl 2023.06)
