@<TRIPOS>MOLECULE
4-(3,4-Dihydro-1H-isoquinolin-2-ylmethyl)-N-(3-imidazol-1-yl-propyl)-benzamide
55 58 1 0 0 
SMALL
USER_CHARGES


@<TRIPOS>ATOM
  1 O        0.0640     0.7920     0.5600 O.2   1 <1>  -0.5700 
  2 C       -0.1830     1.7320    -0.1680 C.2   1 <1>   0.5440 
  3 N        0.7150     2.0600    -1.1460 N.am  1 <1>  -0.7300 
  4 C       -1.4030     2.4990     0.0140 C.ar  1 <1>   0.0860 
  5 C        1.9790     1.3370    -1.3970 C.3   1 <1>   0.1400 
  6 C       -2.0840     3.0780    -1.0570 C.ar  1 <1>  -0.1500 
  7 C       -1.9460     2.6760     1.2850 C.ar  1 <1>  -0.1500 
  8 C        3.1140     2.0640    -0.6790 C.3   1 <1>  -0.1600 
  9 C       -3.2530     3.7930    -0.8690 C.ar  1 <1>  -0.1500 
 10 C       -3.1130     3.3900     1.4830 C.ar  1 <1>  -0.1500 
 11 C        4.4180     1.2660    -0.7760 C.3   1 <1>   0.0960 
 12 C       -3.7820     3.9460     0.4040 C.ar  1 <1>  -0.1430 
 13 N        5.5140     1.9930    -0.1080 N.pl3 1 <1>   0.0480 
 14 C       -5.0830     4.6970     0.6180 C.3   1 <1>   0.4860 
 15 C        5.8260     1.9980     1.2070 C.2   1 <1>   0.0360 
 16 C        6.4240     2.8050    -0.6760 C.2   1 <1>  -0.3020 
 17 N       -6.2050     3.8380     0.1600 N.4   1 <1>  -0.9590 
 18 N        6.8460     2.7360     1.5050 N.2   1 <1>  -0.5650 
 19 C        7.2240     3.2460     0.3180 C.2   1 <1>   0.0770 
 20 C       -7.5040     4.5620     0.1690 C.3   1 <1>   0.4860 
 21 C       -6.3180     2.5620     0.9310 C.3   1 <1>   0.3430 
 22 C       -8.6040     3.6640    -0.3730 C.ar  1 <1>  -0.1430 
 23 C       -7.2490     1.5920     0.2000 C.3   1 <1>  -0.0170 
 24 C       -8.4930     2.2770    -0.3480 C.ar  1 <1>  -0.1430 
 25 C       -9.7480     4.2500    -0.8960 C.ar  1 <1>  -0.1500 
 26 C       -9.5250     1.4960    -0.8430 C.ar  1 <1>  -0.1500 
 27 C      -10.7740     3.4640    -1.3880 C.ar  1 <1>  -0.1500 
 28 C      -10.6630     2.0870    -1.3610 C.ar  1 <1>  -0.1500 
 29 H        0.6000     2.9390    -1.6530 H     1 <1>   0.3700 
 30 H        2.1640     1.2940    -2.4570 H     1 <1>   0.0800 
 31 H        1.8940     0.3280    -1.0270 H     1 <1>   0.0800 
 32 H       -1.6950     2.9560    -2.0540 H     1 <1>   0.1500 
 33 H       -1.4340     2.2400     2.1280 H     1 <1>   0.1500 
 34 H        2.8530     2.1790     0.3590 H     1 <1>   0.0800 
 35 H        3.2530     3.0360    -1.1190 H     1 <1>   0.0800 
 36 H       -3.7410     4.2230    -1.7280 H     1 <1>   0.1500 
 37 H       -3.4870     3.5000     2.4880 H     1 <1>   0.1500 
 38 H        4.6870     1.1110    -1.8050 H     1 <1>   0.0800 
 39 H        4.3030     0.3070    -0.3010 H     1 <1>   0.0800 
 40 H       -5.0600     5.6140     0.0510 H     1 <1>   0.0800 
 41 H       -5.1990     4.9420     1.6610 H     1 <1>   0.0800 
 42 H        5.2620     1.4310     1.9280 H     1 <1>   0.1500 
 43 H        6.4560     3.0220    -1.7280 H     1 <1>   0.1500 
 44 H       -6.0240     3.5720    -0.8150 H     1 <1>   0.4500 
 45 H        8.0660     3.9140     0.2430 H     1 <1>   0.1500 
 46 H       -7.4380     5.4470    -0.4420 H     1 <1>   0.0800 
 47 H       -7.7570     4.8580     1.1740 H     1 <1>   0.0800 
 48 H       -6.7150     2.7660     1.9120 H     1 <1>   0.0800 
 49 H       -5.3510     2.0980     1.0440 H     1 <1>   0.0800 
 50 H       -7.5350     0.8060     0.8780 H     1 <1>   0.0800 
 51 H       -6.7130     1.1350    -0.6130 H     1 <1>   0.0800 
 52 H       -9.8610     5.3210    -0.9260 H     1 <1>   0.1500 
 53 H       -9.4540     0.4210    -0.8320 H     1 <1>   0.1500 
 54 H      -11.6610     3.9210    -1.7930 H     1 <1>   0.1500 
 55 H      -11.4620     1.4750    -1.7450 H     1 <1>   0.1500 
@<TRIPOS>BOND
  1   1   2  2   
  2   2   3  am  
  3   2   4  1   
  4   3   5  1   
  5   3  29  1   
  6   4   6  ar  
  7   4   7  ar  
  8   5   8  1   
  9   5  30  1   
 10   5  31  1   
 11   6   9  ar  
 12   6  32  1   
 13   7  10  ar  
 14   7  33  1   
 15   8  11  1   
 16   8  34  1   
 17   8  35  1   
 18   9  12  ar  
 19   9  36  1   
 20  10  12  ar  
 21  10  37  1   
 22  11  13  1   
 23  11  38  1   
 24  11  39  1   
 25  12  14  1   
 26  13  15  1   
 27  13  16  1   
 28  14  17  1   
 29  14  40  1   
 30  14  41  1   
 31  15  18  2   
 32  15  42  1   
 33  16  19  2   
 34  16  43  1   
 35  17  20  1   
 36  17  21  1   
 37  17  44  1   
 38  18  19  1   
 39  19  45  1   
 40  20  22  1   
 41  20  46  1   
 42  20  47  1   
 43  21  23  1   
 44  21  48  1   
 45  21  49  1   
 46  22  24  ar  
 47  22  25  ar  
 48  23  24  1   
 49  23  50  1   
 50  23  51  1   
 51  24  26  ar  
 52  25  27  ar  
 53  25  52  1   
 54  26  28  ar  
 55  26  53  1   
 56  27  28  ar  
 57  27  54  1   
 58  28  55  1   
@<TRIPOS>SUBSTRUCTURE
  1 ****   4 GROUP 4 **** **** 0

# MOE 2024.06 (io_trps.svl 2023.06)
