@<TRIPOS>MOLECULE
Thiophene-2-sulfonic acid cycloheptylamide
33 34 1 0 0 
SMALL
USER_CHARGES


@<TRIPOS>ATOM
  1 S       -0.3080    -0.6040    -0.3560 S.o2  1 <1>   1.5000 
  2 O       -0.4510    -1.3580    -1.5790 O.2   1 <1>  -0.6500 
  3 O       -0.2680    -1.2810     0.9210 O.2   1 <1>  -0.6500 
  4 N        1.1500     0.2000    -0.5610 N.am  1 <1>  -0.9140 
  5 C       -1.4980     0.7570    -0.2910 C.2   1 <1>  -0.0220 
  6 C        2.3060    -0.3980     0.0780 C.3   1 <1>   0.2760 
  7 S       -3.0560     0.5400    -1.0860 S.3   1 <1>  -0.0800 
  8 C       -1.4620     1.9760     0.2900 C.2   1 <1>  -0.1500 
  9 C        3.3700     0.7040     0.1470 C.3   1 <1>  -0.1600 
 10 C        2.7570    -1.6470    -0.7020 C.3   1 <1>  -0.1600 
 11 C       -3.6000     2.1350    -0.6000 C.2   1 <1>  -0.1100 
 12 C       -2.6470     2.7580     0.1140 C.2   1 <1>  -0.1500 
 13 C        4.7200     0.2860     0.7550 C.3   1 <1>  -0.1600 
 14 C        3.7740    -2.4910     0.0820 C.3   1 <1>  -0.1600 
 15 C        5.5460    -0.5890    -0.1980 C.3   1 <1>  -0.1600 
 16 C        5.2430    -2.0920    -0.1200 C.3   1 <1>  -0.1600 
 17 H        1.3080     0.1510    -1.5640 H     1 <1>   0.4200 
 18 H        2.0560    -0.6750     1.0900 H     1 <1>   0.0800 
 19 H       -0.6260     2.3610     0.8490 H     1 <1>   0.1500 
 20 H        2.9720     1.4990     0.7550 H     1 <1>   0.0800 
 21 H        3.5390     1.1060    -0.8360 H     1 <1>   0.0800 
 22 H        3.1550    -1.3780    -1.6640 H     1 <1>   0.0800 
 23 H        1.9050    -2.2830    -0.8670 H     1 <1>   0.0800 
 24 H       -4.5860     2.4380    -0.9050 H     1 <1>   0.1500 
 25 H       -2.7250     3.7470     0.5330 H     1 <1>   0.1500 
 26 H        4.5800    -0.2060     1.7030 H     1 <1>   0.0800 
 27 H        5.2810     1.1850     0.9440 H     1 <1>   0.0800 
 28 H        3.6720    -3.5200    -0.2200 H     1 <1>   0.0800 
 29 H        3.5330    -2.4570     1.1310 H     1 <1>   0.0800 
 30 H        6.5900    -0.4530     0.0290 H     1 <1>   0.0800 
 31 H        5.4070    -0.2470    -1.2100 H     1 <1>   0.0800 
 32 H        5.6040    -2.5490    -1.0260 H     1 <1>   0.0800 
 33 H        5.8130    -2.5170     0.6890 H     1 <1>   0.0800 
@<TRIPOS>BOND
  1   1   2  2   
  2   1   3  2   
  3   1   4  am  
  4   1   5  1   
  5   4   6  1   
  6   4  17  1   
  7   5   7  1   
  8   5   8  2   
  9   6   9  1   
 10   6  10  1   
 11   6  18  1   
 12   7  11  1   
 13   8  12  1   
 14   8  19  1   
 15   9  13  1   
 16   9  20  1   
 17   9  21  1   
 18  10  14  1   
 19  10  22  1   
 20  10  23  1   
 21  11  12  2   
 22  11  24  1   
 23  12  25  1   
 24  13  15  1   
 25  13  26  1   
 26  13  27  1   
 27  14  16  1   
 28  14  28  1   
 29  14  29  1   
 30  15  16  1   
 31  15  30  1   
 32  15  31  1   
 33  16  32  1   
 34  16  33  1   
@<TRIPOS>SUBSTRUCTURE
  1 ****   4 GROUP 4 **** **** 0

# MOE 2024.06 (io_trps.svl 2023.06)
