@<TRIPOS>MOLECULE
2-(5,6-Dihydro-4H-pyran-3-ylsulfanyl)-pyridine 1-oxide
25 26 1 0 0 
SMALL
USER_CHARGES


@<TRIPOS>ATOM
  1 S       -2.6020     1.3720     1.6400 S.3   1 <1>  -0.2020 
  2 C       -1.3040     2.3970     0.9200 C.ar  1 <1>   0.1910 
  3 C       -2.4850    -0.2070     0.7850 C.2   1 <1>  -0.0370 
  4 N       -1.1020     2.4270    -0.4440 N.ar  1 <1>   0.5710 
  5 C       -0.5300     3.1450     1.7840 C.ar  1 <1>  -0.1500 
  6 C       -1.4260    -1.0180     0.9130 C.2   1 <1>  -0.0730 
  7 C       -3.6850    -0.5170    -0.0840 C.3   1 <1>  -0.0220 
  8 O       -1.8460     1.8370    -1.2870 O.2   1 <1>  -0.7500 
  9 C       -0.0820     3.1930    -0.9250 C.ar  1 <1>  -0.0600 
 10 C        0.4980     3.9290     1.2800 C.ar  1 <1>  -0.1500 
 11 O       -1.3330    -2.2140     0.2790 O.3   1 <1>  -0.3570 
 12 C       -3.3280    -1.6840    -1.0160 C.3   1 <1>  -0.1600 
 13 C        0.7210     3.9440    -0.0920 C.ar  1 <1>  -0.1500 
 14 C       -2.5200    -2.7630    -0.2740 C.3   1 <1>   0.1200 
 15 H       -0.7210     3.1130     2.8420 H     1 <1>   0.1500 
 16 H       -0.5660    -0.7980     1.5190 H     1 <1>   0.1500 
 17 H       -3.9510     0.3440    -0.6700 H     1 <1>   0.0800 
 18 H       -4.5160    -0.7780     0.5470 H     1 <1>   0.0800 
 19 H        0.0490     3.1820    -1.9900 H     1 <1>   0.1500 
 20 H        1.1150     4.5160     1.9420 H     1 <1>   0.1500 
 21 H       -2.7300    -1.3130    -1.8310 H     1 <1>   0.0800 
 22 H       -4.2240    -2.1100    -1.4290 H     1 <1>   0.0800 
 23 H        1.5190     4.5430    -0.4990 H     1 <1>   0.1500 
 24 H       -3.0960    -3.1780     0.5350 H     1 <1>   0.0800 
 25 H       -2.2320    -3.5530    -0.9440 H     1 <1>   0.0800 
@<TRIPOS>BOND
  1   1   2  1   
  2   1   3  1   
  3   2   4  ar  
  4   2   5  ar  
  5   3   6  2   
  6   3   7  1   
  7   4   8  2   
  8   4   9  ar  
  9   5  10  ar  
 10   5  15  1   
 11   6  11  1   
 12   6  16  1   
 13   7  12  1   
 14   7  17  1   
 15   7  18  1   
 16   9  13  ar  
 17   9  19  1   
 18  10  13  ar  
 19  10  20  1   
 20  11  14  1   
 21  12  14  1   
 22  12  21  1   
 23  12  22  1   
 24  13  23  1   
 25  14  24  1   
 26  14  25  1   
@<TRIPOS>SUBSTRUCTURE
  1 ****   2 GROUP 4 **** **** 0

# MOE 2024.06 (io_trps.svl 2023.06)
