@<TRIPOS>MOLECULE
3,6-Dihydroxy-6-methyl-4-phenyl-4,5,6,7-tetrahydro-1H-indazole-5-carboxylic acid
40 42 1 0 0 
SMALL
USER_CHARGES


@<TRIPOS>ATOM
  1 O       -0.5880     1.4240     1.6050 O.2   1 <1>  -0.5700 
  2 C       -0.0010     1.5720     0.5640 C.2   1 <1>   0.6590 
  3 O       -0.5530     1.2420    -0.6000 O.3   1 <1>  -0.4300 
  4 C        1.4040     2.1400     0.5450 C.3   1 <1>  -0.0190 
  5 C       -1.8530     0.6980    -0.6770 C.3   1 <1>   0.0400 
  6 C        1.4330     3.6750     0.3070 C.3   1 <1>   0.2800 
  7 C        2.2970     1.3720    -0.4540 C.3   1 <1>   0.2440 
  8 O        1.0090     3.9170    -0.9850 O.3   1 <1>  -0.6800 
  9 C        2.8710     4.2420     0.4590 C.3   1 <1>   0.0200 
 10 C        0.4690     4.4490     1.2140 C.3   1 <1>  -0.2400 
 11 C        2.4310    -0.1050    -0.0850 C.ar  1 <1>  -0.1440 
 12 C        3.6600     2.0360    -0.5200 C.2   1 <1>  -0.1810 
 13 C        3.9070     3.3000    -0.1330 C.2   1 <1>  -0.3320 
 14 C        1.8220    -1.0740    -0.8700 C.ar  1 <1>  -0.1500 
 15 C        3.1710    -0.5000     1.0210 C.ar  1 <1>  -0.1500 
 16 C        4.8900     1.5700    -0.9680 C.2   1 <1>   0.3510 
 17 N        5.2200     3.5340    -0.3620 N.pl3 1 <1>   0.3000 
 18 C        1.9520    -2.4150    -0.5570 C.ar  1 <1>  -0.1500 
 19 C        3.3030    -1.8410     1.3350 C.ar  1 <1>  -0.1500 
 20 O        5.1140     0.3250    -1.4170 O.3   1 <1>  -0.5120 
 21 N        5.8340     2.4470    -0.8810 N.2   1 <1>  -0.7070 
 22 C        2.6930    -2.8000     0.5460 C.ar  1 <1>  -0.1500 
 23 H        1.8070     1.9730     1.5260 H     1 <1>   0.0800 
 24 H       -2.0870     0.5180    -1.7110 H     1 <1>   0.0800 
 25 H       -2.5500     1.4030    -0.2560 H     1 <1>   0.0800 
 26 H       -1.8770    -0.2240    -0.1220 H     1 <1>   0.0800 
 27 H        1.8710     1.4510    -1.4400 H     1 <1>   0.0800 
 28 H        0.9780     4.8750    -1.1600 H     1 <1>   0.4000 
 29 H        3.0940     4.3540     1.5050 H     1 <1>   0.0800 
 30 H        2.9370     5.2130     0.0010 H     1 <1>   0.0800 
 31 H        0.6780     4.2310     2.2460 H     1 <1>   0.0800 
 32 H       -0.5530     4.1740     1.0180 H     1 <1>   0.0800 
 33 H        0.5730     5.5090     1.0680 H     1 <1>   0.0800 
 34 H        1.2390    -0.7900    -1.7300 H     1 <1>   0.1500 
 35 H        3.6570     0.2340     1.6430 H     1 <1>   0.1500 
 36 H        5.7310     4.4060    -0.1800 H     1 <1>   0.2700 
 37 H        1.4750    -3.1600    -1.1700 H     1 <1>   0.1500 
 38 H        3.8800    -2.1390     2.1930 H     1 <1>   0.1500 
 39 H        4.3930    -0.2560    -1.1110 H     1 <1>   0.4500 
 40 H        2.7950    -3.8430     0.7900 H     1 <1>   0.1500 
@<TRIPOS>BOND
  1   1   2  2   
  2   2   3  1   
  3   2   4  1   
  4   3   5  1   
  5   4   6  1   
  6   4   7  1   
  7   4  23  1   
  8   5  24  1   
  9   5  25  1   
 10   5  26  1   
 11   6   8  1   
 12   6   9  1   
 13   6  10  1   
 14   7  11  1   
 15   7  12  1   
 16   7  27  1   
 17   8  28  1   
 18   9  13  1   
 19   9  29  1   
 20   9  30  1   
 21  10  31  1   
 22  10  32  1   
 23  10  33  1   
 24  11  14  ar  
 25  11  15  ar  
 26  12  13  2   
 27  12  16  1   
 28  13  17  1   
 29  14  18  ar  
 30  14  34  1   
 31  15  19  ar  
 32  15  35  1   
 33  16  20  1   
 34  16  21  2   
 35  17  21  1   
 36  17  36  1   
 37  18  22  ar  
 38  18  37  1   
 39  19  22  ar  
 40  19  38  1   
 41  20  39  1   
 42  22  40  1   
@<TRIPOS>SUBSTRUCTURE
  1 ****   7 GROUP 4 **** **** 0

# MOE 2024.06 (io_trps.svl 2023.06)
