@<TRIPOS>MOLECULE
N-{1-[3-(4-tert-Butyl-phenyl)-[1,2,4]oxadiazol-5-yl]-ethyl}-propionamide
45 46 1 0 0 
SMALL
USER_CHARGES


@<TRIPOS>ATOM
  1 O       -1.7820    -0.4090    -1.9300 O.2   1 <1>  -0.5700 
  2 C       -2.3080    -0.5450    -0.8560 C.2   1 <1>   0.5690 
  3 N       -3.6560    -0.5710    -0.7890 N.am  1 <1>  -0.7300 
  4 C       -1.4630    -0.6840     0.4070 C.3   1 <1>  -0.0990 
  5 C       -4.5330    -0.7590     0.3850 C.3   1 <1>   0.4000 
  6 C        0.0540    -0.7440     0.1590 C.3   1 <1>  -0.2400 
  7 C       -5.0240    -2.2090     0.4690 C.2   1 <1>   0.2980 
  8 C       -5.6720     0.2560     0.2700 C.3   1 <1>  -0.2400 
  9 O       -4.1610    -3.1140     0.8510 O.3   1 <1>  -0.0190 
 10 N       -6.1910    -2.6480     0.2140 N.2   1 <1>  -0.5650 
 11 N       -4.8330    -4.2210     0.8380 N.2   1 <1>  -0.4100 
 12 C       -6.0320    -3.9540     0.4570 C.2   1 <1>   0.4620 
 13 C       -7.1080    -4.9190     0.3010 C.ar  1 <1>   0.0540 
 14 C       -6.9110    -6.2740     0.5570 C.ar  1 <1>  -0.1500 
 15 C       -8.3840    -4.5410    -0.1120 C.ar  1 <1>  -0.1500 
 16 C       -7.9280    -7.2000     0.4110 C.ar  1 <1>  -0.1500 
 17 C       -9.4030    -5.4640    -0.2590 C.ar  1 <1>  -0.1500 
 18 C       -9.2000    -6.8150    -0.0010 C.ar  1 <1>  -0.1430 
 19 C      -10.3690    -7.8090    -0.1790 C.3   1 <1>   0.1430 
 20 C      -11.5230    -7.4170     0.7550 C.3   1 <1>  -0.2400 
 21 C      -10.8560    -7.7740    -1.6350 C.3   1 <1>  -0.2400 
 22 C       -9.9820    -9.2620     0.1460 C.3   1 <1>  -0.2400 
 23 H       -4.1390    -0.5430    -1.6890 H     1 <1>   0.3700 
 24 H       -1.7580    -1.5820     0.9170 H     1 <1>   0.0800 
 25 H       -1.6730     0.1540     1.0470 H     1 <1>   0.0800 
 26 H       -3.9830    -0.5450     1.2840 H     1 <1>   0.0800 
 27 H        0.2930    -1.5840    -0.4710 H     1 <1>   0.0800 
 28 H        0.5830    -0.8470     1.0890 H     1 <1>   0.0800 
 29 H        0.3860     0.1540    -0.3320 H     1 <1>   0.0800 
 30 H       -6.2510     0.0740    -0.6180 H     1 <1>   0.0800 
 31 H       -5.2790     1.2560     0.2440 H     1 <1>   0.0800 
 32 H       -6.3230     0.1670     1.1210 H     1 <1>   0.0800 
 33 H       -5.9420    -6.6130     0.8780 H     1 <1>   0.1500 
 34 H       -8.5860    -3.5060    -0.3230 H     1 <1>   0.1500 
 35 H       -7.6970    -8.2260     0.6280 H     1 <1>   0.1500 
 36 H      -10.3660    -5.1130    -0.5800 H     1 <1>   0.1500 
 37 H      -11.9020    -6.4410     0.5160 H     1 <1>   0.0800 
 38 H      -11.1820    -7.4050     1.7750 H     1 <1>   0.0800 
 39 H      -12.3340    -8.1190     0.6740 H     1 <1>   0.0800 
 40 H      -10.0440    -8.0130    -2.2990 H     1 <1>   0.0800 
 41 H      -11.2290    -6.8010    -1.8960 H     1 <1>   0.0800 
 42 H      -11.6460    -8.4860    -1.7890 H     1 <1>   0.0800 
 43 H       -9.1920    -9.5960    -0.5020 H     1 <1>   0.0800 
 44 H      -10.8240    -9.9180     0.0090 H     1 <1>   0.0800 
 45 H       -9.6580    -9.3470     1.1680 H     1 <1>   0.0800 
@<TRIPOS>BOND
  1   1   2  2   
  2   2   3  am  
  3   2   4  1   
  4   3   5  1   
  5   3  23  1   
  6   4   6  1   
  7   4  24  1   
  8   4  25  1   
  9   5   7  1   
 10   5   8  1   
 11   5  26  1   
 12   6  27  1   
 13   6  28  1   
 14   6  29  1   
 15   7   9  1   
 16   7  10  2   
 17   8  30  1   
 18   8  31  1   
 19   8  32  1   
 20   9  11  1   
 21  10  12  1   
 22  11  12  2   
 23  12  13  1   
 24  13  14  ar  
 25  13  15  ar  
 26  14  16  ar  
 27  14  33  1   
 28  15  17  ar  
 29  15  34  1   
 30  16  18  ar  
 31  16  35  1   
 32  17  18  ar  
 33  17  36  1   
 34  18  19  1   
 35  19  20  1   
 36  19  21  1   
 37  19  22  1   
 38  20  37  1   
 39  20  38  1   
 40  20  39  1   
 41  21  40  1   
 42  21  41  1   
 43  21  42  1   
 44  22  43  1   
 45  22  44  1   
 46  22  45  1   
@<TRIPOS>SUBSTRUCTURE
  1 ****  12 GROUP 4 **** **** 0

# MOE 2024.06 (io_trps.svl 2023.06)
