@<TRIPOS>MOLECULE
5-Acetyl-6-methyl-4-(2-propoxy-phenyl)-3,4-dihydro-1H-pyrimidin-2-one
41 42 1 0 0 
SMALL
USER_CHARGES


@<TRIPOS>ATOM
  1 O        0.1410    -1.4330     2.4440 O.2   1 <1>  -0.5700 
  2 C        1.1760    -1.6410     1.8530 C.2   1 <1>   0.6900 
  3 N        1.4870    -0.9360     0.7420 N.am  1 <1>  -0.5390 
  4 N        2.0200    -2.5960     2.2640 N.am  1 <1>  -0.7300 
  5 C        2.5800    -1.1820    -0.0610 C.2   1 <1>  -0.0290 
  6 C        3.1950    -3.0360     1.4910 C.3   1 <1>   0.5020 
  7 C        3.4740    -2.1720     0.2420 C.2   1 <1>  -0.1240 
  8 C        2.6610    -0.2560    -1.2650 C.3   1 <1>  -0.1020 
  9 C        3.0280    -4.5410     1.2660 C.ar  1 <1>  -0.1440 
 10 C        4.6870    -2.4660    -0.4760 C.2   1 <1>   0.4950 
 11 C        2.3560    -5.0890     0.1740 C.ar  1 <1>   0.0830 
 12 C        3.5830    -5.4060     2.2020 C.ar  1 <1>  -0.1500 
 13 O        5.1150    -1.7640    -1.3600 O.2   1 <1>  -0.5700 
 14 C        5.5720    -3.6610    -0.1640 C.3   1 <1>  -0.1790 
 15 O        1.7880    -4.3100    -0.7680 O.3   1 <1>  -0.3630 
 16 C        2.2800    -6.4640     0.0110 C.ar  1 <1>  -0.1500 
 17 C        3.4910    -6.7790     2.0470 C.ar  1 <1>  -0.1500 
 18 C        0.4430    -3.9290    -0.5650 C.3   1 <1>   0.1200 
 19 C        2.8430    -7.3100     0.9470 C.ar  1 <1>  -0.1500 
 20 C       -0.4770    -4.8560    -1.3620 C.3   1 <1>  -0.1600 
 21 C       -1.9370    -4.4010    -1.2620 C.3   1 <1>  -0.2400 
 22 H        0.8170    -0.2000     0.5220 H     1 <1>   0.3700 
 23 H        1.6790    -3.2330     2.9780 H     1 <1>   0.3700 
 24 H        4.0410    -2.8960     2.1410 H     1 <1>   0.0800 
 25 H        2.9750    -0.7970    -2.1390 H     1 <1>   0.0800 
 26 H        3.3660     0.5320    -1.0730 H     1 <1>   0.0800 
 27 H        1.7040     0.1810    -1.4860 H     1 <1>   0.0800 
 28 H        4.0970    -5.0200     3.0660 H     1 <1>   0.1500 
 29 H        5.0960    -4.5650    -0.4960 H     1 <1>   0.0800 
 30 H        6.5030    -3.5690    -0.6920 H     1 <1>   0.0800 
 31 H        5.7930    -3.7240     0.8830 H     1 <1>   0.0800 
 32 H        1.7810    -6.8660    -0.8520 H     1 <1>   0.1500 
 33 H        3.9270    -7.4360     2.7800 H     1 <1>   0.1500 
 34 H        0.3430    -2.9160    -0.9140 H     1 <1>   0.0800 
 35 H        0.2160    -3.9640     0.4870 H     1 <1>   0.0800 
 36 H        2.7770    -8.3770     0.8200 H     1 <1>   0.1500 
 37 H       -0.3980    -5.8570    -0.9780 H     1 <1>   0.0800 
 38 H       -0.1750    -4.8530    -2.3950 H     1 <1>   0.0800 
 39 H       -2.2630    -4.4040    -0.2360 H     1 <1>   0.0800 
 40 H       -2.5690    -5.0660    -1.8240 H     1 <1>   0.0800 
 41 H       -2.0500    -3.4060    -1.6580 H     1 <1>   0.0800 
@<TRIPOS>BOND
  1   1   2  2   
  2   2   3  am  
  3   2   4  am  
  4   3   5  1   
  5   3  22  1   
  6   4   6  1   
  7   4  23  1   
  8   5   7  2   
  9   5   8  1   
 10   6   7  1   
 11   6   9  1   
 12   6  24  1   
 13   7  10  1   
 14   8  25  1   
 15   8  26  1   
 16   8  27  1   
 17   9  11  ar  
 18   9  12  ar  
 19  10  13  2   
 20  10  14  1   
 21  11  15  1   
 22  11  16  ar  
 23  12  17  ar  
 24  12  28  1   
 25  14  29  1   
 26  14  30  1   
 27  14  31  1   
 28  15  18  1   
 29  16  19  ar  
 30  16  32  1   
 31  17  19  ar  
 32  17  33  1   
 33  18  20  1   
 34  18  34  1   
 35  18  35  1   
 36  19  36  1   
 37  20  21  1   
 38  20  37  1   
 39  20  38  1   
 40  21  39  1   
 41  21  40  1   
 42  21  41  1   
@<TRIPOS>SUBSTRUCTURE
  1 ****   6 GROUP 4 **** **** 0

# MOE 2024.06 (io_trps.svl 2023.06)
