@<TRIPOS>MOLECULE
4-(3-Phenyl-[1,2,4]oxadiazol-5-yl)-N-(tetrahydro-furan-2-ylmethyl)-butyramide
44 46 1 0 0 
SMALL
USER_CHARGES


@<TRIPOS>ATOM
  1 O       -0.5630    -0.5760    -1.8550 O.2   1 <1>  -0.5700 
  2 C       -1.1020    -1.3400    -1.0920 C.2   1 <1>   0.5690 
  3 N       -0.4110    -2.2620    -0.3820 N.am  1 <1>  -0.7300 
  4 C       -2.6030    -1.2590    -0.9090 C.3   1 <1>  -0.0990 
  5 C        1.0470    -2.5040    -0.4640 C.3   1 <1>   0.1400 
  6 C       -2.9800    -0.2840     0.2210 C.3   1 <1>  -0.1600 
  7 C        1.3290    -4.0120    -0.5180 C.3   1 <1>   0.2000 
  8 C       -4.5010    -0.1190     0.3760 C.3   1 <1>   0.0200 
  9 O        0.6500    -4.6680     0.5080 O.3   1 <1>  -0.5600 
 10 C        2.7880    -4.3870    -0.3050 C.3   1 <1>  -0.1600 
 11 C       -5.1960    -1.4230     0.7220 C.2   1 <1>   0.2980 
 12 C        1.2660    -5.8830     0.8010 C.3   1 <1>   0.1200 
 13 C        2.6890    -5.7970     0.2510 C.3   1 <1>  -0.1600 
 14 O       -4.9630    -1.9720     1.8850 O.3   1 <1>  -0.0190 
 15 N       -5.9990    -2.0530    -0.0290 N.2   1 <1>  -0.5650 
 16 N       -5.6810    -3.0500     1.8730 N.2   1 <1>  -0.4100 
 17 C       -6.2970    -3.1030     0.7450 C.2   1 <1>   0.4620 
 18 C       -7.2090    -4.1550     0.3240 C.ar  1 <1>   0.0540 
 19 C       -7.5090    -5.2310     1.1630 C.ar  1 <1>  -0.1500 
 20 C       -7.8240    -4.1380    -0.9300 C.ar  1 <1>  -0.1500 
 21 C       -8.3750    -6.2370     0.7720 C.ar  1 <1>  -0.1500 
 22 C       -8.6900    -5.1400    -1.3280 C.ar  1 <1>  -0.1500 
 23 C       -8.9680    -6.1930    -0.4760 C.ar  1 <1>  -0.1500 
 24 H       -0.8910    -2.9360     0.2230 H     1 <1>   0.3700 
 25 H       -2.9820    -2.2440    -0.7000 H     1 <1>   0.0800 
 26 H       -3.0370    -0.9290    -1.8350 H     1 <1>   0.0800 
 27 H        1.5200    -2.0790     0.4040 H     1 <1>   0.0800 
 28 H        1.4540    -2.0250    -1.3380 H     1 <1>   0.0800 
 29 H       -2.5450     0.6780     0.0080 H     1 <1>   0.0800 
 30 H       -2.5590    -0.6330     1.1490 H     1 <1>   0.0800 
 31 H        0.9760    -4.4180    -1.4510 H     1 <1>   0.0800 
 32 H       -4.9150     0.2650    -0.5400 H     1 <1>   0.0800 
 33 H       -4.7070     0.5950     1.1530 H     1 <1>   0.0800 
 34 H        3.2320    -3.7330     0.4250 H     1 <1>   0.0800 
 35 H        3.3530    -4.3390    -1.2190 H     1 <1>   0.0800 
 36 H        0.7060    -6.6710     0.3250 H     1 <1>   0.0800 
 37 H        1.2540    -6.0170     1.8690 H     1 <1>   0.0800 
 38 H        3.4190    -5.9790     1.0200 H     1 <1>   0.0800 
 39 H        2.8140    -6.5270    -0.5300 H     1 <1>   0.0800 
 40 H       -7.0570    -5.2810     2.1380 H     1 <1>   0.1500 
 41 H       -7.6190    -3.3260    -1.6060 H     1 <1>   0.1500 
 42 H       -8.5880    -7.0540     1.4390 H     1 <1>   0.1500 
 43 H       -9.1500    -5.1000    -2.3000 H     1 <1>   0.1500 
 44 H       -9.6420    -6.9740    -0.7830 H     1 <1>   0.1500 
@<TRIPOS>BOND
  1   1   2  2   
  2   2   3  am  
  3   2   4  1   
  4   3   5  1   
  5   3  24  1   
  6   4   6  1   
  7   4  25  1   
  8   4  26  1   
  9   5   7  1   
 10   5  27  1   
 11   5  28  1   
 12   6   8  1   
 13   6  29  1   
 14   6  30  1   
 15   7   9  1   
 16   7  10  1   
 17   7  31  1   
 18   8  11  1   
 19   8  32  1   
 20   8  33  1   
 21   9  12  1   
 22  10  13  1   
 23  10  34  1   
 24  10  35  1   
 25  11  14  1   
 26  11  15  2   
 27  12  13  1   
 28  12  36  1   
 29  12  37  1   
 30  13  38  1   
 31  13  39  1   
 32  14  16  1   
 33  15  17  1   
 34  16  17  2   
 35  17  18  1   
 36  18  19  ar  
 37  18  20  ar  
 38  19  21  ar  
 39  19  40  1   
 40  20  22  ar  
 41  20  41  1   
 42  21  23  ar  
 43  21  42  1   
 44  22  23  ar  
 45  22  43  1   
 46  23  44  1   
@<TRIPOS>SUBSTRUCTURE
  1 ****   4 GROUP 4 **** **** 0

# MOE 2024.06 (io_trps.svl 2023.06)
