@<TRIPOS>MOLECULE
2,3-Dihydro-benzo[1,4]dioxine-6-sulfonic acid (1-methyl-butyl)-amide
38 39 1 0 0 
SMALL
USER_CHARGES


@<TRIPOS>ATOM
  1 S        0.0210    -0.6460     0.2830 S.o2  1 <1>   1.4470 
  2 O        0.2100    -1.7900    -0.5790 O.2   1 <1>  -0.6500 
  3 O        0.1460    -0.7860     1.7150 O.2   1 <1>  -0.6500 
  4 N        1.1980     0.4860    -0.0940 N.am  1 <1>  -0.9140 
  5 C       -1.5170     0.2110    -0.1470 C.ar  1 <1>  -0.0090 
  6 C        2.5120    -0.0820    -0.2740 C.3   1 <1>   0.2760 
  7 C       -2.4810     0.4890     0.8170 C.ar  1 <1>  -0.1500 
  8 C       -1.7640     0.6130    -1.4570 C.ar  1 <1>  -0.1500 
  9 C        3.5160     0.8620     0.4030 C.3   1 <1>  -0.1600 
 10 C        2.7600    -0.2120    -1.7770 C.3   1 <1>  -0.2400 
 11 C       -3.6520     1.1470     0.4840 C.ar  1 <1>   0.0830 
 12 C       -2.9300     1.2770    -1.8010 C.ar  1 <1>  -0.1500 
 13 C        4.9570     0.3270     0.3950 C.3   1 <1>  -0.1600 
 14 O       -4.5700     1.3810     1.4550 O.3   1 <1>  -0.3630 
 15 C       -3.8750     1.5530    -0.8320 C.ar  1 <1>   0.0830 
 16 C        5.8890     1.2490     1.1860 C.3   1 <1>  -0.2400 
 17 C       -5.8690     1.7520     1.0340 C.3   1 <1>   0.1200 
 18 O       -5.0030     2.2190    -1.1810 O.3   1 <1>  -0.3630 
 19 C       -5.7870     2.7510    -0.1290 C.3   1 <1>   0.1200 
 20 H        1.2500     1.0340     0.7610 H     1 <1>   0.4200 
 21 H        2.5750    -1.0520     0.1960 H     1 <1>   0.0800 
 22 H       -2.3270     0.1900     1.8390 H     1 <1>   0.1500 
 23 H       -1.0290     0.4030    -2.2160 H     1 <1>   0.1500 
 24 H        3.2190     0.9970     1.4290 H     1 <1>   0.0800 
 25 H        3.4920     1.8210    -0.0860 H     1 <1>   0.0800 
 26 H        2.7550     0.7560    -2.2450 H     1 <1>   0.0800 
 27 H        2.0010    -0.8240    -2.2300 H     1 <1>   0.0800 
 28 H        3.7080    -0.6810    -1.9630 H     1 <1>   0.0800 
 29 H       -3.1090     1.5850    -2.8160 H     1 <1>   0.1500 
 30 H        5.3210     0.2540    -0.6150 H     1 <1>   0.0800 
 31 H        4.9820    -0.6580     0.8320 H     1 <1>   0.0800 
 32 H        5.8950     2.2360     0.7580 H     1 <1>   0.0800 
 33 H        6.8930     0.8620     1.1650 H     1 <1>   0.0800 
 34 H        5.5720     1.3170     2.2120 H     1 <1>   0.0800 
 35 H       -6.3800     2.1840     1.8750 H     1 <1>   0.0800 
 36 H       -6.3870     0.8610     0.7240 H     1 <1>   0.0800 
 37 H       -5.3300     3.6680     0.1980 H     1 <1>   0.0800 
 38 H       -6.7650     2.9650    -0.5200 H     1 <1>   0.0800 
@<TRIPOS>BOND
  1   1   2  2   
  2   1   3  2   
  3   1   4  am  
  4   1   5  1   
  5   4   6  1   
  6   4  20  1   
  7   5   7  ar  
  8   5   8  ar  
  9   6   9  1   
 10   6  10  1   
 11   6  21  1   
 12   7  11  ar  
 13   7  22  1   
 14   8  12  ar  
 15   8  23  1   
 16   9  13  1   
 17   9  24  1   
 18   9  25  1   
 19  10  26  1   
 20  10  27  1   
 21  10  28  1   
 22  11  14  1   
 23  11  15  ar  
 24  12  15  ar  
 25  12  29  1   
 26  13  16  1   
 27  13  30  1   
 28  13  31  1   
 29  14  17  1   
 30  15  18  1   
 31  16  32  1   
 32  16  33  1   
 33  16  34  1   
 34  17  19  1   
 35  17  35  1   
 36  17  36  1   
 37  18  19  1   
 38  19  37  1   
 39  19  38  1   
@<TRIPOS>SUBSTRUCTURE
  1 ****   5 GROUP 4 **** **** 0

# MOE 2024.06 (io_trps.svl 2023.06)
