@<TRIPOS>MOLECULE
N-Benzo[1,3]dioxol-5-yl-N-(2-morpholin-4-yl-2-oxo-ethyl)-methanesulfonamide
41 43 1 0 0 
SMALL
USER_CHARGES


@<TRIPOS>ATOM
  1 S        0.3310    -0.3300     0.0790 S.o2  1 <1>   1.3330 
  2 O        1.7150    -0.6340     0.3350 O.2   1 <1>  -0.6500 
  3 O       -0.4110    -1.0130    -0.9520 O.2   1 <1>  -0.6500 
  4 N        0.2260     1.3580    -0.2860 N.am  1 <1>  -0.6930 
  5 C       -0.5470    -0.4660     1.6220 C.3   1 <1>  -0.1350 
  6 C       -0.9870     2.0150    -0.1200 C.ar  1 <1>   0.1990 
  7 C        1.0150     1.7530    -1.5010 C.3   1 <1>   0.2570 
  8 C       -2.0390     1.8090    -1.0110 C.ar  1 <1>  -0.1500 
  9 C       -1.1560     2.8890     0.9580 C.ar  1 <1>  -0.1500 
 10 C        2.5450     1.6850    -1.3750 C.2   1 <1>   0.5690 
 11 C       -3.2180     2.4920    -0.7990 C.ar  1 <1>   0.0820 
 12 C       -2.3520     3.5660     1.1570 C.ar  1 <1>  -0.1500 
 13 O        3.1400     1.1100    -2.2590 O.2   1 <1>  -0.5700 
 14 N        3.2200     2.2850    -0.3380 N.am  1 <1>  -0.6600 
 15 O       -4.3420     2.4490    -1.5220 O.3   1 <1>  -0.3630 
 16 C       -3.3710     3.3460     0.2540 C.ar  1 <1>   0.0830 
 17 C        2.6040     3.1630     0.6970 C.3   1 <1>   0.1400 
 18 C        4.6580     1.9810    -0.0750 C.3   1 <1>   0.1400 
 19 C       -5.2710     3.3290    -0.8900 C.3   1 <1>   0.4000 
 20 O       -4.6000     3.8800     0.2420 O.3   1 <1>  -0.3630 
 21 C        3.5050     4.3730     0.9970 C.3   1 <1>   0.1200 
 22 C        5.4370     3.2590     0.2750 C.3   1 <1>   0.1200 
 23 O        4.8030     3.9600     1.3090 O.3   1 <1>  -0.5600 
 24 H       -0.5220    -1.4810     1.9660 H     1 <1>   0.0800 
 25 H       -1.5710    -0.1730     1.4990 H     1 <1>   0.0800 
 26 H       -0.0900     0.1590     2.3640 H     1 <1>   0.0800 
 27 H        0.7590     2.7580    -1.7790 H     1 <1>   0.0800 
 28 H        0.7260     1.1130    -2.3160 H     1 <1>   0.0800 
 29 H       -1.9430     1.1330    -1.8420 H     1 <1>   0.1500 
 30 H       -0.3430     3.0350     1.6450 H     1 <1>   0.1500 
 31 H       -2.4950     4.2420     1.9820 H     1 <1>   0.1500 
 32 H        2.4580     2.5950     1.5990 H     1 <1>   0.0800 
 33 H        1.6490     3.5240     0.3650 H     1 <1>   0.0800 
 34 H        5.1100     1.5150    -0.9330 H     1 <1>   0.0800 
 35 H        4.7240     1.2890     0.7460 H     1 <1>   0.0800 
 36 H       -6.1310     2.7710    -0.5640 H     1 <1>   0.0800 
 37 H       -5.5420     4.1170    -1.5690 H     1 <1>   0.0800 
 38 H        3.1240     4.9200     1.8400 H     1 <1>   0.0800 
 39 H        3.5490     5.0330     0.1480 H     1 <1>   0.0800 
 40 H        5.5120     3.9010    -0.5850 H     1 <1>   0.0800 
 41 H        6.4280     3.0080     0.6070 H     1 <1>   0.0800 
@<TRIPOS>BOND
  1   1   2  2   
  2   1   3  2   
  3   1   4  am  
  4   1   5  1   
  5   4   6  1   
  6   4   7  1   
  7   5  24  1   
  8   5  25  1   
  9   5  26  1   
 10   6   8  ar  
 11   6   9  ar  
 12   7  10  1   
 13   7  27  1   
 14   7  28  1   
 15   8  11  ar  
 16   8  29  1   
 17   9  12  ar  
 18   9  30  1   
 19  10  13  2   
 20  10  14  am  
 21  11  15  1   
 22  11  16  ar  
 23  12  16  ar  
 24  12  31  1   
 25  14  17  1   
 26  14  18  1   
 27  15  19  1   
 28  16  20  1   
 29  17  21  1   
 30  17  32  1   
 31  17  33  1   
 32  18  22  1   
 33  18  34  1   
 34  18  35  1   
 35  19  20  1   
 36  19  36  1   
 37  19  37  1   
 38  21  23  1   
 39  21  38  1   
 40  21  39  1   
 41  22  23  1   
 42  22  40  1   
 43  22  41  1   
@<TRIPOS>SUBSTRUCTURE
  1 ****   4 GROUP 4 **** **** 0

# MOE 2024.06 (io_trps.svl 2023.06)
