@<TRIPOS>MOLECULE
1-(5-Hydroxy-3-methyl-5-trifluoromethyl-4,5-dihydro-pyrazol-1-yl)-3-(2-hydroxy-p
37 38 1 0 0 
SMALL
USER_CHARGES


@<TRIPOS>ATOM
  1 F       -0.3360    -2.5310     2.1970 F     1 <1>  -0.3400 
  2 C        0.2840    -2.7790     1.0450 C.3   1 <1>   1.0200 
  3 F        0.8360    -3.9800     1.1810 F     1 <1>  -0.3400 
  4 F        1.3050    -1.9240     1.0070 F     1 <1>  -0.3400 
  5 C       -0.6740    -2.6250    -0.2100 C.3   1 <1>   0.5800 
  6 O       -0.0920    -3.0030    -1.4250 O.3   1 <1>  -0.6800 
  7 N       -1.9510    -3.3940    -0.1020 N.am  1 <1>  -0.2980 
  8 C       -1.1810    -1.1800    -0.3710 C.3   1 <1>  -0.0990 
  9 N       -3.0430    -2.5500    -0.0630 N.2   1 <1>  -0.5120 
 10 C       -1.9940    -4.7700    -0.1770 C.2   1 <1>   0.5690 
 11 C       -2.6670    -1.3610    -0.2120 C.2   1 <1>   0.3280 
 12 O       -1.0040    -5.4170    -0.4280 O.2   1 <1>  -0.5700 
 13 C       -3.3320    -5.4650     0.0270 C.3   1 <1>  -0.0990 
 14 C       -3.5670    -0.1470    -0.2380 C.3   1 <1>  -0.1790 
 15 C       -3.2360    -6.9980     0.1030 C.3   1 <1>  -0.0170 
 16 C       -4.5620    -7.7330     0.3300 C.ar  1 <1>  -0.1440 
 17 C       -4.5520    -9.1220     0.4310 C.ar  1 <1>   0.0820 
 18 C       -5.7840    -7.0780     0.4380 C.ar  1 <1>  -0.1500 
 19 O       -3.3950    -9.8000     0.3310 O.3   1 <1>  -0.5320 
 20 C       -5.7220    -9.8370     0.6350 C.ar  1 <1>  -0.1500 
 21 C       -6.9560    -7.7890     0.6430 C.ar  1 <1>  -0.1500 
 22 C       -6.9260    -9.1680     0.7410 C.ar  1 <1>  -0.1500 
 23 H       -0.0690    -3.9900    -1.4340 H     1 <1>   0.4000 
 24 H       -0.9450    -0.7750    -1.3380 H     1 <1>   0.0800 
 25 H       -0.8080    -0.5280     0.3970 H     1 <1>   0.0800 
 26 H       -3.9730    -5.1890    -0.7900 H     1 <1>   0.0800 
 27 H       -3.7620    -5.0940     0.9390 H     1 <1>   0.0800 
 28 H       -3.3070     0.5230     0.5610 H     1 <1>   0.0800 
 29 H       -4.5920    -0.4510    -0.1150 H     1 <1>   0.0800 
 30 H       -3.4680     0.3630    -1.1780 H     1 <1>   0.0800 
 31 H       -2.5640    -7.2610     0.9020 H     1 <1>   0.0800 
 32 H       -2.8020    -7.3640    -0.8120 H     1 <1>   0.0800 
 33 H       -5.8540    -6.0080     0.3670 H     1 <1>   0.1500 
 34 H       -3.5100   -10.7620     0.4130 H     1 <1>   0.4500 
 35 H       -5.7000   -10.9070     0.7120 H     1 <1>   0.1500 
 36 H       -7.8920    -7.2650     0.7250 H     1 <1>   0.1500 
 37 H       -7.8390    -9.7160     0.9000 H     1 <1>   0.1500 
@<TRIPOS>BOND
  1   1   2  1   
  2   2   3  1   
  3   2   4  1   
  4   2   5  1   
  5   5   6  1   
  6   5   7  1   
  7   5   8  1   
  8   6  23  1   
  9   7   9  1   
 10   7  10  am  
 11   8  11  1   
 12   8  24  1   
 13   8  25  1   
 14   9  11  2   
 15  10  12  2   
 16  10  13  1   
 17  11  14  1   
 18  13  15  1   
 19  13  26  1   
 20  13  27  1   
 21  14  28  1   
 22  14  29  1   
 23  14  30  1   
 24  15  16  1   
 25  15  31  1   
 26  15  32  1   
 27  16  17  ar  
 28  16  18  ar  
 29  17  19  1   
 30  17  20  ar  
 31  18  21  ar  
 32  18  33  1   
 33  19  34  1   
 34  20  22  ar  
 35  20  35  1   
 36  21  22  ar  
 37  21  36  1   
 38  22  37  1   
@<TRIPOS>SUBSTRUCTURE
  1 ****  10 GROUP 4 **** **** 0

# MOE 2024.06 (io_trps.svl 2023.06)
