@<TRIPOS>MOLECULE
(E)-N,N-Diethyl-2-(2-oxo-2H-pyridin-1-yl)-3-(3,4,5-trimethoxy-phenyl)-acrylamide
54 55 1 0 0 
SMALL
USER_CHARGES


@<TRIPOS>ATOM
  1 O       -2.1110     0.7730    -1.2440 O.2   1 <1>  -0.5700 
  2 C       -2.4260     0.4270    -0.1110 C.2   1 <1>   0.6160 
  3 N       -2.2170     1.2680     0.9810 N.am  1 <1>  -0.2780 
  4 C       -3.0270    -0.8440     0.1100 C.2   1 <1>  -0.1360 
  5 C       -1.6350     2.5510     0.8360 C.2   1 <1>   0.1230 
  6 C       -2.6190     0.8410     2.2420 C.2   1 <1>  -0.0410 
  7 C       -3.4080    -1.2450     1.3500 C.2   1 <1>  -0.1500 
  8 C       -2.4600     3.6690     1.2560 C.2   1 <1>   0.6160 
  9 C       -0.3580     2.6590     0.3730 C.2   1 <1>  -0.1780 
 10 C       -3.1970    -0.3710     2.4430 C.2   1 <1>  -0.1500 
 11 O       -2.3090     4.1190     2.3800 O.2   1 <1>  -0.5700 
 12 N       -3.4180     4.2340     0.4320 N.am  1 <1>  -0.6600 
 13 C        0.4560     3.8230     0.1510 C.ar  1 <1>   0.0280 
 14 C       -3.6620     3.7730    -0.9610 C.3   1 <1>   0.1400 
 15 C       -4.2150     5.4090     0.8730 C.3   1 <1>   0.1400 
 16 C       -0.0590     5.0560    -0.2470 C.ar  1 <1>  -0.1500 
 17 C        1.8360     3.7380     0.3270 C.ar  1 <1>  -0.1500 
 18 C       -4.9020     2.8830    -0.9980 C.3   1 <1>  -0.2400 
 19 C       -3.4750     6.6950     0.5120 C.3   1 <1>  -0.2400 
 20 C        0.7550     6.1550    -0.4400 C.ar  1 <1>   0.0830 
 21 C        2.6730     4.8220     0.1340 C.ar  1 <1>   0.0830 
 22 O        0.1580     7.3170    -0.8050 O.3   1 <1>  -0.3620 
 23 C        2.1380     6.0490    -0.2740 C.ar  1 <1>   0.0830 
 24 O        3.9990     4.6030     0.3510 O.3   1 <1>  -0.3620 
 25 C        0.1500     8.3360     0.1690 C.3   1 <1>   0.0400 
 26 O        2.9430     7.1130    -0.5310 O.3   1 <1>  -0.3630 
 27 C        4.7260     5.5370     1.1200 C.3   1 <1>   0.0400 
 28 C        3.1680     7.3830    -1.8960 C.3   1 <1>   0.0400 
 29 H       -3.1620    -1.4620    -0.7580 H     1 <1>   0.1500 
 30 H       -2.4480     1.5230     3.0610 H     1 <1>   0.1500 
 31 H       -3.8660    -2.2040     1.5300 H     1 <1>   0.1500 
 32 H        0.1550     1.7440     0.1380 H     1 <1>   0.1500 
 33 H       -3.5040    -0.6920     3.4240 H     1 <1>   0.1500 
 34 H       -3.8030     4.6240    -1.6040 H     1 <1>   0.0800 
 35 H       -2.8110     3.2280    -1.3320 H     1 <1>   0.0800 
 36 H       -5.1820     5.3950     0.4010 H     1 <1>   0.0800 
 37 H       -4.3690     5.3670     1.9390 H     1 <1>   0.0800 
 38 H       -1.1080     5.1750    -0.4200 H     1 <1>   0.1500 
 39 H        2.2730     2.8040     0.6300 H     1 <1>   0.1500 
 40 H       -5.7810     3.4430    -0.7380 H     1 <1>   0.0800 
 41 H       -4.7930     2.0590    -0.3170 H     1 <1>   0.0800 
 42 H       -5.0300     2.4880    -1.9900 H     1 <1>   0.0800 
 43 H       -3.3120     6.7580    -0.5480 H     1 <1>   0.0800 
 44 H       -2.5290     6.7260     1.0230 H     1 <1>   0.0800 
 45 H       -4.0540     7.5450     0.8220 H     1 <1>   0.0800 
 46 H       -0.2780     7.9470     1.0770 H     1 <1>   0.0800 
 47 H       -0.4450     9.1510    -0.2000 H     1 <1>   0.0800 
 48 H        1.1580     8.6670     0.3440 H     1 <1>   0.0800 
 49 H        5.5830     5.0370     1.5320 H     1 <1>   0.0800 
 50 H        4.0990     5.9080     1.9120 H     1 <1>   0.0800 
 51 H        5.0470     6.3400     0.4820 H     1 <1>   0.0800 
 52 H        3.8400     8.2180    -1.9690 H     1 <1>   0.0800 
 53 H        2.2300     7.6210    -2.3670 H     1 <1>   0.0800 
 54 H        3.6060     6.5120    -2.3520 H     1 <1>   0.0800 
@<TRIPOS>BOND
  1   1   2  2   
  2   2   3  am  
  3   2   4  1   
  4   3   5  1   
  5   3   6  1   
  6   4   7  2   
  7   4  29  1   
  8   5   8  1   
  9   5   9  2   
 10   6  10  2   
 11   6  30  1   
 12   7  10  1   
 13   7  31  1   
 14   8  11  2   
 15   8  12  am  
 16   9  13  1   
 17   9  32  1   
 18  10  33  1   
 19  12  14  1   
 20  12  15  1   
 21  13  16  ar  
 22  13  17  ar  
 23  14  18  1   
 24  14  34  1   
 25  14  35  1   
 26  15  19  1   
 27  15  36  1   
 28  15  37  1   
 29  16  20  ar  
 30  16  38  1   
 31  17  21  ar  
 32  17  39  1   
 33  18  40  1   
 34  18  41  1   
 35  18  42  1   
 36  19  43  1   
 37  19  44  1   
 38  19  45  1   
 39  20  22  1   
 40  20  23  ar  
 41  21  23  ar  
 42  21  24  1   
 43  22  25  1   
 44  23  26  1   
 45  24  27  1   
 46  25  46  1   
 47  25  47  1   
 48  25  48  1   
 49  26  28  1   
 50  27  49  1   
 51  27  50  1   
 52  27  51  1   
 53  28  52  1   
 54  28  53  1   
 55  28  54  1   
@<TRIPOS>SUBSTRUCTURE
  1 ****   9 GROUP 4 **** **** 0

# MOE 2024.06 (io_trps.svl 2023.06)
