@<TRIPOS>MOLECULE
3-Chloro-N-[2-(4-isobutyryl-piperazin-1-yl)-phenyl]-benzamide
51 53 1 0 0 
SMALL
USER_CHARGES


@<TRIPOS>ATOM
  1 CL      -0.1810     0.3960     0.2800 Cl    1 <1>  -0.1770 
  2 C        1.3740    -0.2360     0.7540 C.ar  1 <1>   0.1770 
  3 C        2.5230     0.3640     0.2800 C.ar  1 <1>  -0.1500 
  4 C        1.4270    -1.3290     1.5970 C.ar  1 <1>  -0.1500 
  5 C        3.7810    -0.1220     0.6390 C.ar  1 <1>   0.0860 
  6 C        2.6630    -1.8240     1.9710 C.ar  1 <1>  -0.1500 
  7 C        4.9890     0.5060     0.1300 C.2   1 <1>   0.5440 
  8 C        3.8190    -1.2250     1.5000 C.ar  1 <1>  -0.1500 
  9 O        4.9710     1.6690    -0.2220 O.2   1 <1>  -0.5700 
 10 N        6.1430    -0.2290     0.0330 N.am  1 <1>  -0.5470 
 11 C        7.4670     0.0470    -0.3420 C.ar  1 <1>   0.1170 
 12 C        8.3450    -1.0480    -0.3510 C.ar  1 <1>   0.1000 
 13 C        7.9380     1.3060    -0.6880 C.ar  1 <1>  -0.1500 
 14 N        7.8740    -2.3290     0.0000 N.pl3 1 <1>  -0.8380 
 15 C        9.6710    -0.8470    -0.7120 C.ar  1 <1>  -0.1500 
 16 C        9.2630     1.4900    -1.0440 C.ar  1 <1>  -0.1500 
 17 C        8.3480    -2.9100     1.3000 C.3   1 <1>   0.2090 
 18 C        7.6920    -3.3180    -1.1110 C.3   1 <1>   0.2090 
 19 C       10.1300     0.4120    -1.0560 C.ar  1 <1>  -0.1500 
 20 C        9.5070    -3.9050     1.1260 C.3   1 <1>   0.1400 
 21 C        8.8630    -4.3120    -1.2350 C.3   1 <1>   0.1400 
 22 N        9.1850    -4.9320     0.0880 N.am  1 <1>  -0.6600 
 23 C        9.0320    -6.2560     0.4260 C.2   1 <1>   0.5690 
 24 O        9.0750    -6.6060     1.5830 O.2   1 <1>  -0.5700 
 25 C        8.7840    -7.3310    -0.6470 C.3   1 <1>  -0.0190 
 26 C        7.2820    -7.4900    -0.9390 C.3   1 <1>  -0.2400 
 27 C        9.3760    -8.7010    -0.2650 C.3   1 <1>  -0.2400 
 28 H        2.4440     1.2160    -0.3720 H     1 <1>   0.1500 
 29 H        0.5160    -1.7780     1.9510 H     1 <1>   0.1500 
 30 H        2.7230    -2.6730     2.6320 H     1 <1>   0.1500 
 31 H        4.7690    -1.6210     1.8170 H     1 <1>   0.1500 
 32 H        6.0670    -1.2270     0.2400 H     1 <1>   0.3700 
 33 H        7.2770     2.1520    -0.6820 H     1 <1>   0.1500 
 34 H       10.3490    -1.6770    -0.7240 H     1 <1>   0.1500 
 35 H        9.6140     2.4710    -1.3110 H     1 <1>   0.1500 
 36 H        7.5260    -3.4190     1.7740 H     1 <1>   0.0800 
 37 H        8.6600    -2.1140     1.9550 H     1 <1>   0.0800 
 38 H        7.5760    -2.7900    -2.0420 H     1 <1>   0.0800 
 39 H        6.7860    -3.8700    -0.9340 H     1 <1>   0.0800 
 40 H       11.1600     0.5550    -1.3330 H     1 <1>   0.1500 
 41 H        9.7120    -4.3710     2.0740 H     1 <1>   0.0800 
 42 H       10.3930    -3.3730     0.8340 H     1 <1>   0.0800 
 43 H        9.7300    -3.7900    -1.5980 H     1 <1>   0.0800 
 44 H        8.6030    -5.0540    -1.9650 H     1 <1>   0.0800 
 45 H        9.2840    -7.0300    -1.5480 H     1 <1>   0.0800 
 46 H        6.7690    -7.8240    -0.0540 H     1 <1>   0.0800 
 47 H        7.1240    -8.2110    -1.7220 H     1 <1>   0.0800 
 48 H        6.8540    -6.5530    -1.2450 H     1 <1>   0.0800 
 49 H        8.8950    -9.0850     0.6190 H     1 <1>   0.0800 
 50 H       10.4270    -8.6030    -0.0610 H     1 <1>   0.0800 
 51 H        9.2450    -9.4080    -1.0640 H     1 <1>   0.0800 
@<TRIPOS>BOND
  1   1   2  1   
  2   2   3  ar  
  3   2   4  ar  
  4   3   5  ar  
  5   3  28  1   
  6   4   6  ar  
  7   4  29  1   
  8   5   7  1   
  9   5   8  ar  
 10   6   8  ar  
 11   6  30  1   
 12   7   9  2   
 13   7  10  am  
 14   8  31  1   
 15  10  11  1   
 16  10  32  1   
 17  11  12  ar  
 18  11  13  ar  
 19  12  14  1   
 20  12  15  ar  
 21  13  16  ar  
 22  13  33  1   
 23  14  17  1   
 24  14  18  1   
 25  15  19  ar  
 26  15  34  1   
 27  16  19  ar  
 28  16  35  1   
 29  17  20  1   
 30  17  36  1   
 31  17  37  1   
 32  18  21  1   
 33  18  38  1   
 34  18  39  1   
 35  19  40  1   
 36  20  22  1   
 37  20  41  1   
 38  20  42  1   
 39  21  22  1   
 40  21  43  1   
 41  21  44  1   
 42  22  23  am  
 43  23  24  2   
 44  23  25  1   
 45  25  26  1   
 46  25  27  1   
 47  25  45  1   
 48  26  46  1   
 49  26  47  1   
 50  26  48  1   
 51  27  49  1   
 52  27  50  1   
 53  27  51  1   
@<TRIPOS>SUBSTRUCTURE
  1 ****  14 GROUP 4 **** **** 0

# MOE 2024.06 (io_trps.svl 2023.06)
