@<TRIPOS>MOLECULE
3-(2-Fluoro-benzyl)-1,6,7-trimethyl-8-(tetrahydro-furan-2-ylmethyl)-1H,8H-imidaz
56 60 1 0 0 
SMALL
USER_CHARGES


@<TRIPOS>ATOM
  1 F        0.8580    -5.5680    -0.6690 F     1 <1>  -0.1960 
  2 C        0.5200    -4.4180    -0.1510 C.ar  1 <1>   0.1840 
  3 C        0.7780    -3.2500    -0.8540 C.ar  1 <1>  -0.1500 
  4 C       -0.0770    -4.4220     1.0960 C.ar  1 <1>  -0.1560 
  5 C        0.4150    -2.0480    -0.2630 C.ar  1 <1>  -0.1560 
  6 C        1.4390    -3.2720    -2.2260 C.3   1 <1>   0.2780 
  7 C       -0.4310    -3.2130     1.6680 C.ar  1 <1>  -0.1560 
  8 C       -0.1830    -2.0310     0.9880 C.ar  1 <1>  -0.1560 
  9 N        2.8930    -3.5490    -2.0740 N.am  1 <1>  -0.4250 
 10 C        3.3910    -4.7950    -2.4240 C.2   1 <1>   0.6870 
 11 C        3.6900    -2.6070    -1.4440 C.2   1 <1>   0.7000 
 12 O        2.7770    -5.5080    -3.1900 O.2   1 <1>  -0.5740 
 13 N        4.6170    -5.2120    -1.9240 N.am  1 <1>  -0.4410 
 14 O        3.3230    -1.4480    -1.3450 O.2   1 <1>  -0.5740 
 15 C        4.9570    -3.0380    -0.9490 C.2   1 <1>   0.2710 
 16 C        5.3610    -4.3090    -1.1920 C.2   1 <1>   0.4210 
 17 C        5.1190    -6.5910    -2.1930 C.3   1 <1>   0.0530 
 18 N        5.9970    -2.4270    -0.2250 N.pl3 1 <1>  -0.6330 
 19 N        6.5890    -4.5000    -0.6350 N.pl3 1 <1>  -0.7030 
 20 C        6.9410    -3.3450    -0.0740 C.cat 1 <1>   1.0690 
 21 C        6.4600    -1.2780     0.3800 C.2   1 <1>   0.2350 
 22 N        8.0010    -2.8720     0.5930 N.pl3 1 <1>  -0.5710 
 23 C        7.6890    -1.5500     0.8830 C.2   1 <1>   0.1580 
 24 C        5.6140    -0.0200     0.3900 C.3   1 <1>  -0.1090 
 25 C        9.2090    -3.6460     1.0230 C.3   1 <1>   0.1610 
 26 C        8.6450    -0.6490     1.6470 C.3   1 <1>  -0.1090 
 27 C        9.9600    -4.3180    -0.1430 C.3   1 <1>   0.1940 
 28 O        9.1580    -5.2640    -0.7820 O.3   1 <1>  -0.5640 
 29 C       11.1820    -5.1100     0.3020 C.3   1 <1>  -0.1660 
 30 C        9.9630    -6.1600    -1.4870 C.3   1 <1>   0.1130 
 31 C       11.3080    -6.1840    -0.7670 C.3   1 <1>  -0.1660 
 32 H       -0.2600    -5.3520     1.6040 H     1 <1>   0.1440 
 33 H        0.6000    -1.1150    -0.7690 H     1 <1>   0.1440 
 34 H        1.3090    -2.3210    -2.7150 H     1 <1>   0.0730 
 35 H        0.9640    -4.0170    -2.8410 H     1 <1>   0.0730 
 36 H       -0.8990    -3.1910     2.6370 H     1 <1>   0.1440 
 37 H       -0.4590    -1.0910     1.4350 H     1 <1>   0.1440 
 38 H        4.2930    -7.2650    -2.3480 H     1 <1>   0.0730 
 39 H        5.6940    -6.9530    -1.3590 H     1 <1>   0.0730 
 40 H        5.7320    -6.5880    -3.0770 H     1 <1>   0.0730 
 41 H        7.2990    -5.2320    -0.7730 H     1 <1>   0.4450 
 42 H        5.4180     0.2990    -0.6180 H     1 <1>   0.0730 
 43 H        6.1100     0.7770     0.9110 H     1 <1>   0.0730 
 44 H        4.6740    -0.2140     0.8750 H     1 <1>   0.0730 
 45 H        8.9120    -4.4010     1.7310 H     1 <1>   0.0730 
 46 H        9.8950    -2.9890     1.5260 H     1 <1>   0.0730 
 47 H        8.8340    -1.0540     2.6260 H     1 <1>   0.0730 
 48 H        8.2340     0.3370     1.7640 H     1 <1>   0.0730 
 49 H        9.5770    -0.5650     1.1180 H     1 <1>   0.0730 
 50 H       10.2540    -3.5840    -0.8760 H     1 <1>   0.0730 
 51 H       11.0040    -5.5690     1.2600 H     1 <1>   0.0730 
 52 H       12.0600    -4.4920     0.3650 H     1 <1>   0.0730 
 53 H       10.0720    -5.7980    -2.4960 H     1 <1>   0.0730 
 54 H        9.4900    -7.1280    -1.4910 H     1 <1>   0.0730 
 55 H       11.5000    -7.1500    -0.3340 H     1 <1>   0.0730 
 56 H       12.0970    -5.9530    -1.4610 H     1 <1>   0.0730 
@<TRIPOS>BOND
  1   1   2  1   
  2   2   3  ar  
  3   2   4  ar  
  4   3   5  ar  
  5   3   6  1   
  6   4   7  ar  
  7   4  32  1   
  8   5   8  ar  
  9   5  33  1   
 10   6   9  1   
 11   6  34  1   
 12   6  35  1   
 13   7   8  ar  
 14   7  36  1   
 15   8  37  1   
 16   9  10  am  
 17   9  11  am  
 18  10  12  2   
 19  10  13  am  
 20  11  14  2   
 21  11  15  1   
 22  13  16  1   
 23  13  17  1   
 24  15  16  2   
 25  15  18  1   
 26  16  19  1   
 27  17  38  1   
 28  17  39  1   
 29  17  40  1   
 30  18  20  ar  
 31  18  21  1   
 32  19  20  ar  
 33  19  41  1   
 34  20  22  ar  
 35  21  23  2   
 36  21  24  1   
 37  22  23  1   
 38  22  25  1   
 39  23  26  1   
 40  24  42  1   
 41  24  43  1   
 42  24  44  1   
 43  25  27  1   
 44  25  45  1   
 45  25  46  1   
 46  26  47  1   
 47  26  48  1   
 48  26  49  1   
 49  27  28  1   
 50  27  29  1   
 51  27  50  1   
 52  28  30  1   
 53  29  31  1   
 54  29  51  1   
 55  29  52  1   
 56  30  31  1   
 57  30  53  1   
 58  30  54  1   
 59  31  55  1   
 60  31  56  1   
@<TRIPOS>SUBSTRUCTURE
  1 ****  15 GROUP 4 **** **** 0

# MOE 2024.06 (io_trps.svl 2023.06)
