@<TRIPOS>MOLECULE
8-(3-Chloro-phenyl)-3-(2-methoxy-ethyl)-1,6-dimethyl-5,6,7,8-tetrahydro-1H-1,3,4
51 54 1 0 0 
SMALL
USER_CHARGES


@<TRIPOS>ATOM
  1 CL      -2.8720    -2.5430    -2.5390 Cl    1 <1>  -0.1840 
  2 C       -3.2540    -1.7780    -1.0200 C.ar  1 <1>   0.1700 
  3 C       -4.0680    -0.6650    -1.0200 C.ar  1 <1>  -0.1570 
  4 C       -2.7450    -2.3010     0.1530 C.ar  1 <1>  -0.1570 
  5 C       -4.3950    -0.0580     0.1840 C.ar  1 <1>   0.3050 
  6 C       -3.0590    -1.6910     1.3560 C.ar  1 <1>  -0.1570 
  7 N       -5.2510     1.0470     0.2080 N.pl3 1 <1>  -0.5800 
  8 C       -3.8800    -0.5750     1.3680 C.ar  1 <1>  -0.1570 
  9 C       -6.5700     0.9600    -0.0560 C.cat 1 <1>   1.0690 
 10 C       -4.6350     2.3880     0.4250 C.3   1 <1>   0.1610 
 11 N       -7.2580    -0.1480    -0.3220 N.pl3 1 <1>  -0.7040 
 12 N       -7.3770     2.0110    -0.0890 N.pl3 1 <1>  -0.7670 
 13 C       -5.6570     3.3910     0.9970 C.3   1 <1>  -0.0880 
 14 C       -8.5550     0.2090    -0.5410 C.2   1 <1>   0.4210 
 15 C       -8.6610     1.5490    -0.4080 C.2   1 <1>   0.2710 
 16 C       -6.9580     3.4040     0.1750 C.3   1 <1>   0.3480 
 17 C       -5.0440     4.7980     1.0740 C.3   1 <1>  -0.2470 
 18 N       -9.6210    -0.6120    -0.8500 N.am  1 <1>  -0.4410 
 19 C       -9.9360     2.1690    -0.6040 C.2   1 <1>   0.6990 
 20 C      -10.8610    -0.0210    -1.0610 C.2   1 <1>   0.6860 
 21 C       -9.4430    -2.0900    -0.9730 C.3   1 <1>   0.0520 
 22 O      -10.0740     3.3710    -0.4590 O.2   1 <1>  -0.5740 
 23 N      -11.0050     1.3580    -0.9560 N.am  1 <1>  -0.4260 
 24 O      -11.8190    -0.7140    -1.3320 O.2   1 <1>  -0.5740 
 25 C      -12.3410     1.9780    -1.2350 C.3   1 <1>   0.1330 
 26 C      -13.2150     1.9650     0.0190 C.3   1 <1>   0.1130 
 27 O      -14.4060     2.6150    -0.2820 O.3   1 <1>  -0.5650 
 28 C      -15.3120     2.6440     0.7720 C.3   1 <1>   0.0320 
 29 H       -4.4340    -0.2800    -1.9540 H     1 <1>   0.1430 
 30 H       -2.1090    -3.1700     0.1230 H     1 <1>   0.1430 
 31 H       -2.6620    -2.0860     2.2780 H     1 <1>   0.1430 
 32 H       -4.1210    -0.1070     2.3060 H     1 <1>   0.1430 
 33 H       -4.2560     2.7500    -0.5170 H     1 <1>   0.0720 
 34 H       -3.8040     2.3000     1.1050 H     1 <1>   0.0720 
 35 H       -6.8630    -1.0850    -0.3460 H     1 <1>   0.4450 
 36 H       -5.8980     3.0910     2.0030 H     1 <1>   0.0720 
 37 H       -7.7290     3.9270     0.7170 H     1 <1>   0.0720 
 38 H       -6.8030     3.9090    -0.7650 H     1 <1>   0.0720 
 39 H       -4.7740     5.1580     0.0960 H     1 <1>   0.0720 
 40 H       -4.1600     4.7890     1.6880 H     1 <1>   0.0720 
 41 H       -5.7440     5.4900     1.5110 H     1 <1>   0.0720 
 42 H       -9.0260    -2.3270    -1.9360 H     1 <1>   0.0720 
 43 H      -10.3890    -2.5980    -0.8770 H     1 <1>   0.0720 
 44 H       -8.7920    -2.4550    -0.1990 H     1 <1>   0.0720 
 45 H      -12.8390     1.4330    -2.0180 H     1 <1>   0.0720 
 46 H      -12.2150     2.9940    -1.5670 H     1 <1>   0.0720 
 47 H      -12.7350     2.4950     0.8230 H     1 <1>   0.0720 
 48 H      -13.4410     0.9530     0.3100 H     1 <1>   0.0720 
 49 H      -16.1940     3.1640     0.4390 H     1 <1>   0.0720 
 50 H      -14.8740     3.1680     1.6040 H     1 <1>   0.0720 
 51 H      -15.5690     1.6360     1.0480 H     1 <1>   0.0720 
@<TRIPOS>BOND
  1   1   2  1   
  2   2   3  ar  
  3   2   4  ar  
  4   3   5  ar  
  5   3  29  1   
  6   4   6  ar  
  7   4  30  1   
  8   5   7  1   
  9   5   8  ar  
 10   6   8  ar  
 11   6  31  1   
 12   7   9  ar  
 13   7  10  1   
 14   8  32  1   
 15   9  11  ar  
 16   9  12  ar  
 17  10  13  1   
 18  10  33  1   
 19  10  34  1   
 20  11  14  1   
 21  11  35  1   
 22  12  15  1   
 23  12  16  1   
 24  13  16  1   
 25  13  17  1   
 26  13  36  1   
 27  14  15  2   
 28  14  18  1   
 29  15  19  1   
 30  16  37  1   
 31  16  38  1   
 32  17  39  1   
 33  17  40  1   
 34  17  41  1   
 35  18  20  am  
 36  18  21  1   
 37  19  22  2   
 38  19  23  am  
 39  20  23  am  
 40  20  24  2   
 41  21  42  1   
 42  21  43  1   
 43  21  44  1   
 44  23  25  1   
 45  25  26  1   
 46  25  45  1   
 47  25  46  1   
 48  26  27  1   
 49  26  47  1   
 50  26  48  1   
 51  27  28  1   
 52  28  49  1   
 53  28  50  1   
 54  28  51  1   
@<TRIPOS>SUBSTRUCTURE
  1 ****  14 GROUP 4 **** **** 0

# MOE 2024.06 (io_trps.svl 2023.06)
