@<TRIPOS>MOLECULE
3-[(Furan-2-carbonyl)-amino]-4-(4-methyl-piperazin-1-yl)-benzoic acid methyl est
47 49 1 0 0 
SMALL
USER_CHARGES


@<TRIPOS>ATOM
  1 O        0.1740    -0.2920     0.1910 O.2   1 <1>  -0.5700 
  2 C        0.3310    -1.4790    -0.0180 C.2   1 <1>   0.6340 
  3 O       -0.7390    -2.2220    -0.3260 O.3   1 <1>  -0.4300 
  4 C        1.6200    -2.1350     0.0540 C.ar  1 <1>   0.0860 
  5 C       -2.0330    -1.6600    -0.4190 C.3   1 <1>   0.0400 
  6 C        2.7860    -1.4040     0.2920 C.ar  1 <1>  -0.1500 
  7 C        1.7650    -3.5150    -0.1040 C.ar  1 <1>  -0.1500 
  8 C        4.0320    -1.9990     0.3720 C.ar  1 <1>   0.1170 
  9 C        3.0020    -4.1270    -0.0330 C.ar  1 <1>  -0.1500 
 10 N        5.1470    -1.1930     0.6580 N.am  1 <1>  -0.5470 
 11 C        4.1550    -3.3900     0.2020 C.ar  1 <1>   0.1000 
 12 C        6.1330    -0.8090    -0.2110 C.2   1 <1>   0.7150 
 13 N        5.3940    -4.0350     0.2400 N.pl3 1 <1>  -0.8380 
 14 O        5.9710    -0.9770    -1.4070 O.2   1 <1>  -0.5700 
 15 C        7.3560    -0.2550     0.3220 C.2   1 <1>   0.0550 
 16 C        5.6670    -5.1180     1.2330 C.3   1 <1>   0.2090 
 17 C        6.2380    -3.9900    -0.9980 C.3   1 <1>   0.2090 
 18 O        8.4830    -0.2800    -0.3860 O.3   1 <1>  -0.2800 
 19 C        7.6220     0.3300     1.5250 C.2   1 <1>  -0.1500 
 20 C        5.9370    -6.4800     0.5540 C.3   1 <1>   0.3430 
 21 C        6.4890    -5.3880    -1.5940 C.3   1 <1>   0.3430 
 22 C        9.4440     0.2690     0.3210 C.2   1 <1>  -0.0100 
 23 C        8.9760     0.6680     1.5220 C.2   1 <1>  -0.1500 
 24 N        6.9490    -6.3860    -0.5600 N.4   1 <1>  -0.9590 
 25 C        7.2150    -7.7200    -1.1760 C.3   1 <1>   0.2630 
 26 H       -2.7260    -2.4400    -0.6770 H     1 <1>   0.0800 
 27 H       -2.0280    -0.9000    -1.1810 H     1 <1>   0.0800 
 28 H       -2.2940    -1.2300     0.5320 H     1 <1>   0.0800 
 29 H        2.7110    -0.3380     0.4160 H     1 <1>   0.1500 
 30 H        0.8920    -4.1180    -0.2900 H     1 <1>   0.1500 
 31 H        3.0710    -5.1880    -0.1690 H     1 <1>   0.1500 
 32 H        5.3940    -1.1350     1.6420 H     1 <1>   0.3700 
 33 H        4.8280    -5.2130     1.9030 H     1 <1>   0.0800 
 34 H        6.5210    -4.8380     1.8240 H     1 <1>   0.0800 
 35 H        7.1770    -3.5160    -0.7700 H     1 <1>   0.0800 
 36 H        5.7470    -3.3900    -1.7460 H     1 <1>   0.0800 
 37 H        6.9470     0.5200     2.3400 H     1 <1>   0.1500 
 38 H        5.0040    -6.8480     0.1600 H     1 <1>   0.0800 
 39 H        6.2760    -7.1790     1.3000 H     1 <1>   0.0800 
 40 H        7.2230    -5.3030    -2.3780 H     1 <1>   0.0800 
 41 H        5.5700    -5.7290    -2.0400 H     1 <1>   0.0800 
 42 H       10.4310     0.3400    -0.1030 H     1 <1>   0.1500 
 43 H        9.5100     1.1510     2.3220 H     1 <1>   0.1500 
 44 H        7.8230    -6.0200    -0.1550 H     1 <1>   0.4500 
 45 H        6.3130    -8.1190    -1.6110 H     1 <1>   0.0800 
 46 H        7.5740    -8.4120    -0.4310 H     1 <1>   0.0800 
 47 H        7.9610    -7.6340    -1.9500 H     1 <1>   0.0800 
@<TRIPOS>BOND
  1   1   2  2   
  2   2   3  1   
  3   2   4  1   
  4   3   5  1   
  5   4   6  ar  
  6   4   7  ar  
  7   5  26  1   
  8   5  27  1   
  9   5  28  1   
 10   6   8  ar  
 11   6  29  1   
 12   7   9  ar  
 13   7  30  1   
 14   8  10  1   
 15   8  11  ar  
 16   9  11  ar  
 17   9  31  1   
 18  10  12  am  
 19  10  32  1   
 20  11  13  1   
 21  12  14  2   
 22  12  15  1   
 23  13  16  1   
 24  13  17  1   
 25  15  18  1   
 26  15  19  2   
 27  16  20  1   
 28  16  33  1   
 29  16  34  1   
 30  17  21  1   
 31  17  35  1   
 32  17  36  1   
 33  18  22  1   
 34  19  23  1   
 35  19  37  1   
 36  20  24  1   
 37  20  38  1   
 38  20  39  1   
 39  21  24  1   
 40  21  40  1   
 41  21  41  1   
 42  22  23  2   
 43  22  42  1   
 44  23  43  1   
 45  24  25  1   
 46  24  44  1   
 47  25  45  1   
 48  25  46  1   
 49  25  47  1   
@<TRIPOS>SUBSTRUCTURE
  1 ****   8 GROUP 4 **** **** 0

# MOE 2024.06 (io_trps.svl 2023.06)
