@<TRIPOS>MOLECULE
7-(2-Fluoro-benzyl)-1,3-dimethyl-8-morpholin-4-ylmethyl-3,7-dihydro-purine-2,6-d
51 54 1 0 0 
SMALL
USER_CHARGES


@<TRIPOS>ATOM
  1 F        1.0400    -2.3830    -0.2990 F     1 <1>  -0.1900 
  2 C       -0.0890    -1.7470    -0.4490 C.ar  1 <1>   0.1900 
  3 C       -1.2330    -2.2270     0.1730 C.ar  1 <1>  -0.1440 
  4 C       -0.0830    -0.6090    -1.2330 C.ar  1 <1>  -0.1500 
  5 C       -2.4060    -1.5020     0.0000 C.ar  1 <1>  -0.1500 
  6 C       -1.2030    -3.4910     1.0220 C.3   1 <1>   0.4980 
  7 C       -1.2650     0.0900    -1.4010 C.ar  1 <1>  -0.1500 
  8 C       -2.4210    -0.3580    -0.7830 C.ar  1 <1>  -0.1500 
  9 N       -1.9050    -4.5910     0.2960 N.pl3 1 <1>  -0.7640 
 10 C       -3.2490    -4.9360     0.4550 C.2   1 <1>   0.2770 
 11 C       -1.3850    -5.4160    -0.6080 C.cat 1 <1>   0.6560 
 12 C       -4.3290    -4.4810     1.2860 C.2   1 <1>   0.7030 
 13 C       -3.4830    -5.9590    -0.4010 C.2   1 <1>   0.4260 
 14 N       -2.3250    -6.2520    -1.0480 N.pl3 1 <1>  -0.7000 
 15 C        0.0810    -5.4440    -1.0820 C.3   1 <1>   0.2540 
 16 O       -4.1740    -3.5720     2.0820 O.2   1 <1>  -0.5700 
 17 N       -5.5610    -5.1110     1.1670 N.am  1 <1>  -0.4200 
 18 N       -4.7120    -6.5740    -0.5470 N.am  1 <1>  -0.4360 
 19 N        1.0460    -5.7080     0.0140 N.3   1 <1>  -0.8100 
 20 C       -5.7590    -6.1420     0.2550 C.2   1 <1>   0.6900 
 21 C       -6.7150    -4.6690     2.0130 C.3   1 <1>   0.0600 
 22 C       -4.9120    -7.6760    -1.5360 C.3   1 <1>   0.0600 
 23 C        0.9350    -7.0800     0.5610 C.3   1 <1>   0.1100 
 24 C        2.4370    -5.4710    -0.4370 C.3   1 <1>   0.1100 
 25 O       -6.8490    -6.6670     0.1620 O.2   1 <1>  -0.5700 
 26 C        1.9960    -7.3350     1.6470 C.3   1 <1>   0.1200 
 27 C        3.4490    -5.7830     0.6800 C.3   1 <1>   0.1200 
 28 O        3.2730    -7.0910     1.1370 O.3   1 <1>  -0.5600 
 29 H        0.8270    -0.2740    -1.6980 H     1 <1>   0.1500 
 30 H       -3.3210    -1.8100     0.4750 H     1 <1>   0.1500 
 31 H       -1.6880    -3.3010     1.9640 H     1 <1>   0.0800 
 32 H       -0.1900    -3.7820     1.2440 H     1 <1>   0.0800 
 33 H       -1.2860     0.9810    -2.0060 H     1 <1>   0.1500 
 34 H       -3.3380     0.1940    -0.9080 H     1 <1>   0.1500 
 35 H       -2.2090    -6.9950    -1.7380 H     1 <1>   0.4500 
 36 H        0.3010    -4.4900    -1.5260 H     1 <1>   0.0800 
 37 H        0.1980    -6.1910    -1.8480 H     1 <1>   0.0800 
 38 H       -6.3790    -4.1350     2.8850 H     1 <1>   0.0800 
 39 H       -7.2810    -5.5240     2.3430 H     1 <1>   0.0800 
 40 H       -7.3600    -4.0290     1.4370 H     1 <1>   0.0800 
 41 H       -4.5320    -8.5990    -1.1340 H     1 <1>   0.0800 
 42 H       -4.4040    -7.4490    -2.4570 H     1 <1>   0.0800 
 43 H       -5.9580    -7.8060    -1.7590 H     1 <1>   0.0800 
 44 H        1.0710    -7.8060    -0.2230 H     1 <1>   0.0800 
 45 H       -0.0390    -7.2260     0.9950 H     1 <1>   0.0800 
 46 H        2.5570    -4.4430    -0.7320 H     1 <1>   0.0800 
 47 H        2.6650    -6.0920    -1.2870 H     1 <1>   0.0800 
 48 H        1.9640    -8.3600     1.9720 H     1 <1>   0.0800 
 49 H        1.8360    -6.6960     2.4980 H     1 <1>   0.0800 
 50 H        3.3250    -5.1050     1.5070 H     1 <1>   0.0800 
 51 H        4.4550    -5.6970     0.3090 H     1 <1>   0.0800 
@<TRIPOS>BOND
  1   1   2  1   
  2   2   3  ar  
  3   2   4  ar  
  4   3   5  ar  
  5   3   6  1   
  6   4   7  ar  
  7   4  29  1   
  8   5   8  ar  
  9   5  30  1   
 10   6   9  1   
 11   6  31  1   
 12   6  32  1   
 13   7   8  ar  
 14   7  33  1   
 15   8  34  1   
 16   9  10  1   
 17   9  11  ar  
 18  10  12  1   
 19  10  13  2   
 20  11  14  ar  
 21  11  15  1   
 22  12  16  2   
 23  12  17  am  
 24  13  14  1   
 25  13  18  1   
 26  14  35  1   
 27  15  19  1   
 28  15  36  1   
 29  15  37  1   
 30  17  20  am  
 31  17  21  1   
 32  18  20  am  
 33  18  22  1   
 34  19  23  1   
 35  19  24  1   
 36  20  25  2   
 37  21  38  1   
 38  21  39  1   
 39  21  40  1   
 40  22  41  1   
 41  22  42  1   
 42  22  43  1   
 43  23  26  1   
 44  23  44  1   
 45  23  45  1   
 46  24  27  1   
 47  24  46  1   
 48  24  47  1   
 49  26  28  1   
 50  26  48  1   
 51  26  49  1   
 52  27  28  1   
 53  27  50  1   
 54  27  51  1   
@<TRIPOS>SUBSTRUCTURE
  1 ****   9 GROUP 4 **** **** 0

# MOE 2024.06 (io_trps.svl 2023.06)
