@<TRIPOS>MOLECULE
8-(2,6-Dimethyl-morpholin-4-ylmethyl)-7-(2-fluoro-benzyl)-1,3-dimethyl-3,7-dihyd
57 60 1 0 0 
SMALL
USER_CHARGES


@<TRIPOS>ATOM
  1 F       -1.5810    -1.2720     2.0570 F     1 <1>  -0.1900 
  2 C       -1.7690    -1.2240     0.7650 C.ar  1 <1>   0.1900 
  3 C       -1.5280    -2.3550    -0.0010 C.ar  1 <1>  -0.1440 
  4 C       -2.1930    -0.0270     0.2190 C.ar  1 <1>  -0.1500 
  5 C       -1.7090    -2.2510    -1.3760 C.ar  1 <1>  -0.1500 
  6 C       -1.0730    -3.6440     0.6750 C.3   1 <1>   0.4980 
  7 C       -2.3770     0.0520    -1.1500 C.ar  1 <1>  -0.1500 
  8 C       -2.1320    -1.0580    -1.9430 C.ar  1 <1>  -0.1500 
  9 N       -1.7130    -4.8250     0.0240 N.pl3 1 <1>  -0.7640 
 10 C       -3.0770    -5.1130     0.1030 C.2   1 <1>   0.2770 
 11 C       -1.1440    -5.7690    -0.7170 C.cat 1 <1>   0.6560 
 12 C       -4.2070    -4.5190     0.7600 C.2   1 <1>   0.7030 
 13 C       -3.2700    -6.2350    -0.6290 C.2   1 <1>   0.4260 
 14 N       -2.0700    -6.6350    -1.1290 N.pl3 1 <1>  -0.7000 
 15 C        0.3520    -5.8760    -1.0660 C.3   1 <1>   0.2540 
 16 O       -4.0780    -3.5750     1.5180 O.2   1 <1>  -0.5700 
 17 N       -5.4600    -5.0720     0.5320 N.am  1 <1>  -0.4200 
 18 N       -4.5040    -6.8330    -0.8050 N.am  1 <1>  -0.4360 
 19 N        1.2630    -5.8320     0.1130 N.3   1 <1>  -0.8100 
 20 C       -5.6120    -6.2250    -0.2310 C.2   1 <1>   0.6900 
 21 C       -6.6700    -4.4460     1.1530 C.3   1 <1>   0.0600 
 22 C       -4.6500    -8.0790    -1.6160 C.3   1 <1>   0.0600 
 23 C        2.6810    -5.8940    -0.3130 C.3   1 <1>   0.1100 
 24 C        1.0350    -6.9340     1.0820 C.3   1 <1>   0.1100 
 25 O       -6.7150    -6.7030    -0.3940 O.2   1 <1>  -0.5700 
 26 C        3.1500    -7.3060    -0.7720 C.3   1 <1>   0.2000 
 27 C        1.4770    -8.3350     0.5760 C.3   1 <1>   0.2000 
 28 O        2.1290    -8.2620    -0.6600 O.3   1 <1>  -0.5600 
 29 C        4.3880    -7.8040    -0.0190 C.3   1 <1>  -0.2400 
 30 C        0.2940    -9.2830     0.3840 C.3   1 <1>  -0.2400 
 31 H       -2.3730     0.8220     0.8540 H     1 <1>   0.1500 
 32 H       -1.5250    -3.0890    -2.0240 H     1 <1>   0.1500 
 33 H       -1.3410    -3.6400     1.7180 H     1 <1>   0.0800 
 34 H       -0.0010    -3.7050     0.6160 H     1 <1>   0.0800 
 35 H       -2.7070     0.9740    -1.5970 H     1 <1>   0.1500 
 36 H       -2.2720    -0.9870    -3.0090 H     1 <1>   0.1500 
 37 H       -1.9130    -7.4590    -1.7100 H     1 <1>   0.4500 
 38 H        0.5930    -5.0510    -1.7140 H     1 <1>   0.0800 
 39 H        0.5090    -6.7780    -1.6280 H     1 <1>   0.0800 
 40 H       -6.5080    -3.3980     1.3380 H     1 <1>   0.0800 
 41 H       -6.8910    -4.9360     2.0850 H     1 <1>   0.0800 
 42 H       -7.5200    -4.5420     0.4990 H     1 <1>   0.0800 
 43 H       -3.8360    -8.7540    -1.4160 H     1 <1>   0.0800 
 44 H       -4.6640    -7.8320    -2.6630 H     1 <1>   0.0800 
 45 H       -5.5680    -8.5870    -1.3720 H     1 <1>   0.0800 
 46 H        3.2960    -5.5810     0.5140 H     1 <1>   0.0800 
 47 H        2.8630    -5.1860    -1.1030 H     1 <1>   0.0800 
 48 H        0.0060    -6.9570     1.3930 H     1 <1>   0.0800 
 49 H        1.6050    -6.7190     1.9700 H     1 <1>   0.0800 
 50 H        3.4000    -7.2570    -1.8180 H     1 <1>   0.0800 
 51 H        2.1550    -8.7760     1.2870 H     1 <1>   0.0800 
 52 H        4.2240    -7.8100     1.0430 H     1 <1>   0.0800 
 53 H        5.2210    -7.1570    -0.2250 H     1 <1>   0.0800 
 54 H        4.6420    -8.7950    -0.3490 H     1 <1>   0.0800 
 55 H       -0.3860    -8.8990    -0.3510 H     1 <1>   0.0800 
 56 H       -0.2290    -9.4130     1.3140 H     1 <1>   0.0800 
 57 H        0.6540   -10.2450     0.0650 H     1 <1>   0.0800 
@<TRIPOS>BOND
  1   1   2  1   
  2   2   3  ar  
  3   2   4  ar  
  4   3   5  ar  
  5   3   6  1   
  6   4   7  ar  
  7   4  31  1   
  8   5   8  ar  
  9   5  32  1   
 10   6   9  1   
 11   6  33  1   
 12   6  34  1   
 13   7   8  ar  
 14   7  35  1   
 15   8  36  1   
 16   9  10  1   
 17   9  11  ar  
 18  10  12  1   
 19  10  13  2   
 20  11  14  ar  
 21  11  15  1   
 22  12  16  2   
 23  12  17  am  
 24  13  14  1   
 25  13  18  1   
 26  14  37  1   
 27  15  19  1   
 28  15  38  1   
 29  15  39  1   
 30  17  20  am  
 31  17  21  1   
 32  18  20  am  
 33  18  22  1   
 34  19  23  1   
 35  19  24  1   
 36  20  25  2   
 37  21  40  1   
 38  21  41  1   
 39  21  42  1   
 40  22  43  1   
 41  22  44  1   
 42  22  45  1   
 43  23  26  1   
 44  23  46  1   
 45  23  47  1   
 46  24  27  1   
 47  24  48  1   
 48  24  49  1   
 49  26  28  1   
 50  26  29  1   
 51  26  50  1   
 52  27  28  1   
 53  27  30  1   
 54  27  51  1   
 55  29  52  1   
 56  29  53  1   
 57  29  54  1   
 58  30  55  1   
 59  30  56  1   
 60  30  57  1   
@<TRIPOS>SUBSTRUCTURE
  1 ****   9 GROUP 4 **** **** 0

# MOE 2024.06 (io_trps.svl 2023.06)
