@<TRIPOS>MOLECULE
1-(5-Fluoro-2-methoxy-benzenesulfonyl)-4-o-tolyl-piperazine
46 48 1 0 0 
SMALL
USER_CHARGES


@<TRIPOS>ATOM
  1 S       -0.0900     0.0120     1.2230 S.o2  1 <1>   1.4470 
  2 O       -0.5880     1.2760     1.7250 O.2   1 <1>  -0.6500 
  3 O        0.3330    -0.9730     2.1950 O.2   1 <1>  -0.6500 
  4 N       -1.3520    -0.7070     0.3470 N.am  1 <1>  -0.8490 
  5 C        1.2540     0.2120     0.0190 C.ar  1 <1>  -0.0090 
  6 C       -2.3780    -1.2420     1.2650 C.3   1 <1>   0.1960 
  7 C       -1.9860     0.2320    -0.6030 C.3   1 <1>   0.1960 
  8 C        1.3650     1.3320    -0.8080 C.ar  1 <1>   0.0820 
  9 C        2.2160    -0.7840    -0.1160 C.ar  1 <1>  -0.1500 
 10 C       -3.5410    -1.9390     0.5320 C.3   1 <1>   0.2090 
 11 C       -3.1380    -0.4060    -1.4050 C.3   1 <1>   0.2090 
 12 O        0.4450     2.3160    -0.7540 O.3   1 <1>  -0.3630 
 13 C        2.3960     1.4610    -1.7330 C.ar  1 <1>  -0.1500 
 14 C        3.2370    -0.6410    -1.0350 C.ar  1 <1>   0.1900 
 15 N       -4.1420    -1.0810    -0.5320 N.pl3 1 <1>  -0.8380 
 16 C        0.8200     3.4990    -0.0820 C.3   1 <1>   0.0400 
 17 C        3.3490     0.4670    -1.8500 C.ar  1 <1>  -0.1500 
 18 F        4.1290    -1.5900    -1.1380 F     1 <1>  -0.1900 
 19 C       -5.3300    -0.4090    -0.2460 C.ar  1 <1>   0.1000 
 20 C       -6.5380    -0.8250    -0.8080 C.ar  1 <1>  -0.1440 
 21 C       -5.3300     0.6910     0.6070 C.ar  1 <1>  -0.1500 
 22 C       -7.7090    -0.1450    -0.5130 C.ar  1 <1>  -0.1500 
 23 C       -6.5780    -2.0220    -1.7460 C.3   1 <1>  -0.0970 
 24 C       -6.5010     1.3660     0.8980 C.ar  1 <1>  -0.1500 
 25 C       -7.6940     0.9480     0.3370 C.ar  1 <1>  -0.1500 
 26 H       -2.7750    -0.4470     1.8720 H     1 <1>   0.0800 
 27 H       -1.9270    -1.9610     1.9270 H     1 <1>   0.0800 
 28 H       -1.2540     0.5770    -1.3090 H     1 <1>   0.0800 
 29 H       -2.3650     1.0920    -0.0780 H     1 <1>   0.0800 
 30 H        2.1740    -1.6710     0.4930 H     1 <1>   0.1500 
 31 H       -4.3020    -2.2070     1.2440 H     1 <1>   0.0800 
 32 H       -3.1790    -2.8460     0.0810 H     1 <1>   0.0800 
 33 H       -2.7310    -1.1310    -2.0870 H     1 <1>   0.0800 
 34 H       -3.6290     0.3540    -1.9880 H     1 <1>   0.0800 
 35 H        2.4450     2.3340    -2.3600 H     1 <1>   0.1500 
 36 H       -0.0230     4.1650    -0.0790 H     1 <1>   0.0800 
 37 H        1.6480     3.9520    -0.5970 H     1 <1>   0.0800 
 38 H        1.0930     3.2540     0.9300 H     1 <1>   0.0800 
 39 H        4.1580     0.5420    -2.5560 H     1 <1>   0.1500 
 40 H       -4.4080     1.0190     1.0440 H     1 <1>   0.1500 
 41 H       -8.6420    -0.4620    -0.9440 H     1 <1>   0.1500 
 42 H       -5.9470    -1.8360    -2.5950 H     1 <1>   0.0800 
 43 H       -7.5770    -2.2150    -2.0920 H     1 <1>   0.0800 
 44 H       -6.2150    -2.8940    -1.2330 H     1 <1>   0.0800 
 45 H       -6.4850     2.2140     1.5590 H     1 <1>   0.1500 
 46 H       -8.6080     1.4690     0.5600 H     1 <1>   0.1500 
@<TRIPOS>BOND
  1   1   2  2   
  2   1   3  2   
  3   1   4  am  
  4   1   5  1   
  5   4   6  1   
  6   4   7  1   
  7   5   8  ar  
  8   5   9  ar  
  9   6  10  1   
 10   6  26  1   
 11   6  27  1   
 12   7  11  1   
 13   7  28  1   
 14   7  29  1   
 15   8  12  1   
 16   8  13  ar  
 17   9  14  ar  
 18   9  30  1   
 19  10  15  1   
 20  10  31  1   
 21  10  32  1   
 22  11  15  1   
 23  11  33  1   
 24  11  34  1   
 25  12  16  1   
 26  13  17  ar  
 27  13  35  1   
 28  14  17  ar  
 29  14  18  1   
 30  15  19  1   
 31  16  36  1   
 32  16  37  1   
 33  16  38  1   
 34  17  39  1   
 35  19  20  ar  
 36  19  21  ar  
 37  20  22  ar  
 38  20  23  1   
 39  21  24  ar  
 40  21  40  1   
 41  22  25  ar  
 42  22  41  1   
 43  23  42  1   
 44  23  43  1   
 45  23  44  1   
 46  24  25  ar  
 47  24  45  1   
 48  25  46  1   
@<TRIPOS>SUBSTRUCTURE
  1 ****   7 GROUP 4 **** **** 0

# MOE 2024.06 (io_trps.svl 2023.06)
