@<TRIPOS>MOLECULE
3-(2-Chloro-6-fluoro-phenyl)-4,5-dihydro-isoxazole-5-carboxylic acid propylamide
33 34 1 0 0 
SMALL
USER_CHARGES


@<TRIPOS>ATOM
  1 CL      -0.4330     0.9580    -1.0580 Cl    1 <1>  -0.1770 
  2 C       -0.3550     2.0530     0.3010 C.ar  1 <1>   0.1770 
  3 C        0.8410     2.7040     0.6010 C.ar  1 <1>   0.0860 
  4 C       -1.5130     2.2540     1.0330 C.ar  1 <1>  -0.1500 
  5 C        0.7910     3.5840     1.6800 C.ar  1 <1>   0.1900 
  6 C        2.0460     2.4810    -0.1460 C.2   1 <1>   0.3030 
  7 C       -1.5140     3.1350     2.1040 C.ar  1 <1>  -0.1500 
  8 F        1.8730     4.2360     2.0140 F     1 <1>  -0.1900 
  9 C       -0.3490     3.8090     2.4300 C.ar  1 <1>  -0.1500 
 10 N        2.7690     1.4420    -0.1400 N.2   1 <1>  -0.5130 
 11 C        2.5850     3.5430    -1.0620 C.3   1 <1>  -0.0990 
 12 O        3.7990     1.5870    -0.9430 O.3   1 <1>  -0.2170 
 13 C        3.8980     2.8930    -1.4880 C.3   1 <1>   0.2610 
 14 C        5.1210     3.6140    -0.9180 C.2   1 <1>   0.5690 
 15 O        5.5830     4.5470    -1.5320 O.2   1 <1>  -0.5700 
 16 N        5.6360     3.2090     0.2750 N.am  1 <1>  -0.7300 
 17 C        6.8000     3.7920     0.9680 C.3   1 <1>   0.1400 
 18 C        7.8140     2.6840     1.2510 C.3   1 <1>  -0.1600 
 19 C        9.0470     3.2300     1.9780 C.3   1 <1>  -0.2400 
 20 H       -2.4100     1.7240     0.7630 H     1 <1>   0.1500 
 21 H       -2.4130     3.2930     2.6770 H     1 <1>   0.1500 
 22 H       -0.3230     4.4990     3.2550 H     1 <1>   0.1500 
 23 H        2.7470     4.4770    -0.5560 H     1 <1>   0.0800 
 24 H        1.9390     3.6850    -1.9080 H     1 <1>   0.0800 
 25 H        3.9770     2.8070    -2.5560 H     1 <1>   0.0800 
 26 H        5.2000     2.3910     0.7180 H     1 <1>   0.3700 
 27 H        6.4730     4.2430     1.8890 H     1 <1>   0.0800 
 28 H        7.2480     4.5550     0.3530 H     1 <1>   0.0800 
 29 H        8.1220     2.2420     0.3190 H     1 <1>   0.0800 
 30 H        7.3550     1.9230     1.8580 H     1 <1>   0.0800 
 31 H        9.5340     3.9810     1.3800 H     1 <1>   0.0800 
 32 H        9.7470     2.4340     2.1630 H     1 <1>   0.0800 
 33 H        8.7680     3.6650     2.9220 H     1 <1>   0.0800 
@<TRIPOS>BOND
  1   1   2  1   
  2   2   3  ar  
  3   2   4  ar  
  4   3   5  ar  
  5   3   6  1   
  6   4   7  ar  
  7   4  20  1   
  8   5   8  1   
  9   5   9  ar  
 10   6  10  2   
 11   6  11  1   
 12   7   9  ar  
 13   7  21  1   
 14   9  22  1   
 15  10  12  1   
 16  11  13  1   
 17  11  23  1   
 18  11  24  1   
 19  12  13  1   
 20  13  14  1   
 21  13  25  1   
 22  14  15  2   
 23  14  16  am  
 24  16  17  1   
 25  16  26  1   
 26  17  18  1   
 27  17  27  1   
 28  17  28  1   
 29  18  19  1   
 30  18  29  1   
 31  18  30  1   
 32  19  31  1   
 33  19  32  1   
 34  19  33  1   
@<TRIPOS>SUBSTRUCTURE
  1 ****   6 GROUP 4 **** **** 0

# MOE 2024.06 (io_trps.svl 2023.06)
