@<TRIPOS>MOLECULE
2-Butyl-pyrimidine-5-carbaldehyde
24 24 1 0 0 
SMALL
USER_CHARGES


@<TRIPOS>ATOM
  1 O       -0.8350     0.6470     1.2280 O.2   1 <1>  -0.5700 
  2 C       -1.5210     0.7140     0.2430 C.2   1 <1>   0.4240 
  3 C       -2.7460    -0.0090     0.0520 C.ar  1 <1>   0.0860 
  4 C       -3.2570    -0.8660     1.0080 C.ar  1 <1>   0.1600 
  5 C       -3.4990     0.1010    -1.1020 C.ar  1 <1>   0.1600 
  6 N       -4.3790    -1.5350     0.8490 N.ar  1 <1>  -0.6200 
  7 N       -4.6230    -0.5520    -1.2940 N.ar  1 <1>  -0.6200 
  8 C       -5.0070    -1.3410    -0.3010 C.ar  1 <1>   0.4770 
  9 C       -6.3070    -2.1010    -0.5000 C.3   1 <1>  -0.0160 
 10 C       -7.5180    -1.2990     0.0010 C.3   1 <1>  -0.1600 
 11 C       -8.8280    -2.0700    -0.2000 C.3   1 <1>  -0.1600 
 12 C      -10.0250    -1.2590     0.3040 C.3   1 <1>  -0.2400 
 13 H       -1.2010     1.3590    -0.5560 H     1 <1>   0.0600 
 14 H       -2.7190    -0.9980     1.9330 H     1 <1>   0.1500 
 15 H       -3.1650     0.7500    -1.8940 H     1 <1>   0.1500 
 16 H       -6.2470    -3.0360     0.0280 H     1 <1>   0.0800 
 17 H       -6.4240    -2.3200    -1.5460 H     1 <1>   0.0800 
 18 H       -7.5630    -0.3630    -0.5300 H     1 <1>   0.0800 
 19 H       -7.3840    -1.0800     1.0470 H     1 <1>   0.0800 
 20 H       -8.7850    -3.0040     0.3330 H     1 <1>   0.0800 
 21 H       -8.9650    -2.2870    -1.2460 H     1 <1>   0.0800 
 22 H       -9.9210    -1.0470     1.3540 H     1 <1>   0.0800 
 23 H      -10.9350    -1.8140     0.1560 H     1 <1>   0.0800 
 24 H      -10.1020    -0.3280    -0.2310 H     1 <1>   0.0800 
@<TRIPOS>BOND
  1   1   2  2   
  2   2   3  1   
  3   2  13  1   
  4   3   4  ar  
  5   3   5  ar  
  6   4   6  ar  
  7   4  14  1   
  8   5   7  ar  
  9   5  15  1   
 10   6   8  ar  
 11   7   8  ar  
 12   8   9  1   
 13   9  10  1   
 14   9  16  1   
 15   9  17  1   
 16  10  11  1   
 17  10  18  1   
 18  10  19  1   
 19  11  12  1   
 20  11  20  1   
 21  11  21  1   
 22  12  22  1   
 23  12  23  1   
 24  12  24  1   
@<TRIPOS>SUBSTRUCTURE
  1 ****   8 GROUP 4 **** **** 0

# MOE 2024.06 (io_trps.svl 2023.06)
