@<TRIPOS>MOLECULE
5-(2,4-Dichloro-phenyl)-isoxazole-3-carboxylic acid cyclopentylamide
35 37 1 0 0 
SMALL
USER_CHARGES


@<TRIPOS>ATOM
  1 CL       1.0980     0.3060    -0.9040 Cl    1 <1>  -0.1770 
  2 C        0.1480     1.7230    -0.5290 C.ar  1 <1>   0.1770 
  3 C        0.7720     2.9310    -0.1950 C.ar  1 <1>   0.0530 
  4 C       -1.2270     1.5880    -0.5570 C.ar  1 <1>  -0.1500 
  5 C        2.2040     3.0970    -0.1690 C.2   1 <1>   0.0870 
  6 C       -0.0550     4.0100     0.1250 C.ar  1 <1>  -0.1500 
  7 C       -2.0080     2.6810    -0.2390 C.ar  1 <1>   0.1770 
  8 O        2.9450     2.7000    -1.1910 O.3   1 <1>  -0.0190 
  9 C        2.9860     3.6500     0.7740 C.2   1 <1>  -0.1500 
 10 C       -1.4340     3.8910     0.1040 C.ar  1 <1>  -0.1500 
 11 CL      -3.7440     2.5320    -0.2670 Cl    1 <1>  -0.1770 
 12 N        4.1920     2.9910    -0.9110 N.2   1 <1>  -0.4100 
 13 C        4.2640     3.5600     0.2570 C.2   1 <1>   0.2030 
 14 C        5.4730     4.0260     0.9130 C.2   1 <1>   0.7160 
 15 O        5.4240     4.5680     2.0040 O.2   1 <1>  -0.5700 
 16 N        6.6850     3.8650     0.3080 N.am  1 <1>  -0.7300 
 17 C        7.9960     4.2810     0.8300 C.3   1 <1>   0.2200 
 18 C        8.6620     5.1940    -0.1910 C.3   1 <1>  -0.1600 
 19 C        8.9160     3.0670     0.8670 C.3   1 <1>  -0.1600 
 20 C        9.2760     4.2640    -1.2440 C.3   1 <1>  -0.1600 
 21 C        9.4420     2.8980    -0.5630 C.3   1 <1>  -0.1600 
 22 H       -1.6810     0.6500    -0.8190 H     1 <1>   0.1500 
 23 H        0.3900     4.9550     0.3880 H     1 <1>   0.1500 
 24 H        2.7240     4.0760     1.7250 H     1 <1>   0.1500 
 25 H       -2.0650     4.7280     0.3500 H     1 <1>   0.1500 
 26 H        6.7030     3.4080    -0.6050 H     1 <1>   0.3700 
 27 H        7.8960     4.7490     1.7960 H     1 <1>   0.0800 
 28 H        9.4520     5.7340     0.3010 H     1 <1>   0.0800 
 29 H        7.9730     5.9040    -0.6130 H     1 <1>   0.0800 
 30 H        8.4160     2.1870     1.2340 H     1 <1>   0.0800 
 31 H        9.7420     3.2870     1.5190 H     1 <1>   0.0800 
 32 H       10.2200     4.6480    -1.5920 H     1 <1>   0.0800 
 33 H        8.6090     4.1700    -2.0840 H     1 <1>   0.0800 
 34 H        8.8570     2.1600    -1.0850 H     1 <1>   0.0800 
 35 H       10.4720     2.5840    -0.5580 H     1 <1>   0.0800 
@<TRIPOS>BOND
  1   1   2  1   
  2   2   3  ar  
  3   2   4  ar  
  4   3   5  1   
  5   3   6  ar  
  6   4   7  ar  
  7   4  22  1   
  8   5   8  1   
  9   5   9  2   
 10   6  10  ar  
 11   6  23  1   
 12   7  10  ar  
 13   7  11  1   
 14   8  12  1   
 15   9  13  1   
 16   9  24  1   
 17  10  25  1   
 18  12  13  2   
 19  13  14  1   
 20  14  15  2   
 21  14  16  am  
 22  16  17  1   
 23  16  26  1   
 24  17  18  1   
 25  17  19  1   
 26  17  27  1   
 27  18  20  1   
 28  18  28  1   
 29  18  29  1   
 30  19  21  1   
 31  19  30  1   
 32  19  31  1   
 33  20  21  1   
 34  20  32  1   
 35  20  33  1   
 36  21  34  1   
 37  21  35  1   
@<TRIPOS>SUBSTRUCTURE
  1 ****  13 GROUP 4 **** **** 0

# MOE 2024.06 (io_trps.svl 2023.06)
