@<TRIPOS>MOLECULE
1-Benzo[1,3]dioxol-5-ylmethyl-4-(5-chloro-2-methoxy-benzenesulfonyl)-piperazine
50 53 1 0 0 
SMALL
USER_CHARGES


@<TRIPOS>ATOM
  1 CL      -0.4450     0.2860    -0.7850 Cl    1 <1>  -0.1770 
  2 C       -2.0550     0.9280    -0.5890 C.ar  1 <1>   0.1770 
  3 C       -2.9560     0.2630     0.2190 C.ar  1 <1>  -0.1500 
  4 C       -2.4050     2.0900    -1.2460 C.ar  1 <1>  -0.1500 
  5 C       -4.2470     0.7520     0.3920 C.ar  1 <1>  -0.0090 
  6 C       -3.6830     2.5920    -1.0850 C.ar  1 <1>  -0.1500 
  7 S       -5.4220    -0.1300     1.4510 S.o2  1 <1>   1.4470 
  8 C       -4.6000     1.9300    -0.2680 C.ar  1 <1>   0.0830 
  9 O       -6.0080     0.7460     2.4420 O.2   1 <1>  -0.6500 
 10 O       -4.8140    -1.3630     1.9050 O.2   1 <1>  -0.6500 
 11 N       -6.6740    -0.6000     0.3900 N.am  1 <1>  -0.8490 
 12 O       -5.8550     2.4110    -0.0980 O.3   1 <1>  -0.3630 
 13 C       -7.9620     0.0430     0.7100 C.3   1 <1>   0.1960 
 14 C       -6.8030    -2.0600     0.2380 C.3   1 <1>   0.1960 
 15 C       -6.0920     3.8040    -0.1200 C.3   1 <1>   0.0400 
 16 C       -9.0440    -0.2960    -0.3340 C.3   1 <1>   0.3430 
 17 C       -7.8750    -2.4360    -0.8080 C.3   1 <1>   0.3430 
 18 N       -9.2030    -1.7840    -0.5280 N.4   1 <1>  -0.9590 
 19 C      -10.2080    -2.0960    -1.5800 C.3   1 <1>   0.4860 
 20 C      -11.5530    -1.5620    -1.1290 C.ar  1 <1>  -0.1430 
 21 C      -12.2460    -2.2040    -0.1060 C.ar  1 <1>  -0.1500 
 22 C      -12.0930    -0.4230    -1.7320 C.ar  1 <1>  -0.1500 
 23 C      -13.4560    -1.6730     0.2920 C.ar  1 <1>   0.0830 
 24 C      -13.3140     0.0920    -1.3160 C.ar  1 <1>  -0.1500 
 25 O      -14.2760    -2.1170     1.2480 O.3   1 <1>  -0.3630 
 26 C      -13.9760    -0.5570    -0.2940 C.ar  1 <1>   0.0830 
 27 C      -15.4020    -1.2380     1.2620 C.3   1 <1>   0.4000 
 28 O      -15.1490    -0.2480     0.2660 O.3   1 <1>  -0.3620 
 29 H       -2.6400    -0.6390     0.7150 H     1 <1>   0.1500 
 30 H       -1.6860     2.5880    -1.8720 H     1 <1>   0.1500 
 31 H       -3.9520     3.4920    -1.6060 H     1 <1>   0.1500 
 32 H       -7.8390     1.1120     0.7340 H     1 <1>   0.0800 
 33 H       -8.2940    -0.2650     1.6880 H     1 <1>   0.0800 
 34 H       -7.0480    -2.5080     1.1870 H     1 <1>   0.0800 
 35 H       -5.8590    -2.4710    -0.0820 H     1 <1>   0.0800 
 36 H       -7.0720     3.9860     0.2830 H     1 <1>   0.0800 
 37 H       -6.0460     4.1550    -1.1350 H     1 <1>   0.0800 
 38 H       -5.3540     4.2960     0.4900 H     1 <1>   0.0800 
 39 H       -8.7650     0.1650    -1.2670 H     1 <1>   0.0800 
 40 H       -9.9800     0.1360    -0.0190 H     1 <1>   0.0800 
 41 H       -7.9870    -3.5080    -0.8250 H     1 <1>   0.0800 
 42 H       -7.5180    -2.1260    -1.7760 H     1 <1>   0.0800 
 43 H       -9.5740    -2.1580     0.3540 H     1 <1>   0.4500 
 44 H      -10.2800    -3.1630    -1.7230 H     1 <1>   0.0800 
 45 H       -9.9250    -1.6430    -2.5160 H     1 <1>   0.0800 
 46 H      -11.8840    -3.0920     0.3810 H     1 <1>   0.1500 
 47 H      -11.5740     0.0760    -2.5340 H     1 <1>   0.1500 
 48 H      -13.7490     0.9670    -1.7680 H     1 <1>   0.1500 
 49 H      -15.4850    -0.7690     2.2260 H     1 <1>   0.0800 
 50 H      -16.2920    -1.7870     1.0070 H     1 <1>   0.0800 
@<TRIPOS>BOND
  1   1   2  1   
  2   2   3  ar  
  3   2   4  ar  
  4   3   5  ar  
  5   3  29  1   
  6   4   6  ar  
  7   4  30  1   
  8   5   7  1   
  9   5   8  ar  
 10   6   8  ar  
 11   6  31  1   
 12   7   9  2   
 13   7  10  2   
 14   7  11  am  
 15   8  12  1   
 16  11  13  1   
 17  11  14  1   
 18  12  15  1   
 19  13  16  1   
 20  13  32  1   
 21  13  33  1   
 22  14  17  1   
 23  14  34  1   
 24  14  35  1   
 25  15  36  1   
 26  15  37  1   
 27  15  38  1   
 28  16  18  1   
 29  16  39  1   
 30  16  40  1   
 31  17  18  1   
 32  17  41  1   
 33  17  42  1   
 34  18  19  1   
 35  18  43  1   
 36  19  20  1   
 37  19  44  1   
 38  19  45  1   
 39  20  21  ar  
 40  20  22  ar  
 41  21  23  ar  
 42  21  46  1   
 43  22  24  ar  
 44  22  47  1   
 45  23  25  1   
 46  23  26  ar  
 47  24  26  ar  
 48  24  48  1   
 49  25  27  1   
 50  26  28  1   
 51  27  28  1   
 52  27  49  1   
 53  27  50  1   
@<TRIPOS>SUBSTRUCTURE
  1 ****  13 GROUP 4 **** **** 0

# MOE 2024.06 (io_trps.svl 2023.06)
