@<TRIPOS>MOLECULE
N-{1-[3-(2-Chloro-phenyl)-[1,2,4]oxadiazol-5-yl]-ethyl}-propionamide
33 34 1 0 0 
SMALL
USER_CHARGES


@<TRIPOS>ATOM
  1 CL       1.2690    -1.2550     2.6150 Cl    1 <1>  -0.1770 
  2 C        0.9990    -2.2130     1.1760 C.ar  1 <1>   0.1770 
  3 C        1.6760    -1.9280    -0.0100 C.ar  1 <1>   0.0540 
  4 C        0.1070    -3.2650     1.2770 C.ar  1 <1>  -0.1500 
  5 C        2.6000    -0.8250    -0.1390 C.2   1 <1>   0.4620 
  6 C        1.4300    -2.7690    -1.0960 C.ar  1 <1>  -0.1500 
  7 C       -0.1260    -4.0750     0.1800 C.ar  1 <1>  -0.1500 
  8 N        3.8010    -0.9140    -0.5860 N.2   1 <1>  -0.4100 
  9 N        2.2750     0.4320     0.1660 N.2   1 <1>  -0.5650 
 10 C        0.5410    -3.8260    -1.0060 C.ar  1 <1>  -0.1500 
 11 O        4.3200     0.2730    -0.5650 O.3   1 <1>  -0.0190 
 12 C        3.3620     1.0360    -0.1050 C.2   1 <1>   0.2980 
 13 C        3.6580     2.5330     0.0410 C.3   1 <1>   0.4000 
 14 N        4.6270     2.7730     1.1300 N.am  1 <1>  -0.7300 
 15 C        2.4120     3.3650     0.3500 C.3   1 <1>  -0.2400 
 16 C        5.9530     3.0140     1.0590 C.2   1 <1>   0.5690 
 17 O        6.5730     3.1640     2.0800 O.2   1 <1>  -0.5700 
 18 C        6.6580     3.0960    -0.2920 C.3   1 <1>  -0.0990 
 19 C        8.1860     3.2560    -0.2080 C.3   1 <1>  -0.2400 
 20 H       -0.3980    -3.4470     2.2090 H     1 <1>   0.1500 
 21 H        1.9450    -2.5860    -2.0250 H     1 <1>   0.1500 
 22 H       -0.8190    -4.8970     0.2500 H     1 <1>   0.1500 
 23 H        0.3680    -4.4570    -1.8620 H     1 <1>   0.1500 
 24 H        4.0690     2.8790    -0.8910 H     1 <1>   0.0800 
 25 H        4.2520     2.6600     2.0740 H     1 <1>   0.3700 
 26 H        1.9640     3.0430     1.2740 H     1 <1>   0.0800 
 27 H        1.6890     3.2400    -0.4360 H     1 <1>   0.0800 
 28 H        2.6660     4.4070     0.4190 H     1 <1>   0.0800 
 29 H        6.2540     3.9320    -0.8320 H     1 <1>   0.0800 
 30 H        6.4420     2.1990    -0.8430 H     1 <1>   0.0800 
 31 H        8.4360     4.1600     0.3200 H     1 <1>   0.0800 
 32 H        8.6140     3.3010    -1.1940 H     1 <1>   0.0800 
 33 H        8.6170     2.4230     0.3200 H     1 <1>   0.0800 
@<TRIPOS>BOND
  1   1   2  1   
  2   2   3  ar  
  3   2   4  ar  
  4   3   5  1   
  5   3   6  ar  
  6   4   7  ar  
  7   4  20  1   
  8   5   8  2   
  9   5   9  1   
 10   6  10  ar  
 11   6  21  1   
 12   7  10  ar  
 13   7  22  1   
 14   8  11  1   
 15   9  12  2   
 16  10  23  1   
 17  11  12  1   
 18  12  13  1   
 19  13  14  1   
 20  13  15  1   
 21  13  24  1   
 22  14  16  am  
 23  14  25  1   
 24  15  26  1   
 25  15  27  1   
 26  15  28  1   
 27  16  17  2   
 28  16  18  1   
 29  18  19  1   
 30  18  29  1   
 31  18  30  1   
 32  19  31  1   
 33  19  32  1   
 34  19  33  1   
@<TRIPOS>SUBSTRUCTURE
  1 ****   9 GROUP 4 **** **** 0

# MOE 2024.06 (io_trps.svl 2023.06)
