@<TRIPOS>MOLECULE
8-Ethyl-3-(3-hydroxy-propyl)-1,7-dimethyl-1H,8H-imidazo[2,1-f]purine-2,4-dione
42 44 1 0 0 
SMALL
USER_CHARGES


@<TRIPOS>ATOM
  1 O        0.8180    -0.1050    -1.1900 O.2   1 <1>  -0.5760 
  2 C        1.7230     0.6340    -0.8600 C.2   1 <1>   0.6850 
  3 N        1.4980     2.0020    -0.7330 N.am  1 <1>  -0.4270 
  4 N        2.9830     0.1060    -0.6010 N.am  1 <1>  -0.4430 
  5 C        2.5090     2.8630    -0.3250 C.2   1 <1>   0.6980 
  6 C        0.1360     2.5490    -1.0100 C.3   1 <1>   0.1310 
  7 C        3.9760     0.9650    -0.1740 C.2   1 <1>   0.4190 
  8 C        3.2380    -1.3580    -0.7500 C.3   1 <1>   0.0500 
  9 O        2.3150     4.0630    -0.2220 O.2   1 <1>  -0.5760 
 10 C        3.7830     2.2980    -0.0310 C.2   1 <1>   0.2690 
 11 C       -0.7180     2.5010     0.2610 C.3   1 <1>  -0.1690 
 12 N        5.2620     0.6570     0.1690 N.pl3 1 <1>  -0.7050 
 13 N        5.0040     2.8230     0.4160 N.pl3 1 <1>  -0.6340 
 14 C       -2.1140     3.0540    -0.0130 C.3   1 <1>   0.1110 
 15 C        5.8520     1.8080     0.5210 C.cat 1 <1>   1.0680 
 16 C        5.6830     3.9620     0.7940 C.2   1 <1>   0.2210 
 17 O       -2.8330     3.0090     1.1640 O.3   1 <1>  -0.6850 
 18 N        7.0590     2.2160     0.9490 N.pl3 1 <1>  -0.5730 
 19 C        6.9400     3.5900     1.1200 C.2   1 <1>   0.1560 
 20 C        8.3100     1.4520     1.2140 C.3   1 <1>   0.1590 
 21 C        8.0900     4.4570     1.6010 C.3   1 <1>  -0.1110 
 22 C        8.1670    -0.0470     0.9540 C.3   1 <1>  -0.2480 
 23 H       -0.3370     1.9730    -1.7880 H     1 <1>   0.0710 
 24 H        0.2100     3.5650    -1.3610 H     1 <1>   0.0710 
 25 H        2.5610    -1.7860    -1.4710 H     1 <1>   0.0710 
 26 H        3.0870    -1.8500     0.1950 H     1 <1>   0.0710 
 27 H        4.2410    -1.5350    -1.0920 H     1 <1>   0.0710 
 28 H       -0.2520     3.0990     1.0250 H     1 <1>   0.0710 
 29 H       -0.8010     1.4820     0.5950 H     1 <1>   0.0710 
 30 H        5.7200    -0.2510     0.1800 H     1 <1>   0.4430 
 31 H       -2.6350     2.4670    -0.7510 H     1 <1>   0.0710 
 32 H       -2.0700     4.0810    -0.3330 H     1 <1>   0.0710 
 33 H        5.2200     4.9380     0.8010 H     1 <1>   0.1410 
 34 H       -2.9320     2.0880     1.4710 H     1 <1>   0.3930 
 35 H        8.5990     1.6030     2.2420 H     1 <1>   0.0710 
 36 H        9.0960     1.8430     0.5900 H     1 <1>   0.0710 
 37 H        8.9190     4.3900     0.9180 H     1 <1>   0.0710 
 38 H        8.4140     4.1400     2.5760 H     1 <1>   0.0710 
 39 H        7.7830     5.4860     1.6620 H     1 <1>   0.0710 
 40 H        7.4290    -0.4840     1.6020 H     1 <1>   0.0710 
 41 H        9.1070    -0.5260     1.1690 H     1 <1>   0.0710 
 42 H        7.9380    -0.2400    -0.0790 H     1 <1>   0.0710 
@<TRIPOS>BOND
  1   1   2  2   
  2   2   3  am  
  3   2   4  am  
  4   3   5  am  
  5   3   6  1   
  6   4   7  1   
  7   4   8  1   
  8   5   9  2   
  9   5  10  1   
 10   6  11  1   
 11   6  23  1   
 12   6  24  1   
 13   7  10  2   
 14   7  12  1   
 15   8  25  1   
 16   8  26  1   
 17   8  27  1   
 18  10  13  1   
 19  11  14  1   
 20  11  28  1   
 21  11  29  1   
 22  12  15  ar  
 23  12  30  1   
 24  13  15  ar  
 25  13  16  1   
 26  14  17  1   
 27  14  31  1   
 28  14  32  1   
 29  15  18  ar  
 30  16  19  2   
 31  16  33  1   
 32  17  34  1   
 33  18  19  1   
 34  18  20  1   
 35  19  21  1   
 36  20  22  1   
 37  20  35  1   
 38  20  36  1   
 39  21  37  1   
 40  21  38  1   
 41  21  39  1   
 42  22  40  1   
 43  22  41  1   
 44  22  42  1   
@<TRIPOS>SUBSTRUCTURE
  1 ****  10 GROUP 4 **** **** 0

# MOE 2024.06 (io_trps.svl 2023.06)
