@<TRIPOS>MOLECULE
5-Bromo-4-methoxymethyl-6-methyl-2-morpholin-4-yl-nicotinonitrile
35 36 1 0 0 
SMALL
USER_CHARGES


@<TRIPOS>ATOM
  1 BR      -0.1640     0.0320    -0.3690 Br    1 <1>  -0.1110 
  2 C        1.5670    -0.8090    -0.1360 C.ar  1 <1>   0.1110 
  3 C        2.6430    -0.0540     0.2950 C.ar  1 <1>  -0.1440 
  4 C        1.6950    -2.1630    -0.4100 C.ar  1 <1>   0.1660 
  5 C        3.8460    -0.7360     0.4230 C.ar  1 <1>   0.0730 
  6 C        2.5380     1.4360     0.5940 C.3   1 <1>   0.2640 
  7 N        2.8360    -2.8140    -0.2830 N.ar  1 <1>  -0.6200 
  8 C        0.5110    -2.9850    -0.8820 C.3   1 <1>  -0.0960 
  9 C        5.0380    -0.0750     0.8650 C.1   1 <1>   0.4840 
 10 C        3.8900    -2.1080     0.1190 C.ar  1 <1>   0.4100 
 11 O        3.0900     2.1120    -0.4860 O.3   1 <1>  -0.5600 
 12 N        5.9670     0.4800     1.2290 N.1   1 <1>  -0.5570 
 13 N        5.0710    -2.8250     0.2210 N.pl3 1 <1>  -0.8380 
 14 C        3.1990     3.4870    -0.3040 C.3   1 <1>   0.0400 
 15 C        6.0650    -2.6930    -0.8840 C.3   1 <1>   0.2090 
 16 C        5.0280    -4.2220     0.7470 C.3   1 <1>   0.2090 
 17 C        7.4330    -3.2460    -0.4440 C.3   1 <1>   0.1200 
 18 C        6.4450    -4.7090     1.1040 C.3   1 <1>   0.1200 
 19 O        7.3170    -4.5670     0.0140 O.3   1 <1>  -0.5600 
 20 H        3.0930     1.6860     1.4820 H     1 <1>   0.0800 
 21 H        1.5210     1.7620     0.7200 H     1 <1>   0.0800 
 22 H       -0.2690    -2.9670    -0.1430 H     1 <1>   0.0800 
 23 H        0.8030    -4.0080    -1.0430 H     1 <1>   0.0800 
 24 H        0.1340    -2.5900    -1.8070 H     1 <1>   0.0800 
 25 H        3.6180     3.9090    -1.2010 H     1 <1>   0.0800 
 26 H        3.8540     3.6850     0.5270 H     1 <1>   0.0800 
 27 H        2.2220     3.9030    -0.1300 H     1 <1>   0.0800 
 28 H        6.1710    -1.6610    -1.1660 H     1 <1>   0.0800 
 29 H        5.7190    -3.2410    -1.7430 H     1 <1>   0.0800 
 30 H        4.6040    -4.8750     0.0030 H     1 <1>   0.0800 
 31 H        4.4010    -4.2580     1.6200 H     1 <1>   0.0800 
 32 H        7.8430    -2.6410     0.3460 H     1 <1>   0.0800 
 33 H        8.1170    -3.2450    -1.2730 H     1 <1>   0.0800 
 34 H        6.4220    -5.7490     1.3730 H     1 <1>   0.0800 
 35 H        6.8350    -4.1430     1.9320 H     1 <1>   0.0800 
@<TRIPOS>BOND
  1   1   2  1   
  2   2   3  ar  
  3   2   4  ar  
  4   3   5  ar  
  5   3   6  1   
  6   4   7  ar  
  7   4   8  1   
  8   5   9  1   
  9   5  10  ar  
 10   6  11  1   
 11   6  20  1   
 12   6  21  1   
 13   7  10  ar  
 14   8  22  1   
 15   8  23  1   
 16   8  24  1   
 17   9  12  3   
 18  10  13  1   
 19  11  14  1   
 20  13  15  1   
 21  13  16  1   
 22  14  25  1   
 23  14  26  1   
 24  14  27  1   
 25  15  17  1   
 26  15  28  1   
 27  15  29  1   
 28  16  18  1   
 29  16  30  1   
 30  16  31  1   
 31  17  19  1   
 32  17  32  1   
 33  17  33  1   
 34  18  19  1   
 35  18  34  1   
 36  18  35  1   
@<TRIPOS>SUBSTRUCTURE
  1 ****  10 GROUP 4 **** **** 0

# MOE 2024.06 (io_trps.svl 2023.06)
