@<TRIPOS>MOLECULE
3-[3-Benzofuran-2-yl-4-(morpholine-4-carbonyl)-pyrazol-1-yl]-propionitrile
44 47 1 0 0 
SMALL
USER_CHARGES


@<TRIPOS>ATOM
  1 O        1.7170    -1.2420     2.8650 O.2   1 <1>  -0.5700 
  2 C        1.6410    -1.3410     1.6550 C.2   1 <1>   0.7160 
  3 N        2.2160    -0.3700     0.8640 N.am  1 <1>  -0.6600 
  4 C        0.9400    -2.4590     1.0860 C.2   1 <1>  -0.0860 
  5 C        2.7570     0.9010     1.4320 C.3   1 <1>   0.1400 
  6 C        2.3810    -0.4650    -0.6200 C.3   1 <1>   0.1400 
  7 C       -0.2230    -2.3720     0.3040 C.2   1 <1>   0.2880 
  8 C        1.2050    -3.7910     1.1470 C.2   1 <1>  -0.3020 
  9 C        2.2490     2.1090     0.6270 C.3   1 <1>   0.1200 
 10 C        1.9040     0.8270    -1.3070 C.3   1 <1>   0.1200 
 11 N       -0.6040    -3.5580    -0.1040 N.2   1 <1>  -0.7070 
 12 C       -0.9070    -1.1360     0.0020 C.2   1 <1>   0.1410 
 13 N        0.2700    -4.4210     0.4260 N.pl3 1 <1>   0.3140 
 14 O        2.5230     1.9440    -0.7350 O.3   1 <1>  -0.5600 
 15 O       -1.4060    -0.9290    -1.2230 O.3   1 <1>  -0.2800 
 16 C       -1.1360    -0.0460     0.7760 C.2   1 <1>  -0.1500 
 17 C        0.1440    -5.8730     0.2160 C.3   1 <1>   0.0960 
 18 C       -1.9500     0.2880    -1.2450 C.ar  1 <1>   0.1400 
 19 C       -1.8110     0.8990    -0.0140 C.ar  1 <1>   0.0000 
 20 C       -1.2260    -6.3610     0.6940 C.3   1 <1>   0.0400 
 21 C       -2.5720     0.9190    -2.3130 C.ar  1 <1>  -0.1500 
 22 C       -2.3070     2.1900     0.1720 C.ar  1 <1>  -0.1500 
 23 C       -1.3060    -7.8380     0.5620 C.1   1 <1>   0.3570 
 24 C       -3.0600     2.1970    -2.1240 C.ar  1 <1>  -0.1500 
 25 C       -2.9260     2.8290    -0.8830 C.ar  1 <1>  -0.1500 
 26 N       -1.3300    -8.9690     0.4590 N.1   1 <1>  -0.5570 
 27 H        3.8320     0.8770     1.3960 H     1 <1>   0.0800 
 28 H        2.4620     1.0150     2.4610 H     1 <1>   0.0800 
 29 H        1.8390    -1.3010    -1.0230 H     1 <1>   0.0800 
 30 H        3.4220    -0.6120    -0.8470 H     1 <1>   0.0800 
 31 H        2.0040    -4.2910     1.6630 H     1 <1>   0.1500 
 32 H        2.7410     3.0070     0.9550 H     1 <1>   0.0800 
 33 H        1.1870     2.2300     0.7530 H     1 <1>   0.0800 
 34 H        0.8380     0.9390    -1.2170 H     1 <1>   0.0800 
 35 H        2.1590     0.8080    -2.3510 H     1 <1>   0.0800 
 36 H       -0.8650     0.1060     1.8050 H     1 <1>   0.1500 
 37 H        0.9280    -6.3700     0.7590 H     1 <1>   0.0800 
 38 H        0.2640    -6.0740    -0.8330 H     1 <1>   0.0800 
 39 H       -2.0060    -5.9190     0.1000 H     1 <1>   0.0800 
 40 H       -1.3760    -6.0980     1.7250 H     1 <1>   0.0800 
 41 H       -2.6620     0.4090    -3.2550 H     1 <1>   0.1500 
 42 H       -2.2010     2.6680     1.1300 H     1 <1>   0.1500 
 43 H       -3.5480     2.7150    -2.9320 H     1 <1>   0.1500 
 44 H       -3.3150     3.8250    -0.7580 H     1 <1>   0.1500 
@<TRIPOS>BOND
  1   1   2  2   
  2   2   3  am  
  3   2   4  1   
  4   3   5  1   
  5   3   6  1   
  6   4   7  1   
  7   4   8  2   
  8   5   9  1   
  9   5  27  1   
 10   5  28  1   
 11   6  10  1   
 12   6  29  1   
 13   6  30  1   
 14   7  11  2   
 15   7  12  1   
 16   8  13  1   
 17   8  31  1   
 18   9  14  1   
 19   9  32  1   
 20   9  33  1   
 21  10  14  1   
 22  10  34  1   
 23  10  35  1   
 24  11  13  1   
 25  12  15  1   
 26  12  16  2   
 27  13  17  1   
 28  15  18  1   
 29  16  19  1   
 30  16  36  1   
 31  17  20  1   
 32  17  37  1   
 33  17  38  1   
 34  18  19  ar  
 35  18  21  ar  
 36  19  22  ar  
 37  20  23  1   
 38  20  39  1   
 39  20  40  1   
 40  21  24  ar  
 41  21  41  1   
 42  22  25  ar  
 43  22  42  1   
 44  23  26  3   
 45  24  25  ar  
 46  24  43  1   
 47  25  44  1   
@<TRIPOS>SUBSTRUCTURE
  1 ****  12 GROUP 4 **** **** 0

# MOE 2024.06 (io_trps.svl 2023.06)
