@<TRIPOS>MOLECULE
8-(3,5-Dimethyl-piperidin-1-ylmethyl)-1,3-dimethyl-7-(1-methyl-2-oxo-propyl)-3,7
57 59 1 0 0 
SMALL
USER_CHARGES


@<TRIPOS>ATOM
  1 O        0.6880     0.5980     0.9750 O.2   1 <1>  -0.5700 
  2 C        1.7940     1.0940     0.9230 C.2   1 <1>   0.6900 
  3 N        1.9360     2.4420     0.6110 N.am  1 <1>  -0.4200 
  4 N        2.9140     0.3170     1.1750 N.am  1 <1>  -0.4360 
  5 C        3.1880     3.0410     0.5610 C.2   1 <1>   0.7030 
  6 C        0.7020     3.2480     0.3470 C.3   1 <1>   0.0600 
  7 C        4.1550     0.9220     1.1040 C.2   1 <1>   0.4260 
  8 C        2.7940    -1.1360     1.4960 C.3   1 <1>   0.0600 
  9 O        3.2960     4.2270     0.2950 O.2   1 <1>  -0.5700 
 10 C        4.3470     2.2330     0.8230 C.2   1 <1>   0.2770 
 11 N        5.3650     0.3480     1.2770 N.pl3 1 <1>  -0.7000 
 12 N        5.7340     2.4500     0.8450 N.pl3 1 <1>  -0.7640 
 13 C        6.3030     1.2710     1.1050 C.cat 1 <1>   0.6560 
 14 C        6.3830     3.7630     0.4930 C.3   1 <1>   0.4950 
 15 C        7.7900     0.8810     1.2190 C.3   1 <1>   0.2540 
 16 C        7.1030     3.7260    -0.8720 C.2   1 <1>   0.4480 
 17 C        7.3100     4.1940     1.6330 C.3   1 <1>  -0.2400 
 18 N        8.0130    -0.5570     0.9000 N.3   1 <1>  -0.8100 
 19 O        7.5620     2.7180    -1.3230 O.2   1 <1>  -0.5700 
 20 C        7.2110     5.0290    -1.6400 C.3   1 <1>  -0.1790 
 21 C        7.8790    -0.7860    -0.5670 C.3   1 <1>   0.1100 
 22 C        9.2880    -1.0590     1.4730 C.3   1 <1>   0.1100 
 23 C        8.6310    -2.0450    -1.0210 C.3   1 <1>  -0.0800 
 24 C       10.4420    -0.9960     0.4600 C.3   1 <1>  -0.0800 
 25 C       10.1430    -1.8960    -0.7580 C.3   1 <1>  -0.1600 
 26 C        8.3660    -2.3450    -2.5020 C.3   1 <1>  -0.2400 
 27 C       11.7740    -1.3910     1.1090 C.3   1 <1>  -0.2400 
 28 H        0.0130     2.6820    -0.2550 H     1 <1>   0.0800 
 29 H        0.9330     4.1600    -0.1760 H     1 <1>   0.0800 
 30 H        0.2250     3.4920     1.2810 H     1 <1>   0.0800 
 31 H        1.7860    -1.3840     1.7850 H     1 <1>   0.0800 
 32 H        3.4470    -1.3910     2.3120 H     1 <1>   0.0800 
 33 H        3.0560    -1.7210     0.6320 H     1 <1>   0.0800 
 34 H        5.6160    -0.6320     1.4440 H     1 <1>   0.4500 
 35 H        5.6210     4.5150     0.4190 H     1 <1>   0.0800 
 36 H        8.0840     1.0660     2.2360 H     1 <1>   0.0800 
 37 H        8.4030     1.4920     0.5840 H     1 <1>   0.0800 
 38 H        8.1880     3.5780     1.6830 H     1 <1>   0.0800 
 39 H        7.6320     5.2070     1.4710 H     1 <1>   0.0800 
 40 H        6.7880     4.1590     2.5730 H     1 <1>   0.0800 
 41 H        6.2320     5.4200    -1.8480 H     1 <1>   0.0800 
 42 H        7.7160     4.8570    -2.5740 H     1 <1>   0.0800 
 43 H        7.7720     5.7510    -1.0760 H     1 <1>   0.0800 
 44 H        8.2760     0.0540    -1.1140 H     1 <1>   0.0800 
 45 H        6.8370    -0.8800    -0.8200 H     1 <1>   0.0800 
 46 H        9.1490    -2.0880     1.7630 H     1 <1>   0.0800 
 47 H        9.5480    -0.5130     2.3640 H     1 <1>   0.0800 
 48 H        8.2560    -2.8740    -0.4450 H     1 <1>   0.0800 
 49 H       10.5320     0.0230     0.1240 H     1 <1>   0.0800 
 50 H       10.6330    -1.4700    -1.6160 H     1 <1>   0.0800 
 51 H       10.5530    -2.8790    -0.6080 H     1 <1>   0.0800 
 52 H        8.6960    -1.5280    -3.1210 H     1 <1>   0.0800 
 53 H        7.3160    -2.5010    -2.6710 H     1 <1>   0.0800 
 54 H        8.8930    -3.2340    -2.8000 H     1 <1>   0.0800 
 55 H       11.7300    -2.3970     1.4880 H     1 <1>   0.0800 
 56 H       12.0060    -0.7270     1.9240 H     1 <1>   0.0800 
 57 H       12.5710    -1.3310     0.3880 H     1 <1>   0.0800 
@<TRIPOS>BOND
  1   1   2  2   
  2   2   3  am  
  3   2   4  am  
  4   3   5  am  
  5   3   6  1   
  6   4   7  1   
  7   4   8  1   
  8   5   9  2   
  9   5  10  1   
 10   6  28  1   
 11   6  29  1   
 12   6  30  1   
 13   7  10  2   
 14   7  11  1   
 15   8  31  1   
 16   8  32  1   
 17   8  33  1   
 18  10  12  1   
 19  11  13  ar  
 20  11  34  1   
 21  12  13  ar  
 22  12  14  1   
 23  13  15  1   
 24  14  16  1   
 25  14  17  1   
 26  14  35  1   
 27  15  18  1   
 28  15  36  1   
 29  15  37  1   
 30  16  19  2   
 31  16  20  1   
 32  17  38  1   
 33  17  39  1   
 34  17  40  1   
 35  18  21  1   
 36  18  22  1   
 37  20  41  1   
 38  20  42  1   
 39  20  43  1   
 40  21  23  1   
 41  21  44  1   
 42  21  45  1   
 43  22  24  1   
 44  22  46  1   
 45  22  47  1   
 46  23  25  1   
 47  23  26  1   
 48  23  48  1   
 49  24  25  1   
 50  24  27  1   
 51  24  49  1   
 52  25  50  1   
 53  25  51  1   
 54  26  52  1   
 55  26  53  1   
 56  26  54  1   
 57  27  55  1   
 58  27  56  1   
 59  27  57  1   
@<TRIPOS>SUBSTRUCTURE
  1 ****  13 GROUP 4 **** **** 0

# MOE 2024.06 (io_trps.svl 2023.06)
