@<TRIPOS>MOLECULE
8-Ethylamino-7-(2-hydroxy-3-phenoxy-propyl)-1,3-dimethyl-3,7-dihydro-purine-2,6-
51 53 1 0 0 
SMALL
USER_CHARGES


@<TRIPOS>ATOM
  1 O        0.7440     0.5120    -0.9870 O.2   1 <1>  -0.5750 
  2 C        1.7720     1.0620    -0.6490 C.2   1 <1>   0.6860 
  3 N        1.7900     2.4370    -0.4430 N.am  1 <1>  -0.4260 
  4 N        2.9280     0.3150    -0.4680 N.am  1 <1>  -0.4420 
  5 C        2.9560     3.0940    -0.0740 C.2   1 <1>   0.6990 
  6 C        0.5290     3.2150    -0.6600 C.3   1 <1>   0.0520 
  7 C        4.0720     0.9760    -0.0640 C.2   1 <1>   0.4200 
  8 C        2.9270    -1.1640    -0.6840 C.3   1 <1>   0.0520 
  9 O        2.9760     4.3070     0.0560 O.2   1 <1>  -0.5750 
 10 C        4.1350     2.3090     0.1410 C.2   1 <1>   0.2710 
 11 N        5.2980     0.4410     0.1840 N.pl3 1 <1>  -0.7040 
 12 N        5.4610     2.5870     0.5360 N.pl3 1 <1>  -0.7670 
 13 C        6.1190     1.4280     0.5220 C.cat 1 <1>   1.0690 
 14 C        5.9510     3.9330     0.9820 C.3   1 <1>   0.3480 
 15 N        7.4080     1.2770     0.7860 N.pl3 1 <1>  -0.7180 
 16 C        6.9340     4.5760    -0.0150 C.3   1 <1>   0.1930 
 17 C        8.2190     0.0460     0.8390 C.3   1 <1>   0.1600 
 18 O        8.1060     3.8210    -0.0830 O.3   1 <1>  -0.6840 
 19 C        7.3050     6.0110     0.3820 C.3   1 <1>   0.1120 
 20 C        8.9680    -0.0970    -0.4790 C.3   1 <1>  -0.2470 
 21 O        8.3750     6.4410    -0.4340 O.3   1 <1>  -0.3680 
 22 C        8.9090     7.6810    -0.2940 C.ar  1 <1>   0.0750 
 23 C        9.9630     8.0060    -1.1340 C.ar  1 <1>  -0.1570 
 24 C        8.4580     8.6190     0.6320 C.ar  1 <1>  -0.1570 
 25 C       10.5660     9.2490    -1.0550 C.ar  1 <1>  -0.1570 
 26 C        9.0630     9.8620     0.7090 C.ar  1 <1>  -0.1570 
 27 C       10.1150    10.1770    -0.1330 C.ar  1 <1>  -0.1570 
 28 H       -0.3170     2.6620    -0.2890 H     1 <1>   0.0720 
 29 H        0.3920     3.3920    -1.7130 H     1 <1>   0.0720 
 30 H        0.5620     4.1610    -0.1470 H     1 <1>   0.0720 
 31 H        2.1020    -1.4560    -1.3110 H     1 <1>   0.0720 
 32 H        2.8320    -1.6680     0.2620 H     1 <1>   0.0720 
 33 H        3.8360    -1.4730    -1.1670 H     1 <1>   0.0720 
 34 H        5.5790    -0.5300     0.0930 H     1 <1>   0.4450 
 35 H        6.4340     3.8390     1.9410 H     1 <1>   0.0720 
 36 H        5.1160     4.5960     1.1190 H     1 <1>   0.0720 
 37 H        7.9570     2.1500     0.7170 H     1 <1>   0.4450 
 38 H        6.4910     4.5970    -0.9960 H     1 <1>   0.0720 
 39 H        7.5940    -0.8160     1.0080 H     1 <1>   0.0720 
 40 H        8.9220     0.1160     1.6540 H     1 <1>   0.0720 
 41 H        8.7920     4.3930    -0.5080 H     1 <1>   0.3940 
 42 H        7.6240     6.0550     1.4090 H     1 <1>   0.0720 
 43 H        6.4710     6.6740     0.2280 H     1 <1>   0.0720 
 44 H        8.2850    -0.1820    -1.3050 H     1 <1>   0.0720 
 45 H        9.5750    -0.9850    -0.4530 H     1 <1>   0.0720 
 46 H        9.6190     0.7460    -0.6380 H     1 <1>   0.0720 
 47 H       10.3100     7.2840    -1.8500 H     1 <1>   0.1430 
 48 H        7.6450     8.4080     1.2990 H     1 <1>   0.1430 
 49 H       11.3830     9.4950    -1.7100 H     1 <1>   0.1430 
 50 H        8.7140    10.5860     1.4240 H     1 <1>   0.1430 
 51 H       10.5840    11.1450    -0.0700 H     1 <1>   0.1430 
@<TRIPOS>BOND
  1   1   2  2   
  2   2   3  am  
  3   2   4  am  
  4   3   5  am  
  5   3   6  1   
  6   4   7  1   
  7   4   8  1   
  8   5   9  2   
  9   5  10  1   
 10   6  28  1   
 11   6  29  1   
 12   6  30  1   
 13   7  10  2   
 14   7  11  1   
 15   8  31  1   
 16   8  32  1   
 17   8  33  1   
 18  10  12  1   
 19  11  13  ar  
 20  11  34  1   
 21  12  13  ar  
 22  12  14  1   
 23  13  15  ar  
 24  14  16  1   
 25  14  35  1   
 26  14  36  1   
 27  15  17  1   
 28  15  37  1   
 29  16  18  1   
 30  16  19  1   
 31  16  38  1   
 32  17  20  1   
 33  17  39  1   
 34  17  40  1   
 35  18  41  1   
 36  19  21  1   
 37  19  42  1   
 38  19  43  1   
 39  20  44  1   
 40  20  45  1   
 41  20  46  1   
 42  21  22  1   
 43  22  23  ar  
 44  22  24  ar  
 45  23  25  ar  
 46  23  47  1   
 47  24  26  ar  
 48  24  48  1   
 49  25  27  ar  
 50  25  49  1   
 51  26  27  ar  
 52  26  50  1   
 53  27  51  1   
@<TRIPOS>SUBSTRUCTURE
  1 ****  14 GROUP 4 **** **** 0

# MOE 2024.06 (io_trps.svl 2023.06)
