@<TRIPOS>MOLECULE
N-tert-Butyl-N-(2-hydroxy-6-methoxy-quinolin-3-ylmethyl)-butyramide
50 51 1 0 0 
SMALL
USER_CHARGES


@<TRIPOS>ATOM
  1 O       -1.4070     0.4230     1.2690 O.2   1 <1>  -0.5700 
  2 C       -2.3540     0.0650     0.6100 C.2   1 <1>   0.5690 
  3 N       -2.5730    -1.2510     0.2680 N.am  1 <1>  -0.6600 
  4 C       -3.3090     1.1690     0.1630 C.3   1 <1>  -0.0990 
  5 C       -2.0250    -2.4040     1.0700 C.3   1 <1>   0.3000 
  6 C       -3.0510    -1.5470    -1.1220 C.3   1 <1>   0.2780 
  7 C       -4.2000     1.6450     1.3220 C.3   1 <1>  -0.1600 
  8 C       -0.5470    -2.5990     0.7200 C.3   1 <1>  -0.2400 
  9 C       -2.1870    -2.1400     2.5760 C.3   1 <1>  -0.2400 
 10 C       -2.7800    -3.7160     0.7840 C.3   1 <1>  -0.2400 
 11 C       -4.5550    -1.7910    -1.2050 C.2   1 <1>  -0.1240 
 12 C       -5.1930     2.7160     0.8620 C.3   1 <1>  -0.2400 
 13 C       -5.0370    -2.1700    -2.4980 C.2   1 <1>   0.6160 
 14 C       -5.4230    -1.6650    -0.1660 C.2   1 <1>  -0.1780 
 15 O       -4.3150    -2.2950    -3.4710 O.2   1 <1>  -0.5700 
 16 N       -6.3700    -2.3980    -2.6510 N.am  1 <1>  -0.5470 
 17 C       -6.8240    -1.9020    -0.3410 C.ar  1 <1>   0.0280 
 18 C       -7.2880    -2.2760    -1.6120 C.ar  1 <1>   0.1170 
 19 C       -7.7460    -1.7770     0.6980 C.ar  1 <1>  -0.1500 
 20 C       -8.6450    -2.5150    -1.8120 C.ar  1 <1>  -0.1500 
 21 C       -9.0890    -2.0130     0.4960 C.ar  1 <1>   0.0820 
 22 C       -9.5420    -2.3860    -0.7720 C.ar  1 <1>  -0.1500 
 23 O       -9.9060    -1.8630     1.5720 O.3   1 <1>  -0.3630 
 24 C      -11.2950    -2.0820     1.4700 C.3   1 <1>   0.0400 
 25 H       -3.9350     0.8490    -0.6450 H     1 <1>   0.0800 
 26 H       -2.7190     1.9940    -0.1910 H     1 <1>   0.0800 
 27 H       -2.5190    -2.3920    -1.5220 H     1 <1>   0.0800 
 28 H       -2.8020    -0.7210    -1.7660 H     1 <1>   0.0800 
 29 H       -3.5770     2.0440     2.1060 H     1 <1>   0.0800 
 30 H       -4.7420     0.8090     1.7280 H     1 <1>   0.0800 
 31 H        0.0170    -1.7170     0.9630 H     1 <1>   0.0800 
 32 H       -0.4280    -2.8100    -0.3260 H     1 <1>   0.0800 
 33 H       -0.1370    -3.4190     1.2810 H     1 <1>   0.0800 
 34 H       -1.9250    -3.0150     3.1410 H     1 <1>   0.0800 
 35 H       -3.2060    -1.8830     2.8020 H     1 <1>   0.0800 
 36 H       -1.5420    -1.3510     2.9140 H     1 <1>   0.0800 
 37 H       -2.4130    -4.4960     1.4260 H     1 <1>   0.0800 
 38 H       -2.6390    -4.0590    -0.2230 H     1 <1>   0.0800 
 39 H       -3.8290    -3.6020     0.9820 H     1 <1>   0.0800 
 40 H       -4.6690     3.5710     0.4690 H     1 <1>   0.0800 
 41 H       -5.7960     3.0380     1.6930 H     1 <1>   0.0800 
 42 H       -5.8440     2.3250     0.0990 H     1 <1>   0.0800 
 43 H       -5.0990    -1.3850     0.8200 H     1 <1>   0.1500 
 44 H       -6.6640    -2.6660    -3.5880 H     1 <1>   0.3700 
 45 H       -7.4080    -1.4900     1.6770 H     1 <1>   0.1500 
 46 H       -8.9920    -2.8020    -2.7880 H     1 <1>   0.1500 
 47 H      -10.5820    -2.5770    -0.9570 H     1 <1>   0.1500 
 48 H      -11.7320    -1.9060     2.4370 H     1 <1>   0.0800 
 49 H      -11.4680    -3.1010     1.1720 H     1 <1>   0.0800 
 50 H      -11.7070    -1.3940     0.7530 H     1 <1>   0.0800 
@<TRIPOS>BOND
  1   1   2  2   
  2   2   3  am  
  3   2   4  1   
  4   3   5  1   
  5   3   6  1   
  6   4   7  1   
  7   4  25  1   
  8   4  26  1   
  9   5   8  1   
 10   5   9  1   
 11   5  10  1   
 12   6  11  1   
 13   6  27  1   
 14   6  28  1   
 15   7  12  1   
 16   7  29  1   
 17   7  30  1   
 18   8  31  1   
 19   8  32  1   
 20   8  33  1   
 21   9  34  1   
 22   9  35  1   
 23   9  36  1   
 24  10  37  1   
 25  10  38  1   
 26  10  39  1   
 27  11  13  1   
 28  11  14  2   
 29  12  40  1   
 30  12  41  1   
 31  12  42  1   
 32  13  15  2   
 33  13  16  am  
 34  14  17  1   
 35  14  43  1   
 36  16  18  1   
 37  16  44  1   
 38  17  18  ar  
 39  17  19  ar  
 40  18  20  ar  
 41  19  21  ar  
 42  19  45  1   
 43  20  22  ar  
 44  20  46  1   
 45  21  22  ar  
 46  21  23  1   
 47  22  47  1   
 48  23  24  1   
 49  24  48  1   
 50  24  49  1   
 51  24  50  1   
@<TRIPOS>SUBSTRUCTURE
  1 ****  14 GROUP 4 **** **** 0

# MOE 2024.06 (io_trps.svl 2023.06)
