@<TRIPOS>MOLECULE
2-(6-Ethyl-2-methyl-thieno[2,3-d]pyrimidin-4-ylamino)-ethanol
31 32 1 0 0 
SMALL
USER_CHARGES


@<TRIPOS>ATOM
  1 S       -0.1450    -0.5750     0.1330 S.3   1 <1>  -0.0800 
  2 C        1.3140     0.3810    -0.1260 C.ar  1 <1>   0.2970 
  3 C       -1.1670     0.8670     0.0920 C.2   1 <1>  -0.1400 
  4 N        2.5190    -0.1410    -0.2020 N.ar  1 <1>  -0.5670 
  5 C        0.9980     1.7110    -0.2300 C.ar  1 <1>   0.0000 
  6 C       -0.4140     1.9660    -0.1050 C.2   1 <1>  -0.1500 
  7 C       -2.6560     0.6330     0.2770 C.3   1 <1>   0.0200 
  8 C        3.4540     0.7680    -0.3980 C.ar  1 <1>   0.4770 
  9 C        2.0850     2.5580    -0.4350 C.ar  1 <1>   0.4100 
 10 C       -3.4560     1.9380     0.2300 C.3   1 <1>  -0.2400 
 11 N        3.3140     2.0810    -0.5180 N.ar  1 <1>  -0.6200 
 12 C        4.8720     0.2570    -0.4990 C.3   1 <1>  -0.0960 
 13 N        1.9170     3.9150    -0.5500 N.pl3 1 <1>  -0.8690 
 14 C        3.0040     4.8880    -0.8310 C.3   1 <1>   0.2090 
 15 C        3.7130     5.2770     0.4710 C.3   1 <1>   0.1200 
 16 O        4.7510     6.1590     0.1960 O.3   1 <1>  -0.6800 
 17 H       -0.7870     2.9710    -0.1710 H     1 <1>   0.1500 
 18 H       -2.8190     0.1490     1.2240 H     1 <1>   0.0800 
 19 H       -3.0050    -0.0280    -0.4980 H     1 <1>   0.0800 
 20 H       -3.1320     2.6010     1.0120 H     1 <1>   0.0800 
 21 H       -4.5030     1.7310     0.3650 H     1 <1>   0.0800 
 22 H       -3.3210     2.4230    -0.7210 H     1 <1>   0.0800 
 23 H        4.8970    -0.8140    -0.4120 H     1 <1>   0.0800 
 24 H        5.4630     0.6860     0.2880 H     1 <1>   0.0800 
 25 H        5.2870     0.5410    -1.4470 H     1 <1>   0.0800 
 26 H        0.9820     4.3080    -0.4320 H     1 <1>   0.4000 
 27 H        2.5850     5.7650    -1.2910 H     1 <1>   0.0800 
 28 H        3.7110     4.4440    -1.5100 H     1 <1>   0.0800 
 29 H        4.1250     4.4070     0.9530 H     1 <1>   0.0800 
 30 H        3.0270     5.7710     1.1360 H     1 <1>   0.0800 
 31 H        5.4800     5.6940    -0.2590 H     1 <1>   0.4000 
@<TRIPOS>BOND
  1   1   2  1   
  2   1   3  1   
  3   2   4  ar  
  4   2   5  ar  
  5   3   6  2   
  6   3   7  1   
  7   4   8  ar  
  8   5   6  1   
  9   5   9  ar  
 10   6  17  1   
 11   7  10  1   
 12   7  18  1   
 13   7  19  1   
 14   8  11  ar  
 15   8  12  1   
 16   9  11  ar  
 17   9  13  1   
 18  10  20  1   
 19  10  21  1   
 20  10  22  1   
 21  12  23  1   
 22  12  24  1   
 23  12  25  1   
 24  13  14  1   
 25  13  26  1   
 26  14  15  1   
 27  14  27  1   
 28  14  28  1   
 29  15  16  1   
 30  15  29  1   
 31  15  30  1   
 32  16  31  1   
@<TRIPOS>SUBSTRUCTURE
  1 ****   5 GROUP 4 **** **** 0

# MOE 2024.06 (io_trps.svl 2023.06)
