@<TRIPOS>MOLECULE
1-(4-Ethoxy-3-methyl-benzenesulfonyl)-piperidine-4-carboxylic acid (3-methoxy-pr
57 58 1 0 0 
SMALL
USER_CHARGES


@<TRIPOS>ATOM
  1 S       -0.1680     0.1930     2.6960 S.o2  1 <1>   1.4470 
  2 O        0.1730    -0.7320     3.7560 O.2   1 <1>  -0.6500 
  3 O       -0.5510     1.5470     3.0380 O.2   1 <1>  -0.6500 
  4 N        1.1900     0.3220     1.6880 N.am  1 <1>  -0.8490 
  5 C       -1.4130    -0.5660     1.6160 C.ar  1 <1>  -0.0090 
  6 C        2.4070     0.5710     2.4640 C.3   1 <1>   0.1960 
  7 C        1.0010     1.3310     0.6410 C.3   1 <1>   0.1960 
  8 C       -2.6740    -0.0020     1.4590 C.ar  1 <1>  -0.1500 
  9 C       -1.1330    -1.7320     0.9160 C.ar  1 <1>  -0.1500 
 10 C        3.6360     0.5330     1.5520 C.3   1 <1>  -0.1600 
 11 C        2.1770     1.3040    -0.3360 C.3   1 <1>  -0.1600 
 12 C       -3.6270    -0.5690     0.6290 C.ar  1 <1>  -0.1430 
 13 C       -2.0710    -2.3150     0.0830 C.ar  1 <1>  -0.1500 
 14 C        3.5110     1.5370     0.3950 C.3   1 <1>  -0.0190 
 15 C       -3.3280    -1.7350    -0.0680 C.ar  1 <1>   0.0830 
 16 C       -4.9940     0.0860     0.4880 C.3   1 <1>  -0.0970 
 17 C        4.7110     1.4460    -0.5460 C.2   1 <1>   0.5690 
 18 O       -4.2900    -2.2560    -0.8720 O.3   1 <1>  -0.3630 
 19 O        4.7990     0.5210    -1.3170 O.2   1 <1>  -0.5700 
 20 N        5.6600     2.4160    -0.4800 N.am  1 <1>  -0.7300 
 21 C       -4.0920    -3.4450    -1.5990 C.3   1 <1>   0.1200 
 22 C        6.9020     2.4380    -1.2800 C.3   1 <1>   0.1400 
 23 C       -5.3690    -3.7410    -2.3800 C.3   1 <1>  -0.2400 
 24 C        8.0850     2.6940    -0.3500 C.3   1 <1>  -0.1600 
 25 C        9.3990     2.6730    -1.1260 C.3   1 <1>   0.1200 
 26 O       10.4190     2.9600    -0.2290 O.3   1 <1>  -0.5600 
 27 C       11.6890     2.9490    -0.7940 C.3   1 <1>   0.0400 
 28 H        2.5200    -0.1890     3.2200 H     1 <1>   0.0800 
 29 H        2.3360     1.5270     2.9580 H     1 <1>   0.0800 
 30 H        0.9120     2.3100     1.0830 H     1 <1>   0.0800 
 31 H        0.0940     1.1250     0.0960 H     1 <1>   0.0800 
 32 H       -2.9070     0.9000     1.9990 H     1 <1>   0.1500 
 33 H       -0.1620    -2.1870     1.0260 H     1 <1>   0.1500 
 34 H        3.7430    -0.4630     1.1570 H     1 <1>   0.0800 
 35 H        4.5160     0.7520     2.1300 H     1 <1>   0.0800 
 36 H        2.0390     2.0620    -1.0870 H     1 <1>   0.0800 
 37 H        2.1920     0.3490    -0.8330 H     1 <1>   0.0800 
 38 H       -1.8040    -3.2150    -0.4370 H     1 <1>   0.1500 
 39 H        3.4880     2.5270     0.8120 H     1 <1>   0.0800 
 40 H       -5.0670     0.9740     1.0880 H     1 <1>   0.0800 
 41 H       -5.7600    -0.6020     0.7980 H     1 <1>   0.0800 
 42 H       -5.1660     0.3500    -0.5400 H     1 <1>   0.0800 
 43 H        5.5580     3.1820     0.1860 H     1 <1>   0.3700 
 44 H       -3.8790    -4.2390    -0.9030 H     1 <1>   0.0800 
 45 H       -3.2620    -3.3010    -2.2690 H     1 <1>   0.0800 
 46 H        6.8340     3.2170    -2.0210 H     1 <1>   0.0800 
 47 H        7.0290     1.4950    -1.7870 H     1 <1>   0.0800 
 48 H       -6.1950    -3.8670    -1.7020 H     1 <1>   0.0800 
 49 H       -5.2490    -4.6460    -2.9470 H     1 <1>   0.0800 
 50 H       -5.5820    -2.9350    -3.0590 H     1 <1>   0.0800 
 51 H        8.1190     1.9260     0.4030 H     1 <1>   0.0800 
 52 H        7.9740     3.6550     0.1190 H     1 <1>   0.0800 
 53 H        9.4010     3.4230    -1.9000 H     1 <1>   0.0800 
 54 H        9.5750     1.6990    -1.5530 H     1 <1>   0.0800 
 55 H       12.4000     3.1830    -0.0210 H     1 <1>   0.0800 
 56 H       11.7400     3.6920    -1.5710 H     1 <1>   0.0800 
 57 H       11.8940     1.9690    -1.1900 H     1 <1>   0.0800 
@<TRIPOS>BOND
  1   1   2  2   
  2   1   3  2   
  3   1   4  am  
  4   1   5  1   
  5   4   6  1   
  6   4   7  1   
  7   5   8  ar  
  8   5   9  ar  
  9   6  10  1   
 10   6  28  1   
 11   6  29  1   
 12   7  11  1   
 13   7  30  1   
 14   7  31  1   
 15   8  12  ar  
 16   8  32  1   
 17   9  13  ar  
 18   9  33  1   
 19  10  14  1   
 20  10  34  1   
 21  10  35  1   
 22  11  14  1   
 23  11  36  1   
 24  11  37  1   
 25  12  15  ar  
 26  12  16  1   
 27  13  15  ar  
 28  13  38  1   
 29  14  17  1   
 30  14  39  1   
 31  15  18  1   
 32  16  40  1   
 33  16  41  1   
 34  16  42  1   
 35  17  19  2   
 36  17  20  am  
 37  18  21  1   
 38  20  22  1   
 39  20  43  1   
 40  21  23  1   
 41  21  44  1   
 42  21  45  1   
 43  22  24  1   
 44  22  46  1   
 45  22  47  1   
 46  23  48  1   
 47  23  49  1   
 48  23  50  1   
 49  24  25  1   
 50  24  51  1   
 51  24  52  1   
 52  25  26  1   
 53  25  53  1   
 54  25  54  1   
 55  26  27  1   
 56  27  55  1   
 57  27  56  1   
 58  27  57  1   
@<TRIPOS>SUBSTRUCTURE
  1 ****   7 GROUP 4 **** **** 0

# MOE 2024.06 (io_trps.svl 2023.06)
