@<TRIPOS>MOLECULE
Cyclohexanecarboxylic acid {2-[1-methyl-5-(2-phenoxy-acetylamino)-1H-benzoimidaz
62 65 1 0 0 
SMALL
USER_CHARGES


@<TRIPOS>ATOM
  1 O       -0.9270     1.4710    -0.6400 O.2   1 <1>  -0.5700 
  2 C       -0.4200     1.8100     0.4050 C.2   1 <1>   0.5690 
  3 N       -1.1640     2.3570     1.4030 N.am  1 <1>  -0.7300 
  4 C        1.0840     1.6430     0.6150 C.3   1 <1>  -0.0190 
  5 C       -2.6340     2.5340     1.3300 C.3   1 <1>   0.1400 
  6 C        1.8840     2.5420    -0.3470 C.3   1 <1>  -0.1600 
  7 C        1.5150     0.1710     0.4650 C.3   1 <1>  -0.1600 
  8 C       -2.9780     3.8110     0.5590 C.3   1 <1>   0.0200 
  9 C        3.3980     2.3740    -0.1500 C.3   1 <1>  -0.1600 
 10 C        3.0280     0.0020     0.6630 C.3   1 <1>  -0.1600 
 11 C       -4.3850     3.7130     0.0020 C.2   1 <1>   0.0060 
 12 C        3.8150     0.9040    -0.2950 C.3   1 <1>  -0.1600 
 13 N       -5.3980     4.2890     0.5490 N.2   1 <1>  -0.5650 
 14 N       -4.6860     2.9940    -1.1180 N.pl3 1 <1>   0.0480 
 15 C       -6.4490     3.9420    -0.2430 C.ar  1 <1>   0.2270 
 16 C       -6.0310     3.1330    -1.2800 C.ar  1 <1>  -0.1520 
 17 C       -3.7820     2.1980    -1.9740 C.3   1 <1>   0.0160 
 18 C       -7.7910     4.2880    -0.1200 C.ar  1 <1>  -0.1500 
 19 C       -6.9450     2.6440    -2.2150 C.ar  1 <1>  -0.1500 
 20 C       -8.7130     3.8210    -1.0360 C.ar  1 <1>   0.1170 
 21 C       -8.2710     2.9910    -2.0830 C.ar  1 <1>  -0.1500 
 22 N      -10.0630     4.1890    -0.8740 N.am  1 <1>  -0.5470 
 23 C      -11.1580     4.1050    -1.6920 C.2   1 <1>   0.5690 
 24 O      -11.1360     3.6490    -2.8100 O.2   1 <1>  -0.5700 
 25 C      -12.4880     4.6260    -1.1650 C.3   1 <1>   0.1810 
 26 O      -12.3510     5.1720     0.1420 O.3   1 <1>  -0.3630 
 27 C      -13.4170     5.6920     0.8000 C.ar  1 <1>   0.0820 
 28 C      -13.1800     6.1970     2.0690 C.ar  1 <1>  -0.1500 
 29 C      -14.7050     5.7400     0.2720 C.ar  1 <1>  -0.1500 
 30 C      -14.2130     6.7450     2.8100 C.ar  1 <1>  -0.1500 
 31 C      -15.7360     6.2890     1.0150 C.ar  1 <1>  -0.1500 
 32 C      -15.4920     6.7910     2.2820 C.ar  1 <1>  -0.1500 
 33 H       -0.7130     2.6660     2.2660 H     1 <1>   0.3700 
 34 H        1.3150     1.9490     1.6190 H     1 <1>   0.0800 
 35 H       -3.0560     2.5740     2.3190 H     1 <1>   0.0800 
 36 H       -3.0560     1.6820     0.8240 H     1 <1>   0.0800 
 37 H        1.6140     3.5710    -0.1900 H     1 <1>   0.0800 
 38 H        1.6300     2.2870    -1.3630 H     1 <1>   0.0800 
 39 H        1.2460    -0.1790    -0.5180 H     1 <1>   0.0800 
 40 H        0.9880    -0.4350     1.1820 H     1 <1>   0.0800 
 41 H       -2.2890     3.9620    -0.2510 H     1 <1>   0.0800 
 42 H       -2.9130     4.6560     1.2200 H     1 <1>   0.0800 
 43 H        3.6740     2.7270     0.8290 H     1 <1>   0.0800 
 44 H        3.9240     2.9700    -0.8750 H     1 <1>   0.0800 
 45 H        3.3000    -1.0260     0.4940 H     1 <1>   0.0800 
 46 H        3.2870     0.2490     1.6790 H     1 <1>   0.0800 
 47 H        4.8690     0.8070    -0.0980 H     1 <1>   0.0800 
 48 H        3.6400     0.5840    -1.3090 H     1 <1>   0.0800 
 49 H       -3.5940     1.2470    -1.5090 H     1 <1>   0.0800 
 50 H       -2.8510     2.7170    -2.1060 H     1 <1>   0.0800 
 51 H       -4.2340     2.0430    -2.9360 H     1 <1>   0.0800 
 52 H       -8.0740     4.9220     0.6970 H     1 <1>   0.1500 
 53 H       -6.6180     2.0100    -3.0190 H     1 <1>   0.1500 
 54 H       -8.9800     2.6140    -2.7950 H     1 <1>   0.1500 
 55 H      -10.2770     4.6400     0.0180 H     1 <1>   0.3700 
 56 H      -13.1930     3.8160    -1.1230 H     1 <1>   0.0800 
 57 H      -12.8500     5.3970    -1.8200 H     1 <1>   0.0800 
 58 H      -12.1860     6.1590     2.4750 H     1 <1>   0.1500 
 59 H      -14.9300     5.3600    -0.7060 H     1 <1>   0.1500 
 60 H      -14.0220     7.1350     3.7940 H     1 <1>   0.1500 
 61 H      -16.7320     6.3270     0.6090 H     1 <1>   0.1500 
 62 H      -16.2960     7.2170     2.8570 H     1 <1>   0.1500 
@<TRIPOS>BOND
  1   1   2  2   
  2   2   3  am  
  3   2   4  1   
  4   3   5  1   
  5   3  33  1   
  6   4   6  1   
  7   4   7  1   
  8   4  34  1   
  9   5   8  1   
 10   5  35  1   
 11   5  36  1   
 12   6   9  1   
 13   6  37  1   
 14   6  38  1   
 15   7  10  1   
 16   7  39  1   
 17   7  40  1   
 18   8  11  1   
 19   8  41  1   
 20   8  42  1   
 21   9  12  1   
 22   9  43  1   
 23   9  44  1   
 24  10  12  1   
 25  10  45  1   
 26  10  46  1   
 27  11  13  2   
 28  11  14  1   
 29  12  47  1   
 30  12  48  1   
 31  13  15  1   
 32  14  16  1   
 33  14  17  1   
 34  15  16  ar  
 35  15  18  ar  
 36  16  19  ar  
 37  17  49  1   
 38  17  50  1   
 39  17  51  1   
 40  18  20  ar  
 41  18  52  1   
 42  19  21  ar  
 43  19  53  1   
 44  20  21  ar  
 45  20  22  1   
 46  21  54  1   
 47  22  23  am  
 48  22  55  1   
 49  23  24  2   
 50  23  25  1   
 51  25  26  1   
 52  25  56  1   
 53  25  57  1   
 54  26  27  1   
 55  27  28  ar  
 56  27  29  ar  
 57  28  30  ar  
 58  28  58  1   
 59  29  31  ar  
 60  29  59  1   
 61  30  32  ar  
 62  30  60  1   
 63  31  32  ar  
 64  31  61  1   
 65  32  62  1   
@<TRIPOS>SUBSTRUCTURE
  1 ****  15 GROUP 4 **** **** 0

# MOE 2024.06 (io_trps.svl 2023.06)
