@<TRIPOS>MOLECULE
5-Acetyl-4-(2-chloro-5-ethoxy-4-propoxy-phenyl)-6-methyl-3,4-dihydro-1H-pyrimidi
48 49 1 0 0 
SMALL
USER_CHARGES


@<TRIPOS>ATOM
  1 CL      -0.6170     2.1410    -1.7020 Cl    1 <1>  -0.1770 
  2 C        0.5320     2.9600    -0.6670 C.ar  1 <1>   0.1770 
  3 C        0.1440     3.5580     0.5290 C.ar  1 <1>  -0.1440 
  4 C        1.8450     2.9850    -1.0980 C.ar  1 <1>  -0.1500 
  5 C        1.1190     4.2060     1.2790 C.ar  1 <1>  -0.1500 
  6 C       -1.2920     3.5520     1.0520 C.3   1 <1>   0.5020 
  7 C        2.8080     3.6190    -0.3360 C.ar  1 <1>   0.0830 
  8 C        2.4350     4.2560     0.8520 C.ar  1 <1>   0.0830 
  9 N       -1.6190     2.1770     1.4670 N.am  1 <1>  -0.7300 
 10 C       -2.3040     4.1430     0.0600 C.2   1 <1>  -0.1240 
 11 O        4.0840     3.5920    -0.7890 O.3   1 <1>  -0.3630 
 12 O        3.3140     4.9430     1.6210 O.3   1 <1>  -0.3630 
 13 C       -2.6680     1.4850     1.0000 C.2   1 <1>   0.6900 
 14 C       -3.3780     3.3890    -0.3160 C.2   1 <1>  -0.0290 
 15 C       -1.9480     5.4690    -0.3310 C.2   1 <1>   0.4950 
 16 C        5.0240     2.9060     0.0070 C.3   1 <1>   0.1200 
 17 C        3.8360     6.1410     1.0830 C.3   1 <1>   0.1200 
 18 O       -2.8480     0.3350     1.3280 O.2   1 <1>  -0.5700 
 19 N       -3.5260     2.1010     0.1500 N.am  1 <1>  -0.5390 
 20 C       -4.5120     3.8300    -1.2270 C.3   1 <1>  -0.1020 
 21 O       -1.3990     6.2390     0.4190 O.2   1 <1>  -0.5700 
 22 C       -2.1880     5.9750    -1.7380 C.3   1 <1>  -0.1790 
 23 C        6.3470     2.8500    -0.7570 C.3   1 <1>  -0.1600 
 24 C        2.8050     7.2580     1.2430 C.3   1 <1>  -0.2400 
 25 C        7.4240     2.1140     0.0480 C.3   1 <1>  -0.2400 
 26 H        2.1200     2.5110    -2.0220 H     1 <1>   0.1500 
 27 H        0.8670     4.6980     2.2030 H     1 <1>   0.1500 
 28 H       -1.3320     4.1610     1.9400 H     1 <1>   0.0800 
 29 H       -0.9210     1.6680     2.0040 H     1 <1>   0.3700 
 30 H        4.6480     1.9150     0.1960 H     1 <1>   0.0800 
 31 H        5.1450     3.4310     0.9370 H     1 <1>   0.0800 
 32 H        4.0890     5.9890     0.0480 H     1 <1>   0.0800 
 33 H        4.7310     6.3770     1.6320 H     1 <1>   0.0800 
 34 H       -4.2930     1.5010    -0.1510 H     1 <1>   0.3700 
 35 H       -5.4520     3.4680    -0.8480 H     1 <1>   0.0800 
 36 H       -4.3650     3.4310    -2.2150 H     1 <1>   0.0800 
 37 H       -4.5860     4.8980    -1.2840 H     1 <1>   0.0800 
 38 H       -3.0410     6.6260    -1.7510 H     1 <1>   0.0800 
 39 H       -2.3370     5.1570    -2.4180 H     1 <1>   0.0800 
 40 H       -1.3280     6.5310    -2.0640 H     1 <1>   0.0800 
 41 H        6.6800     3.8540    -0.9590 H     1 <1>   0.0800 
 42 H        6.1940     2.3420    -1.6930 H     1 <1>   0.0800 
 43 H        1.9200     7.0400     0.6710 H     1 <1>   0.0800 
 44 H        3.2170     8.1850     0.8870 H     1 <1>   0.0800 
 45 H        2.5420     7.3750     2.2790 H     1 <1>   0.0800 
 46 H        7.6050     2.6150     0.9830 H     1 <1>   0.0800 
 47 H        8.3440     2.0870    -0.5090 H     1 <1>   0.0800 
 48 H        7.1180     1.1020     0.2490 H     1 <1>   0.0800 
@<TRIPOS>BOND
  1   1   2  1   
  2   2   3  ar  
  3   2   4  ar  
  4   3   5  ar  
  5   3   6  1   
  6   4   7  ar  
  7   4  26  1   
  8   5   8  ar  
  9   5  27  1   
 10   6   9  1   
 11   6  10  1   
 12   6  28  1   
 13   7   8  ar  
 14   7  11  1   
 15   8  12  1   
 16   9  13  am  
 17   9  29  1   
 18  10  14  2   
 19  10  15  1   
 20  11  16  1   
 21  12  17  1   
 22  13  18  2   
 23  13  19  am  
 24  14  19  1   
 25  14  20  1   
 26  15  21  2   
 27  15  22  1   
 28  16  23  1   
 29  16  30  1   
 30  16  31  1   
 31  17  24  1   
 32  17  32  1   
 33  17  33  1   
 34  19  34  1   
 35  20  35  1   
 36  20  36  1   
 37  20  37  1   
 38  22  38  1   
 39  22  39  1   
 40  22  40  1   
 41  23  25  1   
 42  23  41  1   
 43  23  42  1   
 44  24  43  1   
 45  24  44  1   
 46  24  45  1   
 47  25  46  1   
 48  25  47  1   
 49  25  48  1   
@<TRIPOS>SUBSTRUCTURE
  1 ****   3 GROUP 4 **** **** 0

# MOE 2024.06 (io_trps.svl 2023.06)
