@<TRIPOS>MOLECULE
4-Dimethylaminomethyl-benzylamine
30 30 1 0 0 
SMALL
USER_CHARGES


@<TRIPOS>ATOM
  1 N       -0.1320    -0.4980    -0.4950 N.4   1 <1>  -0.9590 
  2 C       -1.0430    -1.0300     0.5590 C.3   1 <1>   0.4860 
  3 C        1.2950    -0.8600    -0.2290 C.3   1 <1>   0.2630 
  4 C       -0.2860     0.9820    -0.6430 C.3   1 <1>   0.2630 
  5 C       -1.1090    -2.5470     0.4540 C.ar  1 <1>  -0.1440 
  6 C       -0.4250    -3.3470     1.3570 C.ar  1 <1>  -0.1500 
  7 C       -1.8800    -3.1490    -0.5300 C.ar  1 <1>  -0.1500 
  8 C       -0.5160    -4.7260     1.2830 C.ar  1 <1>  -0.1500 
  9 C       -1.9710    -4.5280    -0.6050 C.ar  1 <1>  -0.1500 
 10 C       -1.2930    -5.3270     0.3040 C.ar  1 <1>  -0.1430 
 11 C       -1.4210    -6.8370     0.2430 C.3   1 <1>   0.4860 
 12 N       -0.3580    -7.3400    -0.6480 N.4   1 <1>  -0.8530 
 13 H       -0.4140    -0.9490    -1.3770 H     1 <1>   0.4500 
 14 H       -2.0340    -0.6290     0.4250 H     1 <1>   0.0800 
 15 H       -0.6920    -0.7420     1.5370 H     1 <1>   0.0800 
 16 H        1.6280    -0.4240     0.6990 H     1 <1>   0.0800 
 17 H        1.9270    -0.4980    -1.0250 H     1 <1>   0.0800 
 18 H        1.4050    -1.9310    -0.1670 H     1 <1>   0.0800 
 19 H       -0.0060     1.4830     0.2700 H     1 <1>   0.0800 
 20 H       -1.3080     1.2330    -0.8750 H     1 <1>   0.0800 
 21 H        0.3440     1.3450    -1.4400 H     1 <1>   0.0800 
 22 H        0.1740    -2.9050     2.1380 H     1 <1>   0.1500 
 23 H       -2.4310    -2.5520    -1.2390 H     1 <1>   0.1500 
 24 H        0.0160    -5.3190     2.0110 H     1 <1>   0.1500 
 25 H       -2.5930    -4.9630    -1.3720 H     1 <1>   0.1500 
 26 H       -2.3930    -7.1070    -0.1400 H     1 <1>   0.0800 
 27 H       -1.3130    -7.2540     1.2320 H     1 <1>   0.0800 
 28 H       -0.4570    -6.9200    -1.5770 H     1 <1>   0.4500 
 29 H       -0.3910    -8.3610    -0.7380 H     1 <1>   0.4500 
 30 H        0.5600    -7.0680    -0.2810 H     1 <1>   0.4500 
@<TRIPOS>BOND
  1   1   2  1   
  2   1   3  1   
  3   1   4  1   
  4   1  13  1   
  5   2   5  1   
  6   2  14  1   
  7   2  15  1   
  8   3  16  1   
  9   3  17  1   
 10   3  18  1   
 11   4  19  1   
 12   4  20  1   
 13   4  21  1   
 14   5   6  ar  
 15   5   7  ar  
 16   6   8  ar  
 17   6  22  1   
 18   7   9  ar  
 19   7  23  1   
 20   8  10  ar  
 21   8  24  1   
 22   9  10  ar  
 23   9  25  1   
 24  10  11  1   
 25  11  12  1   
 26  11  26  1   
 27  11  27  1   
 28  12  28  1   
 29  12  29  1   
 30  12  30  1   
@<TRIPOS>SUBSTRUCTURE
  1 ****   5 GROUP 4 **** **** 0

# MOE 2024.06 (io_trps.svl 2023.06)
