@<TRIPOS>MOLECULE
N-[3-(4-Chloro-phenyl)-[1,2,4]oxadiazol-5-ylmethyl]-2,2-dimethyl-propionamide
36 37 1 0 0 
SMALL
USER_CHARGES


@<TRIPOS>ATOM
  1 CL       1.4720    -1.0480     0.2680 Cl    1 <1>  -0.1770 
  2 C        2.5380     0.3290     0.1790 C.ar  1 <1>   0.1770 
  3 C        3.8760     0.1380    -0.1060 C.ar  1 <1>  -0.1500 
  4 C        2.0330     1.5960     0.3930 C.ar  1 <1>  -0.1500 
  5 C        4.7170     1.2340    -0.1760 C.ar  1 <1>  -0.1500 
  6 C        2.8840     2.6860     0.3200 C.ar  1 <1>  -0.1500 
  7 C        4.2450     2.5350     0.0350 C.ar  1 <1>   0.0540 
  8 C        5.1400     3.6790    -0.0410 C.2   1 <1>   0.4620 
  9 N        6.4000     3.6300    -0.2950 N.2   1 <1>  -0.4100 
 10 N        4.7250     4.9360     0.1510 N.2   1 <1>  -0.5650 
 11 O        6.8600     4.8400    -0.2710 O.3   1 <1>  -0.0190 
 12 C        5.8130     5.5740     0.0000 C.2   1 <1>   0.2980 
 13 C        5.9870     7.0820     0.1000 C.3   1 <1>   0.3200 
 14 N        6.7830     7.4590     1.2960 N.am  1 <1>  -0.7300 
 15 C        8.0160     8.0010     1.4640 C.2   1 <1>   0.5690 
 16 O        8.3790     8.1480     2.6040 O.2   1 <1>  -0.5700 
 17 C        8.9600     8.4370     0.3010 C.3   1 <1>   0.0610 
 18 C        8.3470     9.5910    -0.5180 C.3   1 <1>  -0.2400 
 19 C       10.3050     8.9610     0.8570 C.3   1 <1>  -0.2400 
 20 C        9.3080     7.2590    -0.6330 C.3   1 <1>  -0.2400 
 21 H        4.2490    -0.8580    -0.2690 H     1 <1>   0.1500 
 22 H        0.9880     1.7240     0.6130 H     1 <1>   0.1500 
 23 H        5.7590     1.0800    -0.3970 H     1 <1>   0.1500 
 24 H        2.4850     3.6710     0.4890 H     1 <1>   0.1500 
 25 H        5.0150     7.5360     0.1790 H     1 <1>   0.0800 
 26 H        6.4410     7.4400    -0.8010 H     1 <1>   0.0800 
 27 H        6.3390     7.2020     2.1810 H     1 <1>   0.3700 
 28 H        7.4360     9.3010    -1.0030 H     1 <1>   0.0800 
 29 H        9.0340     9.9230    -1.2760 H     1 <1>   0.0800 
 30 H        8.1300    10.4230     0.1290 H     1 <1>   0.0800 
 31 H       10.1390     9.8030     1.5060 H     1 <1>   0.0800 
 32 H       10.9630     9.2690     0.0640 H     1 <1>   0.0800 
 33 H       10.7970     8.1930     1.4290 H     1 <1>   0.0800 
 34 H        8.4600     6.9160    -1.1890 H     1 <1>   0.0800 
 35 H        9.6880     6.4330    -0.0560 H     1 <1>   0.0800 
 36 H       10.0640     7.5490    -1.3420 H     1 <1>   0.0800 
@<TRIPOS>BOND
  1   1   2  1   
  2   2   3  ar  
  3   2   4  ar  
  4   3   5  ar  
  5   3  21  1   
  6   4   6  ar  
  7   4  22  1   
  8   5   7  ar  
  9   5  23  1   
 10   6   7  ar  
 11   6  24  1   
 12   7   8  1   
 13   8   9  2   
 14   8  10  1   
 15   9  11  1   
 16  10  12  2   
 17  11  12  1   
 18  12  13  1   
 19  13  14  1   
 20  13  25  1   
 21  13  26  1   
 22  14  15  am  
 23  14  27  1   
 24  15  16  2   
 25  15  17  1   
 26  17  18  1   
 27  17  19  1   
 28  17  20  1   
 29  18  28  1   
 30  18  29  1   
 31  18  30  1   
 32  19  31  1   
 33  19  32  1   
 34  19  33  1   
 35  20  34  1   
 36  20  35  1   
 37  20  36  1   
@<TRIPOS>SUBSTRUCTURE
  1 ****  12 GROUP 4 **** **** 0

# MOE 2024.06 (io_trps.svl 2023.06)
