@<TRIPOS>MOLECULE
N-(4-Chloro-1,7-dimethyl-2-oxo-2,3-dihydro-1H-indol-3-yl)-acetamide
30 31 1 0 0 
SMALL
USER_CHARGES


@<TRIPOS>ATOM
  1 CL       1.5550     0.0100     0.9530 Cl    1 <1>  -0.1770 
  2 C        0.9940    -1.5910     0.5430 C.ar  1 <1>   0.1770 
  3 C        1.8940    -2.6060     0.3000 C.ar  1 <1>  -0.1440 
  4 C       -0.3640    -1.8350     0.4720 C.ar  1 <1>  -0.1500 
  5 C        1.4580    -3.8880     0.0060 C.ar  1 <1>   0.1170 
  6 C        3.4060    -2.5460     0.3130 C.3   1 <1>   0.4250 
  7 C       -0.8100    -3.1100     0.1600 C.ar  1 <1>  -0.1500 
  8 N        2.5710    -4.7300    -0.1490 N.am  1 <1>  -0.4770 
  9 C        0.0840    -4.1470    -0.0750 C.ar  1 <1>  -0.1440 
 10 N        3.8710    -1.6330    -0.7640 N.am  1 <1>  -0.7300 
 11 C        3.7260    -4.0240     0.0590 C.2   1 <1>   0.5690 
 12 C        2.5660    -6.1880    -0.4290 C.3   1 <1>   0.0600 
 13 C       -0.4850    -5.5190    -0.4100 C.3   1 <1>  -0.0960 
 14 C        5.0830    -1.0620    -0.9040 C.2   1 <1>   0.5690 
 15 O        4.8450    -4.4890     0.0780 O.2   1 <1>  -0.5700 
 16 O        5.3120    -0.3690    -1.8590 O.2   1 <1>  -0.5700 
 17 C        6.1660    -1.2750     0.1270 C.3   1 <1>  -0.1790 
 18 H       -1.0610    -1.0370     0.6590 H     1 <1>   0.1500 
 19 H        3.7760    -2.2400     1.2740 H     1 <1>   0.0800 
 20 H       -1.8720    -3.2850     0.1040 H     1 <1>   0.1500 
 21 H        3.2050    -1.4650    -1.5190 H     1 <1>   0.3700 
 22 H        3.5750    -6.5610    -0.4750 H     1 <1>   0.0800 
 23 H        2.0450    -6.7080     0.3550 H     1 <1>   0.0800 
 24 H        2.0910    -6.3760    -1.3740 H     1 <1>   0.0800 
 25 H       -1.5590    -5.4940    -0.4480 H     1 <1>   0.0800 
 26 H       -0.1300    -5.8430    -1.3710 H     1 <1>   0.0800 
 27 H       -0.1980    -6.2330     0.3410 H     1 <1>   0.0800 
 28 H        5.8320    -0.9330     1.0880 H     1 <1>   0.0800 
 29 H        7.0410    -0.7180    -0.1530 H     1 <1>   0.0800 
 30 H        6.4240    -2.3160     0.1770 H     1 <1>   0.0800 
@<TRIPOS>BOND
  1   1   2  1   
  2   2   3  ar  
  3   2   4  ar  
  4   3   5  ar  
  5   3   6  1   
  6   4   7  ar  
  7   4  18  1   
  8   5   8  1   
  9   5   9  ar  
 10   6  10  1   
 11   6  11  1   
 12   6  19  1   
 13   7   9  ar  
 14   7  20  1   
 15   8  11  am  
 16   8  12  1   
 17   9  13  1   
 18  10  14  am  
 19  10  21  1   
 20  11  15  2   
 21  12  22  1   
 22  12  23  1   
 23  12  24  1   
 24  13  25  1   
 25  13  26  1   
 26  13  27  1   
 27  14  16  2   
 28  14  17  1   
 29  17  28  1   
 30  17  29  1   
 31  17  30  1   
@<TRIPOS>SUBSTRUCTURE
  1 ****   3 GROUP 4 **** **** 0

# MOE 2024.06 (io_trps.svl 2023.06)
