@<TRIPOS>MOLECULE
3-[3-(3,4-Dimethoxy-phenyl)-[1,2,4]oxadiazol-5-yl]-propionamide
35 36 1 0 0 
SMALL
USER_CHARGES


@<TRIPOS>ATOM
  1 O        1.2340    -1.2900     0.4520 O.2   1 <1>  -0.5700 
  2 C        0.5850    -1.7250    -0.4620 C.2   1 <1>   0.5690 
  3 N        0.5020    -1.0500    -1.6200 N.am  1 <1>  -0.8000 
  4 C       -0.1510    -3.0340    -0.2980 C.3   1 <1>  -0.0990 
  5 C       -1.2510    -2.9090     0.7630 C.3   1 <1>   0.0200 
  6 C       -2.0380    -4.1980     0.8810 C.2   1 <1>   0.2980 
  7 O       -1.4870    -5.2240     1.4720 O.3   1 <1>  -0.0190 
  8 N       -3.2120    -4.3850     0.4410 N.2   1 <1>  -0.5650 
  9 N       -2.3920    -6.1500     1.4020 N.2   1 <1>  -0.4100 
 10 C       -3.4140    -5.6590     0.7940 C.2   1 <1>   0.4620 
 11 C       -4.6510    -6.3680     0.5060 C.ar  1 <1>   0.0540 
 12 C       -5.6990    -5.7660    -0.1890 C.ar  1 <1>  -0.1500 
 13 C       -4.8430    -7.6870     0.9160 C.ar  1 <1>  -0.1500 
 14 C       -6.8810    -6.4280    -0.4680 C.ar  1 <1>   0.0820 
 15 C       -6.0120    -8.3720     0.6410 C.ar  1 <1>  -0.1500 
 16 O       -7.8080    -5.6940    -1.1460 O.3   1 <1>  -0.3630 
 17 C       -7.0470    -7.7610    -0.0620 C.ar  1 <1>   0.0820 
 18 C       -9.1810    -5.8250    -0.8500 C.3   1 <1>   0.0400 
 19 O       -8.1930    -8.4330    -0.3720 O.3   1 <1>  -0.3620 
 20 C       -8.3330    -9.8190    -0.1540 C.3   1 <1>   0.0400 
 21 H        1.0090    -0.1690    -1.7170 H     1 <1>   0.3700 
 22 H       -0.0270    -1.3610    -2.4340 H     1 <1>   0.3700 
 23 H        0.5560    -3.7870    -0.0010 H     1 <1>   0.0800 
 24 H       -0.5840    -3.3300    -1.2360 H     1 <1>   0.0800 
 25 H       -1.9240    -2.1150     0.4920 H     1 <1>   0.0800 
 26 H       -0.8190    -2.6690     1.7180 H     1 <1>   0.0800 
 27 H       -5.5980    -4.7490    -0.5240 H     1 <1>   0.1500 
 28 H       -4.0600    -8.1860     1.4610 H     1 <1>   0.1500 
 29 H       -6.0930    -9.3860     0.9840 H     1 <1>   0.1500 
 30 H       -9.6790    -4.9270    -1.1680 H     1 <1>   0.0800 
 31 H       -9.3030    -5.9600     0.2100 H     1 <1>   0.0800 
 32 H       -9.5730    -6.6670    -1.3900 H     1 <1>   0.0800 
 33 H       -9.2840   -10.1240    -0.5500 H     1 <1>   0.0800 
 34 H       -8.2990   -10.0120     0.9030 H     1 <1>   0.0800 
 35 H       -7.5410   -10.3360    -0.6680 H     1 <1>   0.0800 
@<TRIPOS>BOND
  1   1   2  2   
  2   2   3  am  
  3   2   4  1   
  4   3  21  1   
  5   3  22  1   
  6   4   5  1   
  7   4  23  1   
  8   4  24  1   
  9   5   6  1   
 10   5  25  1   
 11   5  26  1   
 12   6   7  1   
 13   6   8  2   
 14   7   9  1   
 15   8  10  1   
 16   9  10  2   
 17  10  11  1   
 18  11  12  ar  
 19  11  13  ar  
 20  12  14  ar  
 21  12  27  1   
 22  13  15  ar  
 23  13  28  1   
 24  14  16  1   
 25  14  17  ar  
 26  15  17  ar  
 27  15  29  1   
 28  16  18  1   
 29  17  19  1   
 30  18  30  1   
 31  18  31  1   
 32  18  32  1   
 33  19  20  1   
 34  20  33  1   
 35  20  34  1   
 36  20  35  1   
@<TRIPOS>SUBSTRUCTURE
  1 ****  10 GROUP 4 **** **** 0

# MOE 2024.06 (io_trps.svl 2023.06)
