@<TRIPOS>MOLECULE
1-(4-Methoxy-3-methyl-benzenesulfonyl)-piperidine-4-carboxylic acid (2-methoxy-e
51 52 1 0 0 
SMALL
USER_CHARGES


@<TRIPOS>ATOM
  1 S       -0.1630     0.0080     2.1850 S.o2  1 <1>   1.4470 
  2 O        0.1570    -0.9890     3.1830 O.2   1 <1>  -0.6500 
  3 O       -0.6250     1.3130     2.6120 O.2   1 <1>  -0.6500 
  4 N        1.2440     0.2760     1.2740 N.am  1 <1>  -0.8490 
  5 C       -1.3080    -0.7040     0.9720 C.ar  1 <1>  -0.0090 
  6 C        2.4040     0.5000     2.1390 C.3   1 <1>   0.1960 
  7 C        1.0710     1.3650     0.3070 C.3   1 <1>   0.1960 
  8 C       -2.5740    -0.1680     0.7710 C.ar  1 <1>  -0.1500 
  9 C       -0.9420    -1.8060     0.2100 C.ar  1 <1>  -0.1500 
 10 C        3.6840     0.5920     1.3010 C.3   1 <1>  -0.1600 
 11 C        2.3020     1.4720    -0.5950 C.3   1 <1>  -0.1600 
 12 C       -3.4510    -0.7000    -0.1610 C.ar  1 <1>  -0.1430 
 13 C       -1.8030    -2.3530    -0.7250 C.ar  1 <1>  -0.1500 
 14 C        3.5800     1.6910     0.2310 C.3   1 <1>  -0.0190 
 15 C       -3.0660    -1.8010    -0.9180 C.ar  1 <1>   0.0830 
 16 C       -4.8280    -0.0770    -0.3470 C.3   1 <1>  -0.0970 
 17 C        4.8240     1.7360    -0.6550 C.2   1 <1>   0.5690 
 18 O       -3.9540    -2.2910    -1.8220 O.3   1 <1>  -0.3630 
 19 O        5.0960     0.7900    -1.3530 O.2   1 <1>  -0.5700 
 20 N        5.6030     2.8500    -0.6320 N.am  1 <1>  -0.7300 
 21 C       -3.6620    -3.4180    -2.6170 C.3   1 <1>   0.0400 
 22 C        6.7940     3.0620    -1.4970 C.3   1 <1>   0.1400 
 23 C        7.9910     2.2640    -0.9780 C.3   1 <1>   0.1200 
 24 O        9.1280     2.6770    -1.6710 O.3   1 <1>  -0.5600 
 25 C       10.2730     1.9550    -1.3520 C.3   1 <1>   0.0400 
 26 H        2.5070    -0.3210     2.8300 H     1 <1>   0.0800 
 27 H        2.2650     1.4030     2.7100 H     1 <1>   0.0800 
 28 H        0.9150     2.2970     0.8260 H     1 <1>   0.0800 
 29 H        0.2070     1.1740    -0.3070 H     1 <1>   0.0800 
 30 H       -2.8740     0.6840     1.3580 H     1 <1>   0.1500 
 31 H        0.0350    -2.2380     0.3530 H     1 <1>   0.1500 
 32 H        3.8550    -0.3610     0.8290 H     1 <1>   0.0800 
 33 H        4.5200     0.7900     1.9470 H     1 <1>   0.0800 
 34 H        2.1720     2.2870    -1.2850 H     1 <1>   0.0800 
 35 H        2.3890     0.5660    -1.1720 H     1 <1>   0.0800 
 36 H       -1.4720    -3.2030    -1.2890 H     1 <1>   0.1500 
 37 H        3.4910     2.6370     0.7340 H     1 <1>   0.0800 
 38 H       -4.9700     0.7620     0.3100 H     1 <1>   0.0800 
 39 H       -5.5880    -0.8080    -0.1390 H     1 <1>   0.0800 
 40 H       -4.9410     0.2580    -1.3620 H     1 <1>   0.0800 
 41 H        5.3630     3.6290    -0.0180 H     1 <1>   0.3700 
 42 H       -4.5140    -3.6150    -3.2420 H     1 <1>   0.0800 
 43 H       -3.4770    -4.2600    -1.9750 H     1 <1>   0.0800 
 44 H       -2.8030    -3.2010    -3.2280 H     1 <1>   0.0800 
 45 H        7.0390     4.1090    -1.5100 H     1 <1>   0.0800 
 46 H        6.5680     2.7430    -2.5000 H     1 <1>   0.0800 
 47 H        7.8360     1.2130    -1.1530 H     1 <1>   0.0800 
 48 H        8.1460     2.4540     0.0690 H     1 <1>   0.0800 
 49 H       11.0890     2.3500    -1.9290 H     1 <1>   0.0800 
 50 H       10.1200     0.9190    -1.6020 H     1 <1>   0.0800 
 51 H       10.4830     2.0660    -0.3020 H     1 <1>   0.0800 
@<TRIPOS>BOND
  1   1   2  2   
  2   1   3  2   
  3   1   4  am  
  4   1   5  1   
  5   4   6  1   
  6   4   7  1   
  7   5   8  ar  
  8   5   9  ar  
  9   6  10  1   
 10   6  26  1   
 11   6  27  1   
 12   7  11  1   
 13   7  28  1   
 14   7  29  1   
 15   8  12  ar  
 16   8  30  1   
 17   9  13  ar  
 18   9  31  1   
 19  10  14  1   
 20  10  32  1   
 21  10  33  1   
 22  11  14  1   
 23  11  34  1   
 24  11  35  1   
 25  12  15  ar  
 26  12  16  1   
 27  13  15  ar  
 28  13  36  1   
 29  14  17  1   
 30  14  37  1   
 31  15  18  1   
 32  16  38  1   
 33  16  39  1   
 34  16  40  1   
 35  17  19  2   
 36  17  20  am  
 37  18  21  1   
 38  20  22  1   
 39  20  41  1   
 40  21  42  1   
 41  21  43  1   
 42  21  44  1   
 43  22  23  1   
 44  22  45  1   
 45  22  46  1   
 46  23  24  1   
 47  23  47  1   
 48  23  48  1   
 49  24  25  1   
 50  25  49  1   
 51  25  50  1   
 52  25  51  1   
@<TRIPOS>SUBSTRUCTURE
  1 ****   7 GROUP 4 **** **** 0

# MOE 2024.06 (io_trps.svl 2023.06)
