@<TRIPOS>MOLECULE
7-(2,6-Dichloro-benzyl)-3-methyl-8-morpholin-4-ylmethyl-3,7-dihydro-purine-2,6-d
48 51 1 0 0 
SMALL
USER_CHARGES


@<TRIPOS>ATOM
  1 CL       0.4220     1.1970     2.6030 Cl    1 <1>  -0.1770 
  2 C       -0.1430     1.9850     1.1510 C.ar  1 <1>   0.1770 
  3 C       -1.4530     1.8150     0.7220 C.ar  1 <1>  -0.1440 
  4 C        0.7590     2.7650     0.4500 C.ar  1 <1>  -0.1500 
  5 C       -1.8300     2.4710    -0.4430 C.ar  1 <1>   0.1770 
  6 C       -2.4460     0.9610     1.4950 C.3   1 <1>   0.4980 
  7 C        0.3590     3.4040    -0.7120 C.ar  1 <1>  -0.1500 
  8 CL      -3.4590     2.3230    -1.0580 Cl    1 <1>  -0.1770 
  9 C       -0.9430     3.2560    -1.1580 C.ar  1 <1>  -0.1500 
 10 N       -2.7980    -0.2580     0.7060 N.pl3 1 <1>  -0.7640 
 11 C       -4.1090    -0.5900     0.3410 C.2   1 <1>   0.2770 
 12 C       -2.0020    -1.1740     0.1580 C.cat 1 <1>   0.6560 
 13 C       -5.4180    -0.0530     0.6000 C.2   1 <1>   0.7030 
 14 C       -4.0280    -1.6980    -0.4400 C.2   1 <1>   0.4260 
 15 N       -2.7240    -2.0470    -0.5340 N.pl3 1 <1>  -0.7000 
 16 C       -0.4700    -1.2980     0.2370 C.3   1 <1>   0.2540 
 17 O       -5.6240     0.8970     1.3280 O.2   1 <1>  -0.5700 
 18 N       -6.4800    -0.6710     0.0070 N.am  1 <1>  -0.4900 
 19 N       -5.1220    -2.3240    -1.0180 N.am  1 <1>  -0.4360 
 20 N       -0.0010    -2.6560    -0.1500 N.3   1 <1>  -0.8100 
 21 C       -6.3730    -1.7760    -0.7840 C.2   1 <1>   0.6900 
 22 C       -4.9490    -3.5230    -1.8890 C.3   1 <1>   0.0600 
 23 C        1.4200    -2.6260    -0.5710 C.3   1 <1>   0.1100 
 24 C       -0.1490    -3.6240     0.9650 C.3   1 <1>   0.1100 
 25 O       -7.3810    -2.2480    -1.2540 O.2   1 <1>  -0.5700 
 26 C        1.9360    -4.0380    -0.9040 C.3   1 <1>   0.1200 
 27 C        0.4050    -5.0070     0.5780 C.3   1 <1>   0.1200 
 28 O        1.7380    -4.8940     0.1830 O.3   1 <1>  -0.5600 
 29 H        1.7670     2.8760     0.8120 H     1 <1>   0.1500 
 30 H       -3.3240     1.5530     1.6850 H     1 <1>   0.0800 
 31 H       -2.0600     0.6620     2.4530 H     1 <1>   0.0800 
 32 H        1.0550     4.0160    -1.2630 H     1 <1>   0.1500 
 33 H       -1.2710     3.7510    -2.0570 H     1 <1>   0.1500 
 34 H       -2.2850    -2.8300    -1.0290 H     1 <1>   0.4500 
 35 H       -0.1340    -1.0690     1.2320 H     1 <1>   0.0800 
 36 H       -0.0530    -0.5710    -0.4370 H     1 <1>   0.0800 
 37 H       -7.4130    -0.2960     0.1660 H     1 <1>   0.3700 
 38 H       -4.3690    -3.2630    -2.7570 H     1 <1>   0.0800 
 39 H       -5.9030    -3.8990    -2.2190 H     1 <1>   0.0800 
 40 H       -4.4480    -4.3030    -1.3440 H     1 <1>   0.0800 
 41 H        2.0330    -2.2140     0.2140 H     1 <1>   0.0800 
 42 H        1.5280    -2.0040    -1.4430 H     1 <1>   0.0800 
 43 H       -1.1860    -3.7290     1.2310 H     1 <1>   0.0800 
 44 H        0.3880    -3.2780     1.8330 H     1 <1>   0.0800 
 45 H        2.9910    -4.0110    -1.1130 H     1 <1>   0.0800 
 46 H        1.4230    -4.4410    -1.7600 H     1 <1>   0.0800 
 47 H       -0.1600    -5.4370    -0.2300 H     1 <1>   0.0800 
 48 H        0.3700    -5.6750     1.4210 H     1 <1>   0.0800 
@<TRIPOS>BOND
  1   1   2  1   
  2   2   3  ar  
  3   2   4  ar  
  4   3   5  ar  
  5   3   6  1   
  6   4   7  ar  
  7   4  29  1   
  8   5   8  1   
  9   5   9  ar  
 10   6  10  1   
 11   6  30  1   
 12   6  31  1   
 13   7   9  ar  
 14   7  32  1   
 15   9  33  1   
 16  10  11  1   
 17  10  12  ar  
 18  11  13  1   
 19  11  14  2   
 20  12  15  ar  
 21  12  16  1   
 22  13  17  2   
 23  13  18  am  
 24  14  15  1   
 25  14  19  1   
 26  15  34  1   
 27  16  20  1   
 28  16  35  1   
 29  16  36  1   
 30  18  21  am  
 31  18  37  1   
 32  19  21  am  
 33  19  22  1   
 34  20  23  1   
 35  20  24  1   
 36  21  25  2   
 37  22  38  1   
 38  22  39  1   
 39  22  40  1   
 40  23  26  1   
 41  23  41  1   
 42  23  42  1   
 43  24  27  1   
 44  24  43  1   
 45  24  44  1   
 46  26  28  1   
 47  26  45  1   
 48  26  46  1   
 49  27  28  1   
 50  27  47  1   
 51  27  48  1   
@<TRIPOS>SUBSTRUCTURE
  1 ****  12 GROUP 4 **** **** 0

# MOE 2024.06 (io_trps.svl 2023.06)
