@<TRIPOS>MOLECULE
[3-(4-Chloro-phenyl)-[1,2,4]oxadiazol-5-ylmethyl]-isopropyl-amine
32 33 1 0 0 
SMALL
USER_CHARGES


@<TRIPOS>ATOM
  1 CL       0.9170     0.4900    -1.8880 Cl    1 <1>  -0.1770 
  2 C        2.4490     0.5630    -1.0580 C.ar  1 <1>   0.1770 
  3 C        2.4920     0.9710     0.2600 C.ar  1 <1>  -0.1500 
  4 C        3.6040     0.2120    -1.7280 C.ar  1 <1>  -0.1500 
  5 C        3.7110     1.0270     0.9130 C.ar  1 <1>  -0.1500 
  6 C        4.8180     0.2720    -1.0650 C.ar  1 <1>  -0.1500 
  7 C        4.9040     0.6800     0.2710 C.ar  1 <1>   0.0540 
  8 C        6.1770     0.7450     0.9710 C.2   1 <1>   0.4620 
  9 N        6.3420     1.1060     2.1950 N.2   1 <1>  -0.4100 
 10 N        7.3470     0.4250     0.3980 N.2   1 <1>  -0.5650 
 11 O        7.6030     1.0410     2.4740 O.3   1 <1>  -0.0190 
 12 C        8.1480     0.6290     1.3640 C.2   1 <1>   0.2980 
 13 C        9.6590     0.4370     1.3300 C.3   1 <1>   0.5230 
 14 N       10.0910    -0.1090     0.0030 N.4   1 <1>  -0.9060 
 15 C       11.5400    -0.2170    -0.1990 C.3   1 <1>   0.4230 
 16 C       11.7700    -0.5360    -1.6700 C.3   1 <1>  -0.2400 
 17 C       12.0940    -1.3260     0.6900 C.3   1 <1>  -0.2400 
 18 H        1.5800     1.2400     0.7650 H     1 <1>   0.1500 
 19 H        3.5470    -0.1030    -2.7550 H     1 <1>   0.1500 
 20 H        3.7340     1.3470     1.9420 H     1 <1>   0.1500 
 21 H        5.7110    -0.0040    -1.5970 H     1 <1>   0.1500 
 22 H        9.9430    -0.2400     2.1180 H     1 <1>   0.0800 
 23 H       10.1320     1.3880     1.5090 H     1 <1>   0.0800 
 24 H        9.6770     0.4890    -0.7240 H     1 <1>   0.4500 
 25 H        9.6500    -1.0260    -0.1330 H     1 <1>   0.4500 
 26 H       12.0210     0.7200     0.0400 H     1 <1>   0.0800 
 27 H       11.3080    -1.4680    -1.9470 H     1 <1>   0.0800 
 28 H       12.8260    -0.6210    -1.8590 H     1 <1>   0.0800 
 29 H       11.3920     0.2520    -2.2970 H     1 <1>   0.0800 
 30 H       11.6120    -2.2670     0.4880 H     1 <1>   0.0800 
 31 H       11.9910    -1.0840     1.7320 H     1 <1>   0.0800 
 32 H       13.1450    -1.4480     0.4940 H     1 <1>   0.0800 
@<TRIPOS>BOND
  1   1   2  1   
  2   2   3  ar  
  3   2   4  ar  
  4   3   5  ar  
  5   3  18  1   
  6   4   6  ar  
  7   4  19  1   
  8   5   7  ar  
  9   5  20  1   
 10   6   7  ar  
 11   6  21  1   
 12   7   8  1   
 13   8   9  2   
 14   8  10  1   
 15   9  11  1   
 16  10  12  2   
 17  11  12  1   
 18  12  13  1   
 19  13  14  1   
 20  13  22  1   
 21  13  23  1   
 22  14  15  1   
 23  14  24  1   
 24  14  25  1   
 25  15  16  1   
 26  15  17  1   
 27  15  26  1   
 28  16  27  1   
 29  16  28  1   
 30  16  29  1   
 31  17  30  1   
 32  17  31  1   
 33  17  32  1   
@<TRIPOS>SUBSTRUCTURE
  1 ****  10 GROUP 4 **** **** 0

# MOE 2024.06 (io_trps.svl 2023.06)
