@<TRIPOS>MOLECULE
3-Amino-3-(3-chloro-4-methoxy-phenyl)-propionic acid
27 27 1 0 0 
SMALL
USER_CHARGES


@<TRIPOS>ATOM
  1 CL       0.2910     0.0110     1.7460 Cl    1 <1>  -0.1770 
  2 C        1.6620     0.1640     0.6670 C.ar  1 <1>   0.1770 
  3 C        1.9530    -0.7710    -0.3290 C.ar  1 <1>   0.0820 
  4 C        2.4440     1.2940     0.8280 C.ar  1 <1>  -0.1500 
  5 O        1.2600    -1.9120    -0.5760 O.3   1 <1>  -0.3630 
  6 C        3.0360    -0.5310    -1.1610 C.ar  1 <1>  -0.1500 
  7 C        3.5290     1.5270    -0.0070 C.ar  1 <1>  -0.1430 
  8 C        0.7850    -2.7190     0.4810 C.3   1 <1>   0.0400 
  9 C        3.8180     0.6000    -1.0030 C.ar  1 <1>  -0.1500 
 10 C        4.3550     2.7910     0.1830 C.3   1 <1>   0.5670 
 11 N        4.0970     3.6610    -0.9660 N.4   1 <1>  -0.8530 
 12 C        5.8380     2.5290     0.2880 C.3   1 <1>  -0.2660 
 13 C        6.3820     3.8770     0.5680 C.2   1 <1>   0.9060 
 14 O        6.3910     4.2580     1.7280 O.co2 1 <1>  -0.9000 
 15 O        6.4920     4.6250    -0.4080 O.co2 1 <1>  -0.9000 
 16 H        2.1890     1.9850     1.6130 H     1 <1>   0.1500 
 17 H        3.2630    -1.2460    -1.9330 H     1 <1>   0.1500 
 18 H        0.7310    -3.7330     0.1270 H     1 <1>   0.0800 
 19 H       -0.1980    -2.3850     0.7600 H     1 <1>   0.0800 
 20 H        1.4640    -2.6570     1.3130 H     1 <1>   0.0800 
 21 H        4.6560     0.7380    -1.6660 H     1 <1>   0.1500 
 22 H        4.0450     3.2930     1.0880 H     1 <1>   0.0800 
 23 H        4.1340     3.1330    -1.8340 H     1 <1>   0.4500 
 24 H        4.8990     4.3390    -0.9730 H     1 <1>   0.4500 
 25 H        3.2270     4.1790    -0.8660 H     1 <1>   0.4500 
 26 H        6.2650     2.1290    -0.6100 H     1 <1>   0.0800 
 27 H        6.0530     1.8830     1.1180 H     1 <1>   0.0800 
@<TRIPOS>BOND
  1   1   2  1   
  2   2   3  ar  
  3   2   4  ar  
  4   3   5  1   
  5   3   6  ar  
  6   4   7  ar  
  7   4  16  1   
  8   5   8  1   
  9   6   9  ar  
 10   6  17  1   
 11   7   9  ar  
 12   7  10  1   
 13   8  18  1   
 14   8  19  1   
 15   8  20  1   
 16   9  21  1   
 17  10  11  1   
 18  10  12  1   
 19  10  22  1   
 20  11  23  1   
 21  11  24  1   
 22  11  25  1   
 23  12  13  1   
 24  12  26  1   
 25  12  27  1   
 26  13  14  ar  
 27  13  15  ar  
@<TRIPOS>SUBSTRUCTURE
  1 ****   7 GROUP 4 **** **** 0

# MOE 2024.06 (io_trps.svl 2023.06)
