@<TRIPOS>MOLECULE
1-Morpholin-4-yl-3-(3-p-tolyl-[1,2,4]oxadiazol-5-yl)-propan-1-one
41 43 1 0 0 
SMALL
USER_CHARGES


@<TRIPOS>ATOM
  1 O        0.1280    -0.2060     0.7870 O.2   1 <1>  -0.5700 
  2 C        0.6970    -1.2560     0.6030 C.2   1 <1>   0.5690 
  3 N        2.0380    -1.3060     0.3200 N.am  1 <1>  -0.6600 
  4 C       -0.1120    -2.5400     0.7010 C.3   1 <1>  -0.0990 
  5 C        2.8660    -0.0610     0.2650 C.3   1 <1>   0.1400 
  6 C        2.8320    -2.5410     0.0360 C.3   1 <1>   0.1400 
  7 C       -1.5710    -2.3140     1.1320 C.3   1 <1>   0.0200 
  8 C        3.7160    -0.0260    -1.0160 C.3   1 <1>   0.1200 
  9 C        3.6820    -2.3610    -1.2340 C.3   1 <1>   0.1200 
 10 C       -2.3180    -3.6270     1.2350 C.2   1 <1>   0.2980 
 11 O        4.4620    -1.2040    -1.1470 O.3   1 <1>  -0.5600 
 12 O       -2.0140    -4.4490     2.2060 O.3   1 <1>  -0.0190 
 13 N       -3.2300    -4.0260     0.4500 N.2   1 <1>  -0.5650 
 14 N       -2.8000    -5.4610     2.0200 N.2   1 <1>  -0.4100 
 15 C       -3.5250    -5.2150     0.9850 C.2   1 <1>   0.4620 
 16 C       -4.5440    -6.0940     0.4340 C.ar  1 <1>   0.0540 
 17 C       -4.8160    -7.3380     1.0070 C.ar  1 <1>  -0.1500 
 18 C       -5.2950    -5.7380    -0.6880 C.ar  1 <1>  -0.1500 
 19 C       -5.7830    -8.1800     0.4900 C.ar  1 <1>  -0.1500 
 20 C       -6.2620    -6.5770    -1.2100 C.ar  1 <1>  -0.1500 
 21 C       -6.5150    -7.8050    -0.6230 C.ar  1 <1>  -0.1440 
 22 C       -7.5750    -8.7280    -1.1950 C.3   1 <1>  -0.0970 
 23 H        0.3650    -3.1890     1.4120 H     1 <1>   0.0800 
 24 H       -0.1070    -3.0200    -0.2610 H     1 <1>   0.0800 
 25 H        3.5170    -0.0320     1.1210 H     1 <1>   0.0800 
 26 H        2.2420     0.8150     0.2950 H     1 <1>   0.0800 
 27 H        2.1930    -3.3950    -0.0930 H     1 <1>   0.0800 
 28 H        3.4860    -2.7380     0.8680 H     1 <1>   0.0800 
 29 H       -2.0670    -1.6850     0.4130 H     1 <1>   0.0800 
 30 H       -1.6020    -1.8170     2.0850 H     1 <1>   0.0800 
 31 H        4.4050     0.7980    -0.9810 H     1 <1>   0.0800 
 32 H        3.0880     0.0850    -1.8830 H     1 <1>   0.0800 
 33 H        3.0540    -2.2890    -2.1050 H     1 <1>   0.0800 
 34 H        4.3480    -3.1960    -1.3560 H     1 <1>   0.0800 
 35 H       -4.2600    -7.6510     1.8740 H     1 <1>   0.1500 
 36 H       -5.1180    -4.7880    -1.1610 H     1 <1>   0.1500 
 37 H       -5.9630    -9.1320     0.9580 H     1 <1>   0.1500 
 38 H       -6.8200    -6.2690    -2.0780 H     1 <1>   0.1500 
 39 H       -7.1350    -9.3710    -1.9370 H     1 <1>   0.0800 
 40 H       -8.3630    -8.1570    -1.6530 H     1 <1>   0.0800 
 41 H       -8.0040    -9.3350    -0.4190 H     1 <1>   0.0800 
@<TRIPOS>BOND
  1   1   2  2   
  2   2   3  am  
  3   2   4  1   
  4   3   5  1   
  5   3   6  1   
  6   4   7  1   
  7   4  23  1   
  8   4  24  1   
  9   5   8  1   
 10   5  25  1   
 11   5  26  1   
 12   6   9  1   
 13   6  27  1   
 14   6  28  1   
 15   7  10  1   
 16   7  29  1   
 17   7  30  1   
 18   8  11  1   
 19   8  31  1   
 20   8  32  1   
 21   9  11  1   
 22   9  33  1   
 23   9  34  1   
 24  10  12  1   
 25  10  13  2   
 26  12  14  1   
 27  13  15  1   
 28  14  15  2   
 29  15  16  1   
 30  16  17  ar  
 31  16  18  ar  
 32  17  19  ar  
 33  17  35  1   
 34  18  20  ar  
 35  18  36  1   
 36  19  21  ar  
 37  19  37  1   
 38  20  21  ar  
 39  20  38  1   
 40  21  22  1   
 41  22  39  1   
 42  22  40  1   
 43  22  41  1   
@<TRIPOS>SUBSTRUCTURE
  1 ****  10 GROUP 4 **** **** 0

# MOE 2024.06 (io_trps.svl 2023.06)
