@<TRIPOS>MOLECULE
[1-(2,5-Dimethoxy-benzenesulfonyl)-piperidin-4-yl]-(4-methyl-piperidin-1-yl)-met
58 60 1 0 0 
SMALL
USER_CHARGES


@<TRIPOS>ATOM
  1 S       -0.2590     0.0170    -1.4030 S.o2  1 <1>   1.4470 
  2 O        0.3890    -1.0500    -2.1390 O.2   1 <1>  -0.6500 
  3 O       -1.0460     0.9750    -2.1500 O.2   1 <1>  -0.6500 
  4 N        0.9930     0.8570    -0.6250 N.am  1 <1>  -0.8490 
  5 C       -1.2670    -0.7090    -0.0840 C.ar  1 <1>  -0.0090 
  6 C        1.6980     1.7420    -1.5540 C.3   1 <1>   0.1960 
  7 C        1.9080    -0.0380     0.0850 C.3   1 <1>   0.1960 
  8 C       -1.8100     0.0690     0.9340 C.ar  1 <1>   0.0830 
  9 C       -1.5340    -2.0750    -0.0710 C.ar  1 <1>  -0.1500 
 10 C        2.7160     2.6000    -0.8000 C.3   1 <1>  -0.1600 
 11 C        2.9240     0.7740     0.8910 C.3   1 <1>  -0.1600 
 12 O       -1.5790     1.3970     0.9790 O.3   1 <1>  -0.3620 
 13 C       -2.5770    -0.4970     1.9410 C.ar  1 <1>  -0.1500 
 14 C       -2.3090    -2.6520     0.9300 C.ar  1 <1>   0.0830 
 15 C        3.7170     1.7290    -0.0170 C.3   1 <1>  -0.0190 
 16 C       -2.6070     2.2300     0.4930 C.3   1 <1>   0.0400 
 17 C       -2.8260    -1.8550     1.9370 C.ar  1 <1>  -0.1500 
 18 O       -2.5990    -3.9770     0.9910 O.3   1 <1>  -0.3630 
 19 C        4.7370     2.5510     0.7850 C.2   1 <1>   0.5690 
 20 C       -2.1630    -4.8700    -0.0110 C.3   1 <1>   0.0400 
 21 O        4.4100     3.6590     1.1440 O.2   1 <1>  -0.5700 
 22 N        5.9820     2.0450     1.0870 N.am  1 <1>  -0.6600 
 23 C        6.4680     0.6660     0.8010 C.3   1 <1>   0.1400 
 24 C        7.0100     2.8960     1.7520 C.3   1 <1>   0.1400 
 25 C        7.6900     0.7370    -0.1190 C.3   1 <1>  -0.1600 
 26 C        8.2490     2.9940     0.8550 C.3   1 <1>  -0.1600 
 27 C        8.8010     1.6060     0.4920 C.3   1 <1>  -0.0800 
 28 C        9.9850     1.7300    -0.4730 C.3   1 <1>  -0.2400 
 29 H        0.9910     2.3960    -2.0380 H     1 <1>   0.0800 
 30 H        2.1900     1.1570    -2.3140 H     1 <1>   0.0800 
 31 H        2.4200    -0.6740    -0.6180 H     1 <1>   0.0800 
 32 H        1.3490    -0.6620     0.7620 H     1 <1>   0.0800 
 33 H       -1.1240    -2.6780    -0.8600 H     1 <1>   0.1500 
 34 H        2.1830     3.2470    -0.1240 H     1 <1>   0.0800 
 35 H        3.2470     3.2230    -1.4970 H     1 <1>   0.0800 
 36 H        3.5920     0.1030     1.3980 H     1 <1>   0.0800 
 37 H        2.4000     1.3410     1.6420 H     1 <1>   0.0800 
 38 H       -2.9710     0.1270     2.7240 H     1 <1>   0.1500 
 39 H        4.2540     1.1550    -0.7480 H     1 <1>   0.0800 
 40 H       -2.2610     3.2470     0.5360 H     1 <1>   0.0800 
 41 H       -3.4790     2.1080     1.1090 H     1 <1>   0.0800 
 42 H       -2.8250     1.9620    -0.5260 H     1 <1>   0.0800 
 43 H       -3.4200    -2.3060     2.7110 H     1 <1>   0.1500 
 44 H       -2.5270    -5.8510     0.2360 H     1 <1>   0.0800 
 45 H       -1.0880    -4.8740    -0.0330 H     1 <1>   0.0800 
 46 H       -2.5680    -4.5580    -0.9580 H     1 <1>   0.0800 
 47 H        5.7080     0.0600     0.3450 H     1 <1>   0.0800 
 48 H        6.7430     0.1970     1.7300 H     1 <1>   0.0800 
 49 H        7.2730     2.4560     2.6980 H     1 <1>   0.0800 
 50 H        6.6290     3.8850     1.9420 H     1 <1>   0.0800 
 51 H        7.3870     1.1410    -1.0690 H     1 <1>   0.0800 
 52 H        8.0630    -0.2580    -0.2880 H     1 <1>   0.0800 
 53 H        9.0050     3.5640     1.3650 H     1 <1>   0.0800 
 54 H        7.9810     3.5300    -0.0390 H     1 <1>   0.0800 
 55 H        9.1480     1.1310     1.3960 H     1 <1>   0.0800 
 56 H        9.6780     2.2010    -1.3910 H     1 <1>   0.0800 
 57 H       10.3840     0.7580    -0.7030 H     1 <1>   0.0800 
 58 H       10.7670     2.3210    -0.0300 H     1 <1>   0.0800 
@<TRIPOS>BOND
  1   1   2  2   
  2   1   3  2   
  3   1   4  am  
  4   1   5  1   
  5   4   6  1   
  6   4   7  1   
  7   5   8  ar  
  8   5   9  ar  
  9   6  10  1   
 10   6  29  1   
 11   6  30  1   
 12   7  11  1   
 13   7  31  1   
 14   7  32  1   
 15   8  12  1   
 16   8  13  ar  
 17   9  14  ar  
 18   9  33  1   
 19  10  15  1   
 20  10  34  1   
 21  10  35  1   
 22  11  15  1   
 23  11  36  1   
 24  11  37  1   
 25  12  16  1   
 26  13  17  ar  
 27  13  38  1   
 28  14  17  ar  
 29  14  18  1   
 30  15  19  1   
 31  15  39  1   
 32  16  40  1   
 33  16  41  1   
 34  16  42  1   
 35  17  43  1   
 36  18  20  1   
 37  19  21  2   
 38  19  22  am  
 39  20  44  1   
 40  20  45  1   
 41  20  46  1   
 42  22  23  1   
 43  22  24  1   
 44  23  25  1   
 45  23  47  1   
 46  23  48  1   
 47  24  26  1   
 48  24  49  1   
 49  24  50  1   
 50  25  27  1   
 51  25  51  1   
 52  25  52  1   
 53  26  27  1   
 54  26  53  1   
 55  26  54  1   
 56  27  28  1   
 57  27  55  1   
 58  28  56  1   
 59  28  57  1   
 60  28  58  1   
@<TRIPOS>SUBSTRUCTURE
  1 ****   7 GROUP 4 **** **** 0

# MOE 2024.06 (io_trps.svl 2023.06)
