@<TRIPOS>MOLECULE
8-(3-Hydroxy-propyl)-1,3,6,7-tetramethyl-1H,8H-imidazo[2,1-f]purine-2,4-dione
42 44 1 0 0 
SMALL
USER_CHARGES


@<TRIPOS>ATOM
  1 O        0.6840     0.0680    -0.0360 O.2   1 <1>  -0.5760 
  2 C        1.6730     0.7720    -0.0390 C.2   1 <1>   0.6850 
  3 N        1.5430     2.1560    -0.1030 N.am  1 <1>  -0.4270 
  4 N        2.9350     0.1920     0.0190 N.am  1 <1>  -0.4430 
  5 C        2.6570     2.9870    -0.0890 C.2   1 <1>   0.6990 
  6 C        0.1710     2.7530    -0.1550 C.3   1 <1>   0.0510 
  7 C        4.0360     1.0250    -0.0030 C.2   1 <1>   0.4190 
  8 C        3.0930    -1.2920     0.0850 C.3   1 <1>   0.0510 
  9 O        2.5280     4.2000    -0.1070 O.2   1 <1>  -0.5760 
 10 C        3.9460     2.3760    -0.0510 C.2   1 <1>   0.2690 
 11 N        5.3510     0.6610     0.0190 N.pl3 1 <1>  -0.7040 
 12 N        5.2680     2.8560    -0.0550 N.pl3 1 <1>  -0.6340 
 13 C        6.0640     1.7950    -0.0130 C.cat 1 <1>   1.0680 
 14 C        6.0810     3.9680    -0.0860 C.2   1 <1>   0.2330 
 15 N        7.3620     2.1450    -0.0140 N.pl3 1 <1>  -0.5730 
 16 C        7.3630     3.5330    -0.0610 C.2   1 <1>   0.1560 
 17 C        5.4850     5.3610    -0.1370 C.3   1 <1>  -0.1110 
 18 C        8.5930     1.3030     0.0250 C.3   1 <1>   0.1590 
 19 C        8.6590     4.3280    -0.0770 C.3   1 <1>  -0.1110 
 20 C        8.2800    -0.1930     0.0740 C.3   1 <1>  -0.1690 
 21 C        9.5470    -1.0380     0.1150 C.3   1 <1>   0.1110 
 22 O        9.1320    -2.3520     0.1580 O.3   1 <1>  -0.6850 
 23 H       -0.4830     2.1350    -0.7460 H     1 <1>   0.0710 
 24 H        0.1930     3.7340    -0.5970 H     1 <1>   0.0710 
 25 H       -0.2280     2.8260     0.8420 H     1 <1>   0.0710 
 26 H        2.1990    -1.7520     0.4700 H     1 <1>   0.0710 
 27 H        3.9080    -1.5550     0.7350 H     1 <1>   0.0710 
 28 H        3.2800    -1.6800    -0.9020 H     1 <1>   0.0710 
 29 H        5.7520    -0.2750     0.0470 H     1 <1>   0.4440 
 30 H        4.8790     5.4700    -1.0190 H     1 <1>   0.0710 
 31 H        6.2540     6.1110    -0.1570 H     1 <1>   0.0710 
 32 H        4.8670     5.5290     0.7270 H     1 <1>   0.0710 
 33 H        9.1720     1.5730     0.8920 H     1 <1>   0.0710 
 34 H        9.1850     1.5120    -0.8510 H     1 <1>   0.0710 
 35 H        9.2310     4.1240     0.8110 H     1 <1>   0.0710 
 36 H        8.4620     5.3830    -0.1140 H     1 <1>   0.0710 
 37 H        9.2450     4.0650    -0.9390 H     1 <1>   0.0710 
 38 H        7.7300    -0.4730    -0.8070 H     1 <1>   0.0710 
 39 H        7.7140    -0.4110     0.9630 H     1 <1>   0.0710 
 40 H       10.1330    -0.8370     0.9970 H     1 <1>   0.0710 
 41 H       10.1480    -0.8990    -0.7690 H     1 <1>   0.0710 
 42 H        9.9000    -2.9600     0.1860 H     1 <1>   0.3930 
@<TRIPOS>BOND
  1   1   2  2   
  2   2   3  am  
  3   2   4  am  
  4   3   5  am  
  5   3   6  1   
  6   4   7  1   
  7   4   8  1   
  8   5   9  2   
  9   5  10  1   
 10   6  23  1   
 11   6  24  1   
 12   6  25  1   
 13   7  10  2   
 14   7  11  1   
 15   8  26  1   
 16   8  27  1   
 17   8  28  1   
 18  10  12  1   
 19  11  13  ar  
 20  11  29  1   
 21  12  13  ar  
 22  12  14  1   
 23  13  15  ar  
 24  14  16  2   
 25  14  17  1   
 26  15  16  1   
 27  15  18  1   
 28  16  19  1   
 29  17  30  1   
 30  17  31  1   
 31  17  32  1   
 32  18  20  1   
 33  18  33  1   
 34  18  34  1   
 35  19  35  1   
 36  19  36  1   
 37  19  37  1   
 38  20  21  1   
 39  20  38  1   
 40  20  39  1   
 41  21  22  1   
 42  21  40  1   
 43  21  41  1   
 44  22  42  1   
@<TRIPOS>SUBSTRUCTURE
  1 ****  13 GROUP 4 **** **** 0

# MOE 2024.06 (io_trps.svl 2023.06)
