@<TRIPOS>MOLECULE
N-{3-[5-(3,4-Dimethoxy-phenyl)-1-propionyl-4,5-dihydro-1H-pyrazol-3-yl]-phenyl}-
55 57 1 0 0 
SMALL
USER_CHARGES


@<TRIPOS>ATOM
  1 S       -0.1900     0.2510     0.0070 S.o2  1 <1>   1.3330 
  2 O        1.0240     1.0060    -0.1690 O.2   1 <1>  -0.6500 
  3 O       -0.5490    -0.8240    -0.8820 O.2   1 <1>  -0.6500 
  4 N       -1.5160     1.3320    -0.1160 N.am  1 <1>  -0.7570 
  5 C       -0.3230    -0.3250     1.6850 C.3   1 <1>  -0.1350 
  6 C       -1.6490     2.6430     0.3320 C.ar  1 <1>   0.1990 
  7 C       -2.7920     3.3510    -0.0110 C.ar  1 <1>  -0.1500 
  8 C       -0.6880     3.2740     1.1150 C.ar  1 <1>  -0.1500 
  9 C       -3.0150     4.6670     0.4010 C.ar  1 <1>   0.0860 
 10 C       -0.8770     4.5730     1.5430 C.ar  1 <1>  -0.1500 
 11 C       -4.2010     5.4170     0.0470 C.2   1 <1>   0.3030 
 12 C       -2.0240     5.2560     1.1900 C.ar  1 <1>  -0.1500 
 13 N       -4.4620     6.6130     0.3900 N.2   1 <1>  -0.5120 
 14 C       -5.2900     4.8180    -0.8140 C.3   1 <1>  -0.0990 
 15 N       -5.6720     7.0330    -0.1130 N.am  1 <1>  -0.2980 
 16 C       -6.3210     5.9420    -0.8720 C.3   1 <1>   0.3640 
 17 C       -6.1970     8.3150     0.0350 C.2   1 <1>   0.5690 
 18 C       -7.6450     5.5110    -0.2440 C.ar  1 <1>  -0.1430 
 19 O       -5.6550     9.1640     0.7050 O.2   1 <1>  -0.5700 
 20 C       -7.4830     8.7450    -0.6700 C.3   1 <1>  -0.0990 
 21 C       -8.7520     5.2870    -1.0520 C.ar  1 <1>  -0.1500 
 22 C       -7.7650     5.3350     1.1290 C.ar  1 <1>  -0.1500 
 23 C       -8.6890     8.8310     0.2800 C.3   1 <1>  -0.2400 
 24 C       -9.9640     4.9010    -0.5060 C.ar  1 <1>   0.0830 
 25 C       -8.9750     4.9610     1.6870 C.ar  1 <1>  -0.1500 
 26 O      -10.9860     4.6780    -1.3690 O.3   1 <1>  -0.3630 
 27 C      -10.0830     4.7600     0.8820 C.ar  1 <1>   0.0830 
 28 C      -11.5460     3.3820    -1.3800 C.3   1 <1>   0.0400 
 29 O      -11.2500     4.4440     1.4910 O.3   1 <1>  -0.3630 
 30 C      -12.2500     5.4380     1.4590 C.3   1 <1>   0.0400 
 31 H       -2.1570     0.9840    -0.8230 H     1 <1>   0.4200 
 32 H        0.4400    -1.0510     1.8850 H     1 <1>   0.0800 
 33 H       -1.2800    -0.7790     1.8470 H     1 <1>   0.0800 
 34 H       -0.2070     0.4920     2.3700 H     1 <1>   0.0800 
 35 H       -3.5250     2.8540    -0.6160 H     1 <1>   0.1500 
 36 H        0.2160     2.7660     1.3930 H     1 <1>   0.1500 
 37 H       -0.1280     5.0560     2.1480 H     1 <1>   0.1500 
 38 H       -2.1570     6.2710     1.5300 H     1 <1>   0.1500 
 39 H       -5.6980     3.9320    -0.3650 H     1 <1>   0.0800 
 40 H       -4.9220     4.5980    -1.7990 H     1 <1>   0.0800 
 41 H       -6.4600     6.2560    -1.8910 H     1 <1>   0.0800 
 42 H       -7.7160     8.0990    -1.4920 H     1 <1>   0.0800 
 43 H       -7.3080     9.7220    -1.0830 H     1 <1>   0.0800 
 44 H       -8.6900     5.4070    -2.1190 H     1 <1>   0.1500 
 45 H       -6.9170     5.5030     1.7740 H     1 <1>   0.1500 
 46 H       -8.9080     7.8690     0.7070 H     1 <1>   0.0800 
 47 H       -9.5570     9.1760    -0.2530 H     1 <1>   0.0800 
 48 H       -8.4780     9.5190     1.0800 H     1 <1>   0.0800 
 49 H       -9.0670     4.8330     2.7500 H     1 <1>   0.1500 
 50 H      -12.1910     3.3010    -2.2360 H     1 <1>   0.0800 
 51 H      -12.1150     3.2300    -0.4810 H     1 <1>   0.0800 
 52 H      -10.7520     2.6590    -1.4470 H     1 <1>   0.0800 
 53 H      -13.0940     5.0850     2.0250 H     1 <1>   0.0800 
 54 H      -12.5410     5.6180     0.4400 H     1 <1>   0.0800 
 55 H      -11.8590     6.3380     1.9000 H     1 <1>   0.0800 
@<TRIPOS>BOND
  1   1   2  2   
  2   1   3  2   
  3   1   4  am  
  4   1   5  1   
  5   4   6  1   
  6   4  31  1   
  7   5  32  1   
  8   5  33  1   
  9   5  34  1   
 10   6   7  ar  
 11   6   8  ar  
 12   7   9  ar  
 13   7  35  1   
 14   8  10  ar  
 15   8  36  1   
 16   9  11  1   
 17   9  12  ar  
 18  10  12  ar  
 19  10  37  1   
 20  11  13  2   
 21  11  14  1   
 22  12  38  1   
 23  13  15  1   
 24  14  16  1   
 25  14  39  1   
 26  14  40  1   
 27  15  16  1   
 28  15  17  am  
 29  16  18  1   
 30  16  41  1   
 31  17  19  2   
 32  17  20  1   
 33  18  21  ar  
 34  18  22  ar  
 35  20  23  1   
 36  20  42  1   
 37  20  43  1   
 38  21  24  ar  
 39  21  44  1   
 40  22  25  ar  
 41  22  45  1   
 42  23  46  1   
 43  23  47  1   
 44  23  48  1   
 45  24  26  1   
 46  24  27  ar  
 47  25  27  ar  
 48  25  49  1   
 49  26  28  1   
 50  27  29  1   
 51  28  50  1   
 52  28  51  1   
 53  28  52  1   
 54  29  30  1   
 55  30  53  1   
 56  30  54  1   
 57  30  55  1   
@<TRIPOS>SUBSTRUCTURE
  1 ****  14 GROUP 4 **** **** 0

# MOE 2024.06 (io_trps.svl 2023.06)
