@<TRIPOS>MOLECULE
2-Ethyl-7,8,9,10-tetrahydro-6-thia-1,3,3a,5-tetraaza-cyclopenta[c]fluorene
33 36 1 0 0 
SMALL
USER_CHARGES


@<TRIPOS>ATOM
  1 S       -0.3130    -0.5580    -0.2340 S.3   1 <1>  -0.0800 
  2 C        1.2090     0.3080    -0.2260 C.2   1 <1>   0.1660 
  3 C       -1.2080     0.9500    -0.1180 C.2   1 <1>  -0.1400 
  4 N        2.4000    -0.3240    -0.2940 N.2   1 <1>  -0.5760 
  5 C        1.0080     1.6600    -0.1400 C.2   1 <1>  -0.0370 
  6 C       -0.3890     2.0150    -0.0910 C.2   1 <1>  -0.1810 
  7 C       -2.7200     0.9270    -0.0670 C.3   1 <1>   0.0200 
  8 C        3.4420     0.4370    -0.2720 C.2   1 <1>   0.8090 
  9 C        2.1900     2.4190    -0.1160 C.cat 1 <1>   0.8370 
 10 C       -0.9480     3.4300    -0.0090 C.3   1 <1>   0.0210 
 11 C       -3.2300     2.3170     0.3510 C.3   1 <1>  -0.1600 
 12 N        3.3770     1.8130    -0.1840 N.pl3 1 <1>  -0.3620 
 13 N        2.4350     3.7230    -0.0310 N.pl3 1 <1>  -0.7000 
 14 C       -2.4530     3.4510    -0.3470 C.3   1 <1>  -0.1600 
 15 N        4.3850     2.7370    -0.1440 N.2   1 <1>  -0.2600 
 16 C        3.7840     3.8700    -0.0510 C.2   1 <1>   0.4850 
 17 C        4.4420     5.2440     0.0290 C.3   1 <1>   0.0080 
 18 C        5.9780     5.2060    -0.0110 C.3   1 <1>  -0.2400 
 19 H       -3.0580     0.1850     0.6360 H     1 <1>   0.0800 
 20 H       -3.0990     0.6700    -1.0410 H     1 <1>   0.0800 
 21 H        4.4260     0.0020    -0.3240 H     1 <1>   0.0600 
 22 H       -0.4360     4.0760    -0.6990 H     1 <1>   0.0800 
 23 H       -0.8050     3.8050     0.9900 H     1 <1>   0.0800 
 24 H       -3.1190     2.4220     1.4170 H     1 <1>   0.0800 
 25 H       -4.2790     2.3950     0.1230 H     1 <1>   0.0800 
 26 H        1.7380     4.4610     0.0420 H     1 <1>   0.4500 
 27 H       -2.5740     3.3450    -1.4120 H     1 <1>   0.0800 
 28 H       -2.8700     4.4020    -0.0640 H     1 <1>   0.0800 
 29 H        4.1320     5.7210     0.9420 H     1 <1>   0.0800 
 30 H        4.0910     5.8430    -0.7930 H     1 <1>   0.0800 
 31 H        6.3660     4.6380     0.8180 H     1 <1>   0.0800 
 32 H        6.3740     6.2050     0.0490 H     1 <1>   0.0800 
 33 H        6.3240     4.7600    -0.9280 H     1 <1>   0.0800 
@<TRIPOS>BOND
  1   1   2  1   
  2   1   3  1   
  3   2   4  1   
  4   2   5  2   
  5   3   6  2   
  6   3   7  1   
  7   4   8  2   
  8   5   6  1   
  9   5   9  1   
 10   6  10  1   
 11   7  11  1   
 12   7  19  1   
 13   7  20  1   
 14   8  12  1   
 15   8  21  1   
 16   9  12  ar  
 17   9  13  ar  
 18  10  14  1   
 19  10  22  1   
 20  10  23  1   
 21  11  14  1   
 22  11  24  1   
 23  11  25  1   
 24  12  15  1   
 25  13  16  1   
 26  13  26  1   
 27  14  27  1   
 28  14  28  1   
 29  15  16  2   
 30  16  17  1   
 31  17  18  1   
 32  17  29  1   
 33  17  30  1   
 34  18  31  1   
 35  18  32  1   
 36  18  33  1   
@<TRIPOS>SUBSTRUCTURE
  1 ****   5 GROUP 4 **** **** 0

# MOE 2024.06 (io_trps.svl 2023.06)
