@<TRIPOS>MOLECULE
6,7,8,9-Tetrahydro-5H-carbazol-3-ylamine
28 30 1 0 0 
SMALL
USER_CHARGES


@<TRIPOS>ATOM
  1 N        0.0210    -0.4010     0.1470 N.pl3 1 <1>   0.0330 
  2 C       -1.1640     0.2970     0.0940 C.ar  1 <1>  -0.1520 
  3 C        1.0430     0.5000     0.0620 C.2   1 <1>  -0.3320 
  4 C       -0.8720     1.6520    -0.0230 C.ar  1 <1>   0.0000 
  5 C       -2.4880    -0.1480     0.1420 C.ar  1 <1>  -0.1500 
  6 C        0.5370     1.7490    -0.0350 C.2   1 <1>  -0.1810 
  7 C        2.5210     0.1600     0.0830 C.3   1 <1>   0.0200 
  8 C       -1.9140     2.5800    -0.0990 C.ar  1 <1>  -0.1500 
  9 C       -3.5020     0.7790     0.0650 C.ar  1 <1>  -0.1500 
 10 C        1.3820     3.0020    -0.1390 C.3   1 <1>   0.0210 
 11 C        3.3430     1.3790    -0.3760 C.3   1 <1>  -0.1600 
 12 C       -3.2230     2.1480    -0.0620 C.ar  1 <1>   0.1000 
 13 C        2.8400     2.6930     0.2550 C.3   1 <1>  -0.1600 
 14 N       -4.2730     3.0530    -0.1560 N.pl3 1 <1>  -0.9000 
 15 H        0.1050    -1.4170     0.2360 H     1 <1>   0.2700 
 16 H       -2.7000    -1.1970     0.2390 H     1 <1>   0.1500 
 17 H        2.7210    -0.6740    -0.5660 H     1 <1>   0.0800 
 18 H        2.8010    -0.1100     1.0860 H     1 <1>   0.0800 
 19 H       -1.6790     3.6220    -0.1830 H     1 <1>   0.1500 
 20 H       -4.5270     0.4630     0.1060 H     1 <1>   0.1500 
 21 H        0.9840     3.7650     0.5050 H     1 <1>   0.0800 
 22 H        1.3440     3.3570    -1.1530 H     1 <1>   0.0800 
 23 H        3.2700     1.4610    -1.4470 H     1 <1>   0.0800 
 24 H        4.3780     1.2250    -0.1270 H     1 <1>   0.0800 
 25 H        2.8960     2.6060     1.3270 H     1 <1>   0.0800 
 26 H        3.4710     3.5110    -0.0440 H     1 <1>   0.0800 
 27 H       -5.1240     2.6570    -0.5610 H     1 <1>   0.4000 
 28 H       -4.0220     3.9260    -0.6270 H     1 <1>   0.4000 
@<TRIPOS>BOND
  1   1   2  1   
  2   1   3  1   
  3   1  15  1   
  4   2   4  ar  
  5   2   5  ar  
  6   3   6  2   
  7   3   7  1   
  8   4   6  1   
  9   4   8  ar  
 10   5   9  ar  
 11   5  16  1   
 12   6  10  1   
 13   7  11  1   
 14   7  17  1   
 15   7  18  1   
 16   8  12  ar  
 17   8  19  1   
 18   9  12  ar  
 19   9  20  1   
 20  10  13  1   
 21  10  21  1   
 22  10  22  1   
 23  11  13  1   
 24  11  23  1   
 25  11  24  1   
 26  12  14  1   
 27  13  25  1   
 28  13  26  1   
 29  14  27  1   
 30  14  28  1   
@<TRIPOS>SUBSTRUCTURE
  1 ****   4 GROUP 4 **** **** 0

# MOE 2024.06 (io_trps.svl 2023.06)
