@<TRIPOS>MOLECULE
1-(Naphthalene-2-sulfonyl)-piperidine-3-carboxylic acid (2-ethoxy-phenyl)-amide
57 60 1 0 0 
SMALL
USER_CHARGES


@<TRIPOS>ATOM
  1 S       -0.4740     2.2310     1.9450 S.o2  1 <1>   1.4470 
  2 O       -0.6930     3.6270     2.2610 O.2   1 <1>  -0.6500 
  3 O        0.0730     1.3480     2.9510 O.2   1 <1>  -0.6500 
  4 N        0.5850     2.1930     0.6210 N.am  1 <1>  -0.8490 
  5 C       -1.9940     1.4980     1.2780 C.ar  1 <1>  -0.0090 
  6 C        1.9690     2.4650     1.0450 C.3   1 <1>   0.1960 
  7 C        0.1800     3.1290    -0.4340 C.3   1 <1>   0.1960 
  8 C       -3.1730     2.1980     1.2120 C.ar  1 <1>  -0.1500 
  9 C       -1.9860     0.1780     0.7960 C.ar  1 <1>  -0.1500 
 10 C        2.9400     2.2570    -0.1260 C.3   1 <1>  -0.0190 
 11 C        1.0680     2.9450    -1.6690 C.3   1 <1>  -0.1600 
 12 C       -4.3540     1.6440     0.6800 C.ar  1 <1>   0.0000 
 13 C       -3.1140    -0.3940     0.2740 C.ar  1 <1>  -0.1500 
 14 C        4.3710     2.5300     0.3150 C.2   1 <1>   0.5690 
 15 C        2.5500     3.1430    -1.3240 C.3   1 <1>  -0.1600 
 16 C       -4.3250     0.3200     0.1990 C.ar  1 <1>   0.0000 
 17 C       -5.5640     2.3640     0.6100 C.ar  1 <1>  -0.1500 
 18 O        4.5940     3.5000     0.9970 O.2   1 <1>  -0.5700 
 19 N        5.3350     1.6580    -0.1060 N.am  1 <1>  -0.5470 
 20 C       -5.5050    -0.2350    -0.3360 C.ar  1 <1>  -0.1500 
 21 C       -6.6950     1.8010     0.0860 C.ar  1 <1>  -0.1500 
 22 C        6.7290     1.5910     0.0720 C.ar  1 <1>   0.1170 
 23 C       -6.6650     0.4860    -0.3930 C.ar  1 <1>  -0.1500 
 24 C        7.4170     0.5530    -0.5690 C.ar  1 <1>   0.0830 
 25 C        7.4500     2.4940     0.8450 C.ar  1 <1>  -0.1500 
 26 O        6.6710    -0.3150    -1.3180 O.3   1 <1>  -0.3630 
 27 C        8.7970     0.4390    -0.4290 C.ar  1 <1>  -0.1500 
 28 C        8.8220     2.3770     0.9800 C.ar  1 <1>  -0.1500 
 29 C        7.2700    -1.3870    -2.0080 C.3   1 <1>   0.1200 
 30 C        9.4960     1.3500     0.3440 C.ar  1 <1>  -0.1500 
 31 C        6.1710    -2.1480    -2.7430 C.3   1 <1>  -0.2400 
 32 H        2.2460     1.7960     1.8420 H     1 <1>   0.0800 
 33 H        2.0450     3.4750     1.4180 H     1 <1>   0.0800 
 34 H        0.2540     4.1440    -0.0770 H     1 <1>   0.0800 
 35 H       -0.8450     2.9450    -0.7130 H     1 <1>   0.0800 
 36 H       -3.2140     3.2110     1.5770 H     1 <1>   0.1500 
 37 H       -1.0640    -0.3770     0.8490 H     1 <1>   0.1500 
 38 H        2.8670     1.2260    -0.4190 H     1 <1>   0.0800 
 39 H        0.7760     3.6520    -2.4250 H     1 <1>   0.0800 
 40 H        0.9120     1.9570    -2.0650 H     1 <1>   0.0800 
 41 H       -3.0930    -1.4060    -0.0890 H     1 <1>   0.1500 
 42 H        3.1630     2.9050    -2.1760 H     1 <1>   0.0800 
 43 H        2.7210     4.1770    -1.0690 H     1 <1>   0.0800 
 44 H       -5.5840     3.3740     0.9800 H     1 <1>   0.1500 
 45 H        5.0110     0.8880    -0.6950 H     1 <1>   0.3700 
 46 H       -5.4760    -1.2460    -0.7010 H     1 <1>   0.1500 
 47 H       -7.6160     2.3550     0.0340 H     1 <1>   0.1500 
 48 H       -7.5630     0.0580    -0.8020 H     1 <1>   0.1500 
 49 H        6.9490     3.2990     1.3490 H     1 <1>   0.1500 
 50 H        9.3490    -0.3460    -0.9090 H     1 <1>   0.1500 
 51 H        9.3620     3.0860     1.5820 H     1 <1>   0.1500 
 52 H        7.7590    -2.0240    -1.2910 H     1 <1>   0.0800 
 53 H        7.9870    -0.9870    -2.7050 H     1 <1>   0.0800 
 54 H       10.5630     1.2620     0.4510 H     1 <1>   0.1500 
 55 H        5.4550    -2.5340    -2.0410 H     1 <1>   0.0800 
 56 H        6.6000    -2.9730    -3.2830 H     1 <1>   0.0800 
 57 H        5.6780    -1.5000    -3.4450 H     1 <1>   0.0800 
@<TRIPOS>BOND
  1   1   2  2   
  2   1   3  2   
  3   1   4  am  
  4   1   5  1   
  5   4   6  1   
  6   4   7  1   
  7   5   8  ar  
  8   5   9  ar  
  9   6  10  1   
 10   6  32  1   
 11   6  33  1   
 12   7  11  1   
 13   7  34  1   
 14   7  35  1   
 15   8  12  ar  
 16   8  36  1   
 17   9  13  ar  
 18   9  37  1   
 19  10  14  1   
 20  10  15  1   
 21  10  38  1   
 22  11  15  1   
 23  11  39  1   
 24  11  40  1   
 25  12  16  ar  
 26  12  17  ar  
 27  13  16  ar  
 28  13  41  1   
 29  14  18  2   
 30  14  19  am  
 31  15  42  1   
 32  15  43  1   
 33  16  20  ar  
 34  17  21  ar  
 35  17  44  1   
 36  19  22  1   
 37  19  45  1   
 38  20  23  ar  
 39  20  46  1   
 40  21  23  ar  
 41  21  47  1   
 42  22  24  ar  
 43  22  25  ar  
 44  23  48  1   
 45  24  26  1   
 46  24  27  ar  
 47  25  28  ar  
 48  25  49  1   
 49  26  29  1   
 50  27  30  ar  
 51  27  50  1   
 52  28  30  ar  
 53  28  51  1   
 54  29  31  1   
 55  29  52  1   
 56  29  53  1   
 57  30  54  1   
 58  31  55  1   
 59  31  56  1   
 60  31  57  1   
@<TRIPOS>SUBSTRUCTURE
  1 ****   4 GROUP 4 **** **** 0

# MOE 2024.06 (io_trps.svl 2023.06)
