@<TRIPOS>MOLECULE
8-Azepan-1-yl-7-[2-(4,6-dimethyl-pyrimidin-2-ylsulfanyl)-ethyl]-1,3-dimethyl-3,7
61 64 1 0 0 
SMALL
USER_CHARGES


@<TRIPOS>ATOM
  1 S        0.6080    -0.6360    -1.6210 S.3   1 <1>  -0.3360 
  2 C        0.6640    -0.6330     0.1650 C.ar  1 <1>   0.7190 
  3 C       -1.1460    -1.0590    -2.0630 C.3   1 <1>   0.0640 
  4 N       -0.4760    -0.3770     0.7840 N.ar  1 <1>  -0.6230 
  5 N        1.8430    -0.9420     0.6740 N.ar  1 <1>  -0.6230 
  6 C       -1.2760    -2.5790    -2.2570 C.3   1 <1>   0.3490 
  7 C       -0.3870    -0.3280     2.0940 C.ar  1 <1>   0.1610 
  8 C        1.8990    -0.9040     1.9850 C.ar  1 <1>   0.1610 
  9 N       -0.7390    -3.3440    -1.0870 N.pl3 1 <1>  -0.7670 
 10 C        0.7950    -0.5930     2.7470 C.ar  1 <1>  -0.1560 
 11 C       -1.6300     0.0510     2.8710 C.3   1 <1>  -0.1030 
 12 C        3.2360    -1.2040     2.6290 C.3   1 <1>  -0.1030 
 13 C        0.5110    -3.7830    -0.8410 C.cat 1 <1>   1.0690 
 14 C       -1.4180    -3.3280     0.1500 C.2   1 <1>   0.2720 
 15 N        0.6340    -4.0350     0.4620 N.pl3 1 <1>  -0.7030 
 16 N        1.5410    -3.9510    -1.7010 N.pl3 1 <1>  -0.5950 
 17 C       -2.7310    -2.9430     0.5770 C.2   1 <1>   0.7000 
 18 C       -0.5380    -3.7500     1.0790 C.2   1 <1>   0.4220 
 19 C        1.3520    -4.2250    -3.1540 C.3   1 <1>   0.1620 
 20 C        2.9540    -3.8060    -1.2430 C.3   1 <1>   0.1620 
 21 O       -3.5650    -2.5460    -0.2210 O.2   1 <1>  -0.5740 
 22 N       -3.0350    -3.0380     1.9290 N.am  1 <1>  -0.4250 
 23 N       -0.8180    -3.8280     2.4290 N.am  1 <1>  -0.4400 
 24 C        2.3690    -5.2070    -3.7530 C.3   1 <1>  -0.1660 
 25 C        3.5150    -5.1520    -0.7660 C.3   1 <1>  -0.1660 
 26 C       -2.0650    -3.3990     2.8570 C.2   1 <1>   0.6870 
 27 C       -4.4130    -2.7000     2.4030 C.3   1 <1>   0.0540 
 28 C        0.2180    -4.2800     3.4030 C.3   1 <1>   0.0540 
 29 C        2.7020    -6.4190    -2.8690 C.3   1 <1>  -0.1660 
 30 C        3.8550    -6.1340    -1.8960 C.3   1 <1>  -0.1660 
 31 O       -2.3010    -3.3160     4.0460 O.2   1 <1>  -0.5740 
 32 H       -1.3690    -0.5410    -2.9790 H     1 <1>   0.0740 
 33 H       -1.8020    -0.6940    -1.2940 H     1 <1>   0.0740 
 34 H       -0.7640    -2.8450    -3.1600 H     1 <1>   0.0740 
 35 H       -2.3140    -2.8280    -2.4030 H     1 <1>   0.0740 
 36 H        0.8520    -0.5460     3.8190 H     1 <1>   0.1440 
 37 H       -2.5140    -0.2210     2.3250 H     1 <1>   0.0740 
 38 H       -1.6440     1.1150     3.0250 H     1 <1>   0.0740 
 39 H       -1.6470    -0.4400     3.8270 H     1 <1>   0.0740 
 40 H        3.5680    -2.1860     2.3490 H     1 <1>   0.0740 
 41 H        3.1700    -1.1500     3.7000 H     1 <1>   0.0740 
 42 H        3.9630    -0.4860     2.2940 H     1 <1>   0.0740 
 43 H        1.5060    -4.3270     0.8870 H     1 <1>   0.4460 
 44 H        1.4020    -3.2970    -3.6980 H     1 <1>   0.0740 
 45 H        0.3750    -4.6530    -3.2990 H     1 <1>   0.0740 
 46 H        2.9960    -3.0970    -0.4340 H     1 <1>   0.0740 
 47 H        3.5630    -3.4060    -2.0370 H     1 <1>   0.0740 
 48 H        3.2710    -4.6820    -4.0170 H     1 <1>   0.0740 
 49 H        1.9550    -5.5680    -4.6790 H     1 <1>   0.0740 
 50 H        2.8340    -5.6230    -0.0820 H     1 <1>   0.0740 
 51 H        4.4250    -4.9590    -0.2240 H     1 <1>   0.0740 
 52 H       -5.1420    -2.9220     1.6430 H     1 <1>   0.0740 
 53 H       -4.4670    -1.6530     2.6440 H     1 <1>   0.0740 
 54 H       -4.6590    -3.2720     3.2810 H     1 <1>   0.0740 
 55 H        0.7370    -5.1410     3.0210 H     1 <1>   0.0740 
 56 H       -0.2350    -4.5520     4.3410 H     1 <1>   0.0740 
 57 H        0.9210    -3.4840     3.5780 H     1 <1>   0.0740 
 58 H        3.0180    -7.2230    -3.5140 H     1 <1>   0.0740 
 59 H        1.8300    -6.7620    -2.3390 H     1 <1>   0.0740 
 60 H        4.1640    -7.0660    -1.4520 H     1 <1>   0.0740 
 61 H        4.7000    -5.7600    -2.4500 H     1 <1>   0.0740 
@<TRIPOS>BOND
  1   1   2  1   
  2   1   3  1   
  3   2   4  ar  
  4   2   5  ar  
  5   3   6  1   
  6   3  32  1   
  7   3  33  1   
  8   4   7  ar  
  9   5   8  ar  
 10   6   9  1   
 11   6  34  1   
 12   6  35  1   
 13   7  10  ar  
 14   7  11  1   
 15   8  10  ar  
 16   8  12  1   
 17   9  13  ar  
 18   9  14  1   
 19  10  36  1   
 20  11  37  1   
 21  11  38  1   
 22  11  39  1   
 23  12  40  1   
 24  12  41  1   
 25  12  42  1   
 26  13  15  ar  
 27  13  16  ar  
 28  14  17  1   
 29  14  18  2   
 30  15  18  1   
 31  15  43  1   
 32  16  19  1   
 33  16  20  1   
 34  17  21  2   
 35  17  22  am  
 36  18  23  1   
 37  19  24  1   
 38  19  44  1   
 39  19  45  1   
 40  20  25  1   
 41  20  46  1   
 42  20  47  1   
 43  22  26  am  
 44  22  27  1   
 45  23  26  am  
 46  23  28  1   
 47  24  29  1   
 48  24  48  1   
 49  24  49  1   
 50  25  30  1   
 51  25  50  1   
 52  25  51  1   
 53  26  31  2   
 54  27  52  1   
 55  27  53  1   
 56  27  54  1   
 57  28  55  1   
 58  28  56  1   
 59  28  57  1   
 60  29  30  1   
 61  29  58  1   
 62  29  59  1   
 63  30  60  1   
 64  30  61  1   
@<TRIPOS>SUBSTRUCTURE
  1 ****  15 GROUP 4 **** **** 0

# MOE 2024.06 (io_trps.svl 2023.06)
