@<TRIPOS>MOLECULE
NONAME
58 60 1 0 0 
SMALL
USER_CHARGES


@<TRIPOS>ATOM
  1 S        0.2890     0.4420     0.9970 S.o2  1 <1>   1.5760 
  2 O       -0.0030    -0.7200     1.8050 O.2   1 <1>  -0.6500 
  3 O        0.5360     1.7270     1.6130 O.2   1 <1>  -0.6500 
  4 N       -0.8770     0.6120    -0.2140 N.am  1 <1>  -0.8490 
  5 N        1.6270     0.0820     0.0360 N.am  1 <1>  -0.8490 
  6 C       -1.8920     1.6420     0.0140 C.3   1 <1>   0.1960 
  7 C       -1.3050    -0.6350    -0.8500 C.3   1 <1>   0.1960 
  8 C        2.7470    -0.3980     0.8580 C.3   1 <1>   0.1960 
  9 C        2.0600     1.2400    -0.7640 C.3   1 <1>   0.1960 
 10 C       -2.8550     1.2960     1.1600 C.3   1 <1>  -0.1600 
 11 C       -2.4720    -1.3540    -0.1550 C.3   1 <1>  -0.1600 
 12 C        3.9780    -0.7330    -0.0040 C.3   1 <1>   0.1960 
 13 C        3.2910     0.9030    -1.6260 C.3   1 <1>   0.1960 
 14 C       -4.0720     0.4500     0.7520 C.3   1 <1>  -0.1600 
 15 C       -3.8150    -0.6260    -0.3120 C.3   1 <1>  -0.1600 
 16 N        4.4110     0.4280    -0.8020 N.am  1 <1>  -0.8490 
 17 S        5.7480     0.0630    -1.7610 S.o2  1 <1>   1.5760 
 18 O        6.0930     1.2370    -2.5300 O.2   1 <1>  -0.6500 
 19 O        5.4780    -1.1950    -2.4210 O.2   1 <1>  -0.6500 
 20 N        6.9210    -0.1600    -0.5650 N.am  1 <1>  -0.8490 
 21 C        8.1020    -0.8340    -1.1110 C.3   1 <1>   0.1960 
 22 C        7.2390     1.1150     0.0880 C.3   1 <1>   0.1960 
 23 C        8.8370    -1.5980    -0.0060 C.3   1 <1>  -0.1600 
 24 C        8.1170     0.9580     1.3360 C.3   1 <1>  -0.1600 
 25 C        9.9120    -0.7980     0.7470 C.3   1 <1>  -0.1600 
 26 C        9.5910     0.6810     1.0060 C.3   1 <1>  -0.1600 
 27 H       -2.4470     1.8130    -0.8920 H     1 <1>   0.0800 
 28 H       -1.3900     2.5640     0.2540 H     1 <1>   0.0800 
 29 H       -0.4640    -1.3070    -0.8980 H     1 <1>   0.0800 
 30 H       -1.5870    -0.4180    -1.8660 H     1 <1>   0.0800 
 31 H        2.4470    -1.2860     1.3880 H     1 <1>   0.0800 
 32 H        3.0180     0.3490     1.5850 H     1 <1>   0.0800 
 33 H        2.3080     2.0680    -0.1200 H     1 <1>   0.0800 
 34 H        1.2580     1.5520    -1.4100 H     1 <1>   0.0800 
 35 H       -3.2260     2.2180     1.5710 H     1 <1>   0.0800 
 36 H       -2.3240     0.8040     1.9550 H     1 <1>   0.0800 
 37 H       -2.2520    -1.5410     0.8810 H     1 <1>   0.0800 
 38 H       -2.5680    -2.3160    -0.6280 H     1 <1>   0.0800 
 39 H        3.7330    -1.5600    -0.6490 H     1 <1>   0.0800 
 40 H        4.7810    -1.0440     0.6430 H     1 <1>   0.0800 
 41 H        3.5910     1.7880    -2.1620 H     1 <1>   0.0800 
 42 H        3.0190     0.1510    -2.3490 H     1 <1>   0.0800 
 43 H       -4.8460     1.1020     0.3860 H     1 <1>   0.0800 
 44 H       -4.4560    -0.0250     1.6390 H     1 <1>   0.0800 
 45 H       -4.6110    -1.3480    -0.2500 H     1 <1>   0.0800 
 46 H       -3.8690    -0.1850    -1.2930 H     1 <1>   0.0800 
 47 H        8.7520    -0.1370    -1.6130 H     1 <1>   0.0800 
 48 H        7.7920    -1.5670    -1.8380 H     1 <1>   0.0800 
 49 H        6.3210     1.5830     0.4020 H     1 <1>   0.0800 
 50 H        7.7120     1.7820    -0.6140 H     1 <1>   0.0800 
 51 H        9.3180    -2.4520    -0.4490 H     1 <1>   0.0800 
 52 H        8.1100    -1.9800     0.6910 H     1 <1>   0.0800 
 53 H        7.7110     0.2030     1.9870 H     1 <1>   0.0800 
 54 H        8.0750     1.8920     1.8680 H     1 <1>   0.0800 
 55 H       10.8350    -0.8460     0.1950 H     1 <1>   0.0800 
 56 H       10.0860    -1.2850     1.6910 H     1 <1>   0.0800 
 57 H       10.2010     1.0130     1.8280 H     1 <1>   0.0800 
 58 H        9.8790     1.2660     0.1490 H     1 <1>   0.0800 
@<TRIPOS>BOND
  1   1   2  2   
  2   1   3  2   
  3   1   4  am  
  4   1   5  am  
  5   4   6  1   
  6   4   7  1   
  7   5   8  1   
  8   5   9  1   
  9   6  10  1   
 10   6  27  1   
 11   6  28  1   
 12   7  11  1   
 13   7  29  1   
 14   7  30  1   
 15   8  12  1   
 16   8  31  1   
 17   8  32  1   
 18   9  13  1   
 19   9  33  1   
 20   9  34  1   
 21  10  14  1   
 22  10  35  1   
 23  10  36  1   
 24  11  15  1   
 25  11  37  1   
 26  11  38  1   
 27  12  16  1   
 28  12  39  1   
 29  12  40  1   
 30  13  16  1   
 31  13  41  1   
 32  13  42  1   
 33  14  15  1   
 34  14  43  1   
 35  14  44  1   
 36  15  45  1   
 37  15  46  1   
 38  16  17  am  
 39  17  18  2   
 40  17  19  2   
 41  17  20  am  
 42  20  21  1   
 43  20  22  1   
 44  21  23  1   
 45  21  47  1   
 46  21  48  1   
 47  22  24  1   
 48  22  49  1   
 49  22  50  1   
 50  23  25  1   
 51  23  51  1   
 52  23  52  1   
 53  24  26  1   
 54  24  53  1   
 55  24  54  1   
 56  25  26  1   
 57  25  55  1   
 58  25  56  1   
 59  26  57  1   
 60  26  58  1   
@<TRIPOS>SUBSTRUCTURE
  1 ****   8 GROUP 4 **** **** 0

# MOE 2024.06 (io_trps.svl 2023.06)
