@<TRIPOS>MOLECULE
6-Amino-2-[2-(2,6-dimethyl-piperidin-1-yl)-2-oxo-ethylsulfanyl]-5-phenyl-3H-pyri
50 52 1 0 0 
SMALL
USER_CHARGES


@<TRIPOS>ATOM
  1 S        0.3380     0.1370    -0.0370 S.3   1 <1>  -0.3710 
  2 C       -1.1810     1.0240     0.1530 C.2   1 <1>   0.6410 
  3 C        1.2940     0.5930     1.4960 C.3   1 <1>   0.1310 
  4 N       -2.1080     0.7580    -0.7950 N.pl3 1 <1>  -0.5500 
  5 N       -1.3210     1.8370     1.1230 N.2   1 <1>  -0.6610 
  6 C        2.7040     0.0150     1.4550 C.2   1 <1>   0.5690 
  7 C       -3.3130     1.3610    -0.7710 C.2   1 <1>   0.2000 
  8 C       -2.5280     2.4800     1.1950 C.2   1 <1>   0.7670 
  9 O        2.8310    -1.0850     1.9390 O.2   1 <1>  -0.5700 
 10 N        3.7540     0.7320     0.9100 N.am  1 <1>  -0.6600 
 11 N       -4.1600     1.0410    -1.7780 N.pl3 1 <1>  -0.9000 
 12 C       -3.5740     2.2470     0.2540 C.2   1 <1>  -0.0140 
 13 O       -2.6520     3.2780     2.1190 O.2   1 <1>  -0.5700 
 14 C        5.1820     0.2820     0.8990 C.3   1 <1>   0.2200 
 15 C        3.5140     1.8610    -0.0440 C.3   1 <1>   0.2200 
 16 C       -4.8470     2.9120     0.3750 C.ar  1 <1>   0.0280 
 17 C        5.4640    -0.4010    -0.4490 C.3   1 <1>  -0.1600 
 18 C        5.6280    -0.5640     2.0940 C.3   1 <1>  -0.2400 
 19 C        4.4380     1.7710    -1.2800 C.3   1 <1>  -0.1600 
 20 C        3.6900     3.1910     0.6880 C.3   1 <1>  -0.2400 
 21 C       -4.9480     4.3030     0.3530 C.ar  1 <1>  -0.1500 
 22 C       -6.0280     2.1810     0.5060 C.ar  1 <1>  -0.1500 
 23 C        4.7780     0.3130    -1.6330 C.3   1 <1>  -0.1600 
 24 C       -6.1740     4.9360     0.4460 C.ar  1 <1>  -0.1500 
 25 C       -7.2570     2.8080     0.6000 C.ar  1 <1>  -0.1500 
 26 C       -7.3320     4.1890     0.5680 C.ar  1 <1>  -0.1500 
 27 H        0.7540     0.1870     2.3310 H     1 <1>   0.0800 
 28 H        1.3090     1.6630     1.5710 H     1 <1>   0.0800 
 29 H       -1.8650     0.0800    -1.5130 H     1 <1>   0.4000 
 30 H       -5.0790     1.4940    -1.8640 H     1 <1>   0.4000 
 31 H       -3.9370     0.4080    -2.5500 H     1 <1>   0.4000 
 32 H        5.7850     1.1730     0.9430 H     1 <1>   0.0800 
 33 H        2.5050     1.8050    -0.4120 H     1 <1>   0.0800 
 34 H        5.1290    -1.4230    -0.4120 H     1 <1>   0.0800 
 35 H        6.5280    -0.4150    -0.6030 H     1 <1>   0.0800 
 36 H        5.2390    -1.5640     2.0320 H     1 <1>   0.0800 
 37 H        5.3040    -0.1090     3.0120 H     1 <1>   0.0800 
 38 H        6.7000    -0.6320     2.1060 H     1 <1>   0.0800 
 39 H        5.3530     2.3090    -1.0980 H     1 <1>   0.0800 
 40 H        3.9550     2.2470    -2.1150 H     1 <1>   0.0800 
 41 H        4.6960     3.2950     1.0520 H     1 <1>   0.0800 
 42 H        3.0110     3.2560     1.5180 H     1 <1>   0.0800 
 43 H        3.4830     4.0070     0.0190 H     1 <1>   0.0800 
 44 H       -4.0540     4.8940     0.2670 H     1 <1>   0.1500 
 45 H       -5.9790     1.1060     0.5390 H     1 <1>   0.1500 
 46 H        3.8610    -0.2030    -1.8640 H     1 <1>   0.0800 
 47 H        5.4080     0.2720    -2.5050 H     1 <1>   0.0800 
 48 H       -6.2270     6.0100     0.4280 H     1 <1>   0.1500 
 49 H       -8.1550     2.2240     0.7010 H     1 <1>   0.1500 
 50 H       -8.2870     4.6810     0.6420 H     1 <1>   0.1500 
@<TRIPOS>BOND
  1   1   2  1   
  2   1   3  1   
  3   2   4  1   
  4   2   5  2   
  5   3   6  1   
  6   3  27  1   
  7   3  28  1   
  8   4   7  1   
  9   4  29  1   
 10   5   8  1   
 11   6   9  2   
 12   6  10  am  
 13   7  11  1   
 14   7  12  2   
 15   8  12  1   
 16   8  13  2   
 17  10  14  1   
 18  10  15  1   
 19  11  30  1   
 20  11  31  1   
 21  12  16  1   
 22  14  17  1   
 23  14  18  1   
 24  14  32  1   
 25  15  19  1   
 26  15  20  1   
 27  15  33  1   
 28  16  21  ar  
 29  16  22  ar  
 30  17  23  1   
 31  17  34  1   
 32  17  35  1   
 33  18  36  1   
 34  18  37  1   
 35  18  38  1   
 36  19  23  1   
 37  19  39  1   
 38  19  40  1   
 39  20  41  1   
 40  20  42  1   
 41  20  43  1   
 42  21  24  ar  
 43  21  44  1   
 44  22  25  ar  
 45  22  45  1   
 46  23  46  1   
 47  23  47  1   
 48  24  26  ar  
 49  24  48  1   
 50  25  26  ar  
 51  25  49  1   
 52  26  50  1   
@<TRIPOS>SUBSTRUCTURE
  1 ****   2 GROUP 4 **** **** 0

# MOE 2024.06 (io_trps.svl 2023.06)
