@<TRIPOS>MOLECULE
2-[(4,6-Bis-dimethylamino-[1,3,5]triazin-2-yl)-cyano-amino]-N-methyl-acetamide
38 38 1 0 0 
SMALL
USER_CHARGES


@<TRIPOS>ATOM
  1 O       -0.5250     2.7330     2.1960 O.2   1 <1>  -0.5700 
  2 C       -0.3490     2.2570     1.1020 C.2   1 <1>   0.5690 
  3 N        0.8980     1.8240     0.7750 N.am  1 <1>  -0.7300 
  4 C       -1.5240     2.2190     0.1130 C.3   1 <1>   0.2570 
  5 C        1.3820     1.1870    -0.4770 C.3   1 <1>   0.0600 
  6 N       -2.6630     1.3440     0.5340 N.pl3 1 <1>  -0.6810 
  7 C       -3.6510     1.9540     1.3220 C.1   1 <1>   0.6830 
  8 C       -2.6610    -0.0120     0.3230 C.ar  1 <1>   0.8190 
  9 N       -4.4530     2.4870     1.9290 N.1   1 <1>  -0.5570 
 10 N       -1.5050    -0.5680     0.0880 N.ar  1 <1>  -0.6200 
 11 N       -3.8110    -0.6240     0.3530 N.ar  1 <1>  -0.6200 
 12 C       -1.5640    -1.8570    -0.1090 C.ar  1 <1>   0.7200 
 13 C       -3.7470    -1.9080     0.1210 C.ar  1 <1>   0.7200 
 14 N       -2.6520    -2.5770    -0.1230 N.ar  1 <1>  -0.6200 
 15 N       -0.3680    -2.5060    -0.3170 N.pl3 1 <1>  -0.8380 
 16 N       -4.9350    -2.6120     0.1370 N.pl3 1 <1>  -0.8380 
 17 C       -0.3180    -3.8130    -1.0280 C.3   1 <1>   0.1290 
 18 C        0.8220    -2.2010     0.5240 C.3   1 <1>   0.1290 
 19 C       -6.2610    -1.9310     0.2030 C.3   1 <1>   0.1290 
 20 C       -4.9780    -4.1010     0.1830 C.3   1 <1>   0.1290 
 21 H        1.5930     1.9420     1.5180 H     1 <1>   0.3700 
 22 H       -1.1780     1.9010    -0.8520 H     1 <1>   0.0800 
 23 H       -1.8820     3.2270     0.0000 H     1 <1>   0.0800 
 24 H        0.5950     0.6320    -0.9560 H     1 <1>   0.0800 
 25 H        2.1840     0.5070    -0.2480 H     1 <1>   0.0800 
 26 H        1.7470     1.9420    -1.1530 H     1 <1>   0.0800 
 27 H       -1.0990    -3.8640    -1.7680 H     1 <1>   0.0800 
 28 H       -0.4520    -4.6150    -0.3240 H     1 <1>   0.0800 
 29 H        0.6300    -3.9270    -1.5240 H     1 <1>   0.0800 
 30 H        1.6660    -1.9880    -0.1070 H     1 <1>   0.0800 
 31 H        1.0520    -3.0470     1.1480 H     1 <1>   0.0800 
 32 H        0.6400    -1.3510     1.1600 H     1 <1>   0.0800 
 33 H       -6.2270    -0.9840    -0.3090 H     1 <1>   0.0800 
 34 H       -6.5280    -1.7610     1.2320 H     1 <1>   0.0800 
 35 H       -7.0140    -2.5400    -0.2650 H     1 <1>   0.0800 
 36 H       -4.0800    -4.4960     0.6260 H     1 <1>   0.0800 
 37 H       -5.0750    -4.4890    -0.8160 H     1 <1>   0.0800 
 38 H       -5.8150    -4.4290     0.7740 H     1 <1>   0.0800 
@<TRIPOS>BOND
  1   1   2  2   
  2   2   3  am  
  3   2   4  1   
  4   3   5  1   
  5   3  21  1   
  6   4   6  1   
  7   4  22  1   
  8   4  23  1   
  9   5  24  1   
 10   5  25  1   
 11   5  26  1   
 12   6   7  1   
 13   6   8  1   
 14   7   9  3   
 15   8  10  ar  
 16   8  11  ar  
 17  10  12  ar  
 18  11  13  ar  
 19  12  14  ar  
 20  12  15  1   
 21  13  14  ar  
 22  13  16  1   
 23  15  17  1   
 24  15  18  1   
 25  16  19  1   
 26  16  20  1   
 27  17  27  1   
 28  17  28  1   
 29  17  29  1   
 30  18  30  1   
 31  18  31  1   
 32  18  32  1   
 33  19  33  1   
 34  19  34  1   
 35  19  35  1   
 36  20  36  1   
 37  20  37  1   
 38  20  38  1   
@<TRIPOS>SUBSTRUCTURE
  1 ****   8 GROUP 4 **** **** 0

# MOE 2024.06 (io_trps.svl 2023.06)
