@<TRIPOS>MOLECULE
2-(2,5-Dichloro-benzenesulfonylamino)-4-methylsulfanyl-butyric acid
32 32 1 0 0 
SMALL
USER_CHARGES


@<TRIPOS>ATOM
  1 CL       0.9640    -0.2520    -1.4820 Cl    1 <1>  -0.1770 
  2 C        1.1020    -1.8180    -0.7180 C.ar  1 <1>   0.1770 
  3 C        1.7550    -1.9930     0.5010 C.ar  1 <1>  -0.0090 
  4 C        0.5160    -2.8730    -1.3990 C.ar  1 <1>  -0.1500 
  5 S        2.5830    -0.6530     1.4010 S.o2  1 <1>   1.4470 
  6 C        1.7870    -3.2860     1.0190 C.ar  1 <1>  -0.1500 
  7 C        0.5590    -4.1470    -0.8660 C.ar  1 <1>  -0.1500 
  8 O        2.6450    -1.0450     2.7920 O.2   1 <1>  -0.6500 
  9 O        2.0130     0.6410     1.1020 O.2   1 <1>  -0.6500 
 10 N        4.1880    -0.6040     0.9070 N.am  1 <1>  -0.9140 
 11 C        1.1940    -4.3370     0.3450 C.ar  1 <1>   0.1770 
 12 C        4.3900    -0.5100    -0.5570 C.3   1 <1>   0.1700 
 13 CL       1.2410    -5.9370     1.0410 Cl    1 <1>  -0.1770 
 14 C        4.3220    -1.9040    -1.2240 C.2   1 <1>   0.9060 
 15 C        5.7450     0.1650    -0.8130 C.3   1 <1>  -0.1600 
 16 O        4.4870    -2.8840    -0.4800 O.co2 1 <1>  -0.9000 
 17 O        4.0240    -2.0150    -2.4150 O.co2 1 <1>  -0.9000 
 18 C        5.8020     1.5600    -0.1860 C.3   1 <1>   0.0700 
 19 S        7.3770     2.3340    -0.6430 S.3   1 <1>  -0.4600 
 20 C        7.3160     3.9130     0.2400 C.3   1 <1>  -0.0100 
 21 H        0.0400    -2.6910    -2.3460 H     1 <1>   0.1500 
 22 H        2.2900    -3.4840     1.9490 H     1 <1>   0.1500 
 23 H        0.1160    -4.9810    -1.3790 H     1 <1>   0.1500 
 24 H        4.5370    -1.5520     1.1070 H     1 <1>   0.4200 
 25 H        3.6250     0.1040    -0.9950 H     1 <1>   0.0800 
 26 H        5.8870     0.2480    -1.8760 H     1 <1>   0.0800 
 27 H        6.5330    -0.4500    -0.4180 H     1 <1>   0.0800 
 28 H        5.7640     1.5100     0.8880 H     1 <1>   0.0800 
 29 H        5.0110     2.1900    -0.5550 H     1 <1>   0.0800 
 30 H        8.2250     4.4450     0.0230 H     1 <1>   0.0800 
 31 H        7.2350     3.7020     1.2910 H     1 <1>   0.0800 
 32 H        6.4580     4.4570    -0.1130 H     1 <1>   0.0800 
@<TRIPOS>BOND
  1   1   2  1   
  2   2   3  ar  
  3   2   4  ar  
  4   3   5  1   
  5   3   6  ar  
  6   4   7  ar  
  7   4  21  1   
  8   5   8  2   
  9   5   9  2   
 10   5  10  am  
 11   6  11  ar  
 12   6  22  1   
 13   7  11  ar  
 14   7  23  1   
 15  10  12  1   
 16  10  24  1   
 17  11  13  1   
 18  12  14  1   
 19  12  15  1   
 20  12  25  1   
 21  14  16  ar  
 22  14  17  ar  
 23  15  18  1   
 24  15  26  1   
 25  15  27  1   
 26  18  19  1   
 27  18  28  1   
 28  18  29  1   
 29  19  20  1   
 30  20  30  1   
 31  20  31  1   
 32  20  32  1   
@<TRIPOS>SUBSTRUCTURE
  1 ****  12 GROUP 4 **** **** 0

# MOE 2024.06 (io_trps.svl 2023.06)
