@<TRIPOS>MOLECULE
5-(2-Ethoxy-4-methyl-phenoxymethyl)-4-methyl-4H-[1,2,4]triazole-3-thiol
36 37 1 0 0 
SMALL
USER_CHARGES


@<TRIPOS>ATOM
  1 S       -0.7550     0.1300    -0.2320 S.3   1 <1>  -0.9360 
  2 C       -0.5090     1.6930     0.1210 C.cat 1 <1>   0.7360 
  3 N        0.5640     2.1760     0.7080 N.pl3 1 <1>  -0.3930 
  4 N       -1.3390     2.6900    -0.1160 N.pl3 1 <1>  -0.7640 
  5 N        0.4530     3.5270     0.8810 N.2   1 <1>  -0.2600 
  6 C       -0.7000     3.8060     0.3820 C.2   1 <1>   0.4850 
  7 C       -2.6930     2.5400    -0.6900 C.3   1 <1>   0.2740 
  8 C       -1.2950     5.2070     0.3200 C.3   1 <1>   0.2880 
  9 O       -2.5780     5.2270     0.9220 O.3   1 <1>  -0.3630 
 10 C       -3.4880     6.2050     0.6470 C.ar  1 <1>   0.0830 
 11 C       -3.1950     7.4960     0.1750 C.ar  1 <1>   0.0830 
 12 C       -4.8060     5.8450     0.8700 C.ar  1 <1>  -0.1500 
 13 O       -1.8970     7.8760    -0.0080 O.3   1 <1>  -0.3630 
 14 C       -4.2470     8.3730    -0.0850 C.ar  1 <1>  -0.1500 
 15 C       -5.8380     6.7290     0.6140 C.ar  1 <1>  -0.1500 
 16 C       -1.5320     9.2280    -0.1770 C.3   1 <1>   0.1200 
 17 C       -5.5620     7.9970     0.1320 C.ar  1 <1>  -0.1430 
 18 C       -0.0090     9.3070    -0.1630 C.3   1 <1>  -0.2400 
 19 C       -6.6930     8.9690    -0.1570 C.3   1 <1>  -0.0970 
 20 H        1.3300     1.5630     0.9840 H     1 <1>   0.4500 
 21 H       -2.7150     1.7060    -1.3720 H     1 <1>   0.0800 
 22 H       -2.9760     3.4310    -1.2210 H     1 <1>   0.0800 
 23 H       -3.4000     2.3580     0.1010 H     1 <1>   0.0800 
 24 H       -1.3940     5.5040    -0.7080 H     1 <1>   0.0800 
 25 H       -0.6650     5.9000     0.8470 H     1 <1>   0.0800 
 26 H       -5.0260     4.8630     1.2470 H     1 <1>   0.1500 
 27 H       -4.0640     9.3610    -0.4620 H     1 <1>   0.1500 
 28 H       -6.8550     6.4250     0.7920 H     1 <1>   0.1500 
 29 H       -1.9510     9.7990     0.6350 H     1 <1>   0.0800 
 30 H       -1.9210     9.5740    -1.1190 H     1 <1>   0.0800 
 31 H        0.3720     8.9480     0.7770 H     1 <1>   0.0800 
 32 H        0.3020    10.3280    -0.2890 H     1 <1>   0.0800 
 33 H        0.4010     8.7220    -0.9670 H     1 <1>   0.0800 
 34 H       -6.4030     9.9700     0.1090 H     1 <1>   0.0800 
 35 H       -7.5700     8.7110     0.4090 H     1 <1>   0.0800 
 36 H       -6.9360     8.9430    -1.2040 H     1 <1>   0.0800 
@<TRIPOS>BOND
  1   1   2  1   
  2   2   3  ar  
  3   2   4  ar  
  4   3   5  1   
  5   3  20  1   
  6   4   6  1   
  7   4   7  1   
  8   5   6  2   
  9   6   8  1   
 10   7  21  1   
 11   7  22  1   
 12   7  23  1   
 13   8   9  1   
 14   8  24  1   
 15   8  25  1   
 16   9  10  1   
 17  10  11  ar  
 18  10  12  ar  
 19  11  13  1   
 20  11  14  ar  
 21  12  15  ar  
 22  12  26  1   
 23  13  16  1   
 24  14  17  ar  
 25  14  27  1   
 26  15  17  ar  
 27  15  28  1   
 28  16  18  1   
 29  16  29  1   
 30  16  30  1   
 31  17  19  1   
 32  18  31  1   
 33  18  32  1   
 34  18  33  1   
 35  19  34  1   
 36  19  35  1   
 37  19  36  1   
@<TRIPOS>SUBSTRUCTURE
  1 ****   9 GROUP 4 **** **** 0

# MOE 2024.06 (io_trps.svl 2023.06)
