@<TRIPOS>MOLECULE
3-Cyclohexyl-isoxazole-5-carboxylic acid
26 27 1 0 0 
SMALL
USER_CHARGES


@<TRIPOS>ATOM
  1 O       -0.3020    -1.4530     1.0470 O.co2 1 <1>  -0.9000 
  2 C       -0.8170    -1.6990    -0.0620 C.2   1 <1>   1.0320 
  3 O       -0.1170    -2.2530    -0.9300 O.co2 1 <1>  -0.9000 
  4 C       -2.1960    -1.3370    -0.2980 C.2   1 <1>  -0.0920 
  5 O       -2.8090    -1.5630    -1.4400 O.3   1 <1>  -0.0190 
  6 C       -3.1050    -0.7400     0.5040 C.2   1 <1>  -0.1500 
  7 N       -4.0480    -1.1580    -1.4380 N.2   1 <1>  -0.4100 
  8 C       -4.2530    -0.6540    -0.2700 C.2   1 <1>   0.1080 
  9 C       -5.5670    -0.0470     0.2060 C.3   1 <1>   0.1010 
 10 C       -6.6930    -1.0940     0.1980 C.3   1 <1>  -0.1600 
 11 C       -5.9520     1.1730    -0.6490 C.3   1 <1>  -0.1600 
 12 C       -8.0320    -0.4910     0.6500 C.3   1 <1>  -0.1600 
 13 C       -7.2890     1.7800    -0.1980 C.3   1 <1>  -0.1600 
 14 C       -8.4060     0.7270    -0.2050 C.3   1 <1>  -0.1600 
 15 H       -2.9580    -0.4100     1.5150 H     1 <1>   0.1500 
 16 H       -5.4270     0.2860     1.2190 H     1 <1>   0.0800 
 17 H       -6.4250    -1.9110     0.8460 H     1 <1>   0.0800 
 18 H       -6.7990    -1.4890    -0.7980 H     1 <1>   0.0800 
 19 H       -6.0280     0.8690    -1.6790 H     1 <1>   0.0800 
 20 H       -5.1750     1.9130    -0.5830 H     1 <1>   0.0800 
 21 H       -7.9590    -0.1930     1.6820 H     1 <1>   0.0800 
 22 H       -8.8050    -1.2350     0.5750 H     1 <1>   0.0800 
 23 H       -7.5540     2.5910    -0.8550 H     1 <1>   0.0800 
 24 H       -7.1830     2.1810     0.7950 H     1 <1>   0.0800 
 25 H       -9.3170     1.1640     0.1660 H     1 <1>   0.0800 
 26 H       -8.5840     0.4070    -1.2180 H     1 <1>   0.0800 
@<TRIPOS>BOND
  1   1   2  ar  
  2   2   3  ar  
  3   2   4  1   
  4   4   5  1   
  5   4   6  2   
  6   5   7  1   
  7   6   8  1   
  8   6  15  1   
  9   7   8  2   
 10   8   9  1   
 11   9  10  1   
 12   9  11  1   
 13   9  16  1   
 14  10  12  1   
 15  10  17  1   
 16  10  18  1   
 17  11  13  1   
 18  11  19  1   
 19  11  20  1   
 20  12  14  1   
 21  12  21  1   
 22  12  22  1   
 23  13  14  1   
 24  13  23  1   
 25  13  24  1   
 26  14  25  1   
 27  14  26  1   
@<TRIPOS>SUBSTRUCTURE
  1 ****   8 GROUP 4 **** **** 0

# MOE 2024.06 (io_trps.svl 2023.06)
