@<TRIPOS>MOLECULE
6-Methyl-10-oxo-2-[(tetrahydro-furan-2-ylmethyl)-amino]-10H-1,9,10a-triaza-anthr
60 64 1 0 0 
SMALL
USER_CHARGES


@<TRIPOS>ATOM
  1 O       -0.9970    -1.3430     2.2670 O.2   1 <1>  -0.5700 
  2 C       -0.5170    -1.9620     1.3450 C.2   1 <1>   0.8650 
  3 N       -1.3590    -2.7940     0.5850 N.pl3 1 <1>  -0.5760 
  4 C        0.8710    -1.8430     1.0300 C.ar  1 <1>   0.0860 
  5 C       -0.8570    -3.4840    -0.4660 C.cat 1 <1>   0.7390 
  6 C       -2.6960    -2.9220     0.8940 C.2   1 <1>   0.1910 
  7 C        1.3180    -2.5760    -0.0620 C.ar  1 <1>   0.6590 
  8 C        1.8040    -1.0680     1.7040 C.ar  1 <1>  -0.1500 
  9 N        0.4450    -3.3500    -0.7560 N.pl3 1 <1>  -0.6530 
 10 C       -1.6920    -4.3130    -1.2260 C.2   1 <1>  -0.1800 
 11 C       -3.5310    -3.7270     0.1650 C.2   1 <1>  -0.1380 
 12 N        2.5480    -2.6030    -0.5140 N.ar  1 <1>  -0.6200 
 13 C        3.1140    -1.0670     1.2630 C.ar  1 <1>   0.0860 
 14 C       -3.0210    -4.4430    -0.9230 C.2   1 <1>  -0.1500 
 15 C       -5.0070    -3.8700     0.5040 C.3   1 <1>  -0.1020 
 16 C        3.4360    -1.8810     0.1510 C.ar  1 <1>   0.4100 
 17 C        4.0910    -0.2620     1.9410 C.2   1 <1>   0.5440 
 18 N        4.6870    -2.0170    -0.3660 N.pl3 1 <1>  -0.8690 
 19 O        4.4820    -0.5930     3.0400 O.2   1 <1>  -0.5700 
 20 N        4.6100     0.8810     1.4210 N.am  1 <1>  -0.7300 
 21 C        5.9490    -2.1520     0.4190 C.3   1 <1>   0.2090 
 22 C        4.4720     1.4280     0.0450 C.3   1 <1>   0.1400 
 23 C        7.0930    -2.6170    -0.4980 C.3   1 <1>   0.2000 
 24 C        5.7720     1.2560    -0.7620 C.3   1 <1>   0.2000 
 25 O        6.6710    -3.6590    -1.3250 O.3   1 <1>  -0.5600 
 26 C        8.3040    -3.1710     0.2350 C.3   1 <1>  -0.1600 
 27 O        6.8830     1.5950     0.0100 O.3   1 <1>  -0.5600 
 28 C        5.8670     2.1430    -1.9930 C.3   1 <1>  -0.1600 
 29 C        7.7510    -4.4510    -1.7160 C.3   1 <1>   0.1200 
 30 C        8.9240    -4.0810    -0.8090 C.3   1 <1>  -0.1600 
 31 C        7.9300     2.0580    -0.7880 C.3   1 <1>   0.1200 
 32 C        7.3660     2.2480    -2.1930 C.3   1 <1>  -0.1600 
 33 H       -3.0880    -2.3680     1.7360 H     1 <1>   0.1500 
 34 H        1.5220    -0.4740     2.5610 H     1 <1>   0.1500 
 35 H        0.8730    -3.8540    -1.5340 H     1 <1>   0.4500 
 36 H       -1.2770    -4.8530    -2.0570 H     1 <1>   0.1500 
 37 H       -3.6730    -5.0790    -1.5010 H     1 <1>   0.1500 
 38 H       -5.2380    -4.8970     0.7260 H     1 <1>   0.0800 
 39 H       -5.6100    -3.5550    -0.3300 H     1 <1>   0.0800 
 40 H       -5.2720    -3.2700     1.3570 H     1 <1>   0.0800 
 41 H        4.7500    -2.6540    -1.1750 H     1 <1>   0.4000 
 42 H        5.4180     1.2650     1.9230 H     1 <1>   0.3700 
 43 H        5.8040    -2.8680     1.2100 H     1 <1>   0.0800 
 44 H        6.2300    -1.2130     0.8610 H     1 <1>   0.0800 
 45 H        4.2390     2.4750     0.1180 H     1 <1>   0.0800 
 46 H        3.6650     0.9450    -0.4750 H     1 <1>   0.0800 
 47 H        7.3960    -1.8050    -1.1380 H     1 <1>   0.0800 
 48 H        5.8900     0.2290    -1.0570 H     1 <1>   0.0800 
 49 H        7.9880    -3.7480     1.0870 H     1 <1>   0.0800 
 50 H        8.9720    -2.3920     0.5590 H     1 <1>   0.0800 
 51 H        5.4540     3.1150    -1.7820 H     1 <1>   0.0800 
 52 H        5.3640     1.7150    -2.8420 H     1 <1>   0.0800 
 53 H        7.9700    -4.2470    -2.7510 H     1 <1>   0.0800 
 54 H        7.4680    -5.4820    -1.5970 H     1 <1>   0.0800 
 55 H        9.3780    -4.9530    -0.3720 H     1 <1>   0.0800 
 56 H        9.6630    -3.5510    -1.3830 H     1 <1>   0.0800 
 57 H        8.7260     1.3340    -0.7700 H     1 <1>   0.0800 
 58 H        8.2730     2.9900    -0.3710 H     1 <1>   0.0800 
 59 H        7.6590     3.1920    -2.6180 H     1 <1>   0.0800 
 60 H        7.7180     1.4530    -2.8270 H     1 <1>   0.0800 
@<TRIPOS>BOND
  1   1   2  2   
  2   2   3  1   
  3   2   4  1   
  4   3   5  ar  
  5   3   6  1   
  6   4   7  ar  
  7   4   8  ar  
  8   5   9  ar  
  9   5  10  1   
 10   6  11  2   
 11   6  33  1   
 12   7   9  1   
 13   7  12  ar  
 14   8  13  ar  
 15   8  34  1   
 16   9  35  1   
 17  10  14  2   
 18  10  36  1   
 19  11  14  1   
 20  11  15  1   
 21  12  16  ar  
 22  13  16  ar  
 23  13  17  1   
 24  14  37  1   
 25  15  38  1   
 26  15  39  1   
 27  15  40  1   
 28  16  18  1   
 29  17  19  2   
 30  17  20  am  
 31  18  21  1   
 32  18  41  1   
 33  20  22  1   
 34  20  42  1   
 35  21  23  1   
 36  21  43  1   
 37  21  44  1   
 38  22  24  1   
 39  22  45  1   
 40  22  46  1   
 41  23  25  1   
 42  23  26  1   
 43  23  47  1   
 44  24  27  1   
 45  24  28  1   
 46  24  48  1   
 47  25  29  1   
 48  26  30  1   
 49  26  49  1   
 50  26  50  1   
 51  27  31  1   
 52  28  32  1   
 53  28  51  1   
 54  28  52  1   
 55  29  30  1   
 56  29  53  1   
 57  29  54  1   
 58  30  55  1   
 59  30  56  1   
 60  31  32  1   
 61  31  57  1   
 62  31  58  1   
 63  32  59  1   
 64  32  60  1   
@<TRIPOS>SUBSTRUCTURE
  1 ****  16 GROUP 4 **** **** 0

# MOE 2024.06 (io_trps.svl 2023.06)
