@<TRIPOS>MOLECULE
N-Bicyclo[2.2.1]hept-2-yl-2-[(3-fluoro-phenyl)-methanesulfonyl-amino]-acetamide
44 46 1 0 0 
SMALL
USER_CHARGES


@<TRIPOS>ATOM
  1 S        1.2940     0.1810    -0.0520 S.o2  1 <1>   1.3330 
  2 O        1.5910     0.4270     1.3360 O.2   1 <1>  -0.6500 
  3 O        2.3670    -0.0340    -0.9950 O.2   1 <1>  -0.6500 
  4 N        0.3710     1.5170    -0.6520 N.am  1 <1>  -0.6930 
  5 C        0.1390    -1.1640    -0.1940 C.3   1 <1>  -0.1350 
  6 C       -0.6550     2.0670     0.1040 C.ar  1 <1>   0.1990 
  7 C        1.0580     2.4270    -1.6240 C.3   1 <1>   0.2570 
  8 C       -1.9750     1.8770    -0.2790 C.ar  1 <1>  -0.1500 
  9 C       -0.3860     2.8210     1.2450 C.ar  1 <1>  -0.1500 
 10 C        2.1980     3.2510    -1.0150 C.2   1 <1>   0.5690 
 11 C       -2.9800     2.4330     0.4850 C.ar  1 <1>   0.1900 
 12 C       -1.4080     3.3740     1.9990 C.ar  1 <1>  -0.1500 
 13 O        2.0320     4.4340    -0.8330 O.2   1 <1>  -0.5700 
 14 N        3.3630     2.6340    -0.6940 N.am  1 <1>  -0.7300 
 15 F       -4.2200     2.2460     0.1210 F     1 <1>  -0.1900 
 16 C       -2.7260     3.1800     1.6200 C.ar  1 <1>  -0.1500 
 17 C        4.4860     3.2410     0.0360 C.3   1 <1>   0.2200 
 18 C        5.8550     2.6870    -0.4150 C.3   1 <1>  -0.0800 
 19 C        4.4340     2.8600     1.5240 C.3   1 <1>  -0.1600 
 20 C        6.6920     2.9460     0.8280 C.3   1 <1>  -0.1600 
 21 C        5.8580     1.1450    -0.4310 C.3   1 <1>  -0.1600 
 22 C        5.7820     2.1580     1.7560 C.3   1 <1>  -0.0800 
 23 C        5.7390     0.7860     1.0610 C.3   1 <1>  -0.1600 
 24 H        0.5980    -2.0780     0.1290 H     1 <1>   0.0800 
 25 H       -0.1760    -1.2770    -1.2120 H     1 <1>   0.0800 
 26 H       -0.7220    -0.9780     0.4190 H     1 <1>   0.0800 
 27 H        0.3360     3.1120    -2.0300 H     1 <1>   0.0800 
 28 H        1.4510     1.8490    -2.4400 H     1 <1>   0.0800 
 29 H       -2.2130     1.3080    -1.1570 H     1 <1>   0.1500 
 30 H        0.6390     2.9740     1.5410 H     1 <1>   0.1500 
 31 H       -1.1760     3.9530     2.8770 H     1 <1>   0.1500 
 32 H        3.4310     1.6120    -0.7920 H     1 <1>   0.3700 
 33 H       -3.5380     3.5980     2.1880 H     1 <1>   0.1500 
 34 H        4.4630     4.3140    -0.0700 H     1 <1>   0.0800 
 35 H        6.2310     3.1460    -1.3130 H     1 <1>   0.0800 
 36 H        3.6000     2.2230     1.7660 H     1 <1>   0.0800 
 37 H        4.3780     3.7530     2.1200 H     1 <1>   0.0800 
 38 H        6.7480     3.9910     1.0870 H     1 <1>   0.0800 
 39 H        7.6830     2.5280     0.7620 H     1 <1>   0.0800 
 40 H        6.7960     0.7870    -0.8180 H     1 <1>   0.0800 
 41 H        5.0660     0.7170    -1.0190 H     1 <1>   0.0800 
 42 H        6.0870     2.1200     2.7880 H     1 <1>   0.0800 
 43 H        6.5760     0.1810     1.3660 H     1 <1>   0.0800 
 44 H        4.8250     0.2590     1.2760 H     1 <1>   0.0800 
@<TRIPOS>BOND
  1   1   2  2   
  2   1   3  2   
  3   1   4  am  
  4   1   5  1   
  5   4   6  1   
  6   4   7  1   
  7   5  24  1   
  8   5  25  1   
  9   5  26  1   
 10   6   8  ar  
 11   6   9  ar  
 12   7  10  1   
 13   7  27  1   
 14   7  28  1   
 15   8  11  ar  
 16   8  29  1   
 17   9  12  ar  
 18   9  30  1   
 19  10  13  2   
 20  10  14  am  
 21  11  15  1   
 22  11  16  ar  
 23  12  16  ar  
 24  12  31  1   
 25  14  17  1   
 26  14  32  1   
 27  16  33  1   
 28  17  18  1   
 29  17  19  1   
 30  17  34  1   
 31  18  20  1   
 32  18  21  1   
 33  18  35  1   
 34  19  22  1   
 35  19  36  1   
 36  19  37  1   
 37  20  22  1   
 38  20  38  1   
 39  20  39  1   
 40  21  23  1   
 41  21  40  1   
 42  21  41  1   
 43  22  23  1   
 44  22  42  1   
 45  23  43  1   
 46  23  44  1   
@<TRIPOS>SUBSTRUCTURE
  1 ****   4 GROUP 4 **** **** 0

# MOE 2024.06 (io_trps.svl 2023.06)
