@<TRIPOS>MOLECULE
4-(4-Methyl-piperazin-1-yl)-butylamine
35 35 1 0 0 
SMALL
USER_CHARGES


@<TRIPOS>ATOM
  1 N       -0.0330    -0.0610    -0.1920 N.4   1 <1>  -0.9590 
  2 C        1.2010     0.7910    -0.3040 C.3   1 <1>   0.3430 
  3 C        0.1480    -1.3120    -1.0090 C.3   1 <1>   0.3430 
  4 C       -1.2860     0.6980    -0.4380 C.3   1 <1>   0.3430 
  5 C        2.4570     0.0080     0.1540 C.3   1 <1>   0.1100 
  6 C        1.4310    -2.0720    -0.5870 C.3   1 <1>   0.1100 
  7 C       -2.5070    -0.0780     0.0810 C.3   1 <1>  -0.1600 
  8 N        2.1400    -1.3920     0.5210 N.3   1 <1>  -0.8100 
  9 C       -3.8060     0.7470    -0.0350 C.3   1 <1>  -0.1600 
 10 C        3.3490    -2.1280     0.9150 C.3   1 <1>   0.0300 
 11 C       -5.0210    -0.0230     0.5050 C.3   1 <1>   0.3430 
 12 N       -6.2420     0.8100     0.3820 N.4   1 <1>  -0.8530 
 13 H        0.0190    -0.4020     0.7830 H     1 <1>   0.4500 
 14 H        1.1010     1.6710     0.3100 H     1 <1>   0.0800 
 15 H        1.3370     1.1140    -1.3230 H     1 <1>   0.0800 
 16 H        0.2110    -1.0650    -2.0560 H     1 <1>   0.0800 
 17 H       -0.6970    -1.9670    -0.8750 H     1 <1>   0.0800 
 18 H       -1.3910     0.8980    -1.4930 H     1 <1>   0.0800 
 19 H       -1.2310     1.6450     0.0760 H     1 <1>   0.0800 
 20 H        2.8890     0.5070     1.0050 H     1 <1>   0.0800 
 21 H        3.1910     0.0250    -0.6350 H     1 <1>   0.0800 
 22 H        2.0840    -2.1640    -1.4390 H     1 <1>   0.0800 
 23 H        1.1610    -3.0680    -0.2790 H     1 <1>   0.0800 
 24 H       -2.3420    -0.3330     1.1150 H     1 <1>   0.0800 
 25 H       -2.6180    -0.9880    -0.4830 H     1 <1>   0.0800 
 26 H       -3.9710     0.9950    -1.0700 H     1 <1>   0.0800 
 27 H       -3.6880     1.6610     0.5240 H     1 <1>   0.0800 
 28 H        3.8240    -1.6380     1.7480 H     1 <1>   0.0800 
 29 H        4.0480    -2.1830     0.0970 H     1 <1>   0.0800 
 30 H        3.0890    -3.1280     1.2200 H     1 <1>   0.0800 
 31 H       -4.8570    -0.2790     1.5400 H     1 <1>   0.0800 
 32 H       -5.1460    -0.9390    -0.0520 H     1 <1>   0.0800 
 33 H       -6.1600     1.6820     0.9200 H     1 <1>   0.4500 
 34 H       -7.0660     0.3090     0.7390 H     1 <1>   0.4500 
 35 H       -6.4360     1.0580    -0.5950 H     1 <1>   0.4500 
@<TRIPOS>BOND
  1   1   2  1   
  2   1   3  1   
  3   1   4  1   
  4   1  13  1   
  5   2   5  1   
  6   2  14  1   
  7   2  15  1   
  8   3   6  1   
  9   3  16  1   
 10   3  17  1   
 11   4   7  1   
 12   4  18  1   
 13   4  19  1   
 14   5   8  1   
 15   5  20  1   
 16   5  21  1   
 17   6   8  1   
 18   6  22  1   
 19   6  23  1   
 20   7   9  1   
 21   7  24  1   
 22   7  25  1   
 23   8  10  1   
 24   9  11  1   
 25   9  26  1   
 26   9  27  1   
 27  10  28  1   
 28  10  29  1   
 29  10  30  1   
 30  11  12  1   
 31  11  31  1   
 32  11  32  1   
 33  12  33  1   
 34  12  34  1   
 35  12  35  1   
@<TRIPOS>SUBSTRUCTURE
  1 ****   1 GROUP 4 **** **** 0

# MOE 2024.06 (io_trps.svl 2023.06)
