@<TRIPOS>MOLECULE
N-[5-(Tetrahydro-furan-2-yl)-[1,3,4]thiadiazol-2-yl]-acetamide
25 26 1 0 0 
SMALL
USER_CHARGES


@<TRIPOS>ATOM
  1 S       -0.0570    -0.4650    -0.4940 S.3   1 <1>  -0.0800 
  2 C       -0.2350     1.0540     0.3280 C.2   1 <1>   0.4420 
  3 C        1.2660    -0.8030     0.5730 C.2   1 <1>   0.1980 
  4 N        0.6280     1.2020     1.2650 N.2   1 <1>  -0.3380 
  5 N       -1.2010     1.9730    -0.0200 N.am  1 <1>  -0.4940 
  6 N        1.4780     0.1410     1.4020 N.2   1 <1>  -0.3380 
  7 C        2.0000    -2.1330     0.4340 C.3   1 <1>   0.3800 
  8 C       -2.2210     1.9200    -0.9220 C.2   1 <1>   0.5690 
  9 O        2.3360    -2.3890    -0.9030 O.3   1 <1>  -0.5600 
 10 C        1.1830    -3.3360     0.9130 C.3   1 <1>  -0.1600 
 11 O       -2.4760     0.9600    -1.6000 O.2   1 <1>  -0.5700 
 12 C       -3.0820     3.1500    -1.0620 C.3   1 <1>  -0.1790 
 13 C        1.7350    -3.5530    -1.3730 C.3   1 <1>   0.1200 
 14 C        1.4590    -4.3940    -0.1380 C.3   1 <1>  -0.1600 
 15 H       -1.1280     2.8330     0.5150 H     1 <1>   0.3700 
 16 H        2.9260    -2.0820     0.9800 H     1 <1>   0.0800 
 17 H        0.1360    -3.0900     0.9240 H     1 <1>   0.0800 
 18 H        1.4770    -3.6460     1.8990 H     1 <1>   0.0800 
 19 H       -2.4790     3.9890    -1.3560 H     1 <1>   0.0800 
 20 H       -3.5710     3.3640    -0.1300 H     1 <1>   0.0800 
 21 H       -3.8320     2.9830    -1.8150 H     1 <1>   0.0800 
 22 H        2.3960    -4.0390    -2.0690 H     1 <1>   0.0800 
 23 H        0.8180    -3.2740    -1.8650 H     1 <1>   0.0800 
 24 H        0.6310    -5.0650    -0.2830 H     1 <1>   0.0800 
 25 H        2.3400    -4.9580     0.1120 H     1 <1>   0.0800 
@<TRIPOS>BOND
  1   1   2  1   
  2   1   3  1   
  3   2   4  2   
  4   2   5  1   
  5   3   6  2   
  6   3   7  1   
  7   4   6  1   
  8   5   8  am  
  9   5  15  1   
 10   7   9  1   
 11   7  10  1   
 12   7  16  1   
 13   8  11  2   
 14   8  12  1   
 15   9  13  1   
 16  10  14  1   
 17  10  17  1   
 18  10  18  1   
 19  12  19  1   
 20  12  20  1   
 21  12  21  1   
 22  13  14  1   
 23  13  22  1   
 24  13  23  1   
 25  14  24  1   
 26  14  25  1   
@<TRIPOS>SUBSTRUCTURE
  1 ****   1 GROUP 4 **** **** 0

# MOE 2024.06 (io_trps.svl 2023.06)
