@<TRIPOS>MOLECULE
N-Benzyl-N-methyl-4-(2-morpholin-4-yl-2-oxo-ethoxy)-benzenesulfonamide
52 54 1 0 0 
SMALL
USER_CHARGES


@<TRIPOS>ATOM
  1 S       -0.3810     0.3100     1.9040 S.o2  1 <1>   1.4470 
  2 O       -0.3690    -0.8550     2.7630 O.2   1 <1>  -0.6500 
  3 O       -1.1150     1.4850     2.3170 O.2   1 <1>  -0.6500 
  4 N       -1.0360    -0.1920     0.4250 N.am  1 <1>  -0.8490 
  5 C        1.3140     0.7890     1.4750 C.ar  1 <1>  -0.0090 
  6 C       -2.4940    -0.2900     0.5440 C.3   1 <1>   0.3390 
  7 C       -0.4570    -1.4590    -0.0500 C.3   1 <1>   0.1160 
  8 C        2.4020     0.3180     2.2020 C.ar  1 <1>  -0.1500 
  9 C        1.5650     1.6490     0.4120 C.ar  1 <1>  -0.1500 
 10 C       -3.1420    -0.6560    -0.7870 C.ar  1 <1>  -0.1430 
 11 C        3.6980     0.6840     1.8810 C.ar  1 <1>  -0.1500 
 12 C        2.8550     2.0210     0.0820 C.ar  1 <1>  -0.1500 
 13 C       -3.8700    -1.8300    -0.9190 C.ar  1 <1>  -0.1500 
 14 C       -3.0080     0.1860    -1.8810 C.ar  1 <1>  -0.1500 
 15 C        3.9300     1.5430     0.8110 C.ar  1 <1>   0.0830 
 16 C       -4.4560    -2.1560    -2.1290 C.ar  1 <1>  -0.1500 
 17 C       -3.5940    -0.1390    -3.0920 C.ar  1 <1>  -0.1500 
 18 O        5.1590     1.9550     0.4260 O.3   1 <1>  -0.3630 
 19 C       -4.3190    -1.3110    -3.2160 C.ar  1 <1>  -0.1500 
 20 C        6.3260     1.5550     1.1300 C.3   1 <1>   0.1810 
 21 C        7.5830     2.1870     0.5390 C.2   1 <1>   0.5690 
 22 O        8.2820     2.8200     1.2970 O.2   1 <1>  -0.5700 
 23 N        7.9270     2.0240    -0.7820 N.am  1 <1>  -0.6600 
 24 C        9.1250     2.7010    -1.3650 C.3   1 <1>   0.1400 
 25 C        7.1490     1.2440    -1.7930 C.3   1 <1>   0.1400 
 26 C        9.9420     1.7230    -2.2240 C.3   1 <1>   0.1200 
 27 C        8.0820     0.3550    -2.6340 C.3   1 <1>   0.1200 
 28 O        9.1280     1.1050    -3.1810 O.3   1 <1>  -0.5600 
 29 H       -2.8970     0.6590     0.8550 H     1 <1>   0.0800 
 30 H       -2.7500    -1.0190     1.2950 H     1 <1>   0.0800 
 31 H        0.6160    -1.3850    -0.0910 H     1 <1>   0.0800 
 32 H       -0.8090    -1.6850    -1.0430 H     1 <1>   0.0800 
 33 H       -0.7240    -2.2700     0.6080 H     1 <1>   0.0800 
 34 H        2.2300    -0.3460     3.0340 H     1 <1>   0.1500 
 35 H        0.7370     2.0310    -0.1620 H     1 <1>   0.1500 
 36 H        4.5020     0.2930     2.4750 H     1 <1>   0.1500 
 37 H        3.0350     2.6890    -0.7420 H     1 <1>   0.1500 
 38 H       -3.9860    -2.4960    -0.0810 H     1 <1>   0.1500 
 39 H       -2.4410     1.0960    -1.7870 H     1 <1>   0.1500 
 40 H       -5.0210    -3.0680    -2.2260 H     1 <1>   0.1500 
 41 H       -3.4850     0.5190    -3.9360 H     1 <1>   0.1500 
 42 H       -4.7750    -1.5650    -4.1580 H     1 <1>   0.1500 
 43 H        6.4070     0.4860     1.0830 H     1 <1>   0.0800 
 44 H        6.2230     1.8700     2.1530 H     1 <1>   0.0800 
 45 H        9.7540     3.0960    -0.5870 H     1 <1>   0.0800 
 46 H        8.8010     3.5240    -1.9770 H     1 <1>   0.0800 
 47 H        6.6340     1.9290    -2.4440 H     1 <1>   0.0800 
 48 H        6.4140     0.6210    -1.3180 H     1 <1>   0.0800 
 49 H       10.3910     0.9640    -1.6080 H     1 <1>   0.0800 
 50 H       10.7210     2.2500    -2.7460 H     1 <1>   0.0800 
 51 H        7.5360    -0.0880    -3.4480 H     1 <1>   0.0800 
 52 H        8.5010    -0.4320    -2.0310 H     1 <1>   0.0800 
@<TRIPOS>BOND
  1   1   2  2   
  2   1   3  2   
  3   1   4  am  
  4   1   5  1   
  5   4   6  1   
  6   4   7  1   
  7   5   8  ar  
  8   5   9  ar  
  9   6  10  1   
 10   6  29  1   
 11   6  30  1   
 12   7  31  1   
 13   7  32  1   
 14   7  33  1   
 15   8  11  ar  
 16   8  34  1   
 17   9  12  ar  
 18   9  35  1   
 19  10  13  ar  
 20  10  14  ar  
 21  11  15  ar  
 22  11  36  1   
 23  12  15  ar  
 24  12  37  1   
 25  13  16  ar  
 26  13  38  1   
 27  14  17  ar  
 28  14  39  1   
 29  15  18  1   
 30  16  19  ar  
 31  16  40  1   
 32  17  19  ar  
 33  17  41  1   
 34  18  20  1   
 35  19  42  1   
 36  20  21  1   
 37  20  43  1   
 38  20  44  1   
 39  21  22  2   
 40  21  23  am  
 41  23  24  1   
 42  23  25  1   
 43  24  26  1   
 44  24  45  1   
 45  24  46  1   
 46  25  27  1   
 47  25  47  1   
 48  25  48  1   
 49  26  28  1   
 50  26  49  1   
 51  26  50  1   
 52  27  28  1   
 53  27  51  1   
 54  27  52  1   
@<TRIPOS>SUBSTRUCTURE
  1 ****   9 GROUP 4 **** **** 0

# MOE 2024.06 (io_trps.svl 2023.06)
