@<TRIPOS>MOLECULE
6-(4-Fluoro-phenoxymethyl)-3-isopropyl-[1,2,4]triazolo[3,4-b][1,3,4]thiadiazole
33 35 1 0 0 
SMALL
USER_CHARGES


@<TRIPOS>ATOM
  1 S       -0.6090     0.1440     1.9250 S.3   1 <1>  -0.1970 
  2 C        0.7780     1.1740     1.6430 C.2   1 <1>   0.2420 
  3 C       -1.5710     1.2490     0.9180 C.2   1 <1>   0.5300 
  4 N        2.0120     1.1840     1.9980 N.2   1 <1>  -0.3380 
  5 N        0.4100     2.1810     0.8700 N.pl3 1 <1>   0.5050 
  6 N       -0.9260     2.2450     0.4550 N.2   1 <1>  -0.6520 
  7 C       -3.0390     0.9020     0.7360 C.3   1 <1>   0.1810 
  8 N        2.5180     2.2900     1.4170 N.2   1 <1>  -0.3380 
  9 C        1.5580     2.8670     0.7530 C.2   1 <1>   0.0060 
 10 O       -3.1660    -0.3390     0.0660 O.3   1 <1>  -0.3630 
 11 C        1.6540     4.1530    -0.0600 C.3   1 <1>   0.1000 
 12 C       -4.3830    -0.8760    -0.2000 C.ar  1 <1>   0.0820 
 13 C        3.0710     4.3770    -0.6040 C.3   1 <1>  -0.2400 
 14 C        1.2230     5.3480     0.7960 C.3   1 <1>  -0.2400 
 15 C       -4.3850    -2.1220    -0.8160 C.ar  1 <1>  -0.1500 
 16 C       -5.5920    -0.2500     0.1090 C.ar  1 <1>  -0.1500 
 17 C       -5.5790    -2.7500    -1.1270 C.ar  1 <1>  -0.1500 
 18 C       -6.7910    -0.8710    -0.1970 C.ar  1 <1>  -0.1500 
 19 C       -6.7620    -2.1100    -0.8100 C.ar  1 <1>   0.1900 
 20 F       -7.8930    -2.6970    -1.0990 F     1 <1>  -0.1900 
 21 H       -3.5180     1.6580     0.1420 H     1 <1>   0.0800 
 22 H       -3.5170     0.8220     1.6960 H     1 <1>   0.0800 
 23 H        0.9850     4.0740    -0.9010 H     1 <1>   0.0800 
 24 H        3.7710     4.4900     0.2060 H     1 <1>   0.0800 
 25 H        3.1050     5.2600    -1.2160 H     1 <1>   0.0800 
 26 H        3.3740     3.5340    -1.1990 H     1 <1>   0.0800 
 27 H        1.8670     5.4420     1.6540 H     1 <1>   0.0800 
 28 H        0.2120     5.2160     1.1390 H     1 <1>   0.0800 
 29 H        1.2730     6.2580     0.2240 H     1 <1>   0.0800 
 30 H       -3.4470    -2.5940    -1.0500 H     1 <1>   0.1500 
 31 H       -5.6240     0.7130     0.5830 H     1 <1>   0.1500 
 32 H       -5.5970    -3.7140    -1.6030 H     1 <1>   0.1500 
 33 H       -7.7350    -0.4100     0.0300 H     1 <1>   0.1500 
@<TRIPOS>BOND
  1   1   2  1   
  2   1   3  1   
  3   2   4  2   
  4   2   5  1   
  5   3   6  2   
  6   3   7  1   
  7   4   8  1   
  8   5   6  1   
  9   5   9  1   
 10   7  10  1   
 11   7  21  1   
 12   7  22  1   
 13   8   9  2   
 14   9  11  1   
 15  10  12  1   
 16  11  13  1   
 17  11  14  1   
 18  11  23  1   
 19  12  15  ar  
 20  12  16  ar  
 21  13  24  1   
 22  13  25  1   
 23  13  26  1   
 24  14  27  1   
 25  14  28  1   
 26  14  29  1   
 27  15  17  ar  
 28  15  30  1   
 29  16  18  ar  
 30  16  31  1   
 31  17  19  ar  
 32  17  32  1   
 33  18  19  ar  
 34  18  33  1   
 35  19  20  1   
@<TRIPOS>SUBSTRUCTURE
  1 ****   3 GROUP 4 **** **** 0

# MOE 2024.06 (io_trps.svl 2023.06)
