@<TRIPOS>MOLECULE
3-[1-(2-p-Tolyloxy-ethyl)-1H-benzoimidazol-2-ylsulfanyl]-propane-1,2-diol
47 49 1 0 0 
SMALL
USER_CHARGES


@<TRIPOS>ATOM
  1 S       -0.1400    -2.6040    -0.3980 S.3   1 <1>  -0.2860 
  2 C       -1.3870    -1.3190    -0.3830 C.2   1 <1>   0.2420 
  3 C        1.4590    -1.7260    -0.7380 C.3   1 <1>   0.0700 
  4 N       -1.1090    -0.0800    -0.5770 N.2   1 <1>  -0.5650 
  5 N       -2.6950    -1.6130    -0.1670 N.pl3 1 <1>   0.0480 
  6 C        2.0050    -1.1130     0.5580 C.3   1 <1>   0.2000 
  7 C       -2.3280     0.5220    -0.4940 C.ar  1 <1>   0.2270 
  8 C       -3.3250    -0.4090    -0.2440 C.ar  1 <1>  -0.1520 
  9 C       -3.3150    -2.9320     0.0550 C.3   1 <1>   0.0960 
 10 O        1.3010     0.0480     0.8680 O.3   1 <1>  -0.6800 
 11 C        3.4970    -0.7630     0.4370 C.3   1 <1>   0.1200 
 12 C       -2.6510     1.8710    -0.6270 C.ar  1 <1>  -0.1500 
 13 C       -4.6620    -0.0180    -0.1270 C.ar  1 <1>  -0.1500 
 14 C       -3.6530    -3.5740    -1.2920 C.3   1 <1>   0.1200 
 15 O        3.8900    -0.0460     1.5540 O.3   1 <1>  -0.6800 
 16 C       -3.9680     2.2620    -0.5110 C.ar  1 <1>  -0.1500 
 17 C       -4.9710     1.3180    -0.2620 C.ar  1 <1>  -0.1500 
 18 O       -4.2620    -4.8290    -1.0710 O.3   1 <1>  -0.3620 
 19 C       -3.5670    -5.9070    -0.6250 C.ar  1 <1>   0.0820 
 20 C       -2.1770    -5.9900    -0.6120 C.ar  1 <1>  -0.1500 
 21 C       -4.3130    -6.9760    -0.1560 C.ar  1 <1>  -0.1500 
 22 C       -1.5540    -7.1250    -0.1230 C.ar  1 <1>  -0.1500 
 23 C       -3.6870    -8.1100     0.3310 C.ar  1 <1>  -0.1500 
 24 C       -2.3040    -8.1880     0.3540 C.ar  1 <1>  -0.1430 
 25 C       -1.6170    -9.4330     0.8870 C.3   1 <1>  -0.0970 
 26 H        1.2880    -0.9830    -1.4970 H     1 <1>   0.0800 
 27 H        2.1300    -2.4770    -1.1110 H     1 <1>   0.0800 
 28 H        1.8710    -1.8100     1.3680 H     1 <1>   0.0800 
 29 H       -4.2110    -2.8020     0.6330 H     1 <1>   0.0800 
 30 H       -2.6310    -3.5490     0.6080 H     1 <1>   0.0800 
 31 H        0.3900     0.0080     0.4740 H     1 <1>   0.4000 
 32 H        3.6680    -0.1480    -0.4300 H     1 <1>   0.0800 
 33 H        4.1040    -1.6480     0.3720 H     1 <1>   0.0800 
 34 H       -1.8640     2.5750    -0.8180 H     1 <1>   0.1500 
 35 H       -5.4310    -0.7450     0.0640 H     1 <1>   0.1500 
 36 H       -2.7840    -3.7080    -1.9120 H     1 <1>   0.0800 
 37 H       -4.3670    -2.9660    -1.8190 H     1 <1>   0.0800 
 38 H        3.1440     0.5550     1.7820 H     1 <1>   0.4000 
 39 H       -4.2350     3.3000    -0.6110 H     1 <1>   0.1500 
 40 H       -5.9910     1.6500    -0.1760 H     1 <1>   0.1500 
 41 H       -1.5620    -5.1920    -0.9790 H     1 <1>   0.1500 
 42 H       -5.3850    -6.9150    -0.1740 H     1 <1>   0.1500 
 43 H       -0.4800    -7.1780    -0.1170 H     1 <1>   0.1500 
 44 H       -4.2810    -8.9310     0.6920 H     1 <1>   0.1500 
 45 H       -0.6610    -9.1830     1.3120 H     1 <1>   0.0800 
 46 H       -1.4690   -10.1360     0.0880 H     1 <1>   0.0800 
 47 H       -2.2160    -9.8950     1.6500 H     1 <1>   0.0800 
@<TRIPOS>BOND
  1   1   2  1   
  2   1   3  1   
  3   2   4  2   
  4   2   5  1   
  5   3   6  1   
  6   3  26  1   
  7   3  27  1   
  8   4   7  1   
  9   5   8  1   
 10   5   9  1   
 11   6  10  1   
 12   6  11  1   
 13   6  28  1   
 14   7   8  ar  
 15   7  12  ar  
 16   8  13  ar  
 17   9  14  1   
 18   9  29  1   
 19   9  30  1   
 20  10  31  1   
 21  11  15  1   
 22  11  32  1   
 23  11  33  1   
 24  12  16  ar  
 25  12  34  1   
 26  13  17  ar  
 27  13  35  1   
 28  14  18  1   
 29  14  36  1   
 30  14  37  1   
 31  15  38  1   
 32  16  17  ar  
 33  16  39  1   
 34  17  40  1   
 35  18  19  1   
 36  19  20  ar  
 37  19  21  ar  
 38  20  22  ar  
 39  20  41  1   
 40  21  23  ar  
 41  21  42  1   
 42  22  24  ar  
 43  22  43  1   
 44  23  24  ar  
 45  23  44  1   
 46  24  25  1   
 47  25  45  1   
 48  25  46  1   
 49  25  47  1   
@<TRIPOS>SUBSTRUCTURE
  1 ****   5 GROUP 4 **** **** 0

# MOE 2024.06 (io_trps.svl 2023.06)
