@<TRIPOS>MOLECULE
Cyclohexyl-carbamic acid 3'-carbamoyl-biphenyl-3-yl ester
47 49 1 0 0 
SMALL
USER_CHARGES


@<TRIPOS>ATOM
  1 O       -0.2820    -0.1590    -0.6050 O.2   1 <1>  -0.5700 
  2 C       -0.7910     0.8260    -0.1110 C.2   1 <1>   0.7800 
  3 O       -2.0650     0.8310     0.2980 O.3   1 <1>  -0.2330 
  4 N       -0.1140     1.9880     0.0550 N.am  1 <1>  -0.7300 
  5 C       -2.9050    -0.2370     0.3390 C.ar  1 <1>   0.0820 
  6 C        1.2850     2.2260    -0.3270 C.3   1 <1>   0.2200 
  7 C       -4.2370    -0.0160     0.0290 C.ar  1 <1>  -0.1500 
  8 C       -2.4860    -1.5110     0.7010 C.ar  1 <1>  -0.1500 
  9 C        2.0850     2.6010     0.9250 C.3   1 <1>  -0.1600 
 10 C        1.3310     3.3440    -1.3730 C.3   1 <1>  -0.1600 
 11 C       -5.1670    -1.0490     0.0640 C.ar  1 <1>   0.0000 
 12 C       -3.3980    -2.5510     0.7360 C.ar  1 <1>  -0.1500 
 13 C        3.5340     2.9640     0.5700 C.3   1 <1>  -0.1600 
 14 C        2.7790     3.7090    -1.7330 C.3   1 <1>  -0.1600 
 15 C       -6.5550    -0.8090    -0.2570 C.ar  1 <1>   0.0000 
 16 C       -4.7250    -2.3190     0.4200 C.ar  1 <1>  -0.1500 
 17 C        3.5850     4.0820    -0.4810 C.3   1 <1>  -0.1600 
 18 C       -7.3240     0.0540     0.5150 C.ar  1 <1>  -0.1500 
 19 C       -7.1570    -1.4340    -1.3420 C.ar  1 <1>  -0.1500 
 20 C       -8.6660     0.3180     0.2360 C.ar  1 <1>   0.0860 
 21 C       -8.4860    -1.2020    -1.6420 C.ar  1 <1>  -0.1500 
 22 C       -9.4580     1.2340     1.0430 C.2   1 <1>   0.5440 
 23 C       -9.2280    -0.3370    -0.8600 C.ar  1 <1>  -0.1500 
 24 O      -10.6690     1.2240     1.0210 O.2   1 <1>  -0.5700 
 25 N       -8.8880     2.1570     1.8530 N.am  1 <1>  -0.8000 
 26 H       -0.6050     2.7740     0.4730 H     1 <1>   0.3700 
 27 H        1.7040     1.3280    -0.7550 H     1 <1>   0.0800 
 28 H       -4.5540     0.9730    -0.2490 H     1 <1>   0.1500 
 29 H       -1.4570    -1.6990     0.9540 H     1 <1>   0.1500 
 30 H        2.0850     1.7700     1.6090 H     1 <1>   0.0800 
 31 H        1.6230     3.4430     1.4100 H     1 <1>   0.0800 
 32 H        0.8360     4.2190    -0.9880 H     1 <1>   0.0800 
 33 H        0.8150     3.0220    -2.2610 H     1 <1>   0.0800 
 34 H       -3.0730    -3.5390     1.0110 H     1 <1>   0.1500 
 35 H        4.0350     2.0920     0.1850 H     1 <1>   0.0800 
 36 H        4.0560     3.2780     1.4570 H     1 <1>   0.0800 
 37 H        2.7820     4.5340    -2.4240 H     1 <1>   0.0800 
 38 H        3.2460     2.8690    -2.2200 H     1 <1>   0.0800 
 39 H       -5.4300    -3.1310     0.4520 H     1 <1>   0.1500 
 40 H        4.6080     4.2720    -0.7550 H     1 <1>   0.0800 
 41 H        3.1860     4.9880    -0.0570 H     1 <1>   0.0800 
 42 H       -6.8580     0.5190     1.3630 H     1 <1>   0.1500 
 43 H       -6.5770    -2.1040    -1.9540 H     1 <1>   0.1500 
 44 H       -8.9430    -1.6940    -2.4830 H     1 <1>   0.1500 
 45 H      -10.2640    -0.1610    -1.0980 H     1 <1>   0.1500 
 46 H       -9.4980     2.7840     2.3780 H     1 <1>   0.3700 
 47 H       -7.8880     2.3450     1.8950 H     1 <1>   0.3700 
@<TRIPOS>BOND
  1   1   2  2   
  2   2   3  1   
  3   2   4  am  
  4   3   5  1   
  5   4   6  1   
  6   4  26  1   
  7   5   7  ar  
  8   5   8  ar  
  9   6   9  1   
 10   6  10  1   
 11   6  27  1   
 12   7  11  ar  
 13   7  28  1   
 14   8  12  ar  
 15   8  29  1   
 16   9  13  1   
 17   9  30  1   
 18   9  31  1   
 19  10  14  1   
 20  10  32  1   
 21  10  33  1   
 22  11  15  1   
 23  11  16  ar  
 24  12  16  ar  
 25  12  34  1   
 26  13  17  1   
 27  13  35  1   
 28  13  36  1   
 29  14  17  1   
 30  14  37  1   
 31  14  38  1   
 32  15  18  ar  
 33  15  19  ar  
 34  16  39  1   
 35  17  40  1   
 36  17  41  1   
 37  18  20  ar  
 38  18  42  1   
 39  19  21  ar  
 40  19  43  1   
 41  20  22  1   
 42  20  23  ar  
 43  21  23  ar  
 44  21  44  1   
 45  22  24  2   
 46  22  25  am  
 47  23  45  1   
 48  25  46  1   
 49  25  47  1   
@<TRIPOS>SUBSTRUCTURE
  1 ****   7 GROUP 4 **** **** 0

# MOE 2024.06 (io_trps.svl 2023.06)
