@<TRIPOS>MOLECULE
1-(6-Methyl-thieno[2,3-d]pyrimidin-4-yl)-piperidine-4-carboxylic acid
33 35 1 0 0 
SMALL
USER_CHARGES


@<TRIPOS>ATOM
  1 S       -0.2550    -0.1320    -0.0450 S.3   1 <1>  -0.0800 
  2 C        1.3010     0.6250     0.2950 C.ar  1 <1>   0.2970 
  3 C       -1.0080     1.4340    -0.3670 C.2   1 <1>  -0.1400 
  4 N        2.3850    -0.0530     0.6060 N.ar  1 <1>  -0.5670 
  5 C        1.2030     1.9890     0.1800 C.ar  1 <1>   0.0000 
  6 C       -0.1130     2.4250    -0.2110 C.2   1 <1>  -0.1500 
  7 C       -2.4690     1.4290    -0.7620 C.3   1 <1>  -0.0600 
  8 C        3.4270     0.7330     0.8020 C.ar  1 <1>   0.4700 
  9 C        2.3780     2.6920     0.4420 C.ar  1 <1>   0.4100 
 10 N        3.5000     2.0550     0.7380 N.ar  1 <1>  -0.6200 
 11 N        2.4210     4.0650     0.4150 N.pl3 1 <1>  -0.8380 
 12 C        3.5690     4.7870    -0.1900 C.3   1 <1>   0.2090 
 13 C        1.5940     4.8770     1.3430 C.3   1 <1>   0.2090 
 14 C        3.0610     6.0310    -0.9250 C.3   1 <1>  -0.1600 
 15 C        1.0720     6.1200     0.6200 C.3   1 <1>  -0.1600 
 16 C        2.2210     6.9390    -0.0050 C.3   1 <1>  -0.1860 
 17 C        1.7390     8.1840    -0.7430 C.2   1 <1>   0.9060 
 18 O        0.6280     8.1870    -1.2880 O.co2 1 <1>  -0.9000 
 19 O        2.4900     9.1640    -0.7710 O.co2 1 <1>  -0.9000 
 20 H       -0.3020     3.4740    -0.3590 H     1 <1>   0.1500 
 21 H       -2.6050     0.8530    -1.6590 H     1 <1>   0.0800 
 22 H       -2.8070     2.4340    -0.9390 H     1 <1>   0.0800 
 23 H       -3.0600     0.9950     0.0250 H     1 <1>   0.0800 
 24 H        4.3480     0.2310     1.0510 H     1 <1>   0.1500 
 25 H        4.0850     4.1420    -0.8800 H     1 <1>   0.0800 
 26 H        4.2550     5.0740     0.5880 H     1 <1>   0.0800 
 27 H        2.2020     5.1760     2.1790 H     1 <1>   0.0800 
 28 H        0.7700     4.2950     1.7180 H     1 <1>   0.0800 
 29 H        2.4640     5.7250    -1.7660 H     1 <1>   0.0800 
 30 H        3.8980     6.5900    -1.3040 H     1 <1>   0.0800 
 31 H        0.5290     6.7400     1.3100 H     1 <1>   0.0800 
 32 H        0.3870     5.8190    -0.1530 H     1 <1>   0.0800 
 33 H        2.8530     7.2900     0.7880 H     1 <1>   0.0800 
@<TRIPOS>BOND
  1   1   2  1   
  2   1   3  1   
  3   2   4  ar  
  4   2   5  ar  
  5   3   6  2   
  6   3   7  1   
  7   4   8  ar  
  8   5   6  1   
  9   5   9  ar  
 10   6  20  1   
 11   7  21  1   
 12   7  22  1   
 13   7  23  1   
 14   8  10  ar  
 15   8  24  1   
 16   9  10  ar  
 17   9  11  1   
 18  11  12  1   
 19  11  13  1   
 20  12  14  1   
 21  12  25  1   
 22  12  26  1   
 23  13  15  1   
 24  13  27  1   
 25  13  28  1   
 26  14  16  1   
 27  14  29  1   
 28  14  30  1   
 29  15  16  1   
 30  15  31  1   
 31  15  32  1   
 32  16  17  1   
 33  16  33  1   
 34  17  18  ar  
 35  17  19  ar  
@<TRIPOS>SUBSTRUCTURE
  1 ****  11 GROUP 4 **** **** 0

# MOE 2024.06 (io_trps.svl 2023.06)
