@<TRIPOS>MOLECULE
2-Oxo-1-oxa-spiro[4.4]nonane-4-carboxylic acid phenylamide
36 38 1 0 0 
SMALL
USER_CHARGES


@<TRIPOS>ATOM
  1 O       -1.0910    -0.5850    -0.7880 O.2   1 <1>  -0.5700 
  2 C       -2.0020     0.0620    -0.3530 C.2   1 <1>   0.6590 
  3 O       -3.1400    -0.4530     0.0600 O.3   1 <1>  -0.4300 
  4 C       -1.9920     1.5520    -0.1830 C.3   1 <1>  -0.0990 
  5 C       -4.0710     0.5370     0.4300 C.3   1 <1>   0.2800 
  6 C       -3.1830     1.7600     0.7590 C.3   1 <1>  -0.0190 
  7 C       -4.9180    -0.0100     1.5770 C.3   1 <1>  -0.1600 
  8 C       -5.0610     0.6300    -0.7390 C.3   1 <1>  -0.1600 
  9 C       -3.8600     3.1330     0.7240 C.2   1 <1>   0.5690 
 10 C       -5.9560    -0.9330     0.9240 C.3   1 <1>  -0.1600 
 11 C       -5.9750    -0.5880    -0.5720 C.3   1 <1>  -0.1600 
 12 O       -5.0390     3.2240     0.9460 O.2   1 <1>  -0.5700 
 13 N       -3.1640     4.2800     0.4940 N.am  1 <1>  -0.5470 
 14 C       -1.7930     4.5360     0.5160 C.ar  1 <1>   0.1170 
 15 C       -1.1650     5.0610    -0.6060 C.ar  1 <1>  -0.1500 
 16 C       -1.0370     4.2770     1.6530 C.ar  1 <1>  -0.1500 
 17 C        0.1960     5.3080    -0.5980 C.ar  1 <1>  -0.1500 
 18 C        0.3240     4.5210     1.6630 C.ar  1 <1>  -0.1500 
 19 C        0.9420     5.0350     0.5360 C.ar  1 <1>  -0.1500 
 20 H       -2.1540     2.0150    -1.1400 H     1 <1>   0.0800 
 21 H       -1.0590     1.8740     0.2410 H     1 <1>   0.0800 
 22 H       -2.8310     1.6260     1.7660 H     1 <1>   0.0800 
 23 H       -5.4350     0.8050     2.0530 H     1 <1>   0.0800 
 24 H       -4.3220    -0.5220     2.3110 H     1 <1>   0.0800 
 25 H       -4.5720     0.6420    -1.6970 H     1 <1>   0.0800 
 26 H       -5.6710     1.5090    -0.6560 H     1 <1>   0.0800 
 27 H       -6.9260    -0.7860     1.3680 H     1 <1>   0.0800 
 28 H       -5.6680    -1.9630     1.0520 H     1 <1>   0.0800 
 29 H       -5.5730    -1.4160    -1.1320 H     1 <1>   0.0800 
 30 H       -6.9720    -0.3820    -0.9220 H     1 <1>   0.0800 
 31 H       -3.7710     5.0990     0.4220 H     1 <1>   0.3700 
 32 H       -1.7430     5.2730    -1.4880 H     1 <1>   0.1500 
 33 H       -1.5160     3.8870     2.5340 H     1 <1>   0.1500 
 34 H        0.6770     5.7110    -1.4730 H     1 <1>   0.1500 
 35 H        0.9040     4.3160     2.5460 H     1 <1>   0.1500 
 36 H        2.0020     5.2260     0.5420 H     1 <1>   0.1500 
@<TRIPOS>BOND
  1   1   2  2   
  2   2   3  1   
  3   2   4  1   
  4   3   5  1   
  5   4   6  1   
  6   4  20  1   
  7   4  21  1   
  8   5   6  1   
  9   5   7  1   
 10   5   8  1   
 11   6   9  1   
 12   6  22  1   
 13   7  10  1   
 14   7  23  1   
 15   7  24  1   
 16   8  11  1   
 17   8  25  1   
 18   8  26  1   
 19   9  12  2   
 20   9  13  am  
 21  10  11  1   
 22  10  27  1   
 23  10  28  1   
 24  11  29  1   
 25  11  30  1   
 26  13  14  1   
 27  13  31  1   
 28  14  15  ar  
 29  14  16  ar  
 30  15  17  ar  
 31  15  32  1   
 32  16  18  ar  
 33  16  33  1   
 34  17  19  ar  
 35  17  34  1   
 36  18  19  ar  
 37  18  35  1   
 38  19  36  1   
@<TRIPOS>SUBSTRUCTURE
  1 ****   6 GROUP 4 **** **** 0

# MOE 2024.06 (io_trps.svl 2023.06)
