@<TRIPOS>MOLECULE
Thiophene-2-sulfonic acid cyclopropylamide
21 22 1 0 0 
SMALL
USER_CHARGES


@<TRIPOS>ATOM
  1 S        0.0370    -0.5550     0.4310 S.o2  1 <1>   1.5000 
  2 O        0.2620    -1.2760    -0.8030 O.2   1 <1>  -0.6500 
  3 O       -0.2970    -1.2760     1.6380 O.2   1 <1>  -0.6500 
  4 N        1.4430     0.2720     0.8230 N.am  1 <1>  -0.7890 
  5 C       -1.1500     0.7770     0.1370 C.2   1 <1>  -0.0220 
  6 C        2.6350    -0.5280     0.6900 C.3   1 <1>   0.1310 
  7 S       -1.6200     1.7840     1.5050 S.3   1 <1>  -0.0800 
  8 C       -1.7840     1.2090    -0.9740 C.2   1 <1>  -0.1500 
  9 C        3.9450     0.1820     0.7060 C.3   1 <1>  -0.2000 
 10 C        3.4220    -0.4140    -0.5690 C.3   1 <1>  -0.2000 
 11 C       -2.6780     2.7610     0.5040 C.2   1 <1>  -0.1100 
 12 C       -2.6520     2.3300    -0.7690 C.2   1 <1>  -0.1500 
 13 H        1.3310     0.4620     1.8160 H     1 <1>   0.4200 
 14 H        2.5660    -1.4940     1.1710 H     1 <1>   0.1000 
 15 H       -1.6710     0.7720    -1.9520 H     1 <1>   0.1500 
 16 H        4.7910    -0.2900     1.1720 H     1 <1>   0.1000 
 17 H        3.9580     1.2530     0.8020 H     1 <1>   0.1000 
 18 H        3.0460     0.2330    -1.3430 H     1 <1>   0.1000 
 19 H        3.8940    -1.2980    -0.9600 H     1 <1>   0.1000 
 20 H       -3.2140     3.5630     0.9810 H     1 <1>   0.1500 
 21 H       -3.2100     2.7550    -1.5860 H     1 <1>   0.1500 
@<TRIPOS>BOND
  1   1   2  2   
  2   1   3  2   
  3   1   4  am  
  4   1   5  1   
  5   4   6  1   
  6   4  13  1   
  7   5   7  1   
  8   5   8  2   
  9   6   9  1   
 10   6  10  1   
 11   6  14  1   
 12   7  11  1   
 13   8  12  1   
 14   8  15  1   
 15   9  10  1   
 16   9  16  1   
 17   9  17  1   
 18  10  18  1   
 19  10  19  1   
 20  11  12  2   
 21  11  20  1   
 22  12  21  1   
@<TRIPOS>SUBSTRUCTURE
  1 ****   1 GROUP 4 **** **** 0

# MOE 2024.06 (io_trps.svl 2023.06)
