@<TRIPOS>MOLECULE
[1-(4-Methoxy-3-methyl-benzenesulfonyl)-piperidin-4-yl]-morpholin-4-yl-methanone
52 54 1 0 0 
SMALL
USER_CHARGES


@<TRIPOS>ATOM
  1 S       -0.3030     0.3050    -2.0890 S.o2  1 <1>   1.4470 
  2 O        0.3670    -0.6730    -2.9210 O.2   1 <1>  -0.6500 
  3 O       -1.1190     1.3230    -2.7140 O.2   1 <1>  -0.6500 
  4 N        0.9140     1.0970    -1.2110 N.am  1 <1>  -0.8490 
  5 C       -1.2690    -0.5300    -0.8000 C.ar  1 <1>  -0.0090 
  6 C        1.5610     2.1380    -2.0140 C.3   1 <1>   0.1960 
  7 C        1.8910     0.1570    -0.6550 C.3   1 <1>   0.1960 
  8 C       -1.6530     0.1430     0.3530 C.ar  1 <1>  -0.1500 
  9 C       -1.6520    -1.8590    -0.9330 C.ar  1 <1>  -0.1500 
 10 C        2.5460     2.9330    -1.1550 C.3   1 <1>  -0.1600 
 11 C        2.8820     0.8920     0.2510 C.3   1 <1>  -0.1600 
 12 C       -2.3840    -0.4790     1.3520 C.ar  1 <1>  -0.1430 
 13 C       -2.3840    -2.4980     0.0520 C.ar  1 <1>  -0.1500 
 14 C        3.6040     2.0170    -0.5100 C.3   1 <1>  -0.0190 
 15 C       -2.7550    -1.8120     1.2050 C.ar  1 <1>   0.0830 
 16 C       -2.7760     0.3020     2.5990 C.3   1 <1>  -0.0970 
 17 C        4.5740     2.7750     0.4070 C.2   1 <1>   0.5690 
 18 O       -3.4700    -2.3840     2.2070 O.3   1 <1>  -0.3630 
 19 O        4.1500     3.7370     1.0040 O.2   1 <1>  -0.5700 
 20 N        5.8820     2.3750     0.5500 N.am  1 <1>  -0.6600 
 21 C       -3.9170    -3.7200     2.1340 C.3   1 <1>   0.0400 
 22 C        6.8550     3.1930     1.3420 C.3   1 <1>   0.1400 
 23 C        6.4990     1.1300    -0.0060 C.3   1 <1>   0.1400 
 24 C        7.6160     2.3180     2.3500 C.3   1 <1>   0.1200 
 25 C        7.2860     0.3760     1.0810 C.3   1 <1>   0.1200 
 26 O        8.2050     1.2240     1.7070 O.3   1 <1>  -0.5600 
 27 H        0.8170     2.8180    -2.3970 H     1 <1>   0.0800 
 28 H        2.0690     1.6910    -2.8530 H     1 <1>   0.0800 
 29 H        2.4220    -0.3380    -1.4530 H     1 <1>   0.0800 
 30 H        1.3820    -0.5950    -0.0750 H     1 <1>   0.0800 
 31 H       -1.3670     1.1760     0.4630 H     1 <1>   0.1500 
 32 H       -1.3720    -2.4020    -1.8210 H     1 <1>   0.1500 
 33 H        1.9900     3.4510    -0.3910 H     1 <1>   0.0800 
 34 H        3.0330     3.6760    -1.7610 H     1 <1>   0.0800 
 35 H        3.5980     0.1900     0.6370 H     1 <1>   0.0800 
 36 H        2.3470     1.3070     1.0880 H     1 <1>   0.0800 
 37 H       -2.6550    -3.5250    -0.0960 H     1 <1>   0.1500 
 38 H        4.1650     1.5880    -1.3180 H     1 <1>   0.0800 
 39 H       -2.3930     1.3060     2.5670 H     1 <1>   0.0800 
 40 H       -2.3850    -0.1870     3.4730 H     1 <1>   0.0800 
 41 H       -3.8470     0.3440     2.6790 H     1 <1>   0.0800 
 42 H       -4.4670    -3.9370     3.0320 H     1 <1>   0.0800 
 43 H       -3.0640    -4.3700     2.0620 H     1 <1>   0.0800 
 44 H       -4.5600    -3.8260     1.2780 H     1 <1>   0.0800 
 45 H        6.3510     3.9810     1.8740 H     1 <1>   0.0800 
 46 H        7.5600     3.6500     0.6700 H     1 <1>   0.0800 
 47 H        7.1710     1.3960    -0.8030 H     1 <1>   0.0800 
 48 H        5.7540     0.4690    -0.4040 H     1 <1>   0.0800 
 49 H        6.9500     1.9560     3.1150 H     1 <1>   0.0800 
 50 H        8.4000     2.8870     2.8160 H     1 <1>   0.0800 
 51 H        7.8380    -0.4370     0.6440 H     1 <1>   0.0800 
 52 H        6.6200    -0.0190     1.8280 H     1 <1>   0.0800 
@<TRIPOS>BOND
  1   1   2  2   
  2   1   3  2   
  3   1   4  am  
  4   1   5  1   
  5   4   6  1   
  6   4   7  1   
  7   5   8  ar  
  8   5   9  ar  
  9   6  10  1   
 10   6  27  1   
 11   6  28  1   
 12   7  11  1   
 13   7  29  1   
 14   7  30  1   
 15   8  12  ar  
 16   8  31  1   
 17   9  13  ar  
 18   9  32  1   
 19  10  14  1   
 20  10  33  1   
 21  10  34  1   
 22  11  14  1   
 23  11  35  1   
 24  11  36  1   
 25  12  15  ar  
 26  12  16  1   
 27  13  15  ar  
 28  13  37  1   
 29  14  17  1   
 30  14  38  1   
 31  15  18  1   
 32  16  39  1   
 33  16  40  1   
 34  16  41  1   
 35  17  19  2   
 36  17  20  am  
 37  18  21  1   
 38  20  22  1   
 39  20  23  1   
 40  21  42  1   
 41  21  43  1   
 42  21  44  1   
 43  22  24  1   
 44  22  45  1   
 45  22  46  1   
 46  23  25  1   
 47  23  47  1   
 48  23  48  1   
 49  24  26  1   
 50  24  49  1   
 51  24  50  1   
 52  25  26  1   
 53  25  51  1   
 54  25  52  1   
@<TRIPOS>SUBSTRUCTURE
  1 ****   7 GROUP 4 **** **** 0

# MOE 2024.06 (io_trps.svl 2023.06)
