@<TRIPOS>MOLECULE
N-[3-(4-tert-Butyl-phenyl)-[1,2,4]oxadiazol-5-ylmethyl]-2,2-dimethyl-propionamid
48 49 1 0 0 
SMALL
USER_CHARGES


@<TRIPOS>ATOM
  1 O       -3.1600     0.7280     2.4270 O.2   1 <1>  -0.5700 
  2 C       -3.1230     0.2280     1.3300 C.2   1 <1>   0.5690 
  3 N       -4.3080    -0.2180     0.8390 N.am  1 <1>  -0.7300 
  4 C       -1.7590     0.1360     0.5790 C.3   1 <1>   0.0610 
  5 C       -4.6950    -0.9170    -0.4140 C.3   1 <1>   0.3200 
  6 C       -1.7720     0.9790    -0.7130 C.3   1 <1>  -0.2400 
  7 C       -0.6150     0.6960     1.4550 C.3   1 <1>  -0.2400 
  8 C       -1.3780    -1.3220     0.2500 C.3   1 <1>  -0.2400 
  9 C       -5.1600    -2.3390    -0.1380 C.2   1 <1>   0.2980 
 10 O       -4.2820    -3.2140     0.2760 O.3   1 <1>  -0.0190 
 11 N       -6.3430    -2.7770    -0.2770 N.2   1 <1>  -0.5650 
 12 N       -4.9650    -4.3060     0.4110 N.2   1 <1>  -0.4100 
 13 C       -6.1860    -4.0540     0.0900 C.2   1 <1>   0.4620 
 14 C       -7.2820    -5.0080     0.1100 C.ar  1 <1>   0.0540 
 15 C       -7.0860    -6.3330     0.4950 C.ar  1 <1>  -0.1500 
 16 C       -8.5790    -4.6500    -0.2540 C.ar  1 <1>  -0.1500 
 17 C       -8.1250    -7.2450     0.5150 C.ar  1 <1>  -0.1500 
 18 C       -9.6200    -5.5600    -0.2340 C.ar  1 <1>  -0.1500 
 19 C       -9.4160    -6.8810     0.1520 C.ar  1 <1>  -0.1430 
 20 C      -10.5450    -7.9360     0.1900 C.3   1 <1>   0.1430 
 21 C      -10.6950    -8.4750     1.6200 C.3   1 <1>  -0.2400 
 22 C      -11.9110    -7.3760    -0.2410 C.3   1 <1>  -0.2400 
 23 C      -10.1980    -9.0930    -0.7580 C.3   1 <1>  -0.2400 
 24 H       -5.0790    -0.1090     1.5020 H     1 <1>   0.3700 
 25 H       -3.8850    -0.9460    -1.1130 H     1 <1>   0.0800 
 26 H       -5.5030    -0.3750    -0.8720 H     1 <1>   0.0800 
 27 H       -2.4930     0.6230    -1.4200 H     1 <1>   0.0800 
 28 H       -0.8060     0.9580    -1.1870 H     1 <1>   0.0800 
 29 H       -2.0100     2.0020    -0.4790 H     1 <1>   0.0800 
 30 H       -0.8050     1.7240     1.7100 H     1 <1>   0.0800 
 31 H        0.3310     0.6430     0.9460 H     1 <1>   0.0800 
 32 H       -0.5390     0.1370     2.3720 H     1 <1>   0.0800 
 33 H       -2.0320    -1.7600    -0.4760 H     1 <1>   0.0800 
 34 H       -1.4170    -1.9210     1.1430 H     1 <1>   0.0800 
 35 H       -0.3790    -1.3720    -0.1450 H     1 <1>   0.0800 
 36 H       -6.1020    -6.6570     0.7850 H     1 <1>   0.1500 
 37 H       -8.7800    -3.6380    -0.5580 H     1 <1>   0.1500 
 38 H       -7.9120    -8.2530     0.8220 H     1 <1>   0.1500 
 39 H      -10.5910    -5.2070    -0.5280 H     1 <1>   0.1500 
 40 H      -10.9030    -7.6650     2.2970 H     1 <1>   0.0800 
 41 H       -9.7960    -8.9640     1.9470 H     1 <1>   0.0800 
 42 H      -11.5010    -9.1840     1.6760 H     1 <1>   0.0800 
 43 H      -12.6640    -8.1420    -0.1990 H     1 <1>   0.0800 
 44 H      -11.8660    -7.0080    -1.2500 H     1 <1>   0.0800 
 45 H      -12.2140    -6.5760     0.4110 H     1 <1>   0.0800 
 46 H      -10.9890    -9.8210    -0.7740 H     1 <1>   0.0800 
 47 H       -9.2950    -9.5880    -0.4530 H     1 <1>   0.0800 
 48 H      -10.0560    -8.7190    -1.7570 H     1 <1>   0.0800 
@<TRIPOS>BOND
  1   1   2  2   
  2   2   3  am  
  3   2   4  1   
  4   3   5  1   
  5   3  24  1   
  6   4   6  1   
  7   4   7  1   
  8   4   8  1   
  9   5   9  1   
 10   5  25  1   
 11   5  26  1   
 12   6  27  1   
 13   6  28  1   
 14   6  29  1   
 15   7  30  1   
 16   7  31  1   
 17   7  32  1   
 18   8  33  1   
 19   8  34  1   
 20   8  35  1   
 21   9  10  1   
 22   9  11  2   
 23  10  12  1   
 24  11  13  1   
 25  12  13  2   
 26  13  14  1   
 27  14  15  ar  
 28  14  16  ar  
 29  15  17  ar  
 30  15  36  1   
 31  16  18  ar  
 32  16  37  1   
 33  17  19  ar  
 34  17  38  1   
 35  18  19  ar  
 36  18  39  1   
 37  19  20  1   
 38  20  21  1   
 39  20  22  1   
 40  20  23  1   
 41  21  40  1   
 42  21  41  1   
 43  21  42  1   
 44  22  43  1   
 45  22  44  1   
 46  22  45  1   
 47  23  46  1   
 48  23  47  1   
 49  23  48  1   
@<TRIPOS>SUBSTRUCTURE
  1 ****  13 GROUP 4 **** **** 0

# MOE 2024.06 (io_trps.svl 2023.06)
