@<TRIPOS>MOLECULE
4,5-Dichloro-N-(3-imidazol-1-yl-propyl)-2-methyl-benzenesulfonamide
36 37 1 0 0 
SMALL
USER_CHARGES


@<TRIPOS>ATOM
  1 CL      -1.4280    -0.6430    -1.1150 Cl    1 <1>  -0.1770 
  2 C       -1.7590     1.0100    -0.6550 C.ar  1 <1>   0.1770 
  3 C       -0.7510     1.9540    -0.6280 C.ar  1 <1>   0.1770 
  4 C       -3.0510     1.3640    -0.3180 C.ar  1 <1>  -0.1500 
  5 CL       0.8910     1.5300    -1.0500 Cl    1 <1>  -0.1770 
  6 C       -1.0350     3.2540    -0.2620 C.ar  1 <1>  -0.1500 
  7 C       -3.3690     2.6690     0.0550 C.ar  1 <1>  -0.0090 
  8 C       -2.3340     3.6150     0.0770 C.ar  1 <1>  -0.1440 
  9 S       -5.0990     3.0630     0.4750 S.o2  1 <1>   1.4470 
 10 C       -2.5860     5.0660     0.4740 C.3   1 <1>  -0.0960 
 11 O       -5.9280     1.8940     0.3110 O.2   1 <1>  -0.6500 
 12 O       -5.1750     3.8300     1.6990 O.2   1 <1>  -0.6500 
 13 N       -5.6030     4.0620    -0.7780 N.am  1 <1>  -0.9140 
 14 C       -6.5900     5.0720    -0.4240 C.3   1 <1>   0.1960 
 15 C       -7.9610     4.4390    -0.1670 C.3   1 <1>  -0.1600 
 16 C       -8.9860     5.5130     0.2150 C.3   1 <1>   0.0960 
 17 N      -10.3200     4.9090     0.3920 N.pl3 1 <1>   0.0480 
 18 C      -10.8110     4.2840     1.4860 C.2   1 <1>   0.0360 
 19 C      -11.3220     4.8640    -0.5050 C.2   1 <1>  -0.3020 
 20 N      -12.0250     3.8580     1.3480 N.2   1 <1>  -0.5650 
 21 C      -12.3490     4.2220     0.0940 C.2   1 <1>   0.0770 
 22 H       -3.8160     0.6060    -0.3480 H     1 <1>   0.1500 
 23 H       -0.2350     3.9730    -0.2460 H     1 <1>   0.1500 
 24 H       -1.6950     5.6580     0.3660 H     1 <1>   0.0800 
 25 H       -2.8970     5.1220     1.5020 H     1 <1>   0.0800 
 26 H       -3.3470     5.5020    -0.1470 H     1 <1>   0.0800 
 27 H       -6.0350     3.4160    -1.4380 H     1 <1>   0.4200 
 28 H       -6.6720     5.7660    -1.2440 H     1 <1>   0.0800 
 29 H       -6.2580     5.6270     0.4390 H     1 <1>   0.0800 
 30 H       -7.8970     3.7310     0.6410 H     1 <1>   0.0800 
 31 H       -8.2930     3.9320    -1.0560 H     1 <1>   0.0800 
 32 H       -9.0510     6.2610    -0.5540 H     1 <1>   0.0800 
 33 H       -8.7010     5.9900     1.1360 H     1 <1>   0.0800 
 34 H      -10.2280     4.1600     2.3810 H     1 <1>   0.1500 
 35 H      -11.2570     5.2770    -1.4940 H     1 <1>   0.1500 
 36 H      -13.3190     3.9990    -0.3180 H     1 <1>   0.1500 
@<TRIPOS>BOND
  1   1   2  1   
  2   2   3  ar  
  3   2   4  ar  
  4   3   5  1   
  5   3   6  ar  
  6   4   7  ar  
  7   4  22  1   
  8   6   8  ar  
  9   6  23  1   
 10   7   8  ar  
 11   7   9  1   
 12   8  10  1   
 13   9  11  2   
 14   9  12  2   
 15   9  13  am  
 16  10  24  1   
 17  10  25  1   
 18  10  26  1   
 19  13  14  1   
 20  13  27  1   
 21  14  15  1   
 22  14  28  1   
 23  14  29  1   
 24  15  16  1   
 25  15  30  1   
 26  15  31  1   
 27  16  17  1   
 28  16  32  1   
 29  16  33  1   
 30  17  18  1   
 31  17  19  1   
 32  18  20  2   
 33  18  34  1   
 34  19  21  2   
 35  19  35  1   
 36  20  21  1   
 37  21  36  1   
@<TRIPOS>SUBSTRUCTURE
  1 ****   9 GROUP 4 **** **** 0

# MOE 2024.06 (io_trps.svl 2023.06)
