@<TRIPOS>MOLECULE
N-(2-Methyl-2H-tetrazol-5-yl)-2-(1H-[1,2,4]triazol-3-ylsulfanyl)-acetamide
24 25 1 0 0 
SMALL
USER_CHARGES


@<TRIPOS>ATOM
  1 S       -1.0080    -1.8130     1.6340 S.3   1 <1>  -0.2860 
  2 C       -0.6450    -0.7620     0.2260 C.2   1 <1>   0.2420 
  3 C        0.4860    -1.6630     2.7310 C.3   1 <1>   0.1310 
  4 N        0.1780     0.2280     0.2160 N.2   1 <1>  -0.3380 
  5 N       -1.2320    -0.9670    -0.9440 N.pl3 1 <1>   0.0330 
  6 C        1.1770    -3.0190     2.8180 C.2   1 <1>   0.5690 
  7 N        0.1450     0.7160    -1.0320 N.2   1 <1>  -0.3380 
  8 C       -0.6950    -0.0060    -1.6990 C.2   1 <1>   0.0360 
  9 O        1.1310    -3.6340     3.8550 O.2   1 <1>  -0.5700 
 10 N        1.8090    -3.5580     1.7500 N.am  1 <1>  -0.4930 
 11 C        2.0400    -2.9520     0.5290 C.2   1 <1>   0.5790 
 12 N        1.5590    -3.4350    -0.6120 N.2   1 <1>  -0.2270 
 13 N        2.7090    -1.8730     0.4180 N.2   1 <1>  -0.7070 
 14 N        1.9090    -2.6000    -1.5110 N.2   1 <1>  -0.4180 
 15 N        2.5920    -1.6570    -0.8770 N.pl3 1 <1>   0.5800 
 16 C        3.1520    -0.4710    -1.5300 C.3   1 <1>   0.0160 
 17 H        0.1360    -1.3570     3.6990 H     1 <1>   0.0800 
 18 H        1.1390    -0.9120     2.3280 H     1 <1>   0.0800 
 19 H       -1.9050    -1.6960    -1.1800 H     1 <1>   0.2700 
 20 H       -0.9420     0.1340    -2.7360 H     1 <1>   0.1500 
 21 H        2.1210    -4.5180     1.8450 H     1 <1>   0.3700 
 22 H        2.6820    -0.3380    -2.4860 H     1 <1>   0.0800 
 23 H        4.2100    -0.6050    -1.6520 H     1 <1>   0.0800 
 24 H        2.9600     0.3870    -0.9130 H     1 <1>   0.0800 
@<TRIPOS>BOND
  1   1   2  1   
  2   1   3  1   
  3   2   4  2   
  4   2   5  1   
  5   3   6  1   
  6   3  17  1   
  7   3  18  1   
  8   4   7  1   
  9   5   8  1   
 10   5  19  1   
 11   6   9  2   
 12   6  10  am  
 13   7   8  2   
 14   8  20  1   
 15  10  11  1   
 16  10  21  1   
 17  11  12  1   
 18  11  13  2   
 19  12  14  2   
 20  13  15  1   
 21  14  15  1   
 22  15  16  1   
 23  16  22  1   
 24  16  23  1   
 25  16  24  1   
@<TRIPOS>SUBSTRUCTURE
  1 ****  11 GROUP 4 **** **** 0

# MOE 2024.06 (io_trps.svl 2023.06)
