@<TRIPOS>MOLECULE
N-[2-(5-Acetylamino-1-methyl-1H-benzoimidazol-2-yl)-ethyl]-propionamide
41 42 1 0 0 
SMALL
USER_CHARGES


@<TRIPOS>ATOM
  1 O       -0.9850     0.6870    -0.5820 O.2   1 <1>  -0.5700 
  2 C       -0.1090     1.3950    -0.1460 C.2   1 <1>   0.5690 
  3 N       -0.3810     2.5610     0.4920 N.am  1 <1>  -0.7300 
  4 C        1.3400     0.9840    -0.3240 C.3   1 <1>  -0.0990 
  5 C       -1.7530     3.0420     0.7790 C.3   1 <1>   0.1400 
  6 C        1.9930     0.5260     0.9900 C.3   1 <1>  -0.2400 
  7 C       -2.3400     3.7450    -0.4470 C.3   1 <1>   0.0200 
  8 C       -3.8550     3.7310    -0.3740 C.2   1 <1>   0.0060 
  9 N       -4.5490     4.7500    -0.0010 N.2   1 <1>  -0.5650 
 10 N       -4.5980     2.6300    -0.6860 N.pl3 1 <1>   0.0480 
 11 C       -5.8370     4.3170    -0.0620 C.ar  1 <1>   0.2270 
 12 C       -5.8910     3.0020    -0.4790 C.ar  1 <1>  -0.1520 
 13 C       -4.1340     1.2970    -1.1250 C.3   1 <1>   0.0160 
 14 C       -7.0080     5.0090     0.2320 C.ar  1 <1>  -0.1500 
 15 C       -7.1160     2.3440    -0.6030 C.ar  1 <1>  -0.1500 
 16 C       -8.2330     4.3810     0.1120 C.ar  1 <1>   0.1170 
 17 C       -8.2680     3.0370    -0.3060 C.ar  1 <1>  -0.1500 
 18 N       -9.3960     5.1090     0.4280 N.am  1 <1>  -0.5470 
 19 C      -10.7100     4.9000     0.1220 C.2   1 <1>   0.5690 
 20 O      -11.1220     3.9820    -0.5400 O.2   1 <1>  -0.5700 
 21 C      -11.7040     5.9050     0.6470 C.3   1 <1>  -0.1790 
 22 H        0.3850     3.1390     0.8400 H     1 <1>   0.3700 
 23 H        1.8880     1.8120    -0.7350 H     1 <1>   0.0800 
 24 H        1.3810     0.1800    -1.0380 H     1 <1>   0.0800 
 25 H       -1.7470     3.7110     1.6220 H     1 <1>   0.0800 
 26 H       -2.3650     2.1930     1.0360 H     1 <1>   0.0800 
 27 H        1.9900     1.3220     1.7130 H     1 <1>   0.0800 
 28 H        3.0100     0.2240     0.8120 H     1 <1>   0.0800 
 29 H        1.4520    -0.3110     1.3970 H     1 <1>   0.0800 
 30 H       -2.0280     3.2550    -1.3510 H     1 <1>   0.0800 
 31 H       -1.9920     4.7620    -0.4770 H     1 <1>   0.0800 
 32 H       -3.3160     1.4030    -1.8130 H     1 <1>   0.0800 
 33 H       -4.9360     0.7760    -1.6130 H     1 <1>   0.0800 
 34 H       -3.8070     0.7340    -0.2710 H     1 <1>   0.0800 
 35 H       -6.9210     6.0300     0.5470 H     1 <1>   0.1500 
 36 H       -7.1560     1.3190    -0.9220 H     1 <1>   0.1500 
 37 H       -9.2140     2.5360    -0.3920 H     1 <1>   0.1500 
 38 H       -9.2140     5.9660     0.9460 H     1 <1>   0.3700 
 39 H      -11.5010     6.8710     0.2260 H     1 <1>   0.0800 
 40 H      -11.6420     5.9550     1.7180 H     1 <1>   0.0800 
 41 H      -12.6990     5.6080     0.3700 H     1 <1>   0.0800 
@<TRIPOS>BOND
  1   1   2  2   
  2   2   3  am  
  3   2   4  1   
  4   3   5  1   
  5   3  22  1   
  6   4   6  1   
  7   4  23  1   
  8   4  24  1   
  9   5   7  1   
 10   5  25  1   
 11   5  26  1   
 12   6  27  1   
 13   6  28  1   
 14   6  29  1   
 15   7   8  1   
 16   7  30  1   
 17   7  31  1   
 18   8   9  2   
 19   8  10  1   
 20   9  11  1   
 21  10  12  1   
 22  10  13  1   
 23  11  12  ar  
 24  11  14  ar  
 25  12  15  ar  
 26  13  32  1   
 27  13  33  1   
 28  13  34  1   
 29  14  16  ar  
 30  14  35  1   
 31  15  17  ar  
 32  15  36  1   
 33  16  17  ar  
 34  16  18  1   
 35  17  37  1   
 36  18  19  am  
 37  18  38  1   
 38  19  20  2   
 39  19  21  1   
 40  21  39  1   
 41  21  40  1   
 42  21  41  1   
@<TRIPOS>SUBSTRUCTURE
  1 ****  10 GROUP 4 **** **** 0

# MOE 2024.06 (io_trps.svl 2023.06)
