@<TRIPOS>MOLECULE
8-(4-Methoxy-phenyl)-1,6,7-trimethyl-3-(2-oxo-propyl)-1H,8H-imidazo[2,1-f]purine
51 54 1 0 0 
SMALL
USER_CHARGES


@<TRIPOS>ATOM
  1 O        0.5750     0.1380     0.1970 O.2   1 <1>  -0.5740 
  2 C        1.6000     0.7610     0.3820 C.2   1 <1>   0.6860 
  3 N        1.5370     2.0900     0.7750 N.am  1 <1>  -0.4260 
  4 N        2.8320     0.1470     0.1900 N.am  1 <1>  -0.4410 
  5 C        2.6850     2.8210     1.0350 C.2   1 <1>   0.6990 
  6 C        0.3070     2.8630     0.4130 C.3   1 <1>   0.1940 
  7 C        3.9690     0.9170     0.3370 C.2   1 <1>   0.4210 
  8 C        2.9090    -1.2760    -0.2530 C.3   1 <1>   0.0520 
  9 O        2.6020     3.9490     1.4930 O.2   1 <1>  -0.5740 
 10 C        3.9420     2.2090     0.7510 C.2   1 <1>   0.2710 
 11 C        0.4130     3.3840    -1.0200 C.2   1 <1>   0.4430 
 12 N        5.2620     0.5430     0.1030 N.pl3 1 <1>  -0.7040 
 13 N        5.2780     2.6400     0.7770 N.pl3 1 <1>  -0.6330 
 14 O        1.4200     3.2720    -1.6600 O.2   1 <1>  -0.5740 
 15 C       -0.8130     4.0530    -1.5990 C.3   1 <1>  -0.1860 
 16 C        6.0130     1.6150     0.3730 C.cat 1 <1>   1.0690 
 17 C        6.1470     3.6880     1.0010 C.2   1 <1>   0.2340 
 18 N        7.3160     1.9130     0.3300 N.pl3 1 <1>  -0.5550 
 19 C        7.3960     3.2410     0.7290 C.2   1 <1>   0.1580 
 20 C        5.6290     5.0360     1.4640 C.3   1 <1>  -0.1090 
 21 C        8.3520     1.0510    -0.0590 C.ar  1 <1>   0.3050 
 22 C        8.7370     3.9520     0.7980 C.3   1 <1>  -0.1090 
 23 C        8.6930     0.9270    -1.3980 C.ar  1 <1>  -0.1570 
 24 C        9.0340     0.3030     0.8910 C.ar  1 <1>  -0.1570 
 25 C        9.6960     0.0560    -1.7820 C.ar  1 <1>  -0.1570 
 26 C       10.0380    -0.5700     0.5090 C.ar  1 <1>  -0.1570 
 27 C       10.3720    -0.6980    -0.8360 C.ar  1 <1>   0.0750 
 28 O       11.3370    -1.5290    -1.3000 O.3   1 <1>  -0.3680 
 29 C       12.1260    -2.3020    -0.4220 C.3   1 <1>   0.0320 
 30 H        0.1850     3.6940     1.0850 H     1 <1>   0.0720 
 31 H       -0.5640     2.2400     0.5040 H     1 <1>   0.0720 
 32 H        2.0340    -1.8170     0.0670 H     1 <1>   0.0720 
 33 H        3.7710    -1.7570     0.1720 H     1 <1>   0.0720 
 34 H        2.9640    -1.3180    -1.3270 H     1 <1>   0.0720 
 35 H        5.6170    -0.3450    -0.2440 H     1 <1>   0.4450 
 36 H       -1.6350     3.3610    -1.6220 H     1 <1>   0.0720 
 37 H       -0.6090     4.3800    -2.6040 H     1 <1>   0.0720 
 38 H       -1.0820     4.9080    -1.0060 H     1 <1>   0.0720 
 39 H        4.9370     5.4300     0.7420 H     1 <1>   0.0720 
 40 H        6.4330     5.7370     1.5860 H     1 <1>   0.0720 
 41 H        5.1190     4.9300     2.4050 H     1 <1>   0.0720 
 42 H        9.3860     3.4510     1.4930 H     1 <1>   0.0720 
 43 H        8.6170     4.9710     1.1190 H     1 <1>   0.0720 
 44 H        9.2040     3.9540    -0.1710 H     1 <1>   0.0720 
 45 H        8.1820     1.5100    -2.1430 H     1 <1>   0.1430 
 46 H        8.7830     0.4010     1.9320 H     1 <1>   0.1430 
 47 H        9.9680    -0.0480    -2.8190 H     1 <1>   0.1430 
 48 H       10.5510    -1.1380     1.2640 H     1 <1>   0.1430 
 49 H       12.8310    -2.8600    -1.0110 H     1 <1>   0.0720 
 50 H       11.4890    -2.9770     0.1210 H     1 <1>   0.0720 
 51 H       12.6510    -1.6430     0.2480 H     1 <1>   0.0720 
@<TRIPOS>BOND
  1   1   2  2   
  2   2   3  am  
  3   2   4  am  
  4   3   5  am  
  5   3   6  1   
  6   4   7  1   
  7   4   8  1   
  8   5   9  2   
  9   5  10  1   
 10   6  11  1   
 11   6  30  1   
 12   6  31  1   
 13   7  10  2   
 14   7  12  1   
 15   8  32  1   
 16   8  33  1   
 17   8  34  1   
 18  10  13  1   
 19  11  14  2   
 20  11  15  1   
 21  12  16  ar  
 22  12  35  1   
 23  13  16  ar  
 24  13  17  1   
 25  15  36  1   
 26  15  37  1   
 27  15  38  1   
 28  16  18  ar  
 29  17  19  2   
 30  17  20  1   
 31  18  19  1   
 32  18  21  1   
 33  19  22  1   
 34  20  39  1   
 35  20  40  1   
 36  20  41  1   
 37  21  23  ar  
 38  21  24  ar  
 39  22  42  1   
 40  22  43  1   
 41  22  44  1   
 42  23  25  ar  
 43  23  45  1   
 44  24  26  ar  
 45  24  46  1   
 46  25  27  ar  
 47  25  47  1   
 48  26  27  ar  
 49  26  48  1   
 50  27  28  1   
 51  28  29  1   
 52  29  49  1   
 53  29  50  1   
 54  29  51  1   
@<TRIPOS>SUBSTRUCTURE
  1 ****  16 GROUP 4 **** **** 0

# MOE 2024.06 (io_trps.svl 2023.06)
