@<TRIPOS>MOLECULE
1-(2-Cyano-ethyl)-3-p-tolyl-1H-pyrazole-4-carboxylic acid isopropyl ester
41 42 1 0 0 
SMALL
USER_CHARGES


@<TRIPOS>ATOM
  1 O        0.8810    -0.0300     0.6450 O.2   1 <1>  -0.5700 
  2 C        1.3430    -1.1410     0.4980 C.2   1 <1>   0.8060 
  3 O        2.6710    -1.2950     0.4950 O.3   1 <1>  -0.4300 
  4 C        0.5600    -2.3370     0.3250 C.2   1 <1>  -0.0860 
  5 C        3.5670    -0.2170     0.6400 C.3   1 <1>   0.2000 
  6 C       -0.8390    -2.4610     0.2000 C.2   1 <1>   0.2350 
  7 C        1.0030    -3.6250     0.2650 C.2   1 <1>  -0.3020 
  8 C        3.7830     0.4240    -0.7310 C.3   1 <1>  -0.2400 
  9 C        4.8680    -0.7850     1.2000 C.3   1 <1>  -0.2400 
 10 N       -1.1930    -3.7170     0.0980 N.2   1 <1>  -0.7070 
 11 C       -1.8170    -1.3950     0.1720 C.ar  1 <1>   0.0540 
 12 N       -0.0600    -4.4220     0.1310 N.pl3 1 <1>   0.3140 
 13 C       -2.8930    -1.4020     1.0560 C.ar  1 <1>  -0.1500 
 14 C       -1.7440    -0.3460    -0.7420 C.ar  1 <1>  -0.1500 
 15 C       -0.0620    -5.8910     0.0190 C.3   1 <1>   0.0960 
 16 C       -3.8480    -0.4010     1.0390 C.ar  1 <1>  -0.1500 
 17 C       -2.6950     0.6580    -0.7640 C.ar  1 <1>  -0.1500 
 18 C       -0.8680    -6.3310    -1.2070 C.3   1 <1>   0.0400 
 19 C       -3.7550     0.6370     0.1270 C.ar  1 <1>  -0.1430 
 20 C       -0.7870    -7.8050    -1.3570 C.1   1 <1>   0.3570 
 21 C       -4.7970     1.7390     0.1070 C.3   1 <1>  -0.0970 
 22 N       -0.6970    -8.9340    -1.4500 N.1   1 <1>  -0.5570 
 23 H        3.1530     0.4950     1.3370 H     1 <1>   0.0800 
 24 H        2.0150    -3.9840     0.3170 H     1 <1>   0.1500 
 25 H        4.1610    -0.2990    -1.4310 H     1 <1>   0.0800 
 26 H        4.4930     1.2270    -0.6500 H     1 <1>   0.0800 
 27 H        2.8590     0.8330    -1.1000 H     1 <1>   0.0800 
 28 H        5.2810    -1.5150     0.5280 H     1 <1>   0.0800 
 29 H        4.6870    -1.2410     2.1570 H     1 <1>   0.0800 
 30 H        5.5850     0.0050     1.3330 H     1 <1>   0.0800 
 31 H       -2.9750    -2.2090     1.7610 H     1 <1>   0.1500 
 32 H       -0.9280    -0.3160    -1.4410 H     1 <1>   0.1500 
 33 H       -0.4980    -6.2960     0.9140 H     1 <1>   0.0800 
 34 H        0.9540    -6.2320    -0.0600 H     1 <1>   0.0800 
 35 H       -4.6640    -0.4350     1.7390 H     1 <1>   0.1500 
 36 H       -2.6050     1.4580    -1.4770 H     1 <1>   0.1500 
 37 H       -0.4750    -5.8700    -2.0950 H     1 <1>   0.0800 
 38 H       -1.9010    -6.0530    -1.0940 H     1 <1>   0.0800 
 39 H       -5.7480     1.3640     0.4410 H     1 <1>   0.0800 
 40 H       -4.9160     2.1250    -0.8890 H     1 <1>   0.0800 
 41 H       -4.4910     2.5390     0.7560 H     1 <1>   0.0800 
@<TRIPOS>BOND
  1   1   2  2   
  2   2   3  1   
  3   2   4  1   
  4   3   5  1   
  5   4   6  1   
  6   4   7  2   
  7   5   8  1   
  8   5   9  1   
  9   5  23  1   
 10   6  10  2   
 11   6  11  1   
 12   7  12  1   
 13   7  24  1   
 14   8  25  1   
 15   8  26  1   
 16   8  27  1   
 17   9  28  1   
 18   9  29  1   
 19   9  30  1   
 20  10  12  1   
 21  11  13  ar  
 22  11  14  ar  
 23  12  15  1   
 24  13  16  ar  
 25  13  31  1   
 26  14  17  ar  
 27  14  32  1   
 28  15  18  1   
 29  15  33  1   
 30  15  34  1   
 31  16  19  ar  
 32  16  35  1   
 33  17  19  ar  
 34  17  36  1   
 35  18  20  1   
 36  18  37  1   
 37  18  38  1   
 38  19  21  1   
 39  20  22  3   
 40  21  39  1   
 41  21  40  1   
 42  21  41  1   
@<TRIPOS>SUBSTRUCTURE
  1 ****   6 GROUP 4 **** **** 0

# MOE 2024.06 (io_trps.svl 2023.06)
