@<TRIPOS>MOLECULE
[8-(3-Chloro-phenyl)-1-methyl-2,4-dioxo-1,4,5,6,7,8-hexahydro-2H-1,3,4b,8,9-pent
50 53 1 0 0 
SMALL
USER_CHARGES


@<TRIPOS>ATOM
  1 CL      -2.8980    -2.1800     2.5070 Cl    1 <1>  -0.1840 
  2 C       -3.4420    -1.4690     1.0130 C.ar  1 <1>   0.1700 
  3 C       -4.2020    -0.3180     1.0590 C.ar  1 <1>  -0.1580 
  4 C       -3.1120    -2.0680    -0.1880 C.ar  1 <1>  -0.1580 
  5 C       -4.6570     0.2480    -0.1230 C.ar  1 <1>   0.3050 
  6 C       -3.5550    -1.5000    -1.3710 C.ar  1 <1>  -0.1580 
  7 N       -5.4620     1.3910    -0.0930 N.pl3 1 <1>  -0.5800 
  8 C       -4.3230    -0.3480    -1.3340 C.ar  1 <1>  -0.1580 
  9 C       -6.7320     1.3840     0.3600 C.cat 1 <1>   1.0690 
 10 C       -4.8310     2.6860    -0.4780 C.3   1 <1>   0.1600 
 11 N       -7.4250     0.3250     0.7750 N.pl3 1 <1>  -0.7040 
 12 N       -7.4770     2.4770     0.4550 N.pl3 1 <1>  -0.7670 
 13 C       -5.8920     3.6930    -0.9470 C.3   1 <1>  -0.1670 
 14 C       -8.6610     0.7580     1.1520 C.2   1 <1>   0.4200 
 15 C       -8.7260     2.0950     0.9650 C.2   1 <1>   0.2700 
 16 C       -7.0490     3.8300     0.0480 C.3   1 <1>   0.3480 
 17 N       -9.7090     0.0080     1.6510 N.am  1 <1>  -0.4420 
 18 C       -9.9360     2.7830     1.2920 C.2   1 <1>   0.6990 
 19 C      -10.9070     0.6580     1.9140 C.2   1 <1>   0.6860 
 20 C       -9.5880    -1.4690     1.8280 C.3   1 <1>   0.0520 
 21 O      -10.0250     3.9950     1.1910 O.2   1 <1>  -0.5750 
 22 N      -11.0100     2.0310     1.7380 N.am  1 <1>  -0.4260 
 23 O      -11.8700     0.0270     2.2970 O.2   1 <1>  -0.5750 
 24 C      -12.3820     2.6360     1.6400 C.3   1 <1>   0.1940 
 25 C      -12.9240     2.5610     0.2160 C.2   1 <1>   0.6550 
 26 O      -12.2390     2.1840    -0.7060 O.2   1 <1>  -0.5750 
 27 O      -14.1840     2.9400     0.0580 O.3   1 <1>  -0.4360 
 28 C      -14.8120     2.9160    -1.2030 C.3   1 <1>   0.1120 
 29 C      -16.2430     3.4150    -1.0280 C.3   1 <1>  -0.2470 
 30 H       -4.4260     0.1260     2.0110 H     1 <1>   0.1420 
 31 H       -2.5150    -2.9650    -0.1950 H     1 <1>   0.1420 
 32 H       -3.2980    -1.9560    -2.3140 H     1 <1>   0.1420 
 33 H       -4.6660     0.0870    -2.2570 H     1 <1>   0.1420 
 34 H       -4.1160     2.5240    -1.2680 H     1 <1>   0.0720 
 35 H       -4.3030     3.0820     0.3740 H     1 <1>   0.0720 
 36 H       -7.0790    -0.6310     0.7740 H     1 <1>   0.4440 
 37 H       -6.2810     3.3830    -1.9020 H     1 <1>   0.0720 
 38 H       -5.4340     4.6560    -1.0930 H     1 <1>   0.0720 
 39 H       -6.7310     4.3790     0.9190 H     1 <1>   0.0720 
 40 H       -7.8700     4.3580    -0.4090 H     1 <1>   0.0720 
 41 H       -9.7770    -1.9630     0.8910 H     1 <1>   0.0720 
 42 H      -10.3040    -1.8220     2.5520 H     1 <1>   0.0720 
 43 H       -8.6050    -1.7270     2.1810 H     1 <1>   0.0720 
 44 H      -12.3530     3.6670     1.9440 H     1 <1>   0.0720 
 45 H      -13.0630     2.1260     2.2970 H     1 <1>   0.0720 
 46 H      -14.7990     1.9040    -1.5720 H     1 <1>   0.0720 
 47 H      -14.2600     3.5540    -1.8730 H     1 <1>   0.0720 
 48 H      -16.7790     2.7750    -0.3510 H     1 <1>   0.0720 
 49 H      -16.7460     3.4060    -1.9780 H     1 <1>   0.0720 
 50 H      -16.2420     4.4210    -0.6500 H     1 <1>   0.0720 
@<TRIPOS>BOND
  1   1   2  1   
  2   2   3  ar  
  3   2   4  ar  
  4   3   5  ar  
  5   3  30  1   
  6   4   6  ar  
  7   4  31  1   
  8   5   7  1   
  9   5   8  ar  
 10   6   8  ar  
 11   6  32  1   
 12   7   9  ar  
 13   7  10  1   
 14   8  33  1   
 15   9  11  ar  
 16   9  12  ar  
 17  10  13  1   
 18  10  34  1   
 19  10  35  1   
 20  11  14  1   
 21  11  36  1   
 22  12  15  1   
 23  12  16  1   
 24  13  16  1   
 25  13  37  1   
 26  13  38  1   
 27  14  15  2   
 28  14  17  1   
 29  15  18  1   
 30  16  39  1   
 31  16  40  1   
 32  17  19  am  
 33  17  20  1   
 34  18  21  2   
 35  18  22  am  
 36  19  22  am  
 37  19  23  2   
 38  20  41  1   
 39  20  42  1   
 40  20  43  1   
 41  22  24  1   
 42  24  25  1   
 43  24  44  1   
 44  24  45  1   
 45  25  26  2   
 46  25  27  1   
 47  27  28  1   
 48  28  29  1   
 49  28  46  1   
 50  28  47  1   
 51  29  48  1   
 52  29  49  1   
 53  29  50  1   
@<TRIPOS>SUBSTRUCTURE
  1 ****  14 GROUP 4 **** **** 0

# MOE 2024.06 (io_trps.svl 2023.06)
