@<TRIPOS>MOLECULE
4-Allyl-5-(3-chloro-4-isopropoxy-benzyl)-4H-[1,2,4]triazole-3-thiol
39 40 1 0 0 
SMALL
USER_CHARGES


@<TRIPOS>ATOM
  1 CL       0.5980     0.2170     0.2520 Cl    1 <1>  -0.1770 
  2 C        0.4390    -1.5170     0.4260 C.ar  1 <1>   0.1770 
  3 C       -0.6430    -2.1840    -0.1350 C.ar  1 <1>   0.0820 
  4 C        1.4070    -2.2000     1.1380 C.ar  1 <1>  -0.1500 
  5 O       -1.5770    -1.4990    -0.8360 O.3   1 <1>  -0.3630 
  6 C       -0.7370    -3.5610     0.0170 C.ar  1 <1>  -0.1500 
  7 C        1.3090    -3.5760     1.2940 C.ar  1 <1>  -0.1430 
  8 C       -2.9150    -1.5140    -0.3890 C.3   1 <1>   0.2000 
  9 C        0.2310    -4.2480     0.7300 C.ar  1 <1>  -0.1500 
 10 C        2.3750    -4.3420     2.0730 C.3   1 <1>   0.1520 
 11 C       -3.7840    -1.0430    -1.5510 C.3   1 <1>  -0.2400 
 12 C       -3.0410    -0.5800     0.8160 C.3   1 <1>  -0.2400 
 13 C        3.7890    -4.0910     1.5610 C.2   1 <1>   0.4850 
 14 N        4.7510    -3.6720     2.3060 N.2   1 <1>  -0.2600 
 15 N        4.1850    -4.2900     0.2580 N.pl3 1 <1>  -0.7640 
 16 N        5.8120    -3.5910     1.4500 N.pl3 1 <1>  -0.3930 
 17 C        5.4580    -3.9550     0.2380 C.cat 1 <1>   0.7360 
 18 C        3.4140    -4.6940    -0.9300 C.3   1 <1>   0.4920 
 19 S        6.4480    -3.9480    -1.0460 S.3   1 <1>  -0.9360 
 20 C        2.8670    -6.1110    -0.7760 C.2   1 <1>  -0.2880 
 21 C        3.2800    -7.0690     0.0640 C.2   1 <1>  -0.3000 
 22 H        2.2270    -1.6450     1.5590 H     1 <1>   0.1500 
 23 H       -1.5600    -4.0930    -0.4260 H     1 <1>   0.1500 
 24 H       -3.1850    -2.5200    -0.1180 H     1 <1>   0.0800 
 25 H        0.1380    -5.3160     0.8380 H     1 <1>   0.1500 
 26 H        2.1810    -5.3970     2.0300 H     1 <1>   0.0800 
 27 H        2.3220    -4.0500     3.1060 H     1 <1>   0.0800 
 28 H       -3.5070    -0.0460    -1.8450 H     1 <1>   0.0800 
 29 H       -4.8190    -1.0410    -1.2610 H     1 <1>   0.0800 
 30 H       -3.6670    -1.7050    -2.3890 H     1 <1>   0.0800 
 31 H       -2.7160     0.4110     0.5550 H     1 <1>   0.0800 
 32 H       -2.4480    -0.9440     1.6360 H     1 <1>   0.0800 
 33 H       -4.0650    -0.5330     1.1380 H     1 <1>   0.0800 
 34 H        6.7650    -3.2870     1.6480 H     1 <1>   0.4500 
 35 H        4.0240    -4.6460    -1.8170 H     1 <1>   0.0800 
 36 H        2.6000    -4.0030    -1.0620 H     1 <1>   0.0800 
 37 H        2.0670    -6.2860    -1.4740 H     1 <1>   0.1500 
 38 H        2.8500    -8.0550     0.1100 H     1 <1>   0.1500 
 39 H        4.0930    -6.9580     0.7630 H     1 <1>   0.1500 
@<TRIPOS>BOND
  1   1   2  1   
  2   2   3  ar  
  3   2   4  ar  
  4   3   5  1   
  5   3   6  ar  
  6   4   7  ar  
  7   4  22  1   
  8   5   8  1   
  9   6   9  ar  
 10   6  23  1   
 11   7   9  ar  
 12   7  10  1   
 13   8  11  1   
 14   8  12  1   
 15   8  24  1   
 16   9  25  1   
 17  10  13  1   
 18  10  26  1   
 19  10  27  1   
 20  11  28  1   
 21  11  29  1   
 22  11  30  1   
 23  12  31  1   
 24  12  32  1   
 25  12  33  1   
 26  13  14  2   
 27  13  15  1   
 28  14  16  1   
 29  15  17  ar  
 30  15  18  1   
 31  16  17  ar  
 32  16  34  1   
 33  17  19  1   
 34  18  20  1   
 35  18  35  1   
 36  18  36  1   
 37  20  21  2   
 38  20  37  1   
 39  21  38  1   
 40  21  39  1   
@<TRIPOS>SUBSTRUCTURE
  1 ****   7 GROUP 4 **** **** 0

# MOE 2024.06 (io_trps.svl 2023.06)
