@<TRIPOS>MOLECULE
1-(2,5-Dimethoxy-benzenesulfonyl)-piperidine-4-carboxylic acid cyclopropylamide
49 51 1 0 0 
SMALL
USER_CHARGES


@<TRIPOS>ATOM
  1 S       -0.1830    -0.2000    -1.5380 S.o2  1 <1>   1.4470 
  2 O        0.0670    -1.4040    -2.3030 O.2   1 <1>  -0.6500 
  3 O       -0.5840     0.9820    -2.2720 O.2   1 <1>  -0.6500 
  4 N        1.2800     0.1810    -0.7640 N.am  1 <1>  -0.8490 
  5 C       -1.3230    -0.6280    -0.1930 C.ar  1 <1>  -0.0090 
  6 C        1.1900     1.4350    -0.0080 C.3   1 <1>   0.1960 
  7 C        2.3810     0.2080    -1.7310 C.3   1 <1>   0.1960 
  8 C       -2.1160     0.3200     0.4510 C.ar  1 <1>   0.0830 
  9 C       -1.4130    -1.9460     0.2420 C.ar  1 <1>  -0.1500 
 10 C        2.4920     1.7030     0.7510 C.3   1 <1>  -0.1600 
 11 C        3.7190     0.4400    -1.0240 C.3   1 <1>  -0.1600 
 12 O       -2.0500     1.6230     0.1060 O.3   1 <1>  -0.3620 
 13 C       -2.9700    -0.0370     1.4840 C.ar  1 <1>  -0.1500 
 14 C       -2.2700    -2.3170     1.2730 C.ar  1 <1>   0.0830 
 15 C        3.6970     1.7370    -0.2010 C.3   1 <1>  -0.0190 
 16 C       -3.1120     2.1170    -0.6790 C.3   1 <1>   0.0400 
 17 C       -3.0490    -1.3540     1.8900 C.ar  1 <1>  -0.1500 
 18 O       -2.4000    -3.5900     1.7280 O.3   1 <1>  -0.3630 
 19 C        5.0080     1.9560     0.5530 C.2   1 <1>   0.5690 
 20 C       -1.6480    -4.6450     1.1690 C.3   1 <1>   0.0400 
 21 O        5.3870     1.1200     1.3380 O.2   1 <1>  -0.5700 
 22 N        5.7080     3.0970     0.3130 N.am  1 <1>  -0.5790 
 23 C        6.9800     3.4660     0.9490 C.3   1 <1>   0.0490 
 24 C        7.2270     4.9080     1.2400 C.3   1 <1>  -0.2000 
 25 C        7.9770     4.2230     0.1380 C.3   1 <1>  -0.2000 
 26 H        0.3930     1.3700     0.7110 H     1 <1>   0.0800 
 27 H        0.9760     2.2550    -0.6750 H     1 <1>   0.0800 
 28 H        2.2070     0.9830    -2.4610 H     1 <1>   0.0800 
 29 H        2.4310    -0.7350    -2.2520 H     1 <1>   0.0800 
 30 H       -0.7960    -2.6790    -0.2440 H     1 <1>   0.1500 
 31 H        2.6300     0.9280     1.4870 H     1 <1>   0.0800 
 32 H        2.4140     2.6390     1.2740 H     1 <1>   0.0800 
 33 H        4.5060     0.4840    -1.7550 H     1 <1>   0.0800 
 34 H        3.9180    -0.3990    -0.3790 H     1 <1>   0.0800 
 35 H       -3.5640     0.7160     1.9700 H     1 <1>   0.1500 
 36 H        3.5580     2.5580    -0.8820 H     1 <1>   0.0800 
 37 H       -2.9050     3.1450    -0.9160 H     1 <1>   0.0800 
 38 H       -4.0290     2.0440    -0.1220 H     1 <1>   0.0800 
 39 H       -3.1750     1.5410    -1.5860 H     1 <1>   0.0800 
 40 H       -3.7090    -1.6440     2.6890 H     1 <1>   0.1500 
 41 H       -1.9150    -5.5520     1.6810 H     1 <1>   0.0800 
 42 H       -0.6010    -4.4420     1.3080 H     1 <1>   0.0800 
 43 H       -1.8890    -4.7320     0.1240 H     1 <1>   0.0800 
 44 H        5.3540     3.7790    -0.3550 H     1 <1>   0.3700 
 45 H        7.3370     2.7270     1.6520 H     1 <1>   0.1000 
 46 H        7.7630     5.1670     2.1360 H     1 <1>   0.1000 
 47 H        6.4680     5.6280     0.9900 H     1 <1>   0.1000 
 48 H        7.7440     4.4630    -0.8840 H     1 <1>   0.1000 
 49 H        9.0230     4.0170     0.2860 H     1 <1>   0.1000 
@<TRIPOS>BOND
  1   1   2  2   
  2   1   3  2   
  3   1   4  am  
  4   1   5  1   
  5   4   6  1   
  6   4   7  1   
  7   5   8  ar  
  8   5   9  ar  
  9   6  10  1   
 10   6  26  1   
 11   6  27  1   
 12   7  11  1   
 13   7  28  1   
 14   7  29  1   
 15   8  12  1   
 16   8  13  ar  
 17   9  14  ar  
 18   9  30  1   
 19  10  15  1   
 20  10  31  1   
 21  10  32  1   
 22  11  15  1   
 23  11  33  1   
 24  11  34  1   
 25  12  16  1   
 26  13  17  ar  
 27  13  35  1   
 28  14  17  ar  
 29  14  18  1   
 30  15  19  1   
 31  15  36  1   
 32  16  37  1   
 33  16  38  1   
 34  16  39  1   
 35  17  40  1   
 36  18  20  1   
 37  19  21  2   
 38  19  22  am  
 39  20  41  1   
 40  20  42  1   
 41  20  43  1   
 42  22  23  1   
 43  22  44  1   
 44  23  24  1   
 45  23  25  1   
 46  23  45  1   
 47  24  25  1   
 48  24  46  1   
 49  24  47  1   
 50  25  48  1   
 51  25  49  1   
@<TRIPOS>SUBSTRUCTURE
  1 ****   6 GROUP 4 **** **** 0

# MOE 2024.06 (io_trps.svl 2023.06)
