@<TRIPOS>MOLECULE
4-(4-Methoxy-phenyl)-tetrahydro-pyran-4-carboxylic acid (4-methoxy-phenyl)-amide
48 50 1 0 0 
SMALL
USER_CHARGES


@<TRIPOS>ATOM
  1 O        0.0580     2.7670     1.9530 O.2   1 <1>  -0.5700 
  2 C       -0.2960     2.5140     0.8240 C.2   1 <1>   0.5690 
  3 N        0.3870     1.6240     0.0330 N.am  1 <1>  -0.5470 
  4 C       -1.5910     3.1300     0.2300 C.3   1 <1>   0.2040 
  5 C        1.6120     0.9700     0.2350 C.ar  1 <1>   0.1170 
  6 C       -2.5260     1.9570    -0.1440 C.ar  1 <1>  -0.1440 
  7 C       -2.3440     4.0510     1.2280 C.3   1 <1>  -0.1600 
  8 C       -1.2230     4.0120    -0.9880 C.3   1 <1>  -0.1600 
  9 C        2.6190     1.4930     1.0400 C.ar  1 <1>  -0.1500 
 10 C        1.8410    -0.2380    -0.4110 C.ar  1 <1>  -0.1500 
 11 C       -3.0490     1.7560    -1.4190 C.ar  1 <1>  -0.1500 
 12 C       -2.8580     1.0410     0.8490 C.ar  1 <1>  -0.1500 
 13 C       -1.8620     5.5120     1.2080 C.3   1 <1>   0.1200 
 14 C       -0.3440     5.2080    -0.5870 C.3   1 <1>   0.1200 
 15 C        3.8210     0.8280     1.2010 C.ar  1 <1>  -0.1500 
 16 C        3.0420    -0.9070    -0.2550 C.ar  1 <1>  -0.1500 
 17 C       -3.8680     0.6740    -1.6860 C.ar  1 <1>  -0.1500 
 18 C       -3.6770    -0.0420     0.5860 C.ar  1 <1>  -0.1500 
 19 O       -0.5520     5.5760     0.7430 O.3   1 <1>  -0.5600 
 20 C        4.0400    -0.3830     0.5500 C.ar  1 <1>   0.0820 
 21 C       -4.1880    -0.2330    -0.6920 C.ar  1 <1>   0.0820 
 22 O        5.1880    -1.1030     0.6500 O.3   1 <1>  -0.3620 
 23 O       -4.9940    -1.2660    -1.0400 O.3   1 <1>  -0.3620 
 24 C        6.2460    -0.6660     1.4740 C.3   1 <1>   0.0400 
 25 C       -5.4010    -2.2290    -0.0940 C.3   1 <1>   0.0400 
 26 H       -0.1420     1.3010    -0.7760 H     1 <1>   0.3700 
 27 H       -2.2600     3.6650     2.2280 H     1 <1>   0.0800 
 28 H       -3.3930     4.0560     0.9920 H     1 <1>   0.0800 
 29 H       -2.1220     4.4050    -1.4290 H     1 <1>   0.0800 
 30 H       -0.7140     3.4430    -1.7450 H     1 <1>   0.0800 
 31 H        2.4630     2.4300     1.5460 H     1 <1>   0.1500 
 32 H        1.0780    -0.6640    -1.0360 H     1 <1>   0.1500 
 33 H       -2.8400     2.4260    -2.2330 H     1 <1>   0.1500 
 34 H       -2.4730     1.1640     1.8490 H     1 <1>   0.1500 
 35 H       -1.8820     5.9300     2.2000 H     1 <1>   0.0800 
 36 H       -2.4760     6.1160     0.5620 H     1 <1>   0.0800 
 37 H       -0.5470     6.0610    -1.2100 H     1 <1>   0.0800 
 38 H        0.6980     4.9530    -0.6770 H     1 <1>   0.0800 
 39 H        4.5680     1.2670     1.8340 H     1 <1>   0.1500 
 40 H        3.2150    -1.8430    -0.7550 H     1 <1>   0.1500 
 41 H       -4.2690     0.5240    -2.6720 H     1 <1>   0.1500 
 42 H       -3.9030    -0.7230     1.3850 H     1 <1>   0.1500 
 43 H        7.0390    -1.3890     1.4100 H     1 <1>   0.0800 
 44 H        5.8940    -0.5980     2.4880 H     1 <1>   0.0800 
 45 H        6.5930     0.2890     1.1200 H     1 <1>   0.0800 
 46 H       -6.0380    -2.9380    -0.5910 H     1 <1>   0.0800 
 47 H       -5.9460    -1.7370     0.6920 H     1 <1>   0.0800 
 48 H       -4.5310    -2.7280     0.2930 H     1 <1>   0.0800 
@<TRIPOS>BOND
  1   1   2  2   
  2   2   3  am  
  3   2   4  1   
  4   3   5  1   
  5   3  26  1   
  6   4   6  1   
  7   4   7  1   
  8   4   8  1   
  9   5   9  ar  
 10   5  10  ar  
 11   6  11  ar  
 12   6  12  ar  
 13   7  13  1   
 14   7  27  1   
 15   7  28  1   
 16   8  14  1   
 17   8  29  1   
 18   8  30  1   
 19   9  15  ar  
 20   9  31  1   
 21  10  16  ar  
 22  10  32  1   
 23  11  17  ar  
 24  11  33  1   
 25  12  18  ar  
 26  12  34  1   
 27  13  19  1   
 28  13  35  1   
 29  13  36  1   
 30  14  19  1   
 31  14  37  1   
 32  14  38  1   
 33  15  20  ar  
 34  15  39  1   
 35  16  20  ar  
 36  16  40  1   
 37  17  21  ar  
 38  17  41  1   
 39  18  21  ar  
 40  18  42  1   
 41  20  22  1   
 42  21  23  1   
 43  22  24  1   
 44  23  25  1   
 45  24  43  1   
 46  24  44  1   
 47  24  45  1   
 48  25  46  1   
 49  25  47  1   
 50  25  48  1   
@<TRIPOS>SUBSTRUCTURE
  1 ****   3 GROUP 4 **** **** 0

# MOE 2024.06 (io_trps.svl 2023.06)
