@<TRIPOS>MOLECULE
8-(3-Chloro-4-methoxy-phenyl)-3-(2-methoxy-ethyl)-1,6,7-trimethyl-1H,8H-imidazo[
53 56 1 0 0 
SMALL
USER_CHARGES


@<TRIPOS>ATOM
  1 CL      -2.5660    -2.0170    -3.2420 Cl    1 <1>  -0.1840 
  2 C       -3.0160    -1.5270    -1.6240 C.ar  1 <1>   0.1700 
  3 C       -2.3160    -2.0030    -0.5200 C.ar  1 <1>   0.0750 
  4 C       -4.0830    -0.6620    -1.4880 C.ar  1 <1>  -0.1570 
  5 O       -1.2790    -2.8550    -0.7330 O.3   1 <1>  -0.3680 
  6 C       -2.7120    -1.5840     0.7480 C.ar  1 <1>  -0.1570 
  7 C       -4.4770    -0.2550    -0.2240 C.ar  1 <1>   0.3050 
  8 C       -0.4800    -3.3350     0.3270 C.3   1 <1>   0.0320 
  9 C       -3.7840    -0.7170     0.8880 C.ar  1 <1>  -0.1570 
 10 N       -5.5720     0.6090    -0.0690 N.pl3 1 <1>  -0.5550 
 11 C       -6.8620     0.2630     0.0280 C.cat 1 <1>   1.0690 
 12 C       -5.5660     1.9970     0.0060 C.2   1 <1>   0.1580 
 13 N       -7.5570    -0.8790     0.0250 N.pl3 1 <1>  -0.7030 
 14 N       -7.6540     1.3160     0.1600 N.pl3 1 <1>  -0.6330 
 15 C       -6.8410     2.4310     0.1470 C.2   1 <1>   0.2350 
 16 C       -4.2630     2.7760    -0.0730 C.3   1 <1>  -0.1090 
 17 C       -8.8690    -0.5280     0.1630 C.2   1 <1>   0.4210 
 18 C       -8.9670     0.8220     0.2520 C.2   1 <1>   0.2710 
 19 C       -7.4300     3.8220     0.2770 C.3   1 <1>  -0.1090 
 20 N       -9.9640    -1.3680     0.2080 N.am  1 <1>  -0.4410 
 21 C      -10.2530     1.4210     0.4080 C.2   1 <1>   0.7000 
 22 C      -11.2210    -0.8000     0.3870 C.2   1 <1>   0.6870 
 23 C       -9.8090    -2.8490     0.0880 C.3   1 <1>   0.0530 
 24 O      -10.3870     2.6310     0.4460 O.2   1 <1>  -0.5740 
 25 N      -11.3530     0.5790     0.5060 N.am  1 <1>  -0.4250 
 26 O      -12.2020    -1.5120     0.4320 O.2   1 <1>  -0.5740 
 27 C      -12.7110     1.1650     0.7520 C.3   1 <1>   0.1330 
 28 C      -13.4460     1.3990    -0.5680 C.3   1 <1>   0.1130 
 29 O      -14.6660     1.9980    -0.2780 O.3   1 <1>  -0.5640 
 30 C      -15.4530     2.2420    -1.3980 C.3   1 <1>   0.0320 
 31 H       -4.5920    -0.3110    -2.3660 H     1 <1>   0.1430 
 32 H       -2.1970    -1.9220     1.6300 H     1 <1>   0.1430 
 33 H        0.2830    -3.9660    -0.0920 H     1 <1>   0.0730 
 34 H       -1.0950    -3.9050     1.0000 H     1 <1>   0.0730 
 35 H       -0.0250    -2.4990     0.8290 H     1 <1>   0.0730 
 36 H       -4.0780    -0.3950     1.8720 H     1 <1>   0.1430 
 37 H       -7.1560    -1.8110    -0.0620 H     1 <1>   0.4450 
 38 H       -3.6100     2.4880     0.7320 H     1 <1>   0.0730 
 39 H       -4.4420     3.8340    -0.0020 H     1 <1>   0.0730 
 40 H       -3.7690     2.5780    -1.0070 H     1 <1>   0.0730 
 41 H       -8.1170     4.0080    -0.5300 H     1 <1>   0.0730 
 42 H       -6.6620     4.5710     0.2500 H     1 <1>   0.0730 
 43 H       -7.9630     3.9110     1.2060 H     1 <1>   0.0730 
 44 H       -9.0420    -3.0910    -0.6250 H     1 <1>   0.0730 
 45 H      -10.7270    -3.3010    -0.2480 H     1 <1>   0.0730 
 46 H       -9.5540    -3.2660     1.0470 H     1 <1>   0.0730 
 47 H      -12.6210     2.1010     1.2760 H     1 <1>   0.0730 
 48 H      -13.2910     0.4970     1.3650 H     1 <1>   0.0730 
 49 H      -13.6340     0.4620    -1.0650 H     1 <1>   0.0730 
 50 H      -12.8850     2.0630    -1.2020 H     1 <1>   0.0730 
 51 H      -16.3680     2.7020    -1.0690 H     1 <1>   0.0730 
 52 H      -15.6710     1.3100    -1.8890 H     1 <1>   0.0730 
 53 H      -14.9300     2.9090    -2.0620 H     1 <1>   0.0730 
@<TRIPOS>BOND
  1   1   2  1   
  2   2   3  ar  
  3   2   4  ar  
  4   3   5  1   
  5   3   6  ar  
  6   4   7  ar  
  7   4  31  1   
  8   5   8  1   
  9   6   9  ar  
 10   6  32  1   
 11   7   9  ar  
 12   7  10  1   
 13   8  33  1   
 14   8  34  1   
 15   8  35  1   
 16   9  36  1   
 17  10  11  ar  
 18  10  12  1   
 19  11  13  ar  
 20  11  14  ar  
 21  12  15  2   
 22  12  16  1   
 23  13  17  1   
 24  13  37  1   
 25  14  15  1   
 26  14  18  1   
 27  15  19  1   
 28  16  38  1   
 29  16  39  1   
 30  16  40  1   
 31  17  18  2   
 32  17  20  1   
 33  18  21  1   
 34  19  41  1   
 35  19  42  1   
 36  19  43  1   
 37  20  22  am  
 38  20  23  1   
 39  21  24  2   
 40  21  25  am  
 41  22  25  am  
 42  22  26  2   
 43  23  44  1   
 44  23  45  1   
 45  23  46  1   
 46  25  27  1   
 47  27  28  1   
 48  27  47  1   
 49  27  48  1   
 50  28  29  1   
 51  28  49  1   
 52  28  50  1   
 53  29  30  1   
 54  30  51  1   
 55  30  52  1   
 56  30  53  1   
@<TRIPOS>SUBSTRUCTURE
  1 ****  11 GROUP 4 **** **** 0

# MOE 2024.06 (io_trps.svl 2023.06)
