@<TRIPOS>MOLECULE
3-(5-Benzylsulfanyl-4-methyl-4H-[1,2,4]triazol-3-yl)-1-furan-2-ylmethyl-piperidi
51 54 1 0 0 
SMALL
USER_CHARGES


@<TRIPOS>ATOM
  1 S       -0.1380    -1.4430     0.3880 S.3   1 <1>  -0.2860 
  2 C       -1.8210    -1.9810     0.6980 C.2   1 <1>   0.2420 
  3 C        0.3180    -2.3590    -1.1490 C.3   1 <1>   0.2140 
  4 N       -2.4590    -2.8190    -0.0400 N.2   1 <1>  -0.3380 
  5 N       -2.5290    -1.5330     1.7340 N.pl3 1 <1>   0.0480 
  6 C        1.7170    -1.9320    -1.5600 C.ar  1 <1>  -0.1440 
  7 N       -3.6610    -2.9500     0.5180 N.2   1 <1>  -0.3380 
  8 C       -3.6900    -2.1890     1.5660 C.2   1 <1>   0.0070 
  9 C       -2.0930    -0.5600     2.7600 C.3   1 <1>   0.0160 
 10 C        2.8250    -2.6310    -1.1070 C.ar  1 <1>  -0.1500 
 11 C        1.8960    -0.8380    -2.3930 C.ar  1 <1>  -0.1500 
 12 C       -4.9140    -2.0570     2.4710 C.3   1 <1>   0.1000 
 13 C        4.0990    -2.2430    -1.4870 C.ar  1 <1>  -0.1500 
 14 C        3.1690    -0.4490    -2.7730 C.ar  1 <1>  -0.1500 
 15 C       -5.7860    -3.3240     2.3330 C.3   1 <1>   0.3430 
 16 C       -5.7020    -0.7750     2.1000 C.3   1 <1>  -0.1600 
 17 C        4.2720    -1.1530    -2.3210 C.ar  1 <1>  -0.1500 
 18 N       -6.5260    -3.2640     1.0390 N.4   1 <1>  -0.9590 
 19 C       -7.2150    -1.0290     1.9640 C.3   1 <1>  -0.1600 
 20 C       -7.5480    -2.1710     0.9870 C.3   1 <1>   0.3430 
 21 C       -7.0520    -4.5860     0.5990 C.3   1 <1>   0.5230 
 22 C       -7.5240    -4.5040    -0.8420 C.2   1 <1>  -0.0400 
 23 O       -8.6650    -3.8970    -1.1130 O.3   1 <1>  -0.2800 
 24 C       -6.9560    -4.9690    -1.9760 C.2   1 <1>  -0.1500 
 25 C       -8.8520    -3.9630    -2.4170 C.2   1 <1>  -0.0100 
 26 C       -7.8290    -4.6130    -3.0110 C.2   1 <1>  -0.1500 
 27 H       -0.4110    -2.1110    -1.8990 H     1 <1>   0.0800 
 28 H        0.2690    -3.4090    -0.9230 H     1 <1>   0.0800 
 29 H       -1.6500     0.2920     2.2760 H     1 <1>   0.0800 
 30 H       -1.3610    -1.0220     3.3980 H     1 <1>   0.0800 
 31 H       -2.9300    -0.2350     3.3480 H     1 <1>   0.0800 
 32 H        2.7020    -3.4780    -0.4550 H     1 <1>   0.1500 
 33 H        1.0450    -0.2820    -2.7470 H     1 <1>   0.1500 
 34 H       -4.5860    -2.0020     3.4940 H     1 <1>   0.0800 
 35 H        4.9550    -2.7900    -1.1320 H     1 <1>   0.1500 
 36 H        3.3010     0.4000    -3.4200 H     1 <1>   0.1500 
 37 H       -6.4850    -3.3810     3.1510 H     1 <1>   0.0800 
 38 H       -5.1480    -4.1930     2.3600 H     1 <1>   0.0800 
 39 H       -5.3440    -0.3900     1.1590 H     1 <1>   0.0800 
 40 H       -5.5260    -0.0130     2.8410 H     1 <1>   0.0800 
 41 H        5.2610    -0.8510    -2.6150 H     1 <1>   0.1500 
 42 H       -5.7970    -3.0240     0.3410 H     1 <1>   0.4500 
 43 H       -7.7060    -0.1310     1.6280 H     1 <1>   0.0800 
 44 H       -7.6300    -1.2650     2.9290 H     1 <1>   0.0800 
 45 H       -8.5240    -2.5640     1.2240 H     1 <1>   0.0800 
 46 H       -7.5920    -1.7840    -0.0190 H     1 <1>   0.0800 
 47 H       -7.8700    -4.8960     1.2290 H     1 <1>   0.0800 
 48 H       -6.2690    -5.3230     0.6630 H     1 <1>   0.0800 
 49 H       -6.0310    -5.5060    -2.1120 H     1 <1>   0.1500 
 50 H       -9.7380    -3.5230    -2.8430 H     1 <1>   0.1500 
 51 H       -7.6860    -4.8300    -4.0560 H     1 <1>   0.1500 
@<TRIPOS>BOND
  1   1   2  1   
  2   1   3  1   
  3   2   4  2   
  4   2   5  1   
  5   3   6  1   
  6   3  27  1   
  7   3  28  1   
  8   4   7  1   
  9   5   8  1   
 10   5   9  1   
 11   6  10  ar  
 12   6  11  ar  
 13   7   8  2   
 14   8  12  1   
 15   9  29  1   
 16   9  30  1   
 17   9  31  1   
 18  10  13  ar  
 19  10  32  1   
 20  11  14  ar  
 21  11  33  1   
 22  12  15  1   
 23  12  16  1   
 24  12  34  1   
 25  13  17  ar  
 26  13  35  1   
 27  14  17  ar  
 28  14  36  1   
 29  15  18  1   
 30  15  37  1   
 31  15  38  1   
 32  16  19  1   
 33  16  39  1   
 34  16  40  1   
 35  17  41  1   
 36  18  20  1   
 37  18  21  1   
 38  18  42  1   
 39  19  20  1   
 40  19  43  1   
 41  19  44  1   
 42  20  45  1   
 43  20  46  1   
 44  21  22  1   
 45  21  47  1   
 46  21  48  1   
 47  22  23  1   
 48  22  24  2   
 49  23  25  1   
 50  24  26  1   
 51  24  49  1   
 52  25  26  2   
 53  25  50  1   
 54  26  51  1   
@<TRIPOS>SUBSTRUCTURE
  1 ****   4 GROUP 4 **** **** 0

# MOE 2024.06 (io_trps.svl 2023.06)
