@<TRIPOS>MOLECULE
1-[3-(4-Methyl-benzoyl)-imidazolidin-1-yl]-2-morpholin-4-yl-ethanone
46 48 1 0 0 
SMALL
USER_CHARGES


@<TRIPOS>ATOM
  1 O        1.0620    -0.4030    -0.2870 O.2   1 <1>  -0.5700 
  2 C        1.9620    -1.1140     0.1170 C.2   1 <1>   0.5440 
  3 N        3.0170    -0.5370     0.7820 N.am  1 <1>  -0.6600 
  4 C        1.9350    -2.5410    -0.1460 C.ar  1 <1>   0.0860 
  5 C        4.2700    -1.2620     1.0370 C.3   1 <1>   0.4400 
  6 C        3.2690     0.9210     0.7820 C.3   1 <1>   0.1400 
  7 C        1.8460    -3.0200    -1.4510 C.ar  1 <1>  -0.1500 
  8 C        2.0390    -3.4810     0.8800 C.ar  1 <1>  -0.1500 
  9 N        5.3320    -0.2740     0.8180 N.am  1 <1>  -0.6600 
 10 C        4.7650     1.0590     0.5280 C.3   1 <1>   0.1400 
 11 C        1.9000    -4.3740    -1.7260 C.ar  1 <1>  -0.1500 
 12 C        2.0960    -4.8360     0.6100 C.ar  1 <1>  -0.1500 
 13 C        6.6640    -0.5690     0.7140 C.2   1 <1>   0.5690 
 14 C        2.0360    -5.2900    -0.6970 C.ar  1 <1>  -0.1430 
 15 O        7.4560     0.2780     0.3700 O.2   1 <1>  -0.5700 
 16 C        7.2230    -1.9660     1.0570 C.3   1 <1>   0.1710 
 17 C        2.1230    -6.7750    -0.9990 C.3   1 <1>  -0.0970 
 18 N        6.4860    -3.1340     0.4960 N.3   1 <1>  -0.8100 
 19 C        6.9960    -4.4150     1.0160 C.3   1 <1>   0.1100 
 20 C        6.5270    -3.1550    -0.9810 C.3   1 <1>   0.1100 
 21 C        6.2100    -5.5950     0.4130 C.3   1 <1>   0.1200 
 22 C        5.7560    -4.3710    -1.5280 C.3   1 <1>   0.1200 
 23 O        6.2620    -5.5580    -0.9850 O.3   1 <1>  -0.5600 
 24 H        4.3670    -2.0800     0.3460 H     1 <1>   0.0800 
 25 H        4.2980    -1.6240     2.0500 H     1 <1>   0.0800 
 26 H        3.0130     1.3290     1.7430 H     1 <1>   0.0800 
 27 H        2.7000     1.4260     0.0190 H     1 <1>   0.0800 
 28 H        1.7380    -2.3130    -2.2550 H     1 <1>   0.1500 
 29 H        2.0800    -3.1390     1.8990 H     1 <1>   0.1500 
 30 H        5.2050     1.8100     1.1620 H     1 <1>   0.0800 
 31 H        4.9480     1.3110    -0.5020 H     1 <1>   0.0800 
 32 H        1.8380    -4.7130    -2.7460 H     1 <1>   0.1500 
 33 H        2.1880    -5.5380     1.4200 H     1 <1>   0.1500 
 34 H        7.2310    -2.0440     2.1280 H     1 <1>   0.0800 
 35 H        8.2460    -2.0040     0.7250 H     1 <1>   0.0800 
 36 H        1.5550    -7.0140    -1.8810 H     1 <1>   0.0800 
 37 H        1.7340    -7.3520    -0.1800 H     1 <1>   0.0800 
 38 H        3.1500    -7.0510    -1.1630 H     1 <1>   0.0800 
 39 H        6.8940    -4.4360     2.0870 H     1 <1>   0.0800 
 40 H        8.0390    -4.5270     0.7720 H     1 <1>   0.0800 
 41 H        7.5470    -3.2010    -1.3240 H     1 <1>   0.0800 
 42 H        6.0820    -2.2560    -1.3720 H     1 <1>   0.0800 
 43 H        5.1790    -5.5580     0.7190 H     1 <1>   0.0800 
 44 H        6.6360    -6.5300     0.7320 H     1 <1>   0.0800 
 45 H        5.8570    -4.4280    -2.5970 H     1 <1>   0.0800 
 46 H        4.7120    -4.2960    -1.2800 H     1 <1>   0.0800 
@<TRIPOS>BOND
  1   1   2  2   
  2   2   3  am  
  3   2   4  1   
  4   3   5  1   
  5   3   6  1   
  6   4   7  ar  
  7   4   8  ar  
  8   5   9  1   
  9   5  24  1   
 10   5  25  1   
 11   6  10  1   
 12   6  26  1   
 13   6  27  1   
 14   7  11  ar  
 15   7  28  1   
 16   8  12  ar  
 17   8  29  1   
 18   9  10  1   
 19   9  13  am  
 20  10  30  1   
 21  10  31  1   
 22  11  14  ar  
 23  11  32  1   
 24  12  14  ar  
 25  12  33  1   
 26  13  15  2   
 27  13  16  1   
 28  14  17  1   
 29  16  18  1   
 30  16  34  1   
 31  16  35  1   
 32  17  36  1   
 33  17  37  1   
 34  17  38  1   
 35  18  19  1   
 36  18  20  1   
 37  19  21  1   
 38  19  39  1   
 39  19  40  1   
 40  20  22  1   
 41  20  41  1   
 42  20  42  1   
 43  21  23  1   
 44  21  43  1   
 45  21  44  1   
 46  22  23  1   
 47  22  45  1   
 48  22  46  1   
@<TRIPOS>SUBSTRUCTURE
  1 ****   5 GROUP 4 **** **** 0

# MOE 2024.06 (io_trps.svl 2023.06)
