@<TRIPOS>MOLECULE
1-(2,5-Dimethoxy-benzenesulfonyl)-piperidine-4-carboxylic acid (2-ethyl-6-methyl
61 63 1 0 0 
SMALL
USER_CHARGES


@<TRIPOS>ATOM
  1 S       -0.0420    -0.3660    -1.3760 S.o2  1 <1>   1.4470 
  2 O        0.2970    -1.6200    -2.0170 O.2   1 <1>  -0.6500 
  3 O       -0.4470     0.7300    -2.2330 O.2   1 <1>  -0.6500 
  4 N        1.3630     0.1440    -0.5700 N.am  1 <1>  -0.8490 
  5 C       -1.2370    -0.7240    -0.0580 C.ar  1 <1>  -0.0090 
  6 C        1.1810     1.4500     0.0760 C.3   1 <1>   0.1960 
  7 C        2.5060     0.1480    -1.4860 C.3   1 <1>   0.1960 
  8 C       -2.0930     0.2450     0.4630 C.ar  1 <1>   0.0830 
  9 C       -1.3070    -2.0040     0.4810 C.ar  1 <1>  -0.1500 
 10 C        2.4320     1.8380     0.8680 C.3   1 <1>  -0.1600 
 11 C        3.7970     0.4990    -0.7420 C.3   1 <1>  -0.1600 
 12 O       -2.0500     1.5160     0.0110 O.3   1 <1>  -0.3620 
 13 C       -2.9880    -0.0560     1.4790 C.ar  1 <1>  -0.1500 
 14 C       -2.2060    -2.3190     1.4960 C.ar  1 <1>   0.0830 
 15 C        3.6790     1.8550    -0.0320 C.3   1 <1>  -0.0190 
 16 C       -3.0870     1.9050    -0.8630 C.3   1 <1>   0.0400 
 17 C       -3.0450    -1.3370     1.9900 C.ar  1 <1>  -0.1500 
 18 O       -2.3180    -3.5540     2.0490 O.3   1 <1>  -0.3630 
 19 C        4.9620     2.1870     0.7290 C.2   1 <1>   0.5690 
 20 C       -1.5080    -4.6250     1.6180 C.3   1 <1>   0.0400 
 21 O        5.0940     1.8210     1.8710 O.2   1 <1>  -0.5700 
 22 N        5.9270     2.8820     0.0590 N.am  1 <1>  -0.5470 
 23 C        7.1890     3.2710     0.5290 C.ar  1 <1>   0.1170 
 24 C        8.2410     2.3540     0.6180 C.ar  1 <1>  -0.1430 
 25 C        7.4080     4.6060     0.8790 C.ar  1 <1>  -0.1430 
 26 C        9.4890     2.7840     1.0400 C.ar  1 <1>  -0.1500 
 27 C        8.0720     0.8790     0.2620 C.3   1 <1>  -0.0170 
 28 C        8.6620     5.0130     1.2990 C.ar  1 <1>  -0.1500 
 29 C        6.2820     5.6310     0.8190 C.3   1 <1>  -0.0970 
 30 C        9.7020     4.1070     1.3790 C.ar  1 <1>  -0.1500 
 31 C        8.1880     0.6580    -1.2480 C.3   1 <1>  -0.2400 
 32 H        0.3550     1.4040     0.7630 H     1 <1>   0.0800 
 33 H        0.9630     2.2030    -0.6640 H     1 <1>   0.0800 
 34 H        2.3320     0.8530    -2.2830 H     1 <1>   0.0800 
 35 H        2.6220    -0.8300    -1.9250 H     1 <1>   0.0800 
 36 H       -0.6430    -2.7520     0.0890 H     1 <1>   0.1500 
 37 H        2.5650     1.1300     1.6690 H     1 <1>   0.0800 
 38 H        2.2890     2.8070     1.3110 H     1 <1>   0.0800 
 39 H        4.6140     0.5200    -1.4410 H     1 <1>   0.0800 
 40 H        4.0030    -0.2730    -0.0200 H     1 <1>   0.0800 
 41 H       -3.6300     0.7120     1.8700 H     1 <1>   0.1500 
 42 H        3.5310     2.6160    -0.7780 H     1 <1>   0.0800 
 43 H       -2.9020     2.9170    -1.1750 H     1 <1>   0.0800 
 44 H       -4.0290     1.8430    -0.3470 H     1 <1>   0.0800 
 45 H       -3.0830     1.2540    -1.7200 H     1 <1>   0.0800 
 46 H       -3.7360    -1.5840     2.7770 H     1 <1>   0.1500 
 47 H       -1.7720    -5.4950     2.1900 H     1 <1>   0.0800 
 48 H       -0.4760    -4.3740     1.7900 H     1 <1>   0.0800 
 49 H       -1.6920    -4.8050     0.5730 H     1 <1>   0.0800 
 50 H        5.7080     3.1940    -0.8820 H     1 <1>   0.3700 
 51 H       10.3070     2.0880     1.1090 H     1 <1>   0.1500 
 52 H        7.1240     0.5160     0.6160 H     1 <1>   0.0800 
 53 H        8.8280     0.2990     0.7620 H     1 <1>   0.0800 
 54 H        8.8400     6.0380     1.5720 H     1 <1>   0.1500 
 55 H        5.9530     5.7600    -0.1960 H     1 <1>   0.0800 
 56 H        6.6060     6.5840     1.1960 H     1 <1>   0.0800 
 57 H        5.4540     5.2970     1.4190 H     1 <1>   0.0800 
 58 H       10.6740     4.4290     1.7060 H     1 <1>   0.1500 
 59 H        7.4220     1.2050    -1.7660 H     1 <1>   0.0800 
 60 H        8.0840    -0.3870    -1.4770 H     1 <1>   0.0800 
 61 H        9.1490     0.9960    -1.5960 H     1 <1>   0.0800 
@<TRIPOS>BOND
  1   1   2  2   
  2   1   3  2   
  3   1   4  am  
  4   1   5  1   
  5   4   6  1   
  6   4   7  1   
  7   5   8  ar  
  8   5   9  ar  
  9   6  10  1   
 10   6  32  1   
 11   6  33  1   
 12   7  11  1   
 13   7  34  1   
 14   7  35  1   
 15   8  12  1   
 16   8  13  ar  
 17   9  14  ar  
 18   9  36  1   
 19  10  15  1   
 20  10  37  1   
 21  10  38  1   
 22  11  15  1   
 23  11  39  1   
 24  11  40  1   
 25  12  16  1   
 26  13  17  ar  
 27  13  41  1   
 28  14  17  ar  
 29  14  18  1   
 30  15  19  1   
 31  15  42  1   
 32  16  43  1   
 33  16  44  1   
 34  16  45  1   
 35  17  46  1   
 36  18  20  1   
 37  19  21  2   
 38  19  22  am  
 39  20  47  1   
 40  20  48  1   
 41  20  49  1   
 42  22  23  1   
 43  22  50  1   
 44  23  24  ar  
 45  23  25  ar  
 46  24  26  ar  
 47  24  27  1   
 48  25  28  ar  
 49  25  29  1   
 50  26  30  ar  
 51  26  51  1   
 52  27  31  1   
 53  27  52  1   
 54  27  53  1   
 55  28  30  ar  
 56  28  54  1   
 57  29  55  1   
 58  29  56  1   
 59  29  57  1   
 60  30  58  1   
 61  31  59  1   
 62  31  60  1   
 63  31  61  1   
@<TRIPOS>SUBSTRUCTURE
  1 ****  10 GROUP 4 **** **** 0

# MOE 2024.06 (io_trps.svl 2023.06)
