@<TRIPOS>MOLECULE
7-Methyl-5-propyl-2-pyridin-2-yl-1,3-diaza-tricyclo[3.3.1.1*3,7*]decan-6-one
45 48 1 0 0 
SMALL
USER_CHARGES


@<TRIPOS>ATOM
  1 O        0.0140     0.5260     0.0480 O.2   1 <1>  -0.5700 
  2 C        1.2080     0.5140     0.0540 C.2   1 <1>   0.4480 
  3 C        2.0310    -0.7530    -0.1890 C.3   1 <1>   0.0610 
  4 C        2.0430     1.7550     0.3770 C.3   1 <1>   0.0610 
  5 C        2.8100    -0.9960     1.1070 C.3   1 <1>   0.3430 
  6 C        3.0660    -0.4360    -1.2810 C.3   1 <1>   0.1100 
  7 C        1.1470    -1.9710    -0.5600 C.3   1 <1>  -0.1600 
  8 C        2.8070     1.4220     1.6650 C.3   1 <1>   0.3430 
  9 C        3.0760     1.9330    -0.7490 C.3   1 <1>   0.1100 
 10 C        1.2030     3.0370     0.5510 C.3   1 <1>  -0.2400 
 11 N        3.6480     0.2070     1.4380 N.4   1 <1>  -0.9590 
 12 N        3.9000     0.7120    -0.8580 N.3   1 <1>  -0.8100 
 13 C        1.9040    -3.2950    -0.7730 C.3   1 <1>  -0.1600 
 14 C        4.6640     0.4600     0.3810 C.3   1 <1>   0.8360 
 15 C        0.9240    -4.4280    -1.0840 C.3   1 <1>  -0.2400 
 16 C        5.6980    -0.6910     0.3060 C.ar  1 <1>   0.1670 
 17 N        5.8990    -1.3910     1.4260 N.ar  1 <1>  -0.6200 
 18 C        6.3750    -0.9410    -0.8820 C.ar  1 <1>  -0.1500 
 19 C        6.7980    -2.3640     1.3480 C.ar  1 <1>   0.1600 
 20 C        7.3010    -1.9590    -0.9460 C.ar  1 <1>  -0.1500 
 21 C        7.5100    -2.6830     0.2060 C.ar  1 <1>  -0.1500 
 22 H        3.4450    -1.8590     0.9890 H     1 <1>   0.0800 
 23 H        2.1180    -1.1950     1.9090 H     1 <1>   0.0800 
 24 H        3.6970    -1.2890    -1.4670 H     1 <1>   0.0800 
 25 H        2.5640    -0.1990    -2.2060 H     1 <1>   0.0800 
 26 H        0.5990    -1.7380    -1.4580 H     1 <1>   0.0800 
 27 H        0.4150    -2.1170     0.2180 H     1 <1>   0.0800 
 28 H        3.4300     2.2570     1.9430 H     1 <1>   0.0800 
 29 H        2.1050     1.2410     2.4640 H     1 <1>   0.0800 
 30 H        3.7090     2.7830    -0.5500 H     1 <1>   0.0800 
 31 H        2.5730     2.1150    -1.6860 H     1 <1>   0.0800 
 32 H        0.4840     2.9130     1.3430 H     1 <1>   0.0800 
 33 H        0.6600     3.2500    -0.3550 H     1 <1>   0.0800 
 34 H        1.8260     3.8840     0.7800 H     1 <1>   0.0800 
 35 H        4.2270    -0.0410     2.2540 H     1 <1>   0.4500 
 36 H        2.4640    -3.5650     0.1060 H     1 <1>   0.0800 
 37 H        2.5910    -3.2110    -1.5980 H     1 <1>   0.0800 
 38 H        5.2140     1.3540     0.6290 H     1 <1>   0.0800 
 39 H        0.2340    -4.5700    -0.2700 H     1 <1>   0.0800 
 40 H        1.4590    -5.3490    -1.2380 H     1 <1>   0.0800 
 41 H        0.3630    -4.2110    -1.9760 H     1 <1>   0.0800 
 42 H        6.1860    -0.3450    -1.7600 H     1 <1>   0.1500 
 43 H        6.9800    -2.9400     2.2410 H     1 <1>   0.1500 
 44 H        7.8400    -2.1780    -1.8530 H     1 <1>   0.1500 
 45 H        8.2230    -3.4890     0.2220 H     1 <1>   0.1500 
@<TRIPOS>BOND
  1   1   2  2   
  2   2   3  1   
  3   2   4  1   
  4   3   5  1   
  5   3   6  1   
  6   3   7  1   
  7   4   8  1   
  8   4   9  1   
  9   4  10  1   
 10   5  11  1   
 11   5  22  1   
 12   5  23  1   
 13   6  12  1   
 14   6  24  1   
 15   6  25  1   
 16   7  13  1   
 17   7  26  1   
 18   7  27  1   
 19   8  11  1   
 20   8  28  1   
 21   8  29  1   
 22   9  12  1   
 23   9  30  1   
 24   9  31  1   
 25  10  32  1   
 26  10  33  1   
 27  10  34  1   
 28  11  14  1   
 29  11  35  1   
 30  12  14  1   
 31  13  15  1   
 32  13  36  1   
 33  13  37  1   
 34  14  16  1   
 35  14  38  1   
 36  15  39  1   
 37  15  40  1   
 38  15  41  1   
 39  16  17  ar  
 40  16  18  ar  
 41  17  19  ar  
 42  18  20  ar  
 43  18  42  1   
 44  19  21  ar  
 45  19  43  1   
 46  20  21  ar  
 47  20  44  1   
 48  21  45  1   
@<TRIPOS>SUBSTRUCTURE
  1 ****   5 GROUP 4 **** **** 0

# MOE 2024.06 (io_trps.svl 2023.06)
