@<TRIPOS>MOLECULE
2-[4-(Morpholine-4-sulfonyl)-phenoxy]-N-o-tolyl-acetamide
49 51 1 0 0 
SMALL
USER_CHARGES


@<TRIPOS>ATOM
  1 S       -0.2120     1.1260    -1.0990 S.o2  1 <1>   1.4470 
  2 O       -0.6430     0.3340    -2.2310 O.2   1 <1>  -0.6500 
  3 O       -0.8540     2.3930    -0.8280 O.2   1 <1>  -0.6500 
  4 N       -0.4110     0.1670     0.2840 N.am  1 <1>  -0.8490 
  5 C        1.5830     1.3770    -1.1660 C.ar  1 <1>  -0.0090 
  6 C       -1.8080     0.1730     0.7430 C.3   1 <1>   0.1960 
  7 C        0.0240    -1.2250     0.0790 C.3   1 <1>   0.1960 
  8 C        2.3120     1.0830    -2.3130 C.ar  1 <1>  -0.1500 
  9 C        2.2720     1.8760    -0.0670 C.ar  1 <1>  -0.1500 
 10 C       -1.9880    -0.7060     1.9950 C.3   1 <1>   0.1200 
 11 C       -0.1910    -2.0630     1.3530 C.3   1 <1>   0.1200 
 12 C        3.6820     1.2760    -2.3670 C.ar  1 <1>  -0.1500 
 13 C        3.6410     2.0730    -0.1090 C.ar  1 <1>  -0.1500 
 14 O       -1.5300    -2.0080     1.7560 O.3   1 <1>  -0.5600 
 15 C        4.3550     1.7770    -1.2570 C.ar  1 <1>   0.0820 
 16 O        5.6890     2.0040    -1.2230 O.3   1 <1>  -0.3630 
 17 C        6.5000     1.8170    -2.3780 C.3   1 <1>   0.1810 
 18 C        7.9450     2.2090    -2.1040 C.2   1 <1>   0.5690 
 19 O        8.7570     2.0090    -2.9740 O.2   1 <1>  -0.5700 
 20 N        8.2350     2.7620    -0.8870 N.am  1 <1>  -0.5470 
 21 C        9.4220     3.2300    -0.2950 C.ar  1 <1>   0.1170 
 22 C        9.4410     3.4910     1.0780 C.ar  1 <1>  -0.1430 
 23 C       10.5810     3.4540    -1.0320 C.ar  1 <1>  -0.1500 
 24 C       10.5990     3.9610     1.6780 C.ar  1 <1>  -0.1500 
 25 C        8.2060     3.2680     1.9440 C.3   1 <1>  -0.0970 
 26 C       11.7330     3.9210    -0.4270 C.ar  1 <1>  -0.1500 
 27 C       11.7430     4.1750     0.9310 C.ar  1 <1>  -0.1500 
 28 H       -2.4570    -0.1860    -0.0390 H     1 <1>   0.0800 
 29 H       -2.1060     1.1800     0.9840 H     1 <1>   0.0800 
 30 H        1.0680    -1.2440    -0.1810 H     1 <1>   0.0800 
 31 H       -0.5310    -1.6770    -0.7270 H     1 <1>   0.0800 
 32 H        1.7980     0.6970    -3.1790 H     1 <1>   0.1500 
 33 H        1.7260     2.1140     0.8300 H     1 <1>   0.1500 
 34 H       -3.0280    -0.7670     2.2610 H     1 <1>   0.0800 
 35 H       -1.4400    -0.2950     2.8250 H     1 <1>   0.0800 
 36 H        0.4260    -1.6990     2.1550 H     1 <1>   0.0800 
 37 H        0.0530    -3.0940     1.1670 H     1 <1>   0.0800 
 38 H        4.1980     1.0320    -3.2770 H     1 <1>   0.1500 
 39 H        4.1580     2.4610     0.7500 H     1 <1>   0.1500 
 40 H        6.1130     2.4300    -3.1710 H     1 <1>   0.0800 
 41 H        6.4610     0.7810    -2.6590 H     1 <1>   0.0800 
 42 H        7.4200     2.8080    -0.2750 H     1 <1>   0.3700 
 43 H       10.5940     3.2680    -2.0890 H     1 <1>   0.1500 
 44 H       10.6220     4.1640     2.7340 H     1 <1>   0.1500 
 45 H        7.4080     3.9130     1.6220 H     1 <1>   0.0800 
 46 H        8.4150     3.4820     2.9760 H     1 <1>   0.0800 
 47 H        7.8860     2.2430     1.8730 H     1 <1>   0.0800 
 48 H       12.6190     4.0850    -1.0150 H     1 <1>   0.1500 
 49 H       12.6380     4.5390     1.4050 H     1 <1>   0.1500 
@<TRIPOS>BOND
  1   1   2  2   
  2   1   3  2   
  3   1   4  am  
  4   1   5  1   
  5   4   6  1   
  6   4   7  1   
  7   5   8  ar  
  8   5   9  ar  
  9   6  10  1   
 10   6  28  1   
 11   6  29  1   
 12   7  11  1   
 13   7  30  1   
 14   7  31  1   
 15   8  12  ar  
 16   8  32  1   
 17   9  13  ar  
 18   9  33  1   
 19  10  14  1   
 20  10  34  1   
 21  10  35  1   
 22  11  14  1   
 23  11  36  1   
 24  11  37  1   
 25  12  15  ar  
 26  12  38  1   
 27  13  15  ar  
 28  13  39  1   
 29  15  16  1   
 30  16  17  1   
 31  17  18  1   
 32  17  40  1   
 33  17  41  1   
 34  18  19  2   
 35  18  20  am  
 36  20  21  1   
 37  20  42  1   
 38  21  22  ar  
 39  21  23  ar  
 40  22  24  ar  
 41  22  25  1   
 42  23  26  ar  
 43  23  43  1   
 44  24  27  ar  
 45  24  44  1   
 46  25  45  1   
 47  25  46  1   
 48  25  47  1   
 49  26  27  ar  
 50  26  48  1   
 51  27  49  1   
@<TRIPOS>SUBSTRUCTURE
  1 ****  15 GROUP 4 **** **** 0

# MOE 2024.06 (io_trps.svl 2023.06)
