@<TRIPOS>MOLECULE
2-(1H-Benzoimidazol-2-ylsulfanyl)-N-bicyclo[2.2.1]hept-2-yl-acetamide
40 43 1 0 0 
SMALL
USER_CHARGES


@<TRIPOS>ATOM
  1 S       -0.1630     1.1850    -0.6720 S.3   1 <1>  -0.2860 
  2 C        1.5500     0.6930    -0.8560 C.2   1 <1>   0.2420 
  3 C       -0.2500     2.1220     0.9320 C.3   1 <1>   0.1310 
  4 N        1.9580     0.0210    -1.8710 N.2   1 <1>  -0.5650 
  5 N        2.4970     1.0030     0.0610 N.pl3 1 <1>   0.0330 
  6 C       -1.6590     2.6100     1.2320 C.2   1 <1>   0.5690 
  7 C        3.2890    -0.1380    -1.6230 C.ar  1 <1>   0.2270 
  8 C        3.6440     0.4650    -0.4270 C.ar  1 <1>  -0.1520 
  9 O       -1.8300     3.2330     2.2510 O.2   1 <1>  -0.5700 
 10 N       -2.6730     2.3420     0.3700 N.am  1 <1>  -0.7300 
 11 C        4.2570    -0.7900    -2.3830 C.ar  1 <1>  -0.1500 
 12 C        4.9590     0.4350     0.0400 C.ar  1 <1>  -0.1500 
 13 C       -4.0850     2.7520     0.5390 C.3   1 <1>   0.2200 
 14 C        5.5590    -0.8250    -1.9300 C.ar  1 <1>  -0.1500 
 15 C        5.9080    -0.2130    -0.7200 C.ar  1 <1>  -0.1500 
 16 C       -5.0870     1.4570     0.5820 C.3   1 <1>  -0.0800 
 17 C       -4.5500     3.7060    -0.7480 C.3   1 <1>  -0.1600 
 18 C       -5.5270     2.2720    -0.3850 C.3   1 <1>  -0.1600 
 19 C       -6.4810     0.8430    -0.0160 C.3   1 <1>  -0.1600 
 20 C       -5.9370     3.0890    -1.3610 C.3   1 <1>  -0.0800 
 21 C       -6.9500     1.8050    -1.3040 C.3   1 <1>  -0.1600 
 22 H        0.4140     2.9620     0.8500 H     1 <1>   0.0800 
 23 H        0.0770     1.4590     1.7100 H     1 <1>   0.0800 
 24 H        2.3840     1.5240     0.9300 H     1 <1>   0.2700 
 25 H       -2.4680     1.8160    -0.4840 H     1 <1>   0.3700 
 26 H        3.9620    -1.2510    -3.3070 H     1 <1>   0.1500 
 27 H        5.2210     0.9070     0.9710 H     1 <1>   0.1500 
 28 H       -4.1870     3.3130     1.4580 H     1 <1>   0.0800 
 29 H        6.3180    -1.3250    -2.5060 H     1 <1>   0.1500 
 30 H        6.9320    -0.2560    -0.3900 H     1 <1>   0.1500 
 31 H       -4.4070     0.6420     0.3760 H     1 <1>   0.0800 
 32 H       -3.7840     3.7220    -1.5070 H     1 <1>   0.0800 
 33 H       -4.7010     4.7200    -0.4130 H     1 <1>   0.0800 
 34 H       -4.8680     1.6810    -1.1630 H     1 <1>   0.0800 
 35 H       -6.1740     2.8740     0.3930 H     1 <1>   0.0800 
 36 H       -7.2450     0.8440     0.7480 H     1 <1>   0.0800 
 37 H       -6.3470    -0.1780    -0.3380 H     1 <1>   0.0800 
 38 H       -6.6260     3.9000    -1.1680 H     1 <1>   0.0800 
 39 H       -7.9740     2.1240    -1.1830 H     1 <1>   0.0800 
 40 H       -6.8920     1.2460    -2.2260 H     1 <1>   0.0800 
@<TRIPOS>BOND
  1   1   2  1   
  2   1   3  1   
  3   2   4  2   
  4   2   5  1   
  5   3   6  1   
  6   3  22  1   
  7   3  23  1   
  8   4   7  1   
  9   5   8  1   
 10   5  24  1   
 11   6   9  2   
 12   6  10  am  
 13   7   8  ar  
 14   7  11  ar  
 15   8  12  ar  
 16  10  13  1   
 17  10  25  1   
 18  11  14  ar  
 19  11  26  1   
 20  12  15  ar  
 21  12  27  1   
 22  13  16  1   
 23  13  17  1   
 24  13  28  1   
 25  14  15  ar  
 26  14  29  1   
 27  15  30  1   
 28  16  18  1   
 29  16  19  1   
 30  16  31  1   
 31  17  20  1   
 32  17  32  1   
 33  17  33  1   
 34  18  20  1   
 35  18  34  1   
 36  18  35  1   
 37  19  21  1   
 38  19  36  1   
 39  19  37  1   
 40  20  21  1   
 41  20  38  1   
 42  21  39  1   
 43  21  40  1   
@<TRIPOS>SUBSTRUCTURE
  1 ****   1 GROUP 4 **** **** 0

# MOE 2024.06 (io_trps.svl 2023.06)
