@<TRIPOS>MOLECULE
N-[2-(4-Isobutyryl-piperazin-1-yl)-phenyl]-2-o-tolyloxy-acetamide
58 60 1 0 0 
SMALL
USER_CHARGES


@<TRIPOS>ATOM
  1 O       -4.5740     2.1600    -2.2240 O.2   1 <1>  -0.5700 
  2 C       -4.1870     2.1790    -1.0770 C.2   1 <1>   0.5690 
  3 N       -3.2010     3.0520    -0.6840 N.am  1 <1>  -0.6600 
  4 C       -4.8450     1.2130    -0.0730 C.3   1 <1>  -0.0190 
  5 C       -2.7810     3.3410     0.7270 C.3   1 <1>   0.1400 
  6 C       -2.4840     3.9150    -1.6820 C.3   1 <1>   0.1400 
  7 C       -5.3240    -0.0940    -0.7310 C.3   1 <1>  -0.2400 
  8 C       -6.0280     1.8770     0.6530 C.3   1 <1>  -0.2400 
  9 C       -2.9770     4.8270     1.0720 C.3   1 <1>   0.2090 
 10 C       -2.6510     5.4130    -1.3690 C.3   1 <1>   0.2090 
 11 N       -2.3170     5.7020     0.0560 N.pl3 1 <1>  -0.8380 
 12 C       -1.8210     6.9680     0.4050 C.ar  1 <1>   0.1000 
 13 C       -2.6490     8.0160     0.8430 C.ar  1 <1>   0.1170 
 14 C       -0.4540     7.1840     0.3080 C.ar  1 <1>  -0.1500 
 15 N       -4.0340     7.7800     0.9180 N.am  1 <1>  -0.5470 
 16 C       -2.0790     9.2400     1.1700 C.ar  1 <1>  -0.1500 
 17 C        0.1020     8.4070     0.6380 C.ar  1 <1>  -0.1500 
 18 C       -5.0550     8.3880     1.5900 C.2   1 <1>   0.5690 
 19 C       -0.7130     9.4370     1.0700 C.ar  1 <1>  -0.1500 
 20 O       -4.9360     9.4220     2.2020 O.2   1 <1>  -0.5700 
 21 C       -6.4180     7.7100     1.5990 C.3   1 <1>   0.1810 
 22 O       -6.4080     6.5050     0.8420 O.3   1 <1>  -0.3630 
 23 C       -7.5530     5.7970     0.6580 C.ar  1 <1>   0.0820 
 24 C       -7.6360     4.9700    -0.4590 C.ar  1 <1>  -0.1440 
 25 C       -8.6270     5.8700     1.5420 C.ar  1 <1>  -0.1500 
 26 C       -8.7870     4.2310    -0.6800 C.ar  1 <1>  -0.1500 
 27 C       -6.4840     4.8720    -1.4460 C.3   1 <1>  -0.0970 
 28 C       -9.7700     5.1270     1.3120 C.ar  1 <1>  -0.1500 
 29 C       -9.8510     4.3070     0.2010 C.ar  1 <1>  -0.1500 
 30 H       -4.1060     0.9300     0.6530 H     1 <1>   0.0800 
 31 H       -1.7400     3.0940     0.8400 H     1 <1>   0.0800 
 32 H       -3.3360     2.7540     1.4330 H     1 <1>   0.0800 
 33 H       -2.8390     3.7230    -2.6790 H     1 <1>   0.0800 
 34 H       -1.4370     3.6730    -1.6600 H     1 <1>   0.0800 
 35 H       -6.0950     0.1080    -1.4540 H     1 <1>   0.0800 
 36 H       -5.7130    -0.7710     0.0090 H     1 <1>   0.0800 
 37 H       -4.5040    -0.5730    -1.2370 H     1 <1>   0.0800 
 38 H       -6.8090     2.1070    -0.0500 H     1 <1>   0.0800 
 39 H       -5.7220     2.7930     1.1250 H     1 <1>   0.0800 
 40 H       -6.4270     1.2200     1.4050 H     1 <1>   0.0800 
 41 H       -2.5620     5.0330     2.0430 H     1 <1>   0.0800 
 42 H       -4.0310     5.0390     1.1050 H     1 <1>   0.0800 
 43 H       -3.6640     5.7100    -1.5680 H     1 <1>   0.0800 
 44 H       -2.0070     5.9860    -2.0120 H     1 <1>   0.0800 
 45 H        0.1730     6.3790    -0.0260 H     1 <1>   0.1500 
 46 H       -4.2880     6.9000     0.4640 H     1 <1>   0.3700 
 47 H       -2.6990    10.0520     1.5010 H     1 <1>   0.1500 
 48 H        1.1650     8.5560     0.5590 H     1 <1>   0.1500 
 49 H       -0.2880    10.3910     1.3290 H     1 <1>   0.1500 
 50 H       -7.1530     8.3710     1.1770 H     1 <1>   0.0800 
 51 H       -6.6730     7.4770     2.6150 H     1 <1>   0.0800 
 52 H       -8.5930     6.4910     2.4170 H     1 <1>   0.1500 
 53 H       -8.8610     3.5890    -1.5410 H     1 <1>   0.1500 
 54 H       -6.3580     5.8080    -1.9580 H     1 <1>   0.0800 
 55 H       -6.6570     4.1000    -2.1750 H     1 <1>   0.0800 
 56 H       -5.5800     4.6380    -0.9190 H     1 <1>   0.0800 
 57 H      -10.5990     5.1850     1.9960 H     1 <1>   0.1500 
 58 H      -10.7400     3.7290     0.0210 H     1 <1>   0.1500 
@<TRIPOS>BOND
  1   1   2  2   
  2   2   3  am  
  3   2   4  1   
  4   3   5  1   
  5   3   6  1   
  6   4   7  1   
  7   4   8  1   
  8   4  30  1   
  9   5   9  1   
 10   5  31  1   
 11   5  32  1   
 12   6  10  1   
 13   6  33  1   
 14   6  34  1   
 15   7  35  1   
 16   7  36  1   
 17   7  37  1   
 18   8  38  1   
 19   8  39  1   
 20   8  40  1   
 21   9  11  1   
 22   9  41  1   
 23   9  42  1   
 24  10  11  1   
 25  10  43  1   
 26  10  44  1   
 27  11  12  1   
 28  12  13  ar  
 29  12  14  ar  
 30  13  15  1   
 31  13  16  ar  
 32  14  17  ar  
 33  14  45  1   
 34  15  18  am  
 35  15  46  1   
 36  16  19  ar  
 37  16  47  1   
 38  17  19  ar  
 39  17  48  1   
 40  18  20  2   
 41  18  21  1   
 42  19  49  1   
 43  21  22  1   
 44  21  50  1   
 45  21  51  1   
 46  22  23  1   
 47  23  24  ar  
 48  23  25  ar  
 49  24  26  ar  
 50  24  27  1   
 51  25  28  ar  
 52  25  52  1   
 53  26  29  ar  
 54  26  53  1   
 55  27  54  1   
 56  27  55  1   
 57  27  56  1   
 58  28  29  ar  
 59  28  57  1   
 60  29  58  1   
@<TRIPOS>SUBSTRUCTURE
  1 ****   9 GROUP 4 **** **** 0

# MOE 2024.06 (io_trps.svl 2023.06)
