@<TRIPOS>MOLECULE
1-(2,6-Dimethyl-piperidin-1-yl)-2-thiophen-2-yl-ethanone
35 36 1 0 0 
SMALL
USER_CHARGES


@<TRIPOS>ATOM
  1 S       -0.2650     0.5610     1.2660 S.3   1 <1>  -0.0800 
  2 C        0.6830     1.6600     0.2760 C.2   1 <1>  -0.1400 
  3 C       -0.1620    -0.6970     0.0470 C.2   1 <1>  -0.1100 
  4 C        1.0200     1.0720    -0.8870 C.2   1 <1>  -0.1500 
  5 C        0.9580     3.0440     0.8470 C.3   1 <1>   0.0810 
  6 C        0.5420    -0.2710    -1.0170 C.2   1 <1>  -0.1500 
  7 C        2.1130     3.7660     0.1610 C.2   1 <1>   0.5690 
  8 O        1.7910     4.7420    -0.4790 O.2   1 <1>  -0.5700 
  9 N        3.4400     3.3710     0.2170 N.am  1 <1>  -0.6600 
 10 C        4.3720     3.9460    -0.8090 C.3   1 <1>   0.2200 
 11 C        4.1120     2.3170     1.0450 C.3   1 <1>   0.2200 
 12 C        5.4170     2.9150    -1.2940 C.3   1 <1>  -0.1600 
 13 C        5.0440     5.1960    -0.2410 C.3   1 <1>  -0.2400 
 14 C        4.4160     1.0950     0.1620 C.3   1 <1>  -0.1600 
 15 C        3.4430     1.9270     2.3620 C.3   1 <1>  -0.2400 
 16 C        4.8640     1.4820    -1.2620 C.3   1 <1>  -0.1600 
 17 H       -0.6480    -1.6330     0.2590 H     1 <1>   0.1500 
 18 H        1.5920     1.5330    -1.6740 H     1 <1>   0.1500 
 19 H        1.1240     3.0030     1.9020 H     1 <1>   0.0800 
 20 H        0.0670     3.6290     0.7110 H     1 <1>   0.0800 
 21 H        0.7510    -0.8470    -1.9020 H     1 <1>   0.1500 
 22 H        3.7940     4.2350    -1.6720 H     1 <1>   0.0800 
 23 H        5.0610     2.7340     1.3380 H     1 <1>   0.0800 
 24 H        6.2970     2.9650    -0.6760 H     1 <1>   0.0800 
 25 H        5.7190     3.1690    -2.2940 H     1 <1>   0.0800 
 26 H        5.6270     4.9560     0.6290 H     1 <1>   0.0800 
 27 H        4.2950     5.9210     0.0240 H     1 <1>   0.0800 
 28 H        5.6880     5.6330    -0.9810 H     1 <1>   0.0800 
 29 H        3.5530     0.4560     0.1050 H     1 <1>   0.0800 
 30 H        5.1970     0.5280     0.6370 H     1 <1>   0.0800 
 31 H        2.5860     1.3020     2.2000 H     1 <1>   0.0800 
 32 H        3.1790     2.8050     2.9230 H     1 <1>   0.0800 
 33 H        4.1390     1.3580     2.9510 H     1 <1>   0.0800 
 34 H        5.6020     0.7850    -1.6190 H     1 <1>   0.0800 
 35 H        4.0160     1.4300    -1.9220 H     1 <1>   0.0800 
@<TRIPOS>BOND
  1   1   2  1   
  2   1   3  1   
  3   2   4  2   
  4   2   5  1   
  5   3   6  2   
  6   3  17  1   
  7   4   6  1   
  8   4  18  1   
  9   5   7  1   
 10   5  19  1   
 11   5  20  1   
 12   6  21  1   
 13   7   8  2   
 14   7   9  am  
 15   9  10  1   
 16   9  11  1   
 17  10  12  1   
 18  10  13  1   
 19  10  22  1   
 20  11  14  1   
 21  11  15  1   
 22  11  23  1   
 23  12  16  1   
 24  12  24  1   
 25  12  25  1   
 26  13  26  1   
 27  13  27  1   
 28  13  28  1   
 29  14  16  1   
 30  14  29  1   
 31  14  30  1   
 32  15  31  1   
 33  15  32  1   
 34  15  33  1   
 35  16  34  1   
 36  16  35  1   
@<TRIPOS>SUBSTRUCTURE
  1 ****   9 GROUP 4 **** **** 0

# MOE 2024.06 (io_trps.svl 2023.06)
