@<TRIPOS>MOLECULE
7-(2-Hydroxy-3-m-tolyloxy-propyl)-3-methyl-8-pyrrolidin-1-yl-3,7-dihydro-purine-
55 58 1 0 0 
SMALL
USER_CHARGES


@<TRIPOS>ATOM
  1 O        1.3830     1.8850     2.3250 O.2   1 <1>  -0.5740 
  2 C        2.3540     2.0090     1.6140 C.2   1 <1>   0.6870 
  3 N        3.3180     1.0180     1.4970 N.am  1 <1>  -0.4410 
  4 N        2.4970     3.1650     0.9050 N.am  1 <1>  -0.4950 
  5 C        4.4020     1.2720     0.6690 C.2   1 <1>   0.4210 
  6 C        3.2060    -0.2560     2.2650 C.3   1 <1>   0.0530 
  7 C        3.5480     3.4210     0.0710 C.2   1 <1>   0.7000 
  8 N        5.4770     0.4740     0.4480 N.pl3 1 <1>  -0.7030 
  9 C        4.5570     2.4070    -0.0470 C.2   1 <1>   0.2710 
 10 O        3.5660     4.4760    -0.5330 O.2   1 <1>  -0.5740 
 11 C        6.3100     1.1040    -0.3830 C.cat 1 <1>   1.0690 
 12 N        5.7820     2.2860    -0.7360 N.pl3 1 <1>  -0.7670 
 13 N        7.4930     0.5700    -0.7620 N.pl3 1 <1>  -0.5960 
 14 C        6.4790     3.5100    -1.2440 C.3   1 <1>   0.3490 
 15 C        8.3300     1.0140    -1.9050 C.3   1 <1>   0.1610 
 16 C        8.0670    -0.6700    -0.1730 C.3   1 <1>   0.1610 
 17 C        7.4110     4.1360    -0.1770 C.3   1 <1>   0.1940 
 18 C        9.2730    -0.1460    -2.1880 C.3   1 <1>  -0.1670 
 19 C        9.4210    -0.8480    -0.8450 C.3   1 <1>  -0.1670 
 20 O        6.8940     3.9640     1.1090 O.3   1 <1>  -0.6830 
 21 C        7.6440     5.6320    -0.4110 C.3   1 <1>   0.1130 
 22 O        8.4490     6.1250     0.6380 O.3   1 <1>  -0.3680 
 23 C        8.8880     7.4090     0.6420 C.ar  1 <1>   0.0750 
 24 C        9.8040     7.7530     1.6220 C.ar  1 <1>  -0.1570 
 25 C        8.4710     8.3700    -0.2750 C.ar  1 <1>  -0.1570 
 26 C       10.3120     9.0400     1.6980 C.ar  1 <1>  -0.1500 
 27 C        8.9780     9.6560    -0.2030 C.ar  1 <1>  -0.1570 
 28 C        9.8960     9.9890     0.7790 C.ar  1 <1>  -0.1570 
 29 C       11.3180     9.4120     2.7720 C.3   1 <1>  -0.1040 
 30 H        1.7750     3.8740     1.0120 H     1 <1>   0.3650 
 31 H        2.2210    -0.3630     2.6860 H     1 <1>   0.0730 
 32 H        3.9230    -0.2600     3.0680 H     1 <1>   0.0730 
 33 H        3.3860    -1.0950     1.6160 H     1 <1>   0.0730 
 34 H        5.6550    -0.4320     0.8640 H     1 <1>   0.4450 
 35 H        5.7480     4.2410    -1.5390 H     1 <1>   0.0730 
 36 H        7.0440     3.2860    -2.1300 H     1 <1>   0.0730 
 37 H        8.9040     1.8780    -1.6150 H     1 <1>   0.0730 
 38 H        7.7290     1.2380    -2.7700 H     1 <1>   0.0730 
 39 H        7.4330    -1.5080    -0.4090 H     1 <1>   0.0730 
 40 H        8.1780    -0.5810     0.8960 H     1 <1>   0.0730 
 41 H        8.3630     3.6370    -0.2040 H     1 <1>   0.0730 
 42 H       10.2180     0.1890    -2.5790 H     1 <1>   0.0730 
 43 H        8.8190    -0.8110    -2.9030 H     1 <1>   0.0730 
 44 H        9.6840    -1.8870    -0.9540 H     1 <1>   0.0730 
 45 H       10.1790    -0.3600    -0.2560 H     1 <1>   0.0730 
 46 H        7.3600     4.5960     1.7060 H     1 <1>   0.3950 
 47 H        6.7110     6.1700    -0.4080 H     1 <1>   0.0730 
 48 H        8.1610     5.7980    -1.3400 H     1 <1>   0.0730 
 49 H       10.1190     7.0040     2.3260 H     1 <1>   0.1430 
 50 H        7.7580     8.1470    -1.0440 H     1 <1>   0.1430 
 51 H        8.6590    10.4010    -0.9100 H     1 <1>   0.1430 
 52 H       10.2850    10.9910     0.8260 H     1 <1>   0.1430 
 53 H       11.3020     8.6970     3.5740 H     1 <1>   0.0730 
 54 H       11.0860    10.3810     3.1760 H     1 <1>   0.0730 
 55 H       12.3070     9.4380     2.3500 H     1 <1>   0.0730 
@<TRIPOS>BOND
  1   1   2  2   
  2   2   3  am  
  3   2   4  am  
  4   3   5  1   
  5   3   6  1   
  6   4   7  am  
  7   4  30  1   
  8   5   8  1   
  9   5   9  2   
 10   6  31  1   
 11   6  32  1   
 12   6  33  1   
 13   7   9  1   
 14   7  10  2   
 15   8  11  ar  
 16   8  34  1   
 17   9  12  1   
 18  11  12  ar  
 19  11  13  ar  
 20  12  14  1   
 21  13  15  1   
 22  13  16  1   
 23  14  17  1   
 24  14  35  1   
 25  14  36  1   
 26  15  18  1   
 27  15  37  1   
 28  15  38  1   
 29  16  19  1   
 30  16  39  1   
 31  16  40  1   
 32  17  20  1   
 33  17  21  1   
 34  17  41  1   
 35  18  19  1   
 36  18  42  1   
 37  18  43  1   
 38  19  44  1   
 39  19  45  1   
 40  20  46  1   
 41  21  22  1   
 42  21  47  1   
 43  21  48  1   
 44  22  23  1   
 45  23  24  ar  
 46  23  25  ar  
 47  24  26  ar  
 48  24  49  1   
 49  25  27  ar  
 50  25  50  1   
 51  26  28  ar  
 52  26  29  1   
 53  27  28  ar  
 54  27  51  1   
 55  28  52  1   
 56  29  53  1   
 57  29  54  1   
 58  29  55  1   
@<TRIPOS>SUBSTRUCTURE
  1 ****  20 GROUP 4 **** **** 0

# MOE 2024.06 (io_trps.svl 2023.06)
