@<TRIPOS>MOLECULE
N*1*-(2-Methoxy-benzyl)-N*1*-methyl-propane-1,3-diamine
37 37 1 0 0 
SMALL
USER_CHARGES


@<TRIPOS>ATOM
  1 O       -2.1590    -1.2880     0.8020 O.3   1 <1>  -0.3630 
  2 C       -2.2770     0.0380     0.5130 C.ar  1 <1>   0.0830 
  3 C       -1.1340    -1.7260     1.6770 C.3   1 <1>   0.0400 
  4 C       -2.9390     0.3950    -0.6590 C.ar  1 <1>  -0.1440 
  5 C       -1.7690     1.0340     1.3440 C.ar  1 <1>  -0.1500 
  6 C       -3.0820     1.7340    -0.9920 C.ar  1 <1>  -0.1500 
  7 C       -3.5030    -0.6740    -1.5710 C.3   1 <1>   0.4870 
  8 C       -1.9190     2.3660     1.0050 C.ar  1 <1>  -0.1500 
  9 C       -2.5740     2.7160    -0.1620 C.ar  1 <1>  -0.1500 
 10 N       -4.5000    -1.4620    -0.7870 N.4   1 <1>  -0.9590 
 11 C       -4.7960    -2.7560    -1.4610 C.3   1 <1>   0.3430 
 12 C       -5.7000    -0.6070    -0.5020 C.3   1 <1>   0.2630 
 13 C       -4.8040    -3.9260    -0.4640 C.3   1 <1>  -0.1600 
 14 C       -6.0000    -3.9280     0.4950 C.3   1 <1>   0.3430 
 15 N       -5.9780    -5.1550     1.3340 N.4   1 <1>  -0.8530 
 16 H       -1.3700    -1.4200     2.6810 H     1 <1>   0.0800 
 17 H       -0.1960    -1.2990     1.3620 H     1 <1>   0.0800 
 18 H       -1.0760    -2.7980     1.6270 H     1 <1>   0.0800 
 19 H       -1.2580     0.7990     2.2600 H     1 <1>   0.1500 
 20 H       -3.5830     2.0340    -1.8980 H     1 <1>   0.1500 
 21 H       -2.6940    -1.3090    -1.8940 H     1 <1>   0.0800 
 22 H       -3.9620    -0.2280    -2.4390 H     1 <1>   0.0800 
 23 H       -1.5240     3.1340     1.6490 H     1 <1>   0.1500 
 24 H       -2.6830     3.7570    -0.4210 H     1 <1>   0.1500 
 25 H       -3.9640    -1.6100     0.0900 H     1 <1>   0.4500 
 26 H       -4.0290    -2.9540    -2.1940 H     1 <1>   0.0800 
 27 H       -5.7360    -2.6960    -1.9880 H     1 <1>   0.0800 
 28 H       -6.2010    -0.3430    -1.4200 H     1 <1>   0.0800 
 29 H       -5.3990     0.3030    -0.0060 H     1 <1>   0.0800 
 30 H       -6.3960    -1.1240     0.1370 H     1 <1>   0.0800 
 31 H       -3.8790    -3.9210     0.0860 H     1 <1>   0.0800 
 32 H       -4.8350    -4.8300    -1.0480 H     1 <1>   0.0800 
 33 H       -6.9200    -3.8960    -0.0710 H     1 <1>   0.0800 
 34 H       -5.9620    -3.0540     1.1270 H     1 <1>   0.0800 
 35 H       -6.0400    -6.0110     0.7680 H     1 <1>   0.4500 
 36 H       -6.7730    -5.1750     1.9880 H     1 <1>   0.4500 
 37 H       -5.1230    -5.2220     1.9020 H     1 <1>   0.4500 
@<TRIPOS>BOND
  1   1   2  1   
  2   1   3  1   
  3   2   4  ar  
  4   2   5  ar  
  5   3  16  1   
  6   3  17  1   
  7   3  18  1   
  8   4   6  ar  
  9   4   7  1   
 10   5   8  ar  
 11   5  19  1   
 12   6   9  ar  
 13   6  20  1   
 14   7  10  1   
 15   7  21  1   
 16   7  22  1   
 17   8   9  ar  
 18   8  23  1   
 19   9  24  1   
 20  10  11  1   
 21  10  12  1   
 22  10  25  1   
 23  11  13  1   
 24  11  26  1   
 25  11  27  1   
 26  12  28  1   
 27  12  29  1   
 28  12  30  1   
 29  13  14  1   
 30  13  31  1   
 31  13  32  1   
 32  14  15  1   
 33  14  33  1   
 34  14  34  1   
 35  15  35  1   
 36  15  36  1   
 37  15  37  1   
@<TRIPOS>SUBSTRUCTURE
  1 ****  10 GROUP 4 **** **** 0

# MOE 2024.06 (io_trps.svl 2023.06)
