@<TRIPOS>MOLECULE
N-(2-Azepan-1-yl-2-oxo-ethyl)-N-(4-bromo-phenyl)-methanesulfonamide
43 44 1 0 0 
SMALL
USER_CHARGES


@<TRIPOS>ATOM
  1 BR       0.6920     0.8740     0.1890 Br    1 <1>  -0.1110 
  2 C        2.1890    -0.3290     0.0250 C.ar  1 <1>   0.1110 
  3 C        2.1240    -1.3520    -0.9020 C.ar  1 <1>  -0.1500 
  4 C        3.2890    -0.1370     0.8390 C.ar  1 <1>  -0.1500 
  5 C        3.2020    -2.2120    -1.0130 C.ar  1 <1>  -0.1500 
  6 C        4.3600    -1.0060     0.7160 C.ar  1 <1>  -0.1500 
  7 C        4.3270    -2.0490    -0.2060 C.ar  1 <1>   0.1990 
  8 N        5.4130    -2.9070    -0.3080 N.am  1 <1>  -0.6930 
  9 S        5.2250    -4.5900     0.0560 S.o2  1 <1>   1.3330 
 10 C        6.3230    -2.6230    -1.4670 C.3   1 <1>   0.2570 
 11 O        6.5070    -5.0950     0.4750 O.2   1 <1>  -0.6500 
 12 O        4.4960    -5.1710    -1.0440 O.2   1 <1>  -0.6500 
 13 C        4.1750    -4.5680     1.4960 C.3   1 <1>  -0.1350 
 14 C        7.7560    -3.1790    -1.4180 C.2   1 <1>   0.5690 
 15 O        8.0600    -3.9370    -2.3110 O.2   1 <1>  -0.5700 
 16 N        8.6760    -2.7860    -0.4670 N.am  1 <1>  -0.6600 
 17 C       10.0630    -3.3330    -0.5130 C.3   1 <1>   0.1400 
 18 C        8.3500    -1.9320     0.7050 C.3   1 <1>   0.1400 
 19 C       11.1460    -2.3220    -0.1020 C.3   1 <1>  -0.1600 
 20 C        8.5740    -0.4580     0.3550 C.3   1 <1>  -0.1600 
 21 C       10.9290    -0.8940    -0.6320 C.3   1 <1>  -0.1600 
 22 C       10.0530    -0.0410     0.3000 C.3   1 <1>  -0.1600 
 23 H        1.2510    -1.4700    -1.5200 H     1 <1>   0.1500 
 24 H        3.3040     0.6720     1.5480 H     1 <1>   0.1500 
 25 H        3.1750    -3.0140    -1.7310 H     1 <1>   0.1500 
 26 H        5.2290    -0.8800     1.3350 H     1 <1>   0.1500 
 27 H        6.3960    -1.5600    -1.5990 H     1 <1>   0.0800 
 28 H        5.8590    -3.0190    -2.3540 H     1 <1>   0.0800 
 29 H        4.6350    -4.0000     2.2800 H     1 <1>   0.0800 
 30 H        4.0160    -5.5690     1.8440 H     1 <1>   0.0800 
 31 H        3.2240    -4.1330     1.2610 H     1 <1>   0.0800 
 32 H       10.2810    -3.6590    -1.5160 H     1 <1>   0.0800 
 33 H       10.1150    -4.2000     0.1230 H     1 <1>   0.0800 
 34 H        8.9580    -2.2150     1.5470 H     1 <1>   0.0800 
 35 H        7.3310    -2.0840     0.9990 H     1 <1>   0.0800 
 36 H       12.0810    -2.6910    -0.4870 H     1 <1>   0.0800 
 37 H       11.2430    -2.3110     0.9680 H     1 <1>   0.0800 
 38 H        8.0890     0.1430     1.1040 H     1 <1>   0.0800 
 39 H        8.1020    -0.2370    -0.5850 H     1 <1>   0.0800 
 40 H       10.5080    -0.9220    -1.6230 H     1 <1>   0.0800 
 41 H       11.8910    -0.4150    -0.7060 H     1 <1>   0.0800 
 42 H       10.4660    -0.0690     1.2940 H     1 <1>   0.0800 
 43 H       10.1000     0.9820    -0.0310 H     1 <1>   0.0800 
@<TRIPOS>BOND
  1   1   2  1   
  2   2   3  ar  
  3   2   4  ar  
  4   3   5  ar  
  5   3  23  1   
  6   4   6  ar  
  7   4  24  1   
  8   5   7  ar  
  9   5  25  1   
 10   6   7  ar  
 11   6  26  1   
 12   7   8  1   
 13   8   9  am  
 14   8  10  1   
 15   9  11  2   
 16   9  12  2   
 17   9  13  1   
 18  10  14  1   
 19  10  27  1   
 20  10  28  1   
 21  13  29  1   
 22  13  30  1   
 23  13  31  1   
 24  14  15  2   
 25  14  16  am  
 26  16  17  1   
 27  16  18  1   
 28  17  19  1   
 29  17  32  1   
 30  17  33  1   
 31  18  20  1   
 32  18  34  1   
 33  18  35  1   
 34  19  21  1   
 35  19  36  1   
 36  19  37  1   
 37  20  22  1   
 38  20  38  1   
 39  20  39  1   
 40  21  22  1   
 41  21  40  1   
 42  21  41  1   
 43  22  42  1   
 44  22  43  1   
@<TRIPOS>SUBSTRUCTURE
  1 ****   8 GROUP 4 **** **** 0

# MOE 2024.06 (io_trps.svl 2023.06)
