@<TRIPOS>MOLECULE
1-(4-Methoxy-3-methyl-benzenesulfonyl)-piperidine-4-carboxylic acid isopropylami
50 51 1 0 0 
SMALL
USER_CHARGES


@<TRIPOS>ATOM
  1 S        0.1560    -0.3130    -2.4230 S.o2  1 <1>   1.4470 
  2 O        0.7260    -1.4960    -3.0300 O.2   1 <1>  -0.6500 
  3 O       -0.4670     0.6880    -3.2630 O.2   1 <1>  -0.6500 
  4 N        1.4120     0.4740    -1.5970 N.am  1 <1>  -0.8490 
  5 C       -0.9630    -0.8090    -1.0850 C.ar  1 <1>  -0.0090 
  6 C        0.9740     1.7520    -1.0280 C.3   1 <1>   0.1960 
  7 C        2.5780     0.6590    -2.4650 C.3   1 <1>   0.1960 
  8 C       -2.2200    -0.2320    -0.9390 C.ar  1 <1>  -0.1500 
  9 C       -0.5790    -1.7670    -0.1550 C.ar  1 <1>  -0.1500 
 10 C        2.0780     2.3300    -0.1420 C.3   1 <1>  -0.1600 
 11 C        3.7540     1.2000    -1.6490 C.3   1 <1>  -0.1600 
 12 C       -3.0690    -0.5870     0.0960 C.ar  1 <1>  -0.1430 
 13 C       -1.4130    -2.1360     0.8850 C.ar  1 <1>  -0.1500 
 14 C        3.3850     2.5120    -0.9330 C.3   1 <1>  -0.0190 
 15 C       -2.6650    -1.5460     1.0190 C.ar  1 <1>   0.0830 
 16 C       -4.4360     0.0730     0.2130 C.3   1 <1>  -0.0970 
 17 C        4.5190     3.0160    -0.0470 C.2   1 <1>   0.5690 
 18 O       -3.5270    -1.8630     2.0200 O.3   1 <1>  -0.3630 
 19 O        5.0170     4.0870    -0.2920 O.2   1 <1>  -0.5700 
 20 N        4.9310     2.2440     0.9910 N.am  1 <1>  -0.7300 
 21 C       -3.2240    -2.8520     2.9780 C.3   1 <1>   0.0400 
 22 C        5.9980     2.5840     1.9350 C.3   1 <1>   0.2200 
 23 C        7.0820     1.5180     1.8300 C.3   1 <1>  -0.2400 
 24 C        5.3950     2.6300     3.3340 C.3   1 <1>  -0.2400 
 25 H        0.0910     1.6050    -0.4290 H     1 <1>   0.0800 
 26 H        0.7330     2.4470    -1.8180 H     1 <1>   0.0800 
 27 H        2.3340     1.3350    -3.2690 H     1 <1>   0.0800 
 28 H        2.8670    -0.2850    -2.8970 H     1 <1>   0.0800 
 29 H       -2.5340     0.5100    -1.6550 H     1 <1>   0.1500 
 30 H        0.3910    -2.2280    -0.2510 H     1 <1>   0.1500 
 31 H        2.2300     1.6670     0.6900 H     1 <1>   0.0800 
 32 H        1.7610     3.2810     0.2480 H     1 <1>   0.0800 
 33 H        4.5910     1.3710    -2.3020 H     1 <1>   0.0800 
 34 H        4.0430     0.4510    -0.9340 H     1 <1>   0.0800 
 35 H       -1.0700    -2.8820     1.5760 H     1 <1>   0.1500 
 36 H        3.2130     3.2610    -1.6870 H     1 <1>   0.0800 
 37 H       -4.5150     0.5800     1.1580 H     1 <1>   0.0800 
 38 H       -5.2060    -0.6760     0.1610 H     1 <1>   0.0800 
 39 H       -4.5960     0.7860    -0.5750 H     1 <1>   0.0800 
 40 H        4.4790     1.3460     1.1540 H     1 <1>   0.3700 
 41 H       -4.0590    -2.9330     3.6500 H     1 <1>   0.0800 
 42 H       -2.3450    -2.5540     3.5220 H     1 <1>   0.0800 
 43 H       -3.0680    -3.7900     2.4750 H     1 <1>   0.0800 
 44 H        6.4140     3.5490     1.6880 H     1 <1>   0.0800 
 45 H        6.6910     0.5470     2.0750 H     1 <1>   0.0800 
 46 H        7.8830     1.7460     2.5090 H     1 <1>   0.0800 
 47 H        7.4830     1.5020     0.8320 H     1 <1>   0.0800 
 48 H        4.9740     1.6780     3.6030 H     1 <1>   0.0800 
 49 H        4.6300     3.3850     3.3770 H     1 <1>   0.0800 
 50 H        6.1560     2.8830     4.0500 H     1 <1>   0.0800 
@<TRIPOS>BOND
  1   1   2  2   
  2   1   3  2   
  3   1   4  am  
  4   1   5  1   
  5   4   6  1   
  6   4   7  1   
  7   5   8  ar  
  8   5   9  ar  
  9   6  10  1   
 10   6  25  1   
 11   6  26  1   
 12   7  11  1   
 13   7  27  1   
 14   7  28  1   
 15   8  12  ar  
 16   8  29  1   
 17   9  13  ar  
 18   9  30  1   
 19  10  14  1   
 20  10  31  1   
 21  10  32  1   
 22  11  14  1   
 23  11  33  1   
 24  11  34  1   
 25  12  15  ar  
 26  12  16  1   
 27  13  15  ar  
 28  13  35  1   
 29  14  17  1   
 30  14  36  1   
 31  15  18  1   
 32  16  37  1   
 33  16  38  1   
 34  16  39  1   
 35  17  19  2   
 36  17  20  am  
 37  18  21  1   
 38  20  22  1   
 39  20  40  1   
 40  21  41  1   
 41  21  42  1   
 42  21  43  1   
 43  22  23  1   
 44  22  24  1   
 45  22  44  1   
 46  23  45  1   
 47  23  46  1   
 48  23  47  1   
 49  24  48  1   
 50  24  49  1   
 51  24  50  1   
@<TRIPOS>SUBSTRUCTURE
  1 ****   4 GROUP 4 **** **** 0

# MOE 2024.06 (io_trps.svl 2023.06)
