@<TRIPOS>MOLECULE
3-(2-Hydroxy-phenyl)-4,5-dihydro-isoxazole-5-carboxylic acid (2-methoxy-1-methyl
38 39 1 0 0 
SMALL
USER_CHARGES


@<TRIPOS>ATOM
  1 O        0.4060     0.3650     0.5900 O.2   1 <1>  -0.5700 
  2 C       -0.0920    -0.6250     1.0750 C.2   1 <1>   0.5690 
  3 N        0.5300    -1.8330     1.0250 N.am  1 <1>  -0.7300 
  4 C       -1.4720    -0.5180     1.7250 C.3   1 <1>   0.2610 
  5 C        1.8700    -2.0950     0.4730 C.3   1 <1>   0.2200 
  6 O       -1.6710    -1.5900     2.6260 O.3   1 <1>  -0.2170 
  7 C       -2.6070    -0.7030     0.7270 C.3   1 <1>  -0.0990 
  8 C        1.7880    -2.1700    -1.0610 C.3   1 <1>   0.1200 
  9 C        2.3780    -3.3890     1.1080 C.3   1 <1>  -0.2400 
 10 N       -2.5780    -2.4460     2.2110 N.2   1 <1>  -0.5130 
 11 C       -3.1600    -2.0390     1.1550 C.2   1 <1>   0.3030 
 12 O        3.0340    -2.5090    -1.5960 O.3   1 <1>  -0.5600 
 13 C       -4.2070    -2.7500     0.4380 C.ar  1 <1>   0.0860 
 14 C        3.0590    -2.5360    -2.9850 C.3   1 <1>   0.0400 
 15 C       -4.9320    -2.2540    -0.6640 C.ar  1 <1>   0.0820 
 16 C       -4.5420    -4.0430     0.8590 C.ar  1 <1>  -0.1500 
 17 O       -4.7190    -1.0250    -1.1630 O.3   1 <1>  -0.5320 
 18 C       -5.9130    -3.0110    -1.2900 C.ar  1 <1>  -0.1500 
 19 C       -5.5180    -4.7980     0.2380 C.ar  1 <1>  -0.1500 
 20 C       -6.2070    -4.2830    -0.8430 C.ar  1 <1>  -0.1500 
 21 H        0.0640    -2.6240     1.4840 H     1 <1>   0.3700 
 22 H       -1.5610     0.4030     2.2700 H     1 <1>   0.0800 
 23 H        2.5200    -1.2780     0.7400 H     1 <1>   0.0800 
 24 H       -2.2430    -0.7230    -0.2840 H     1 <1>   0.0800 
 25 H       -3.3400     0.0730     0.8440 H     1 <1>   0.0800 
 26 H        1.4980    -1.2090    -1.4520 H     1 <1>   0.0800 
 27 H        1.0770    -2.9200    -1.3570 H     1 <1>   0.0800 
 28 H        1.7550    -4.2190     0.8290 H     1 <1>   0.0800 
 29 H        2.4010    -3.2950     2.1790 H     1 <1>   0.0800 
 30 H        3.3790    -3.5890     0.7680 H     1 <1>   0.0800 
 31 H        4.0510    -2.8120    -3.2960 H     1 <1>   0.0800 
 32 H        2.8190    -1.5580    -3.3640 H     1 <1>   0.0800 
 33 H        2.3510    -3.2660    -3.3400 H     1 <1>   0.0800 
 34 H       -4.0230    -4.4710     1.6990 H     1 <1>   0.1500 
 35 H       -5.2940    -0.8050    -1.9190 H     1 <1>   0.4500 
 36 H       -6.4550    -2.6160    -2.1300 H     1 <1>   0.1500 
 37 H       -5.7420    -5.7890     0.5960 H     1 <1>   0.1500 
 38 H       -6.9690    -4.8700    -1.3280 H     1 <1>   0.1500 
@<TRIPOS>BOND
  1   1   2  2   
  2   2   3  am  
  3   2   4  1   
  4   3   5  1   
  5   3  21  1   
  6   4   6  1   
  7   4   7  1   
  8   4  22  1   
  9   5   8  1   
 10   5   9  1   
 11   5  23  1   
 12   6  10  1   
 13   7  11  1   
 14   7  24  1   
 15   7  25  1   
 16   8  12  1   
 17   8  26  1   
 18   8  27  1   
 19   9  28  1   
 20   9  29  1   
 21   9  30  1   
 22  10  11  2   
 23  11  13  1   
 24  12  14  1   
 25  13  15  ar  
 26  13  16  ar  
 27  14  31  1   
 28  14  32  1   
 29  14  33  1   
 30  15  17  1   
 31  15  18  ar  
 32  16  19  ar  
 33  16  34  1   
 34  17  35  1   
 35  18  20  ar  
 36  18  36  1   
 37  19  20  ar  
 38  19  37  1   
 39  20  38  1   
@<TRIPOS>SUBSTRUCTURE
  1 ****  11 GROUP 4 **** **** 0

# MOE 2024.06 (io_trps.svl 2023.06)
