@<TRIPOS>MOLECULE
1-(2,5-Dimethoxy-benzenesulfonyl)-piperidine-3-carboxylic acid (furan-2-ylmethyl
52 54 1 0 0 
SMALL
USER_CHARGES


@<TRIPOS>ATOM
  1 S        0.7000    -0.0170     0.7610 S.o2  1 <1>   1.4470 
  2 O        0.7570    -1.3380     1.3520 O.2   1 <1>  -0.6500 
  3 O        1.1340     1.0950     1.5810 O.2   1 <1>  -0.6500 
  4 N        1.7320    -0.0430    -0.5840 N.am  1 <1>  -0.8490 
  5 C       -0.9300     0.3910     0.0740 C.ar  1 <1>  -0.0090 
  6 C        3.1400     0.1750    -0.1850 C.3   1 <1>   0.1960 
  7 C        1.5550    -1.2270    -1.4240 C.3   1 <1>   0.1960 
  8 C       -1.8340    -0.5790    -0.3560 C.ar  1 <1>   0.0820 
  9 C       -1.3100     1.7210    -0.0610 C.ar  1 <1>  -0.1500 
 10 C        4.1660    -0.3390    -1.2180 C.3   1 <1>  -0.0190 
 11 C        2.2910    -1.0400    -2.7620 C.3   1 <1>  -0.1600 
 12 O       -1.5280    -1.8920    -0.2890 O.3   1 <1>  -0.3630 
 13 C       -3.0640    -0.2300    -0.8950 C.ar  1 <1>  -0.1500 
 14 C       -2.5370     2.0860    -0.5910 C.ar  1 <1>   0.0820 
 15 C        5.4940     0.3920    -1.0750 C.2   1 <1>   0.5690 
 16 C        3.6020    -0.2400    -2.6440 C.3   1 <1>  -0.1600 
 17 C       -2.0960    -2.6120     0.7830 C.3   1 <1>   0.0400 
 18 C       -3.4220     1.0990    -1.0110 C.ar  1 <1>  -0.1500 
 19 O       -2.7980     3.4150    -0.6670 O.3   1 <1>  -0.3630 
 20 O        5.5260     1.5980    -1.0820 O.2   1 <1>  -0.5700 
 21 N        6.6280    -0.3370    -0.9540 N.am  1 <1>  -0.7300 
 22 C       -4.0110     3.8940    -1.2040 C.3   1 <1>   0.0400 
 23 C        7.9750     0.2380    -0.7890 C.3   1 <1>   0.3200 
 24 C        8.8360    -0.7590    -0.0370 C.2   1 <1>  -0.0400 
 25 O        9.0180    -1.9630    -0.5490 O.3   1 <1>  -0.2800 
 26 C        9.4940    -0.6420     1.1370 C.2   1 <1>  -0.1500 
 27 C        9.7940    -2.6350     0.2790 C.2   1 <1>  -0.0100 
 28 C       10.1250    -1.8750     1.3440 C.2   1 <1>  -0.1500 
 29 H        3.3360    -0.3100     0.7580 H     1 <1>   0.0800 
 30 H        3.2740     1.2340    -0.0350 H     1 <1>   0.0800 
 31 H        0.5120    -1.3900    -1.6300 H     1 <1>   0.0800 
 32 H        1.9310    -2.0940    -0.9060 H     1 <1>   0.0800 
 33 H       -0.6370     2.5010     0.2530 H     1 <1>   0.1500 
 34 H        4.3440    -1.3770    -1.0030 H     1 <1>   0.0800 
 35 H        1.6360    -0.5370    -3.4530 H     1 <1>   0.0800 
 36 H        2.4950    -2.0140    -3.1700 H     1 <1>   0.0800 
 37 H       -3.7340    -1.0020    -1.2270 H     1 <1>   0.1500 
 38 H        4.3200    -0.5910    -3.3650 H     1 <1>   0.0800 
 39 H        3.4000     0.7980    -2.8560 H     1 <1>   0.0800 
 40 H       -3.1680    -2.5920     0.6940 H     1 <1>   0.0800 
 41 H       -1.7860    -2.1620     1.7100 H     1 <1>   0.0800 
 42 H       -1.7390    -3.6250     0.7340 H     1 <1>   0.0800 
 43 H       -4.3800     1.3440    -1.4290 H     1 <1>   0.1500 
 44 H        6.6230    -1.3580    -0.9570 H     1 <1>   0.3700 
 45 H       -3.9920     4.9680    -1.1660 H     1 <1>   0.0800 
 46 H       -4.8270     3.5220    -0.6100 H     1 <1>   0.0800 
 47 H       -4.0940     3.5660    -2.2250 H     1 <1>   0.0800 
 48 H        7.9160     1.1660    -0.2460 H     1 <1>   0.0800 
 49 H        8.4030     0.4280    -1.7580 H     1 <1>   0.0800 
 50 H        9.5450     0.2030     1.8010 H     1 <1>   0.1500 
 51 H       10.0630    -3.6480     0.0330 H     1 <1>   0.1500 
 52 H       10.7400    -2.1300     2.1890 H     1 <1>   0.1500 
@<TRIPOS>BOND
  1   1   2  2   
  2   1   3  2   
  3   1   4  am  
  4   1   5  1   
  5   4   6  1   
  6   4   7  1   
  7   5   8  ar  
  8   5   9  ar  
  9   6  10  1   
 10   6  29  1   
 11   6  30  1   
 12   7  11  1   
 13   7  31  1   
 14   7  32  1   
 15   8  12  1   
 16   8  13  ar  
 17   9  14  ar  
 18   9  33  1   
 19  10  15  1   
 20  10  16  1   
 21  10  34  1   
 22  11  16  1   
 23  11  35  1   
 24  11  36  1   
 25  12  17  1   
 26  13  18  ar  
 27  13  37  1   
 28  14  18  ar  
 29  14  19  1   
 30  15  20  2   
 31  15  21  am  
 32  16  38  1   
 33  16  39  1   
 34  17  40  1   
 35  17  41  1   
 36  17  42  1   
 37  18  43  1   
 38  19  22  1   
 39  21  23  1   
 40  21  44  1   
 41  22  45  1   
 42  22  46  1   
 43  22  47  1   
 44  23  24  1   
 45  23  48  1   
 46  23  49  1   
 47  24  25  1   
 48  24  26  2   
 49  25  27  1   
 50  26  28  1   
 51  26  50  1   
 52  27  28  2   
 53  27  51  1   
 54  28  52  1   
@<TRIPOS>SUBSTRUCTURE
  1 ****   4 GROUP 4 **** **** 0

# MOE 2024.06 (io_trps.svl 2023.06)
