@<TRIPOS>MOLECULE
N-[2-Ethoxy-5-(morpholine-4-sulfonyl)-phenyl]-2-fluoro-benzamide
49 51 1 0 0 
SMALL
USER_CHARGES


@<TRIPOS>ATOM
  1 S        0.0850    -0.1700    -1.0940 S.o2  1 <1>   1.4470 
  2 O        0.2360     0.2650    -2.4650 O.2   1 <1>  -0.6500 
  3 O        1.2000    -0.8210    -0.4410 O.2   1 <1>  -0.6500 
  4 N       -0.2810     1.2070    -0.1760 N.am  1 <1>  -0.8490 
  5 C       -1.3960    -1.2140    -0.9580 C.ar  1 <1>  -0.0090 
  6 C        0.6610     2.3050    -0.4260 C.3   1 <1>   0.1960 
  7 C       -0.3480     0.9430     1.2720 C.3   1 <1>   0.1960 
  8 C       -2.6220    -0.6830    -0.5810 C.ar  1 <1>  -0.1500 
  9 C       -1.3400    -2.5760    -1.2270 C.ar  1 <1>  -0.1500 
 10 C        0.2770     3.5530     0.3920 C.3   1 <1>   0.1200 
 11 C       -0.7260     2.2220     2.0390 C.3   1 <1>   0.1200 
 12 C       -3.7500    -1.4710    -0.4060 C.ar  1 <1>   0.1170 
 13 C       -2.4620    -3.3800    -1.1100 C.ar  1 <1>  -0.1500 
 14 O        0.1870     3.2470     1.7560 O.3   1 <1>  -0.5600 
 15 N       -4.9600    -0.9320     0.0610 N.am  1 <1>  -0.5470 
 16 C       -3.6730    -2.8340    -0.7000 C.ar  1 <1>   0.0830 
 17 C       -5.2030     0.0930     0.9450 C.2   1 <1>   0.5440 
 18 O       -4.8160    -3.5670    -0.5610 O.3   1 <1>  -0.3630 
 19 O       -4.2610     0.6830     1.4420 O.2   1 <1>  -0.5700 
 20 C       -6.5590     0.4860     1.2890 C.ar  1 <1>   0.0860 
 21 C       -4.8300    -4.9590    -0.7710 C.3   1 <1>   0.1200 
 22 C       -7.6700    -0.3590     1.2080 C.ar  1 <1>   0.1900 
 23 C       -6.8200     1.7850     1.7370 C.ar  1 <1>  -0.1500 
 24 C       -6.2460    -5.4590    -0.5000 C.3   1 <1>  -0.2400 
 25 F       -7.5270    -1.5950     0.8150 F     1 <1>  -0.1900 
 26 C       -8.9540     0.0390     1.5340 C.ar  1 <1>  -0.1500 
 27 C       -8.0980     2.2050     2.0690 C.ar  1 <1>  -0.1500 
 28 C       -9.1690     1.3340     1.9680 C.ar  1 <1>  -0.1500 
 29 H        0.6500     2.5600    -1.4720 H     1 <1>   0.0800 
 30 H        1.6620     2.0010    -0.1660 H     1 <1>   0.0800 
 31 H        0.6030     0.5850     1.6330 H     1 <1>   0.0800 
 32 H       -1.0880     0.1880     1.4780 H     1 <1>   0.0800 
 33 H       -2.7040     0.3750    -0.4090 H     1 <1>   0.1500 
 34 H       -0.4030    -3.0110    -1.5330 H     1 <1>   0.1500 
 35 H       -0.6720     3.9380     0.0630 H     1 <1>   0.0800 
 36 H        1.0230     4.3190     0.2760 H     1 <1>   0.0800 
 37 H       -0.7030     2.0420     3.0990 H     1 <1>   0.0800 
 38 H       -1.7150     2.5470     1.7640 H     1 <1>   0.0800 
 39 H       -2.3670    -4.4250    -1.3400 H     1 <1>   0.1500 
 40 H       -5.7560    -1.5550    -0.1100 H     1 <1>   0.3700 
 41 H       -4.1300    -5.4150    -0.0930 H     1 <1>   0.0800 
 42 H       -4.5470    -5.1540    -1.7910 H     1 <1>   0.0800 
 43 H       -6.0020     2.4800     1.8250 H     1 <1>   0.1500 
 44 H       -6.5260    -5.2430     0.5160 H     1 <1>   0.0800 
 45 H       -6.2920    -6.5230    -0.6490 H     1 <1>   0.0800 
 46 H       -6.9410    -4.9890    -1.1720 H     1 <1>   0.0800 
 47 H       -9.7710    -0.6560     1.4500 H     1 <1>   0.1500 
 48 H       -8.2580     3.2140     2.4090 H     1 <1>   0.1500 
 49 H      -10.1620     1.6630     2.2270 H     1 <1>   0.1500 
@<TRIPOS>BOND
  1   1   2  2   
  2   1   3  2   
  3   1   4  am  
  4   1   5  1   
  5   4   6  1   
  6   4   7  1   
  7   5   8  ar  
  8   5   9  ar  
  9   6  10  1   
 10   6  29  1   
 11   6  30  1   
 12   7  11  1   
 13   7  31  1   
 14   7  32  1   
 15   8  12  ar  
 16   8  33  1   
 17   9  13  ar  
 18   9  34  1   
 19  10  14  1   
 20  10  35  1   
 21  10  36  1   
 22  11  14  1   
 23  11  37  1   
 24  11  38  1   
 25  12  15  1   
 26  12  16  ar  
 27  13  16  ar  
 28  13  39  1   
 29  15  17  am  
 30  15  40  1   
 31  16  18  1   
 32  17  19  2   
 33  17  20  1   
 34  18  21  1   
 35  20  22  ar  
 36  20  23  ar  
 37  21  24  1   
 38  21  41  1   
 39  21  42  1   
 40  22  25  1   
 41  22  26  ar  
 42  23  27  ar  
 43  23  43  1   
 44  24  44  1   
 45  24  45  1   
 46  24  46  1   
 47  26  28  ar  
 48  26  47  1   
 49  27  28  ar  
 50  27  48  1   
 51  28  49  1   
@<TRIPOS>SUBSTRUCTURE
  1 ****   8 GROUP 4 **** **** 0

# MOE 2024.06 (io_trps.svl 2023.06)
