@<TRIPOS>MOLECULE
1-Isopropyl-1,2,3,4-tetrahydro-pyrrolo[1,2-a]pyrazine
29 30 1 0 0 
SMALL
USER_CHARGES


@<TRIPOS>ATOM
  1 N        0.0550     0.1120    -0.1250 N.pl3 1 <1>   0.0480 
  2 C        1.2040     0.7190    -0.5380 C.2   1 <1>  -0.3320 
  3 C       -0.9310     1.0420    -0.1470 C.2   1 <1>  -0.3020 
  4 C       -0.0550    -1.2740     0.3610 C.3   1 <1>   0.0960 
  5 C        0.9340     2.0240    -0.8250 C.2   1 <1>  -0.1500 
  6 C        2.5130    -0.0420    -0.6480 C.3   1 <1>   0.6030 
  7 C       -0.4260     2.2270    -0.5740 C.2   1 <1>  -0.1500 
  8 C        1.2660    -2.0240     0.1250 C.3   1 <1>   0.3430 
  9 N        2.4560    -1.1400     0.3320 N.4   1 <1>  -0.9060 
 10 C        3.7630     0.8280    -0.3730 C.3   1 <1>  -0.0800 
 11 C        5.0710     0.0590    -0.6370 C.3   1 <1>  -0.2400 
 12 C        3.8070     1.4390     1.0430 C.3   1 <1>  -0.2400 
 13 H       -1.9460     0.8250     0.1430 H     1 <1>   0.1500 
 14 H       -0.8620    -1.7680    -0.1500 H     1 <1>   0.0800 
 15 H       -0.2820    -1.2490     1.4110 H     1 <1>   0.0800 
 16 H        1.5970     2.7950    -1.1810 H     1 <1>   0.1500 
 17 H        2.5860    -0.4530    -1.6430 H     1 <1>   0.0800 
 18 H       -0.9490     3.1600    -0.7030 H     1 <1>   0.1500 
 19 H        1.2730    -2.4000    -0.8860 H     1 <1>   0.0800 
 20 H        1.3110    -2.8730     0.7880 H     1 <1>   0.0800 
 21 H        2.4040    -0.6720     1.2430 H     1 <1>   0.4500 
 22 H        3.3400    -1.6540     0.2880 H     1 <1>   0.4500 
 23 H        3.7330     1.6430    -1.0770 H     1 <1>   0.0800 
 24 H        5.2270    -0.7280     0.0790 H     1 <1>   0.0800 
 25 H        5.9090     0.7340    -0.5700 H     1 <1>   0.0800 
 26 H        5.0730    -0.3620    -1.6280 H     1 <1>   0.0800 
 27 H        3.9370     0.6890     1.8020 H     1 <1>   0.0800 
 28 H        2.9080     1.9940     1.2530 H     1 <1>   0.0800 
 29 H        4.6320     2.1270     1.1170 H     1 <1>   0.0800 
@<TRIPOS>BOND
  1   1   2  1   
  2   1   3  1   
  3   1   4  1   
  4   2   5  2   
  5   2   6  1   
  6   3   7  2   
  7   3  13  1   
  8   4   8  1   
  9   4  14  1   
 10   4  15  1   
 11   5   7  1   
 12   5  16  1   
 13   6   9  1   
 14   6  10  1   
 15   6  17  1   
 16   7  18  1   
 17   8   9  1   
 18   8  19  1   
 19   8  20  1   
 20   9  21  1   
 21   9  22  1   
 22  10  11  1   
 23  10  12  1   
 24  10  23  1   
 25  11  24  1   
 26  11  25  1   
 27  11  26  1   
 28  12  27  1   
 29  12  28  1   
 30  12  29  1   
@<TRIPOS>SUBSTRUCTURE
  1 ****   2 GROUP 4 **** **** 0

# MOE 2024.06 (io_trps.svl 2023.06)
