@<TRIPOS>MOLECULE
1-{2-[(3-Acetyl-phenyl)-methanesulfonyl-amino]-acetyl}-piperidine-4-carboxylic a
54 55 1 0 0 
SMALL
USER_CHARGES


@<TRIPOS>ATOM
  1 S        0.7730     1.2870    -3.1770 S.o2  1 <1>   1.3330 
  2 O        1.4380     0.4910    -2.1760 O.2   1 <1>  -0.6500 
  3 O        1.5140     1.8100    -4.2990 O.2   1 <1>  -0.6500 
  4 N        0.0590     2.6440    -2.3780 N.am  1 <1>  -0.6930 
  5 C       -0.6510     0.4220    -3.8000 C.3   1 <1>  -0.1350 
  6 C       -0.8270     2.4820    -1.3180 C.ar  1 <1>   0.1990 
  7 C        0.8170     3.9420    -2.4460 C.3   1 <1>   0.2570 
  8 C       -0.4190     1.9410    -0.1070 C.ar  1 <1>  -0.1500 
  9 C       -2.1440     2.8960    -1.4500 C.ar  1 <1>  -0.1500 
 10 C        1.2570     4.4900    -1.0800 C.2   1 <1>   0.5690 
 11 C       -1.2700     1.8230     0.9890 C.ar  1 <1>   0.0860 
 12 C       -3.0240     2.7720    -0.3930 C.ar  1 <1>  -0.1500 
 13 O        0.6730     5.4700    -0.6750 O.2   1 <1>  -0.5700 
 14 N        2.2450     3.8830    -0.3360 N.am  1 <1>  -0.6600 
 15 C       -0.7630     1.3050     2.2440 C.2   1 <1>   0.4230 
 16 C       -2.5920     2.2450     0.8110 C.ar  1 <1>  -0.1500 
 17 C        3.1240     2.7810    -0.8220 C.3   1 <1>   0.1400 
 18 C        2.3860     4.1780     1.1180 C.3   1 <1>   0.1400 
 19 O        0.4120     1.2070     2.4890 O.2   1 <1>  -0.5700 
 20 C       -1.7230     0.8570     3.3290 C.3   1 <1>  -0.1790 
 21 C        4.5860     3.1020    -0.5060 C.3   1 <1>  -0.1600 
 22 C        3.8420     4.5110     1.4440 C.3   1 <1>  -0.1600 
 23 C        4.7920     3.3840     0.9930 C.3   1 <1>  -0.0190 
 24 C        6.2570     3.6860     1.2970 C.2   1 <1>   0.6590 
 25 O        6.6610     4.7970     1.5280 O.2   1 <1>  -0.5700 
 26 O        7.0680     2.6350     1.2850 O.3   1 <1>  -0.4300 
 27 C        8.4450     2.7690     1.5450 C.3   1 <1>   0.1200 
 28 C        9.0830     1.3870     1.4490 C.3   1 <1>  -0.2400 
 29 H       -0.3410    -0.4450    -4.3500 H     1 <1>   0.0800 
 30 H       -1.2150     1.0590    -4.4520 H     1 <1>   0.0800 
 31 H       -1.2790     0.1090    -2.9900 H     1 <1>   0.0800 
 32 H        0.1790     4.6760    -2.9050 H     1 <1>   0.0800 
 33 H        1.6860     3.8520    -3.0690 H     1 <1>   0.0800 
 34 H        0.5980     1.6130    -0.0020 H     1 <1>   0.1500 
 35 H       -2.4710     3.3220    -2.3810 H     1 <1>   0.1500 
 36 H       -4.0460     3.0960    -0.5050 H     1 <1>   0.1500 
 37 H       -3.2960     2.1750     1.6210 H     1 <1>   0.1500 
 38 H        3.0240     2.6410    -1.8830 H     1 <1>   0.0800 
 39 H        2.8430     1.8620    -0.3360 H     1 <1>   0.0800 
 40 H        2.0710     3.3150     1.6810 H     1 <1>   0.0800 
 41 H        1.7570     5.0040     1.4040 H     1 <1>   0.0800 
 42 H       -2.1790     1.7130     3.7900 H     1 <1>   0.0800 
 43 H       -1.1900     0.3050     4.0820 H     1 <1>   0.0800 
 44 H       -2.4820     0.2210     2.9130 H     1 <1>   0.0800 
 45 H        4.8900     3.9570    -1.0840 H     1 <1>   0.0800 
 46 H        5.1970     2.2680    -0.8050 H     1 <1>   0.0800 
 47 H        3.9400     4.6650     2.5040 H     1 <1>   0.0800 
 48 H        4.1030     5.4340     0.9560 H     1 <1>   0.0800 
 49 H        4.5350     2.4960     1.5420 H     1 <1>   0.0800 
 50 H        8.5670     3.1840     2.5320 H     1 <1>   0.0800 
 51 H        8.8660     3.4410     0.8160 H     1 <1>   0.0800 
 52 H        8.6420     0.7240     2.1720 H     1 <1>   0.0800 
 53 H       10.1370     1.4590     1.6480 H     1 <1>   0.0800 
 54 H        8.9470     0.9840     0.4620 H     1 <1>   0.0800 
@<TRIPOS>BOND
  1   1   2  2   
  2   1   3  2   
  3   1   4  am  
  4   1   5  1   
  5   4   6  1   
  6   4   7  1   
  7   5  29  1   
  8   5  30  1   
  9   5  31  1   
 10   6   8  ar  
 11   6   9  ar  
 12   7  10  1   
 13   7  32  1   
 14   7  33  1   
 15   8  11  ar  
 16   8  34  1   
 17   9  12  ar  
 18   9  35  1   
 19  10  13  2   
 20  10  14  am  
 21  11  15  1   
 22  11  16  ar  
 23  12  16  ar  
 24  12  36  1   
 25  14  17  1   
 26  14  18  1   
 27  15  19  2   
 28  15  20  1   
 29  16  37  1   
 30  17  21  1   
 31  17  38  1   
 32  17  39  1   
 33  18  22  1   
 34  18  40  1   
 35  18  41  1   
 36  20  42  1   
 37  20  43  1   
 38  20  44  1   
 39  21  23  1   
 40  21  45  1   
 41  21  46  1   
 42  22  23  1   
 43  22  47  1   
 44  22  48  1   
 45  23  24  1   
 46  23  49  1   
 47  24  25  2   
 48  24  26  1   
 49  26  27  1   
 50  27  28  1   
 51  27  50  1   
 52  27  51  1   
 53  28  52  1   
 54  28  53  1   
 55  28  54  1   
@<TRIPOS>SUBSTRUCTURE
  1 ****  14 GROUP 4 **** **** 0

# MOE 2024.06 (io_trps.svl 2023.06)
