@<TRIPOS>MOLECULE
N-Cyclopentyl-4-(3-m-tolyl-[1,2,4]oxadiazol-5-yl)-butyramide
46 48 1 0 0 
SMALL
USER_CHARGES


@<TRIPOS>ATOM
  1 O       -0.1860    -2.1160     0.2930 O.2   1 <1>  -0.5700 
  2 C       -1.3460    -2.4350     0.2370 C.2   1 <1>   0.5690 
  3 N       -1.8090    -3.4380     1.0180 N.am  1 <1>  -0.7300 
  4 C       -2.2610    -1.6980    -0.7250 C.3   1 <1>  -0.0990 
  5 C       -3.1850    -3.9480     1.1610 C.3   1 <1>   0.2200 
  6 C       -2.9920    -0.5220    -0.0460 C.3   1 <1>  -0.1600 
  7 C       -3.4260    -4.3230     2.6170 C.3   1 <1>  -0.1600 
  8 C       -3.3090    -5.2760     0.4260 C.3   1 <1>  -0.1600 
  9 C       -4.0840     0.0940    -0.9420 C.3   1 <1>   0.0200 
 10 C       -2.8390    -5.7280     2.7910 C.3   1 <1>  -0.1600 
 11 C       -2.7540    -6.3350     1.3840 C.3   1 <1>  -0.1600 
 12 C       -5.2450    -0.8510    -1.2250 C.2   1 <1>   0.2980 
 13 O       -5.9850    -0.6350    -2.2800 O.3   1 <1>  -0.0190 
 14 N       -5.5770    -1.8580    -0.5290 N.2   1 <1>  -0.5650 
 15 N       -6.8490    -1.6030    -2.2640 N.2   1 <1>  -0.4100 
 16 C       -6.6080    -2.3310    -1.2320 C.2   1 <1>   0.4620 
 17 C       -7.3110    -3.5440    -0.8480 C.ar  1 <1>   0.0540 
 18 C       -7.0580    -4.1790     0.3710 C.ar  1 <1>  -0.1500 
 19 C       -8.2550    -4.1340    -1.6880 C.ar  1 <1>  -0.1500 
 20 C       -7.6960    -5.3520     0.7340 C.ar  1 <1>  -0.1440 
 21 C       -8.9030    -5.3040    -1.3350 C.ar  1 <1>  -0.1500 
 22 C       -8.6220    -5.9150    -0.1270 C.ar  1 <1>  -0.1500 
 23 C       -7.3740    -6.0110     2.0630 C.3   1 <1>  -0.0970 
 24 H       -1.1130    -3.9180     1.5890 H     1 <1>   0.3700 
 25 H       -2.9580    -2.4020    -1.1390 H     1 <1>   0.0800 
 26 H       -1.6650    -1.3260    -1.5380 H     1 <1>   0.0800 
 27 H       -3.9000    -3.2240     0.8160 H     1 <1>   0.0800 
 28 H       -2.2670     0.2330     0.2040 H     1 <1>   0.0800 
 29 H       -3.4380    -0.8560     0.8750 H     1 <1>   0.0800 
 30 H       -4.4870    -4.3670     2.7840 H     1 <1>   0.0800 
 31 H       -3.0010    -3.6060     3.2990 H     1 <1>   0.0800 
 32 H       -2.8000    -5.2660    -0.5220 H     1 <1>   0.0800 
 33 H       -4.3520    -5.4740     0.2520 H     1 <1>   0.0800 
 34 H       -3.6460     0.3960    -1.8770 H     1 <1>   0.0800 
 35 H       -4.4790     0.9730    -0.4660 H     1 <1>   0.0800 
 36 H       -3.4580    -6.3240     3.4390 H     1 <1>   0.0800 
 37 H       -1.8520    -5.6640     3.2170 H     1 <1>   0.0800 
 38 H       -1.7240    -6.5380     1.1420 H     1 <1>   0.0800 
 39 H       -3.3150    -7.2500     1.3130 H     1 <1>   0.0800 
 40 H       -6.3450    -3.7440     1.0470 H     1 <1>   0.1500 
 41 H       -8.4830    -3.6720    -2.6330 H     1 <1>   0.1500 
 42 H       -9.6260    -5.7400    -2.0020 H     1 <1>   0.1500 
 43 H       -9.1280    -6.8270     0.1380 H     1 <1>   0.1500 
 44 H       -6.4510    -6.5580     1.9840 H     1 <1>   0.0800 
 45 H       -8.1560    -6.6900     2.3510 H     1 <1>   0.0800 
 46 H       -7.2720    -5.2660     2.8320 H     1 <1>   0.0800 
@<TRIPOS>BOND
  1   1   2  2   
  2   2   3  am  
  3   2   4  1   
  4   3   5  1   
  5   3  24  1   
  6   4   6  1   
  7   4  25  1   
  8   4  26  1   
  9   5   7  1   
 10   5   8  1   
 11   5  27  1   
 12   6   9  1   
 13   6  28  1   
 14   6  29  1   
 15   7  10  1   
 16   7  30  1   
 17   7  31  1   
 18   8  11  1   
 19   8  32  1   
 20   8  33  1   
 21   9  12  1   
 22   9  34  1   
 23   9  35  1   
 24  10  11  1   
 25  10  36  1   
 26  10  37  1   
 27  11  38  1   
 28  11  39  1   
 29  12  13  1   
 30  12  14  2   
 31  13  15  1   
 32  14  16  1   
 33  15  16  2   
 34  16  17  1   
 35  17  18  ar  
 36  17  19  ar  
 37  18  20  ar  
 38  18  40  1   
 39  19  21  ar  
 40  19  41  1   
 41  20  22  ar  
 42  20  23  1   
 43  21  22  ar  
 44  21  42  1   
 45  22  43  1   
 46  23  44  1   
 47  23  45  1   
 48  23  46  1   
@<TRIPOS>SUBSTRUCTURE
  1 ****  14 GROUP 4 **** **** 0

# MOE 2024.06 (io_trps.svl 2023.06)
