@<TRIPOS>MOLECULE
1-(2-Chloro-benzyl)-piperidine-4-carboxylic acid
33 34 1 0 0 
SMALL
USER_CHARGES


@<TRIPOS>ATOM
  1 CL      -1.1210     1.0220    -2.3580 Cl    1 <1>  -0.1770 
  2 C       -1.9950     1.1980    -0.8560 C.ar  1 <1>   0.1770 
  3 C       -2.5180     0.0780    -0.2270 C.ar  1 <1>  -0.1440 
  4 C       -2.1360     2.4630    -0.3170 C.ar  1 <1>  -0.1500 
  5 C       -3.2000     0.2440     0.9710 C.ar  1 <1>  -0.1500 
  6 C       -2.3520    -1.2970    -0.8430 C.3   1 <1>   0.4870 
  7 C       -2.8150     2.6160     0.8790 C.ar  1 <1>  -0.1500 
  8 C       -3.3450     1.5080     1.5200 C.ar  1 <1>  -0.1500 
  9 N       -1.2990    -2.0440    -0.1120 N.4   1 <1>  -0.9590 
 10 C        0.0510    -1.4290    -0.2700 C.3   1 <1>   0.3430 
 11 C       -1.2750    -3.4820    -0.4920 C.3   1 <1>   0.3430 
 12 C        1.0170    -2.1060     0.6930 C.3   1 <1>  -0.1600 
 13 C       -0.3600    -4.2310     0.4660 C.3   1 <1>  -0.1600 
 14 C        1.0600    -3.6330     0.4950 C.3   1 <1>  -0.1860 
 15 C        1.8910    -4.2910     1.5840 C.2   1 <1>   0.9060 
 16 O        2.9060    -4.9020     1.2530 O.co2 1 <1>  -0.9000 
 17 O        1.5000    -4.1820     2.7490 O.co2 1 <1>  -0.9000 
 18 H       -1.7220     3.3160    -0.8260 H     1 <1>   0.1500 
 19 H       -3.6270    -0.5990     1.4900 H     1 <1>   0.1500 
 20 H       -2.0920    -1.2150    -1.8860 H     1 <1>   0.0800 
 21 H       -3.2890    -1.8250    -0.7720 H     1 <1>   0.0800 
 22 H       -2.9340     3.5970     1.3110 H     1 <1>   0.1500 
 23 H       -3.8750     1.6350     2.4500 H     1 <1>   0.1500 
 24 H       -1.5040    -2.0030     0.8940 H     1 <1>   0.4500 
 25 H        0.0130    -0.3750    -0.0460 H     1 <1>   0.0800 
 26 H        0.4000    -1.5530    -1.2820 H     1 <1>   0.0800 
 27 H       -0.9080    -3.5920    -1.5000 H     1 <1>   0.0800 
 28 H       -2.2660    -3.9020    -0.4360 H     1 <1>   0.0800 
 29 H        0.7280    -1.8790     1.7060 H     1 <1>   0.0800 
 30 H        2.0070    -1.7070     0.5520 H     1 <1>   0.0800 
 31 H       -0.2970    -5.2650     0.1740 H     1 <1>   0.0800 
 32 H       -0.7830    -4.2080     1.4570 H     1 <1>   0.0800 
 33 H        1.5440    -3.8460    -0.4420 H     1 <1>   0.0800 
@<TRIPOS>BOND
  1   1   2  1   
  2   2   3  ar  
  3   2   4  ar  
  4   3   5  ar  
  5   3   6  1   
  6   4   7  ar  
  7   4  18  1   
  8   5   8  ar  
  9   5  19  1   
 10   6   9  1   
 11   6  20  1   
 12   6  21  1   
 13   7   8  ar  
 14   7  22  1   
 15   8  23  1   
 16   9  10  1   
 17   9  11  1   
 18   9  24  1   
 19  10  12  1   
 20  10  25  1   
 21  10  26  1   
 22  11  13  1   
 23  11  27  1   
 24  11  28  1   
 25  12  14  1   
 26  12  29  1   
 27  12  30  1   
 28  13  14  1   
 29  13  31  1   
 30  13  32  1   
 31  14  15  1   
 32  14  33  1   
 33  15  16  ar  
 34  15  17  ar  
@<TRIPOS>SUBSTRUCTURE
  1 ****   9 GROUP 4 **** **** 0

# MOE 2024.06 (io_trps.svl 2023.06)
