@<TRIPOS>MOLECULE
1-Ethyl-2,3-dihydro-1H-indole-5-carbaldehyde
26 27 1 0 0 
SMALL
USER_CHARGES


@<TRIPOS>ATOM
  1 O        0.1970     0.0040     0.2330 O.2   1 <1>  -0.5700 
  2 C        0.8370    -1.0190     0.2730 C.2   1 <1>   0.4240 
  3 C        2.2680    -1.1150     0.1890 C.ar  1 <1>   0.0860 
  4 C        3.0680     0.0230     0.0380 C.ar  1 <1>  -0.1500 
  5 C        2.9120    -2.3580     0.2550 C.ar  1 <1>  -0.1500 
  6 C        4.4390    -0.0960    -0.0380 C.ar  1 <1>  -0.1440 
  7 C        4.2880    -2.4680     0.1780 C.ar  1 <1>  -0.1500 
  8 C        5.0600    -1.3230     0.0350 C.ar  1 <1>   0.1000 
  9 C        5.4750     0.9900    -0.2030 C.3   1 <1>  -0.0160 
 10 N        6.4300    -1.2170    -0.0560 N.pl3 1 <1>  -0.8380 
 11 C        6.8060     0.2220    -0.1370 C.3   1 <1>   0.2090 
 12 C        7.3550    -2.1490     0.6250 C.3   1 <1>   0.2090 
 13 C        8.2030    -2.8410    -0.4340 C.3   1 <1>  -0.2400 
 14 H        0.2940    -1.9400     0.3810 H     1 <1>   0.0600 
 15 H        2.6020     0.9910    -0.0200 H     1 <1>   0.1500 
 16 H        2.3240    -3.2510     0.3660 H     1 <1>   0.1500 
 17 H        4.7710    -3.4260     0.2180 H     1 <1>   0.1500 
 18 H        5.4100     1.7150     0.5870 H     1 <1>   0.0800 
 19 H        5.3660     1.4740    -1.1560 H     1 <1>   0.0800 
 20 H        7.3610     0.5120     0.7380 H     1 <1>   0.0800 
 21 H        7.3970     0.3960    -1.0200 H     1 <1>   0.0800 
 22 H        6.7970    -2.8790     1.1860 H     1 <1>   0.0800 
 23 H        7.9850    -1.6090     1.3120 H     1 <1>   0.0800 
 24 H        7.5670    -3.3780    -1.1150 H     1 <1>   0.0800 
 25 H        8.8760    -3.5350     0.0330 H     1 <1>   0.0800 
 26 H        8.7760    -2.1150    -0.9810 H     1 <1>   0.0800 
@<TRIPOS>BOND
  1   1   2  2   
  2   2   3  1   
  3   2  14  1   
  4   3   4  ar  
  5   3   5  ar  
  6   4   6  ar  
  7   4  15  1   
  8   5   7  ar  
  9   5  16  1   
 10   6   8  ar  
 11   6   9  1   
 12   7   8  ar  
 13   7  17  1   
 14   8  10  1   
 15   9  11  1   
 16   9  18  1   
 17   9  19  1   
 18  10  11  1   
 19  10  12  1   
 20  11  20  1   
 21  11  21  1   
 22  12  13  1   
 23  12  22  1   
 24  12  23  1   
 25  13  24  1   
 26  13  25  1   
 27  13  26  1   
@<TRIPOS>SUBSTRUCTURE
  1 ****   8 GROUP 4 **** **** 0

# MOE 2024.06 (io_trps.svl 2023.06)
