@<TRIPOS>MOLECULE
tert-Butyl-(3-phenyl-[1,2,4]oxadiazol-5-ylmethyl)-amine
35 36 1 0 0 
SMALL
USER_CHARGES


@<TRIPOS>ATOM
  1 O       -0.4110    -1.7480    -2.7460 O.3   1 <1>  -0.0190 
  2 N       -1.6780    -1.5820    -2.5480 N.2   1 <1>  -0.4100 
  3 C        0.0940    -1.7530    -1.5440 C.2   1 <1>   0.2980 
  4 C       -1.8850    -1.4960    -1.2810 C.2   1 <1>   0.4620 
  5 N       -0.7370    -1.6050    -0.5940 N.2   1 <1>  -0.5650 
  6 C        1.5990    -1.9310    -1.3920 C.3   1 <1>   0.5230 
  7 C       -3.1770    -1.3070    -0.6420 C.ar  1 <1>   0.0540 
  8 N        1.9850    -1.9090     0.0570 N.4   1 <1>  -0.9060 
  9 C       -3.3100    -1.2250     0.7470 C.ar  1 <1>  -0.1500 
 10 C       -4.3470    -1.1980    -1.3980 C.ar  1 <1>  -0.1500 
 11 C        3.3960    -2.0670     0.3940 C.3   1 <1>   0.5030 
 12 C       -4.5420    -1.0440     1.3480 C.ar  1 <1>  -0.1500 
 13 C       -5.5820    -1.0180    -0.8030 C.ar  1 <1>  -0.1500 
 14 C        3.4830    -2.0050     1.9150 C.3   1 <1>  -0.2400 
 15 C        3.8940    -3.4220    -0.1040 C.3   1 <1>  -0.2400 
 16 C        4.2010    -0.9240    -0.2220 C.3   1 <1>  -0.2400 
 17 C       -5.6820    -0.9400     0.5730 C.ar  1 <1>  -0.1500 
 18 H        2.0960    -1.1350    -1.9200 H     1 <1>   0.0800 
 19 H        1.8820    -2.8690    -1.8380 H     1 <1>   0.0800 
 20 H        1.4420    -2.6380     0.5330 H     1 <1>   0.4500 
 21 H        1.6390    -1.0310     0.4570 H     1 <1>   0.4500 
 22 H       -2.4380    -1.3030     1.3710 H     1 <1>   0.1500 
 23 H       -4.2920    -1.2560    -2.4720 H     1 <1>   0.1500 
 24 H       -4.6180    -0.9840     2.4200 H     1 <1>   0.1500 
 25 H       -6.4670    -0.9380    -1.4110 H     1 <1>   0.1500 
 26 H        2.9170    -2.7990     2.3700 H     1 <1>   0.0800 
 27 H        3.1300    -1.0600     2.2880 H     1 <1>   0.0800 
 28 H        4.5070    -2.1160     2.2280 H     1 <1>   0.0800 
 29 H        3.2970    -4.2250     0.2910 H     1 <1>   0.0800 
 30 H        4.9070    -3.5770     0.2270 H     1 <1>   0.0800 
 31 H        3.9020    -3.4770    -1.1780 H     1 <1>   0.0800 
 32 H        3.8200     0.0330     0.0900 H     1 <1>   0.0800 
 33 H        4.2090    -0.9720    -1.2960 H     1 <1>   0.0800 
 34 H        5.2250    -0.9880     0.1050 H     1 <1>   0.0800 
 35 H       -6.6430    -0.8000     1.0390 H     1 <1>   0.1500 
@<TRIPOS>BOND
  1   1   2  1   
  2   1   3  1   
  3   2   4  2   
  4   3   5  2   
  5   3   6  1   
  6   4   5  1   
  7   4   7  1   
  8   6   8  1   
  9   6  18  1   
 10   6  19  1   
 11   7   9  ar  
 12   7  10  ar  
 13   8  11  1   
 14   8  20  1   
 15   8  21  1   
 16   9  12  ar  
 17   9  22  1   
 18  10  13  ar  
 19  10  23  1   
 20  11  14  1   
 21  11  15  1   
 22  11  16  1   
 23  12  17  ar  
 24  12  24  1   
 25  13  17  ar  
 26  13  25  1   
 27  14  26  1   
 28  14  27  1   
 29  14  28  1   
 30  15  29  1   
 31  15  30  1   
 32  15  31  1   
 33  16  32  1   
 34  16  33  1   
 35  16  34  1   
 36  17  35  1   
@<TRIPOS>SUBSTRUCTURE
  1 ****   5 GROUP 4 **** **** 0

# MOE 2024.06 (io_trps.svl 2023.06)
