@<TRIPOS>MOLECULE
N-Isopropyl-4-(3-phenyl-[1,2,4]oxadiazol-5-yl)-butyramide
39 40 1 0 0 
SMALL
USER_CHARGES


@<TRIPOS>ATOM
  1 O       -0.5120    -0.7580    -1.0830 O.2   1 <1>  -0.5700 
  2 C       -1.1730    -1.6210    -0.5630 C.2   1 <1>   0.5690 
  3 N       -0.5900    -2.7970    -0.2390 N.am  1 <1>  -0.7300 
  4 C       -2.6480    -1.3780    -0.2710 C.3   1 <1>  -0.0990 
  5 C       -1.1580    -3.9600     0.4530 C.3   1 <1>   0.2200 
  6 C       -3.2680    -0.2330    -1.0980 C.3   1 <1>  -0.1600 
  7 C       -0.1220    -4.4690     1.4480 C.3   1 <1>  -0.2400 
  8 C       -1.4960    -5.0210    -0.5880 C.3   1 <1>  -0.2400 
  9 C       -4.7520    -0.0020    -0.7680 C.3   1 <1>   0.0200 
 10 C       -5.5980    -1.2380    -1.0150 C.2   1 <1>   0.2980 
 11 O       -5.7930    -1.6340    -2.2450 O.3   1 <1>  -0.0190 
 12 N       -6.1390    -1.9530    -0.1180 N.2   1 <1>  -0.5650 
 13 N       -6.5210    -2.6990    -2.1200 N.2   1 <1>  -0.4100 
 14 C       -6.7300    -2.8920    -0.8650 C.2   1 <1>   0.4620 
 15 C       -7.5000    -3.9840    -0.2910 C.ar  1 <1>   0.0540 
 16 C       -8.0790    -4.9640    -1.1000 C.ar  1 <1>  -0.1500 
 17 C       -7.6930    -4.1030     1.0870 C.ar  1 <1>  -0.1500 
 18 C       -8.8110    -6.0090    -0.5640 C.ar  1 <1>  -0.1500 
 19 C       -8.4230    -5.1440     1.6300 C.ar  1 <1>  -0.1500 
 20 C       -8.9840    -6.1010     0.8050 C.ar  1 <1>  -0.1500 
 21 H        0.3920    -2.8820    -0.5010 H     1 <1>   0.3700 
 22 H       -2.7470    -1.1600     0.7760 H     1 <1>   0.0800 
 23 H       -3.1830    -2.2860    -0.4780 H     1 <1>   0.0800 
 24 H       -2.0510    -3.6760     0.9860 H     1 <1>   0.0800 
 25 H       -3.1640    -0.4590    -2.1460 H     1 <1>   0.0800 
 26 H       -2.7240     0.6770    -0.9070 H     1 <1>   0.0800 
 27 H        0.7780    -4.7720     0.9430 H     1 <1>   0.0800 
 28 H       -0.5150    -5.3170     1.9810 H     1 <1>   0.0800 
 29 H        0.1110    -3.7010     2.1630 H     1 <1>   0.0800 
 30 H       -0.6150    -5.3180    -1.1290 H     1 <1>   0.0800 
 31 H       -2.2240    -4.6390    -1.2820 H     1 <1>   0.0800 
 32 H       -1.9120    -5.8870    -0.1080 H     1 <1>   0.0800 
 33 H       -5.1340     0.8030    -1.3700 H     1 <1>   0.0800 
 34 H       -4.8480     0.2850     0.2640 H     1 <1>   0.0800 
 35 H       -7.9540    -4.9080    -2.1680 H     1 <1>   0.1500 
 36 H       -7.2650    -3.3670     1.7450 H     1 <1>   0.1500 
 37 H       -9.2460    -6.7500    -1.2120 H     1 <1>   0.1500 
 38 H       -8.5560    -5.2110     2.6970 H     1 <1>   0.1500 
 39 H       -9.5530    -6.9120     1.2250 H     1 <1>   0.1500 
@<TRIPOS>BOND
  1   1   2  2   
  2   2   3  am  
  3   2   4  1   
  4   3   5  1   
  5   3  21  1   
  6   4   6  1   
  7   4  22  1   
  8   4  23  1   
  9   5   7  1   
 10   5   8  1   
 11   5  24  1   
 12   6   9  1   
 13   6  25  1   
 14   6  26  1   
 15   7  27  1   
 16   7  28  1   
 17   7  29  1   
 18   8  30  1   
 19   8  31  1   
 20   8  32  1   
 21   9  10  1   
 22   9  33  1   
 23   9  34  1   
 24  10  11  1   
 25  10  12  2   
 26  11  13  1   
 27  12  14  1   
 28  13  14  2   
 29  14  15  1   
 30  15  16  ar  
 31  15  17  ar  
 32  16  18  ar  
 33  16  35  1   
 34  17  19  ar  
 35  17  36  1   
 36  18  20  ar  
 37  18  37  1   
 38  19  20  ar  
 39  19  38  1   
 40  20  39  1   
@<TRIPOS>SUBSTRUCTURE
  1 ****  12 GROUP 4 **** **** 0

# MOE 2024.06 (io_trps.svl 2023.06)
