@<TRIPOS>MOLECULE
2-(2-Methyl-benzylamino)-5-propyl-4H-[1,2,4]triazolo[1,5-a]pyrimidin-7-one
41 43 1 0 0 
SMALL
USER_CHARGES


@<TRIPOS>ATOM
  1 O       -0.3410    -0.2950    -1.9300 O.2   1 <1>  -0.5700 
  2 C       -0.5200    -1.3230    -1.2900 C.2   1 <1>   0.5650 
  3 N       -1.7930    -1.9210    -1.1480 N.pl3 1 <1>   0.5610 
  4 C        0.5720    -1.9720    -0.6400 C.2   1 <1>  -0.1360 
  5 N       -3.0260    -1.5910    -1.6070 N.2   1 <1>  -0.7070 
  6 C       -1.9360    -3.0470    -0.4080 C.2   1 <1>   0.2700 
  7 C        0.4130    -3.1080     0.0960 C.2   1 <1>  -0.0380 
  8 C       -3.7500    -2.5350    -1.1220 C.2   1 <1>   0.5990 
  9 N       -3.1480    -3.4550    -0.3640 N.2   1 <1>  -0.5650 
 10 N       -0.8500    -3.6440     0.2140 N.pl3 1 <1>  -0.5840 
 11 C        1.5190    -3.8680     0.8230 C.3   1 <1>  -0.0220 
 12 N       -5.0920    -2.6450    -1.3330 N.pl3 1 <1>  -0.8520 
 13 C        2.9180    -3.2510     0.6790 C.3   1 <1>  -0.1600 
 14 C       -5.8690    -1.3980    -1.2340 C.3   1 <1>   0.3530 
 15 C        3.9690    -4.0710     1.4350 C.3   1 <1>  -0.2400 
 16 C       -7.0440    -1.6500    -0.2990 C.ar  1 <1>  -0.1430 
 17 C       -6.9420    -1.4950     1.0820 C.ar  1 <1>  -0.1430 
 18 C       -8.2510    -2.0550    -0.8530 C.ar  1 <1>  -0.1500 
 19 C       -8.0520    -1.7380     1.8790 C.ar  1 <1>  -0.1500 
 20 C       -5.6410    -1.0690     1.7470 C.3   1 <1>  -0.0970 
 21 C       -9.3510    -2.2960    -0.0520 C.ar  1 <1>  -0.1500 
 22 C       -9.2520    -2.1360     1.3170 C.ar  1 <1>  -0.1500 
 23 H        1.5250    -1.4970    -0.7750 H     1 <1>   0.1500 
 24 H       -1.0430    -4.5020     0.7450 H     1 <1>   0.4000 
 25 H        1.5440    -4.8760     0.4450 H     1 <1>   0.0800 
 26 H        1.2680    -3.9170     1.8680 H     1 <1>   0.0800 
 27 H       -5.4640    -3.3150    -0.6590 H     1 <1>   0.4000 
 28 H        2.9120    -2.2470     1.0690 H     1 <1>   0.0800 
 29 H        3.1900    -3.2110    -0.3620 H     1 <1>   0.0800 
 30 H       -6.2220    -1.1280    -2.2140 H     1 <1>   0.0800 
 31 H       -5.2650    -0.5860    -0.8680 H     1 <1>   0.0800 
 32 H        3.7360    -4.1100     2.4850 H     1 <1>   0.0800 
 33 H        4.9390    -3.6190     1.3200 H     1 <1>   0.0800 
 34 H        4.0140    -5.0750     1.0520 H     1 <1>   0.0800 
 35 H       -8.3360    -2.1880    -1.9180 H     1 <1>   0.1500 
 36 H       -7.9890    -1.6210     2.9460 H     1 <1>   0.1500 
 37 H       -4.8530    -1.7560     1.4970 H     1 <1>   0.0800 
 38 H       -5.7410    -1.0540     2.8170 H     1 <1>   0.0800 
 39 H       -5.3640    -0.0820     1.4220 H     1 <1>   0.0800 
 40 H      -10.2820    -2.6080    -0.4920 H     1 <1>   0.1500 
 41 H      -10.1050    -2.3210     1.9450 H     1 <1>   0.1500 
@<TRIPOS>BOND
  1   1   2  2   
  2   2   3  1   
  3   2   4  1   
  4   3   5  1   
  5   3   6  1   
  6   4   7  2   
  7   4  23  1   
  8   5   8  2   
  9   6   9  2   
 10   6  10  1   
 11   7  10  1   
 12   7  11  1   
 13   8   9  1   
 14   8  12  1   
 15  10  24  1   
 16  11  13  1   
 17  11  25  1   
 18  11  26  1   
 19  12  14  1   
 20  12  27  1   
 21  13  15  1   
 22  13  28  1   
 23  13  29  1   
 24  14  16  1   
 25  14  30  1   
 26  14  31  1   
 27  15  32  1   
 28  15  33  1   
 29  15  34  1   
 30  16  17  ar  
 31  16  18  ar  
 32  17  19  ar  
 33  17  20  1   
 34  18  21  ar  
 35  18  35  1   
 36  19  22  ar  
 37  19  36  1   
 38  20  37  1   
 39  20  38  1   
 40  20  39  1   
 41  21  22  ar  
 42  21  40  1   
 43  22  41  1   
@<TRIPOS>SUBSTRUCTURE
  1 ****   8 GROUP 4 **** **** 0

# MOE 2024.06 (io_trps.svl 2023.06)
