@<TRIPOS>MOLECULE
N-Ethyl-4-[3-(4-methyl-piperidin-1-yl)-3-oxo-propyl]-benzenesulfonamide
49 50 1 0 0 
SMALL
USER_CHARGES


@<TRIPOS>ATOM
  1 S        0.0580    -0.3990     0.2650 S.o2  1 <1>   1.4470 
  2 O       -0.2400    -1.4850    -0.6410 O.2   1 <1>  -0.6500 
  3 O        0.0640    -0.6230     1.6920 O.2   1 <1>  -0.6500 
  4 N       -1.1440     0.7250    -0.0570 N.am  1 <1>  -0.9140 
  5 C        1.5750     0.4540    -0.2390 C.ar  1 <1>  -0.0090 
  6 C       -2.3680     0.4580     0.6680 C.3   1 <1>   0.1960 
  7 C        2.4670    -0.1260    -1.1340 C.ar  1 <1>  -0.1500 
  8 C        1.8880     1.7080     0.2690 C.ar  1 <1>  -0.1500 
  9 C       -3.4270     1.4390     0.1840 C.3   1 <1>  -0.2400 
 10 C        3.6300     0.5240    -1.5090 C.ar  1 <1>  -0.1500 
 11 C        3.0490     2.3640    -0.1010 C.ar  1 <1>  -0.1500 
 12 C        3.9280     1.7730    -0.9930 C.ar  1 <1>  -0.1430 
 13 C        5.2110     2.4840    -1.3900 C.3   1 <1>  -0.0170 
 14 C        6.3370     2.1270    -0.4080 C.3   1 <1>  -0.0990 
 15 C        7.6680     2.7930    -0.7260 C.2   1 <1>   0.5690 
 16 O        7.7160     3.5480    -1.6690 O.2   1 <1>  -0.5700 
 17 N        8.7720     2.5320     0.0480 N.am  1 <1>  -0.6600 
 18 C        8.7990     1.6440     1.2450 C.3   1 <1>   0.1400 
 19 C       10.0970     3.1300    -0.2780 C.3   1 <1>   0.1400 
 20 C        9.8060     0.5110     1.0200 C.3   1 <1>  -0.1600 
 21 C       11.1210     2.0150    -0.5130 C.3   1 <1>  -0.1600 
 22 C       11.2030     1.0570     0.6860 C.3   1 <1>  -0.0800 
 23 C       12.1760    -0.0910     0.3950 C.3   1 <1>  -0.2400 
 24 H       -1.3480     0.5760    -1.0420 H     1 <1>   0.4200 
 25 H       -2.2020     0.5910     1.7260 H     1 <1>   0.0800 
 26 H       -2.6920    -0.5560     0.4940 H     1 <1>   0.0800 
 27 H        2.2500    -1.0980    -1.5430 H     1 <1>   0.1500 
 28 H        1.2130     2.1760     0.9650 H     1 <1>   0.1500 
 29 H       -3.1030     2.4500     0.3590 H     1 <1>   0.0800 
 30 H       -4.3410     1.2760     0.7260 H     1 <1>   0.0800 
 31 H       -3.6230     1.2980    -0.8640 H     1 <1>   0.0800 
 32 H        4.3030     0.0510    -2.2040 H     1 <1>   0.1500 
 33 H        3.2650     3.3360     0.3090 H     1 <1>   0.1500 
 34 H        5.0530     3.5490    -1.3900 H     1 <1>   0.0800 
 35 H        5.4950     2.1980    -2.3880 H     1 <1>   0.0800 
 36 H        6.4780     1.0630    -0.4210 H     1 <1>   0.0800 
 37 H        6.0380     2.4210     0.5810 H     1 <1>   0.0800 
 38 H        7.8310     1.2250     1.4500 H     1 <1>   0.0800 
 39 H        9.0950     2.2260     2.1010 H     1 <1>   0.0800 
 40 H       10.4120     3.7530     0.5410 H     1 <1>   0.0800 
 41 H       10.0330     3.7480    -1.1580 H     1 <1>   0.0800 
 42 H        9.4520    -0.1110     0.2170 H     1 <1>   0.0800 
 43 H        9.8570    -0.0940     1.9080 H     1 <1>   0.0800 
 44 H       12.0850     2.4580    -0.6920 H     1 <1>   0.0800 
 45 H       10.8390     1.4750    -1.4000 H     1 <1>   0.0800 
 46 H       11.5700     1.6060     1.5370 H     1 <1>   0.0800 
 47 H       11.8440    -0.6640    -0.4530 H     1 <1>   0.0800 
 48 H       12.2480    -0.7450     1.2450 H     1 <1>   0.0800 
 49 H       13.1570     0.2970     0.1830 H     1 <1>   0.0800 
@<TRIPOS>BOND
  1   1   2  2   
  2   1   3  2   
  3   1   4  am  
  4   1   5  1   
  5   4   6  1   
  6   4  24  1   
  7   5   7  ar  
  8   5   8  ar  
  9   6   9  1   
 10   6  25  1   
 11   6  26  1   
 12   7  10  ar  
 13   7  27  1   
 14   8  11  ar  
 15   8  28  1   
 16   9  29  1   
 17   9  30  1   
 18   9  31  1   
 19  10  12  ar  
 20  10  32  1   
 21  11  12  ar  
 22  11  33  1   
 23  12  13  1   
 24  13  14  1   
 25  13  34  1   
 26  13  35  1   
 27  14  15  1   
 28  14  36  1   
 29  14  37  1   
 30  15  16  2   
 31  15  17  am  
 32  17  18  1   
 33  17  19  1   
 34  18  20  1   
 35  18  38  1   
 36  18  39  1   
 37  19  21  1   
 38  19  40  1   
 39  19  41  1   
 40  20  22  1   
 41  20  42  1   
 42  20  43  1   
 43  21  22  1   
 44  21  44  1   
 45  21  45  1   
 46  22  23  1   
 47  22  46  1   
 48  23  47  1   
 49  23  48  1   
 50  23  49  1   
@<TRIPOS>SUBSTRUCTURE
  1 ****  12 GROUP 4 **** **** 0

# MOE 2024.06 (io_trps.svl 2023.06)
