@<TRIPOS>MOLECULE
1-Amino-3-(4-chloro-3-methyl-phenoxy)-propan-2-ol
29 29 1 0 0 
SMALL
USER_CHARGES


@<TRIPOS>ATOM
  1 CL       0.2340     0.2010     0.8600 Cl    1 <1>  -0.1770 
  2 C        1.6200    -0.8170     0.5420 C.ar  1 <1>   0.1770 
  3 C        2.7670    -0.2820    -0.0280 C.ar  1 <1>  -0.1440 
  4 C        1.5370    -2.1570     0.8740 C.ar  1 <1>  -0.1500 
  5 C        3.8420    -1.1250    -0.2620 C.ar  1 <1>  -0.1500 
  6 C        2.8490     1.1930    -0.3930 C.3   1 <1>  -0.0960 
  7 C        2.6160    -2.9900     0.6370 C.ar  1 <1>  -0.1500 
  8 C        3.7770    -2.4720     0.0660 C.ar  1 <1>   0.0830 
  9 O        4.8810    -3.2160    -0.1980 O.3   1 <1>  -0.3630 
 10 C        4.9070    -4.6040     0.0530 C.3   1 <1>   0.1200 
 11 C        6.2920    -5.1240    -0.3450 C.3   1 <1>   0.2000 
 12 O        6.4540    -6.4370     0.1120 O.3   1 <1>  -0.6800 
 13 C        7.4110    -4.2490     0.2630 C.3   1 <1>   0.3430 
 14 N        8.6630    -5.0440     0.4140 N.4   1 <1>  -0.8530 
 15 H        0.6320    -2.5360     1.3140 H     1 <1>   0.1500 
 16 H        4.7420    -0.7400    -0.7050 H     1 <1>   0.1500 
 17 H        2.0750     1.4410    -1.0970 H     1 <1>   0.0800 
 18 H        3.8000     1.4320    -0.8330 H     1 <1>   0.0800 
 19 H        2.7200     1.7960     0.4890 H     1 <1>   0.0800 
 20 H        2.5250    -4.0260     0.9030 H     1 <1>   0.1500 
 21 H        4.1360    -5.0680    -0.5370 H     1 <1>   0.0800 
 22 H        4.7290    -4.7550     1.1040 H     1 <1>   0.0800 
 23 H        6.3750    -5.1360    -1.4190 H     1 <1>   0.0800 
 24 H        5.7600    -7.0280    -0.2590 H     1 <1>   0.4000 
 25 H        7.0810    -3.9130     1.2320 H     1 <1>   0.0800 
 26 H        7.5720    -3.3750    -0.3470 H     1 <1>   0.0800 
 27 H        8.3530    -5.9940     0.6810 H     1 <1>   0.4500 
 28 H        9.2860    -4.6730     1.1380 H     1 <1>   0.4500 
 29 H        9.1680    -5.1340    -0.4730 H     1 <1>   0.4500 
@<TRIPOS>BOND
  1   1   2  1   
  2   2   3  ar  
  3   2   4  ar  
  4   3   5  ar  
  5   3   6  1   
  6   4   7  ar  
  7   4  15  1   
  8   5   8  ar  
  9   5  16  1   
 10   6  17  1   
 11   6  18  1   
 12   6  19  1   
 13   7   8  ar  
 14   7  20  1   
 15   8   9  1   
 16   9  10  1   
 17  10  11  1   
 18  10  21  1   
 19  10  22  1   
 20  11  12  1   
 21  11  13  1   
 22  11  23  1   
 23  12  24  1   
 24  13  14  1   
 25  13  25  1   
 26  13  26  1   
 27  14  27  1   
 28  14  28  1   
 29  14  29  1   
@<TRIPOS>SUBSTRUCTURE
  1 ****   8 GROUP 4 **** **** 0

# MOE 2024.06 (io_trps.svl 2023.06)
