@<TRIPOS>MOLECULE
4-(3,4,5-Trimethyl-pyrazole-1-sulfonyl)-morpholine
34 35 1 0 0 
SMALL
USER_CHARGES


@<TRIPOS>ATOM
  1 S       -0.2480     0.6280    -0.9740 S.o2  1 <1>   1.4240 
  2 O       -0.3770     2.0060    -1.4150 O.2   1 <1>  -0.6500 
  3 O       -0.7120    -0.3890    -1.8990 O.2   1 <1>  -0.6500 
  4 N       -1.2170     0.5060     0.4290 N.am  1 <1>  -0.8490 
  5 N        1.4460     0.2930    -0.4210 N.pl3 1 <1>   0.5840 
  6 C       -1.3170    -0.8620     0.9850 C.3   1 <1>   0.1960 
  7 C       -2.5640     1.0850     0.2690 C.3   1 <1>   0.1960 
  8 N        1.9530    -0.9720    -0.2300 N.2   1 <1>  -0.7070 
  9 C        2.3940     1.2040    -0.0200 C.2   1 <1>  -0.3320 
 10 C       -2.3720    -1.7470     0.2820 C.3   1 <1>   0.1200 
 11 C       -3.5370     0.1380    -0.4610 C.3   1 <1>   0.1200 
 12 C        3.1470    -0.8190     0.2350 C.2   1 <1>   0.1080 
 13 C        3.4850     0.5190     0.3900 C.2   1 <1>  -0.1810 
 14 C        2.1830     2.7140    -0.0490 C.3   1 <1>  -0.0600 
 15 O       -3.6040    -1.0870     0.2090 O.3   1 <1>  -0.5600 
 16 C        4.0410    -1.9940     0.5620 C.3   1 <1>  -0.0590 
 17 C        4.8160     1.0280     0.9180 C.3   1 <1>  -0.0590 
 18 H       -1.5940    -0.7860     2.0220 H     1 <1>   0.0800 
 19 H       -0.3610    -1.3540     0.9510 H     1 <1>   0.0800 
 20 H       -2.5120     2.0240    -0.2540 H     1 <1>   0.0800 
 21 H       -2.9700     1.2900     1.2450 H     1 <1>   0.0800 
 22 H       -2.5210    -2.6520     0.8420 H     1 <1>   0.0800 
 23 H       -2.0640    -2.0170    -0.7120 H     1 <1>   0.0800 
 24 H       -3.2270    -0.0340    -1.4780 H     1 <1>   0.0800 
 25 H       -4.5260     0.5600    -0.4700 H     1 <1>   0.0800 
 26 H        1.3060     2.9800     0.5140 H     1 <1>   0.0800 
 27 H        2.0600     3.0540    -1.0620 H     1 <1>   0.0800 
 28 H        3.0190     3.2350     0.3790 H     1 <1>   0.0800 
 29 H        3.4960    -2.9130     0.4460 H     1 <1>   0.0800 
 30 H        4.3870    -1.9210     1.5760 H     1 <1>   0.0800 
 31 H        4.8840    -2.0050    -0.1040 H     1 <1>   0.0800 
 32 H        4.8900     2.0950     0.8300 H     1 <1>   0.0800 
 33 H        5.6230     0.5890     0.3600 H     1 <1>   0.0800 
 34 H        4.9230     0.7600     1.9540 H     1 <1>   0.0800 
@<TRIPOS>BOND
  1   1   2  2   
  2   1   3  2   
  3   1   4  am  
  4   1   5  1   
  5   4   6  1   
  6   4   7  1   
  7   5   8  1   
  8   5   9  1   
  9   6  10  1   
 10   6  18  1   
 11   6  19  1   
 12   7  11  1   
 13   7  20  1   
 14   7  21  1   
 15   8  12  2   
 16   9  13  2   
 17   9  14  1   
 18  10  15  1   
 19  10  22  1   
 20  10  23  1   
 21  11  15  1   
 22  11  24  1   
 23  11  25  1   
 24  12  13  1   
 25  12  16  1   
 26  13  17  1   
 27  14  26  1   
 28  14  27  1   
 29  14  28  1   
 30  16  29  1   
 31  16  30  1   
 32  16  31  1   
 33  17  32  1   
 34  17  33  1   
 35  17  34  1   
@<TRIPOS>SUBSTRUCTURE
  1 ****   5 GROUP 4 **** **** 0

# MOE 2024.06 (io_trps.svl 2023.06)
