@<TRIPOS>MOLECULE
3,6-Bis-(pyrrolidine-1-sulfonyl)-1H-benzo[cd]indol-2-one
50 54 1 0 0 
SMALL
USER_CHARGES


@<TRIPOS>ATOM
  1 S       -0.0270    -0.4150     0.8800 S.o2  1 <1>   1.4470 
  2 O        0.0810    -1.8370     1.1260 O.2   1 <1>  -0.6500 
  3 O        0.1800     0.5020     1.9790 O.2   1 <1>  -0.6500 
  4 N        1.1370    -0.0410    -0.2930 N.am  1 <1>  -0.8490 
  5 C       -1.6040    -0.0150     0.0730 C.ar  1 <1>  -0.0090 
  6 C        1.2930    -1.0300    -1.3480 C.3   1 <1>   0.1960 
  7 C        2.4670     0.1390     0.2630 C.3   1 <1>   0.1960 
  8 C       -2.8060    -0.6470     0.4950 C.ar  1 <1>   0.0000 
  9 C       -1.6630     0.9290    -0.9410 C.ar  1 <1>  -0.1500 
 10 C        2.6010    -0.6450    -2.0260 C.3   1 <1>  -0.1600 
 11 C        3.4010     0.0780    -0.9410 C.3   1 <1>  -0.1600 
 12 C       -3.9710    -0.2910    -0.1850 C.ar  1 <1>   0.0000 
 13 C       -3.0080    -1.5960     1.5210 C.ar  1 <1>  -0.1500 
 14 C       -2.8540     1.2690    -1.5990 C.ar  1 <1>  -0.1500 
 15 C       -5.2500    -0.8010     0.0650 C.ar  1 <1>   0.0860 
 16 C       -4.0090     0.6440    -1.2140 C.ar  1 <1>   0.1170 
 17 C       -4.2560    -2.1150     1.7860 C.ar  1 <1>  -0.1500 
 18 C       -5.4070    -1.7360     1.0650 C.ar  1 <1>  -0.0090 
 19 C       -6.0950    -0.1240    -0.8880 C.2   1 <1>   0.5440 
 20 N       -5.3250     0.7240    -1.6300 N.am  1 <1>  -0.5470 
 21 S       -7.0220    -2.4550     1.4500 S.o2  1 <1>   1.4470 
 22 O       -7.2880    -0.2230    -1.0730 O.2   1 <1>  -0.5700 
 23 O       -7.9640    -1.3950     1.7320 O.2   1 <1>  -0.6500 
 24 O       -6.8410    -3.4930     2.4430 O.2   1 <1>  -0.6500 
 25 N       -7.4590    -3.2180     0.0010 N.am  1 <1>  -0.8490 
 26 C       -8.8450    -3.0160    -0.3840 C.3   1 <1>   0.1960 
 27 C       -7.2350    -4.6510    -0.0600 C.3   1 <1>   0.1960 
 28 C       -9.0850    -4.0360    -1.4920 C.3   1 <1>  -0.1600 
 29 C       -7.9920    -5.0910    -1.3060 C.3   1 <1>  -0.1600 
 30 H        0.4630    -1.0100    -2.0340 H     1 <1>   0.0800 
 31 H        1.3910    -2.0190    -0.9280 H     1 <1>   0.0800 
 32 H        2.6910    -0.6690     0.9430 H     1 <1>   0.0800 
 33 H        2.5430     1.0780     0.7870 H     1 <1>   0.0800 
 34 H       -0.7640     1.4360    -1.2500 H     1 <1>   0.1500 
 35 H        2.3990     0.0240    -2.8450 H     1 <1>   0.0800 
 36 H        3.1130    -1.5140    -2.3990 H     1 <1>   0.0800 
 37 H        4.3050    -0.4470    -0.6890 H     1 <1>   0.0800 
 38 H        3.6500     1.0750    -1.2600 H     1 <1>   0.0800 
 39 H       -2.1730    -1.9260     2.1160 H     1 <1>   0.1500 
 40 H       -2.8550     2.0040    -2.3850 H     1 <1>   0.1500 
 41 H       -4.3660    -2.8400     2.5760 H     1 <1>   0.1500 
 42 H       -5.7240     1.3200    -2.3560 H     1 <1>   0.3700 
 43 H       -9.0140    -2.0070    -0.7220 H     1 <1>   0.0800 
 44 H       -9.4910    -3.2230     0.4540 H     1 <1>   0.0800 
 45 H       -7.6620    -5.1320     0.8060 H     1 <1>   0.0800 
 46 H       -6.1840    -4.8800    -0.1190 H     1 <1>   0.0800 
 47 H       -8.9840    -3.5570    -2.4500 H     1 <1>   0.0800 
 48 H      -10.0710    -4.4560    -1.4110 H     1 <1>   0.0800 
 49 H       -8.3960    -6.0800    -1.1820 H     1 <1>   0.0800 
 50 H       -7.3250    -5.0850    -2.1500 H     1 <1>   0.0800 
@<TRIPOS>BOND
  1   1   2  2   
  2   1   3  2   
  3   1   4  am  
  4   1   5  1   
  5   4   6  1   
  6   4   7  1   
  7   5   8  ar  
  8   5   9  ar  
  9   6  10  1   
 10   6  30  1   
 11   6  31  1   
 12   7  11  1   
 13   7  32  1   
 14   7  33  1   
 15   8  12  ar  
 16   8  13  ar  
 17   9  14  ar  
 18   9  34  1   
 19  10  11  1   
 20  10  35  1   
 21  10  36  1   
 22  11  37  1   
 23  11  38  1   
 24  12  15  ar  
 25  12  16  ar  
 26  13  17  ar  
 27  13  39  1   
 28  14  16  ar  
 29  14  40  1   
 30  15  18  ar  
 31  15  19  1   
 32  16  20  1   
 33  17  18  ar  
 34  17  41  1   
 35  18  21  1   
 36  19  20  am  
 37  19  22  2   
 38  20  42  1   
 39  21  23  2   
 40  21  24  2   
 41  21  25  am  
 42  25  26  1   
 43  25  27  1   
 44  26  28  1   
 45  26  43  1   
 46  26  44  1   
 47  27  29  1   
 48  27  45  1   
 49  27  46  1   
 50  28  29  1   
 51  28  47  1   
 52  28  48  1   
 53  29  49  1   
 54  29  50  1   
@<TRIPOS>SUBSTRUCTURE
  1 ****  12 GROUP 4 **** **** 0

# MOE 2024.06 (io_trps.svl 2023.06)
