@<TRIPOS>MOLECULE
N-{2-[(Tetrahydro-furan-2-ylmethyl)-carbamoyl]-phenyl}-succinamic acid methyl es
46 47 1 0 0 
SMALL
USER_CHARGES


@<TRIPOS>ATOM
  1 O       -3.9150    -1.4200    -1.2120 O.2   1 <1>  -0.5700 
  2 C       -3.3390    -0.9780    -0.2370 C.2   1 <1>   0.5440 
  3 N       -3.7140     0.2280     0.2740 N.am  1 <1>  -0.7300 
  4 C       -2.2210    -1.6760     0.3430 C.ar  1 <1>   0.0860 
  5 C       -4.4700     1.2580    -0.4760 C.3   1 <1>   0.1400 
  6 C       -0.9700    -1.6450    -0.2860 C.ar  1 <1>   0.1170 
  7 C       -2.3490    -2.3680     1.5460 C.ar  1 <1>  -0.1500 
  8 C       -3.5130     2.3810    -0.9100 C.3   1 <1>   0.2000 
  9 N       -0.7870    -0.9490    -1.4850 N.am  1 <1>  -0.5470 
 10 C        0.1080    -2.3040     0.2930 C.ar  1 <1>  -0.1500 
 11 C       -1.2700    -3.0160     2.1160 C.ar  1 <1>  -0.1500 
 12 O       -2.7440     2.8100     0.1780 O.3   1 <1>  -0.5600 
 13 C       -4.2040     3.6330    -1.4270 C.3   1 <1>  -0.1600 
 14 C       -0.4010     0.3420    -1.6680 C.2   1 <1>   0.5690 
 15 C       -0.0370    -2.9840     1.4860 C.ar  1 <1>  -0.1500 
 16 C       -2.4280     4.1660     0.0730 C.3   1 <1>   0.1200 
 17 C       -3.1650     4.7000    -1.1510 C.3   1 <1>  -0.1600 
 18 O       -0.4280     0.8310    -2.7670 O.2   1 <1>  -0.5700 
 19 C        0.0540     1.1940    -0.5000 C.3   1 <1>  -0.0990 
 20 C        1.5720     1.1080    -0.2890 C.3   1 <1>  -0.0990 
 21 C        2.0090     1.9120     0.9150 C.2   1 <1>   0.6590 
 22 O        2.4180     1.3770     1.9120 O.2   1 <1>  -0.5700 
 23 O        1.9050     3.2310     0.8060 O.3   1 <1>  -0.4300 
 24 C        2.2720     4.0900     1.8650 C.3   1 <1>   0.0400 
 25 H       -3.1260     0.6540     0.9980 H     1 <1>   0.3700 
 26 H       -5.2410     1.6600     0.1570 H     1 <1>   0.0800 
 27 H       -4.9390     0.8250    -1.3440 H     1 <1>   0.0800 
 28 H       -3.3090    -2.3940     2.0320 H     1 <1>   0.1500 
 29 H       -2.8330     2.0090    -1.6580 H     1 <1>   0.0800 
 30 H       -1.2410    -1.3440    -2.3130 H     1 <1>   0.3700 
 31 H        1.0640    -2.2850    -0.1990 H     1 <1>   0.1500 
 32 H       -1.3840    -3.5470     3.0460 H     1 <1>   0.1500 
 33 H       -5.0960     3.8250    -0.8580 H     1 <1>   0.0800 
 34 H       -4.4520     3.5530    -2.4710 H     1 <1>   0.0800 
 35 H        0.8060    -3.4890     1.9280 H     1 <1>   0.1500 
 36 H       -1.3610     4.2720    -0.0220 H     1 <1>   0.0800 
 37 H       -2.7650     4.6510     0.9730 H     1 <1>   0.0800 
 38 H       -3.6010     5.6670    -0.9690 H     1 <1>   0.0800 
 39 H       -2.4750     4.7730    -1.9740 H     1 <1>   0.0800 
 40 H       -0.4630     0.9000     0.3950 H     1 <1>   0.0800 
 41 H       -0.2150     2.2140    -0.7060 H     1 <1>   0.0800 
 42 H        2.0830     1.4800    -1.1580 H     1 <1>   0.0800 
 43 H        1.8630     0.0850    -0.1390 H     1 <1>   0.0800 
 44 H        2.1100     5.1060     1.5520 H     1 <1>   0.0800 
 45 H        3.3110     3.9330     2.0960 H     1 <1>   0.0800 
 46 H        1.6630     3.8640     2.7230 H     1 <1>   0.0800 
@<TRIPOS>BOND
  1   1   2  2   
  2   2   3  am  
  3   2   4  1   
  4   3   5  1   
  5   3  25  1   
  6   4   6  ar  
  7   4   7  ar  
  8   5   8  1   
  9   5  26  1   
 10   5  27  1   
 11   6   9  1   
 12   6  10  ar  
 13   7  11  ar  
 14   7  28  1   
 15   8  12  1   
 16   8  13  1   
 17   8  29  1   
 18   9  14  am  
 19   9  30  1   
 20  10  15  ar  
 21  10  31  1   
 22  11  15  ar  
 23  11  32  1   
 24  12  16  1   
 25  13  17  1   
 26  13  33  1   
 27  13  34  1   
 28  14  18  2   
 29  14  19  1   
 30  15  35  1   
 31  16  17  1   
 32  16  36  1   
 33  16  37  1   
 34  17  38  1   
 35  17  39  1   
 36  19  20  1   
 37  19  40  1   
 38  19  41  1   
 39  20  21  1   
 40  20  42  1   
 41  20  43  1   
 42  21  22  2   
 43  21  23  1   
 44  23  24  1   
 45  24  44  1   
 46  24  45  1   
 47  24  46  1   
@<TRIPOS>SUBSTRUCTURE
  1 ****  19 GROUP 4 **** **** 0

# MOE 2024.06 (io_trps.svl 2023.06)
