@<TRIPOS>MOLECULE
2-(2-Dimethylamino-ethylsulfanyl)-4-methoxymethyl-6-methyl-nicotinonitrile
38 38 1 0 0 
SMALL
USER_CHARGES


@<TRIPOS>ATOM
  1 S        0.2860    -0.0510    -0.4350 S.3   1 <1>  -0.3320 
  2 C       -1.2530     0.8800    -0.4830 C.ar  1 <1>   0.4120 
  3 C       -0.1960    -1.8090    -0.7210 C.3   1 <1>   0.0700 
  4 N       -2.3390     0.1300    -0.6240 N.ar  1 <1>  -0.6200 
  5 C       -1.2100     2.2680    -0.3720 C.ar  1 <1>   0.0730 
  6 C       -0.8710    -2.3190     0.5570 C.3   1 <1>   0.3430 
  7 C       -3.4750     0.8040    -0.6700 C.ar  1 <1>   0.1660 
  8 C        0.0380     2.9570    -0.2200 C.1   1 <1>   0.4840 
  9 C       -2.4220     2.9450    -0.4210 C.ar  1 <1>  -0.1440 
 10 N       -1.5180    -3.6580     0.3630 N.4   1 <1>  -0.9590 
 11 C       -3.5640     2.1830    -0.5720 C.ar  1 <1>  -0.1500 
 12 C       -4.7350    -0.0210    -0.8400 C.3   1 <1>  -0.0970 
 13 N        1.0190     3.5320    -0.1310 N.1   1 <1>  -0.5570 
 14 C       -2.5080     4.4580    -0.2940 C.3   1 <1>   0.2640 
 15 C       -2.3510    -3.9950     1.5580 C.3   1 <1>   0.2630 
 16 C       -0.5230    -4.7430     0.0900 C.3   1 <1>   0.2630 
 17 O       -2.3100     4.7680     1.0450 O.3   1 <1>  -0.5600 
 18 C       -2.1550     6.1260     1.3020 C.3   1 <1>   0.0400 
 19 H        0.7090    -2.3450    -0.9410 H     1 <1>   0.0800 
 20 H       -0.8610    -1.8180    -1.5660 H     1 <1>   0.0800 
 21 H       -1.6230    -1.6060     0.8510 H     1 <1>   0.0800 
 22 H       -0.1390    -2.3720     1.3470 H     1 <1>   0.0800 
 23 H       -2.1520    -3.5730    -0.4480 H     1 <1>   0.4500 
 24 H       -4.5270     2.6630    -0.6080 H     1 <1>   0.1500 
 25 H       -4.6720    -0.5940    -1.7470 H     1 <1>   0.0800 
 26 H       -5.6050     0.6070    -0.8930 H     1 <1>   0.0800 
 27 H       -4.8450    -0.6910    -0.0090 H     1 <1>   0.0800 
 28 H       -3.4770     4.8230    -0.5880 H     1 <1>   0.0800 
 29 H       -1.7470     4.9390    -0.8850 H     1 <1>   0.0800 
 30 H       -1.7320    -4.0770     2.4360 H     1 <1>   0.0800 
 31 H       -2.8620    -4.9330     1.4060 H     1 <1>   0.0800 
 32 H       -3.0890    -3.2270     1.7270 H     1 <1>   0.0800 
 33 H        0.1660    -4.8360     0.9130 H     1 <1>   0.0800 
 34 H        0.0360    -4.5260    -0.8060 H     1 <1>   0.0800 
 35 H       -1.0270    -5.6870    -0.0450 H     1 <1>   0.0800 
 36 H       -2.0330     6.2530     2.3640 H     1 <1>   0.0800 
 37 H       -3.0310     6.6560     0.9720 H     1 <1>   0.0800 
 38 H       -1.2760     6.4870     0.7950 H     1 <1>   0.0800 
@<TRIPOS>BOND
  1   1   2  1   
  2   1   3  1   
  3   2   4  ar  
  4   2   5  ar  
  5   3   6  1   
  6   3  19  1   
  7   3  20  1   
  8   4   7  ar  
  9   5   8  1   
 10   5   9  ar  
 11   6  10  1   
 12   6  21  1   
 13   6  22  1   
 14   7  11  ar  
 15   7  12  1   
 16   8  13  3   
 17   9  11  ar  
 18   9  14  1   
 19  10  15  1   
 20  10  16  1   
 21  10  23  1   
 22  11  24  1   
 23  12  25  1   
 24  12  26  1   
 25  12  27  1   
 26  14  17  1   
 27  14  28  1   
 28  14  29  1   
 29  15  30  1   
 30  15  31  1   
 31  15  32  1   
 32  16  33  1   
 33  16  34  1   
 34  16  35  1   
 35  17  18  1   
 36  18  36  1   
 37  18  37  1   
 38  18  38  1   
@<TRIPOS>SUBSTRUCTURE
  1 ****   2 GROUP 4 **** **** 0

# MOE 2024.06 (io_trps.svl 2023.06)
