@<TRIPOS>MOLECULE
3,4-Dimethoxy-N-[2-(morpholine-4-carbonyl)-phenyl]-benzenesulfonamide
50 52 1 0 0 
SMALL
USER_CHARGES


@<TRIPOS>ATOM
  1 S        0.1020    -0.9240    -1.1270 S.o2  1 <1>   1.4470 
  2 O       -0.0950    -1.9630    -0.1430 O.2   1 <1>  -0.6500 
  3 O        0.3850    -1.2410    -2.5050 O.2   1 <1>  -0.6500 
  4 N        1.4250     0.0360    -0.5930 N.am  1 <1>  -0.7570 
  5 C       -1.2560     0.2690    -1.0160 C.ar  1 <1>  -0.0090 
  6 C        2.7290    -0.3740    -0.3400 C.ar  1 <1>   0.1990 
  7 C       -1.9250     0.4770     0.1840 C.ar  1 <1>  -0.1500 
  8 C       -1.6390     1.0280    -2.1130 C.ar  1 <1>  -0.1500 
  9 C        3.7600     0.5820    -0.3680 C.ar  1 <1>   0.0860 
 10 C        3.0500    -1.7030    -0.0660 C.ar  1 <1>  -0.1500 
 11 C       -2.9570     1.4050     0.3080 C.ar  1 <1>   0.0830 
 12 C       -2.6560     1.9580    -2.0130 C.ar  1 <1>  -0.1500 
 13 C        3.4650     1.9780    -0.6090 C.2   1 <1>   0.5440 
 14 C        5.0750     0.1590    -0.1640 C.ar  1 <1>  -0.1500 
 15 C        4.3550    -2.0960     0.1500 C.ar  1 <1>  -0.1500 
 16 O       -3.6060     1.5700     1.4970 O.3   1 <1>  -0.3620 
 17 C       -3.3230     2.1660    -0.8180 C.ar  1 <1>   0.0830 
 18 O        2.7700     2.2890    -1.5620 O.2   1 <1>  -0.5700 
 19 N        3.9190     2.9790     0.2230 N.am  1 <1>  -0.6600 
 20 C        5.3750    -1.1630     0.0960 C.ar  1 <1>  -0.1500 
 21 C       -3.3950     0.7180     2.6040 C.3   1 <1>   0.0400 
 22 O       -4.2940     3.1220    -0.8830 O.3   1 <1>  -0.3630 
 23 C        3.8230     4.4200    -0.1560 C.3   1 <1>   0.1400 
 24 C        4.3160     2.7770     1.6490 C.3   1 <1>   0.1400 
 25 C       -4.9480     3.6470     0.2490 C.3   1 <1>   0.0400 
 26 C        5.0820     5.1820     0.2920 C.3   1 <1>   0.1200 
 27 C        5.5560     3.6210     1.9850 C.3   1 <1>   0.1200 
 28 O        5.3400     4.9630     1.6520 O.3   1 <1>  -0.5600 
 29 H        1.4130     0.9200    -1.1140 H     1 <1>   0.4200 
 30 H       -1.6110    -0.1130     1.0240 H     1 <1>   0.1500 
 31 H       -1.1380     0.8920    -3.0580 H     1 <1>   0.1500 
 32 H        2.2800    -2.4500    -0.0230 H     1 <1>   0.1500 
 33 H       -2.9410     2.5380    -2.8730 H     1 <1>   0.1500 
 34 H        5.8690     0.8830    -0.2140 H     1 <1>   0.1500 
 35 H        4.5800    -3.1290     0.3560 H     1 <1>   0.1500 
 36 H        6.3940    -1.4720     0.2540 H     1 <1>   0.1500 
 37 H       -4.0780     1.0070     3.3820 H     1 <1>   0.0800 
 38 H       -2.3820     0.8360     2.9480 H     1 <1>   0.0800 
 39 H       -3.5880    -0.2970     2.3070 H     1 <1>   0.0800 
 40 H        2.9570     4.8540     0.3140 H     1 <1>   0.0800 
 41 H        3.7100     4.5210    -1.2210 H     1 <1>   0.0800 
 42 H        4.5180     1.7430     1.8560 H     1 <1>   0.0800 
 43 H        3.5050     3.0860     2.2850 H     1 <1>   0.0800 
 44 H       -5.5640     4.4670    -0.0700 H     1 <1>   0.0800 
 45 H       -4.2090     3.9940     0.9500 H     1 <1>   0.0800 
 46 H       -5.5610     2.8780     0.6840 H     1 <1>   0.0800 
 47 H        4.9460     6.2390     0.1490 H     1 <1>   0.0800 
 48 H        5.9380     4.8630    -0.2770 H     1 <1>   0.0800 
 49 H        6.4170     3.2660     1.4460 H     1 <1>   0.0800 
 50 H        5.7640     3.5750     3.0390 H     1 <1>   0.0800 
@<TRIPOS>BOND
  1   1   2  2   
  2   1   3  2   
  3   1   4  am  
  4   1   5  1   
  5   4   6  1   
  6   4  29  1   
  7   5   7  ar  
  8   5   8  ar  
  9   6   9  ar  
 10   6  10  ar  
 11   7  11  ar  
 12   7  30  1   
 13   8  12  ar  
 14   8  31  1   
 15   9  13  1   
 16   9  14  ar  
 17  10  15  ar  
 18  10  32  1   
 19  11  16  1   
 20  11  17  ar  
 21  12  17  ar  
 22  12  33  1   
 23  13  18  2   
 24  13  19  am  
 25  14  20  ar  
 26  14  34  1   
 27  15  20  ar  
 28  15  35  1   
 29  16  21  1   
 30  17  22  1   
 31  19  23  1   
 32  19  24  1   
 33  20  36  1   
 34  21  37  1   
 35  21  38  1   
 36  21  39  1   
 37  22  25  1   
 38  23  26  1   
 39  23  40  1   
 40  23  41  1   
 41  24  27  1   
 42  24  42  1   
 43  24  43  1   
 44  25  44  1   
 45  25  45  1   
 46  25  46  1   
 47  26  28  1   
 48  26  47  1   
 49  26  48  1   
 50  27  28  1   
 51  27  49  1   
 52  27  50  1   
@<TRIPOS>SUBSTRUCTURE
  1 ****   4 GROUP 4 **** **** 0

# MOE 2024.06 (io_trps.svl 2023.06)
