@<TRIPOS>MOLECULE
[2-(2-Fluoro-phenyl)-ethyl]-(6-methyl-5,6,7,8-tetrahydro-[1,2,4]triazolo[5,1-b]q
45 48 1 0 0 
SMALL
USER_CHARGES


@<TRIPOS>ATOM
  1 F       -1.9380    -0.9780    -2.0240 F     1 <1>  -0.1900 
  2 C       -1.6380    -1.4530    -0.8430 C.ar  1 <1>   0.1900 
  3 C       -2.1930    -0.8680     0.2870 C.ar  1 <1>  -0.1440 
  4 C       -0.7790    -2.5340    -0.7790 C.ar  1 <1>  -0.1500 
  5 C       -1.8570    -1.4040     1.5220 C.ar  1 <1>  -0.1500 
  6 C       -3.1430     0.3190     0.1900 C.3   1 <1>  -0.0160 
  7 C       -0.4570    -3.0540     0.4620 C.ar  1 <1>  -0.1500 
  8 C       -0.9960    -2.4890     1.6070 C.ar  1 <1>  -0.1500 
  9 C       -4.5300    -0.1530    -0.2440 C.3   1 <1>   0.2090 
 10 N       -5.4780     0.9910    -0.2620 N.pl3 1 <1>  -0.8690 
 11 C       -6.8170     1.0360    -0.0100 C.2   1 <1>   0.4790 
 12 N       -7.2860     2.2500     0.3920 N.pl3 1 <1>  -0.3220 
 13 C       -7.7540     0.0160    -0.1130 C.2   1 <1>  -0.1240 
 14 N       -6.6350     3.4530     0.5620 N.2   1 <1>  -0.2600 
 15 C       -8.5750     2.3920     0.7130 C.cat 1 <1>   0.9620 
 16 C       -9.0810     0.2890     0.2550 C.2   1 <1>   0.3750 
 17 C       -7.3670    -1.3740    -0.6280 C.3   1 <1>  -0.0220 
 18 C       -7.5500     4.2540     0.9710 C.2   1 <1>   0.5030 
 19 N       -9.5040     1.4580     0.6720 N.2   1 <1>  -0.6120 
 20 N       -8.7590     3.6450     1.0800 N.pl3 1 <1>  -0.7000 
 21 C      -10.1720    -0.7720     0.1730 C.3   1 <1>  -0.0990 
 22 C       -8.5620    -2.2260    -1.0620 C.3   1 <1>  -0.1600 
 23 C       -9.6450    -2.2040     0.0170 C.3   1 <1>  -0.0800 
 24 C      -10.7860    -3.1660    -0.3360 C.3   1 <1>  -0.2400 
 25 H       -0.3730    -2.9540    -1.6810 H     1 <1>   0.1500 
 26 H       -2.2590    -0.9840     2.4280 H     1 <1>   0.1500 
 27 H       -2.7580     1.0260    -0.5240 H     1 <1>   0.0800 
 28 H       -3.2110     0.8050     1.1470 H     1 <1>   0.0800 
 29 H        0.2110    -3.8950     0.5390 H     1 <1>   0.1500 
 30 H       -0.7430    -2.8950     2.5720 H     1 <1>   0.1500 
 31 H       -4.8700    -0.9030     0.4490 H     1 <1>   0.0800 
 32 H       -4.4690    -0.5870    -1.2280 H     1 <1>   0.0800 
 33 H       -5.0040     1.9010    -0.2990 H     1 <1>   0.4000 
 34 H       -6.8470    -1.9010     0.1530 H     1 <1>   0.0800 
 35 H       -6.7050    -1.2820    -1.4720 H     1 <1>   0.0800 
 36 H       -7.3950     5.2970     1.2070 H     1 <1>   0.1500 
 37 H       -9.6600     4.0150     1.3730 H     1 <1>   0.4500 
 38 H      -10.8010    -0.5300    -0.6660 H     1 <1>   0.0800 
 39 H      -10.7830    -0.7230     1.0580 H     1 <1>   0.0800 
 40 H       -8.2320    -3.2370    -1.2320 H     1 <1>   0.0800 
 41 H       -8.9610    -1.8510    -1.9900 H     1 <1>   0.0800 
 42 H       -9.2130    -2.5230     0.9520 H     1 <1>   0.0800 
 43 H      -11.2380    -2.8990    -1.2760 H     1 <1>   0.0800 
 44 H      -11.5440    -3.1450     0.4270 H     1 <1>   0.0800 
 45 H      -10.4150    -4.1730    -0.4120 H     1 <1>   0.0800 
@<TRIPOS>BOND
  1   1   2  1   
  2   2   3  ar  
  3   2   4  ar  
  4   3   5  ar  
  5   3   6  1   
  6   4   7  ar  
  7   4  25  1   
  8   5   8  ar  
  9   5  26  1   
 10   6   9  1   
 11   6  27  1   
 12   6  28  1   
 13   7   8  ar  
 14   7  29  1   
 15   8  30  1   
 16   9  10  1   
 17   9  31  1   
 18   9  32  1   
 19  10  11  1   
 20  10  33  1   
 21  11  12  1   
 22  11  13  2   
 23  12  14  1   
 24  12  15  ar  
 25  13  16  1   
 26  13  17  1   
 27  14  18  2   
 28  15  19  1   
 29  15  20  ar  
 30  16  19  2   
 31  16  21  1   
 32  17  22  1   
 33  17  34  1   
 34  17  35  1   
 35  18  20  1   
 36  18  36  1   
 37  20  37  1   
 38  21  23  1   
 39  21  38  1   
 40  21  39  1   
 41  22  23  1   
 42  22  40  1   
 43  22  41  1   
 44  23  24  1   
 45  23  42  1   
 46  24  43  1   
 47  24  44  1   
 48  24  45  1   
@<TRIPOS>SUBSTRUCTURE
  1 ****  10 GROUP 4 **** **** 0

# MOE 2024.06 (io_trps.svl 2023.06)
