@<TRIPOS>MOLECULE
N-(5-Methoxymethyl-[1,3,4]thiadiazol-2-yl)-4-p-tolyloxy-butyramide
41 42 1 0 0 
SMALL
USER_CHARGES


@<TRIPOS>ATOM
  1 S        0.1930    -0.7920    -0.2400 S.3   1 <1>  -0.0800 
  2 C        1.1910     0.4950     0.3670 C.2   1 <1>   0.4420 
  3 C        1.4560    -1.8860     0.2120 C.2   1 <1>   0.1980 
  4 N        2.3130     0.0640     0.8110 N.2   1 <1>  -0.3380 
  5 N        0.7960     1.8150     0.3250 N.am  1 <1>  -0.4940 
  6 N        2.4570    -1.2920     0.7250 N.2   1 <1>  -0.3380 
  7 C        1.2630    -3.3710    -0.0490 C.3   1 <1>   0.3000 
  8 C       -0.3650     2.4850     0.0950 C.2   1 <1>   0.5690 
  9 O        0.0160    -3.7910     0.4260 O.3   1 <1>  -0.5600 
 10 O       -0.3220     3.6850     0.0250 O.2   1 <1>  -0.5700 
 11 C       -1.7030     1.7680    -0.0540 C.3   1 <1>  -0.0990 
 12 C       -0.2120    -5.1580     0.2950 C.3   1 <1>   0.0400 
 13 C       -2.9290     2.6970     0.0350 C.3   1 <1>  -0.1600 
 14 C       -4.2360     1.9130    -0.0880 C.3   1 <1>   0.1200 
 15 O       -5.3050     2.8230     0.0060 O.3   1 <1>  -0.3630 
 16 C       -6.5940     2.4060    -0.0680 C.ar  1 <1>   0.0820 
 17 C       -6.9730     1.0770    -0.2350 C.ar  1 <1>  -0.1500 
 18 C       -7.5720     3.3820     0.0320 C.ar  1 <1>  -0.1500 
 19 C       -8.3150     0.7420    -0.3000 C.ar  1 <1>  -0.1500 
 20 C       -8.9120     3.0440    -0.0330 C.ar  1 <1>  -0.1500 
 21 C       -9.2900     1.7220    -0.2010 C.ar  1 <1>  -0.1430 
 22 C      -10.7600     1.3490    -0.2710 C.3   1 <1>  -0.0970 
 23 H        1.5590     2.4600     0.5260 H     1 <1>   0.3700 
 24 H        2.0330    -3.9270     0.4580 H     1 <1>   0.0800 
 25 H        1.3110    -3.5640    -1.1060 H     1 <1>   0.0800 
 26 H       -1.7810     1.0310     0.7250 H     1 <1>   0.0800 
 27 H       -1.7140     1.2690    -1.0050 H     1 <1>   0.0800 
 28 H       -1.1930    -5.3720     0.6810 H     1 <1>   0.0800 
 29 H        0.5240    -5.7000     0.8640 H     1 <1>   0.0800 
 30 H       -0.1660    -5.4310    -0.7460 H     1 <1>   0.0800 
 31 H       -2.8820     3.4280    -0.7550 H     1 <1>   0.0800 
 32 H       -2.9160     3.2150     0.9790 H     1 <1>   0.0800 
 33 H       -4.3300     1.1990     0.7110 H     1 <1>   0.0800 
 34 H       -4.2970     1.4180    -1.0430 H     1 <1>   0.0800 
 35 H       -6.2450     0.2940    -0.3150 H     1 <1>   0.1500 
 36 H       -7.2750     4.4070     0.1620 H     1 <1>   0.1500 
 37 H       -8.5990    -0.2880    -0.4270 H     1 <1>   0.1500 
 38 H       -9.6570     3.8150     0.0480 H     1 <1>   0.1500 
 39 H      -10.8990     0.4800    -0.8870 H     1 <1>   0.0800 
 40 H      -11.3330     2.1570    -0.6910 H     1 <1>   0.0800 
 41 H      -11.1290     1.1390     0.7170 H     1 <1>   0.0800 
@<TRIPOS>BOND
  1   1   2  1   
  2   1   3  1   
  3   2   4  2   
  4   2   5  1   
  5   3   6  2   
  6   3   7  1   
  7   4   6  1   
  8   5   8  am  
  9   5  23  1   
 10   7   9  1   
 11   7  24  1   
 12   7  25  1   
 13   8  10  2   
 14   8  11  1   
 15   9  12  1   
 16  11  13  1   
 17  11  26  1   
 18  11  27  1   
 19  12  28  1   
 20  12  29  1   
 21  12  30  1   
 22  13  14  1   
 23  13  31  1   
 24  13  32  1   
 25  14  15  1   
 26  14  33  1   
 27  14  34  1   
 28  15  16  1   
 29  16  17  ar  
 30  16  18  ar  
 31  17  19  ar  
 32  17  35  1   
 33  18  20  ar  
 34  18  36  1   
 35  19  21  ar  
 36  19  37  1   
 37  20  21  ar  
 38  20  38  1   
 39  21  22  1   
 40  22  39  1   
 41  22  40  1   
 42  22  41  1   
@<TRIPOS>SUBSTRUCTURE
  1 ****  11 GROUP 4 **** **** 0

# MOE 2024.06 (io_trps.svl 2023.06)
