@<TRIPOS>MOLECULE
(4-Dimethylamino-6-morpholin-4-yl-[1,3,5]triazin-2-yl)-(2-phenoxy-ethyl)-cyanami
50 52 1 0 0 
SMALL
USER_CHARGES


@<TRIPOS>ATOM
  1 O       -0.6120     0.4730    -0.1690 O.3   1 <1>  -0.5600 
  2 C       -1.7620    -0.1870     0.2880 C.3   1 <1>   0.1200 
  3 C       -0.7770     1.8580    -0.3250 C.3   1 <1>   0.1200 
  4 C       -2.9410     0.0120    -0.6820 C.3   1 <1>   0.2090 
  5 C       -1.9030     2.1700    -1.3270 C.3   1 <1>   0.2090 
  6 N       -3.1700     1.4700    -0.9270 N.pl3 1 <1>  -0.8380 
  7 C       -4.2880     2.1310    -0.4640 C.ar  1 <1>   0.7200 
  8 N       -4.2020     3.4260    -0.3490 N.ar  1 <1>  -0.6200 
  9 N       -5.3400     1.4210    -0.1620 N.ar  1 <1>  -0.6200 
 10 C       -5.2590     4.0060     0.1470 C.ar  1 <1>   0.8190 
 11 C       -6.3510     2.1090     0.2990 C.ar  1 <1>   0.7200 
 12 N       -6.3630     3.4030     0.4860 N.ar  1 <1>  -0.6200 
 13 N       -5.1760     5.3710     0.3360 N.pl3 1 <1>  -0.6810 
 14 N       -7.4980     1.4150     0.6260 N.pl3 1 <1>  -0.8380 
 15 C       -6.1410     6.0710     1.0780 C.1   1 <1>   0.6830 
 16 C       -4.0460     6.1740    -0.2140 C.3   1 <1>   0.1960 
 17 C       -8.6010     2.0300     1.4210 C.3   1 <1>   0.1290 
 18 C       -7.7590     0.0320     0.1370 C.3   1 <1>   0.1290 
 19 N       -6.8810     6.6880     1.6830 N.1   1 <1>  -0.5570 
 20 C       -2.7920     6.0220     0.6540 C.3   1 <1>   0.1200 
 21 O       -1.6630     6.3100    -0.1460 O.3   1 <1>  -0.3630 
 22 C       -0.4950     5.6580     0.0700 C.ar  1 <1>   0.0820 
 23 C        0.3490     5.4940    -1.0170 C.ar  1 <1>  -0.1500 
 24 C       -0.1250     5.1500     1.3120 C.ar  1 <1>  -0.1500 
 25 C        1.5460     4.8150    -0.8760 C.ar  1 <1>  -0.1500 
 26 C        1.0730     4.4700     1.4510 C.ar  1 <1>  -0.1500 
 27 C        1.9060     4.3000     0.3580 C.ar  1 <1>  -0.1500 
 28 H       -2.0130     0.1940     1.2620 H     1 <1>   0.0800 
 29 H       -1.5270    -1.2320     0.3740 H     1 <1>   0.0800 
 30 H        0.1530     2.2620    -0.6790 H     1 <1>   0.0800 
 31 H       -0.9990     2.2920     0.6330 H     1 <1>   0.0800 
 32 H       -3.8140    -0.4630    -0.2720 H     1 <1>   0.0800 
 33 H       -2.7170    -0.4710    -1.6160 H     1 <1>   0.0800 
 34 H       -1.6060     1.8260    -2.3020 H     1 <1>   0.0800 
 35 H       -2.0330     3.2350    -1.3910 H     1 <1>   0.0800 
 36 H       -4.3210     7.2130    -0.2730 H     1 <1>   0.0800 
 37 H       -3.8310     5.8290    -1.2120 H     1 <1>   0.0800 
 38 H       -8.2160     2.7800     2.0900 H     1 <1>   0.0800 
 39 H       -9.0970     1.2770     2.0080 H     1 <1>   0.0800 
 40 H       -9.3120     2.4880     0.7560 H     1 <1>   0.0800 
 41 H       -7.1850    -0.1760    -0.7500 H     1 <1>   0.0800 
 42 H       -8.8010    -0.0840    -0.1040 H     1 <1>   0.0800 
 43 H       -7.4910    -0.6770     0.9010 H     1 <1>   0.0800 
 44 H       -2.7080     5.0090     1.0050 H     1 <1>   0.0800 
 45 H       -2.8050     6.7030     1.4850 H     1 <1>   0.0800 
 46 H        0.0620     5.9000    -1.9700 H     1 <1>   0.1500 
 47 H       -0.7520     5.2840     2.1730 H     1 <1>   0.1500 
 48 H        2.1980     4.6890    -1.7230 H     1 <1>   0.1500 
 49 H        1.3600     4.0740     2.4100 H     1 <1>   0.1500 
 50 H        2.8370     3.7700     0.4690 H     1 <1>   0.1500 
@<TRIPOS>BOND
  1   1   2  1   
  2   1   3  1   
  3   2   4  1   
  4   2  28  1   
  5   2  29  1   
  6   3   5  1   
  7   3  30  1   
  8   3  31  1   
  9   4   6  1   
 10   4  32  1   
 11   4  33  1   
 12   5   6  1   
 13   5  34  1   
 14   5  35  1   
 15   6   7  1   
 16   7   8  ar  
 17   7   9  ar  
 18   8  10  ar  
 19   9  11  ar  
 20  10  12  ar  
 21  10  13  1   
 22  11  12  ar  
 23  11  14  1   
 24  13  15  1   
 25  13  16  1   
 26  14  17  1   
 27  14  18  1   
 28  15  19  3   
 29  16  20  1   
 30  16  36  1   
 31  16  37  1   
 32  17  38  1   
 33  17  39  1   
 34  17  40  1   
 35  18  41  1   
 36  18  42  1   
 37  18  43  1   
 38  20  21  1   
 39  20  44  1   
 40  20  45  1   
 41  21  22  1   
 42  22  23  ar  
 43  22  24  ar  
 44  23  25  ar  
 45  23  46  1   
 46  24  26  ar  
 47  24  47  1   
 48  25  27  ar  
 49  25  48  1   
 50  26  27  ar  
 51  26  49  1   
 52  27  50  1   
@<TRIPOS>SUBSTRUCTURE
  1 ****   8 GROUP 4 **** **** 0

# MOE 2024.06 (io_trps.svl 2023.06)
