@<TRIPOS>MOLECULE
N,N-Dicyclohexyl-2-(5-methyl-4H-[1,2,4]triazol-3-ylsulfanyl)-acetamide
51 53 1 0 0 
SMALL
USER_CHARGES


@<TRIPOS>ATOM
  1 S       -0.2550    -1.5570    -2.7520 S.3   1 <1>  -0.2860 
  2 C       -0.4870     0.0140    -1.9080 C.2   1 <1>   0.2420 
  3 C       -0.2990    -2.8500    -1.4190 C.3   1 <1>   0.1310 
  4 N        0.0810     1.1080    -2.2690 N.2   1 <1>  -0.3380 
  5 N       -1.2670     0.1600    -0.8450 N.pl3 1 <1>   0.0330 
  6 C        0.9800    -3.6770    -1.3760 C.2   1 <1>   0.5690 
  7 N       -0.3260     2.0370    -1.3920 N.2   1 <1>  -0.3380 
  8 C       -1.1230     1.4560    -0.5600 C.2   1 <1>   0.0060 
  9 O        1.1060    -4.5170    -2.2370 O.2   1 <1>  -0.5700 
 10 N        1.8740    -3.5580    -0.3330 N.am  1 <1>  -0.6600 
 11 C       -1.8140     2.1490     0.5960 C.3   1 <1>  -0.0600 
 12 C        2.5740    -2.2870     0.0400 C.3   1 <1>   0.2200 
 13 C        2.5160    -4.7670     0.2730 C.3   1 <1>   0.2200 
 14 C        1.7400    -1.4210     0.9900 C.3   1 <1>  -0.1600 
 15 C        3.0600    -1.4960    -1.1810 C.3   1 <1>  -0.1600 
 16 C        3.6880    -5.2690    -0.5840 C.3   1 <1>  -0.1600 
 17 C        1.5030    -5.8880     0.5530 C.3   1 <1>  -0.1600 
 18 C        2.5370    -0.1850     1.4340 C.3   1 <1>  -0.1600 
 19 C        3.8520    -0.2550    -0.7410 C.3   1 <1>  -0.1600 
 20 C        4.3720    -6.4780     0.0740 C.3   1 <1>  -0.1600 
 21 C        2.1900    -7.0890     1.2210 C.3   1 <1>  -0.1600 
 22 C        3.0330     0.6160     0.2220 C.3   1 <1>  -0.1600 
 23 C        3.3620    -7.5960     0.3690 C.3   1 <1>  -0.1600 
 24 H       -1.1220    -3.4960    -1.6590 H     1 <1>   0.0800 
 25 H       -0.4860    -2.3790    -0.4790 H     1 <1>   0.0800 
 26 H       -1.8440    -0.5410    -0.3830 H     1 <1>   0.2700 
 27 H       -1.5200     1.7010     1.5280 H     1 <1>   0.0800 
 28 H       -2.8810     2.0790     0.4860 H     1 <1>   0.0800 
 29 H       -1.5390     3.1890     0.6120 H     1 <1>   0.0800 
 30 H        3.4680    -2.5510     0.5800 H     1 <1>   0.0800 
 31 H        2.9160    -4.4830     1.2320 H     1 <1>   0.0800 
 32 H        1.4590    -1.9970     1.8540 H     1 <1>   0.0800 
 33 H        0.8570    -1.0750     0.4950 H     1 <1>   0.0800 
 34 H        2.2310    -1.1640    -1.7720 H     1 <1>   0.0800 
 35 H        3.6840    -2.1220    -1.7940 H     1 <1>   0.0800 
 36 H        4.4090    -4.4820    -0.7150 H     1 <1>   0.0800 
 37 H        3.3280    -5.5610    -1.5540 H     1 <1>   0.0800 
 38 H        1.0590    -6.2270    -0.3660 H     1 <1>   0.0800 
 39 H        0.7250    -5.5190     1.1960 H     1 <1>   0.0800 
 40 H        3.3820    -0.4950     2.0250 H     1 <1>   0.0800 
 41 H        1.9170     0.4450     2.0490 H     1 <1>   0.0800 
 42 H        4.1180     0.3240    -1.6090 H     1 <1>   0.0800 
 43 H        4.7630    -0.5630    -0.2580 H     1 <1>   0.0800 
 44 H        4.8390    -6.1690     0.9930 H     1 <1>   0.0800 
 45 H        5.1420    -6.8520    -0.5780 H     1 <1>   0.0800 
 46 H        1.4750    -7.8820     1.3570 H     1 <1>   0.0800 
 47 H        2.5530    -6.8010     2.1930 H     1 <1>   0.0800 
 48 H        3.6340     1.4440     0.5570 H     1 <1>   0.0800 
 49 H        2.1870     1.0250    -0.3070 H     1 <1>   0.0800 
 50 H        3.8570    -8.4040     0.8790 H     1 <1>   0.0800 
 51 H        2.9800    -7.9810    -0.5630 H     1 <1>   0.0800 
@<TRIPOS>BOND
  1   1   2  1   
  2   1   3  1   
  3   2   4  2   
  4   2   5  1   
  5   3   6  1   
  6   3  24  1   
  7   3  25  1   
  8   4   7  1   
  9   5   8  1   
 10   5  26  1   
 11   6   9  2   
 12   6  10  am  
 13   7   8  2   
 14   8  11  1   
 15  10  12  1   
 16  10  13  1   
 17  11  27  1   
 18  11  28  1   
 19  11  29  1   
 20  12  14  1   
 21  12  15  1   
 22  12  30  1   
 23  13  16  1   
 24  13  17  1   
 25  13  31  1   
 26  14  18  1   
 27  14  32  1   
 28  14  33  1   
 29  15  19  1   
 30  15  34  1   
 31  15  35  1   
 32  16  20  1   
 33  16  36  1   
 34  16  37  1   
 35  17  21  1   
 36  17  38  1   
 37  17  39  1   
 38  18  22  1   
 39  18  40  1   
 40  18  41  1   
 41  19  22  1   
 42  19  42  1   
 43  19  43  1   
 44  20  23  1   
 45  20  44  1   
 46  20  45  1   
 47  21  23  1   
 48  21  46  1   
 49  21  47  1   
 50  22  48  1   
 51  22  49  1   
 52  23  50  1   
 53  23  51  1   
@<TRIPOS>SUBSTRUCTURE
  1 ****  12 GROUP 4 **** **** 0

# MOE 2024.06 (io_trps.svl 2023.06)
