@<TRIPOS>MOLECULE
(1H-Benzoimidazol-2-ylmethyl)-diisopropyl-amine
39 40 1 0 0 
SMALL
USER_CHARGES


@<TRIPOS>ATOM
  1 N        0.0160     0.6580     0.4540 N.2   1 <1>  -0.5650 
  2 C       -1.1980     1.2550     0.2870 C.ar  1 <1>   0.2270 
  3 C        0.7190     1.0670    -0.5510 C.2   1 <1>   0.0060 
  4 C       -1.1950     2.0360    -0.8540 C.ar  1 <1>  -0.1520 
  5 C       -2.3460     1.1730     1.0720 C.ar  1 <1>  -0.1500 
  6 N        0.0450     1.9070    -1.3840 N.pl3 1 <1>   0.0330 
  7 C        2.1680     0.6530    -0.7880 C.3   1 <1>   0.5230 
  8 C       -2.3280     2.7530    -1.2440 C.ar  1 <1>  -0.1500 
  9 C       -3.4690     1.8770     0.6950 C.ar  1 <1>  -0.1500 
 10 N        2.5360    -0.3200     0.2850 N.4   1 <1>  -0.9590 
 11 C       -3.4590     2.6660    -0.4630 C.ar  1 <1>  -0.1500 
 12 C        3.5910     0.1770     1.2090 C.3   1 <1>   0.4230 
 13 C        2.7060    -1.7180    -0.2040 C.3   1 <1>   0.4230 
 14 C        3.1260     1.4550     1.9040 C.3   1 <1>  -0.2400 
 15 C        4.9140     0.3940     0.4730 C.3   1 <1>  -0.2400 
 16 C        1.4450    -2.1830    -0.9370 C.3   1 <1>  -0.2400 
 17 C        2.9620    -2.6660     0.9700 C.3   1 <1>  -0.2400 
 18 H       -2.3320     0.5620     1.9550 H     1 <1>   0.1500 
 19 H        0.3640     2.3700    -2.2410 H     1 <1>   0.2700 
 20 H        2.7990     1.5240    -0.7430 H     1 <1>   0.0800 
 21 H        2.2730     0.2030    -1.7600 H     1 <1>   0.0800 
 22 H       -2.3160     3.3580    -2.1340 H     1 <1>   0.1500 
 23 H       -4.3660     1.8260     1.2880 H     1 <1>   0.1500 
 24 H        1.6570    -0.3280     0.8370 H     1 <1>   0.4500 
 25 H       -4.3500     3.2060    -0.7340 H     1 <1>   0.1500 
 26 H        3.7500    -0.5570     1.9810 H     1 <1>   0.0800 
 27 H        3.5450    -1.7680    -0.8810 H     1 <1>   0.0800 
 28 H        3.0480     2.2850     1.2270 H     1 <1>   0.0800 
 29 H        3.8370     1.7230     2.6660 H     1 <1>   0.0800 
 30 H        2.1770     1.2970     2.3870 H     1 <1>   0.0800 
 31 H        4.8440     1.1720    -0.2630 H     1 <1>   0.0800 
 32 H        5.2500    -0.5150     0.0070 H     1 <1>   0.0800 
 33 H        5.6670     0.6870     1.1840 H     1 <1>   0.0800 
 34 H        0.5770    -2.0890    -0.3060 H     1 <1>   0.0800 
 35 H        1.5430    -3.2190    -1.2090 H     1 <1>   0.0800 
 36 H        1.2830    -1.6380    -1.8480 H     1 <1>   0.0800 
 37 H        2.1970    -2.5670     1.7200 H     1 <1>   0.0800 
 38 H        3.9280    -2.4990     1.4080 H     1 <1>   0.0800 
 39 H        2.9550    -3.6850     0.6240 H     1 <1>   0.0800 
@<TRIPOS>BOND
  1   1   2  1   
  2   1   3  2   
  3   2   4  ar  
  4   2   5  ar  
  5   3   6  1   
  6   3   7  1   
  7   4   6  1   
  8   4   8  ar  
  9   5   9  ar  
 10   5  18  1   
 11   6  19  1   
 12   7  10  1   
 13   7  20  1   
 14   7  21  1   
 15   8  11  ar  
 16   8  22  1   
 17   9  11  ar  
 18   9  23  1   
 19  10  12  1   
 20  10  13  1   
 21  10  24  1   
 22  11  25  1   
 23  12  14  1   
 24  12  15  1   
 25  12  26  1   
 26  13  16  1   
 27  13  17  1   
 28  13  27  1   
 29  14  28  1   
 30  14  29  1   
 31  14  30  1   
 32  15  31  1   
 33  15  32  1   
 34  15  33  1   
 35  16  34  1   
 36  16  35  1   
 37  16  36  1   
 38  17  37  1   
 39  17  38  1   
 40  17  39  1   
@<TRIPOS>SUBSTRUCTURE
  1 ****   1 GROUP 4 **** **** 0

# MOE 2024.06 (io_trps.svl 2023.06)
