@<TRIPOS>MOLECULE
N-[2-(4-Ethyl-piperazin-1-yl)-2-oxo-ethyl]-2-methoxy-5,N-dimethyl-benzenesulfona
53 54 1 0 0 
SMALL
USER_CHARGES


@<TRIPOS>ATOM
  1 S       -0.1990    -0.8020    -0.8500 S.o2  1 <1>   1.4470 
  2 O       -1.5940    -0.9470    -0.4950 O.2   1 <1>  -0.6500 
  3 O        0.3410    -1.6350    -1.9060 O.2   1 <1>  -0.6500 
  4 N        0.6710    -1.1970     0.5510 N.am  1 <1>  -0.8490 
  5 C        0.2100     0.9400    -1.1280 C.ar  1 <1>  -0.0090 
  6 C        0.6760    -2.6620     0.7960 C.3   1 <1>   0.2570 
  7 C        0.2170    -0.4850     1.7530 C.3   1 <1>   0.1160 
  8 C        1.4630     1.3330    -1.5910 C.ar  1 <1>   0.0830 
  9 C       -0.7230     1.9360    -0.8550 C.ar  1 <1>  -0.1500 
 10 C        1.9100    -3.1480     1.5750 C.2   1 <1>   0.5690 
 11 O        2.4090     0.4160    -1.8910 O.3   1 <1>  -0.3630 
 12 C        1.7730     2.6750    -1.7550 C.ar  1 <1>  -0.1500 
 13 C       -0.4270     3.2780    -1.0270 C.ar  1 <1>  -0.1440 
 14 O        1.7200    -3.7740     2.5910 O.2   1 <1>  -0.5700 
 15 N        3.1930    -2.8810     1.1410 N.am  1 <1>  -0.6600 
 16 C        2.6160     0.1910    -3.2700 C.3   1 <1>   0.0400 
 17 C        0.8300     3.6450    -1.4750 C.ar  1 <1>  -0.1500 
 18 C       -1.4690     4.3400    -0.7210 C.3   1 <1>  -0.0970 
 19 C        4.3690    -3.2060     2.0080 C.3   1 <1>   0.1400 
 20 C        3.4990    -2.0900    -0.0970 C.3   1 <1>   0.1400 
 21 C        5.5470    -3.7570     1.1870 C.3   1 <1>   0.3430 
 22 C        4.7210    -2.6380    -0.8550 C.3   1 <1>   0.3430 
 23 N        5.9120    -2.8490     0.0440 N.4   1 <1>  -0.9590 
 24 C        7.0910    -3.3740    -0.6910 C.3   1 <1>   0.3430 
 25 C        7.6680    -2.2820    -1.5840 C.3   1 <1>  -0.2400 
 26 H        0.6730    -3.2020    -0.1340 H     1 <1>   0.0800 
 27 H       -0.2160    -2.9490     1.3250 H     1 <1>   0.0800 
 28 H        0.2950     0.5790     1.6060 H     1 <1>   0.0800 
 29 H        0.8290    -0.7530     2.5980 H     1 <1>   0.0800 
 30 H       -0.8090    -0.7300     1.9750 H     1 <1>   0.0800 
 31 H       -1.7000     1.6530    -0.5010 H     1 <1>   0.1500 
 32 H        2.7500     2.9610    -2.1000 H     1 <1>   0.1500 
 33 H        3.3490    -0.5860    -3.3830 H     1 <1>   0.0800 
 34 H        2.9660     1.0980    -3.7290 H     1 <1>   0.0800 
 35 H        1.6860    -0.1180    -3.7150 H     1 <1>   0.0800 
 36 H        1.0760     4.6850    -1.6070 H     1 <1>   0.1500 
 37 H       -2.4610     3.9480    -0.8610 H     1 <1>   0.0800 
 38 H       -1.3460     5.1860    -1.3740 H     1 <1>   0.0800 
 39 H       -1.3660     4.6700     0.2970 H     1 <1>   0.0800 
 40 H        4.0960    -3.9380     2.7490 H     1 <1>   0.0800 
 41 H        4.6740    -2.3170     2.5310 H     1 <1>   0.0800 
 42 H        3.6670    -1.0620     0.1730 H     1 <1>   0.0800 
 43 H        2.6670    -2.1120    -0.7760 H     1 <1>   0.0800 
 44 H        5.2730    -4.7270     0.8070 H     1 <1>   0.0800 
 45 H        6.3960    -3.8850     1.8390 H     1 <1>   0.0800 
 46 H        4.9690    -1.9500    -1.6450 H     1 <1>   0.0800 
 47 H        4.4440    -3.5750    -1.3110 H     1 <1>   0.0800 
 48 H        6.1640    -1.9340     0.4420 H     1 <1>   0.4500 
 49 H        6.8110    -4.2310    -1.2840 H     1 <1>   0.0800 
 50 H        7.8490    -3.6840     0.0120 H     1 <1>   0.0800 
 51 H        6.9830    -2.0040    -2.3640 H     1 <1>   0.0800 
 52 H        8.5620    -2.6530    -2.0560 H     1 <1>   0.0800 
 53 H        7.9370    -1.4150    -1.0070 H     1 <1>   0.0800 
@<TRIPOS>BOND
  1   1   2  2   
  2   1   3  2   
  3   1   4  am  
  4   1   5  1   
  5   4   6  1   
  6   4   7  1   
  7   5   8  ar  
  8   5   9  ar  
  9   6  10  1   
 10   6  26  1   
 11   6  27  1   
 12   7  28  1   
 13   7  29  1   
 14   7  30  1   
 15   8  11  1   
 16   8  12  ar  
 17   9  13  ar  
 18   9  31  1   
 19  10  14  2   
 20  10  15  am  
 21  11  16  1   
 22  12  17  ar  
 23  12  32  1   
 24  13  17  ar  
 25  13  18  1   
 26  15  19  1   
 27  15  20  1   
 28  16  33  1   
 29  16  34  1   
 30  16  35  1   
 31  17  36  1   
 32  18  37  1   
 33  18  38  1   
 34  18  39  1   
 35  19  21  1   
 36  19  40  1   
 37  19  41  1   
 38  20  22  1   
 39  20  42  1   
 40  20  43  1   
 41  21  23  1   
 42  21  44  1   
 43  21  45  1   
 44  22  23  1   
 45  22  46  1   
 46  22  47  1   
 47  23  24  1   
 48  23  48  1   
 49  24  25  1   
 50  24  49  1   
 51  24  50  1   
 52  25  51  1   
 53  25  52  1   
 54  25  53  1   
@<TRIPOS>SUBSTRUCTURE
  1 ****   4 GROUP 4 **** **** 0

# MOE 2024.06 (io_trps.svl 2023.06)
