@<TRIPOS>MOLECULE
2-Ethyl-1-(5-fluoro-2-methoxy-benzenesulfonyl)-4-methyl-1H-imidazole
35 36 1 0 0 
SMALL
USER_CHARGES


@<TRIPOS>ATOM
  1 S        0.1310    -0.1160    -1.5500 S.o2  1 <1>   1.2950 
  2 O        0.3820     0.8510    -2.6000 O.2   1 <1>  -0.6500 
  3 O       -0.1360    -1.4840    -1.9540 O.2   1 <1>  -0.6500 
  4 N       -1.1860     0.4060    -0.4840 N.pl3 1 <1>   0.3170 
  5 C        1.5600    -0.1530    -0.4380 C.ar  1 <1>  -0.0090 
  6 C       -2.1420     1.3670    -0.6590 C.2   1 <1>   0.0060 
  7 C       -1.4880    -0.1150     0.7330 C.2   1 <1>  -0.3020 
  8 C        1.8690     0.9410     0.3720 C.ar  1 <1>   0.0830 
  9 C        2.3810    -1.2740    -0.3770 C.ar  1 <1>  -0.1500 
 10 N       -2.9660     1.4780     0.3330 N.2   1 <1>  -0.5650 
 11 C       -2.2710     2.2480    -1.8940 C.3   1 <1>   0.0200 
 12 C       -2.5590     0.5490     1.2070 C.2   1 <1>   0.0460 
 13 O        1.0550     2.0210     0.2870 O.3   1 <1>  -0.3630 
 14 C        2.9710     0.9120     1.2300 C.ar  1 <1>  -0.1500 
 15 C        3.4640    -1.2840     0.4780 C.ar  1 <1>   0.1900 
 16 C       -1.3980     3.5020    -1.7830 C.3   1 <1>  -0.2400 
 17 C       -3.2860     0.3550     2.5170 C.3   1 <1>  -0.0590 
 18 C        1.0910     3.0730     1.2280 C.3   1 <1>   0.0400 
 19 C        3.7760    -0.2110     1.2870 C.ar  1 <1>  -0.1500 
 20 F        4.2200    -2.3480     0.5240 F     1 <1>  -0.1900 
 21 H       -0.9300    -0.9170     1.1790 H     1 <1>   0.1500 
 22 H        2.1840    -2.1370    -0.9900 H     1 <1>   0.1500 
 23 H       -3.2990     2.5540    -1.9840 H     1 <1>   0.0800 
 24 H       -2.0260     1.6970    -2.7840 H     1 <1>   0.0800 
 25 H        3.2180     1.7510     1.8530 H     1 <1>   0.1500 
 26 H       -1.6610     4.0530    -0.8970 H     1 <1>   0.0800 
 27 H       -1.5490     4.1320    -2.6410 H     1 <1>   0.0800 
 28 H       -0.3570     3.2390    -1.7320 H     1 <1>   0.0800 
 29 H       -2.8270    -0.4300     3.0880 H     1 <1>   0.0800 
 30 H       -4.3110     0.0980     2.3240 H     1 <1>   0.0800 
 31 H       -3.2580     1.2680     3.0830 H     1 <1>   0.0800 
 32 H        0.2760     3.7400     1.0120 H     1 <1>   0.0800 
 33 H        2.0260     3.5970     1.1340 H     1 <1>   0.0800 
 34 H        0.9730     2.6650     2.2160 H     1 <1>   0.0800 
 35 H        4.6310    -0.2570     1.9390 H     1 <1>   0.1500 
@<TRIPOS>BOND
  1   1   2  2   
  2   1   3  2   
  3   1   4  1   
  4   1   5  1   
  5   4   6  1   
  6   4   7  1   
  7   5   8  ar  
  8   5   9  ar  
  9   6  10  2   
 10   6  11  1   
 11   7  12  2   
 12   7  21  1   
 13   8  13  1   
 14   8  14  ar  
 15   9  15  ar  
 16   9  22  1   
 17  10  12  1   
 18  11  16  1   
 19  11  23  1   
 20  11  24  1   
 21  12  17  1   
 22  13  18  1   
 23  14  19  ar  
 24  14  25  1   
 25  15  19  ar  
 26  15  20  1   
 27  16  26  1   
 28  16  27  1   
 29  16  28  1   
 30  17  29  1   
 31  17  30  1   
 32  17  31  1   
 33  18  32  1   
 34  18  33  1   
 35  18  34  1   
 36  19  35  1   
@<TRIPOS>SUBSTRUCTURE
  1 ****   5 GROUP 4 **** **** 0

# MOE 2024.06 (io_trps.svl 2023.06)
