@<TRIPOS>MOLECULE
[8-(3-Chloro-2-methyl-phenyl)-1,6-dimethyl-2,4-dioxo-1,4,5,6,7,8-hexahydro-2H-1,
53 56 1 0 0 
SMALL
USER_CHARGES


@<TRIPOS>ATOM
  1 CL      -2.5960    -2.0010     1.8050 Cl    1 <1>  -0.1840 
  2 C       -3.3050    -1.3020     0.3690 C.ar  1 <1>   0.1700 
  3 C       -4.0300    -0.1210     0.4470 C.ar  1 <1>  -0.1510 
  4 C       -3.1250    -1.9750    -0.8240 C.ar  1 <1>  -0.1570 
  5 C       -4.6130     0.3710    -0.7240 C.ar  1 <1>   0.3050 
  6 C       -4.1570     0.5960     1.7950 C.3   1 <1>  -0.1040 
  7 C       -3.6820    -1.4680    -1.9830 C.ar  1 <1>  -0.1570 
  8 N       -5.4210     1.5140    -0.7180 N.pl3 1 <1>  -0.5800 
  9 C       -4.4220    -0.3020    -1.9270 C.ar  1 <1>  -0.1570 
 10 C       -6.6670     1.5210    -0.2100 C.cat 1 <1>   1.0690 
 11 C       -4.8720     2.7580    -1.3300 C.3   1 <1>   0.1610 
 12 N       -7.3340     0.4790     0.2810 N.pl3 1 <1>  -0.7040 
 13 N       -7.4140     2.6140    -0.1310 N.pl3 1 <1>  -0.7670 
 14 C       -5.4640     4.0160    -0.6620 C.3   1 <1>  -0.0870 
 15 C       -8.5590     0.9200     0.6830 C.2   1 <1>   0.4210 
 16 C       -8.6420     2.2460     0.4370 C.2   1 <1>   0.2710 
 17 C       -7.0010     3.9540    -0.5990 C.3   1 <1>   0.3480 
 18 C       -4.9980     5.2830    -1.3940 C.3   1 <1>  -0.2460 
 19 N       -9.5820     0.1870     1.2530 N.am  1 <1>  -0.4410 
 20 C       -9.8480     2.9390     0.7680 C.2   1 <1>   0.6990 
 21 C      -10.7790     0.8380     1.5190 C.2   1 <1>   0.6860 
 22 C       -9.4380    -1.2780     1.5010 C.3   1 <1>   0.0530 
 23 O       -9.9520     4.1440     0.6170 O.2   1 <1>  -0.5740 
 24 N      -10.9020     2.1990     1.2780 N.am  1 <1>  -0.4250 
 25 O      -11.7240     0.2170     1.9600 O.2   1 <1>  -0.5740 
 26 C      -12.2820     2.7820     1.1660 C.3   1 <1>   0.1940 
 27 C      -12.8260     2.6540    -0.2540 C.2   1 <1>   0.6550 
 28 O      -12.1470     2.2270    -1.1590 O.2   1 <1>  -0.5740 
 29 O      -14.0810     3.0440    -0.4310 O.3   1 <1>  -0.4350 
 30 C      -14.7120     2.9790    -1.6940 C.3   1 <1>   0.0320 
 31 H       -2.5500    -2.8850    -0.8430 H     1 <1>   0.1430 
 32 H       -4.8750     0.0910     2.4170 H     1 <1>   0.0730 
 33 H       -4.4500     1.6230     1.6860 H     1 <1>   0.0730 
 34 H       -3.2100     0.5950     2.3060 H     1 <1>   0.0730 
 35 H       -3.5370    -1.9830    -2.9200 H     1 <1>   0.1430 
 36 H       -4.8580     0.0840    -2.8310 H     1 <1>   0.1430 
 37 H       -5.1040     2.7590    -2.3820 H     1 <1>   0.0730 
 38 H       -3.8000     2.7680    -1.2240 H     1 <1>   0.0730 
 39 H       -6.9680    -0.4690     0.3190 H     1 <1>   0.4450 
 40 H       -5.0890     4.0700     0.3460 H     1 <1>   0.0730 
 41 H       -7.3720     4.7110     0.0730 H     1 <1>   0.0730 
 42 H       -7.4240     4.1290    -1.5750 H     1 <1>   0.0730 
 43 H       -5.3380     5.2890    -2.4150 H     1 <1>   0.0730 
 44 H       -3.9220     5.3420    -1.3940 H     1 <1>   0.0730 
 45 H       -5.3770     6.1630    -0.9030 H     1 <1>   0.0730 
 46 H       -8.4420    -1.5070     1.8360 H     1 <1>   0.0730 
 47 H       -9.6480    -1.8210     0.5960 H     1 <1>   0.0730 
 48 H      -10.1290    -1.6010     2.2620 H     1 <1>   0.0730 
 49 H      -12.2650     3.8220     1.4360 H     1 <1>   0.0730 
 50 H      -12.9550     2.2850     1.8410 H     1 <1>   0.0730 
 51 H      -15.7160     3.3510    -1.5930 H     1 <1>   0.0730 
 52 H      -14.7280     1.9540    -2.0230 H     1 <1>   0.0730 
 53 H      -14.1610     3.5850    -2.3910 H     1 <1>   0.0730 
@<TRIPOS>BOND
  1   1   2  1   
  2   2   3  ar  
  3   2   4  ar  
  4   3   5  ar  
  5   3   6  1   
  6   4   7  ar  
  7   4  31  1   
  8   5   8  1   
  9   5   9  ar  
 10   6  32  1   
 11   6  33  1   
 12   6  34  1   
 13   7   9  ar  
 14   7  35  1   
 15   8  10  ar  
 16   8  11  1   
 17   9  36  1   
 18  10  12  ar  
 19  10  13  ar  
 20  11  14  1   
 21  11  37  1   
 22  11  38  1   
 23  12  15  1   
 24  12  39  1   
 25  13  16  1   
 26  13  17  1   
 27  14  17  1   
 28  14  18  1   
 29  14  40  1   
 30  15  16  2   
 31  15  19  1   
 32  16  20  1   
 33  17  41  1   
 34  17  42  1   
 35  18  43  1   
 36  18  44  1   
 37  18  45  1   
 38  19  21  am  
 39  19  22  1   
 40  20  23  2   
 41  20  24  am  
 42  21  24  am  
 43  21  25  2   
 44  22  46  1   
 45  22  47  1   
 46  22  48  1   
 47  24  26  1   
 48  26  27  1   
 49  26  49  1   
 50  26  50  1   
 51  27  28  2   
 52  27  29  1   
 53  29  30  1   
 54  30  51  1   
 55  30  52  1   
 56  30  53  1   
@<TRIPOS>SUBSTRUCTURE
  1 ****  12 GROUP 4 **** **** 0

# MOE 2024.06 (io_trps.svl 2023.06)
