@<TRIPOS>MOLECULE
1-Cyclopropyl-4-hydroxy-2-oxo-1,2,5,6,7,8-hexahydro-quinoline-3-carboxylic acid
41 44 1 0 0 
SMALL
USER_CHARGES


@<TRIPOS>ATOM
  1 O       -0.3170     0.3360    -0.8450 O.3   1 <1>  -0.8500 
  2 C       -1.3200     0.9460    -0.4610 C.2   1 <1>  -0.0500 
  3 N       -2.5050     0.2260    -0.3160 N.pl3 1 <1>  -0.3690 
  4 C       -1.2870     2.3430    -0.1940 C.2   1 <1>   0.0290 
  5 C       -3.7180     0.9000    -0.1890 C.2   1 <1>  -0.0380 
  6 C       -2.4370    -1.2640    -0.3770 C.3   1 <1>   0.0690 
  7 C       -2.4980     2.9640     0.1800 C.2   1 <1>   0.5410 
  8 C       -0.0790     3.0860    -0.2930 C.2   1 <1>   0.6160 
  9 C       -3.7290     2.2320     0.0780 C.2   1 <1>  -0.1240 
 10 C       -5.0100     0.1030    -0.3790 C.3   1 <1>  -0.0220 
 11 C       -2.9940    -2.0920     0.7470 C.3   1 <1>  -0.2000 
 12 C       -1.5190    -1.9920     0.5600 C.3   1 <1>  -0.2000 
 13 O       -2.5590     4.1260     0.6180 O.2   1 <1>  -0.5700 
 14 O       -0.0360     4.3020    -0.4840 O.2   1 <1>  -0.5700 
 15 N        1.1320     2.4410    -0.2030 N.am  1 <1>  -0.5470 
 16 C       -5.0310     3.0200     0.2570 C.3   1 <1>  -0.0220 
 17 C       -6.2260     0.9970    -0.6390 C.3   1 <1>  -0.1600 
 18 C        2.4410     2.8730    -0.1370 C.ar  1 <1>   0.4270 
 19 C       -6.2720     2.1290     0.3860 C.3   1 <1>  -0.1600 
 20 N        3.3450     1.9380    -0.4070 N.ar  1 <1>  -0.6200 
 21 C        2.8140     4.1840     0.2130 C.ar  1 <1>   0.1600 
 22 C        4.5860     2.3810    -0.3260 C.ar  1 <1>   0.1600 
 23 N        4.0590     4.6290     0.3010 N.ar  1 <1>  -0.6200 
 24 C        4.9340     3.6790     0.0150 C.ar  1 <1>   0.1600 
 25 H       -2.4520    -1.6180    -1.3920 H     1 <1>   0.1000 
 26 H       -5.1900    -0.4810     0.5050 H     1 <1>   0.0800 
 27 H       -4.8990    -0.5680    -1.2120 H     1 <1>   0.0800 
 28 H       -3.4750    -3.0230     0.5140 H     1 <1>   0.1000 
 29 H       -3.4140    -1.5990     1.6040 H     1 <1>   0.1000 
 30 H       -0.9160    -1.3700     1.1980 H     1 <1>   0.1000 
 31 H       -0.9680    -2.8200     0.1550 H     1 <1>   0.1000 
 32 H        0.9820     1.4290    -0.4000 H     1 <1>   0.3700 
 33 H       -5.1450     3.6700    -0.5920 H     1 <1>   0.0800 
 34 H       -4.9660     3.6390     1.1350 H     1 <1>   0.0800 
 35 H       -7.1250     0.4090    -0.5840 H     1 <1>   0.0800 
 36 H       -6.1550     1.4130    -1.6300 H     1 <1>   0.0800 
 37 H       -7.1580     2.7230     0.2460 H     1 <1>   0.0800 
 38 H       -6.3040     1.7090     1.3770 H     1 <1>   0.0800 
 39 H        2.0350     4.8880     0.4360 H     1 <1>   0.1500 
 40 H        5.3670     1.6750    -0.5410 H     1 <1>   0.1500 
 41 H        5.9750     3.9450     0.0540 H     1 <1>   0.1500 
@<TRIPOS>BOND
  1   1   2  1   
  2   2   3  1   
  3   2   4  2   
  4   3   5  1   
  5   3   6  1   
  6   4   7  1   
  7   4   8  1   
  8   5   9  2   
  9   5  10  1   
 10   6  11  1   
 11   6  12  1   
 12   6  25  1   
 13   7   9  1   
 14   7  13  2   
 15   8  14  2   
 16   8  15  am  
 17   9  16  1   
 18  10  17  1   
 19  10  26  1   
 20  10  27  1   
 21  11  12  1   
 22  11  28  1   
 23  11  29  1   
 24  12  30  1   
 25  12  31  1   
 26  15  18  1   
 27  15  32  1   
 28  16  19  1   
 29  16  33  1   
 30  16  34  1   
 31  17  19  1   
 32  17  35  1   
 33  17  36  1   
 34  18  20  ar  
 35  18  21  ar  
 36  19  37  1   
 37  19  38  1   
 38  20  22  ar  
 39  21  23  ar  
 40  21  39  1   
 41  22  24  ar  
 42  22  40  1   
 43  23  24  ar  
 44  24  41  1   
@<TRIPOS>SUBSTRUCTURE
  1 ****   4 GROUP 4 **** **** 0

# MOE 2024.06 (io_trps.svl 2023.06)
