@<TRIPOS>MOLECULE
3-(2-Morpholin-4-yl-ethylsulfanyl)-6-phenyl-[1,2,4]triazine
40 42 1 0 0 
SMALL
USER_CHARGES


@<TRIPOS>ATOM
  1 S       -0.1810     0.1090     0.7070 S.3   1 <1>  -0.3320 
  2 C       -1.6600    -0.8650     0.4740 C.ar  1 <1>   0.7220 
  3 C        1.1850    -0.9800     0.1190 C.3   1 <1>   0.0700 
  4 N       -2.8030    -0.2720     0.8220 N.ar  1 <1>  -0.3100 
  5 N       -1.4830    -2.0730    -0.0200 N.ar  1 <1>  -0.6200 
  6 C        2.4890    -0.1950     0.2850 C.3   1 <1>   0.3430 
  7 N       -3.9250    -0.9240     0.6780 N.ar  1 <1>  -0.3100 
  8 C       -2.6350    -2.7080    -0.1580 C.ar  1 <1>   0.1600 
  9 N        3.6810    -0.9580    -0.2070 N.4   1 <1>  -0.9590 
 10 C       -3.8660    -2.1650     0.1840 C.ar  1 <1>   0.3100 
 11 C        3.9650    -2.1870     0.6220 C.3   1 <1>   0.3430 
 12 C        4.8960    -0.0680    -0.2350 C.3   1 <1>   0.3430 
 13 C       -5.0930    -2.9140     0.0110 C.ar  1 <1>   0.0000 
 14 C        5.2760    -2.8730     0.1920 C.3   1 <1>   0.1200 
 15 C        6.1650    -0.8490    -0.6280 C.3   1 <1>   0.1200 
 16 C       -6.2120    -2.3290    -0.5810 C.ar  1 <1>  -0.1500 
 17 C       -5.2010    -4.2430     0.4240 C.ar  1 <1>  -0.1500 
 18 O        6.3290    -1.9550     0.2100 O.3   1 <1>  -0.5600 
 19 C       -7.3830    -3.0410    -0.7660 C.ar  1 <1>  -0.1500 
 20 C       -6.3690    -4.9590     0.2400 C.ar  1 <1>  -0.1500 
 21 C       -7.4630    -4.3600    -0.3580 C.ar  1 <1>  -0.1500 
 22 H        0.9800    -1.2110    -0.9110 H     1 <1>   0.0800 
 23 H        1.1580    -1.8660     0.7280 H     1 <1>   0.0800 
 24 H        2.6200     0.0540     1.3260 H     1 <1>   0.0800 
 25 H        2.4000     0.7260    -0.2680 H     1 <1>   0.0800 
 26 H       -2.6080    -3.7030    -0.5660 H     1 <1>   0.1500 
 27 H        3.5080    -1.2630    -1.1740 H     1 <1>   0.4500 
 28 H        3.1540    -2.8910     0.5340 H     1 <1>   0.0800 
 29 H        4.0540    -1.9130     1.6610 H     1 <1>   0.0800 
 30 H        5.0560     0.3630     0.7400 H     1 <1>   0.0800 
 31 H        4.7470     0.7400    -0.9330 H     1 <1>   0.0800 
 32 H        5.1940    -3.2900    -0.7970 H     1 <1>   0.0800 
 33 H        5.5220    -3.6650     0.8770 H     1 <1>   0.0800 
 34 H        7.0350    -0.2240    -0.5180 H     1 <1>   0.0800 
 35 H        6.1160    -1.1890    -1.6490 H     1 <1>   0.0800 
 36 H       -6.1640    -1.3010    -0.8990 H     1 <1>   0.1500 
 37 H       -4.3670    -4.7260     0.9020 H     1 <1>   0.1500 
 38 H       -8.2340    -2.5680    -1.2270 H     1 <1>   0.1500 
 39 H       -6.4320    -5.9840     0.5640 H     1 <1>   0.1500 
 40 H       -8.3740    -4.9150    -0.5020 H     1 <1>   0.1500 
@<TRIPOS>BOND
  1   1   2  1   
  2   1   3  1   
  3   2   4  ar  
  4   2   5  ar  
  5   3   6  1   
  6   3  22  1   
  7   3  23  1   
  8   4   7  ar  
  9   5   8  ar  
 10   6   9  1   
 11   6  24  1   
 12   6  25  1   
 13   7  10  ar  
 14   8  10  ar  
 15   8  26  1   
 16   9  11  1   
 17   9  12  1   
 18   9  27  1   
 19  10  13  1   
 20  11  14  1   
 21  11  28  1   
 22  11  29  1   
 23  12  15  1   
 24  12  30  1   
 25  12  31  1   
 26  13  16  ar  
 27  13  17  ar  
 28  14  18  1   
 29  14  32  1   
 30  14  33  1   
 31  15  18  1   
 32  15  34  1   
 33  15  35  1   
 34  16  19  ar  
 35  16  36  1   
 36  17  20  ar  
 37  17  37  1   
 38  19  21  ar  
 39  19  38  1   
 40  20  21  ar  
 41  20  39  1   
 42  21  40  1   
@<TRIPOS>SUBSTRUCTURE
  1 ****   5 GROUP 4 **** **** 0

# MOE 2024.06 (io_trps.svl 2023.06)
