@<TRIPOS>MOLECULE
8-Dimethylamino-3-methyl-7-(3-phenoxy-propyl)-3,7-dihydro-purine-2,6-dione
47 49 1 0 0 
SMALL
USER_CHARGES


@<TRIPOS>ATOM
  1 O        1.2230     2.0490     1.8820 O.2   1 <1>  -0.5750 
  2 C        2.2420     2.1050     1.2350 C.2   1 <1>   0.6860 
  3 N        3.1820     1.0840     1.2420 N.am  1 <1>  -0.4420 
  4 N        2.4690     3.2140     0.4740 N.am  1 <1>  -0.4950 
  5 C        4.3270     1.2600     0.4800 C.2   1 <1>   0.4200 
  6 C        2.9750    -0.1480     2.0580 C.3   1 <1>   0.0520 
  7 C        3.5840     3.3950    -0.2920 C.2   1 <1>   0.6990 
  8 N        5.3750     0.4070     0.3500 N.pl3 1 <1>  -0.7040 
  9 C        4.5730     2.3550    -0.2740 C.2   1 <1>   0.2700 
 10 O        3.6830     4.4110    -0.9500 O.2   1 <1>  -0.5750 
 11 C        6.2720     0.9490    -0.4760 C.cat 1 <1>   1.0690 
 12 N        5.8340     2.1560    -0.8750 N.pl3 1 <1>  -0.7680 
 13 N        7.4280     0.3150    -0.8020 N.pl3 1 <1>  -0.5970 
 14 C        6.5110     3.2690    -1.6020 C.3   1 <1>   0.3480 
 15 C        8.0110    -0.7870     0.0230 C.3   1 <1>   0.0790 
 16 C        8.1950     0.5500    -2.0590 C.3   1 <1>   0.0790 
 17 C        7.0790     4.2870    -0.6120 C.3   1 <1>  -0.1680 
 18 C        8.2220     3.7220     0.2440 C.3   1 <1>   0.1120 
 19 O        8.4770     4.6020     1.3110 O.3   1 <1>  -0.3690 
 20 C        9.0700     5.8110     1.1380 C.ar  1 <1>   0.0740 
 21 C        9.8050     6.1630     0.0080 C.ar  1 <1>  -0.1580 
 22 C        8.9160     6.7310     2.1630 C.ar  1 <1>  -0.1580 
 23 C       10.3650     7.4250    -0.0890 C.ar  1 <1>  -0.1580 
 24 C        9.4770     7.9920     2.0650 C.ar  1 <1>  -0.1580 
 25 C       10.1990     8.3400     0.9370 C.ar  1 <1>  -0.1580 
 26 H        1.7590     3.9430     0.4840 H     1 <1>   0.3640 
 27 H        1.9950    -0.1530     2.5050 H     1 <1>   0.0720 
 28 H        3.7070    -0.1920     2.8450 H     1 <1>   0.0720 
 29 H        3.0630    -1.0210     1.4340 H     1 <1>   0.0720 
 30 H        5.4660    -0.5120     0.7710 H     1 <1>   0.4440 
 31 H        5.7960     3.7600    -2.2420 H     1 <1>   0.0720 
 32 H        7.3010     2.9110    -2.2320 H     1 <1>   0.0720 
 33 H        7.6060    -0.7880     1.0200 H     1 <1>   0.0720 
 34 H        9.0780    -0.6570     0.1010 H     1 <1>   0.0720 
 35 H        7.8130    -1.7380    -0.4420 H     1 <1>   0.0720 
 36 H        7.5420     0.8880    -2.8440 H     1 <1>   0.0720 
 37 H        8.6550    -0.3670    -2.3900 H     1 <1>   0.0720 
 38 H        8.9690     1.2790    -1.8880 H     1 <1>   0.0720 
 39 H        6.2920     4.6480     0.0260 H     1 <1>   0.0720 
 40 H        7.4480     5.1280    -1.1720 H     1 <1>   0.0720 
 41 H        9.1260     3.5690    -0.3180 H     1 <1>   0.0720 
 42 H        7.9380     2.7900     0.6940 H     1 <1>   0.0720 
 43 H        9.9590     5.4750    -0.7990 H     1 <1>   0.1420 
 44 H        8.3550     6.4560     3.0370 H     1 <1>   0.1420 
 45 H       10.9320     7.6990    -0.9610 H     1 <1>   0.1420 
 46 H        9.3510     8.7020     2.8640 H     1 <1>   0.1420 
 47 H       10.6340     9.3210     0.8590 H     1 <1>   0.1420 
@<TRIPOS>BOND
  1   1   2  2   
  2   2   3  am  
  3   2   4  am  
  4   3   5  1   
  5   3   6  1   
  6   4   7  am  
  7   4  26  1   
  8   5   8  1   
  9   5   9  2   
 10   6  27  1   
 11   6  28  1   
 12   6  29  1   
 13   7   9  1   
 14   7  10  2   
 15   8  11  ar  
 16   8  30  1   
 17   9  12  1   
 18  11  12  ar  
 19  11  13  ar  
 20  12  14  1   
 21  13  15  1   
 22  13  16  1   
 23  14  17  1   
 24  14  31  1   
 25  14  32  1   
 26  15  33  1   
 27  15  34  1   
 28  15  35  1   
 29  16  36  1   
 30  16  37  1   
 31  16  38  1   
 32  17  18  1   
 33  17  39  1   
 34  17  40  1   
 35  18  19  1   
 36  18  41  1   
 37  18  42  1   
 38  19  20  1   
 39  20  21  ar  
 40  20  22  ar  
 41  21  23  ar  
 42  21  43  1   
 43  22  24  ar  
 44  22  44  1   
 45  23  25  ar  
 46  23  45  1   
 47  24  25  ar  
 48  24  46  1   
 49  25  47  1   
@<TRIPOS>SUBSTRUCTURE
  1 ****  17 GROUP 4 **** **** 0

# MOE 2024.06 (io_trps.svl 2023.06)
