@<TRIPOS>MOLECULE
N-[1-(4-Ethyl-5-mercapto-4H-[1,2,4]triazol-3-yl)-ethyl]-2-methyl-benzamide
38 39 1 0 0 
SMALL
USER_CHARGES


@<TRIPOS>ATOM
  1 S       -1.0810     0.5010    -2.6510 S.3   1 <1>  -0.9360 
  2 C       -1.5870     1.8500    -1.9010 C.cat 1 <1>   0.7360 
  3 N       -1.1470     3.0590    -2.1660 N.pl3 1 <1>  -0.3930 
  4 N       -2.4770     1.9290    -0.9300 N.pl3 1 <1>  -0.7640 
  5 N       -1.7520     3.9790    -1.3610 N.2   1 <1>  -0.2600 
  6 C       -2.5520     3.2790    -0.6320 C.2   1 <1>   0.4850 
  7 C       -3.2490     0.7790    -0.4330 C.3   1 <1>   0.3540 
  8 C       -3.4560     3.8570     0.4890 C.3   1 <1>   0.3880 
  9 C       -2.6530     0.3050     0.8880 C.3   1 <1>  -0.2400 
 10 N       -4.9000     3.5100     0.3610 N.am  1 <1>  -0.7300 
 11 C       -3.3580     5.3790     0.6490 C.3   1 <1>  -0.2400 
 12 C       -5.6480     3.6290    -0.7740 C.2   1 <1>   0.5440 
 13 O       -5.1270     4.0700    -1.7750 O.2   1 <1>  -0.5700 
 14 C       -7.0330     3.2020    -0.7780 C.ar  1 <1>   0.0860 
 15 C       -8.0100     3.7520     0.0650 C.ar  1 <1>  -0.1430 
 16 C       -7.4190     2.1840    -1.6490 C.ar  1 <1>  -0.1500 
 17 C       -9.3050     3.2600     0.0430 C.ar  1 <1>  -0.1500 
 18 C       -7.6900     4.9080     1.0060 C.3   1 <1>  -0.0970 
 19 C       -8.7130     1.7000    -1.6700 C.ar  1 <1>  -0.1500 
 20 C       -9.6580     2.2370    -0.8180 C.ar  1 <1>  -0.1500 
 21 H       -0.4640     3.2190    -2.9050 H     1 <1>   0.4500 
 22 H       -3.2170    -0.0230    -1.1510 H     1 <1>   0.0800 
 23 H       -4.2800     1.0570    -0.3050 H     1 <1>   0.0800 
 24 H       -3.1030     3.4190     1.4050 H     1 <1>   0.0800 
 25 H       -1.6280     0.0130     0.7350 H     1 <1>   0.0800 
 26 H       -3.1980    -0.5510     1.2410 H     1 <1>   0.0800 
 27 H       -2.7010     1.0760     1.6320 H     1 <1>   0.0800 
 28 H       -5.3650     3.2040     1.2160 H     1 <1>   0.3700 
 29 H       -3.6820     5.8680    -0.2530 H     1 <1>   0.0800 
 30 H       -2.3400     5.6640     0.8410 H     1 <1>   0.0800 
 31 H       -3.9660     5.7120     1.4710 H     1 <1>   0.0800 
 32 H       -6.6850     1.7710    -2.3210 H     1 <1>   0.1500 
 33 H      -10.0570     3.6750     0.6930 H     1 <1>   0.1500 
 34 H       -7.2010     4.5440     1.8910 H     1 <1>   0.0800 
 35 H       -8.5900     5.4180     1.3020 H     1 <1>   0.0800 
 36 H       -7.0530     5.6250     0.5200 H     1 <1>   0.0800 
 37 H       -8.9850     0.9120    -2.3510 H     1 <1>   0.1500 
 38 H      -10.6680     1.8630    -0.8280 H     1 <1>   0.1500 
@<TRIPOS>BOND
  1   1   2  1   
  2   2   3  ar  
  3   2   4  ar  
  4   3   5  1   
  5   3  21  1   
  6   4   6  1   
  7   4   7  1   
  8   5   6  2   
  9   6   8  1   
 10   7   9  1   
 11   7  22  1   
 12   7  23  1   
 13   8  10  1   
 14   8  11  1   
 15   8  24  1   
 16   9  25  1   
 17   9  26  1   
 18   9  27  1   
 19  10  12  am  
 20  10  28  1   
 21  11  29  1   
 22  11  30  1   
 23  11  31  1   
 24  12  13  2   
 25  12  14  1   
 26  14  15  ar  
 27  14  16  ar  
 28  15  17  ar  
 29  15  18  1   
 30  16  19  ar  
 31  16  32  1   
 32  17  20  ar  
 33  17  33  1   
 34  18  34  1   
 35  18  35  1   
 36  18  36  1   
 37  19  20  ar  
 38  19  37  1   
 39  20  38  1   
@<TRIPOS>SUBSTRUCTURE
  1 ****  12 GROUP 4 **** **** 0

# MOE 2024.06 (io_trps.svl 2023.06)
