@<TRIPOS>MOLECULE
N-(4-Ethyl-5-mercapto-4H-[1,2,4]triazol-3-ylmethyl)-4-methoxy-benzamide
36 37 1 0 0 
SMALL
USER_CHARGES


@<TRIPOS>ATOM
  1 S       -0.6540     0.8170     1.0960 S.3   1 <1>  -0.9360 
  2 C       -0.6770     2.0600     0.0550 C.cat 1 <1>   0.7360 
  3 N        0.0670     2.1440    -1.0250 N.pl3 1 <1>  -0.3930 
  4 N       -1.4390     3.1350     0.1240 N.pl3 1 <1>  -0.7640 
  5 N       -0.2060     3.2930    -1.7100 N.2   1 <1>  -0.2600 
  6 C       -1.1150     3.8640    -1.0010 C.2   1 <1>   0.4850 
  7 C       -2.3910     3.3970     1.2190 C.3   1 <1>   0.3540 
  8 C       -1.7820     5.1880    -1.3830 C.3   1 <1>   0.3080 
  9 C       -1.6540     4.0380     2.3910 C.3   1 <1>  -0.2400 
 10 N       -1.4580     6.3070    -0.4510 N.am  1 <1>  -0.7300 
 11 C       -2.3010     6.9450     0.4030 C.2   1 <1>   0.5440 
 12 O       -1.7760     7.5300     1.3230 O.2   1 <1>  -0.5700 
 13 C       -3.7430     6.8890     0.2760 C.ar  1 <1>   0.0860 
 14 C       -4.5360     6.5410     1.3690 C.ar  1 <1>  -0.1500 
 15 C       -4.3900     7.1640    -0.9300 C.ar  1 <1>  -0.1500 
 16 C       -5.9080     6.4330     1.2530 C.ar  1 <1>  -0.1500 
 17 C       -5.7630     7.0600    -1.0530 C.ar  1 <1>  -0.1500 
 18 C       -6.5330     6.6830     0.0430 C.ar  1 <1>   0.0830 
 19 O       -7.8770     6.5460     0.0090 O.3   1 <1>  -0.3630 
 20 C       -8.6310     6.8630    -1.1400 C.3   1 <1>   0.0400 
 21 H        0.7310     1.4060    -1.2590 H     1 <1>   0.4500 
 22 H       -2.8370     2.4680     1.5380 H     1 <1>   0.0800 
 23 H       -3.1780     4.0430     0.8740 H     1 <1>   0.0800 
 24 H       -2.8430     5.0260    -1.4190 H     1 <1>   0.0800 
 25 H       -1.4580     5.4620    -2.3720 H     1 <1>   0.0800 
 26 H       -0.9240     3.3500     2.7810 H     1 <1>   0.0800 
 27 H       -2.3510     4.2680     3.1750 H     1 <1>   0.0800 
 28 H       -1.1610     4.9430     2.0910 H     1 <1>   0.0800 
 29 H       -0.4650     6.4230    -0.2240 H     1 <1>   0.3700 
 30 H       -4.0640     6.3580     2.3190 H     1 <1>   0.1500 
 31 H       -3.8040     7.4690    -1.7800 H     1 <1>   0.1500 
 32 H       -6.5090     6.1580     2.1020 H     1 <1>   0.1500 
 33 H       -6.2200     7.2770    -2.0010 H     1 <1>   0.1500 
 34 H       -9.6700     6.7060    -0.9110 H     1 <1>   0.0800 
 35 H       -8.3330     6.2150    -1.9450 H     1 <1>   0.0800 
 36 H       -8.4660     7.8950    -1.3930 H     1 <1>   0.0800 
@<TRIPOS>BOND
  1   1   2  1   
  2   2   3  ar  
  3   2   4  ar  
  4   3   5  1   
  5   3  21  1   
  6   4   6  1   
  7   4   7  1   
  8   5   6  2   
  9   6   8  1   
 10   7   9  1   
 11   7  22  1   
 12   7  23  1   
 13   8  10  1   
 14   8  24  1   
 15   8  25  1   
 16   9  26  1   
 17   9  27  1   
 18   9  28  1   
 19  10  11  am  
 20  10  29  1   
 21  11  12  2   
 22  11  13  1   
 23  13  14  ar  
 24  13  15  ar  
 25  14  16  ar  
 26  14  30  1   
 27  15  17  ar  
 28  15  31  1   
 29  16  18  ar  
 30  16  32  1   
 31  17  18  ar  
 32  17  33  1   
 33  18  19  1   
 34  19  20  1   
 35  20  34  1   
 36  20  35  1   
 37  20  36  1   
@<TRIPOS>SUBSTRUCTURE
  1 ****  13 GROUP 4 **** **** 0

# MOE 2024.06 (io_trps.svl 2023.06)
