@<TRIPOS>MOLECULE
3-[3-(4-Methoxy-phenyl)-[1,2,4]oxadiazol-5-yl]-N-propyl-propionamide
40 41 1 0 0 
SMALL
USER_CHARGES


@<TRIPOS>ATOM
  1 O        0.2200    -0.2950     0.2480 O.2   1 <1>  -0.5700 
  2 C        0.7220    -1.3800     0.3930 C.2   1 <1>   0.5690 
  3 N        2.0090    -1.4680     0.7980 N.am  1 <1>  -0.7300 
  4 C       -0.0850    -2.6340     0.1120 C.3   1 <1>  -0.0990 
  5 C        2.8350    -2.6690     1.0430 C.3   1 <1>   0.1400 
  6 C       -1.4990    -2.3390    -0.4140 C.3   1 <1>   0.0200 
  7 C        3.8450    -2.8190    -0.0940 C.3   1 <1>  -0.1600 
  8 C       -2.2500    -3.6230    -0.6990 C.2   1 <1>   0.2980 
  9 C        4.7190    -4.0630     0.0980 C.3   1 <1>  -0.2400 
 10 O       -1.8860    -4.3500    -1.7230 O.3   1 <1>  -0.0190 
 11 N       -3.2180    -4.0810    -0.0210 N.2   1 <1>  -0.5650 
 12 N       -2.6940    -5.3620    -1.6930 N.2   1 <1>  -0.4100 
 13 C       -3.4860    -5.2080    -0.6900 C.2   1 <1>   0.4620 
 14 C       -4.5490    -6.1200    -0.3000 C.ar  1 <1>   0.0540 
 15 C       -5.3700    -5.8660     0.8010 C.ar  1 <1>  -0.1500 
 16 C       -4.7930    -7.2960    -1.0140 C.ar  1 <1>  -0.1500 
 17 C       -6.3780    -6.7380     1.1690 C.ar  1 <1>  -0.1500 
 18 C       -5.8000    -8.1730    -0.6540 C.ar  1 <1>  -0.1500 
 19 C       -6.6030    -7.8970     0.4470 C.ar  1 <1>   0.0820 
 20 O       -7.6100    -8.6990     0.8710 O.3   1 <1>  -0.3620 
 21 C       -7.9200    -9.9030     0.2060 C.3   1 <1>   0.0400 
 22 H        2.4800    -0.5700     0.9340 H     1 <1>   0.3700 
 23 H       -0.1630    -3.2010     1.0210 H     1 <1>   0.0800 
 24 H        0.4460    -3.2230    -0.6130 H     1 <1>   0.0800 
 25 H        2.2150    -3.5470     1.1030 H     1 <1>   0.0800 
 26 H        3.3500    -2.5570     1.9830 H     1 <1>   0.0800 
 27 H       -1.4440    -1.7560    -1.3170 H     1 <1>   0.0800 
 28 H       -2.0440    -1.7680     0.3170 H     1 <1>   0.0800 
 29 H        4.4760    -1.9470    -0.1300 H     1 <1>   0.0800 
 30 H        3.3200    -2.8990    -1.0300 H     1 <1>   0.0800 
 31 H        5.2700    -4.0000     1.0200 H     1 <1>   0.0800 
 32 H        5.4220    -4.1460    -0.7130 H     1 <1>   0.0800 
 33 H        4.1130    -4.9520     0.1150 H     1 <1>   0.0800 
 34 H       -5.2170    -4.9710     1.3790 H     1 <1>   0.1500 
 35 H       -4.1820    -7.5260    -1.8700 H     1 <1>   0.1500 
 36 H       -7.0000    -6.5240     2.0200 H     1 <1>   0.1500 
 37 H       -5.9440    -9.0620    -1.2390 H     1 <1>   0.1500 
 38 H       -8.7450   -10.3640     0.7180 H     1 <1>   0.0800 
 39 H       -7.0620   -10.5510     0.2380 H     1 <1>   0.0800 
 40 H       -8.1980    -9.6800    -0.8090 H     1 <1>   0.0800 
@<TRIPOS>BOND
  1   1   2  2   
  2   2   3  am  
  3   2   4  1   
  4   3   5  1   
  5   3  22  1   
  6   4   6  1   
  7   4  23  1   
  8   4  24  1   
  9   5   7  1   
 10   5  25  1   
 11   5  26  1   
 12   6   8  1   
 13   6  27  1   
 14   6  28  1   
 15   7   9  1   
 16   7  29  1   
 17   7  30  1   
 18   8  10  1   
 19   8  11  2   
 20   9  31  1   
 21   9  32  1   
 22   9  33  1   
 23  10  12  1   
 24  11  13  1   
 25  12  13  2   
 26  13  14  1   
 27  14  15  ar  
 28  14  16  ar  
 29  15  17  ar  
 30  15  34  1   
 31  16  18  ar  
 32  16  35  1   
 33  17  19  ar  
 34  17  36  1   
 35  18  19  ar  
 36  18  37  1   
 37  19  20  1   
 38  20  21  1   
 39  21  38  1   
 40  21  39  1   
 41  21  40  1   
@<TRIPOS>SUBSTRUCTURE
  1 ****  11 GROUP 4 **** **** 0

# MOE 2024.06 (io_trps.svl 2023.06)
