@<TRIPOS>MOLECULE
8-(5-Chloro-2-methoxy-phenyl)-3-(2-methoxy-ethyl)-1,7-dimethyl-1H,8H-imidazo[2,1
50 53 1 0 0 
SMALL
USER_CHARGES


@<TRIPOS>ATOM
  1 CL      -1.1680    -0.0140     3.0970 Cl    1 <1>  -0.1840 
  2 C       -2.2970    -0.5810     1.8950 C.ar  1 <1>   0.1700 
  3 C       -3.3720     0.2150     1.5570 C.ar  1 <1>  -0.1570 
  4 C       -2.0980    -1.8130     1.3050 C.ar  1 <1>  -0.1570 
  5 C       -4.2750    -0.2180     0.5980 C.ar  1 <1>   0.3050 
  6 C       -2.9990    -2.2640     0.3560 C.ar  1 <1>  -0.1570 
  7 N       -5.3690     0.6120     0.2490 N.pl3 1 <1>  -0.5550 
  8 C       -4.0920    -1.4750     0.0000 C.ar  1 <1>   0.0750 
  9 C       -6.6600     0.2480     0.2480 C.cat 1 <1>   1.0690 
 10 C       -5.3630     1.9070    -0.2650 C.2   1 <1>   0.1580 
 11 O       -5.0140    -1.8900    -0.9170 O.3   1 <1>  -0.3680 
 12 N       -7.3620    -0.8500     0.5490 N.pl3 1 <1>  -0.7040 
 13 N       -7.4520     1.2210    -0.1800 N.pl3 1 <1>  -0.6330 
 14 C       -6.6360     2.2810    -0.5210 C.2   1 <1>   0.2220 
 15 C       -4.0830     2.6920    -0.4920 C.3   1 <1>  -0.1090 
 16 C       -4.7240    -2.9450    -1.8140 C.3   1 <1>   0.0320 
 17 C       -8.6680    -0.5610     0.2810 C.2   1 <1>   0.4210 
 18 C       -8.7590     0.7130    -0.1720 C.2   1 <1>   0.2710 
 19 N       -9.7650    -1.3890     0.4160 N.am  1 <1>  -0.4420 
 20 C      -10.0310     1.2420    -0.5370 C.2   1 <1>   0.6990 
 21 C      -11.0110    -0.8960     0.0440 C.2   1 <1>   0.6860 
 22 C       -9.6230    -2.7820     0.9350 C.3   1 <1>   0.0520 
 23 O      -10.1460     2.3960    -0.9130 O.2   1 <1>  -0.5750 
 24 N      -11.1320     0.4020    -0.4440 N.am  1 <1>  -0.4260 
 25 O      -11.9920    -1.6000     0.1530 O.2   1 <1>  -0.5750 
 26 C      -12.4760     0.8950    -0.8840 C.3   1 <1>   0.1330 
 27 C      -13.2570     1.4640     0.3010 C.3   1 <1>   0.1120 
 28 O      -14.4620     1.9610    -0.1790 O.3   1 <1>  -0.5650 
 29 C      -15.2870     2.4870     0.8090 C.3   1 <1>   0.0320 
 30 H       -3.4950     1.1620     2.0470 H     1 <1>   0.1430 
 31 H       -1.2490    -2.4100     1.5890 H     1 <1>   0.1430 
 32 H       -2.8290    -3.2300    -0.0850 H     1 <1>   0.1430 
 33 H       -6.9290    -1.7440     0.7760 H     1 <1>   0.4450 
 34 H       -7.0240     3.2040    -0.9250 H     1 <1>   0.1430 
 35 H       -3.4050     2.1260    -1.1060 H     1 <1>   0.0720 
 36 H       -3.6040     2.9140     0.4440 H     1 <1>   0.0720 
 37 H       -4.2970     3.6210    -0.9900 H     1 <1>   0.0720 
 38 H       -5.5200    -3.0050    -2.5350 H     1 <1>   0.0720 
 39 H       -4.6620    -3.8700    -1.2670 H     1 <1>   0.0720 
 40 H       -3.7950    -2.7360    -2.3170 H     1 <1>   0.0720 
 41 H       -8.8380    -2.8350     1.6690 H     1 <1>   0.0720 
 42 H       -9.4000    -3.4500     0.1210 H     1 <1>   0.0720 
 43 H      -10.5380    -3.1050     1.4030 H     1 <1>   0.0720 
 44 H      -13.0360     0.0870    -1.3200 H     1 <1>   0.0720 
 45 H      -12.3620     1.6610    -1.6320 H     1 <1>   0.0720 
 46 H      -12.7150     2.2730     0.7590 H     1 <1>   0.0720 
 47 H      -13.4670     0.6890     1.0190 H     1 <1>   0.0720 
 48 H      -16.1870     2.8410     0.3390 H     1 <1>   0.0720 
 49 H      -14.7840     3.3060     1.2930 H     1 <1>   0.0720 
 50 H      -15.5270     1.7150     1.5190 H     1 <1>   0.0720 
@<TRIPOS>BOND
  1   1   2  1   
  2   2   3  ar  
  3   2   4  ar  
  4   3   5  ar  
  5   3  30  1   
  6   4   6  ar  
  7   4  31  1   
  8   5   7  1   
  9   5   8  ar  
 10   6   8  ar  
 11   6  32  1   
 12   7   9  ar  
 13   7  10  1   
 14   8  11  1   
 15   9  12  ar  
 16   9  13  ar  
 17  10  14  2   
 18  10  15  1   
 19  11  16  1   
 20  12  17  1   
 21  12  33  1   
 22  13  14  1   
 23  13  18  1   
 24  14  34  1   
 25  15  35  1   
 26  15  36  1   
 27  15  37  1   
 28  16  38  1   
 29  16  39  1   
 30  16  40  1   
 31  17  18  2   
 32  17  19  1   
 33  18  20  1   
 34  19  21  am  
 35  19  22  1   
 36  20  23  2   
 37  20  24  am  
 38  21  24  am  
 39  21  25  2   
 40  22  41  1   
 41  22  42  1   
 42  22  43  1   
 43  24  26  1   
 44  26  27  1   
 45  26  44  1   
 46  26  45  1   
 47  27  28  1   
 48  27  46  1   
 49  27  47  1   
 50  28  29  1   
 51  29  48  1   
 52  29  49  1   
 53  29  50  1   
@<TRIPOS>SUBSTRUCTURE
  1 ****   9 GROUP 4 **** **** 0

# MOE 2024.06 (io_trps.svl 2023.06)
