@<TRIPOS>MOLECULE
N-(6-tert-Butyl-3-cyano-4,5,6,7-tetrahydro-benzo[b]thiophen-2-yl)-2-pyrrolidin-1
52 54 1 0 0 
SMALL
USER_CHARGES


@<TRIPOS>ATOM
  1 S       -0.5010     0.2100    -0.6040 S.3   1 <1>  -0.0800 
  2 C        1.2630     0.2970    -0.5870 C.2   1 <1>   0.1040 
  3 C       -0.4700    -1.5190    -0.3290 C.2   1 <1>  -0.1400 
  4 N        1.9100     1.5260    -0.7750 N.am  1 <1>  -0.4940 
  5 C        1.7880    -0.9450    -0.3890 C.2   1 <1>   0.0190 
  6 C        0.7890    -1.9680    -0.2500 C.2   1 <1>  -0.1810 
  7 C       -1.7570    -2.3090    -0.2130 C.3   1 <1>   0.0200 
  8 C        1.4880     2.8220    -0.8620 C.2   1 <1>   0.5690 
  9 C        3.1890    -1.2250    -0.3220 C.1   1 <1>   0.5380 
 10 C        1.0780    -3.4440    -0.0250 C.3   1 <1>   0.0210 
 11 C       -1.4620    -3.7230     0.3550 C.3   1 <1>  -0.0800 
 12 O        2.3010     3.6870    -1.0780 O.2   1 <1>  -0.5700 
 13 C        0.0170     3.2480    -0.6820 C.3   1 <1>   0.4040 
 14 N        4.3140    -1.4050    -0.2750 N.1   1 <1>  -0.5570 
 15 C       -0.1760    -4.2990    -0.3030 C.3   1 <1>  -0.1600 
 16 C       -2.6950    -4.6860     0.3040 C.3   1 <1>   0.0000 
 17 N       -0.1790     4.7420    -0.5370 N.4   1 <1>  -0.9590 
 18 C       -2.4180    -5.9590     1.1260 C.3   1 <1>  -0.2400 
 19 C       -3.0540    -5.1180    -1.1290 C.3   1 <1>  -0.2400 
 20 C       -3.9360    -4.0180     0.9250 C.3   1 <1>  -0.2400 
 21 C        0.3620     5.2870     0.7310 C.3   1 <1>   0.3430 
 22 C       -1.5830     5.2000    -0.6350 C.3   1 <1>   0.3430 
 23 C       -0.3070     6.6480     0.8640 C.3   1 <1>  -0.1600 
 24 C       -1.5700     6.5860    -0.0020 C.3   1 <1>  -0.1600 
 25 H        2.9290     1.4690    -0.8830 H     1 <1>   0.3700 
 26 H       -2.2040    -2.3710    -1.1880 H     1 <1>   0.0800 
 27 H       -2.4290    -1.7820     0.4400 H     1 <1>   0.0800 
 28 H        1.3940    -3.5870     0.9940 H     1 <1>   0.0800 
 29 H        1.8730    -3.7710    -0.6720 H     1 <1>   0.0800 
 30 H       -1.2300    -3.5790     1.3960 H     1 <1>   0.0800 
 31 H       -0.3800     2.7510     0.1850 H     1 <1>   0.0800 
 32 H       -0.5280     2.9010    -1.5430 H     1 <1>   0.0800 
 33 H        0.0240    -5.2940     0.0470 H     1 <1>   0.0800 
 34 H       -0.3190    -4.3510    -1.3680 H     1 <1>   0.0800 
 35 H        0.3740     5.1880    -1.2860 H     1 <1>   0.4500 
 36 H       -3.3010    -6.5710     1.1880 H     1 <1>   0.0800 
 37 H       -2.1180    -5.7060     2.1280 H     1 <1>   0.0800 
 38 H       -1.6470    -6.5590     0.6800 H     1 <1>   0.0800 
 39 H       -2.2450    -5.6580    -1.5860 H     1 <1>   0.0800 
 40 H       -3.2910    -4.2720    -1.7470 H     1 <1>   0.0800 
 41 H       -3.9130    -5.7670    -1.1190 H     1 <1>   0.0800 
 42 H       -4.7490    -4.7200     0.9960 H     1 <1>   0.0800 
 43 H       -3.7170    -3.6610     1.9160 H     1 <1>   0.0800 
 44 H       -4.2790    -3.1930     0.3280 H     1 <1>   0.0800 
 45 H        1.4380     5.3690     0.7020 H     1 <1>   0.0800 
 46 H        0.0700     4.6590     1.5580 H     1 <1>   0.0800 
 47 H       -2.2230     4.5490    -0.0600 H     1 <1>   0.0800 
 48 H       -1.9250     5.2320    -1.6570 H     1 <1>   0.0800 
 49 H        0.3580     7.4140     0.5030 H     1 <1>   0.0800 
 50 H       -0.5370     6.8560     1.8950 H     1 <1>   0.0800 
 51 H       -2.4620     6.7380     0.5810 H     1 <1>   0.0800 
 52 H       -1.5350     7.3380    -0.7710 H     1 <1>   0.0800 
@<TRIPOS>BOND
  1   1   2  1   
  2   1   3  1   
  3   2   4  1   
  4   2   5  2   
  5   3   6  2   
  6   3   7  1   
  7   4   8  am  
  8   4  25  1   
  9   5   6  1   
 10   5   9  1   
 11   6  10  1   
 12   7  11  1   
 13   7  26  1   
 14   7  27  1   
 15   8  12  2   
 16   8  13  1   
 17   9  14  3   
 18  10  15  1   
 19  10  28  1   
 20  10  29  1   
 21  11  15  1   
 22  11  16  1   
 23  11  30  1   
 24  13  17  1   
 25  13  31  1   
 26  13  32  1   
 27  15  33  1   
 28  15  34  1   
 29  16  18  1   
 30  16  19  1   
 31  16  20  1   
 32  17  21  1   
 33  17  22  1   
 34  17  35  1   
 35  18  36  1   
 36  18  37  1   
 37  18  38  1   
 38  19  39  1   
 39  19  40  1   
 40  19  41  1   
 41  20  42  1   
 42  20  43  1   
 43  20  44  1   
 44  21  23  1   
 45  21  45  1   
 46  21  46  1   
 47  22  24  1   
 48  22  47  1   
 49  22  48  1   
 50  23  24  1   
 51  23  49  1   
 52  23  50  1   
 53  24  51  1   
 54  24  52  1   
@<TRIPOS>SUBSTRUCTURE
  1 ****   1 GROUP 4 **** **** 0

# MOE 2024.06 (io_trps.svl 2023.06)
