@<TRIPOS>MOLECULE
1-(2,5-Dichloro-4-ethoxy-benzenesulfonyl)-piperidine-4-carboxylic acid ethyl est
46 47 1 0 0 
SMALL
USER_CHARGES


@<TRIPOS>ATOM
  1 CL      -0.7170    -0.5840     0.4280 Cl    1 <1>  -0.1770 
  2 C        0.1400    -2.0780     0.1310 C.ar  1 <1>   0.1770 
  3 C       -0.1720    -2.8810    -0.9600 C.ar  1 <1>  -0.0090 
  4 C        1.1340    -2.4130     1.0330 C.ar  1 <1>  -0.1500 
  5 S       -1.4720    -2.4280    -2.1300 S.o2  1 <1>   1.4470 
  6 C        0.5560    -4.0580    -1.1210 C.ar  1 <1>  -0.1500 
  7 C        1.8580    -3.5790     0.8540 C.ar  1 <1>   0.0830 
  8 O       -1.6620    -3.5160    -3.0660 O.2   1 <1>  -0.6500 
  9 O       -1.2050    -1.1080    -2.6560 O.2   1 <1>  -0.6500 
 10 N       -2.8750    -2.3650    -1.1780 N.am  1 <1>  -0.8490 
 11 C        1.5510    -4.4030    -0.2250 C.ar  1 <1>   0.1770 
 12 O        2.8200    -3.8820     1.7530 O.3   1 <1>  -0.3630 
 13 C       -3.4220    -3.6940    -0.8940 C.3   1 <1>   0.1960 
 14 C       -3.8850    -1.4720    -1.7530 C.3   1 <1>   0.1960 
 15 CL       2.3970    -5.9140    -0.4770 Cl    1 <1>  -0.1770 
 16 C        4.1690    -3.7860     1.3470 C.3   1 <1>   0.1200 
 17 C       -4.5640    -3.5890     0.1180 C.3   1 <1>  -0.1600 
 18 C       -5.0560    -1.3020    -0.7820 C.3   1 <1>  -0.1600 
 19 C        4.6150    -2.3260     1.4250 C.3   1 <1>  -0.2400 
 20 C       -5.6760    -2.6570    -0.3950 C.3   1 <1>  -0.0190 
 21 C       -6.8120    -2.5330     0.6200 C.2   1 <1>   0.6590 
 22 O       -7.0540    -1.5090     1.2070 O.2   1 <1>  -0.5700 
 23 O       -7.5240    -3.6360     0.8110 O.3   1 <1>  -0.4300 
 24 C       -8.6010    -3.6670     1.7190 C.3   1 <1>   0.1200 
 25 C       -9.1900    -5.0740     1.7060 C.3   1 <1>  -0.2400 
 26 H        1.3470    -1.7730     1.8690 H     1 <1>   0.1500 
 27 H        0.3470    -4.7150    -1.9480 H     1 <1>   0.1500 
 28 H       -2.6490    -4.3250    -0.4850 H     1 <1>   0.0800 
 29 H       -3.7800    -4.1480    -1.8040 H     1 <1>   0.0800 
 30 H       -4.2300    -1.8660    -2.6950 H     1 <1>   0.0800 
 31 H       -3.4530    -0.5000    -1.9330 H     1 <1>   0.0800 
 32 H        4.2750    -4.1720     0.3490 H     1 <1>   0.0800 
 33 H        4.7510    -4.3910     2.0200 H     1 <1>   0.0800 
 34 H       -4.1740    -3.2150     1.0490 H     1 <1>   0.0800 
 35 H       -4.9660    -4.5700     0.2990 H     1 <1>   0.0800 
 36 H       -5.8050    -0.6750    -1.2340 H     1 <1>   0.0800 
 37 H       -4.6990    -0.7970     0.0990 H     1 <1>   0.0800 
 38 H        4.0590    -1.7230     0.7290 H     1 <1>   0.0800 
 39 H        5.6580    -2.2540     1.1760 H     1 <1>   0.0800 
 40 H        4.4740    -1.9490     2.4220 H     1 <1>   0.0800 
 41 H       -6.0990    -3.0940    -1.2820 H     1 <1>   0.0800 
 42 H       -9.3300    -2.9380     1.4090 H     1 <1>   0.0800 
 43 H       -8.2290    -3.4110     2.6980 H     1 <1>   0.0800 
 44 H       -9.5460    -5.3180     0.7220 H     1 <1>   0.0800 
 45 H      -10.0170    -5.1260     2.3910 H     1 <1>   0.0800 
 46 H       -8.4480    -5.7900     2.0110 H     1 <1>   0.0800 
@<TRIPOS>BOND
  1   1   2  1   
  2   2   3  ar  
  3   2   4  ar  
  4   3   5  1   
  5   3   6  ar  
  6   4   7  ar  
  7   4  26  1   
  8   5   8  2   
  9   5   9  2   
 10   5  10  am  
 11   6  11  ar  
 12   6  27  1   
 13   7  11  ar  
 14   7  12  1   
 15  10  13  1   
 16  10  14  1   
 17  11  15  1   
 18  12  16  1   
 19  13  17  1   
 20  13  28  1   
 21  13  29  1   
 22  14  18  1   
 23  14  30  1   
 24  14  31  1   
 25  16  19  1   
 26  16  32  1   
 27  16  33  1   
 28  17  20  1   
 29  17  34  1   
 30  17  35  1   
 31  18  20  1   
 32  18  36  1   
 33  18  37  1   
 34  19  38  1   
 35  19  39  1   
 36  19  40  1   
 37  20  21  1   
 38  20  41  1   
 39  21  22  2   
 40  21  23  1   
 41  23  24  1   
 42  24  25  1   
 43  24  42  1   
 44  24  43  1   
 45  25  44  1   
 46  25  45  1   
 47  25  46  1   
@<TRIPOS>SUBSTRUCTURE
  1 ****  10 GROUP 4 **** **** 0

# MOE 2024.06 (io_trps.svl 2023.06)
