@<TRIPOS>MOLECULE
4-(4-Fluoro-benzenesulfonyl)-piperazine-1-carboxylic acid diethylamide
45 46 1 0 0 
SMALL
USER_CHARGES


@<TRIPOS>ATOM
  1 S        0.0200    -0.1000    -1.5660 S.o2  1 <1>   1.4470 
  2 O        0.4010     0.9930    -2.4320 O.2   1 <1>  -0.6500 
  3 O       -0.1400    -1.4270    -2.1210 O.2   1 <1>  -0.6500 
  4 N       -1.4670     0.3170    -0.8680 N.am  1 <1>  -0.8490 
  5 C        1.1450    -0.1490    -0.1410 C.ar  1 <1>  -0.0090 
  6 C       -2.0550    -0.7970    -0.0980 C.3   1 <1>   0.1960 
  7 C       -2.4210     0.7860    -1.8920 C.3   1 <1>   0.1960 
  8 C        1.8520    -1.3070     0.1800 C.ar  1 <1>  -0.1500 
  9 C        1.3200     0.9770     0.6620 C.ar  1 <1>  -0.1500 
 10 C       -3.3790    -0.3940     0.5730 C.3   1 <1>   0.1400 
 11 C       -3.7680     1.2150    -1.2840 C.3   1 <1>   0.1400 
 12 C        2.7070    -1.3490     1.2700 C.ar  1 <1>  -0.1500 
 13 C        2.1710     0.9560     1.7550 C.ar  1 <1>  -0.1500 
 14 N       -4.3360     0.1290    -0.4390 N.am  1 <1>  -0.6600 
 15 C        2.8500    -0.2120     2.0400 C.ar  1 <1>   0.1900 
 16 C       -5.6890    -0.0600    -0.3470 C.2   1 <1>   0.6900 
 17 F        3.6520    -0.2430     3.0680 F     1 <1>  -0.1900 
 18 O       -6.4440     0.8400    -0.6730 O.2   1 <1>  -0.5700 
 19 N       -6.1950    -1.2540     0.1000 N.am  1 <1>  -0.6600 
 20 C       -7.4830    -1.2930     0.8390 C.3   1 <1>   0.1400 
 21 C       -5.7330    -2.5380    -0.4880 C.3   1 <1>   0.1400 
 22 C       -7.2180    -1.7050     2.2850 C.3   1 <1>  -0.2400 
 23 C       -6.4540    -2.7960    -1.8100 C.3   1 <1>  -0.2400 
 24 H       -1.3650    -1.1120     0.6660 H     1 <1>   0.0800 
 25 H       -2.2400    -1.6380    -0.7460 H     1 <1>   0.0800 
 26 H       -2.5950     0.0060    -2.6150 H     1 <1>   0.0800 
 27 H       -2.0050     1.6310    -2.4150 H     1 <1>   0.0800 
 28 H        1.7330    -2.1870    -0.4320 H     1 <1>   0.1500 
 29 H        0.7820     1.8800     0.4230 H     1 <1>   0.1500 
 30 H       -3.1860     0.3740     1.3010 H     1 <1>   0.0800 
 31 H       -3.7990    -1.2380     1.0890 H     1 <1>   0.0800 
 32 H       -4.4550     1.4590    -2.0760 H     1 <1>   0.0800 
 33 H       -3.6270     2.0950    -0.6820 H     1 <1>   0.0800 
 34 H        3.2530    -2.2410     1.5190 H     1 <1>   0.1500 
 35 H        2.3090     1.8240     2.3750 H     1 <1>   0.1500 
 36 H       -8.1590    -1.9870     0.3700 H     1 <1>   0.0800 
 37 H       -7.9480    -0.3210     0.8270 H     1 <1>   0.0800 
 38 H       -5.9220    -3.3430     0.2010 H     1 <1>   0.0800 
 39 H       -4.6750    -2.4960    -0.6710 H     1 <1>   0.0800 
 40 H       -6.7980    -2.6930     2.3280 H     1 <1>   0.0800 
 41 H       -8.1420    -1.7030     2.8340 H     1 <1>   0.0800 
 42 H       -6.5450    -1.0060     2.7470 H     1 <1>   0.0800 
 43 H       -7.5130    -2.8890    -1.6560 H     1 <1>   0.0800 
 44 H       -6.0930    -3.7090    -2.2470 H     1 <1>   0.0800 
 45 H       -6.2650    -1.9900    -2.4970 H     1 <1>   0.0800 
@<TRIPOS>BOND
  1   1   2  2   
  2   1   3  2   
  3   1   4  am  
  4   1   5  1   
  5   4   6  1   
  6   4   7  1   
  7   5   8  ar  
  8   5   9  ar  
  9   6  10  1   
 10   6  24  1   
 11   6  25  1   
 12   7  11  1   
 13   7  26  1   
 14   7  27  1   
 15   8  12  ar  
 16   8  28  1   
 17   9  13  ar  
 18   9  29  1   
 19  10  14  1   
 20  10  30  1   
 21  10  31  1   
 22  11  14  1   
 23  11  32  1   
 24  11  33  1   
 25  12  15  ar  
 26  12  34  1   
 27  13  15  ar  
 28  13  35  1   
 29  14  16  am  
 30  15  17  1   
 31  16  18  2   
 32  16  19  am  
 33  19  20  1   
 34  19  21  1   
 35  20  22  1   
 36  20  36  1   
 37  20  37  1   
 38  21  23  1   
 39  21  38  1   
 40  21  39  1   
 41  22  40  1   
 42  22  41  1   
 43  22  42  1   
 44  23  43  1   
 45  23  44  1   
 46  23  45  1   
@<TRIPOS>SUBSTRUCTURE
  1 ****   6 GROUP 4 **** **** 0

# MOE 2024.06 (io_trps.svl 2023.06)
