@<TRIPOS>MOLECULE
4-(4-Morpholin-4-ylmethyl-benzoyl)-3,4-dihydro-1H-quinoxalin-2-one
48 51 1 0 0 
SMALL
USER_CHARGES


@<TRIPOS>ATOM
  1 O        0.2420    -0.7210    -1.5060 O.2   1 <1>  -0.5700 
  2 C        0.0730    -1.7510    -0.9020 C.2   1 <1>   0.5690 
  3 N        1.1130    -2.5630    -0.5980 N.am  1 <1>  -0.5470 
  4 C       -1.3260    -2.1500    -0.4420 C.3   1 <1>   0.2010 
  5 C        0.9690    -3.7790     0.0820 C.ar  1 <1>   0.1170 
  6 N       -1.4760    -3.6230    -0.1520 N.am  1 <1>  -0.4770 
  7 C       -0.3140    -4.3050     0.3160 C.ar  1 <1>   0.1170 
  8 C        2.0950    -4.4530     0.5320 C.ar  1 <1>  -0.1500 
  9 C       -2.6480    -4.2470    -0.5470 C.2   1 <1>   0.5440 
 10 C       -0.4120    -5.4980     1.0260 C.ar  1 <1>  -0.1500 
 11 C        1.9720    -5.6410     1.2280 C.ar  1 <1>  -0.1500 
 12 O       -2.6290    -5.4070    -0.9090 O.2   1 <1>  -0.5700 
 13 C       -3.9150    -3.5390    -0.5560 C.ar  1 <1>   0.0860 
 14 C        0.7150    -6.1620     1.4770 C.ar  1 <1>  -0.1500 
 15 C       -4.7530    -3.5950    -1.6680 C.ar  1 <1>  -0.1500 
 16 C       -4.3480    -2.7890     0.5370 C.ar  1 <1>  -0.1500 
 17 C       -5.9660    -2.9340    -1.6930 C.ar  1 <1>  -0.1500 
 18 C       -5.5620    -2.1250     0.5210 C.ar  1 <1>  -0.1500 
 19 C       -6.3850    -2.1990    -0.5930 C.ar  1 <1>  -0.1430 
 20 C       -7.7320    -1.5010    -0.6090 C.3   1 <1>   0.4860 
 21 N       -8.6900    -2.3000     0.2020 N.4   1 <1>  -0.9590 
 22 C       -8.9050    -3.6760    -0.3750 C.3   1 <1>   0.3430 
 23 C      -10.0030    -1.5880     0.3800 C.3   1 <1>   0.3430 
 24 C       -9.9820    -4.4550     0.4040 C.3   1 <1>   0.1200 
 25 C      -11.0270    -2.4670     1.1240 C.3   1 <1>   0.1200 
 26 O      -11.1580    -3.7030     0.4830 O.3   1 <1>  -0.5600 
 27 H        2.0330    -2.2540    -0.9090 H     1 <1>   0.3700 
 28 H       -2.0130    -1.8550    -1.2130 H     1 <1>   0.0800 
 29 H       -1.5540    -1.5950     0.4490 H     1 <1>   0.0800 
 30 H        3.0730    -4.0490     0.3430 H     1 <1>   0.1500 
 31 H       -1.3790    -5.9220     1.2280 H     1 <1>   0.1500 
 32 H        2.8490    -6.1600     1.5750 H     1 <1>   0.1500 
 33 H        0.6120    -7.0870     2.0180 H     1 <1>   0.1500 
 34 H       -4.4360    -4.1740    -2.5210 H     1 <1>   0.1500 
 35 H       -3.7220    -2.7360     1.4130 H     1 <1>   0.1500 
 36 H       -6.5750    -3.0030    -2.5800 H     1 <1>   0.1500 
 37 H       -5.8510    -1.5530     1.3880 H     1 <1>   0.1500 
 38 H       -8.0870    -1.4080    -1.6230 H     1 <1>   0.0800 
 39 H       -7.6250    -0.5120    -0.1930 H     1 <1>   0.0800 
 40 H       -8.2660    -2.4330     1.1280 H     1 <1>   0.4500 
 41 H       -7.9820    -4.2340    -0.3570 H     1 <1>   0.0800 
 42 H       -9.2230    -3.5970    -1.4020 H     1 <1>   0.0800 
 43 H      -10.4150    -1.3370    -0.5840 H     1 <1>   0.0800 
 44 H       -9.8570    -0.6710     0.9280 H     1 <1>   0.0800 
 45 H       -9.6500    -4.6900     1.4010 H     1 <1>   0.0800 
 46 H      -10.2150    -5.3740    -0.1040 H     1 <1>   0.0800 
 47 H      -11.9940    -1.9940     1.1200 H     1 <1>   0.0800 
 48 H      -10.7320    -2.6340     2.1460 H     1 <1>   0.0800 
@<TRIPOS>BOND
  1   1   2  2   
  2   2   3  am  
  3   2   4  1   
  4   3   5  1   
  5   3  27  1   
  6   4   6  1   
  7   4  28  1   
  8   4  29  1   
  9   5   7  ar  
 10   5   8  ar  
 11   6   7  1   
 12   6   9  am  
 13   7  10  ar  
 14   8  11  ar  
 15   8  30  1   
 16   9  12  2   
 17   9  13  1   
 18  10  14  ar  
 19  10  31  1   
 20  11  14  ar  
 21  11  32  1   
 22  13  15  ar  
 23  13  16  ar  
 24  14  33  1   
 25  15  17  ar  
 26  15  34  1   
 27  16  18  ar  
 28  16  35  1   
 29  17  19  ar  
 30  17  36  1   
 31  18  19  ar  
 32  18  37  1   
 33  19  20  1   
 34  20  21  1   
 35  20  38  1   
 36  20  39  1   
 37  21  22  1   
 38  21  23  1   
 39  21  40  1   
 40  22  24  1   
 41  22  41  1   
 42  22  42  1   
 43  23  25  1   
 44  23  43  1   
 45  23  44  1   
 46  24  26  1   
 47  24  45  1   
 48  24  46  1   
 49  25  26  1   
 50  25  47  1   
 51  25  48  1   
@<TRIPOS>SUBSTRUCTURE
  1 ****  13 GROUP 4 **** **** 0

# MOE 2024.06 (io_trps.svl 2023.06)
