@<TRIPOS>MOLECULE
N-(Tetrahydro-furan-2-ylmethyl)-4-(3-m-tolyl-[1,2,4]oxadiazol-5-yl)-butyramide
47 49 1 0 0 
SMALL
USER_CHARGES


@<TRIPOS>ATOM
  1 O       -1.2060    -3.6830    -1.7650 O.2   1 <1>  -0.5700 
  2 C       -1.0280    -3.3500    -0.6190 C.2   1 <1>   0.5690 
  3 N        0.1850    -2.9590    -0.1610 N.am  1 <1>  -0.7300 
  4 C       -2.1960    -3.3580     0.3450 C.3   1 <1>  -0.0990 
  5 C        1.4380    -2.9270    -0.9490 C.3   1 <1>   0.1400 
  6 C       -2.9050    -1.9910     0.3830 C.3   1 <1>  -0.1600 
  7 C        2.5990    -3.4840    -0.1110 C.3   1 <1>   0.2000 
  8 C       -4.0110    -1.9010     1.4490 C.3   1 <1>   0.0200 
  9 O        2.6300    -2.8730     1.1430 O.3   1 <1>  -0.5600 
 10 C        3.9780    -3.2200    -0.6970 C.3   1 <1>  -0.1600 
 11 C       -5.1440    -2.8860     1.2230 C.2   1 <1>   0.2980 
 12 C        3.9120    -2.9350     1.6870 C.3   1 <1>   0.1200 
 13 C        4.8660    -3.2410     0.5340 C.3   1 <1>  -0.1600 
 14 O       -5.0190    -4.1080     1.6690 O.3   1 <1>  -0.0190 
 15 N       -6.2370    -2.6290     0.6340 N.2   1 <1>  -0.5650 
 16 N       -6.1280    -4.6830     1.3290 N.2   1 <1>  -0.4100 
 17 C       -6.8530    -3.8150     0.7140 C.2   1 <1>   0.4620 
 18 C       -8.1770    -4.0520     0.1640 C.ar  1 <1>   0.0540 
 19 C       -8.8800    -3.0570    -0.5190 C.ar  1 <1>  -0.1500 
 20 C       -8.8040    -5.2930     0.2970 C.ar  1 <1>  -0.1500 
 21 C      -10.1410    -3.2780    -1.0450 C.ar  1 <1>  -0.1440 
 22 C      -10.0640    -5.5260    -0.2220 C.ar  1 <1>  -0.1500 
 23 C      -10.7340    -4.5200    -0.8920 C.ar  1 <1>  -0.1500 
 24 C      -10.8780    -2.1730    -1.7810 C.3   1 <1>  -0.0970 
 25 H        0.3350    -2.7240     0.8250 H     1 <1>   0.3700 
 26 H       -1.8390    -3.6200     1.3240 H     1 <1>   0.0800 
 27 H       -2.8830    -4.1210     0.0260 H     1 <1>   0.0800 
 28 H        1.6490    -1.9100    -1.2270 H     1 <1>   0.0800 
 29 H        1.3250    -3.5070    -1.8490 H     1 <1>   0.0800 
 30 H       -3.3320    -1.7940    -0.5870 H     1 <1>   0.0800 
 31 H       -2.1760    -1.2230     0.5780 H     1 <1>   0.0800 
 32 H        2.4620    -4.5410     0.0480 H     1 <1>   0.0800 
 33 H       -4.4230    -0.9080     1.4330 H     1 <1>   0.0800 
 34 H       -3.5950    -2.0640     2.4270 H     1 <1>   0.0800 
 35 H        4.0020    -2.2460    -1.1530 H     1 <1>   0.0800 
 36 H        4.2560    -3.9630    -1.4240 H     1 <1>   0.0800 
 37 H        3.9290    -3.7140     2.4310 H     1 <1>   0.0800 
 38 H        4.1280    -1.9850     2.1440 H     1 <1>   0.0800 
 39 H        5.6580    -2.5160     0.4740 H     1 <1>   0.0800 
 40 H        5.2960    -4.2170     0.6770 H     1 <1>   0.0800 
 41 H       -8.4230    -2.0900    -0.6380 H     1 <1>   0.1500 
 42 H       -8.2960    -6.0870     0.8150 H     1 <1>   0.1500 
 43 H      -10.5240    -6.4920    -0.1040 H     1 <1>   0.1500 
 44 H      -11.7150    -4.7060    -1.2930 H     1 <1>   0.1500 
 45 H      -10.1970    -1.4000    -2.0890 H     1 <1>   0.0800 
 46 H      -11.6230    -1.7410    -1.1370 H     1 <1>   0.0800 
 47 H      -11.3600    -2.5680    -2.6560 H     1 <1>   0.0800 
@<TRIPOS>BOND
  1   1   2  2   
  2   2   3  am  
  3   2   4  1   
  4   3   5  1   
  5   3  25  1   
  6   4   6  1   
  7   4  26  1   
  8   4  27  1   
  9   5   7  1   
 10   5  28  1   
 11   5  29  1   
 12   6   8  1   
 13   6  30  1   
 14   6  31  1   
 15   7   9  1   
 16   7  10  1   
 17   7  32  1   
 18   8  11  1   
 19   8  33  1   
 20   8  34  1   
 21   9  12  1   
 22  10  13  1   
 23  10  35  1   
 24  10  36  1   
 25  11  14  1   
 26  11  15  2   
 27  12  13  1   
 28  12  37  1   
 29  12  38  1   
 30  13  39  1   
 31  13  40  1   
 32  14  16  1   
 33  15  17  1   
 34  16  17  2   
 35  17  18  1   
 36  18  19  ar  
 37  18  20  ar  
 38  19  21  ar  
 39  19  41  1   
 40  20  22  ar  
 41  20  42  1   
 42  21  23  ar  
 43  21  24  1   
 44  22  23  ar  
 45  22  43  1   
 46  23  44  1   
 47  24  45  1   
 48  24  46  1   
 49  24  47  1   
@<TRIPOS>SUBSTRUCTURE
  1 ****   4 GROUP 4 **** **** 0

# MOE 2024.06 (io_trps.svl 2023.06)
