@<TRIPOS>MOLECULE
4-(3-Ethoxy-4-hydroxy-phenyl)-2-oxo-6-propyl-1,2,3,4-tetrahydro-pyrimidine-5-car
49 50 1 0 0 
SMALL
USER_CHARGES


@<TRIPOS>ATOM
  1 O        1.5960    -0.1210     1.5970 O.2   1 <1>  -0.5700 
  2 C        2.3600     0.7340     1.2150 C.2   1 <1>   0.6900 
  3 N        1.9430     1.6970     0.3600 N.am  1 <1>  -0.5390 
  4 N        3.6400     0.7410     1.6130 N.am  1 <1>  -0.7300 
  5 C        2.7530     2.6840    -0.1680 C.2   1 <1>  -0.0290 
  6 C        4.6680     1.6280     1.0380 C.3   1 <1>   0.5020 
  7 C        4.0820     2.7250     0.1370 C.2   1 <1>  -0.1240 
  8 C        2.0010     3.6680    -1.0610 C.3   1 <1>  -0.0220 
  9 C        5.6440     0.7430     0.2680 C.ar  1 <1>  -0.1430 
 10 C        5.0600     3.6930    -0.2750 C.2   1 <1>   0.7060 
 11 C        1.4470     4.8340    -0.2340 C.3   1 <1>  -0.1600 
 12 C        6.9650     0.6400     0.6790 C.ar  1 <1>  -0.1500 
 13 C        5.2330     0.0350    -0.8520 C.ar  1 <1>  -0.1500 
 14 O        4.8780     4.5160    -1.1500 O.2   1 <1>  -0.5700 
 15 O        6.2440     3.7010     0.3520 O.3   1 <1>  -0.4300 
 16 C        0.6670     5.8220    -1.1070 C.3   1 <1>  -0.2400 
 17 C        7.8810    -0.1470    -0.0010 C.ar  1 <1>   0.0830 
 18 C        6.1290    -0.7560    -1.5480 C.ar  1 <1>  -0.1500 
 19 C        7.3010     4.5740     0.0100 C.3   1 <1>   0.1200 
 20 O        9.1350    -0.1350     0.5360 O.3   1 <1>  -0.3630 
 21 C        7.4490    -0.8530    -1.1370 C.ar  1 <1>   0.0830 
 22 C        7.1270     5.8840     0.7770 C.3   1 <1>  -0.2400 
 23 C       10.1720    -0.9720     0.0840 C.3   1 <1>   0.1200 
 24 O        8.2570    -1.6390    -1.8820 O.3   1 <1>  -0.5330 
 25 C       11.3780    -0.7660     0.9960 C.3   1 <1>  -0.2400 
 26 H        0.9490     1.6460     0.1410 H     1 <1>   0.3700 
 27 H        3.9760    -0.0880     2.0980 H     1 <1>   0.3700 
 28 H        5.1780     2.0930     1.8640 H     1 <1>   0.0800 
 29 H        1.1910     3.1580    -1.5540 H     1 <1>   0.0800 
 30 H        2.6350     4.0450    -1.8410 H     1 <1>   0.0800 
 31 H        2.2650     5.3500     0.2390 H     1 <1>   0.0800 
 32 H        0.8020     4.4540     0.5400 H     1 <1>   0.0800 
 33 H        7.3100     1.1800     1.5420 H     1 <1>   0.1500 
 34 H        4.2100     0.0980    -1.1840 H     1 <1>   0.1500 
 35 H        1.3060     6.2320    -1.8700 H     1 <1>   0.0800 
 36 H        0.2950     6.6310    -0.5040 H     1 <1>   0.0800 
 37 H       -0.1680     5.3340    -1.5780 H     1 <1>   0.0800 
 38 H        5.7860    -1.2940    -2.4130 H     1 <1>   0.1500 
 39 H        7.3050     4.7340    -1.0550 H     1 <1>   0.0800 
 40 H        8.2220     4.0940     0.2920 H     1 <1>   0.0800 
 41 H        6.2130     6.3680     0.4840 H     1 <1>   0.0800 
 42 H        7.9460     6.5430     0.5530 H     1 <1>   0.0800 
 43 H        7.1160     5.6980     1.8360 H     1 <1>   0.0800 
 44 H       10.4110    -0.7000    -0.9300 H     1 <1>   0.0800 
 45 H        9.8300    -1.9920     0.1270 H     1 <1>   0.0800 
 46 H        7.7970    -2.0380    -2.6410 H     1 <1>   0.4500 
 47 H       11.6980     0.2600     0.9570 H     1 <1>   0.0800 
 48 H       12.1880    -1.3930     0.6730 H     1 <1>   0.0800 
 49 H       11.1240    -1.0260     2.0080 H     1 <1>   0.0800 
@<TRIPOS>BOND
  1   1   2  2   
  2   2   3  am  
  3   2   4  am  
  4   3   5  1   
  5   3  26  1   
  6   4   6  1   
  7   4  27  1   
  8   5   7  2   
  9   5   8  1   
 10   6   7  1   
 11   6   9  1   
 12   6  28  1   
 13   7  10  1   
 14   8  11  1   
 15   8  29  1   
 16   8  30  1   
 17   9  12  ar  
 18   9  13  ar  
 19  10  14  2   
 20  10  15  1   
 21  11  16  1   
 22  11  31  1   
 23  11  32  1   
 24  12  17  ar  
 25  12  33  1   
 26  13  18  ar  
 27  13  34  1   
 28  15  19  1   
 29  16  35  1   
 30  16  36  1   
 31  16  37  1   
 32  17  20  1   
 33  17  21  ar  
 34  18  21  ar  
 35  18  38  1   
 36  19  22  1   
 37  19  39  1   
 38  19  40  1   
 39  20  23  1   
 40  21  24  1   
 41  22  41  1   
 42  22  42  1   
 43  22  43  1   
 44  23  25  1   
 45  23  44  1   
 46  23  45  1   
 47  24  46  1   
 48  25  47  1   
 49  25  48  1   
 50  25  49  1   
@<TRIPOS>SUBSTRUCTURE
  1 ****   9 GROUP 4 **** **** 0

# MOE 2024.06 (io_trps.svl 2023.06)
