@<TRIPOS>MOLECULE
N-(4-Methoxy-phenyl)-4-(2-morpholin-4-yl-2-oxo-ethoxy)-benzenesulfonamide
50 52 1 0 0 
SMALL
USER_CHARGES


@<TRIPOS>ATOM
  1 S       -0.2590    -0.3310     2.8500 S.o2  1 <1>   1.4470 
  2 O       -1.0230    -1.4360     3.3780 O.2   1 <1>  -0.6500 
  3 O        0.2510     0.7040     3.7170 O.2   1 <1>  -0.6500 
  4 N       -1.2710     0.5210     1.7540 N.am  1 <1>  -0.7570 
  5 C        1.0610    -0.9260     1.7590 C.ar  1 <1>  -0.0090 
  6 C       -1.9850    -0.0520     0.7110 C.ar  1 <1>   0.1990 
  7 C        2.3320    -0.3630     1.7950 C.ar  1 <1>  -0.1500 
  8 C        0.8290    -1.9440     0.8410 C.ar  1 <1>  -0.1500 
  9 C       -2.9110    -1.0630     0.9370 C.ar  1 <1>  -0.1500 
 10 C       -1.7810     0.3890    -0.5900 C.ar  1 <1>  -0.1500 
 11 C        3.3370    -0.7930     0.9460 C.ar  1 <1>  -0.1500 
 12 C        1.8260    -2.3790    -0.0130 C.ar  1 <1>  -0.1500 
 13 C       -3.6140    -1.6310    -0.1100 C.ar  1 <1>  -0.1500 
 14 C       -2.4810    -0.1750    -1.6410 C.ar  1 <1>  -0.1500 
 15 C        3.0870    -1.8110     0.0320 C.ar  1 <1>   0.0830 
 16 C       -3.4000    -1.1860    -1.4120 C.ar  1 <1>   0.0830 
 17 O        4.0070    -2.2960    -0.8370 O.3   1 <1>  -0.3620 
 18 O       -4.0470    -1.6840    -2.5000 O.3   1 <1>  -0.3620 
 19 C        5.3790    -1.9290    -0.7780 C.3   1 <1>   0.1810 
 20 C       -5.0150    -2.7010    -2.3640 C.3   1 <1>   0.0400 
 21 C        5.6980    -0.5330    -1.3330 C.2   1 <1>   0.5690 
 22 O        4.8020     0.1650    -1.7530 O.2   1 <1>  -0.5700 
 23 N        6.9970    -0.0820    -1.3380 N.am  1 <1>  -0.6600 
 24 C        7.3540     1.2580    -1.9010 C.3   1 <1>   0.1400 
 25 C        8.1920    -0.8340    -0.8420 C.3   1 <1>   0.1400 
 26 C        8.2700     2.0290    -0.9370 C.3   1 <1>   0.1200 
 27 C        9.0540     0.0590     0.0680 C.3   1 <1>   0.1200 
 28 O        9.3800     1.2540    -0.5800 O.3   1 <1>  -0.5600 
 29 H       -0.9080     1.4580     1.6200 H     1 <1>   0.4200 
 30 H        2.5410     0.4300     2.4940 H     1 <1>   0.1500 
 31 H       -0.1460    -2.4000     0.7890 H     1 <1>   0.1500 
 32 H       -3.0870    -1.4040     1.9420 H     1 <1>   0.1500 
 33 H       -1.0690     1.1700    -0.7860 H     1 <1>   0.1500 
 34 H        4.2970    -0.3170     1.0040 H     1 <1>   0.1500 
 35 H        1.6310    -3.1630    -0.7240 H     1 <1>   0.1500 
 36 H       -4.3190    -2.4110     0.1070 H     1 <1>   0.1500 
 37 H       -2.3210     0.1640    -2.6490 H     1 <1>   0.1500 
 38 H        5.9140    -2.6540    -1.3600 H     1 <1>   0.0800 
 39 H        5.6980    -2.0050     0.2440 H     1 <1>   0.0800 
 40 H       -5.3960    -2.9320    -3.3420 H     1 <1>   0.0800 
 41 H       -5.8110    -2.3430    -1.7360 H     1 <1>   0.0800 
 42 H       -4.5480    -3.5720    -1.9390 H     1 <1>   0.0800 
 43 H        6.4700     1.8420    -2.0880 H     1 <1>   0.0800 
 44 H        7.8630     1.1230    -2.8390 H     1 <1>   0.0800 
 45 H        8.7850    -1.1460    -1.6840 H     1 <1>   0.0800 
 46 H        7.9040    -1.7120    -0.2950 H     1 <1>   0.0800 
 47 H        7.7350     2.3010    -0.0430 H     1 <1>   0.0800 
 48 H        8.6320     2.9250    -1.4080 H     1 <1>   0.0800 
 49 H        9.9740    -0.4400     0.3150 H     1 <1>   0.0800 
 50 H        8.5320     0.2930     0.9800 H     1 <1>   0.0800 
@<TRIPOS>BOND
  1   1   2  2   
  2   1   3  2   
  3   1   4  am  
  4   1   5  1   
  5   4   6  1   
  6   4  29  1   
  7   5   7  ar  
  8   5   8  ar  
  9   6   9  ar  
 10   6  10  ar  
 11   7  11  ar  
 12   7  30  1   
 13   8  12  ar  
 14   8  31  1   
 15   9  13  ar  
 16   9  32  1   
 17  10  14  ar  
 18  10  33  1   
 19  11  15  ar  
 20  11  34  1   
 21  12  15  ar  
 22  12  35  1   
 23  13  16  ar  
 24  13  36  1   
 25  14  16  ar  
 26  14  37  1   
 27  15  17  1   
 28  16  18  1   
 29  17  19  1   
 30  18  20  1   
 31  19  21  1   
 32  19  38  1   
 33  19  39  1   
 34  20  40  1   
 35  20  41  1   
 36  20  42  1   
 37  21  22  2   
 38  21  23  am  
 39  23  24  1   
 40  23  25  1   
 41  24  26  1   
 42  24  43  1   
 43  24  44  1   
 44  25  27  1   
 45  25  45  1   
 46  25  46  1   
 47  26  28  1   
 48  26  47  1   
 49  26  48  1   
 50  27  28  1   
 51  27  49  1   
 52  27  50  1   
@<TRIPOS>SUBSTRUCTURE
  1 ****  15 GROUP 4 **** **** 0

# MOE 2024.06 (io_trps.svl 2023.06)
