@<TRIPOS>MOLECULE
Morpholine-4-carboxylic acid [2-(2,4-dichloro-phenoxy)-acetyl]-amide
35 36 1 0 0 
SMALL
USER_CHARGES


@<TRIPOS>ATOM
  1 CL      -2.9030     0.1150     2.7070 Cl    1 <1>  -0.1770 
  2 C       -2.4590    -1.1330     1.5630 C.ar  1 <1>   0.1770 
  3 C       -3.2080    -1.3080     0.4010 C.ar  1 <1>   0.0830 
  4 C       -1.3640    -1.9250     1.8460 C.ar  1 <1>  -0.1500 
  5 O       -4.2710    -0.4830     0.2010 O.3   1 <1>  -0.3630 
  6 C       -2.8360    -2.3100    -0.4960 C.ar  1 <1>  -0.1500 
  7 C       -1.0160    -2.9110     0.9430 C.ar  1 <1>   0.1770 
  8 C       -5.1080    -0.6010    -0.9410 C.3   1 <1>   0.1810 
  9 C       -1.7380    -3.1110    -0.2210 C.ar  1 <1>  -0.1500 
 10 CL       0.3640    -3.9260     1.2760 Cl    1 <1>  -0.1770 
 11 C       -6.2180     0.4420    -0.9150 C.2   1 <1>   0.5690 
 12 O       -7.0230     0.4250    -1.8120 O.2   1 <1>  -0.5700 
 13 N       -6.2330     1.3420     0.1110 N.am  1 <1>  -0.4900 
 14 C       -6.9570     2.4680     0.3520 C.2   1 <1>   0.6900 
 15 O       -6.3980     3.3190     1.0110 O.2   1 <1>  -0.5700 
 16 N       -8.2460     2.6630    -0.0710 N.am  1 <1>  -0.6600 
 17 C       -9.2460     1.5730    -0.2660 C.3   1 <1>   0.1400 
 18 C       -8.8480     4.0270    -0.1370 C.3   1 <1>   0.1400 
 19 C      -10.4910     1.8050     0.6090 C.3   1 <1>   0.1200 
 20 C      -10.0960     4.1120     0.7550 C.3   1 <1>   0.1200 
 21 O      -11.0020     3.0960     0.4300 O.3   1 <1>  -0.5600 
 22 H       -0.7960    -1.7790     2.7460 H     1 <1>   0.1500 
 23 H       -3.3800    -2.4850    -1.4060 H     1 <1>   0.1500 
 24 H       -5.5430    -1.5830    -0.9470 H     1 <1>   0.0800 
 25 H       -4.5090    -0.4570    -1.8210 H     1 <1>   0.0800 
 26 H       -1.4380    -3.8880    -0.9020 H     1 <1>   0.1500 
 27 H       -5.4210     1.2990     0.7240 H     1 <1>   0.3700 
 28 H       -8.8200     0.6210    -0.0090 H     1 <1>   0.0800 
 29 H       -9.5350     1.5400    -1.3020 H     1 <1>   0.0800 
 30 H       -9.1250     4.2390    -1.1540 H     1 <1>   0.0800 
 31 H       -8.1360     4.7730     0.1720 H     1 <1>   0.0800 
 32 H      -10.2480     1.6750     1.6490 H     1 <1>   0.0800 
 33 H      -11.2640     1.1060     0.3440 H     1 <1>   0.0800 
 34 H      -10.5930     5.0550     0.6090 H     1 <1>   0.0800 
 35 H       -9.8260     4.0190     1.7920 H     1 <1>   0.0800 
@<TRIPOS>BOND
  1   1   2  1   
  2   2   3  ar  
  3   2   4  ar  
  4   3   5  1   
  5   3   6  ar  
  6   4   7  ar  
  7   4  22  1   
  8   5   8  1   
  9   6   9  ar  
 10   6  23  1   
 11   7   9  ar  
 12   7  10  1   
 13   8  11  1   
 14   8  24  1   
 15   8  25  1   
 16   9  26  1   
 17  11  12  2   
 18  11  13  am  
 19  13  14  am  
 20  13  27  1   
 21  14  15  2   
 22  14  16  am  
 23  16  17  1   
 24  16  18  1   
 25  17  19  1   
 26  17  28  1   
 27  17  29  1   
 28  18  20  1   
 29  18  30  1   
 30  18  31  1   
 31  19  21  1   
 32  19  32  1   
 33  19  33  1   
 34  20  21  1   
 35  20  34  1   
 36  20  35  1   
@<TRIPOS>SUBSTRUCTURE
  1 ****  13 GROUP 4 **** **** 0

# MOE 2024.06 (io_trps.svl 2023.06)
