@<TRIPOS>MOLECULE
3-tert-Butyl-6-(2-chloro-phenoxymethyl)-[1,2,4]triazolo[3,4-b][1,3,4]thiadiazole
36 38 1 0 0 
SMALL
USER_CHARGES


@<TRIPOS>ATOM
  1 CL      -0.9430     0.4340     0.2830 Cl    1 <1>  -0.1770 
  2 C       -0.4890    -1.2530     0.1420 C.ar  1 <1>   0.1770 
  3 C        0.7970    -1.6430    -0.2360 C.ar  1 <1>   0.0830 
  4 C       -1.4660    -2.1950     0.4050 C.ar  1 <1>  -0.1500 
  5 O        1.8130    -0.7840    -0.4990 O.3   1 <1>  -0.3630 
  6 C        1.0760    -2.9950    -0.3660 C.ar  1 <1>  -0.1500 
  7 C       -1.1710    -3.5430     0.2830 C.ar  1 <1>  -0.1500 
  8 C        2.1270     0.2270     0.4430 C.3   1 <1>   0.1810 
  9 C        0.0980    -3.9410    -0.1050 C.ar  1 <1>  -0.1500 
 10 C        3.6290     0.4400     0.4890 C.2   1 <1>   0.5300 
 11 S        4.6080    -0.9450     1.0170 S.3   1 <1>  -0.1970 
 12 N        4.2970     1.4880     0.2110 N.2   1 <1>  -0.6520 
 13 C        6.0340     0.0480     0.8070 C.2   1 <1>   0.2430 
 14 N        5.6680     1.2480     0.3880 N.pl3 1 <1>   0.5050 
 15 N        7.2980    -0.1140     0.9620 N.2   1 <1>  -0.3380 
 16 C        6.8560     1.8720     0.2820 C.2   1 <1>   0.0070 
 17 N        7.8290     1.0740     0.6200 N.2   1 <1>  -0.3380 
 18 C        7.0010     3.3300    -0.1800 C.3   1 <1>   0.1800 
 19 C        6.4370     3.4910    -1.5990 C.3   1 <1>  -0.2400 
 20 C        6.2510     4.2650     0.7800 C.3   1 <1>  -0.2400 
 21 C        8.4810     3.7510    -0.2020 C.3   1 <1>  -0.2400 
 22 H       -2.4510    -1.8760     0.6970 H     1 <1>   0.1500 
 23 H        2.0600    -3.3040    -0.6690 H     1 <1>   0.1500 
 24 H       -1.9280    -4.2820     0.4860 H     1 <1>   0.1500 
 25 H        1.7720    -0.0700     1.4130 H     1 <1>   0.0800 
 26 H        1.6420     1.1350     0.1350 H     1 <1>   0.0800 
 27 H        0.3250    -4.9890    -0.2050 H     1 <1>   0.1500 
 28 H        6.9400     2.8230    -2.2760 H     1 <1>   0.0800 
 29 H        6.5750     4.4990    -1.9490 H     1 <1>   0.0800 
 30 H        5.3850     3.2710    -1.6230 H     1 <1>   0.0800 
 31 H        5.1970     4.0520     0.7800 H     1 <1>   0.0800 
 32 H        6.3860     5.2910     0.4900 H     1 <1>   0.0800 
 33 H        6.6230     4.1410     1.7820 H     1 <1>   0.0800 
 34 H        9.0380     3.1200    -0.8720 H     1 <1>   0.0800 
 35 H        8.9100     3.6580     0.7800 H     1 <1>   0.0800 
 36 H        8.5860     4.7710    -0.5250 H     1 <1>   0.0800 
@<TRIPOS>BOND
  1   1   2  1   
  2   2   3  ar  
  3   2   4  ar  
  4   3   5  1   
  5   3   6  ar  
  6   4   7  ar  
  7   4  22  1   
  8   5   8  1   
  9   6   9  ar  
 10   6  23  1   
 11   7   9  ar  
 12   7  24  1   
 13   8  10  1   
 14   8  25  1   
 15   8  26  1   
 16   9  27  1   
 17  10  11  1   
 18  10  12  2   
 19  11  13  1   
 20  12  14  1   
 21  13  14  1   
 22  13  15  2   
 23  14  16  1   
 24  15  17  1   
 25  16  17  2   
 26  16  18  1   
 27  18  19  1   
 28  18  20  1   
 29  18  21  1   
 30  19  28  1   
 31  19  29  1   
 32  19  30  1   
 33  20  31  1   
 34  20  32  1   
 35  20  33  1   
 36  21  34  1   
 37  21  35  1   
 38  21  36  1   
@<TRIPOS>SUBSTRUCTURE
  1 ****  10 GROUP 4 **** **** 0

# MOE 2024.06 (io_trps.svl 2023.06)
