@<TRIPOS>MOLECULE
N-[3-(4-Chloro-phenyl)-[1,2,4]oxadiazol-5-ylmethyl]-butyramide
33 34 1 0 0 
SMALL
USER_CHARGES


@<TRIPOS>ATOM
  1 CL       0.2770     1.6460    -1.0750 Cl    1 <1>  -0.1770 
  2 C        1.8740     2.1850    -0.6250 C.ar  1 <1>   0.1770 
  3 C        2.0640     3.4930    -0.2270 C.ar  1 <1>  -0.1500 
  4 C        2.9310     1.2970    -0.6730 C.ar  1 <1>  -0.1500 
  5 C        3.3340     3.9150     0.1290 C.ar  1 <1>  -0.1500 
  6 C        4.1950     1.7300    -0.3140 C.ar  1 <1>  -0.1500 
  7 C        4.4310     3.0470     0.0950 C.ar  1 <1>   0.0540 
  8 C        5.7650     3.4880     0.4690 C.2   1 <1>   0.4620 
  9 N        6.8170     2.7490     0.5050 N.2   1 <1>  -0.4100 
 10 N        6.0370     4.7480     0.8250 N.2   1 <1>  -0.5650 
 11 O        7.8140     3.4890     0.8750 O.3   1 <1>  -0.0190 
 12 C        7.2850     4.6710     1.0500 C.2   1 <1>   0.2980 
 13 C        8.1860     5.8110     1.4990 C.3   1 <1>   0.3200 
 14 N        9.2020     6.1550     0.4700 N.am  1 <1>  -0.7300 
 15 C        9.0770     6.9890    -0.5870 C.2   1 <1>   0.5690 
 16 O       10.0090     7.1310    -1.3350 O.2   1 <1>  -0.5700 
 17 C        7.7900     7.7490    -0.8590 C.3   1 <1>  -0.0990 
 18 C        7.7250     9.0780    -0.0880 C.3   1 <1>  -0.1600 
 19 C        6.4070     9.8100    -0.3540 C.3   1 <1>  -0.2400 
 20 H        1.2280     4.1680    -0.1970 H     1 <1>   0.1500 
 21 H        2.7620     0.2820    -0.9860 H     1 <1>   0.1500 
 22 H        3.4760     4.9360     0.4380 H     1 <1>   0.1500 
 23 H        5.0160     1.0340    -0.3530 H     1 <1>   0.1500 
 24 H        8.6860     5.5290     2.4090 H     1 <1>   0.0800 
 25 H        7.5770     6.6720     1.7100 H     1 <1>   0.0800 
 26 H       10.0810     5.6350     0.5080 H     1 <1>   0.3700 
 27 H        6.9460     7.1320    -0.6150 H     1 <1>   0.0800 
 28 H        7.7420     7.9520    -1.9140 H     1 <1>   0.0800 
 29 H        8.5480     9.7020    -0.3940 H     1 <1>   0.0800 
 30 H        7.8250     8.8960     0.9670 H     1 <1>   0.0800 
 31 H        6.3010    10.0270    -1.4030 H     1 <1>   0.0800 
 32 H        6.3860    10.7390     0.1890 H     1 <1>   0.0800 
 33 H        5.5700     9.2120    -0.0370 H     1 <1>   0.0800 
@<TRIPOS>BOND
  1   1   2  1   
  2   2   3  ar  
  3   2   4  ar  
  4   3   5  ar  
  5   3  20  1   
  6   4   6  ar  
  7   4  21  1   
  8   5   7  ar  
  9   5  22  1   
 10   6   7  ar  
 11   6  23  1   
 12   7   8  1   
 13   8   9  2   
 14   8  10  1   
 15   9  11  1   
 16  10  12  2   
 17  11  12  1   
 18  12  13  1   
 19  13  14  1   
 20  13  24  1   
 21  13  25  1   
 22  14  15  am  
 23  14  26  1   
 24  15  16  2   
 25  15  17  1   
 26  17  18  1   
 27  17  27  1   
 28  17  28  1   
 29  18  19  1   
 30  18  29  1   
 31  18  30  1   
 32  19  31  1   
 33  19  32  1   
 34  19  33  1   
@<TRIPOS>SUBSTRUCTURE
  1 ****  10 GROUP 4 **** **** 0

# MOE 2024.06 (io_trps.svl 2023.06)
