@<TRIPOS>MOLECULE
N-(3-Fluoro-4-methyl-phenyl)-2-[4-(4-fluoro-phenyl)-piperazin-1-yl]-acetamide
46 48 1 0 0 
SMALL
USER_CHARGES


@<TRIPOS>ATOM
  1 F        3.4790     2.1340    -2.9440 F     1 <1>  -0.1900 
  2 C        3.5590     1.6740    -1.7220 C.ar  1 <1>   0.1900 
  3 C        2.4640     1.7930    -0.8790 C.ar  1 <1>  -0.1440 
  4 C        4.7450     1.0880    -1.3280 C.ar  1 <1>  -0.1500 
  5 C        2.5890     1.2930     0.4070 C.ar  1 <1>  -0.1500 
  6 C        1.1700     2.4460    -1.3420 C.3   1 <1>  -0.0960 
  7 C        4.8670     0.5900    -0.0380 C.ar  1 <1>   0.1170 
  8 C        3.7730     0.7010     0.8190 C.ar  1 <1>  -0.1500 
  9 N        6.0820    -0.0020     0.3360 N.am  1 <1>  -0.5470 
 10 C        6.5920    -0.4230     1.5320 C.2   1 <1>   0.5690 
 11 O        6.0170    -0.3440     2.5900 O.2   1 <1>  -0.5700 
 12 C        7.9970    -1.0280     1.4900 C.3   1 <1>   0.1710 
 13 N        8.8130    -0.5700     0.3240 N.3   1 <1>  -0.8100 
 14 C        9.2930     0.8210     0.5300 C.3   1 <1>   0.1100 
 15 C        9.9810    -1.4570     0.1200 C.3   1 <1>   0.1100 
 16 C       10.1190     1.3400    -0.6620 C.3   1 <1>   0.2090 
 17 C       10.8540    -1.0210    -1.0750 C.3   1 <1>   0.2090 
 18 N       11.2460     0.4190    -0.9920 N.pl3 1 <1>  -0.8380 
 19 C       12.5410     0.7960    -0.6400 C.ar  1 <1>   0.1000 
 20 C       13.1540     1.8370    -1.3320 C.ar  1 <1>  -0.1500 
 21 C       13.2390     0.1640     0.3890 C.ar  1 <1>  -0.1500 
 22 C       14.4360     2.2470    -1.0130 C.ar  1 <1>  -0.1500 
 23 C       14.5230     0.5600     0.7210 C.ar  1 <1>  -0.1500 
 24 C       15.0980     1.5970     0.0110 C.ar  1 <1>   0.1900 
 25 F       16.3120     1.9770     0.3210 F     1 <1>  -0.1900 
 26 H        5.5590     1.0230    -2.0240 H     1 <1>   0.1500 
 27 H        1.7670     1.3600     1.0990 H     1 <1>   0.1500 
 28 H        0.7710     1.9090    -2.1840 H     1 <1>   0.0800 
 29 H        1.3590     3.4620    -1.6390 H     1 <1>   0.0800 
 30 H        0.4360     2.4480    -0.5570 H     1 <1>   0.0800 
 31 H        3.8360     0.3200     1.8210 H     1 <1>   0.1500 
 32 H        6.7810    -0.1070    -0.4070 H     1 <1>   0.3700 
 33 H        7.8740    -2.0950     1.4410 H     1 <1>   0.0800 
 34 H        8.5040    -0.7970     2.4110 H     1 <1>   0.0800 
 35 H        9.9060     0.8700     1.4140 H     1 <1>   0.0800 
 36 H        8.4540     1.4790     0.6750 H     1 <1>   0.0800 
 37 H        9.6380    -2.4610    -0.0580 H     1 <1>   0.0800 
 38 H       10.5880    -1.4670     1.0080 H     1 <1>   0.0800 
 39 H       10.5060     2.3160    -0.4270 H     1 <1>   0.0800 
 40 H        9.4810     1.4350    -1.5230 H     1 <1>   0.0800 
 41 H       10.3000    -1.1750    -1.9850 H     1 <1>   0.0800 
 42 H       11.7360    -1.6350    -1.1240 H     1 <1>   0.0800 
 43 H       12.6140     2.3160    -2.1280 H     1 <1>   0.1500 
 44 H       12.7730    -0.6340     0.9330 H     1 <1>   0.1500 
 45 H       14.9160     3.0490    -1.5440 H     1 <1>   0.1500 
 46 H       15.0710     0.0800     1.5110 H     1 <1>   0.1500 
@<TRIPOS>BOND
  1   1   2  1   
  2   2   3  ar  
  3   2   4  ar  
  4   3   5  ar  
  5   3   6  1   
  6   4   7  ar  
  7   4  26  1   
  8   5   8  ar  
  9   5  27  1   
 10   6  28  1   
 11   6  29  1   
 12   6  30  1   
 13   7   8  ar  
 14   7   9  1   
 15   8  31  1   
 16   9  10  am  
 17   9  32  1   
 18  10  11  2   
 19  10  12  1   
 20  12  13  1   
 21  12  33  1   
 22  12  34  1   
 23  13  14  1   
 24  13  15  1   
 25  14  16  1   
 26  14  35  1   
 27  14  36  1   
 28  15  17  1   
 29  15  37  1   
 30  15  38  1   
 31  16  18  1   
 32  16  39  1   
 33  16  40  1   
 34  17  18  1   
 35  17  41  1   
 36  17  42  1   
 37  18  19  1   
 38  19  20  ar  
 39  19  21  ar  
 40  20  22  ar  
 41  20  43  1   
 42  21  23  ar  
 43  21  44  1   
 44  22  24  ar  
 45  22  45  1   
 46  23  24  ar  
 47  23  46  1   
 48  24  25  1   
@<TRIPOS>SUBSTRUCTURE
  1 ****  14 GROUP 4 **** **** 0

# MOE 2024.06 (io_trps.svl 2023.06)
