@<TRIPOS>MOLECULE
8-(2-Methoxy-ethyl)-1,6,7-trimethyl-3-propyl-1H,8H-imidazo[2,1-f]purine-2,4-dion
48 50 1 0 0 
SMALL
USER_CHARGES


@<TRIPOS>ATOM
  1 O        1.1850    -0.4990    -0.3520 O.2   1 <1>  -0.5750 
  2 C        2.0490     0.3450    -0.2240 C.2   1 <1>   0.6860 
  3 N        1.7700     1.6840    -0.4810 N.am  1 <1>  -0.4260 
  4 N        3.3230    -0.0350     0.1770 N.am  1 <1>  -0.4420 
  5 C        2.7540     2.6590    -0.3810 C.2   1 <1>   0.6990 
  6 C        0.3790     2.0820    -0.8510 C.3   1 <1>   0.1320 
  7 C        4.2950     0.9390     0.2720 C.2   1 <1>   0.4200 
  8 C        3.6330    -1.4630     0.4840 C.3   1 <1>   0.0520 
  9 O        2.5030     3.8290    -0.6220 O.2   1 <1>  -0.5750 
 10 C        4.0640     2.2480     0.0060 C.2   1 <1>   0.2700 
 11 C       -0.4230     2.4190     0.4110 C.3   1 <1>  -0.1670 
 12 N        5.6030     0.7760     0.6100 N.pl3 1 <1>  -0.7040 
 13 N        5.2960     2.9070     0.1790 N.pl3 1 <1>  -0.6330 
 14 C       -1.8550     2.8330     0.0610 C.3   1 <1>  -0.2470 
 15 C        6.1730     1.9760     0.5290 C.cat 1 <1>   1.0690 
 16 C        5.9890     4.0960     0.1090 C.2   1 <1>   0.2340 
 17 N        7.4020     2.4790     0.6990 N.pl3 1 <1>  -0.5720 
 18 C        7.2810     3.8360     0.4300 C.2   1 <1>   0.1570 
 19 C        5.2780     5.3800    -0.2740 C.3   1 <1>  -0.1100 
 20 C        8.6110     1.7400     1.1780 C.3   1 <1>   0.1600 
 21 C        8.4690     4.7800     0.5130 C.3   1 <1>  -0.1100 
 22 C        9.0140     0.5690     0.2660 C.3   1 <1>   0.1120 
 23 O        7.9940    -0.3860     0.2180 O.3   1 <1>  -0.5650 
 24 C        8.3410    -1.5230    -0.5130 C.3   1 <1>   0.0320 
 25 H       -0.1050     1.2810    -1.3850 H     1 <1>   0.0720 
 26 H        0.4020     2.9360    -1.5070 H     1 <1>   0.0720 
 27 H        2.7490    -1.9720     0.8310 H     1 <1>   0.0720 
 28 H        4.3810    -1.5310     1.2540 H     1 <1>   0.0720 
 29 H        3.9870    -1.9560    -0.4050 H     1 <1>   0.0720 
 30 H        0.0530     3.2290     0.9370 H     1 <1>   0.0720 
 31 H       -0.4580     1.5580     1.0560 H     1 <1>   0.0720 
 32 H        6.2010    -0.0600     0.6500 H     1 <1>   0.4450 
 33 H       -1.8540     3.7050    -0.5700 H     1 <1>   0.0720 
 34 H       -2.4010     3.0630     0.9590 H     1 <1>   0.0720 
 35 H       -2.3640     2.0340    -0.4500 H     1 <1>   0.0720 
 36 H        4.8510     5.2840    -1.2560 H     1 <1>   0.0720 
 37 H        5.9550     6.2130    -0.2750 H     1 <1>   0.0720 
 38 H        4.4860     5.5830     0.4250 H     1 <1>   0.0720 
 39 H        8.4290     1.3640     2.1700 H     1 <1>   0.0720 
 40 H        9.4440     2.4170     1.2420 H     1 <1>   0.0720 
 41 H        9.2390     4.4650    -0.1680 H     1 <1>   0.0720 
 42 H        8.8660     4.7880     1.5120 H     1 <1>   0.0720 
 43 H        8.1820     5.7830     0.2570 H     1 <1>   0.0720 
 44 H        9.9010     0.0990     0.6590 H     1 <1>   0.0720 
 45 H        9.2150     0.9200    -0.7320 H     1 <1>   0.0720 
 46 H        7.5060    -2.2020    -0.5090 H     1 <1>   0.0720 
 47 H        9.1910    -1.9980    -0.0530 H     1 <1>   0.0720 
 48 H        8.5730    -1.2410    -1.5260 H     1 <1>   0.0720 
@<TRIPOS>BOND
  1   1   2  2   
  2   2   3  am  
  3   2   4  am  
  4   3   5  am  
  5   3   6  1   
  6   4   7  1   
  7   4   8  1   
  8   5   9  2   
  9   5  10  1   
 10   6  11  1   
 11   6  25  1   
 12   6  26  1   
 13   7  10  2   
 14   7  12  1   
 15   8  27  1   
 16   8  28  1   
 17   8  29  1   
 18  10  13  1   
 19  11  14  1   
 20  11  30  1   
 21  11  31  1   
 22  12  15  ar  
 23  12  32  1   
 24  13  15  ar  
 25  13  16  1   
 26  14  33  1   
 27  14  34  1   
 28  14  35  1   
 29  15  17  ar  
 30  16  18  2   
 31  16  19  1   
 32  17  18  1   
 33  17  20  1   
 34  18  21  1   
 35  19  36  1   
 36  19  37  1   
 37  19  38  1   
 38  20  22  1   
 39  20  39  1   
 40  20  40  1   
 41  21  41  1   
 42  21  42  1   
 43  21  43  1   
 44  22  23  1   
 45  22  44  1   
 46  22  45  1   
 47  23  24  1   
 48  24  46  1   
 49  24  47  1   
 50  24  48  1   
@<TRIPOS>SUBSTRUCTURE
  1 ****  10 GROUP 4 **** **** 0

# MOE 2024.06 (io_trps.svl 2023.06)
