@<TRIPOS>MOLECULE
1-(4-Fluoro-benzyl)-piperidine-2-carboxylic acid
33 34 1 0 0 
SMALL
USER_CHARGES


@<TRIPOS>ATOM
  1 F       -0.4830    -0.3260    -0.3290 F     1 <1>  -0.1900 
  2 C       -1.5940    -0.9790    -0.1220 C.ar  1 <1>   0.1900 
  3 C       -1.7000    -1.7740     1.0020 C.ar  1 <1>  -0.1500 
  4 C       -2.6240    -0.8500    -1.0350 C.ar  1 <1>  -0.1500 
  5 C       -2.8800    -2.4690     1.2150 C.ar  1 <1>  -0.1500 
  6 C       -3.7990    -1.5480    -0.8120 C.ar  1 <1>  -0.1500 
  7 C       -3.9280    -2.3640     0.3070 C.ar  1 <1>  -0.1430 
  8 C       -5.2160    -3.1400     0.5340 C.3   1 <1>   0.4870 
  9 N       -5.2640    -4.3070    -0.4050 N.4   1 <1>  -0.9590 
 10 C       -6.6150    -5.0310    -0.2770 C.3   1 <1>   0.3170 
 11 C       -4.0590    -5.1770    -0.2610 C.3   1 <1>   0.3430 
 12 C       -7.8150    -4.1350     0.1190 C.2   1 <1>   0.9060 
 13 C       -6.4690    -6.2560     0.6400 C.3   1 <1>  -0.1600 
 14 C       -4.3510    -6.5940    -0.7530 C.3   1 <1>  -0.1600 
 15 O       -8.5640    -3.7460    -0.7780 O.co2 1 <1>  -0.9000 
 16 O       -7.8850    -3.7170     1.2830 O.co2 1 <1>  -0.9000 
 17 C       -5.4440    -7.2680     0.0940 C.3   1 <1>  -0.1600 
 18 H       -0.8770    -1.8410     1.6910 H     1 <1>   0.1500 
 19 H       -2.5040    -0.2130    -1.8940 H     1 <1>   0.1500 
 20 H       -2.9740    -3.0850     2.0940 H     1 <1>   0.1500 
 21 H       -4.6110    -1.4450    -1.5130 H     1 <1>   0.1500 
 22 H       -6.0560    -2.4850     0.3590 H     1 <1>   0.0800 
 23 H       -5.2790    -3.4840     1.5540 H     1 <1>   0.0800 
 24 H       -5.2680    -3.8940    -1.3420 H     1 <1>   0.4500 
 25 H       -6.8730    -5.4090    -1.2500 H     1 <1>   0.0800 
 26 H       -3.7790    -5.2300     0.7790 H     1 <1>   0.0800 
 27 H       -3.2340    -4.7510    -0.8090 H     1 <1>   0.0800 
 28 H       -7.4270    -6.7380     0.7420 H     1 <1>   0.0800 
 29 H       -6.1830    -5.9190     1.6220 H     1 <1>   0.0800 
 30 H       -3.4520    -7.1830    -0.7080 H     1 <1>   0.0800 
 31 H       -4.6550    -6.5490    -1.7850 H     1 <1>   0.0800 
 32 H       -5.9480    -8.0030    -0.5110 H     1 <1>   0.0800 
 33 H       -4.9980    -7.7880     0.9260 H     1 <1>   0.0800 
@<TRIPOS>BOND
  1   1   2  1   
  2   2   3  ar  
  3   2   4  ar  
  4   3   5  ar  
  5   3  18  1   
  6   4   6  ar  
  7   4  19  1   
  8   5   7  ar  
  9   5  20  1   
 10   6   7  ar  
 11   6  21  1   
 12   7   8  1   
 13   8   9  1   
 14   8  22  1   
 15   8  23  1   
 16   9  10  1   
 17   9  11  1   
 18   9  24  1   
 19  10  12  1   
 20  10  13  1   
 21  10  25  1   
 22  11  14  1   
 23  11  26  1   
 24  11  27  1   
 25  12  15  ar  
 26  12  16  ar  
 27  13  17  1   
 28  13  28  1   
 29  13  29  1   
 30  14  17  1   
 31  14  30  1   
 32  14  31  1   
 33  17  32  1   
 34  17  33  1   
@<TRIPOS>SUBSTRUCTURE
  1 ****   8 GROUP 4 **** **** 0

# MOE 2024.06 (io_trps.svl 2023.06)
