@<TRIPOS>MOLECULE
1-Acetyl-5-(4-ethyl-phenyl)-4,6-dioxo-1,3a,4,5,6,6a-hexahydro-pyrrolo[3,4-c]pyra
45 47 1 0 0 
SMALL
USER_CHARGES


@<TRIPOS>ATOM
  1 O        0.0650    -0.2620     0.3870 O.2   1 <1>  -0.5700 
  2 C        0.0500    -1.4530     0.2150 C.2   1 <1>   0.5690 
  3 N        1.1240    -2.3200     0.2950 N.am  1 <1>  -0.2370 
  4 C       -1.1620    -2.3100    -0.0960 C.3   1 <1>   0.2810 
  5 C        2.4950    -1.9680     0.2590 C.ar  1 <1>   0.1170 
  6 C        0.6150    -3.6020     0.3930 C.2   1 <1>   0.5690 
  7 N       -2.6100    -2.2360     0.1330 N.am  1 <1>  -0.2980 
  8 C       -0.8310    -3.4910     0.7680 C.3   1 <1>   0.0420 
  9 C        3.4430    -2.7120     0.9550 C.ar  1 <1>  -0.1500 
 10 C        2.9360    -0.8700    -0.4740 C.ar  1 <1>  -0.1500 
 11 O        1.1800    -4.6380     0.1690 O.2   1 <1>  -0.5700 
 12 N       -3.0680    -3.5220     0.3200 N.2   1 <1>  -0.5120 
 13 C       -3.3450    -1.1090    -0.1840 C.2   1 <1>   0.5690 
 14 C       -2.0790    -4.3130     0.5860 C.2   1 <1>   0.3890 
 15 C        4.7830    -2.3720     0.9200 C.ar  1 <1>  -0.1500 
 16 C        4.2760    -0.5280    -0.5100 C.ar  1 <1>  -0.1500 
 17 O       -2.8420    -0.1320    -0.6760 O.2   1 <1>  -0.5700 
 18 C       -4.8350    -1.1160     0.0650 C.3   1 <1>  -0.1790 
 19 C       -2.0380    -5.7370     0.8290 C.2   1 <1>   0.7200 
 20 C        5.2090    -1.2770     0.1870 C.ar  1 <1>  -0.1440 
 21 O       -1.1070    -6.2530     1.4120 O.2   1 <1>  -0.5700 
 22 O       -3.0150    -6.5770     0.4550 O.3   1 <1>  -0.4300 
 23 C        6.6820    -0.9030     0.1470 C.3   1 <1>  -0.0170 
 24 C       -4.1750    -6.2150    -0.2590 C.3   1 <1>   0.1200 
 25 C        7.3830    -1.6100    -1.0140 C.3   1 <1>  -0.2400 
 26 C       -4.9390    -7.4930    -0.5890 C.3   1 <1>  -0.2400 
 27 H       -1.0580    -2.5770    -1.1350 H     1 <1>   0.0800 
 28 H       -0.8360    -3.1950     1.8040 H     1 <1>   0.0800 
 29 H        3.1420    -3.5700     1.5300 H     1 <1>   0.1500 
 30 H        2.2340    -0.2680    -1.0230 H     1 <1>   0.1500 
 31 H        5.4960    -2.9670     1.4630 H     1 <1>   0.1500 
 32 H        4.5900     0.3260    -1.0850 H     1 <1>   0.1500 
 33 H       -5.0330    -1.4130     1.0770 H     1 <1>   0.0800 
 34 H       -5.3080    -1.8050    -0.6080 H     1 <1>   0.0800 
 35 H       -5.2370    -0.1330    -0.0980 H     1 <1>   0.0800 
 36 H        7.1520    -1.1780     1.0750 H     1 <1>   0.0800 
 37 H        6.7830     0.1630     0.0350 H     1 <1>   0.0800 
 38 H       -3.8850    -5.7040    -1.1620 H     1 <1>   0.0800 
 39 H       -4.7740    -5.5660     0.3590 H     1 <1>   0.0800 
 40 H        7.3020    -2.6770    -0.9010 H     1 <1>   0.0800 
 41 H        8.4250    -1.3430    -1.0370 H     1 <1>   0.0800 
 42 H        6.9320    -1.3280    -1.9480 H     1 <1>   0.0800 
 43 H       -4.3320    -8.1430    -1.1940 H     1 <1>   0.0800 
 44 H       -5.8340    -7.2530    -1.1340 H     1 <1>   0.0800 
 45 H       -5.2160    -8.0030     0.3170 H     1 <1>   0.0800 
@<TRIPOS>BOND
  1   1   2  2   
  2   2   3  am  
  3   2   4  1   
  4   3   5  1   
  5   3   6  am  
  6   4   7  1   
  7   4   8  1   
  8   4  27  1   
  9   5   9  ar  
 10   5  10  ar  
 11   6   8  1   
 12   6  11  2   
 13   7  12  1   
 14   7  13  am  
 15   8  14  1   
 16   8  28  1   
 17   9  15  ar  
 18   9  29  1   
 19  10  16  ar  
 20  10  30  1   
 21  12  14  2   
 22  13  17  2   
 23  13  18  1   
 24  14  19  1   
 25  15  20  ar  
 26  15  31  1   
 27  16  20  ar  
 28  16  32  1   
 29  18  33  1   
 30  18  34  1   
 31  18  35  1   
 32  19  21  2   
 33  19  22  1   
 34  20  23  1   
 35  22  24  1   
 36  23  25  1   
 37  23  36  1   
 38  23  37  1   
 39  24  26  1   
 40  24  38  1   
 41  24  39  1   
 42  25  40  1   
 43  25  41  1   
 44  25  42  1   
 45  26  43  1   
 46  26  44  1   
 47  26  45  1   
@<TRIPOS>SUBSTRUCTURE
  1 ****   6 GROUP 4 **** **** 0

# MOE 2024.06 (io_trps.svl 2023.06)
