@<TRIPOS>MOLECULE
1,7-Dimethyl-3-(1-methyl-2-oxo-propyl)-8-p-tolyl-1H,8H-imidazo[2,1-f]purine-2,4-
50 53 1 0 0 
SMALL
USER_CHARGES


@<TRIPOS>ATOM
  1 O        0.5300     0.1770     0.1320 O.2   1 <1>  -0.5750 
  2 C        1.5390     0.8260    -0.0570 C.2   1 <1>   0.6860 
  3 N        1.4560     2.1720    -0.4120 N.am  1 <1>  -0.4260 
  4 N        2.7780     0.2110     0.0870 N.am  1 <1>  -0.4420 
  5 C        2.6020     2.9080    -0.6730 C.2   1 <1>   0.6990 
  6 C        0.1880     2.9250    -0.1200 C.3   1 <1>   0.2750 
  7 C        3.9100     0.9790    -0.0850 C.2   1 <1>   0.4200 
  8 C        2.8670    -1.2210     0.5010 C.3   1 <1>   0.0520 
  9 O        2.5360     4.0550    -1.0840 O.2   1 <1>  -0.5750 
 10 C        3.8640     2.2810    -0.4590 C.2   1 <1>   0.2700 
 11 C       -0.1590     2.7890     1.3740 C.2   1 <1>   0.4430 
 12 C       -0.9100     2.5440    -1.1300 C.3   1 <1>  -0.2470 
 13 N        5.2140     0.6010     0.0760 N.pl3 1 <1>  -0.7040 
 14 N        5.1960     2.7150    -0.5380 N.pl3 1 <1>  -0.6330 
 15 O        0.7080     2.8620     2.1970 O.2   1 <1>  -0.5750 
 16 C       -1.5990     2.5700     1.7960 C.3   1 <1>  -0.1860 
 17 C        5.9520     1.6800    -0.2030 C.cat 1 <1>   1.0690 
 18 C        6.0520     3.7700    -0.7950 C.2   1 <1>   0.2220 
 19 N        7.2540     1.9820    -0.2290 N.pl3 1 <1>  -0.5550 
 20 C        7.3120     3.3190    -0.6060 C.2   1 <1>   0.1580 
 21 C        8.3080     1.1090     0.0740 C.ar  1 <1>   0.3050 
 22 C        8.6350     4.0470    -0.7480 C.3   1 <1>  -0.1100 
 23 C        8.7840     1.0100     1.3730 C.ar  1 <1>  -0.1570 
 24 C        8.8690     0.3210    -0.9200 C.ar  1 <1>  -0.1570 
 25 C        9.8000     0.1230     1.6770 C.ar  1 <1>  -0.1570 
 26 C        9.8850    -0.5660    -0.6150 C.ar  1 <1>  -0.1570 
 27 C       10.3530    -0.6690     0.6850 C.ar  1 <1>  -0.1510 
 28 C       11.4690    -1.6430     1.0190 C.3   1 <1>  -0.1040 
 29 H        0.3610     3.9760    -0.2640 H     1 <1>   0.0720 
 30 H        2.0150    -1.7700     0.1340 H     1 <1>   0.0720 
 31 H        2.8780    -1.2860     1.5750 H     1 <1>   0.0720 
 32 H        3.7540    -1.6790     0.1030 H     1 <1>   0.0720 
 33 H       -1.2440     1.5320    -0.9950 H     1 <1>   0.0720 
 34 H       -0.5440     2.6630    -2.1340 H     1 <1>   0.0720 
 35 H       -1.7580     3.1940    -1.0100 H     1 <1>   0.0720 
 36 H        5.5870    -0.2990     0.3710 H     1 <1>   0.4450 
 37 H       -1.9550     1.6320     1.4140 H     1 <1>   0.0720 
 38 H       -2.2200     3.3680     1.4340 H     1 <1>   0.0720 
 39 H       -1.6610     2.5460     2.8690 H     1 <1>   0.0720 
 40 H        5.6970     4.7460    -1.0890 H     1 <1>   0.1430 
 41 H        9.1630     4.0430     0.1890 H     1 <1>   0.0720 
 42 H        8.4740     5.0670    -1.0480 H     1 <1>   0.0720 
 43 H        9.2460     3.5640    -1.4900 H     1 <1>   0.0720 
 44 H        8.3660     1.6240     2.1500 H     1 <1>   0.1430 
 45 H        8.5180     0.3970    -1.9330 H     1 <1>   0.1430 
 46 H       10.1650     0.0490     2.6880 H     1 <1>   0.1430 
 47 H       10.3170    -1.1770    -1.3910 H     1 <1>   0.1430 
 48 H       11.0530    -2.5960     1.2930 H     1 <1>   0.0720 
 49 H       12.0590    -1.2750     1.8390 H     1 <1>   0.0720 
 50 H       12.1180    -1.7790     0.1730 H     1 <1>   0.0720 
@<TRIPOS>BOND
  1   1   2  2   
  2   2   3  am  
  3   2   4  am  
  4   3   5  am  
  5   3   6  1   
  6   4   7  1   
  7   4   8  1   
  8   5   9  2   
  9   5  10  1   
 10   6  11  1   
 11   6  12  1   
 12   6  29  1   
 13   7  10  2   
 14   7  13  1   
 15   8  30  1   
 16   8  31  1   
 17   8  32  1   
 18  10  14  1   
 19  11  15  2   
 20  11  16  1   
 21  12  33  1   
 22  12  34  1   
 23  12  35  1   
 24  13  17  ar  
 25  13  36  1   
 26  14  17  ar  
 27  14  18  1   
 28  16  37  1   
 29  16  38  1   
 30  16  39  1   
 31  17  19  ar  
 32  18  20  2   
 33  18  40  1   
 34  19  20  1   
 35  19  21  1   
 36  20  22  1   
 37  21  23  ar  
 38  21  24  ar  
 39  22  41  1   
 40  22  42  1   
 41  22  43  1   
 42  23  25  ar  
 43  23  44  1   
 44  24  26  ar  
 45  24  45  1   
 46  25  27  ar  
 47  25  46  1   
 48  26  27  ar  
 49  26  47  1   
 50  27  28  1   
 51  28  48  1   
 52  28  49  1   
 53  28  50  1   
@<TRIPOS>SUBSTRUCTURE
  1 ****   7 GROUP 4 **** **** 0

# MOE 2024.06 (io_trps.svl 2023.06)
