@<TRIPOS>MOLECULE
2-(6-Cyano-indol-1-yl)-N-cyclohexyl-acetamide
40 42 1 0 0 
SMALL
USER_CHARGES


@<TRIPOS>ATOM
  1 O        1.5670     1.9400    -1.6660 O.2   1 <1>  -0.5700 
  2 C        1.3100     1.8060    -0.4940 C.2   1 <1>   0.5690 
  3 N        1.7370     0.7260     0.2160 N.am  1 <1>  -0.7300 
  4 C        0.5140     2.8890     0.2080 C.3   1 <1>   0.1570 
  5 C        2.3880    -0.4590    -0.3660 C.3   1 <1>   0.2200 
  6 N       -0.9230     2.8090    -0.1340 N.pl3 1 <1>   0.0480 
  7 C        1.4350    -1.6520    -0.2350 C.3   1 <1>  -0.1600 
  8 C        3.7070    -0.7140     0.3710 C.3   1 <1>  -0.1600 
  9 C       -1.8110     1.8040     0.1920 C.ar  1 <1>  -0.1520 
 10 C       -1.6250     3.7790    -0.7950 C.2   1 <1>  -0.3020 
 11 C        2.0980    -2.9470    -0.7250 C.3   1 <1>  -0.1600 
 12 C        4.3730    -2.0080    -0.1190 C.3   1 <1>  -0.1600 
 13 C       -3.0690     2.1600    -0.2840 C.ar  1 <1>   0.0000 
 14 C       -1.6340     0.5900     0.8630 C.ar  1 <1>  -0.1500 
 15 C       -2.9250     3.4160    -0.9020 C.2   1 <1>  -0.1500 
 16 C        3.4210    -3.2060     0.0080 C.3   1 <1>  -0.1600 
 17 C       -4.1550     1.3010    -0.0950 C.ar  1 <1>  -0.1500 
 18 C       -2.7020    -0.2670     1.0460 C.ar  1 <1>   0.0730 
 19 C       -3.9670     0.1070     0.5600 C.ar  1 <1>  -0.1500 
 20 C       -2.5250    -1.5210     1.7190 C.1   1 <1>   0.4840 
 21 N       -2.3610    -2.5140     2.2560 N.1   1 <1>  -0.5570 
 22 H        1.5660     0.6550     1.2180 H     1 <1>   0.3700 
 23 H        0.8910     3.8460    -0.0980 H     1 <1>   0.0800 
 24 H        0.6220     2.7990     1.2710 H     1 <1>   0.0800 
 25 H        2.5960    -0.2880    -1.4100 H     1 <1>   0.0800 
 26 H        0.5500    -1.4650    -0.8180 H     1 <1>   0.0800 
 27 H        1.1480    -1.7780     0.7940 H     1 <1>   0.0800 
 28 H        3.5220    -0.7980     1.4280 H     1 <1>   0.0800 
 29 H        4.3730     0.1130     0.2030 H     1 <1>   0.0800 
 30 H       -1.1560     4.6760    -1.1580 H     1 <1>   0.1500 
 31 H        2.2860    -2.8730    -1.7830 H     1 <1>   0.0800 
 32 H        1.4290    -3.7770    -0.5670 H     1 <1>   0.0800 
 33 H        5.2660    -2.1950     0.4530 H     1 <1>   0.0800 
 34 H        4.6610    -1.8910    -1.1500 H     1 <1>   0.0800 
 35 H       -0.6650     0.3180     1.2330 H     1 <1>   0.1500 
 36 H       -3.7290     3.9570    -1.3690 H     1 <1>   0.1500 
 37 H        3.8920    -4.0850    -0.3980 H     1 <1>   0.0800 
 38 H        3.2200    -3.3930     1.0490 H     1 <1>   0.0800 
 39 H       -5.1210     1.5910    -0.4690 H     1 <1>   0.1500 
 40 H       -4.7990    -0.5610     0.7050 H     1 <1>   0.1500 
@<TRIPOS>BOND
  1   1   2  2   
  2   2   3  am  
  3   2   4  1   
  4   3   5  1   
  5   3  22  1   
  6   4   6  1   
  7   4  23  1   
  8   4  24  1   
  9   5   7  1   
 10   5   8  1   
 11   5  25  1   
 12   6   9  1   
 13   6  10  1   
 14   7  11  1   
 15   7  26  1   
 16   7  27  1   
 17   8  12  1   
 18   8  28  1   
 19   8  29  1   
 20   9  13  ar  
 21   9  14  ar  
 22  10  15  2   
 23  10  30  1   
 24  11  16  1   
 25  11  31  1   
 26  11  32  1   
 27  12  16  1   
 28  12  33  1   
 29  12  34  1   
 30  13  15  1   
 31  13  17  ar  
 32  14  18  ar  
 33  14  35  1   
 34  15  36  1   
 35  16  37  1   
 36  16  38  1   
 37  17  19  ar  
 38  17  39  1   
 39  18  19  ar  
 40  18  20  1   
 41  19  40  1   
 42  20  21  3   
@<TRIPOS>SUBSTRUCTURE
  1 ****  14 GROUP 4 **** **** 0

# MOE 2024.06 (io_trps.svl 2023.06)
