@<TRIPOS>MOLECULE
1,3-Dimethyl-8-(2-methyl-piperidin-1-ylmethyl)-7-((E)-3-phenyl-allyl)-3,7-dihydr
60 63 1 0 0 
SMALL
USER_CHARGES


@<TRIPOS>ATOM
  1 O        0.6300    -0.4760    -0.1950 O.2   1 <1>  -0.5700 
  2 C        1.4700     0.3980    -0.1320 C.2   1 <1>   0.6900 
  3 N        1.0930     1.7330    -0.2400 N.am  1 <1>  -0.4200 
  4 N        2.8040     0.0650     0.0460 N.am  1 <1>  -0.4360 
  5 C        2.0290     2.7550    -0.1530 C.2   1 <1>   0.7030 
  6 C       -0.3580     2.0570    -0.4180 C.3   1 <1>   0.0600 
  7 C        3.7300     1.0900     0.0940 C.2   1 <1>   0.4260 
  8 C        3.2380    -1.3590     0.1640 C.3   1 <1>   0.0600 
  9 O        1.6820     3.9230    -0.1970 O.2   1 <1>  -0.5700 
 10 C        3.4130     2.4020    -0.0020 C.2   1 <1>   0.2770 
 11 N        5.0690     0.9960     0.2450 N.pl3 1 <1>  -0.7000 
 12 N        4.6150     3.1190     0.0880 N.pl3 1 <1>  -0.7640 
 13 C        5.5880     2.2170     0.2420 C.cat 1 <1>   0.6560 
 14 C        4.6580     4.6090     0.0520 C.3   1 <1>   0.4920 
 15 C        7.1080     2.3930     0.4250 C.3   1 <1>   0.2540 
 16 C        5.9990     5.0640    -0.4770 C.2   1 <1>  -0.2880 
 17 N        7.8070     1.0700     0.4680 N.3   1 <1>  -0.8100 
 18 C        6.9490     5.6860     0.2430 C.2   1 <1>  -0.1780 
 19 C        8.5090     0.7400    -0.7970 C.3   1 <1>   0.1900 
 20 C        8.7430     1.0450     1.6110 C.3   1 <1>   0.1100 
 21 C        8.2630     6.0950    -0.1990 C.ar  1 <1>   0.0280 
 22 C        9.1450    -0.6560    -0.6930 C.3   1 <1>  -0.1600 
 23 C        7.5490     0.7460    -1.9940 C.3   1 <1>  -0.2400 
 24 C        9.3570    -0.3460     1.7780 C.3   1 <1>  -0.1600 
 25 C        8.6130     6.1620    -1.5470 C.ar  1 <1>  -0.1500 
 26 C        9.2380     6.4270     0.7390 C.ar  1 <1>  -0.1500 
 27 C       10.0900    -0.7720     0.5060 C.3   1 <1>  -0.1600 
 28 C        9.8870     6.5310    -1.9400 C.ar  1 <1>  -0.1500 
 29 C       10.5130     6.7970     0.3520 C.ar  1 <1>  -0.1500 
 30 C       10.8410     6.8470    -0.9900 C.ar  1 <1>  -0.1500 
 31 H       -0.4900     3.0480    -0.8170 H     1 <1>   0.0800 
 32 H       -0.8610     1.9920     0.5310 H     1 <1>   0.0800 
 33 H       -0.8130     1.3580    -1.0990 H     1 <1>   0.0800 
 34 H        3.9830    -1.4590     0.9350 H     1 <1>   0.0800 
 35 H        3.6470    -1.6930    -0.7730 H     1 <1>   0.0800 
 36 H        2.4060    -1.9930     0.4210 H     1 <1>   0.0800 
 37 H        5.6890     0.1840     0.3510 H     1 <1>   0.4500 
 38 H        3.8850     4.9920    -0.5920 H     1 <1>   0.0800 
 39 H        4.4920     4.9950     1.0440 H     1 <1>   0.0800 
 40 H        7.2580     2.9270     1.3460 H     1 <1>   0.0800 
 41 H        7.5180     2.9960    -0.3650 H     1 <1>   0.0800 
 42 H        6.1190     4.8170    -1.5170 H     1 <1>   0.1500 
 43 H        6.7660     5.9160     1.2800 H     1 <1>   0.1500 
 44 H        9.2910     1.4630    -0.9700 H     1 <1>   0.0800 
 45 H        9.5280     1.7690     1.4600 H     1 <1>   0.0800 
 46 H        8.2200     1.2950     2.5190 H     1 <1>   0.0800 
 47 H        8.3680    -1.3960    -0.6040 H     1 <1>   0.0800 
 48 H        9.6970    -0.8690    -1.5910 H     1 <1>   0.0800 
 49 H        6.7400     0.0560    -1.8390 H     1 <1>   0.0800 
 50 H        8.0810     0.4350    -2.8760 H     1 <1>   0.0800 
 51 H        7.1620     1.7260    -2.1940 H     1 <1>   0.0800 
 52 H       10.0470    -0.3360     2.6040 H     1 <1>   0.0800 
 53 H        8.5780    -1.0510     2.0080 H     1 <1>   0.0800 
 54 H        7.8900     5.9330    -2.3050 H     1 <1>   0.1500 
 55 H        9.0030     6.3960     1.7870 H     1 <1>   0.1500 
 56 H       10.4400    -1.7850     0.6030 H     1 <1>   0.0800 
 57 H       10.9440    -0.1350     0.3520 H     1 <1>   0.0800 
 58 H       10.1380     6.5760    -2.9860 H     1 <1>   0.1500 
 59 H       11.2520     7.0480     1.0930 H     1 <1>   0.1500 
 60 H       11.8330     7.1350    -1.2950 H     1 <1>   0.1500 
@<TRIPOS>BOND
  1   1   2  2   
  2   2   3  am  
  3   2   4  am  
  4   3   5  am  
  5   3   6  1   
  6   4   7  1   
  7   4   8  1   
  8   5   9  2   
  9   5  10  1   
 10   6  31  1   
 11   6  32  1   
 12   6  33  1   
 13   7  10  2   
 14   7  11  1   
 15   8  34  1   
 16   8  35  1   
 17   8  36  1   
 18  10  12  1   
 19  11  13  ar  
 20  11  37  1   
 21  12  13  ar  
 22  12  14  1   
 23  13  15  1   
 24  14  16  1   
 25  14  38  1   
 26  14  39  1   
 27  15  17  1   
 28  15  40  1   
 29  15  41  1   
 30  16  18  2   
 31  16  42  1   
 32  17  19  1   
 33  17  20  1   
 34  18  21  1   
 35  18  43  1   
 36  19  22  1   
 37  19  23  1   
 38  19  44  1   
 39  20  24  1   
 40  20  45  1   
 41  20  46  1   
 42  21  25  ar  
 43  21  26  ar  
 44  22  27  1   
 45  22  47  1   
 46  22  48  1   
 47  23  49  1   
 48  23  50  1   
 49  23  51  1   
 50  24  27  1   
 51  24  52  1   
 52  24  53  1   
 53  25  28  ar  
 54  25  54  1   
 55  26  29  ar  
 56  26  55  1   
 57  27  56  1   
 58  27  57  1   
 59  28  30  ar  
 60  28  58  1   
 61  29  30  ar  
 62  29  59  1   
 63  30  60  1   
@<TRIPOS>SUBSTRUCTURE
  1 ****  13 GROUP 4 **** **** 0

# MOE 2024.06 (io_trps.svl 2023.06)
