@<TRIPOS>MOLECULE
8-Amino-7-(2-hydroxy-3-phenoxy-propyl)-1,3-dimethyl-3,7-dihydro-purine-2,6-dione
45 47 1 0 0 
SMALL
USER_CHARGES


@<TRIPOS>ATOM
  1 O        0.5890     0.7040    -0.7690 O.2   1 <1>  -0.5750 
  2 C        1.6370     1.2410    -0.4760 C.2   1 <1>   0.6850 
  3 N        1.6960     2.6240    -0.3410 N.am  1 <1>  -0.4270 
  4 N        2.7760     0.4720    -0.2750 N.am  1 <1>  -0.4430 
  5 C        2.8850     3.2660    -0.0230 C.2   1 <1>   0.6990 
  6 C        0.4530     3.4250    -0.5780 C.3   1 <1>   0.0510 
  7 C        3.9440     1.1200     0.0770 C.2   1 <1>   0.4200 
  8 C        2.7290    -1.0150    -0.4170 C.3   1 <1>   0.0510 
  9 O        2.9400     4.4830     0.0450 O.2   1 <1>  -0.5750 
 10 C        4.0470     2.4600     0.2140 C.2   1 <1>   0.2690 
 11 N        5.1600     0.5620     0.3350 N.pl3 1 <1>  -0.7040 
 12 N        5.3850     2.7190     0.5770 N.pl3 1 <1>  -0.7680 
 13 C        6.0040     1.5430     0.6130 C.cat 1 <1>   1.0680 
 14 C        5.9200     4.0710     0.9500 C.3   1 <1>   0.3470 
 15 N        7.2760     1.3630     0.8710 N.pl3 1 <1>  -0.8400 
 16 C        6.9370     4.6230    -0.0680 C.3   1 <1>   0.1920 
 17 O        8.0900     3.8360    -0.0750 O.3   1 <1>  -0.6850 
 18 C        7.3420     6.0690     0.2480 C.3   1 <1>   0.1110 
 19 O        8.4400     6.4180    -0.5700 O.3   1 <1>  -0.3690 
 20 C        9.0040     7.6510    -0.4970 C.ar  1 <1>   0.0730 
 21 C        8.5630     8.6550     0.3620 C.ar  1 <1>  -0.1590 
 22 C       10.0780     7.8980    -1.3380 C.ar  1 <1>  -0.1590 
 23 C        9.1980     9.8850     0.3730 C.ar  1 <1>  -0.1590 
 24 C       10.7110     9.1280    -1.3260 C.ar  1 <1>  -0.1590 
 25 C       10.2710    10.1220    -0.4700 C.ar  1 <1>  -0.1590 
 26 H       -0.4010     2.9150    -0.1660 H     1 <1>   0.0710 
 27 H        0.3040     3.5530    -1.6360 H     1 <1>   0.0710 
 28 H        0.5200     4.3940    -0.1130 H     1 <1>   0.0710 
 29 H        1.8930    -1.3120    -1.0280 H     1 <1>   0.0710 
 30 H        2.6200    -1.4680     0.5530 H     1 <1>   0.0710 
 31 H        3.6260    -1.3760    -0.8850 H     1 <1>   0.0710 
 32 H        5.3850    -0.4280     0.3070 H     1 <1>   0.4440 
 33 H        6.3880     4.0160     1.9190 H     1 <1>   0.0710 
 34 H        5.1080     4.7700     1.0370 H     1 <1>   0.0710 
 35 H        7.8920     2.1870     0.7940 H     1 <1>   0.4440 
 36 H        7.7570     0.4670     0.8620 H     1 <1>   0.4440 
 37 H        6.5090     4.5980    -1.0560 H     1 <1>   0.0710 
 38 H        8.7980     4.3730    -0.5100 H     1 <1>   0.3930 
 39 H        7.6430     6.1670     1.2770 H     1 <1>   0.0710 
 40 H        6.5310     6.7440     0.0370 H     1 <1>   0.0710 
 41 H        7.7350     8.5050     1.0270 H     1 <1>   0.1410 
 42 H       10.4170     7.1250    -2.0030 H     1 <1>   0.1410 
 43 H        8.8570    10.6600     1.0360 H     1 <1>   0.1410 
 44 H       11.5440     9.3120    -1.9810 H     1 <1>   0.1410 
 45 H       10.7620    11.0800    -0.4590 H     1 <1>   0.1410 
@<TRIPOS>BOND
  1   1   2  2   
  2   2   3  am  
  3   2   4  am  
  4   3   5  am  
  5   3   6  1   
  6   4   7  1   
  7   4   8  1   
  8   5   9  2   
  9   5  10  1   
 10   6  26  1   
 11   6  27  1   
 12   6  28  1   
 13   7  10  2   
 14   7  11  1   
 15   8  29  1   
 16   8  30  1   
 17   8  31  1   
 18  10  12  1   
 19  11  13  ar  
 20  11  32  1   
 21  12  13  ar  
 22  12  14  1   
 23  13  15  ar  
 24  14  16  1   
 25  14  33  1   
 26  14  34  1   
 27  15  35  1   
 28  15  36  1   
 29  16  17  1   
 30  16  18  1   
 31  16  37  1   
 32  17  38  1   
 33  18  19  1   
 34  18  39  1   
 35  18  40  1   
 36  19  20  1   
 37  20  21  ar  
 38  20  22  ar  
 39  21  23  ar  
 40  21  41  1   
 41  22  24  ar  
 42  22  42  1   
 43  23  25  ar  
 44  23  43  1   
 45  24  25  ar  
 46  24  44  1   
 47  25  45  1   
@<TRIPOS>SUBSTRUCTURE
  1 ****  14 GROUP 4 **** **** 0

# MOE 2024.06 (io_trps.svl 2023.06)
