@<TRIPOS>MOLECULE
2-(3,4-Dimethyl-phenoxy)-N-[2-(4-isobutyryl-piperazin-1-yl)-phenyl]-acetamide
61 63 1 0 0 
SMALL
USER_CHARGES


@<TRIPOS>ATOM
  1 O       -3.4410     1.4870    -2.0280 O.2   1 <1>  -0.5700 
  2 C       -3.5240     1.8210    -0.8680 C.2   1 <1>   0.5690 
  3 N       -2.7770     2.8700    -0.3860 N.am  1 <1>  -0.6600 
  4 C       -4.5000     1.0500     0.0400 C.3   1 <1>  -0.0190 
  5 C       -2.9900     3.5850     0.9100 C.3   1 <1>   0.1400 
  6 C       -1.8220     3.6080    -1.2700 C.3   1 <1>   0.1400 
  7 C       -4.6580    -0.4250    -0.3740 C.3   1 <1>  -0.2400 
  8 C       -5.8850     1.7200     0.0690 C.3   1 <1>  -0.2400 
  9 C       -3.5470     4.9980     0.6660 C.3   1 <1>   0.2090 
 10 C       -2.3400     5.0230    -1.5790 C.3   1 <1>   0.2090 
 11 N       -2.7420     5.7640    -0.3400 N.pl3 1 <1>  -0.8380 
 12 C       -2.0330     6.9020     0.0890 C.ar  1 <1>   0.1000 
 13 C       -2.7210     8.0930     0.3650 C.ar  1 <1>   0.1170 
 14 C       -0.6560     6.8650     0.2640 C.ar  1 <1>  -0.1500 
 15 N       -4.1040     8.0780     0.1480 N.am  1 <1>  -0.5470 
 16 C       -2.0280     9.2060     0.8160 C.ar  1 <1>  -0.1500 
 17 C        0.0310     7.9820     0.7100 C.ar  1 <1>  -0.1500 
 18 C       -5.1580     8.7780     0.6480 C.2   1 <1>   0.5690 
 19 C       -0.6550     9.1520     0.9880 C.ar  1 <1>  -0.1500 
 20 O       -5.0460     9.7960     1.2890 O.2   1 <1>  -0.5700 
 21 C       -6.5520     8.2110     0.4030 C.3   1 <1>   0.1810 
 22 O       -6.4670     6.9060    -0.1640 O.3   1 <1>  -0.3630 
 23 C       -7.5670     6.1590    -0.4220 C.ar  1 <1>   0.0820 
 24 C       -8.8550     6.5140    -0.0340 C.ar  1 <1>  -0.1500 
 25 C       -7.3660     4.9770    -1.1110 C.ar  1 <1>  -0.1500 
 26 C       -9.9310     5.6900    -0.3270 C.ar  1 <1>  -0.1440 
 27 C       -8.4350     4.1530    -1.4060 C.ar  1 <1>  -0.1500 
 28 C       -9.7210     4.5000    -1.0180 C.ar  1 <1>  -0.1440 
 29 C      -11.3270     6.1100     0.1150 C.3   1 <1>  -0.0970 
 30 C      -10.8710     3.5640    -1.3610 C.3   1 <1>  -0.0970 
 31 H       -4.0970     1.0400     1.0360 H     1 <1>   0.0800 
 32 H       -2.0480     3.6670     1.4240 H     1 <1>   0.0800 
 33 H       -3.6660     3.0530     1.5510 H     1 <1>   0.0800 
 34 H       -1.6690     3.0780    -2.1930 H     1 <1>   0.0800 
 35 H       -0.8700     3.6800    -0.7760 H     1 <1>   0.0800 
 36 H       -5.0930    -0.4950    -1.3570 H     1 <1>   0.0800 
 37 H       -5.2900    -0.9490     0.3210 H     1 <1>   0.0800 
 38 H       -3.6960    -0.9060    -0.3960 H     1 <1>   0.0800 
 39 H       -6.3110     1.7240    -0.9190 H     1 <1>   0.0800 
 40 H       -5.8090     2.7370     0.4080 H     1 <1>   0.0800 
 41 H       -6.5480     1.1900     0.7290 H     1 <1>   0.0800 
 42 H       -3.5650     5.5370     1.5980 H     1 <1>   0.0800 
 43 H       -4.5600     4.9190     0.3140 H     1 <1>   0.0800 
 44 H       -3.1960     4.9420    -2.2270 H     1 <1>   0.0800 
 45 H       -1.5830     5.5780    -2.1040 H     1 <1>   0.0800 
 46 H       -0.1240     5.9570     0.0580 H     1 <1>   0.1500 
 47 H       -4.3650     7.2150    -0.3430 H     1 <1>   0.3700 
 48 H       -2.5600    10.1160     1.0300 H     1 <1>   0.1500 
 49 H        1.0980     7.9400     0.8430 H     1 <1>   0.1500 
 50 H       -0.1240    10.0210     1.3380 H     1 <1>   0.1500 
 51 H       -7.0900     8.8450    -0.2770 H     1 <1>   0.0800 
 52 H       -7.0700     8.1450     1.3410 H     1 <1>   0.0800 
 53 H       -9.0330     7.4280     0.4990 H     1 <1>   0.1500 
 54 H       -6.3730     4.7050    -1.4200 H     1 <1>   0.1500 
 55 H       -8.2590     3.2390    -1.9450 H     1 <1>   0.1500 
 56 H      -11.3030     7.0490     0.6370 H     1 <1>   0.0800 
 57 H      -11.7430     5.3690     0.7740 H     1 <1>   0.0800 
 58 H      -11.9670     6.2170    -0.7410 H     1 <1>   0.0800 
 59 H      -11.5900     4.0730    -1.9760 H     1 <1>   0.0800 
 60 H      -11.3520     3.2250    -0.4620 H     1 <1>   0.0800 
 61 H      -10.5190     2.7020    -1.9000 H     1 <1>   0.0800 
@<TRIPOS>BOND
  1   1   2  2   
  2   2   3  am  
  3   2   4  1   
  4   3   5  1   
  5   3   6  1   
  6   4   7  1   
  7   4   8  1   
  8   4  31  1   
  9   5   9  1   
 10   5  32  1   
 11   5  33  1   
 12   6  10  1   
 13   6  34  1   
 14   6  35  1   
 15   7  36  1   
 16   7  37  1   
 17   7  38  1   
 18   8  39  1   
 19   8  40  1   
 20   8  41  1   
 21   9  11  1   
 22   9  42  1   
 23   9  43  1   
 24  10  11  1   
 25  10  44  1   
 26  10  45  1   
 27  11  12  1   
 28  12  13  ar  
 29  12  14  ar  
 30  13  15  1   
 31  13  16  ar  
 32  14  17  ar  
 33  14  46  1   
 34  15  18  am  
 35  15  47  1   
 36  16  19  ar  
 37  16  48  1   
 38  17  19  ar  
 39  17  49  1   
 40  18  20  2   
 41  18  21  1   
 42  19  50  1   
 43  21  22  1   
 44  21  51  1   
 45  21  52  1   
 46  22  23  1   
 47  23  24  ar  
 48  23  25  ar  
 49  24  26  ar  
 50  24  53  1   
 51  25  27  ar  
 52  25  54  1   
 53  26  28  ar  
 54  26  29  1   
 55  27  28  ar  
 56  27  55  1   
 57  28  30  1   
 58  29  56  1   
 59  29  57  1   
 60  29  58  1   
 61  30  59  1   
 62  30  60  1   
 63  30  61  1   
@<TRIPOS>SUBSTRUCTURE
  1 ****   9 GROUP 4 **** **** 0

# MOE 2024.06 (io_trps.svl 2023.06)
