@<TRIPOS>MOLECULE
N-Cyclohexyl-4-(3-p-tolyl-[1,2,4]oxadiazol-5-yl)-butyramide
49 51 1 0 0 
SMALL
USER_CHARGES


@<TRIPOS>ATOM
  1 O        0.4020    -1.1850    -0.3700 O.2   1 <1>  -0.5700 
  2 C       -0.6450    -1.7390    -0.1570 C.2   1 <1>   0.5690 
  3 N       -0.9050    -2.9390    -0.7240 N.am  1 <1>  -0.7300 
  4 C       -1.6590    -1.0690     0.7520 C.3   1 <1>  -0.0990 
  5 C       -2.1270    -3.7590    -0.6430 C.3   1 <1>   0.2200 
  6 C       -2.7470    -0.3270    -0.0530 C.3   1 <1>  -0.1600 
  7 C       -1.8460    -5.0060     0.1980 C.3   1 <1>  -0.1600 
  8 C       -2.5740    -4.1370    -2.0570 C.3   1 <1>  -0.1600 
  9 C       -4.0310    -0.0750     0.7540 C.3   1 <1>   0.0200 
 10 C       -3.0840    -5.9120     0.2600 C.3   1 <1>  -0.1600 
 11 C       -3.8180    -5.0350    -2.0120 C.3   1 <1>  -0.1600 
 12 C       -4.7410    -1.3790     1.0760 C.2   1 <1>   0.2980 
 13 C       -3.5800    -6.2810    -1.1460 C.3   1 <1>  -0.1600 
 14 O       -4.5680    -1.9220     2.2520 O.3   1 <1>  -0.0190 
 15 N       -5.4840    -2.0280     0.2800 N.2   1 <1>  -0.5650 
 16 N       -5.2470    -3.0230     2.1930 N.2   1 <1>  -0.4100 
 17 C       -5.7940    -3.0900     1.0310 C.2   1 <1>   0.4620 
 18 C       -6.6220    -4.1800     0.5430 C.ar  1 <1>   0.0540 
 19 C       -7.3020    -4.0990    -0.6730 C.ar  1 <1>  -0.1500 
 20 C       -6.7600    -5.3640     1.2680 C.ar  1 <1>  -0.1500 
 21 C       -8.0670    -5.1490    -1.1470 C.ar  1 <1>  -0.1500 
 22 C       -7.5230    -6.4180     0.7990 C.ar  1 <1>  -0.1500 
 23 C       -8.1800    -6.3180    -0.4150 C.ar  1 <1>  -0.1440 
 24 C       -9.0180    -7.4730    -0.9330 C.3   1 <1>  -0.0970 
 25 H       -0.1570    -3.3240    -1.3020 H     1 <1>   0.3700 
 26 H       -1.1450    -0.3700     1.3880 H     1 <1>   0.0800 
 27 H       -2.0800    -1.8230     1.3890 H     1 <1>   0.0800 
 28 H       -2.9200    -3.2020    -0.1770 H     1 <1>   0.0800 
 29 H       -3.0050    -0.9010    -0.9270 H     1 <1>   0.0800 
 30 H       -2.3440     0.6100    -0.3960 H     1 <1>   0.0800 
 31 H       -1.5740    -4.7100     1.1960 H     1 <1>   0.0800 
 32 H       -1.0270    -5.5550    -0.2310 H     1 <1>   0.0800 
 33 H       -1.7800    -4.6600    -2.5610 H     1 <1>   0.0800 
 34 H       -2.8030    -3.2430    -2.6110 H     1 <1>   0.0800 
 35 H       -4.6970     0.5340     0.1700 H     1 <1>   0.0800 
 36 H       -3.8080     0.4540     1.6630 H     1 <1>   0.0800 
 37 H       -3.8680    -5.4020     0.7900 H     1 <1>   0.0800 
 38 H       -2.8490    -6.8090     0.8060 H     1 <1>   0.0800 
 39 H       -4.0870    -5.3350    -3.0100 H     1 <1>   0.0800 
 40 H       -4.6420    -4.4750    -1.6060 H     1 <1>   0.0800 
 41 H       -4.4970    -6.8410    -1.0670 H     1 <1>   0.0800 
 42 H       -2.8500    -6.9110    -1.6260 H     1 <1>   0.0800 
 43 H       -7.2290    -3.2010    -1.2600 H     1 <1>   0.1500 
 44 H       -6.2580    -5.4650     2.2150 H     1 <1>   0.1500 
 45 H       -8.5770    -5.0520    -2.0900 H     1 <1>   0.1500 
 46 H       -7.6040    -7.3170     1.3840 H     1 <1>   0.1500 
 47 H       -9.0280    -7.4790    -2.0080 H     1 <1>   0.0800 
 48 H      -10.0280    -7.3770    -0.5770 H     1 <1>   0.0800 
 49 H       -8.6180    -8.4110    -0.5920 H     1 <1>   0.0800 
@<TRIPOS>BOND
  1   1   2  2   
  2   2   3  am  
  3   2   4  1   
  4   3   5  1   
  5   3  25  1   
  6   4   6  1   
  7   4  26  1   
  8   4  27  1   
  9   5   7  1   
 10   5   8  1   
 11   5  28  1   
 12   6   9  1   
 13   6  29  1   
 14   6  30  1   
 15   7  10  1   
 16   7  31  1   
 17   7  32  1   
 18   8  11  1   
 19   8  33  1   
 20   8  34  1   
 21   9  12  1   
 22   9  35  1   
 23   9  36  1   
 24  10  13  1   
 25  10  37  1   
 26  10  38  1   
 27  11  13  1   
 28  11  39  1   
 29  11  40  1   
 30  12  14  1   
 31  12  15  2   
 32  13  41  1   
 33  13  42  1   
 34  14  16  1   
 35  15  17  1   
 36  16  17  2   
 37  17  18  1   
 38  18  19  ar  
 39  18  20  ar  
 40  19  21  ar  
 41  19  43  1   
 42  20  22  ar  
 43  20  44  1   
 44  21  23  ar  
 45  21  45  1   
 46  22  23  ar  
 47  22  46  1   
 48  23  24  1   
 49  24  47  1   
 50  24  48  1   
 51  24  49  1   
@<TRIPOS>SUBSTRUCTURE
  1 ****  17 GROUP 4 **** **** 0

# MOE 2024.06 (io_trps.svl 2023.06)
