@<TRIPOS>MOLECULE
4-Chloro-N-cyclopentyl-3-(morpholine-4-sulfonyl)-benzamide
45 47 1 0 0 
SMALL
USER_CHARGES


@<TRIPOS>ATOM
  1 CL       0.8440    -0.1290     2.7960 Cl    1 <1>  -0.1770 
  2 C        1.9310    -1.0520     1.7920 C.ar  1 <1>   0.1770 
  3 C        1.5470    -2.2310     1.1650 C.ar  1 <1>  -0.0090 
  4 C        3.2040    -0.5320     1.6370 C.ar  1 <1>  -0.1500 
  5 S       -0.1090    -2.9520     1.3140 S.o2  1 <1>   1.4470 
  6 C        2.4940    -2.8530     0.3590 C.ar  1 <1>  -0.1500 
  7 C        4.1220    -1.1810     0.8360 C.ar  1 <1>  -0.1500 
  8 O        0.0030    -4.3700     1.0480 O.2   1 <1>  -0.6500 
  9 O       -0.8050    -2.5430     2.5120 O.2   1 <1>  -0.6500 
 10 N       -0.9390    -2.2830    -0.0050 N.am  1 <1>  -0.8490 
 11 C        3.7860    -2.3620     0.1750 C.ar  1 <1>   0.0860 
 12 C       -1.3870    -0.9000     0.2330 C.3   1 <1>   0.1960 
 13 C       -2.0970    -3.1070    -0.3880 C.3   1 <1>   0.1960 
 14 C        4.7310    -3.0580    -0.6780 C.2   1 <1>   0.5440 
 15 C       -2.1480    -0.3450    -0.9850 C.3   1 <1>   0.1200 
 16 C       -2.8460    -2.4960    -1.5870 C.3   1 <1>   0.1200 
 17 O        4.3430    -3.6670    -1.6550 O.2   1 <1>  -0.5700 
 18 N        6.0640    -3.0500    -0.3890 N.am  1 <1>  -0.7300 
 19 O       -3.2240    -1.1760    -1.3130 O.3   1 <1>  -0.5600 
 20 C        7.1120    -3.7390    -1.1610 C.3   1 <1>   0.2200 
 21 C        7.7390    -4.8130    -0.2810 C.3   1 <1>  -0.1600 
 22 C        8.2600    -2.7670    -1.4010 C.3   1 <1>  -0.1600 
 23 C        8.7560    -4.0860     0.6080 C.3   1 <1>  -0.1600 
 24 C        9.0910    -2.7720    -0.1120 C.3   1 <1>  -0.1600 
 25 H        3.4670     0.3830     2.1410 H     1 <1>   0.1500 
 26 H        2.2230    -3.7620    -0.1570 H     1 <1>   0.1500 
 27 H        5.1060    -0.7620     0.7110 H     1 <1>   0.1500 
 28 H       -0.5370    -0.2700     0.4210 H     1 <1>   0.0800 
 29 H       -2.0330    -0.8580     1.0950 H     1 <1>   0.0800 
 30 H       -2.7750    -3.2010     0.4440 H     1 <1>   0.0800 
 31 H       -1.7670    -4.0950    -0.6610 H     1 <1>   0.0800 
 32 H       -1.4950    -0.2730    -1.8370 H     1 <1>   0.0800 
 33 H       -2.5420     0.6310    -0.7640 H     1 <1>   0.0800 
 34 H       -3.7390    -3.0570    -1.7930 H     1 <1>   0.0800 
 35 H       -2.2210    -2.5010    -2.4630 H     1 <1>   0.0800 
 36 H        6.3960    -2.6540     0.4880 H     1 <1>   0.3700 
 37 H        6.7160    -4.1400    -2.0800 H     1 <1>   0.0800 
 38 H        8.2640    -5.5060    -0.9160 H     1 <1>   0.0800 
 39 H        7.0020    -5.3570     0.2830 H     1 <1>   0.0800 
 40 H        7.9130    -1.7850    -1.6720 H     1 <1>   0.0800 
 41 H        8.8640    -3.1500    -2.2050 H     1 <1>   0.0800 
 42 H        9.6350    -4.6890     0.7540 H     1 <1>   0.0800 
 43 H        8.3180    -3.8730     1.5680 H     1 <1>   0.0800 
 44 H        8.8150    -1.9370     0.5080 H     1 <1>   0.0800 
 45 H       10.1420    -2.7040    -0.3350 H     1 <1>   0.0800 
@<TRIPOS>BOND
  1   1   2  1   
  2   2   3  ar  
  3   2   4  ar  
  4   3   5  1   
  5   3   6  ar  
  6   4   7  ar  
  7   4  25  1   
  8   5   8  2   
  9   5   9  2   
 10   5  10  am  
 11   6  11  ar  
 12   6  26  1   
 13   7  11  ar  
 14   7  27  1   
 15  10  12  1   
 16  10  13  1   
 17  11  14  1   
 18  12  15  1   
 19  12  28  1   
 20  12  29  1   
 21  13  16  1   
 22  13  30  1   
 23  13  31  1   
 24  14  17  2   
 25  14  18  am  
 26  15  19  1   
 27  15  32  1   
 28  15  33  1   
 29  16  19  1   
 30  16  34  1   
 31  16  35  1   
 32  18  20  1   
 33  18  36  1   
 34  20  21  1   
 35  20  22  1   
 36  20  37  1   
 37  21  23  1   
 38  21  38  1   
 39  21  39  1   
 40  22  24  1   
 41  22  40  1   
 42  22  41  1   
 43  23  24  1   
 44  23  42  1   
 45  23  43  1   
 46  24  44  1   
 47  24  45  1   
@<TRIPOS>SUBSTRUCTURE
  1 ****   6 GROUP 4 **** **** 0

# MOE 2024.06 (io_trps.svl 2023.06)
