@<TRIPOS>MOLECULE
N-Cyclohexyl-3-[3-(4-ethoxy-3-methoxy-phenyl)-[1,2,4]oxadiazol-5-yl]-propionamid
54 56 1 0 0 
SMALL
USER_CHARGES


@<TRIPOS>ATOM
  1 O       -0.0940    -0.6880    -2.0200 O.2   1 <1>  -0.5700 
  2 C        0.3760    -1.7050    -1.5820 C.2   1 <1>   0.5690 
  3 N        1.6570    -1.7200    -1.1510 N.am  1 <1>  -0.7300 
  4 C       -0.5010    -2.9360    -1.5110 C.3   1 <1>  -0.0990 
  5 C        2.4410    -2.8110    -0.5480 C.3   1 <1>   0.2200 
  6 C       -1.1470    -3.0590    -0.1260 C.3   1 <1>   0.0200 
  7 C        3.0130    -2.3270     0.7880 C.3   1 <1>  -0.1600 
  8 C        3.5570    -3.2140    -1.5160 C.3   1 <1>  -0.1600 
  9 C       -1.9230    -4.3540     0.0040 C.2   1 <1>   0.2980 
 10 C        3.9200    -3.3940     1.4190 C.3   1 <1>  -0.1600 
 11 C        4.4670    -4.2840    -0.8940 C.3   1 <1>  -0.1600 
 12 O       -1.2590    -5.4800     0.0410 O.3   1 <1>  -0.0190 
 13 N       -3.1830    -4.4610     0.0830 N.2   1 <1>  -0.5650 
 14 C        5.0370    -3.8140     0.4520 C.3   1 <1>  -0.1600 
 15 N       -2.1800    -6.3840     0.1510 N.2   1 <1>  -0.4100 
 16 C       -3.3200    -5.7880     0.1770 C.2   1 <1>   0.4620 
 17 C       -4.6160    -6.4380     0.2910 C.ar  1 <1>   0.0540 
 18 C       -4.7220    -7.8260     0.3960 C.ar  1 <1>  -0.1500 
 19 C       -5.8050    -5.7060     0.3010 C.ar  1 <1>  -0.1500 
 20 C       -5.9520    -8.4640     0.5060 C.ar  1 <1>   0.0820 
 21 C       -7.0380    -6.3220     0.4100 C.ar  1 <1>  -0.1500 
 22 O       -6.0670    -9.8200     0.6080 O.3   1 <1>  -0.3630 
 23 C       -7.1260    -7.7060     0.5130 C.ar  1 <1>   0.0820 
 24 C       -4.9400   -10.6660     0.6110 C.3   1 <1>   0.0400 
 25 O       -8.3170    -8.3610     0.6220 O.3   1 <1>  -0.3630 
 26 C       -9.5460    -7.6760     0.6380 C.3   1 <1>   0.1200 
 27 C      -10.6590    -8.7120     0.7710 C.3   1 <1>  -0.2400 
 28 H        2.1610    -0.8390    -1.2650 H     1 <1>   0.3700 
 29 H        0.0800    -3.8080    -1.7440 H     1 <1>   0.0800 
 30 H       -1.2720    -2.8530    -2.2560 H     1 <1>   0.0800 
 31 H        1.8150    -3.6660    -0.3630 H     1 <1>   0.0800 
 32 H       -1.8140    -2.2290     0.0300 H     1 <1>   0.0800 
 33 H       -0.3950    -3.0300     0.6410 H     1 <1>   0.0800 
 34 H        2.2070    -2.1010     1.4640 H     1 <1>   0.0800 
 35 H        3.5880    -1.4310     0.6310 H     1 <1>   0.0800 
 36 H        4.1510    -2.3510    -1.7620 H     1 <1>   0.0800 
 37 H        3.1250    -3.5990    -2.4230 H     1 <1>   0.0800 
 38 H        3.3310    -4.2580     1.6780 H     1 <1>   0.0800 
 39 H        4.3550    -3.0090     2.3250 H     1 <1>   0.0800 
 40 H        5.2760    -4.5070    -1.5690 H     1 <1>   0.0800 
 41 H        3.9050    -5.1910    -0.7450 H     1 <1>   0.0800 
 42 H        5.6170    -4.6060     0.8940 H     1 <1>   0.0800 
 43 H        5.6960    -2.9790     0.2870 H     1 <1>   0.0800 
 44 H       -3.8140    -8.3960     0.3890 H     1 <1>   0.1500 
 45 H       -5.7630    -4.6340     0.2230 H     1 <1>   0.1500 
 46 H       -7.9160    -5.7050     0.4120 H     1 <1>   0.1500 
 47 H       -5.2860   -11.6800     0.7020 H     1 <1>   0.0800 
 48 H       -4.3180   -10.4160     1.4520 H     1 <1>   0.0800 
 49 H       -4.4080   -10.5430    -0.3160 H     1 <1>   0.0800 
 50 H       -9.6440    -7.1290    -0.2830 H     1 <1>   0.0800 
 51 H       -9.5510    -7.0040     1.4790 H     1 <1>   0.0800 
 52 H      -10.6320    -9.3890    -0.0640 H     1 <1>   0.0800 
 53 H      -11.6150    -8.2220     0.7860 H     1 <1>   0.0800 
 54 H      -10.5400    -9.2650     1.6850 H     1 <1>   0.0800 
@<TRIPOS>BOND
  1   1   2  2   
  2   2   3  am  
  3   2   4  1   
  4   3   5  1   
  5   3  28  1   
  6   4   6  1   
  7   4  29  1   
  8   4  30  1   
  9   5   7  1   
 10   5   8  1   
 11   5  31  1   
 12   6   9  1   
 13   6  32  1   
 14   6  33  1   
 15   7  10  1   
 16   7  34  1   
 17   7  35  1   
 18   8  11  1   
 19   8  36  1   
 20   8  37  1   
 21   9  12  1   
 22   9  13  2   
 23  10  14  1   
 24  10  38  1   
 25  10  39  1   
 26  11  14  1   
 27  11  40  1   
 28  11  41  1   
 29  12  15  1   
 30  13  16  1   
 31  14  42  1   
 32  14  43  1   
 33  15  16  2   
 34  16  17  1   
 35  17  18  ar  
 36  17  19  ar  
 37  18  20  ar  
 38  18  44  1   
 39  19  21  ar  
 40  19  45  1   
 41  20  22  1   
 42  20  23  ar  
 43  21  23  ar  
 44  21  46  1   
 45  22  24  1   
 46  23  25  1   
 47  24  47  1   
 48  24  48  1   
 49  24  49  1   
 50  25  26  1   
 51  26  27  1   
 52  26  50  1   
 53  26  51  1   
 54  27  52  1   
 55  27  53  1   
 56  27  54  1   
@<TRIPOS>SUBSTRUCTURE
  1 ****  16 GROUP 4 **** **** 0

# MOE 2024.06 (io_trps.svl 2023.06)
