@<TRIPOS>MOLECULE
8-(3-Chloro-4-methoxy-phenyl)-3-(2-ethoxy-ethyl)-1,6,7-trimethyl-1H,8H-imidazo[2
56 59 1 0 0 
SMALL
USER_CHARGES


@<TRIPOS>ATOM
  1 CL      -1.8580    -1.2440     2.9410 Cl    1 <1>  -0.1830 
  2 C       -2.6880    -1.1320     1.4050 C.ar  1 <1>   0.1710 
  3 C       -2.2730    -1.8960     0.3190 C.ar  1 <1>   0.0760 
  4 C       -3.7600    -0.2670     1.3160 C.ar  1 <1>  -0.1560 
  5 O       -1.2120    -2.7290     0.4850 O.3   1 <1>  -0.3680 
  6 C       -2.9670    -1.7720    -0.8830 C.ar  1 <1>  -0.1560 
  7 C       -4.4490    -0.1540     0.1200 C.ar  1 <1>   0.3060 
  8 C       -0.6900    -3.4910    -0.5810 C.3   1 <1>   0.0330 
  9 C       -4.0440    -0.9060    -0.9750 C.ar  1 <1>  -0.1560 
 10 N       -5.5540     0.7080     0.0190 N.pl3 1 <1>  -0.5550 
 11 C       -6.8260     0.4220     0.3210 C.cat 1 <1>   1.0690 
 12 C       -5.5710     2.0340    -0.3950 C.2   1 <1>   0.1580 
 13 N       -7.4950    -0.6440     0.7730 N.pl3 1 <1>  -0.7030 
 14 N       -7.6310     1.4560     0.1280 N.pl3 1 <1>  -0.6330 
 15 C       -6.8430     2.4930    -0.3290 C.2   1 <1>   0.2350 
 16 C       -4.2920     2.7340    -0.8240 C.3   1 <1>  -0.1090 
 17 C       -8.8030    -0.2610     0.8710 C.2   1 <1>   0.4210 
 18 C       -8.9230     1.0330     0.4830 C.2   1 <1>   0.2710 
 19 C       -7.4520     3.8440    -0.6530 C.3   1 <1>  -0.1090 
 20 N       -9.8740    -1.0260     1.2880 N.am  1 <1>  -0.4410 
 21 C      -10.2080     1.6540     0.5100 C.2   1 <1>   0.7000 
 22 C      -11.1280    -0.4270     1.3410 C.2   1 <1>   0.6870 
 23 C       -9.6950    -2.4530     1.6930 C.3   1 <1>   0.0530 
 24 O      -10.3640     2.8020     0.1310 O.2   1 <1>  -0.5740 
 25 N      -11.2800     0.9060     0.9750 N.am  1 <1>  -0.4250 
 26 O      -12.0890    -1.0740     1.7010 O.2   1 <1>  -0.5740 
 27 C      -12.6310     1.5460     1.0930 C.3   1 <1>   0.1340 
 28 C      -13.4600     1.2940    -0.1650 C.3   1 <1>   0.1130 
 29 O      -14.6680     1.9630    -0.0200 O.3   1 <1>  -0.5640 
 30 C      -15.5380     1.7940    -1.0880 C.3   1 <1>   0.1130 
 31 C      -16.8040     2.5830    -0.7790 C.3   1 <1>  -0.2460 
 32 H       -4.0430     0.3110     2.1750 H     1 <1>   0.1440 
 33 H       -2.6780    -2.3400    -1.7500 H     1 <1>   0.1440 
 34 H        0.1550    -4.0450    -0.2120 H     1 <1>   0.0730 
 35 H       -0.3740    -2.8270    -1.3660 H     1 <1>   0.0730 
 36 H       -1.4460    -4.1710    -0.9300 H     1 <1>   0.0730 
 37 H       -4.5680    -0.8150    -1.9110 H     1 <1>   0.1440 
 38 H       -7.0810    -1.5460     0.9990 H     1 <1>   0.4450 
 39 H       -3.8550     2.2240    -1.6640 H     1 <1>   0.0730 
 40 H       -3.5820     2.7370    -0.0160 H     1 <1>   0.0730 
 41 H       -4.4860     3.7520    -1.1090 H     1 <1>   0.0730 
 42 H       -7.9230     4.2560     0.2220 H     1 <1>   0.0730 
 43 H       -8.1950     3.7390    -1.4230 H     1 <1>   0.0730 
 44 H       -6.7020     4.5340    -0.9940 H     1 <1>   0.0730 
 45 H       -9.3650    -2.5010     2.7170 H     1 <1>   0.0730 
 46 H       -8.9740    -2.9370     1.0600 H     1 <1>   0.0730 
 47 H      -10.6240    -2.9920     1.6080 H     1 <1>   0.0730 
 48 H      -12.5270     2.6070     1.2410 H     1 <1>   0.0730 
 49 H      -13.1520     1.1430     1.9450 H     1 <1>   0.0730 
 50 H      -13.6620     0.2430    -0.2800 H     1 <1>   0.0730 
 51 H      -12.9600     1.6850    -1.0340 H     1 <1>   0.0730 
 52 H      -15.7610     0.7450    -1.1930 H     1 <1>   0.0730 
 53 H      -15.0690     2.1650    -1.9830 H     1 <1>   0.0730 
 54 H      -17.2580     2.2130     0.1230 H     1 <1>   0.0730 
 55 H      -17.5050     2.4770    -1.5860 H     1 <1>   0.0730 
 56 H      -16.5680     3.6260    -0.6610 H     1 <1>   0.0730 
@<TRIPOS>BOND
  1   1   2  1   
  2   2   3  ar  
  3   2   4  ar  
  4   3   5  1   
  5   3   6  ar  
  6   4   7  ar  
  7   4  32  1   
  8   5   8  1   
  9   6   9  ar  
 10   6  33  1   
 11   7   9  ar  
 12   7  10  1   
 13   8  34  1   
 14   8  35  1   
 15   8  36  1   
 16   9  37  1   
 17  10  11  ar  
 18  10  12  1   
 19  11  13  ar  
 20  11  14  ar  
 21  12  15  2   
 22  12  16  1   
 23  13  17  1   
 24  13  38  1   
 25  14  15  1   
 26  14  18  1   
 27  15  19  1   
 28  16  39  1   
 29  16  40  1   
 30  16  41  1   
 31  17  18  2   
 32  17  20  1   
 33  18  21  1   
 34  19  42  1   
 35  19  43  1   
 36  19  44  1   
 37  20  22  am  
 38  20  23  1   
 39  21  24  2   
 40  21  25  am  
 41  22  25  am  
 42  22  26  2   
 43  23  45  1   
 44  23  46  1   
 45  23  47  1   
 46  25  27  1   
 47  27  28  1   
 48  27  48  1   
 49  27  49  1   
 50  28  29  1   
 51  28  50  1   
 52  28  51  1   
 53  29  30  1   
 54  30  31  1   
 55  30  52  1   
 56  30  53  1   
 57  31  54  1   
 58  31  55  1   
 59  31  56  1   
@<TRIPOS>SUBSTRUCTURE
  1 ****  11 GROUP 4 **** **** 0

# MOE 2024.06 (io_trps.svl 2023.06)
