@<TRIPOS>MOLECULE
8-(5-Chloro-2-methoxy-phenyl)-3-(3-hydroxy-propyl)-1,7-dimethyl-1H,8H-imidazo[2,
50 53 1 0 0 
SMALL
USER_CHARGES


@<TRIPOS>ATOM
  1 CL      -1.2530    -0.3400     3.3420 Cl    1 <1>  -0.1840 
  2 C       -2.3310    -0.8160     2.0570 C.ar  1 <1>   0.1700 
  3 C       -3.4000    -0.0020     1.7420 C.ar  1 <1>  -0.1570 
  4 C       -2.1000    -1.9960     1.3790 C.ar  1 <1>  -0.1570 
  5 C       -4.2630    -0.3620     0.7180 C.ar  1 <1>   0.3050 
  6 C       -2.9610    -2.3750     0.3630 C.ar  1 <1>  -0.1570 
  7 N       -5.3500     0.4870     0.3950 N.pl3 1 <1>  -0.5550 
  8 C       -4.0460    -1.5670     0.0300 C.ar  1 <1>   0.0750 
  9 C       -6.6380     0.1180     0.3180 C.cat 1 <1>   1.0690 
 10 C       -5.3370     1.8200    -0.0110 C.2   1 <1>   0.1580 
 11 O       -4.9300    -1.9130    -0.9510 O.3   1 <1>  -0.3680 
 12 N       -7.3400    -1.0050     0.5030 N.pl3 1 <1>  -0.7040 
 13 N       -7.4210     1.1190    -0.0570 N.pl3 1 <1>  -0.6330 
 14 C       -6.6030     2.2070    -0.2810 C.2   1 <1>   0.2220 
 15 C       -4.0560     2.6270    -0.1270 C.3   1 <1>  -0.1100 
 16 C       -4.5970    -2.8910    -1.9180 C.3   1 <1>   0.0320 
 17 C       -8.6400    -0.7000     0.2150 C.2   1 <1>   0.4200 
 18 C       -8.7240     0.6060    -0.1350 C.2   1 <1>   0.2700 
 19 N       -9.7340    -1.5420     0.2410 N.am  1 <1>  -0.4420 
 20 C       -9.9860     1.1580    -0.5010 C.2   1 <1>   0.6990 
 21 C      -10.9710    -1.0250    -0.1290 C.2   1 <1>   0.6860 
 22 C       -9.5980    -2.9750     0.6380 C.3   1 <1>   0.0520 
 23 O      -10.0890     2.3290    -0.8240 O.2   1 <1>  -0.5750 
 24 N      -11.0910     0.3160    -0.4850 N.am  1 <1>  -0.4260 
 25 O      -11.9460    -1.7480    -0.1410 O.2   1 <1>  -0.5750 
 26 C      -12.4360     0.8610    -0.8400 C.3   1 <1>   0.1330 
 27 C      -13.1590     1.3360     0.4240 C.3   1 <1>  -0.1670 
 28 C      -14.5400     1.8870     0.0750 C.3   1 <1>   0.1120 
 29 O      -15.1360     2.3210     1.2400 O.3   1 <1>  -0.6840 
 30 H       -3.5500     0.9020     2.3010 H     1 <1>   0.1430 
 31 H       -1.2560    -2.6090     1.6470 H     1 <1>   0.1430 
 32 H       -2.7650    -3.3020    -0.1470 H     1 <1>   0.1430 
 33 H       -6.9080    -1.9120     0.6700 H     1 <1>   0.4450 
 34 H       -6.9840     3.1580    -0.6210 H     1 <1>   0.1430 
 35 H       -3.3510     2.1170    -0.7600 H     1 <1>   0.0720 
 36 H       -3.6120     2.7750     0.8410 H     1 <1>   0.0720 
 37 H       -4.2600     3.5930    -0.5550 H     1 <1>   0.0720 
 38 H       -5.3640    -2.8970    -2.6720 H     1 <1>   0.0720 
 39 H       -4.5470    -3.8560    -1.4440 H     1 <1>   0.0720 
 40 H       -3.6520    -2.6370    -2.3670 H     1 <1>   0.0720 
 41 H       -8.8400    -3.0880     1.3930 H     1 <1>   0.0720 
 42 H       -9.3390    -3.5670    -0.2230 H     1 <1>   0.0720 
 43 H      -10.5260    -3.3440     1.0410 H     1 <1>   0.0720 
 44 H      -13.0200     0.1000    -1.3300 H     1 <1>   0.0720 
 45 H      -12.3320     1.6810    -1.5300 H     1 <1>   0.0720 
 46 H      -12.5830     2.1150     0.8920 H     1 <1>   0.0720 
 47 H      -13.2700     0.5080     1.1010 H     1 <1>   0.0720 
 48 H      -15.1680     1.1320    -0.3670 H     1 <1>   0.0720 
 49 H      -14.4650     2.7300    -0.5910 H     1 <1>   0.0720 
 50 H      -15.2590     1.5770     1.8610 H     1 <1>   0.3940 
@<TRIPOS>BOND
  1   1   2  1   
  2   2   3  ar  
  3   2   4  ar  
  4   3   5  ar  
  5   3  30  1   
  6   4   6  ar  
  7   4  31  1   
  8   5   7  1   
  9   5   8  ar  
 10   6   8  ar  
 11   6  32  1   
 12   7   9  ar  
 13   7  10  1   
 14   8  11  1   
 15   9  12  ar  
 16   9  13  ar  
 17  10  14  2   
 18  10  15  1   
 19  11  16  1   
 20  12  17  1   
 21  12  33  1   
 22  13  14  1   
 23  13  18  1   
 24  14  34  1   
 25  15  35  1   
 26  15  36  1   
 27  15  37  1   
 28  16  38  1   
 29  16  39  1   
 30  16  40  1   
 31  17  18  2   
 32  17  19  1   
 33  18  20  1   
 34  19  21  am  
 35  19  22  1   
 36  20  23  2   
 37  20  24  am  
 38  21  24  am  
 39  21  25  2   
 40  22  41  1   
 41  22  42  1   
 42  22  43  1   
 43  24  26  1   
 44  26  27  1   
 45  26  44  1   
 46  26  45  1   
 47  27  28  1   
 48  27  46  1   
 49  27  47  1   
 50  28  29  1   
 51  28  48  1   
 52  28  49  1   
 53  29  50  1   
@<TRIPOS>SUBSTRUCTURE
  1 ****   9 GROUP 4 **** **** 0

# MOE 2024.06 (io_trps.svl 2023.06)
