@<TRIPOS>MOLECULE
2-(4-Phenyl-piperazin-1-yl)-N-(4-trifluoromethoxy-phenyl)-acetamide
47 49 1 0 0 
SMALL
USER_CHARGES


@<TRIPOS>ATOM
  1 F        1.9450    -3.3190     0.1620 F     1 <1>  -0.3400 
  2 C        2.1860    -3.1030    -1.1260 C.3   1 <1>   1.3000 
  3 F        1.0310    -3.1900    -1.7700 F     1 <1>  -0.3400 
  4 F        2.9700    -4.0770    -1.5730 F     1 <1>  -0.3400 
  5 O        2.7630    -1.8320    -1.3410 O.3   1 <1>  -0.3630 
  6 C        3.9510    -1.5890    -0.7460 C.ar  1 <1>   0.0830 
  7 C        5.1300    -1.8700    -1.4170 C.ar  1 <1>  -0.1500 
  8 C        3.9890    -1.0400     0.5260 C.ar  1 <1>  -0.1500 
  9 C        6.3440    -1.6140    -0.8070 C.ar  1 <1>  -0.1500 
 10 C        5.2080    -0.7870     1.1290 C.ar  1 <1>  -0.1500 
 11 C        6.4030    -1.0690     0.4720 C.ar  1 <1>   0.1170 
 12 N        7.6660    -0.8330     1.0360 N.am  1 <1>  -0.5470 
 13 C        8.0860    -0.1770     2.1580 C.2   1 <1>   0.5690 
 14 O        7.3570     0.3680     2.9510 O.2   1 <1>  -0.5700 
 15 C        9.5980    -0.1430     2.3890 C.3   1 <1>   0.1710 
 16 N       10.3950    -0.3090     1.1360 N.3   1 <1>  -0.8100 
 17 C       11.8060    -0.6310     1.4520 C.3   1 <1>   0.1100 
 18 C       10.3550     0.9300     0.3180 C.3   1 <1>   0.1100 
 19 C       12.6560    -0.8350     0.1830 C.3   1 <1>   0.2090 
 20 C       11.1750     0.8110    -0.9840 C.3   1 <1>   0.2090 
 21 N       12.5690     0.3410    -0.7300 N.pl3 1 <1>  -0.8380 
 22 C       13.6430     1.2310    -0.7550 C.ar  1 <1>   0.1000 
 23 C       13.5640     2.5070    -0.2060 C.ar  1 <1>  -0.1500 
 24 C       14.8410     0.8360    -1.3380 C.ar  1 <1>  -0.1500 
 25 C       14.6510     3.3620    -0.2390 C.ar  1 <1>  -0.1500 
 26 C       15.9310     1.6850    -1.3720 C.ar  1 <1>  -0.1500 
 27 C       15.8380     2.9520    -0.8220 C.ar  1 <1>  -0.1500 
 28 H        5.0970    -2.2860    -2.4090 H     1 <1>   0.1500 
 29 H        3.0740    -0.8110     1.0430 H     1 <1>   0.1500 
 30 H        7.2560    -1.8370    -1.3310 H     1 <1>   0.1500 
 31 H        5.2220    -0.3670     2.1180 H     1 <1>   0.1500 
 32 H        8.4710    -1.1500     0.4870 H     1 <1>   0.3700 
 33 H        9.8280    -0.9460     3.0660 H     1 <1>   0.0800 
 34 H        9.8570     0.7820     2.8740 H     1 <1>   0.0800 
 35 H       11.8450    -1.5330     2.0370 H     1 <1>   0.0800 
 36 H       12.2440     0.1640     2.0330 H     1 <1>   0.0800 
 37 H       10.7400     1.7550     0.8920 H     1 <1>   0.0800 
 38 H        9.3370     1.1630     0.0580 H     1 <1>   0.0800 
 39 H       12.3110    -1.7110    -0.3390 H     1 <1>   0.0800 
 40 H       13.6810    -0.9990     0.4660 H     1 <1>   0.0800 
 41 H       11.2000     1.7630    -1.4850 H     1 <1>   0.0800 
 42 H       10.6900     0.1110    -1.6410 H     1 <1>   0.0800 
 43 H       12.6530     2.8310     0.2530 H     1 <1>   0.1500 
 44 H       14.9050    -0.1460    -1.7690 H     1 <1>   0.1500 
 45 H       14.5760     4.3460     0.1890 H     1 <1>   0.1500 
 46 H       16.8500     1.3620    -1.8290 H     1 <1>   0.1500 
 47 H       16.6850     3.6150    -0.8480 H     1 <1>   0.1500 
@<TRIPOS>BOND
  1   1   2  1   
  2   2   3  1   
  3   2   4  1   
  4   2   5  1   
  5   5   6  1   
  6   6   7  ar  
  7   6   8  ar  
  8   7   9  ar  
  9   7  28  1   
 10   8  10  ar  
 11   8  29  1   
 12   9  11  ar  
 13   9  30  1   
 14  10  11  ar  
 15  10  31  1   
 16  11  12  1   
 17  12  13  am  
 18  12  32  1   
 19  13  14  2   
 20  13  15  1   
 21  15  16  1   
 22  15  33  1   
 23  15  34  1   
 24  16  17  1   
 25  16  18  1   
 26  17  19  1   
 27  17  35  1   
 28  17  36  1   
 29  18  20  1   
 30  18  37  1   
 31  18  38  1   
 32  19  21  1   
 33  19  39  1   
 34  19  40  1   
 35  20  21  1   
 36  20  41  1   
 37  20  42  1   
 38  21  22  1   
 39  22  23  ar  
 40  22  24  ar  
 41  23  25  ar  
 42  23  43  1   
 43  24  26  ar  
 44  24  44  1   
 45  25  27  ar  
 46  25  45  1   
 47  26  27  ar  
 48  26  46  1   
 49  27  47  1   
@<TRIPOS>SUBSTRUCTURE
  1 ****  12 GROUP 4 **** **** 0

# MOE 2024.06 (io_trps.svl 2023.06)
