@<TRIPOS>MOLECULE
5-Chloro-2-methyl-1-(2-morpholin-4-yl-ethyl)-1H-benzoimidazole
38 40 1 0 0 
SMALL
USER_CHARGES


@<TRIPOS>ATOM
  1 CL       0.6370    -0.7080     2.4070 Cl    1 <1>  -0.1770 
  2 C        2.0060    -1.3070     1.5020 C.ar  1 <1>   0.1770 
  3 C        3.0140    -0.4460     1.1430 C.ar  1 <1>  -0.1500 
  4 C        2.0370    -2.6640     1.1650 C.ar  1 <1>  -0.1500 
  5 C        4.0900    -0.9580     0.4240 C.ar  1 <1>   0.2270 
  6 C        3.1010    -3.1730     0.4520 C.ar  1 <1>  -0.1500 
  7 N        5.1950    -0.3180    -0.0360 N.2   1 <1>  -0.5650 
  8 C        4.1350    -2.3010     0.0870 C.ar  1 <1>  -0.1520 
  9 C        5.8780    -1.2270    -0.6320 C.2   1 <1>   0.0060 
 10 N        5.3020    -2.4620    -0.5950 N.pl3 1 <1>   0.0480 
 11 C        7.2030    -0.9280    -1.3070 C.3   1 <1>  -0.0600 
 12 C        5.9080    -3.7540    -0.9480 C.3   1 <1>   0.0960 
 13 C        6.5490    -4.3300     0.3190 C.3   1 <1>   0.3430 
 14 N        7.2700    -5.6220     0.0750 N.4   1 <1>  -0.9590 
 15 C        6.3900    -6.7730    -0.3390 C.3   1 <1>   0.3430 
 16 C        8.1110    -6.0300     1.2550 C.3   1 <1>   0.3430 
 17 C        7.2100    -8.0730    -0.5180 C.3   1 <1>   0.1200 
 18 C        8.8820    -7.3400     0.9670 C.3   1 <1>   0.1200 
 19 O        8.5760    -7.8370    -0.3080 O.3   1 <1>  -0.5600 
 20 H        2.9910     0.5960     1.3980 H     1 <1>   0.1500 
 21 H        1.2160    -3.2890     1.4680 H     1 <1>   0.1500 
 22 H        3.1260    -4.2120     0.1780 H     1 <1>   0.1500 
 23 H        7.4170     0.1240    -1.2290 H     1 <1>   0.0800 
 24 H        7.1550    -1.1840    -2.3500 H     1 <1>   0.0800 
 25 H        8.0010    -1.4700    -0.8350 H     1 <1>   0.0800 
 26 H        6.6460    -3.5970    -1.7130 H     1 <1>   0.0800 
 27 H        5.1360    -4.4000    -1.3220 H     1 <1>   0.0800 
 28 H        5.7830    -4.4790     1.0640 H     1 <1>   0.0800 
 29 H        7.2470    -3.6030     0.7020 H     1 <1>   0.0800 
 30 H        7.9550    -5.5200    -0.6930 H     1 <1>   0.4500 
 31 H        5.8940    -6.5480    -1.2680 H     1 <1>   0.0800 
 32 H        5.6280    -6.9430     0.4040 H     1 <1>   0.0800 
 33 H        7.4870    -6.1750     2.1210 H     1 <1>   0.0800 
 34 H        8.8200    -5.2530     1.4930 H     1 <1>   0.0800 
 35 H        7.0920    -8.4540    -1.5180 H     1 <1>   0.0800 
 36 H        6.8810    -8.8330     0.1700 H     1 <1>   0.0800 
 37 H        8.6440    -8.0930     1.6990 H     1 <1>   0.0800 
 38 H        9.9430    -7.1620     1.0030 H     1 <1>   0.0800 
@<TRIPOS>BOND
  1   1   2  1   
  2   2   3  ar  
  3   2   4  ar  
  4   3   5  ar  
  5   3  20  1   
  6   4   6  ar  
  7   4  21  1   
  8   5   7  1   
  9   5   8  ar  
 10   6   8  ar  
 11   6  22  1   
 12   7   9  2   
 13   8  10  1   
 14   9  10  1   
 15   9  11  1   
 16  10  12  1   
 17  11  23  1   
 18  11  24  1   
 19  11  25  1   
 20  12  13  1   
 21  12  26  1   
 22  12  27  1   
 23  13  14  1   
 24  13  28  1   
 25  13  29  1   
 26  14  15  1   
 27  14  16  1   
 28  14  30  1   
 29  15  17  1   
 30  15  31  1   
 31  15  32  1   
 32  16  18  1   
 33  16  33  1   
 34  16  34  1   
 35  17  19  1   
 36  17  35  1   
 37  17  36  1   
 38  18  19  1   
 39  18  37  1   
 40  18  38  1   
@<TRIPOS>SUBSTRUCTURE
  1 ****  10 GROUP 4 **** **** 0

# MOE 2024.06 (io_trps.svl 2023.06)
