@<TRIPOS>MOLECULE
3-(2-Ethoxy-ethyl)-8-(4-methoxy-benzyl)-1,7-dimethyl-1H,8H-imidazo[2,1-f]purine-
56 59 1 0 0 
SMALL
USER_CHARGES


@<TRIPOS>ATOM
  1 O        2.4020     1.0480    -2.0510 O.2   1 <1>  -0.5740 
  2 C        2.9740     1.1240    -0.9840 C.2   1 <1>   0.6870 
  3 N        2.2730     1.4910     0.1610 N.am  1 <1>  -0.4250 
  4 N        4.3360     0.8630    -0.9130 N.am  1 <1>  -0.4410 
  5 C        2.9220     1.6830     1.3740 C.2   1 <1>   0.7000 
  6 C        0.7900     1.6830     0.0790 C.3   1 <1>   0.1340 
  7 C        4.9680     1.0440     0.2990 C.2   1 <1>   0.4210 
  8 C        5.1050     0.4300    -2.1200 C.3   1 <1>   0.0530 
  9 O        2.3170     2.0620     2.3620 O.2   1 <1>  -0.5740 
 10 C        4.3250     1.4370     1.4240 C.2   1 <1>   0.2710 
 11 C        0.4520     3.1020    -0.3760 C.3   1 <1>   0.1130 
 12 N        6.2890     0.8790     0.5770 N.pl3 1 <1>  -0.7030 
 13 N        5.3030     1.5100     2.4330 N.pl3 1 <1>  -0.6330 
 14 O       -0.9300     3.2320    -0.3750 O.3   1 <1>  -0.5640 
 15 C        6.4560     1.1670     1.8730 C.cat 1 <1>   1.0690 
 16 C        5.5660     1.7880     3.7600 C.2   1 <1>   0.2230 
 17 C       -1.3800     4.4710    -0.8070 C.3   1 <1>   0.1130 
 18 N        7.4650     1.2040     2.7600 N.pl3 1 <1>  -0.5710 
 19 C        6.8910     1.6000     3.9590 C.2   1 <1>   0.1580 
 20 C       -2.9020     4.4550    -0.7470 C.3   1 <1>  -0.2460 
 21 C        8.9030     0.8870     2.5170 C.3   1 <1>   0.3060 
 22 C        7.7030     1.7660     5.2310 C.3   1 <1>  -0.1090 
 23 C        9.0860     0.5390     1.0510 C.ar  1 <1>  -0.1500 
 24 C        8.9030    -0.7660     0.6180 C.ar  1 <1>  -0.1560 
 25 C        9.3430     1.5390     0.1230 C.ar  1 <1>  -0.1560 
 26 C        8.9200    -1.0550    -0.7330 C.ar  1 <1>  -0.1560 
 27 C        9.3650     1.2480    -1.2290 C.ar  1 <1>  -0.1560 
 28 C        9.1320    -0.0520    -1.6640 C.ar  1 <1>   0.0760 
 29 O        9.0900    -0.4110    -2.9670 O.3   1 <1>  -0.3680 
 30 C        9.5630     0.4490    -3.9810 C.3   1 <1>   0.0330 
 31 H        0.3390     1.5030     1.0390 H     1 <1>   0.0730 
 32 H        0.3710     0.9800    -0.6210 H     1 <1>   0.0730 
 33 H        4.4490    -0.0320    -2.8390 H     1 <1>   0.0730 
 34 H        5.8620    -0.2850    -1.8520 H     1 <1>   0.0730 
 35 H        5.5700     1.2850    -2.5800 H     1 <1>   0.0730 
 36 H        0.8120     3.2720    -1.3770 H     1 <1>   0.0730 
 37 H        0.8610     3.8270     0.3060 H     1 <1>   0.0730 
 38 H        7.0650     0.5940    -0.0320 H     1 <1>   0.4450 
 39 H        4.7950     2.0960     4.4520 H     1 <1>   0.1440 
 40 H       -1.0430     4.6320    -1.8170 H     1 <1>   0.0730 
 41 H       -0.9830     5.2330    -0.1570 H     1 <1>   0.0730 
 42 H       -3.2880     3.6840    -1.3890 H     1 <1>   0.0730 
 43 H       -3.2900     5.4020    -1.0740 H     1 <1>   0.0730 
 44 H       -3.2290     4.2790     0.2630 H     1 <1>   0.0730 
 45 H        9.2010     0.0570     3.1350 H     1 <1>   0.0730 
 46 H        9.5100     1.7390     2.7740 H     1 <1>   0.0730 
 47 H        8.1680     0.8350     5.5010 H     1 <1>   0.0730 
 48 H        7.0680     2.0760     6.0420 H     1 <1>   0.0730 
 49 H        8.4650     2.5120     5.0930 H     1 <1>   0.0730 
 50 H        8.7320    -1.5640     1.3230 H     1 <1>   0.1440 
 51 H        9.5150     2.5550     0.4430 H     1 <1>   0.1440 
 52 H        8.7720    -2.0640    -1.0790 H     1 <1>   0.1440 
 53 H        9.5590     2.0410    -1.9290 H     1 <1>   0.1440 
 54 H        9.5310    -0.0840    -4.9140 H     1 <1>   0.0730 
 55 H       10.5780     0.7290    -3.7560 H     1 <1>   0.0730 
 56 H        8.9280     1.3150    -4.0340 H     1 <1>   0.0730 
@<TRIPOS>BOND
  1   1   2  2   
  2   2   3  am  
  3   2   4  am  
  4   3   5  am  
  5   3   6  1   
  6   4   7  1   
  7   4   8  1   
  8   5   9  2   
  9   5  10  1   
 10   6  11  1   
 11   6  31  1   
 12   6  32  1   
 13   7  10  2   
 14   7  12  1   
 15   8  33  1   
 16   8  34  1   
 17   8  35  1   
 18  10  13  1   
 19  11  14  1   
 20  11  36  1   
 21  11  37  1   
 22  12  15  ar  
 23  12  38  1   
 24  13  15  ar  
 25  13  16  1   
 26  14  17  1   
 27  15  18  ar  
 28  16  19  2   
 29  16  39  1   
 30  17  20  1   
 31  17  40  1   
 32  17  41  1   
 33  18  19  1   
 34  18  21  1   
 35  19  22  1   
 36  20  42  1   
 37  20  43  1   
 38  20  44  1   
 39  21  23  1   
 40  21  45  1   
 41  21  46  1   
 42  22  47  1   
 43  22  48  1   
 44  22  49  1   
 45  23  24  ar  
 46  23  25  ar  
 47  24  26  ar  
 48  24  50  1   
 49  25  27  ar  
 50  25  51  1   
 51  26  28  ar  
 52  26  52  1   
 53  27  28  ar  
 54  27  53  1   
 55  28  29  1   
 56  29  30  1   
 57  30  54  1   
 58  30  55  1   
 59  30  56  1   
@<TRIPOS>SUBSTRUCTURE
  1 ****   7 GROUP 4 **** **** 0

# MOE 2024.06 (io_trps.svl 2023.06)
