@<TRIPOS>MOLECULE
2-(1,1-Dioxo-1H-1lambda*6*-naphtho[1,8-cd]isothiazol-2-yl)-N-(2-methoxy-ethyl)-p
41 43 1 0 0 
SMALL
USER_CHARGES


@<TRIPOS>ATOM
  1 S        1.4890     0.4670    -0.8170 S.o2  1 <1>   1.4470 
  2 O        2.5360     0.7960    -1.7610 O.2   1 <1>  -0.6500 
  3 O        0.3940     1.3670    -0.5440 O.2   1 <1>  -0.6500 
  4 N        2.2960     0.1600     0.6800 N.am  1 <1>  -0.6930 
  5 C        0.9840    -1.2450    -0.9680 C.ar  1 <1>  -0.0090 
  6 C        2.3340    -1.2050     0.9760 C.ar  1 <1>   0.1990 
  7 C        3.3340     1.1500     1.0710 C.3   1 <1>   0.3370 
  8 C        1.5650    -1.9660     0.0740 C.ar  1 <1>   0.0000 
  9 C        0.1980    -1.8900    -1.8880 C.ar  1 <1>  -0.1500 
 10 C        3.0000    -1.8590     1.9860 C.ar  1 <1>  -0.1500 
 11 C        4.7680     0.6470     0.7830 C.2   1 <1>   0.5690 
 12 C        3.0740     1.5980     2.5160 C.3   1 <1>  -0.2400 
 13 C        1.4070    -3.3500     0.1990 C.ar  1 <1>   0.0000 
 14 C       -0.0020    -3.2760    -1.7730 C.ar  1 <1>  -0.1500 
 15 C        2.8700    -3.2470     2.1260 C.ar  1 <1>  -0.1500 
 16 O        5.5490     0.4710     1.6910 O.2   1 <1>  -0.5700 
 17 N        5.1240     0.4090    -0.5100 N.am  1 <1>  -0.7300 
 18 C        0.5890    -3.9860    -0.7570 C.ar  1 <1>  -0.1500 
 19 C        2.0890    -3.9750     1.2610 C.ar  1 <1>  -0.1500 
 20 C        6.4180    -0.1730    -0.9480 C.3   1 <1>   0.1400 
 21 C        7.5170     0.8890    -0.9370 C.3   1 <1>   0.1200 
 22 O        8.6690     0.3410    -1.4990 O.3   1 <1>  -0.5600 
 23 C        9.7660     1.1950    -1.4750 C.3   1 <1>   0.0400 
 24 H        3.2040     2.0260     0.4590 H     1 <1>   0.0800 
 25 H       -0.2650    -1.3520    -2.6980 H     1 <1>   0.1500 
 26 H        3.6250    -1.3260     2.6780 H     1 <1>   0.1500 
 27 H        3.2120     0.7890     3.2070 H     1 <1>   0.0800 
 28 H        2.0740     1.9800     2.6090 H     1 <1>   0.0800 
 29 H        3.7640     2.3800     2.7790 H     1 <1>   0.0800 
 30 H       -0.6250    -3.7720    -2.4980 H     1 <1>   0.1500 
 31 H        3.3960    -3.7370     2.9280 H     1 <1>   0.1500 
 32 H        4.4170     0.5410    -1.2500 H     1 <1>   0.3700 
 33 H        0.4380    -5.0490    -0.6750 H     1 <1>   0.1500 
 34 H        1.9900    -5.0400     1.3790 H     1 <1>   0.1500 
 35 H        6.3080    -0.5700    -1.9420 H     1 <1>   0.0800 
 36 H        6.6920    -0.9720    -0.2800 H     1 <1>   0.0800 
 37 H        7.7290     1.1870     0.0760 H     1 <1>   0.0800 
 38 H        7.2210     1.7390    -1.5270 H     1 <1>   0.0800 
 39 H       10.5950     0.6860    -1.9340 H     1 <1>   0.0800 
 40 H       10.0080     1.4340    -0.4540 H     1 <1>   0.0800 
 41 H        9.5350     2.0880    -2.0300 H     1 <1>   0.0800 
@<TRIPOS>BOND
  1   1   2  2   
  2   1   3  2   
  3   1   4  am  
  4   1   5  1   
  5   4   6  1   
  6   4   7  1   
  7   5   8  ar  
  8   5   9  ar  
  9   6   8  ar  
 10   6  10  ar  
 11   7  11  1   
 12   7  12  1   
 13   7  24  1   
 14   8  13  ar  
 15   9  14  ar  
 16   9  25  1   
 17  10  15  ar  
 18  10  26  1   
 19  11  16  2   
 20  11  17  am  
 21  12  27  1   
 22  12  28  1   
 23  12  29  1   
 24  13  18  ar  
 25  13  19  ar  
 26  14  18  ar  
 27  14  30  1   
 28  15  19  ar  
 29  15  31  1   
 30  17  20  1   
 31  17  32  1   
 32  18  33  1   
 33  19  34  1   
 34  20  21  1   
 35  20  35  1   
 36  20  36  1   
 37  21  22  1   
 38  21  37  1   
 39  21  38  1   
 40  22  23  1   
 41  23  39  1   
 42  23  40  1   
 43  23  41  1   
@<TRIPOS>SUBSTRUCTURE
  1 ****   6 GROUP 4 **** **** 0

# MOE 2024.06 (io_trps.svl 2023.06)
