@<TRIPOS>MOLECULE
5-Oxo-1-p-tolyl-pyrrolidine-3-carboxylic acid (4-chloro-2,5-dimethoxy-phenyl)-am
48 50 1 0 0 
SMALL
USER_CHARGES


@<TRIPOS>ATOM
  1 CL      -0.7840     0.4890     0.3530 Cl    1 <1>  -0.1770 
  2 C       -1.6350    -1.0430     0.3380 C.ar  1 <1>   0.1770 
  3 C       -2.4500    -1.3840    -0.7340 C.ar  1 <1>   0.0820 
  4 C       -1.4660    -1.8880     1.4160 C.ar  1 <1>  -0.1500 
  5 O       -2.5660    -0.4970    -1.7630 O.3   1 <1>  -0.3630 
  6 C       -3.1070    -2.6110    -0.7080 C.ar  1 <1>  -0.1500 
  7 C       -2.1270    -3.1110     1.4350 C.ar  1 <1>   0.0830 
  8 C       -3.3810    -0.7720    -2.8820 C.3   1 <1>   0.0400 
  9 C       -2.9560    -3.4800     0.3690 C.ar  1 <1>   0.1170 
 10 O       -2.0090    -4.0010     2.4700 O.3   1 <1>  -0.3630 
 11 N       -3.5950    -4.7330     0.4490 N.am  1 <1>  -0.5470 
 12 C       -1.2150    -3.7010     3.5990 C.3   1 <1>   0.0400 
 13 C       -4.5030    -5.3820    -0.3390 C.2   1 <1>   0.5690 
 14 O       -4.9390    -4.9290    -1.3690 O.2   1 <1>  -0.5700 
 15 C       -4.9650    -6.7610     0.1120 C.3   1 <1>  -0.0190 
 16 C       -6.1810    -7.2930    -0.6600 C.3   1 <1>   0.1400 
 17 C       -5.3900    -6.8360     1.5870 C.3   1 <1>  -0.0990 
 18 N       -6.8950    -8.1480     0.3110 N.am  1 <1>  -0.4770 
 19 C       -6.4580    -7.8930     1.5790 C.2   1 <1>   0.5690 
 20 C       -7.8460    -9.0960    -0.1180 C.ar  1 <1>   0.1170 
 21 O       -6.8290    -8.4140     2.6020 O.2   1 <1>  -0.5700 
 22 C       -8.6720    -8.8370    -1.2090 C.ar  1 <1>  -0.1500 
 23 C       -7.9820   -10.3230     0.5230 C.ar  1 <1>  -0.1500 
 24 C       -9.5930    -9.7720    -1.6460 C.ar  1 <1>  -0.1500 
 25 C       -8.9030   -11.2600     0.0890 C.ar  1 <1>  -0.1500 
 26 C       -9.7130   -10.9920    -1.0010 C.ar  1 <1>  -0.1430 
 27 C      -10.7240   -12.0190    -1.4760 C.3   1 <1>  -0.0970 
 28 H       -0.8220    -1.5670     2.2120 H     1 <1>   0.1500 
 29 H       -3.7380    -2.8980    -1.5220 H     1 <1>   0.1500 
 30 H       -3.3180     0.0660    -3.5540 H     1 <1>   0.0800 
 31 H       -4.3970    -0.9010    -2.5540 H     1 <1>   0.0800 
 32 H       -3.0170    -1.6590    -3.3710 H     1 <1>   0.0800 
 33 H       -3.3140    -5.2250     1.3000 H     1 <1>   0.3700 
 34 H       -1.2770    -4.5290     4.2820 H     1 <1>   0.0800 
 35 H       -1.5960    -2.8120     4.0700 H     1 <1>   0.0800 
 36 H       -0.1950    -3.5640     3.2850 H     1 <1>   0.0800 
 37 H       -4.1560    -7.4500    -0.0500 H     1 <1>   0.0800 
 38 H       -5.8810    -7.8590    -1.5260 H     1 <1>   0.0800 
 39 H       -6.8340    -6.4900    -0.9590 H     1 <1>   0.0800 
 40 H       -5.8290    -5.9130     1.9220 H     1 <1>   0.0800 
 41 H       -4.5780    -7.1170     2.2320 H     1 <1>   0.0800 
 42 H       -8.6060    -7.8960    -1.7200 H     1 <1>   0.1500 
 43 H       -7.3620   -10.5500     1.3720 H     1 <1>   0.1500 
 44 H      -10.2200    -9.5450    -2.4910 H     1 <1>   0.1500 
 45 H       -8.9860   -12.1980     0.6080 H     1 <1>   0.1500 
 46 H      -10.3630   -13.0140    -1.2890 H     1 <1>   0.0800 
 47 H      -10.8990   -11.9150    -2.5320 H     1 <1>   0.0800 
 48 H      -11.6530   -11.8810    -0.9540 H     1 <1>   0.0800 
@<TRIPOS>BOND
  1   1   2  1   
  2   2   3  ar  
  3   2   4  ar  
  4   3   5  1   
  5   3   6  ar  
  6   4   7  ar  
  7   4  28  1   
  8   5   8  1   
  9   6   9  ar  
 10   6  29  1   
 11   7   9  ar  
 12   7  10  1   
 13   8  30  1   
 14   8  31  1   
 15   8  32  1   
 16   9  11  1   
 17  10  12  1   
 18  11  13  am  
 19  11  33  1   
 20  12  34  1   
 21  12  35  1   
 22  12  36  1   
 23  13  14  2   
 24  13  15  1   
 25  15  16  1   
 26  15  17  1   
 27  15  37  1   
 28  16  18  1   
 29  16  38  1   
 30  16  39  1   
 31  17  19  1   
 32  17  40  1   
 33  17  41  1   
 34  18  19  am  
 35  18  20  1   
 36  19  21  2   
 37  20  22  ar  
 38  20  23  ar  
 39  22  24  ar  
 40  22  42  1   
 41  23  25  ar  
 42  23  43  1   
 43  24  26  ar  
 44  24  44  1   
 45  25  26  ar  
 46  25  45  1   
 47  26  27  1   
 48  27  46  1   
 49  27  47  1   
 50  27  48  1   
@<TRIPOS>SUBSTRUCTURE
  1 ****  13 GROUP 4 **** **** 0

# MOE 2024.06 (io_trps.svl 2023.06)
