@<TRIPOS>MOLECULE
Pentanoic acid [1-(3-m-tolyl-[1,2,4]oxadiazol-5-yl)-ethyl]-amide
42 43 1 0 0 
SMALL
USER_CHARGES


@<TRIPOS>ATOM
  1 O       -3.1150     0.8170    -2.4540 O.2   1 <1>  -0.5700 
  2 C       -3.5780     0.6510    -1.3560 C.2   1 <1>   0.5690 
  3 N       -4.8220     0.1390    -1.2450 N.am  1 <1>  -0.7300 
  4 C       -2.7730     1.0140    -0.1130 C.3   1 <1>  -0.0990 
  5 C       -5.5950    -0.1870    -0.0290 C.3   1 <1>   0.4000 
  6 C       -1.3230     1.4430    -0.4030 C.3   1 <1>  -0.1600 
  7 C       -5.4970    -1.6820     0.2950 C.2   1 <1>   0.2980 
  8 C       -7.0310     0.2850    -0.2620 C.3   1 <1>  -0.2400 
  9 C       -0.5670     1.7750     0.8900 C.3   1 <1>  -0.1600 
 10 O       -4.3630    -2.1190     0.7770 O.3   1 <1>  -0.0190 
 11 N       -6.4000    -2.5670     0.1540 N.2   1 <1>  -0.5650 
 12 C        0.8720     2.2000     0.5890 C.3   1 <1>  -0.2400 
 13 N       -4.5600    -3.3850     0.9580 N.2   1 <1>  -0.4100 
 14 C       -5.7610    -3.6590     0.5870 C.2   1 <1>   0.4620 
 15 C       -6.3810    -4.9740     0.6210 C.ar  1 <1>   0.0540 
 16 C       -7.7000    -5.1760     0.2090 C.ar  1 <1>  -0.1500 
 17 C       -5.6770    -6.0930     1.0700 C.ar  1 <1>  -0.1500 
 18 C       -8.2940    -6.4260     0.2400 C.ar  1 <1>  -0.1440 
 19 C       -6.2590    -7.3460     1.1040 C.ar  1 <1>  -0.1500 
 20 C       -7.5670    -7.5140     0.6900 C.ar  1 <1>  -0.1500 
 21 C       -9.7300    -6.6090    -0.2170 C.3   1 <1>  -0.0970 
 22 H       -5.2580    -0.1440    -2.1240 H     1 <1>   0.3700 
 23 H       -2.7510     0.1600     0.5380 H     1 <1>   0.0800 
 24 H       -3.2790     1.8160     0.3910 H     1 <1>   0.0800 
 25 H       -5.1960     0.3580     0.8090 H     1 <1>   0.0800 
 26 H       -1.3310     2.3050    -1.0490 H     1 <1>   0.0800 
 27 H       -0.8160     0.6470    -0.9230 H     1 <1>   0.0800 
 28 H       -7.4700    -0.2400    -1.0920 H     1 <1>   0.0800 
 29 H       -7.0500     1.3420    -0.4550 H     1 <1>   0.0800 
 30 H       -7.6230     0.0870     0.6130 H     1 <1>   0.0800 
 31 H       -0.5530     0.9130     1.5350 H     1 <1>   0.0800 
 32 H       -1.0690     2.5740     1.4100 H     1 <1>   0.0800 
 33 H        1.4000     1.4070     0.0880 H     1 <1>   0.0800 
 34 H        1.3890     2.4290     1.5050 H     1 <1>   0.0800 
 35 H        0.8830     3.0740    -0.0380 H     1 <1>   0.0800 
 36 H       -8.2690    -4.3340    -0.1450 H     1 <1>   0.1500 
 37 H       -4.6580    -5.9800     1.3960 H     1 <1>   0.1500 
 38 H       -5.6940    -8.1930     1.4540 H     1 <1>   0.1500 
 39 H       -8.0140    -8.4930     0.7180 H     1 <1>   0.1500 
 40 H      -10.2730    -5.6840    -0.1450 H     1 <1>   0.0800 
 41 H      -10.2270    -7.3410     0.3950 H     1 <1>   0.0800 
 42 H       -9.7460    -6.9420    -1.2390 H     1 <1>   0.0800 
@<TRIPOS>BOND
  1   1   2  2   
  2   2   3  am  
  3   2   4  1   
  4   3   5  1   
  5   3  22  1   
  6   4   6  1   
  7   4  23  1   
  8   4  24  1   
  9   5   7  1   
 10   5   8  1   
 11   5  25  1   
 12   6   9  1   
 13   6  26  1   
 14   6  27  1   
 15   7  10  1   
 16   7  11  2   
 17   8  28  1   
 18   8  29  1   
 19   8  30  1   
 20   9  12  1   
 21   9  31  1   
 22   9  32  1   
 23  10  13  1   
 24  11  14  1   
 25  12  33  1   
 26  12  34  1   
 27  12  35  1   
 28  13  14  2   
 29  14  15  1   
 30  15  16  ar  
 31  15  17  ar  
 32  16  18  ar  
 33  16  36  1   
 34  17  19  ar  
 35  17  37  1   
 36  18  20  ar  
 37  18  21  1   
 38  19  20  ar  
 39  19  38  1   
 40  20  39  1   
 41  21  40  1   
 42  21  41  1   
 43  21  42  1   
@<TRIPOS>SUBSTRUCTURE
  1 ****   7 GROUP 4 **** **** 0

# MOE 2024.06 (io_trps.svl 2023.06)
