@<TRIPOS>MOLECULE
2-Benzenesulfonyl-N-{4-[(tetrahydro-furan-2-ylmethyl)-sulfamoyl]-phenyl}-acetami
51 53 1 0 0 
SMALL
USER_CHARGES


@<TRIPOS>ATOM
  1 S       -1.7470     1.0530     0.8050 S.o2  1 <1>   1.4470 
  2 O       -2.0150     1.2590     2.2100 O.2   1 <1>  -0.6500 
  3 O       -1.9320     2.1290    -0.1400 O.2   1 <1>  -0.6500 
  4 N       -0.1180     0.6890     0.6570 N.am  1 <1>  -0.9140 
  5 C       -2.5620    -0.4590     0.2200 C.ar  1 <1>  -0.0090 
  6 C        0.7280     1.5260     1.5110 C.3   1 <1>   0.1960 
  7 C       -3.5500    -0.4240    -0.7580 C.ar  1 <1>  -0.1500 
  8 C       -2.2210    -1.7030     0.7400 C.ar  1 <1>  -0.1500 
  9 C        2.2170     1.2500     1.2580 C.3   1 <1>   0.2000 
 10 C       -4.1660    -1.5810    -1.2010 C.ar  1 <1>  -0.1500 
 11 C       -2.8330    -2.8630     0.2980 C.ar  1 <1>  -0.1500 
 12 O        2.9850     2.1370     2.0000 O.3   1 <1>  -0.5600 
 13 C        2.6790     1.4770    -0.1770 C.3   1 <1>  -0.1600 
 14 C       -3.8190    -2.8210    -0.6810 C.ar  1 <1>   0.1170 
 15 C        4.2630     2.2420     1.4600 C.3   1 <1>   0.1200 
 16 C        4.1460     1.8370    -0.0080 C.3   1 <1>  -0.1600 
 17 N       -4.4660    -3.9630    -1.1750 N.am  1 <1>  -0.5470 
 18 C       -4.6220    -5.2140    -0.6350 C.2   1 <1>   0.5690 
 19 O       -4.2090    -5.5250     0.4520 O.2   1 <1>  -0.5700 
 20 C       -5.3390    -6.2730    -1.4180 C.3   1 <1>   0.0060 
 21 S       -7.0000    -5.7480    -1.7500 S.o2  1 <1>   1.2040 
 22 O       -6.8990    -4.4960    -2.4730 O.2   1 <1>  -0.6500 
 23 O       -7.6720    -6.8630    -2.3770 O.2   1 <1>  -0.6500 
 24 C       -7.6960    -5.4640    -0.1020 C.ar  1 <1>  -0.0090 
 25 C       -7.5720    -4.2330     0.5320 C.ar  1 <1>  -0.1500 
 26 C       -8.3460    -6.4850     0.5820 C.ar  1 <1>  -0.1500 
 27 C       -8.0730    -4.0270     1.8050 C.ar  1 <1>  -0.1500 
 28 C       -8.8530    -6.2870     1.8550 C.ar  1 <1>  -0.1500 
 29 C       -8.7150    -5.0560     2.4690 C.ar  1 <1>  -0.1500 
 30 H        0.0860     0.9540    -0.3050 H     1 <1>   0.4200 
 31 H        0.5110     1.3200     2.5460 H     1 <1>   0.0800 
 32 H        0.5230     2.5660     1.3160 H     1 <1>   0.0800 
 33 H       -3.8400     0.5250    -1.1790 H     1 <1>   0.1500 
 34 H       -1.4630    -1.7620     1.5040 H     1 <1>   0.1500 
 35 H        2.4700     0.2550     1.5850 H     1 <1>   0.0800 
 36 H       -4.9270    -1.5170    -1.9590 H     1 <1>   0.1500 
 37 H       -2.5310    -3.8030     0.7240 H     1 <1>   0.1500 
 38 H        2.1440     2.3060    -0.6060 H     1 <1>   0.0800 
 39 H        2.5360     0.6020    -0.7860 H     1 <1>   0.0800 
 40 H        4.9140     1.5760     2.0000 H     1 <1>   0.0800 
 41 H        4.5980     3.2590     1.5750 H     1 <1>   0.0800 
 42 H        4.4360     2.6430    -0.6600 H     1 <1>   0.0800 
 43 H        4.7780     0.9870    -0.1980 H     1 <1>   0.0800 
 44 H       -5.0240    -3.7900    -2.0220 H     1 <1>   0.3700 
 45 H       -5.3460    -7.1830    -0.8510 H     1 <1>   0.0800 
 46 H       -4.8140    -6.4480    -2.3350 H     1 <1>   0.0800 
 47 H       -7.0770    -3.4180     0.0310 H     1 <1>   0.1500 
 48 H       -8.4630    -7.4490     0.1150 H     1 <1>   0.1500 
 49 H       -7.9620    -3.0660     2.2800 H     1 <1>   0.1500 
 50 H       -9.3540    -7.0900     2.3680 H     1 <1>   0.1500 
 51 H       -9.1060    -4.8980     3.4600 H     1 <1>   0.1500 
@<TRIPOS>BOND
  1   1   2  2   
  2   1   3  2   
  3   1   4  am  
  4   1   5  1   
  5   4   6  1   
  6   4  30  1   
  7   5   7  ar  
  8   5   8  ar  
  9   6   9  1   
 10   6  31  1   
 11   6  32  1   
 12   7  10  ar  
 13   7  33  1   
 14   8  11  ar  
 15   8  34  1   
 16   9  12  1   
 17   9  13  1   
 18   9  35  1   
 19  10  14  ar  
 20  10  36  1   
 21  11  14  ar  
 22  11  37  1   
 23  12  15  1   
 24  13  16  1   
 25  13  38  1   
 26  13  39  1   
 27  14  17  1   
 28  15  16  1   
 29  15  40  1   
 30  15  41  1   
 31  16  42  1   
 32  16  43  1   
 33  17  18  am  
 34  17  44  1   
 35  18  19  2   
 36  18  20  1   
 37  20  21  1   
 38  20  45  1   
 39  20  46  1   
 40  21  22  2   
 41  21  23  2   
 42  21  24  1   
 43  24  25  ar  
 44  24  26  ar  
 45  25  27  ar  
 46  25  47  1   
 47  26  28  ar  
 48  26  48  1   
 49  27  29  ar  
 50  27  49  1   
 51  28  29  ar  
 52  28  50  1   
 53  29  51  1   
@<TRIPOS>SUBSTRUCTURE
  1 ****  11 GROUP 4 **** **** 0

# MOE 2024.06 (io_trps.svl 2023.06)
