@<TRIPOS>MOLECULE
N-tert-Butyl-6-(6-ethoxy-pyridazin-3-yloxy)-N',N'-dimethyl-[1,3,5]triazine-2,4-d
47 48 1 0 0 
SMALL
USER_CHARGES


@<TRIPOS>ATOM
  1 O        0.0060    -0.2070    -0.8500 O.3   1 <1>  -0.1650 
  2 C        0.6540    -1.3390    -0.5330 C.ar  1 <1>   0.7020 
  3 C       -1.3110    -0.0260    -0.6230 C.ar  1 <1>   0.3920 
  4 N        1.9430    -1.2110    -0.4030 N.ar  1 <1>  -0.6200 
  5 N       -0.0390    -2.4380    -0.3760 N.ar  1 <1>  -0.6200 
  6 N       -2.0150     0.4670    -1.6400 N.ar  1 <1>  -0.3100 
  7 C       -1.8680    -0.3110     0.6110 C.ar  1 <1>  -0.1500 
  8 C        2.5620    -2.3210    -0.0820 C.ar  1 <1>   0.7200 
  9 C        0.6900    -3.4710    -0.0660 C.ar  1 <1>   0.7200 
 10 N       -3.3040     0.6800    -1.4960 N.ar  1 <1>  -0.3100 
 11 C       -3.2170    -0.0870     0.7620 C.ar  1 <1>  -0.1500 
 12 N        1.9810    -3.4780     0.1030 N.ar  1 <1>  -0.6200 
 13 N        3.9310    -2.2620     0.0750 N.pl3 1 <1>  -0.8380 
 14 N       -0.0240    -4.6080     0.0930 N.pl3 1 <1>  -0.8690 
 15 C       -3.9020     0.4120    -0.3350 C.ar  1 <1>   0.3930 
 16 C        4.7690    -3.4870     0.2150 C.3   1 <1>   0.1290 
 17 C        4.6790    -0.9720     0.1130 C.3   1 <1>   0.1290 
 18 C        0.4050    -6.0050     0.0640 C.3   1 <1>   0.3690 
 19 O       -5.2310     0.6650    -0.3090 O.3   1 <1>  -0.3620 
 20 C        1.2200    -6.3260     1.3170 C.3   1 <1>  -0.2400 
 21 C        1.1920    -6.2920    -1.2150 C.3   1 <1>  -0.2400 
 22 C       -0.8760    -6.8360     0.0670 C.3   1 <1>  -0.2400 
 23 C       -6.0290     0.4130     0.8230 C.3   1 <1>   0.1200 
 24 C       -7.4640     0.8000     0.4810 C.3   1 <1>  -0.2400 
 25 H       -1.2700    -0.6930     1.4180 H     1 <1>   0.1500 
 26 H       -3.6940    -0.2990     1.6980 H     1 <1>   0.1500 
 27 H       -1.0020    -4.4830    -0.1520 H     1 <1>   0.4000 
 28 H        4.3140    -4.3190    -0.2950 H     1 <1>   0.0800 
 29 H        4.8760    -3.7320     1.2570 H     1 <1>   0.0800 
 30 H        5.7420    -3.3220    -0.2130 H     1 <1>   0.0800 
 31 H        4.0540    -0.1790     0.4870 H     1 <1>   0.0800 
 32 H        5.0090    -0.7180    -0.8790 H     1 <1>   0.0800 
 33 H        5.5340    -1.0590     0.7610 H     1 <1>   0.0800 
 34 H        2.1500    -5.7900     1.3160 H     1 <1>   0.0800 
 35 H        1.4430    -7.3760     1.3540 H     1 <1>   0.0800 
 36 H        0.6660    -6.0610     2.1990 H     1 <1>   0.0800 
 37 H        2.1240    -5.7600    -1.2180 H     1 <1>   0.0800 
 38 H        0.6210    -6.0020    -2.0790 H     1 <1>   0.0800 
 39 H        1.4110    -7.3410    -1.2850 H     1 <1>   0.0800 
 40 H       -1.4540    -6.6310     0.9510 H     1 <1>   0.0800 
 41 H       -0.6360    -7.8840     0.0580 H     1 <1>   0.0800 
 42 H       -1.4690    -6.6200    -0.8030 H     1 <1>   0.0800 
 43 H       -5.6620     1.0090     1.6410 H     1 <1>   0.0800 
 44 H       -5.9660    -0.6350     1.0620 H     1 <1>   0.0800 
 45 H       -7.5160     1.8440     0.2280 H     1 <1>   0.0800 
 46 H       -8.1030     0.6200     1.3270 H     1 <1>   0.0800 
 47 H       -7.8190     0.2130    -0.3470 H     1 <1>   0.0800 
@<TRIPOS>BOND
  1   1   2  1   
  2   1   3  1   
  3   2   4  ar  
  4   2   5  ar  
  5   3   6  ar  
  6   3   7  ar  
  7   4   8  ar  
  8   5   9  ar  
  9   6  10  ar  
 10   7  11  ar  
 11   7  25  1   
 12   8  12  ar  
 13   8  13  1   
 14   9  12  ar  
 15   9  14  1   
 16  10  15  ar  
 17  11  15  ar  
 18  11  26  1   
 19  13  16  1   
 20  13  17  1   
 21  14  18  1   
 22  14  27  1   
 23  15  19  1   
 24  16  28  1   
 25  16  29  1   
 26  16  30  1   
 27  17  31  1   
 28  17  32  1   
 29  17  33  1   
 30  18  20  1   
 31  18  21  1   
 32  18  22  1   
 33  19  23  1   
 34  20  34  1   
 35  20  35  1   
 36  20  36  1   
 37  21  37  1   
 38  21  38  1   
 39  21  39  1   
 40  22  40  1   
 41  22  41  1   
 42  22  42  1   
 43  23  24  1   
 44  23  43  1   
 45  23  44  1   
 46  24  45  1   
 47  24  46  1   
 48  24  47  1   
@<TRIPOS>SUBSTRUCTURE
  1 ****   5 GROUP 4 **** **** 0

# MOE 2024.06 (io_trps.svl 2023.06)
