@<TRIPOS>MOLECULE
2-(2-Chloro-phenoxy)-N-[2-(4-isobutyryl-piperazin-1-yl)-phenyl]-acetamide
55 57 1 0 0 
SMALL
USER_CHARGES


@<TRIPOS>ATOM
  1 CL       4.4640    -5.4360    -0.9190 Cl    1 <1>  -0.1770 
  2 C        2.8370    -4.7990    -1.0260 C.ar  1 <1>   0.1770 
  3 C        2.5680    -3.4890    -0.6400 C.ar  1 <1>   0.0830 
  4 C        1.8400    -5.6320    -1.5000 C.ar  1 <1>  -0.1500 
  5 O        3.5980    -2.7270    -0.1860 O.3   1 <1>  -0.3630 
  6 C        1.2580    -3.0230    -0.7380 C.ar  1 <1>  -0.1500 
  7 C        0.5430    -5.1560    -1.5930 C.ar  1 <1>  -0.1500 
  8 C        3.4120    -1.3680     0.1930 C.3   1 <1>   0.1810 
  9 C        0.2560    -3.8550    -1.2120 C.ar  1 <1>  -0.1500 
 10 C        4.7210    -0.7230     0.6330 C.2   1 <1>   0.5690 
 11 O        4.6820     0.4150     1.0370 O.2   1 <1>  -0.5700 
 12 N        5.8650    -1.4580     0.5470 N.am  1 <1>  -0.5470 
 13 C        7.2170    -1.2250     0.8440 C.ar  1 <1>   0.1170 
 14 C        8.1010    -2.2880     0.6080 C.ar  1 <1>   0.1000 
 15 C        7.7060    -0.0270     1.3460 C.ar  1 <1>  -0.1500 
 16 N        7.6130    -3.5040     0.1020 N.pl3 1 <1>  -0.8380 
 17 C        9.4510    -2.1220     0.8800 C.ar  1 <1>  -0.1500 
 18 C        9.0560     0.1250     1.6140 C.ar  1 <1>  -0.1500 
 19 C        7.4910    -4.6650     1.0360 C.3   1 <1>   0.2090 
 20 C        7.8930    -3.8500    -1.3270 C.3   1 <1>   0.2090 
 21 C        9.9300    -0.9230     1.3810 C.ar  1 <1>  -0.1500 
 22 C        8.6040    -5.7110     0.8370 C.3   1 <1>   0.1400 
 23 C        9.0180    -4.8890    -1.4670 C.3   1 <1>   0.1400 
 24 N        8.7550    -6.0840    -0.6060 N.am  1 <1>  -0.6600 
 25 C        8.5050    -7.3160    -1.1660 C.2   1 <1>   0.5690 
 26 O        8.5360    -7.4670    -2.3660 O.2   1 <1>  -0.5700 
 27 C        8.1650    -8.5390    -0.2930 C.3   1 <1>  -0.0190 
 28 C        8.5570    -9.8750    -0.9520 C.3   1 <1>  -0.2400 
 29 C        6.6670    -8.5680     0.0570 C.3   1 <1>  -0.2400 
 30 H        2.0800    -6.6380    -1.7920 H     1 <1>   0.1500 
 31 H        0.9940    -2.0220    -0.4520 H     1 <1>   0.1500 
 32 H       -0.2410    -5.7960    -1.9610 H     1 <1>   0.1500 
 33 H        2.7120    -1.3340     1.0070 H     1 <1>   0.0800 
 34 H        3.0230    -0.8290    -0.6510 H     1 <1>   0.0800 
 35 H       -0.7540    -3.4900    -1.2860 H     1 <1>   0.1500 
 36 H        5.7470    -2.4140     0.1870 H     1 <1>   0.3700 
 37 H        7.0370     0.7930     1.5310 H     1 <1>   0.1500 
 38 H       10.1290    -2.9340     0.6990 H     1 <1>   0.1500 
 39 H        9.4230     1.0590     2.0030 H     1 <1>   0.1500 
 40 H        6.5370    -5.1350     0.8800 H     1 <1>   0.0800 
 41 H        7.5140    -4.3100     2.0520 H     1 <1>   0.0800 
 42 H        8.1620    -2.9580    -1.8660 H     1 <1>   0.0800 
 43 H        6.9970    -4.2450    -1.7740 H     1 <1>   0.0800 
 44 H       10.9790    -0.8050     1.5880 H     1 <1>   0.1500 
 45 H        8.3800    -6.5650     1.4450 H     1 <1>   0.0800 
 46 H        9.5330    -5.2980     1.1870 H     1 <1>   0.0800 
 47 H        9.9510    -4.4430    -1.1760 H     1 <1>   0.0800 
 48 H        9.1040    -5.1720    -2.5010 H     1 <1>   0.0800 
 49 H        8.7340    -8.4740     0.6140 H     1 <1>   0.0800 
 50 H        7.9970   -10.0260    -1.8580 H     1 <1>   0.0800 
 51 H        8.3670   -10.6970    -0.2860 H     1 <1>   0.0800 
 52 H        9.6040    -9.8680    -1.2000 H     1 <1>   0.0800 
 53 H        6.0810    -8.6570    -0.8420 H     1 <1>   0.0800 
 54 H        6.3750    -7.6620     0.5560 H     1 <1>   0.0800 
 55 H        6.4440    -9.4010     0.6990 H     1 <1>   0.0800 
@<TRIPOS>BOND
  1   1   2  1   
  2   2   3  ar  
  3   2   4  ar  
  4   3   5  1   
  5   3   6  ar  
  6   4   7  ar  
  7   4  30  1   
  8   5   8  1   
  9   6   9  ar  
 10   6  31  1   
 11   7   9  ar  
 12   7  32  1   
 13   8  10  1   
 14   8  33  1   
 15   8  34  1   
 16   9  35  1   
 17  10  11  2   
 18  10  12  am  
 19  12  13  1   
 20  12  36  1   
 21  13  14  ar  
 22  13  15  ar  
 23  14  16  1   
 24  14  17  ar  
 25  15  18  ar  
 26  15  37  1   
 27  16  19  1   
 28  16  20  1   
 29  17  21  ar  
 30  17  38  1   
 31  18  21  ar  
 32  18  39  1   
 33  19  22  1   
 34  19  40  1   
 35  19  41  1   
 36  20  23  1   
 37  20  42  1   
 38  20  43  1   
 39  21  44  1   
 40  22  24  1   
 41  22  45  1   
 42  22  46  1   
 43  23  24  1   
 44  23  47  1   
 45  23  48  1   
 46  24  25  am  
 47  25  26  2   
 48  25  27  1   
 49  27  28  1   
 50  27  29  1   
 51  27  49  1   
 52  28  50  1   
 53  28  51  1   
 54  28  52  1   
 55  29  53  1   
 56  29  54  1   
 57  29  55  1   
@<TRIPOS>SUBSTRUCTURE
  1 ****  16 GROUP 4 **** **** 0

# MOE 2024.06 (io_trps.svl 2023.06)
