@<TRIPOS>MOLECULE
5-Chloro-N-[5-(2-ethoxy-ethyl)-[1,3,4]thiadiazol-2-yl]-2-methoxy-benzamide
38 39 1 0 0 
SMALL
USER_CHARGES


@<TRIPOS>ATOM
  1 CL      -2.3410    -0.7110     2.8070 Cl    1 <1>  -0.1770 
  2 C       -1.7680    -1.7990     1.5680 C.ar  1 <1>   0.1770 
  3 C       -0.9680    -2.8660     1.9220 C.ar  1 <1>  -0.1500 
  4 C       -2.1280    -1.5700     0.2520 C.ar  1 <1>  -0.1500 
  5 C       -0.4970    -3.7460     0.9490 C.ar  1 <1>   0.0860 
  6 C       -1.6780    -2.4390    -0.7260 C.ar  1 <1>  -0.1500 
  7 C       -0.8810    -3.5210    -0.3790 C.ar  1 <1>   0.0830 
  8 C        0.3640    -4.8480     1.3040 C.2   1 <1>   0.5440 
  9 O       -0.4700    -4.3470    -1.3590 O.3   1 <1>  -0.3630 
 10 O       -0.0950    -5.8880     1.7240 O.2   1 <1>  -0.5700 
 11 N        1.7210    -4.7940     1.1920 N.am  1 <1>  -0.4940 
 12 C       -1.2340    -5.5130    -1.5710 C.3   1 <1>   0.0400 
 13 C        2.5360    -3.7320     0.8760 C.2   1 <1>   0.4420 
 14 S        4.2290    -4.0520     0.6950 S.3   1 <1>  -0.0800 
 15 N        2.2510    -2.4940     0.6970 N.2   1 <1>  -0.3380 
 16 C        4.4340    -2.3660     0.3640 C.2   1 <1>   0.1980 
 17 N        3.3390    -1.7210     0.4050 N.2   1 <1>  -0.3380 
 18 C        5.8390    -1.8750     0.0770 C.3   1 <1>   0.0200 
 19 C        5.8600    -0.3700    -0.1790 C.3   1 <1>   0.1200 
 20 O        7.1760     0.0070    -0.4220 O.3   1 <1>  -0.5600 
 21 C        7.3340     1.3620    -0.6720 C.3   1 <1>   0.1200 
 22 C        8.8160     1.6140    -0.9170 C.3   1 <1>  -0.2400 
 23 H       -0.7020    -3.0130     2.9530 H     1 <1>   0.1500 
 24 H       -2.7470    -0.7270     0.0040 H     1 <1>   0.1500 
 25 H       -1.9380    -2.2840    -1.7580 H     1 <1>   0.1500 
 26 H        2.1720    -5.6830     1.3890 H     1 <1>   0.3700 
 27 H       -0.7950    -6.0590    -2.3870 H     1 <1>   0.0800 
 28 H       -2.2420    -5.2290    -1.8160 H     1 <1>   0.0800 
 29 H       -1.2210    -6.1130    -0.6780 H     1 <1>   0.0800 
 30 H        6.2180    -2.3860    -0.7890 H     1 <1>   0.0800 
 31 H        6.4660    -2.0980     0.9200 H     1 <1>   0.0800 
 32 H        5.4970     0.1650     0.6830 H     1 <1>   0.0800 
 33 H        5.2610    -0.1250    -1.0410 H     1 <1>   0.0800 
 34 H        6.9900     1.9180     0.1840 H     1 <1>   0.0800 
 35 H        6.7550     1.6270    -1.5410 H     1 <1>   0.0800 
 36 H        9.3860     1.3340    -0.0490 H     1 <1>   0.0800 
 37 H        8.9810     2.6570    -1.1160 H     1 <1>   0.0800 
 38 H        9.1510     1.0440    -1.7650 H     1 <1>   0.0800 
@<TRIPOS>BOND
  1   1   2  1   
  2   2   3  ar  
  3   2   4  ar  
  4   3   5  ar  
  5   3  23  1   
  6   4   6  ar  
  7   4  24  1   
  8   5   7  ar  
  9   5   8  1   
 10   6   7  ar  
 11   6  25  1   
 12   7   9  1   
 13   8  10  2   
 14   8  11  am  
 15   9  12  1   
 16  11  13  1   
 17  11  26  1   
 18  12  27  1   
 19  12  28  1   
 20  12  29  1   
 21  13  14  1   
 22  13  15  2   
 23  14  16  1   
 24  15  17  1   
 25  16  17  2   
 26  16  18  1   
 27  18  19  1   
 28  18  30  1   
 29  18  31  1   
 30  19  20  1   
 31  19  32  1   
 32  19  33  1   
 33  20  21  1   
 34  21  22  1   
 35  21  34  1   
 36  21  35  1   
 37  22  36  1   
 38  22  37  1   
 39  22  38  1   
@<TRIPOS>SUBSTRUCTURE
  1 ****  15 GROUP 4 **** **** 0

# MOE 2024.06 (io_trps.svl 2023.06)
