@<TRIPOS>MOLECULE
8-(3-Methoxy-propylamino)-3-methyl-7-(2-oxo-2-phenyl-ethyl)-3,7-dihydro-purine-2
49 51 1 0 0 
SMALL
USER_CHARGES


@<TRIPOS>ATOM
  1 O        1.1550     0.5070    -1.7880 O.2   1 <1>  -0.5750 
  2 C        2.1830     1.1210    -1.6240 C.2   1 <1>   0.6860 
  3 N        3.2690     0.5840    -0.9480 N.am  1 <1>  -0.4420 
  4 N        2.2680     2.3880    -2.1240 N.am  1 <1>  -0.4950 
  5 C        4.3930     1.3830    -0.7990 C.2   1 <1>   0.4200 
  6 C        3.2310    -0.8040    -0.4020 C.3   1 <1>   0.0520 
  7 C        3.3700     3.1830    -1.9920 C.2   1 <1>   0.6990 
  8 N        5.5550     1.0760    -0.1650 N.pl3 1 <1>  -0.7040 
  9 C        4.4960     2.6400    -1.2900 C.2   1 <1>   0.2700 
 10 O        3.3530     4.3050    -2.4560 O.2   1 <1>  -0.5750 
 11 C        6.3740     2.1190    -0.2590 C.cat 1 <1>   1.0690 
 12 N        5.7810     3.1020    -0.9440 N.pl3 1 <1>  -0.7680 
 13 N        7.5980     2.1500     0.2560 N.pl3 1 <1>  -0.7180 
 14 C        6.3680     4.4160    -1.3870 C.3   1 <1>   0.4090 
 15 C        8.3140     1.0920     1.0020 C.3   1 <1>   0.1600 
 16 C        6.9420     5.2320    -0.2280 C.2   1 <1>   0.4170 
 17 C        8.7020    -0.0340     0.0450 C.3   1 <1>  -0.1680 
 18 O        8.0130     4.8620     0.1920 O.2   1 <1>  -0.5750 
 19 C        6.2090     6.3520     0.3290 C.ar  1 <1>   0.0780 
 20 C        9.4050    -1.1700     0.7820 C.3   1 <1>   0.1120 
 21 C        4.8570     6.6000     0.0620 C.ar  1 <1>  -0.1580 
 22 C        6.8550     7.2410     1.1910 C.ar  1 <1>  -0.1580 
 23 O        9.4260    -2.2480    -0.0850 O.3   1 <1>  -0.5650 
 24 C        4.1960     7.6790     0.6200 C.ar  1 <1>  -0.1580 
 25 C        6.1990     8.3200     1.7520 C.ar  1 <1>  -0.1580 
 26 C       10.1160    -3.3530     0.4030 C.3   1 <1>   0.0320 
 27 C        4.8650     8.5420     1.4660 C.ar  1 <1>  -0.1580 
 28 H        1.4520     2.7520    -2.6140 H     1 <1>   0.3640 
 29 H        2.3380    -1.3170    -0.7200 H     1 <1>   0.0720 
 30 H        3.2400    -0.7740     0.6730 H     1 <1>   0.0720 
 31 H        4.0810    -1.3620    -0.7540 H     1 <1>   0.0720 
 32 H        5.8020     0.1990     0.2850 H     1 <1>   0.4440 
 33 H        8.0860     3.0620     0.2390 H     1 <1>   0.4440 
 34 H        5.6450     4.9970    -1.9270 H     1 <1>   0.0720 
 35 H        7.1710     4.2140    -2.0760 H     1 <1>   0.0720 
 36 H        7.6860     0.7140     1.7920 H     1 <1>   0.0720 
 37 H        9.2010     1.5120     1.4490 H     1 <1>   0.0720 
 38 H        9.3660     0.3440    -0.7130 H     1 <1>   0.0720 
 39 H        7.8250    -0.4370    -0.4270 H     1 <1>   0.0720 
 40 H        8.8640    -1.4610     1.6670 H     1 <1>   0.0720 
 41 H       10.4170    -0.9000     1.0370 H     1 <1>   0.0720 
 42 H        4.2830     5.9610    -0.5820 H     1 <1>   0.1420 
 43 H        7.8950     7.0900     1.4290 H     1 <1>   0.1420 
 44 H        3.1560     7.8540     0.3980 H     1 <1>   0.1420 
 45 H        6.7240     8.9890     2.4120 H     1 <1>   0.1420 
 46 H       10.0650    -4.1320    -0.3370 H     1 <1>   0.0720 
 47 H        9.6530    -3.6880     1.3160 H     1 <1>   0.0720 
 48 H       11.1430    -3.0830     0.5750 H     1 <1>   0.0720 
 49 H        4.3520     9.3820     1.9020 H     1 <1>   0.1420 
@<TRIPOS>BOND
  1   1   2  2   
  2   2   3  am  
  3   2   4  am  
  4   3   5  1   
  5   3   6  1   
  6   4   7  am  
  7   4  28  1   
  8   5   8  1   
  9   5   9  2   
 10   6  29  1   
 11   6  30  1   
 12   6  31  1   
 13   7   9  1   
 14   7  10  2   
 15   8  11  ar  
 16   8  32  1   
 17   9  12  1   
 18  11  12  ar  
 19  11  13  ar  
 20  12  14  1   
 21  13  15  1   
 22  13  33  1   
 23  14  16  1   
 24  14  34  1   
 25  14  35  1   
 26  15  17  1   
 27  15  36  1   
 28  15  37  1   
 29  16  18  2   
 30  16  19  1   
 31  17  20  1   
 32  17  38  1   
 33  17  39  1   
 34  19  21  ar  
 35  19  22  ar  
 36  20  23  1   
 37  20  40  1   
 38  20  41  1   
 39  21  24  ar  
 40  21  42  1   
 41  22  25  ar  
 42  22  43  1   
 43  23  26  1   
 44  24  27  ar  
 45  24  44  1   
 46  25  27  ar  
 47  25  45  1   
 48  26  46  1   
 49  26  47  1   
 50  26  48  1   
 51  27  49  1   
@<TRIPOS>SUBSTRUCTURE
  1 ****  12 GROUP 4 **** **** 0

# MOE 2024.06 (io_trps.svl 2023.06)
