@<TRIPOS>MOLECULE
2-[(2,5-Dimethyl-furan-3-carbonyl)-amino]-pentanedioic acid dimethyl ester
40 40 1 0 0 
SMALL
USER_CHARGES


@<TRIPOS>ATOM
  1 O        1.6840    -1.1360     2.0340 O.2   1 <1>  -0.5700 
  2 C        1.4690    -1.3920     0.8660 C.2   1 <1>   0.7160 
  3 N        1.9680    -0.5530    -0.0800 N.am  1 <1>  -0.7300 
  4 C        0.6810    -2.5390     0.4820 C.2   1 <1>  -0.0860 
  5 C        2.6890     0.7220     0.1890 C.3   1 <1>   0.2810 
  6 C        0.5910    -3.2370    -0.6880 C.2   1 <1>  -0.0400 
  7 C       -0.2290    -3.1950     1.3380 C.2   1 <1>  -0.1500 
  8 C        2.2130     1.8450    -0.7510 C.2   1 <1>   0.6590 
  9 C        4.1940     0.4380     0.0560 C.3   1 <1>  -0.1600 
 10 O       -0.2860    -4.2060    -0.5910 O.3   1 <1>  -0.2800 
 11 C        1.3120    -3.1030    -2.0160 C.3   1 <1>  -0.0600 
 12 C       -0.7830    -4.1930     0.6250 C.2   1 <1>  -0.0400 
 13 O        1.8010     1.6100    -1.8610 O.2   1 <1>  -0.5700 
 14 O        2.2810     3.0850    -0.2740 O.3   1 <1>  -0.4300 
 15 C        5.0790     1.6260     0.4890 C.3   1 <1>  -0.0990 
 16 C       -1.8190    -5.2280     0.9980 C.3   1 <1>  -0.0600 
 17 C        1.8630     4.1980    -1.0380 C.3   1 <1>   0.0400 
 18 C        6.5660     1.3200     0.4330 C.2   1 <1>   0.6590 
 19 O        7.0240     0.4890    -0.3080 O.2   1 <1>  -0.5700 
 20 O        7.3270     2.0390     1.2470 O.3   1 <1>  -0.4300 
 21 C        8.7290     1.8660     1.2960 C.3   1 <1>   0.0400 
 22 H        1.6300    -0.6460    -1.0400 H     1 <1>   0.3700 
 23 H        2.4810     1.0330     1.1980 H     1 <1>   0.0800 
 24 H       -0.4100    -2.9130     2.3610 H     1 <1>   0.1500 
 25 H        4.4190     0.1820    -0.9660 H     1 <1>   0.0800 
 26 H        4.4400    -0.4080     0.6740 H     1 <1>   0.0800 
 27 H        2.1320    -2.4140    -1.9550 H     1 <1>   0.0800 
 28 H        0.6230    -2.7700    -2.7710 H     1 <1>   0.0800 
 29 H        1.7010    -4.0630    -2.3060 H     1 <1>   0.0800 
 30 H        4.8340     1.9040     1.4980 H     1 <1>   0.0800 
 31 H        4.9040     2.4750    -0.1440 H     1 <1>   0.0800 
 32 H       -2.1290    -5.0940     2.0180 H     1 <1>   0.0800 
 33 H       -1.4040    -6.2130     0.8840 H     1 <1>   0.0800 
 34 H       -2.6750    -5.1330     0.3550 H     1 <1>   0.0800 
 35 H        0.8210     4.0810    -1.2830 H     1 <1>   0.0800 
 36 H        2.4520     4.2450    -1.9380 H     1 <1>   0.0800 
 37 H        2.0080     5.0880    -0.4520 H     1 <1>   0.0800 
 38 H        9.1320     2.5480     2.0220 H     1 <1>   0.0800 
 39 H        9.1390     2.0720     0.3230 H     1 <1>   0.0800 
 40 H        8.9440     0.8500     1.5810 H     1 <1>   0.0800 
@<TRIPOS>BOND
  1   1   2  2   
  2   2   3  am  
  3   2   4  1   
  4   3   5  1   
  5   3  22  1   
  6   4   6  2   
  7   4   7  1   
  8   5   8  1   
  9   5   9  1   
 10   5  23  1   
 11   6  10  1   
 12   6  11  1   
 13   7  12  2   
 14   7  24  1   
 15   8  13  2   
 16   8  14  1   
 17   9  15  1   
 18   9  25  1   
 19   9  26  1   
 20  10  12  1   
 21  11  27  1   
 22  11  28  1   
 23  11  29  1   
 24  12  16  1   
 25  14  17  1   
 26  15  18  1   
 27  15  30  1   
 28  15  31  1   
 29  16  32  1   
 30  16  33  1   
 31  16  34  1   
 32  17  35  1   
 33  17  36  1   
 34  17  37  1   
 35  18  19  2   
 36  18  20  1   
 37  20  21  1   
 38  21  38  1   
 39  21  39  1   
 40  21  40  1   
@<TRIPOS>SUBSTRUCTURE
  1 ****   3 GROUP 4 **** **** 0

# MOE 2024.06 (io_trps.svl 2023.06)
