@<TRIPOS>MOLECULE
Pentanoic acid {1-[3-(4-methoxy-phenyl)-[1,2,4]oxadiazol-5-yl]-ethyl}-amide
43 44 1 0 0 
SMALL
USER_CHARGES


@<TRIPOS>ATOM
  1 O       -3.0770     0.7390    -2.4360 O.2   1 <1>  -0.5700 
  2 C       -3.5220     0.4860    -1.3460 C.2   1 <1>   0.5690 
  3 N       -4.7990     0.0600    -1.2480 N.am  1 <1>  -0.7300 
  4 C       -2.6580     0.6500    -0.1010 C.3   1 <1>  -0.0990 
  5 C       -5.5660    -0.3300    -0.0470 C.3   1 <1>   0.4000 
  6 C       -1.1860     0.9890    -0.3930 C.3   1 <1>  -0.1600 
  7 C       -5.5770    -1.8530     0.1210 C.2   1 <1>   0.2980 
  8 C       -6.9660     0.2700    -0.1860 C.3   1 <1>  -0.2400 
  9 C       -0.3720     1.1200     0.9010 C.3   1 <1>  -0.1600 
 10 O       -4.4750    -2.4200     0.5360 O.3   1 <1>  -0.0190 
 11 N       -6.5460    -2.6490    -0.0940 N.2   1 <1>  -0.5650 
 12 C        1.0900     1.4570     0.5970 C.3   1 <1>  -0.2400 
 13 N       -4.7650    -3.6810     0.5900 N.2   1 <1>  -0.4100 
 14 C       -5.9860    -3.8240     0.2130 C.2   1 <1>   0.4620 
 15 C       -6.7040    -5.0850     0.1210 C.ar  1 <1>   0.0540 
 16 C       -8.0370    -5.1440    -0.2930 C.ar  1 <1>  -0.1500 
 17 C       -6.0860    -6.2950     0.4440 C.ar  1 <1>  -0.1500 
 18 C       -8.7150    -6.3460    -0.3790 C.ar  1 <1>  -0.1500 
 19 C       -6.7560    -7.5020     0.3600 C.ar  1 <1>  -0.1500 
 20 C       -8.0840    -7.5340    -0.0540 C.ar  1 <1>   0.0820 
 21 O       -8.8160    -8.6690    -0.1650 O.3   1 <1>  -0.3620 
 22 C       -8.2660    -9.9310     0.1420 C.3   1 <1>   0.0400 
 23 H       -5.2810    -0.0880    -2.1360 H     1 <1>   0.3700 
 24 H       -2.6920    -0.2670     0.4580 H     1 <1>   0.0800 
 25 H       -3.0830     1.4320     0.5010 H     1 <1>   0.0800 
 26 H       -5.1060     0.0950     0.8280 H     1 <1>   0.0800 
 27 H       -1.1380     1.9130    -0.9450 H     1 <1>   0.0800 
 28 H       -0.7610     0.2160    -1.0100 H     1 <1>   0.0800 
 29 H       -7.4640    -0.1320    -1.0510 H     1 <1>   0.0800 
 30 H       -6.9070     1.3400    -0.2710 H     1 <1>   0.0800 
 31 H       -7.5510     0.0280     0.6830 H     1 <1>   0.0800 
 32 H       -0.4140     0.1950     1.4510 H     1 <1>   0.0800 
 33 H       -0.7920     1.8970     1.5180 H     1 <1>   0.0800 
 34 H        1.5370     0.6830    -0.0020 H     1 <1>   0.0800 
 35 H        1.6460     1.5440     1.5130 H     1 <1>   0.0800 
 36 H        1.1580     2.3890     0.0640 H     1 <1>   0.0800 
 37 H       -8.5520    -4.2360    -0.5520 H     1 <1>   0.1500 
 38 H       -5.0590    -6.2910     0.7660 H     1 <1>   0.1500 
 39 H       -9.7410    -6.3720    -0.7000 H     1 <1>   0.1500 
 40 H       -6.2330    -8.4020     0.6200 H     1 <1>   0.1500 
 41 H       -9.0270   -10.6730    -0.0190 H     1 <1>   0.0800 
 42 H       -7.9610    -9.9370     1.1730 H     1 <1>   0.0800 
 43 H       -7.4310   -10.1160    -0.5100 H     1 <1>   0.0800 
@<TRIPOS>BOND
  1   1   2  2   
  2   2   3  am  
  3   2   4  1   
  4   3   5  1   
  5   3  23  1   
  6   4   6  1   
  7   4  24  1   
  8   4  25  1   
  9   5   7  1   
 10   5   8  1   
 11   5  26  1   
 12   6   9  1   
 13   6  27  1   
 14   6  28  1   
 15   7  10  1   
 16   7  11  2   
 17   8  29  1   
 18   8  30  1   
 19   8  31  1   
 20   9  12  1   
 21   9  32  1   
 22   9  33  1   
 23  10  13  1   
 24  11  14  1   
 25  12  34  1   
 26  12  35  1   
 27  12  36  1   
 28  13  14  2   
 29  14  15  1   
 30  15  16  ar  
 31  15  17  ar  
 32  16  18  ar  
 33  16  37  1   
 34  17  19  ar  
 35  17  38  1   
 36  18  20  ar  
 37  18  39  1   
 38  19  20  ar  
 39  19  40  1   
 40  20  21  1   
 41  21  22  1   
 42  22  41  1   
 43  22  42  1   
 44  22  43  1   
@<TRIPOS>SUBSTRUCTURE
  1 ****  13 GROUP 4 **** **** 0

# MOE 2024.06 (io_trps.svl 2023.06)
