@<TRIPOS>MOLECULE
4-(3-Ethoxy-4-hydroxy-phenyl)-1-methyl-1,4-dihydro-pyridine-3,5-dicarboxylic aci
46 47 1 0 0 
SMALL
USER_CHARGES


@<TRIPOS>ATOM
  1 O       -0.8920    -0.7840     2.3030 O.2   1 <1>  -0.5700 
  2 C       -0.6800    -1.5400     1.3730 C.2   1 <1>   0.7060 
  3 O        0.5700    -1.9840     1.1860 O.3   1 <1>  -0.4300 
  4 C       -1.6900    -2.0070     0.4790 C.2   1 <1>  -0.1240 
  5 C        1.6350    -1.5640     2.0170 C.3   1 <1>   0.0400 
  6 C       -1.5340    -3.0210    -0.4090 C.2   1 <1>  -0.0500 
  7 C       -3.0290    -1.2690     0.5570 C.3   1 <1>   0.3400 
  8 N       -2.5540    -3.4720    -1.2250 N.pl3 1 <1>  -0.5690 
  9 C       -4.1470    -1.9730    -0.2170 C.2   1 <1>  -0.1240 
 10 C       -2.8530     0.1390    -0.0190 C.ar  1 <1>  -0.1440 
 11 C       -3.8380    -2.9890    -1.0610 C.2   1 <1>  -0.0500 
 12 C       -2.2960    -4.5700    -2.1890 C.3   1 <1>   0.1290 
 13 C       -5.4640    -1.4710     0.0140 C.2   1 <1>   0.7060 
 14 C       -3.1040     1.2560     0.7650 C.ar  1 <1>  -0.1500 
 15 C       -2.4490     0.3150    -1.3370 C.ar  1 <1>  -0.1500 
 16 O       -5.7490    -0.6840     0.8970 O.2   1 <1>  -0.5700 
 17 O       -6.4450    -1.9150    -0.7830 O.3   1 <1>  -0.4300 
 18 C       -2.9730     2.5310     0.2420 C.ar  1 <1>   0.0830 
 19 C       -2.2980     1.5860    -1.8660 C.ar  1 <1>  -0.1500 
 20 C       -7.7790    -1.4710    -0.6330 C.3   1 <1>   0.0400 
 21 O       -3.2470     3.5810     1.0550 O.3   1 <1>  -0.3630 
 22 C       -2.5570     2.6980    -1.0810 C.ar  1 <1>   0.0830 
 23 C       -4.4170     4.3190     0.7800 C.3   1 <1>   0.1200 
 24 O       -2.3920     3.9250    -1.6210 O.3   1 <1>  -0.5320 
 25 C       -5.6260     3.5810     1.3580 C.3   1 <1>  -0.2400 
 26 H        2.5390    -2.0360     1.6770 H     1 <1>   0.0800 
 27 H        1.4210    -1.8550     3.0310 H     1 <1>   0.0800 
 28 H        1.7260    -0.4940     1.9490 H     1 <1>   0.0800 
 29 H       -0.5880    -3.5310    -0.5000 H     1 <1>   0.1500 
 30 H       -3.3220    -1.2110     1.5920 H     1 <1>   0.0800 
 31 H       -4.6080    -3.4770    -1.6390 H     1 <1>   0.1500 
 32 H       -2.4470    -5.5180    -1.7030 H     1 <1>   0.0800 
 33 H       -1.2840    -4.5130    -2.5490 H     1 <1>   0.0800 
 34 H       -2.9660    -4.4890    -3.0270 H     1 <1>   0.0800 
 35 H       -3.4130     1.1500     1.7890 H     1 <1>   0.1500 
 36 H       -2.2500    -0.5440    -1.9560 H     1 <1>   0.1500 
 37 H       -1.9800     1.7000    -2.8850 H     1 <1>   0.1500 
 38 H       -8.3850    -1.9520    -1.3790 H     1 <1>   0.0800 
 39 H       -7.8060    -0.4030    -0.7640 H     1 <1>   0.0800 
 40 H       -8.1240    -1.7330     0.3530 H     1 <1>   0.0800 
 41 H       -4.5120     4.4520    -0.2830 H     1 <1>   0.0800 
 42 H       -4.3050     5.2810     1.2470 H     1 <1>   0.0800 
 43 H       -2.0200     3.8930    -2.5180 H     1 <1>   0.4500 
 44 H       -5.7510     2.6290     0.8720 H     1 <1>   0.0800 
 45 H       -6.5150     4.1630     1.2000 H     1 <1>   0.0800 
 46 H       -5.4950     3.4290     2.4140 H     1 <1>   0.0800 
@<TRIPOS>BOND
  1   1   2  2   
  2   2   3  1   
  3   2   4  1   
  4   3   5  1   
  5   4   6  2   
  6   4   7  1   
  7   5  26  1   
  8   5  27  1   
  9   5  28  1   
 10   6   8  1   
 11   6  29  1   
 12   7   9  1   
 13   7  10  1   
 14   7  30  1   
 15   8  11  1   
 16   8  12  1   
 17   9  11  2   
 18   9  13  1   
 19  10  14  ar  
 20  10  15  ar  
 21  11  31  1   
 22  12  32  1   
 23  12  33  1   
 24  12  34  1   
 25  13  16  2   
 26  13  17  1   
 27  14  18  ar  
 28  14  35  1   
 29  15  19  ar  
 30  15  36  1   
 31  17  20  1   
 32  18  21  1   
 33  18  22  ar  
 34  19  22  ar  
 35  19  37  1   
 36  20  38  1   
 37  20  39  1   
 38  20  40  1   
 39  21  23  1   
 40  22  24  1   
 41  23  25  1   
 42  23  41  1   
 43  23  42  1   
 44  24  43  1   
 45  25  44  1   
 46  25  45  1   
 47  25  46  1   
@<TRIPOS>SUBSTRUCTURE
  1 ****  10 GROUP 4 **** **** 0

# MOE 2024.06 (io_trps.svl 2023.06)
