@<TRIPOS>MOLECULE
Thiophene-2-carboxylic acid [3-(2-ethyl-butyrylamino)-phenyl]-amide
42 43 1 0 0 
SMALL
USER_CHARGES


@<TRIPOS>ATOM
  1 S        0.1830     0.4980    -1.3290 S.3   1 <1>  -0.0800 
  2 C        1.4540     1.4910    -0.6030 C.2   1 <1>  -0.0450 
  3 C       -1.0390     1.7160    -1.0450 C.2   1 <1>  -0.1100 
  4 C        2.7980     0.9720    -0.5490 C.2   1 <1>   0.7150 
  5 C        0.8980     2.6630    -0.1900 C.2   1 <1>  -0.1500 
  6 C       -0.5000     2.7890    -0.4400 C.2   1 <1>  -0.1500 
  7 O        3.0520    -0.1710    -0.8730 O.2   1 <1>  -0.5700 
  8 N        3.8060     1.8090    -0.1350 N.am  1 <1>  -0.5470 
  9 C        5.1640     1.5550     0.1120 C.ar  1 <1>   0.1170 
 10 C        6.0850     2.5790    -0.0670 C.ar  1 <1>  -0.1500 
 11 C        5.6230     0.3190     0.5560 C.ar  1 <1>  -0.1500 
 12 C        7.4390     2.3950     0.1830 C.ar  1 <1>   0.1170 
 13 C        6.9670     0.1170     0.8090 C.ar  1 <1>  -0.1500 
 14 N        8.3240     3.4630    -0.0380 N.am  1 <1>  -0.5470 
 15 C        7.8690     1.1480     0.6230 C.ar  1 <1>  -0.1500 
 16 C        9.5300     3.7470     0.5440 C.2   1 <1>   0.5690 
 17 O       10.0020     3.0890     1.4400 O.2   1 <1>  -0.5700 
 18 C       10.3010     4.9670     0.0300 C.3   1 <1>  -0.0190 
 19 C       11.6200     4.4920    -0.6240 C.3   1 <1>  -0.1600 
 20 C       10.5130     5.9900     1.1730 C.3   1 <1>  -0.1600 
 21 C       12.4360     5.5960    -1.3080 C.3   1 <1>  -0.2400 
 22 C       10.4220     7.4550     0.7190 C.3   1 <1>  -0.2400 
 23 H       -2.0430     1.4970    -1.3630 H     1 <1>   0.1500 
 24 H        1.4260     3.4630     0.2970 H     1 <1>   0.1500 
 25 H       -1.0410     3.6750    -0.1550 H     1 <1>   0.1500 
 26 H        3.5220     2.7780    -0.0390 H     1 <1>   0.3700 
 27 H        5.7430     3.5360    -0.4080 H     1 <1>   0.1500 
 28 H        4.9320    -0.4900     0.7070 H     1 <1>   0.1500 
 29 H        7.3120    -0.8430     1.1510 H     1 <1>   0.1500 
 30 H        8.0100     4.1410    -0.7270 H     1 <1>   0.3700 
 31 H        8.9120     0.9770     0.8210 H     1 <1>   0.1500 
 32 H        9.7010     5.4310    -0.7320 H     1 <1>   0.0800 
 33 H       11.3820     3.7450    -1.3630 H     1 <1>   0.0800 
 34 H       12.2340     4.0130     0.1200 H     1 <1>   0.0800 
 35 H       11.4590     5.8090     1.6540 H     1 <1>   0.0800 
 36 H        9.7530     5.8400     1.9230 H     1 <1>   0.0800 
 37 H       11.8250     6.1520    -1.9970 H     1 <1>   0.0800 
 38 H       13.2530     5.1570    -1.8540 H     1 <1>   0.0800 
 39 H       12.8510     6.2670    -0.5780 H     1 <1>   0.0800 
 40 H       11.1700     7.6910    -0.0140 H     1 <1>   0.0800 
 41 H       10.5650     8.1050     1.5640 H     1 <1>   0.0800 
 42 H        9.4530     7.6590     0.2980 H     1 <1>   0.0800 
@<TRIPOS>BOND
  1   1   2  1   
  2   1   3  1   
  3   2   4  1   
  4   2   5  2   
  5   3   6  2   
  6   3  23  1   
  7   4   7  2   
  8   4   8  am  
  9   5   6  1   
 10   5  24  1   
 11   6  25  1   
 12   8   9  1   
 13   8  26  1   
 14   9  10  ar  
 15   9  11  ar  
 16  10  12  ar  
 17  10  27  1   
 18  11  13  ar  
 19  11  28  1   
 20  12  14  1   
 21  12  15  ar  
 22  13  15  ar  
 23  13  29  1   
 24  14  16  am  
 25  14  30  1   
 26  15  31  1   
 27  16  17  2   
 28  16  18  1   
 29  18  19  1   
 30  18  20  1   
 31  18  32  1   
 32  19  21  1   
 33  19  33  1   
 34  19  34  1   
 35  20  22  1   
 36  20  35  1   
 37  20  36  1   
 38  21  37  1   
 39  21  38  1   
 40  21  39  1   
 41  22  40  1   
 42  22  41  1   
 43  22  42  1   
@<TRIPOS>SUBSTRUCTURE
  1 ****  10 GROUP 4 **** **** 0

# MOE 2024.06 (io_trps.svl 2023.06)
