@<TRIPOS>MOLECULE
8-(4-Benzyl-piperidin-1-yl)-7-(2-methoxy-ethyl)-3-methyl-3,7-dihydro-purine-2,6-
57 60 1 0 0 
SMALL
USER_CHARGES


@<TRIPOS>ATOM
  1 O        1.6340     0.3030     2.3210 O.2   1 <1>  -0.5740 
  2 C        2.4060     0.8670     1.5810 C.2   1 <1>   0.6870 
  3 N        3.6520     0.3420     1.2700 N.am  1 <1>  -0.4410 
  4 N        2.0300     2.0600     1.0370 N.am  1 <1>  -0.4940 
  5 C        4.4650     1.0780     0.4200 C.2   1 <1>   0.4210 
  6 C        4.1060    -0.9590     1.8430 C.3   1 <1>   0.0530 
  7 C        2.8160     2.7920     0.1940 C.2   1 <1>   0.7000 
  8 N        5.7200     0.7750     0.0010 N.pl3 1 <1>  -0.7030 
  9 C        4.1100     2.2620    -0.1240 C.2   1 <1>   0.2710 
 10 O        2.3900     3.8430    -0.2440 O.2   1 <1>  -0.5740 
 11 C        6.1700     1.7660    -0.7750 C.cat 1 <1>   1.0690 
 12 N        5.1990     2.6860    -0.9060 N.pl3 1 <1>  -0.7670 
 13 N        7.4180     1.7330    -1.3040 N.pl3 1 <1>  -0.5960 
 14 C        5.1820     4.0070    -1.6010 C.3   1 <1>   0.3490 
 15 C        8.2750     2.9260    -1.5680 C.3   1 <1>   0.1610 
 16 C        8.1850     0.4640    -1.4760 C.3   1 <1>   0.1610 
 17 C        5.4240     5.1640    -0.6110 C.3   1 <1>   0.1130 
 18 C        9.4460     2.9390    -0.5820 C.3   1 <1>  -0.1660 
 19 C        9.3400     0.4200    -0.4720 C.3   1 <1>  -0.1660 
 20 O        6.4190     4.8150     0.3080 O.3   1 <1>  -0.5640 
 21 C       10.2660     1.6360    -0.6380 C.3   1 <1>  -0.0870 
 22 C        6.7340     5.8290     1.2090 C.3   1 <1>   0.0330 
 23 C       11.3870     1.6180     0.4180 C.3   1 <1>  -0.0240 
 24 C       12.3470     2.7870     0.2440 C.ar  1 <1>  -0.1500 
 25 C       13.2660     2.7860    -0.7940 C.ar  1 <1>  -0.1560 
 26 C       12.3080     3.8650     1.1160 C.ar  1 <1>  -0.1560 
 27 C       14.1310     3.8520    -0.9640 C.ar  1 <1>  -0.1560 
 28 C       13.1740     4.9320     0.9480 C.ar  1 <1>  -0.1560 
 29 C       14.0840     4.9270    -0.0940 C.ar  1 <1>  -0.1560 
 30 H        1.1090     2.4180     1.2830 H     1 <1>   0.3650 
 31 H        3.2960    -1.4570     2.3500 H     1 <1>   0.0730 
 32 H        4.8970    -0.7880     2.5520 H     1 <1>   0.0730 
 33 H        4.4580    -1.6050     1.0580 H     1 <1>   0.0730 
 34 H        6.2920    -0.0070     0.2970 H     1 <1>   0.4450 
 35 H        4.2280     4.1530    -2.0790 H     1 <1>   0.0730 
 36 H        5.9190     4.0300    -2.3820 H     1 <1>   0.0730 
 37 H        7.7410     3.8440    -1.4540 H     1 <1>   0.0730 
 38 H        8.6500     2.8810    -2.5760 H     1 <1>   0.0730 
 39 H        8.5820     0.4290    -2.4780 H     1 <1>   0.0730 
 40 H        7.5520    -0.3980    -1.3530 H     1 <1>   0.0730 
 41 H        4.5210     5.3820    -0.0680 H     1 <1>   0.0730 
 42 H        5.7320     6.0480    -1.1440 H     1 <1>   0.0730 
 43 H        9.0670     3.0980     0.4130 H     1 <1>   0.0730 
 44 H       10.0790     3.7760    -0.8210 H     1 <1>   0.0730 
 45 H        9.9070    -0.4820    -0.6290 H     1 <1>   0.0730 
 46 H        8.9480     0.3890     0.5290 H     1 <1>   0.0730 
 47 H       10.7290     1.5770    -1.6100 H     1 <1>   0.0730 
 48 H        7.5010     5.4650     1.8720 H     1 <1>   0.0730 
 49 H        5.8580     6.0880     1.7770 H     1 <1>   0.0730 
 50 H        7.1020     6.6850     0.6700 H     1 <1>   0.0730 
 51 H       11.9460     0.7020     0.3350 H     1 <1>   0.0730 
 52 H       10.9610     1.6460     1.4050 H     1 <1>   0.0730 
 53 H       13.3110     1.9550    -1.4740 H     1 <1>   0.1440 
 54 H       11.6050     3.8810     1.9290 H     1 <1>   0.1440 
 55 H       14.8410     3.8460    -1.7720 H     1 <1>   0.1440 
 56 H       13.1390     5.7650     1.6270 H     1 <1>   0.1440 
 57 H       14.7560     5.7560    -0.2260 H     1 <1>   0.1440 
@<TRIPOS>BOND
  1   1   2  2   
  2   2   3  am  
  3   2   4  am  
  4   3   5  1   
  5   3   6  1   
  6   4   7  am  
  7   4  30  1   
  8   5   8  1   
  9   5   9  2   
 10   6  31  1   
 11   6  32  1   
 12   6  33  1   
 13   7   9  1   
 14   7  10  2   
 15   8  11  ar  
 16   8  34  1   
 17   9  12  1   
 18  11  12  ar  
 19  11  13  ar  
 20  12  14  1   
 21  13  15  1   
 22  13  16  1   
 23  14  17  1   
 24  14  35  1   
 25  14  36  1   
 26  15  18  1   
 27  15  37  1   
 28  15  38  1   
 29  16  19  1   
 30  16  39  1   
 31  16  40  1   
 32  17  20  1   
 33  17  41  1   
 34  17  42  1   
 35  18  21  1   
 36  18  43  1   
 37  18  44  1   
 38  19  21  1   
 39  19  45  1   
 40  19  46  1   
 41  20  22  1   
 42  21  23  1   
 43  21  47  1   
 44  22  48  1   
 45  22  49  1   
 46  22  50  1   
 47  23  24  1   
 48  23  51  1   
 49  23  52  1   
 50  24  25  ar  
 51  24  26  ar  
 52  25  27  ar  
 53  25  53  1   
 54  26  28  ar  
 55  26  54  1   
 56  27  29  ar  
 57  27  55  1   
 58  28  29  ar  
 59  28  56  1   
 60  29  57  1   
@<TRIPOS>SUBSTRUCTURE
  1 ****  13 GROUP 4 **** **** 0

# MOE 2024.06 (io_trps.svl 2023.06)
