@<TRIPOS>MOLECULE
1-Piperidin-1-yl-2-([1,2,4]triazolo[3,4-b][1,3,4]thiadiazol-6-ylsulfanyl)-ethano
31 33 1 0 0 
SMALL
USER_CHARGES


@<TRIPOS>ATOM
  1 S        0.2260     0.4050    -1.0030 S.3   1 <1>  -0.1970 
  2 C        1.0840    -0.1750     0.4350 C.2   1 <1>   0.7320 
  3 C        0.0610     1.9430    -0.1790 C.2   1 <1>   0.2430 
  4 S        1.6570    -1.8700     0.4090 S.3   1 <1>  -0.3710 
  5 N        1.2220     0.6510     1.3880 N.2   1 <1>  -0.6520 
  6 N       -0.4660     3.0830    -0.4510 N.2   1 <1>  -0.3380 
  7 N        0.6320     1.8610     1.0140 N.pl3 1 <1>   0.5050 
  8 C        1.2380    -2.5240    -1.2840 C.3   1 <1>   0.1310 
  9 N       -0.2330     3.8310     0.6450 N.2   1 <1>  -0.3380 
 10 C        0.4150     3.0910     1.4940 C.2   1 <1>   0.0360 
 11 C        1.8370    -3.9070    -1.5090 C.2   1 <1>   0.5690 
 12 O        2.6880    -3.9920    -2.3640 O.2   1 <1>  -0.5700 
 13 N        1.4140    -5.0060    -0.7990 N.am  1 <1>  -0.6600 
 14 C        0.3440    -4.9590     0.2460 C.3   1 <1>   0.1400 
 15 C        2.0760    -6.3290    -1.0240 C.3   1 <1>   0.1400 
 16 C       -0.3520    -6.3180     0.3700 C.3   1 <1>  -0.1600 
 17 C        2.0560    -7.1740     0.2540 C.3   1 <1>  -0.1600 
 18 C        0.6270    -7.4400     0.7570 C.3   1 <1>  -0.1600 
 19 H        1.6500    -1.8390    -2.0020 H     1 <1>   0.0800 
 20 H        0.1690    -2.5510    -1.3790 H     1 <1>   0.0800 
 21 H        0.7490     3.3950     2.4680 H     1 <1>   0.1500 
 22 H       -0.3890    -4.2130    -0.0030 H     1 <1>   0.0800 
 23 H        0.7900    -4.6960     1.1910 H     1 <1>   0.0800 
 24 H        3.0970    -6.1800    -1.3350 H     1 <1>   0.0800 
 25 H        1.5590    -6.8470    -1.8140 H     1 <1>   0.0800 
 26 H       -0.8100    -6.5490    -0.5760 H     1 <1>   0.0800 
 27 H       -1.1370    -6.2580     1.1030 H     1 <1>   0.0800 
 28 H        2.6150    -6.6490     1.0090 H     1 <1>   0.0800 
 29 H        2.5560    -8.1090     0.0760 H     1 <1>   0.0800 
 30 H        0.2650    -8.3680     0.3480 H     1 <1>   0.0800 
 31 H        0.6540    -7.5450     1.8280 H     1 <1>   0.0800 
@<TRIPOS>BOND
  1   1   2  1   
  2   1   3  1   
  3   2   4  1   
  4   2   5  2   
  5   3   6  2   
  6   3   7  1   
  7   4   8  1   
  8   5   7  1   
  9   6   9  1   
 10   7  10  1   
 11   8  11  1   
 12   8  19  1   
 13   8  20  1   
 14   9  10  2   
 15  10  21  1   
 16  11  12  2   
 17  11  13  am  
 18  13  14  1   
 19  13  15  1   
 20  14  16  1   
 21  14  22  1   
 22  14  23  1   
 23  15  17  1   
 24  15  24  1   
 25  15  25  1   
 26  16  18  1   
 27  16  26  1   
 28  16  27  1   
 29  17  18  1   
 30  17  28  1   
 31  17  29  1   
 32  18  30  1   
 33  18  31  1   
@<TRIPOS>SUBSTRUCTURE
  1 ****   4 GROUP 4 **** **** 0

# MOE 2024.06 (io_trps.svl 2023.06)
