@<TRIPOS>MOLECULE
1-(5-Chloro-2-ethoxy-benzenesulfonyl)-piperidine-4-carboxylic acid isopropylamid
50 51 1 0 0 
SMALL
USER_CHARGES


@<TRIPOS>ATOM
  1 CL       0.4690     0.7250     2.5720 Cl    1 <1>  -0.1770 
  2 C        0.4610     2.3550     1.9480 C.ar  1 <1>   0.1770 
  3 C        1.1970     2.6510     0.8170 C.ar  1 <1>  -0.1500 
  4 C       -0.2800     3.3220     2.5970 C.ar  1 <1>  -0.1500 
  5 C        1.2080     3.9400     0.2920 C.ar  1 <1>  -0.0090 
  6 C       -0.2750     4.6110     2.0980 C.ar  1 <1>  -0.1500 
  7 S        2.1880     4.3010    -1.1930 S.o2  1 <1>   1.4470 
  8 C        0.4610     4.9120     0.9580 C.ar  1 <1>   0.0830 
  9 O        2.3910     3.0500    -1.8940 O.2   1 <1>  -0.6500 
 10 O        1.6700     5.4160    -1.9580 O.2   1 <1>  -0.6500 
 11 N        3.7090     4.7730    -0.6030 N.am  1 <1>  -0.8490 
 12 O        0.4610     6.1870     0.5260 O.3   1 <1>  -0.3630 
 13 C        3.6690     6.0960     0.0300 C.3   1 <1>   0.1960 
 14 C        4.7170     4.7130    -1.6660 C.3   1 <1>   0.1960 
 15 C       -0.6910     6.6310    -0.1530 C.3   1 <1>   0.1200 
 16 C        5.0290     6.4460     0.6380 C.3   1 <1>  -0.1600 
 17 C        6.1100     5.0230    -1.1110 C.3   1 <1>  -0.1600 
 18 C       -0.4210     8.0430    -0.6630 C.3   1 <1>  -0.2400 
 19 C        6.1430     6.3930    -0.4190 C.3   1 <1>  -0.0190 
 20 C        7.5150     6.6870     0.1860 C.2   1 <1>   0.5690 
 21 O        7.9370     5.9670     1.0580 O.2   1 <1>  -0.5700 
 22 N        8.2070     7.7590    -0.2910 N.am  1 <1>  -0.7300 
 23 C        9.5380     8.2430     0.1240 C.3   1 <1>   0.2200 
 24 C       10.5970     7.1800    -0.1560 C.3   1 <1>  -0.2400 
 25 C        9.5130     8.6590     1.5930 C.3   1 <1>  -0.2400 
 26 H        1.7660     1.8700     0.3430 H     1 <1>   0.1500 
 27 H       -0.8430     3.0680     3.4780 H     1 <1>   0.1500 
 28 H       -0.8330     5.3860     2.5930 H     1 <1>   0.1500 
 29 H        2.9410     6.0980     0.8220 H     1 <1>   0.0800 
 30 H        3.3830     6.8440    -0.6920 H     1 <1>   0.0800 
 31 H        4.4650     5.4120    -2.4480 H     1 <1>   0.0800 
 32 H        4.7370     3.7250    -2.0950 H     1 <1>   0.0800 
 33 H       -1.5220     6.6200     0.5310 H     1 <1>   0.0800 
 34 H       -0.8830     5.9620    -0.9750 H     1 <1>   0.0800 
 35 H        5.2440     5.7490     1.4310 H     1 <1>   0.0800 
 36 H        4.9850     7.4290     1.0710 H     1 <1>   0.0800 
 37 H        6.8270     5.0020    -1.9120 H     1 <1>   0.0800 
 38 H        6.3810     4.2520    -0.4090 H     1 <1>   0.0800 
 39 H       -0.2030     8.7010     0.1590 H     1 <1>   0.0800 
 40 H       -1.2850     8.4130    -1.1820 H     1 <1>   0.0800 
 41 H        0.4100     8.0300    -1.3470 H     1 <1>   0.0800 
 42 H        5.9330     7.1440    -1.1590 H     1 <1>   0.0800 
 43 H        7.7810     8.3180    -1.0270 H     1 <1>   0.3700 
 44 H        9.7720     9.1140    -0.4670 H     1 <1>   0.0800 
 45 H       10.4340     6.3090     0.4540 H     1 <1>   0.0800 
 46 H       11.5730     7.5690     0.0700 H     1 <1>   0.0800 
 47 H       10.5750     6.8960    -1.1920 H     1 <1>   0.0800 
 48 H        9.3360     7.8100     2.2280 H     1 <1>   0.0800 
 49 H        8.7450     9.3920     1.7600 H     1 <1>   0.0800 
 50 H       10.4590     9.0890     1.8660 H     1 <1>   0.0800 
@<TRIPOS>BOND
  1   1   2  1   
  2   2   3  ar  
  3   2   4  ar  
  4   3   5  ar  
  5   3  26  1   
  6   4   6  ar  
  7   4  27  1   
  8   5   7  1   
  9   5   8  ar  
 10   6   8  ar  
 11   6  28  1   
 12   7   9  2   
 13   7  10  2   
 14   7  11  am  
 15   8  12  1   
 16  11  13  1   
 17  11  14  1   
 18  12  15  1   
 19  13  16  1   
 20  13  29  1   
 21  13  30  1   
 22  14  17  1   
 23  14  31  1   
 24  14  32  1   
 25  15  18  1   
 26  15  33  1   
 27  15  34  1   
 28  16  19  1   
 29  16  35  1   
 30  16  36  1   
 31  17  19  1   
 32  17  37  1   
 33  17  38  1   
 34  18  39  1   
 35  18  40  1   
 36  18  41  1   
 37  19  20  1   
 38  19  42  1   
 39  20  21  2   
 40  20  22  am  
 41  22  23  1   
 42  22  43  1   
 43  23  24  1   
 44  23  25  1   
 45  23  44  1   
 46  24  45  1   
 47  24  46  1   
 48  24  47  1   
 49  25  48  1   
 50  25  49  1   
 51  25  50  1   
@<TRIPOS>SUBSTRUCTURE
  1 ****  13 GROUP 4 **** **** 0

# MOE 2024.06 (io_trps.svl 2023.06)
