@<TRIPOS>MOLECULE
7-(4-Methyl-piperazin-1-yl)-4-morpholin-4-yl-2,3-dihydro-1H-6-thia-5,8,10-triaza
56 61 1 0 0 
SMALL
USER_CHARGES


@<TRIPOS>ATOM
  1 S       -0.7040    -0.6350     0.9810 S.3   1 <1>  -0.0800 
  2 C       -2.1350     0.3650     0.6860 C.ar  1 <1>   0.2970 
  3 C        0.3860     0.7240     0.6340 C.ar  1 <1>   0.0400 
  4 N       -3.3510    -0.1420     0.7960 N.ar  1 <1>  -0.5670 
  5 C       -1.7540     1.6590     0.3470 C.ar  1 <1>   0.0000 
  6 C        1.7680     0.7520     0.6490 C.ar  1 <1>   0.4100 
  7 C       -0.3270     1.8490     0.3170 C.ar  1 <1>   0.2560 
  8 C       -4.3220     0.7320     0.5430 C.ar  1 <1>   0.4100 
  9 C       -2.7940     2.5440     0.0960 C.ar  1 <1>  -0.1430 
 10 N        2.4070     1.8670     0.3430 N.ar  1 <1>  -0.6200 
 11 N        2.5400    -0.3520     0.9480 N.pl3 1 <1>  -0.8380 
 12 N        0.3120     2.9790     0.0160 N.ar  1 <1>  -0.5660 
 13 N       -5.6190     0.2740     0.6230 N.pl3 1 <1>  -0.8380 
 14 C       -4.0670     2.0670     0.1970 C.ar  1 <1>  -0.1430 
 15 C       -2.7590     4.0040    -0.2790 C.3   1 <1>  -0.0170 
 16 C        1.6300     2.9100     0.0530 C.ar  1 <1>   0.4700 
 17 C        2.6970    -1.3800    -0.1200 C.3   1 <1>   0.2090 
 18 C        3.7460    -0.1610     1.8110 C.3   1 <1>   0.2090 
 19 C       -6.2540    -0.1530    -0.6530 C.3   1 <1>   0.2090 
 20 C       -5.9660    -0.6530     1.7390 C.3   1 <1>   0.2090 
 21 C       -5.0750     3.1540    -0.0970 C.3   1 <1>  -0.0170 
 22 C       -4.2270     4.4390    -0.1280 C.3   1 <1>  -0.1600 
 23 C        3.9750    -1.1200    -0.9510 C.3   1 <1>   0.3430 
 24 C        5.0060     0.0870     0.9540 C.3   1 <1>   0.3430 
 25 C       -7.7660    -0.3730    -0.4580 C.3   1 <1>   0.1200 
 26 C       -7.4900    -0.8520     1.8240 C.3   1 <1>   0.1200 
 27 N        5.2140    -0.9800    -0.0960 N.4   1 <1>  -0.9590 
 28 O       -8.0160    -1.2680     0.5920 O.3   1 <1>  -0.5600 
 29 C        6.4140    -0.6800    -0.9320 C.3   1 <1>   0.2630 
 30 H       -2.4280     4.1060    -1.2980 H     1 <1>   0.0800 
 31 H       -2.1120     4.5630     0.3730 H     1 <1>   0.0800 
 32 H        2.1480     3.8250    -0.1870 H     1 <1>   0.1500 
 33 H        1.8410    -1.3600    -0.7730 H     1 <1>   0.0800 
 34 H        2.7400    -2.3580     0.3290 H     1 <1>   0.0800 
 35 H        3.8850    -1.0320     2.4290 H     1 <1>   0.0800 
 36 H        3.5900     0.6800     2.4670 H     1 <1>   0.0800 
 37 H       -5.8000    -1.0700    -0.9870 H     1 <1>   0.0800 
 38 H       -6.0920     0.5950    -1.4080 H     1 <1>   0.0800 
 39 H       -5.5990    -0.2480     2.6660 H     1 <1>   0.0800 
 40 H       -5.4910    -1.6060     1.5780 H     1 <1>   0.0800 
 41 H       -5.8340     3.1960     0.6640 H     1 <1>   0.0800 
 42 H       -5.5290     2.9730    -1.0550 H     1 <1>   0.0800 
 43 H       -4.5310     5.0980    -0.9220 H     1 <1>   0.0800 
 44 H       -4.3400     4.9500     0.8130 H     1 <1>   0.0800 
 45 H        3.8240    -0.2110    -1.5100 H     1 <1>   0.0800 
 46 H        4.1050    -1.9240    -1.6560 H     1 <1>   0.0800 
 47 H        5.8660     0.1410     1.6010 H     1 <1>   0.0800 
 48 H        4.8920     1.0460     0.4740 H     1 <1>   0.0800 
 49 H       -8.1980    -0.7870    -1.3510 H     1 <1>   0.0800 
 50 H       -8.2530     0.5600    -0.2370 H     1 <1>   0.0800 
 51 H       -7.9700     0.0670     2.1100 H     1 <1>   0.0800 
 52 H       -7.7240    -1.6070     2.5530 H     1 <1>   0.0800 
 53 H        5.3570    -1.8740     0.3950 H     1 <1>   0.4500 
 54 H        6.2830     0.2560    -1.4520 H     1 <1>   0.0800 
 55 H        6.5700    -1.4590    -1.6600 H     1 <1>   0.0800 
 56 H        7.2940    -0.6090    -0.3130 H     1 <1>   0.0800 
@<TRIPOS>BOND
  1   1   2  1   
  2   1   3  1   
  3   2   4  ar  
  4   2   5  ar  
  5   3   6  ar  
  6   3   7  ar  
  7   4   8  ar  
  8   5   7  1   
  9   5   9  ar  
 10   6  10  ar  
 11   6  11  1   
 12   7  12  ar  
 13   8  13  1   
 14   8  14  ar  
 15   9  14  ar  
 16   9  15  1   
 17  10  16  ar  
 18  11  17  1   
 19  11  18  1   
 20  12  16  ar  
 21  13  19  1   
 22  13  20  1   
 23  14  21  1   
 24  15  22  1   
 25  15  30  1   
 26  15  31  1   
 27  16  32  1   
 28  17  23  1   
 29  17  33  1   
 30  17  34  1   
 31  18  24  1   
 32  18  35  1   
 33  18  36  1   
 34  19  25  1   
 35  19  37  1   
 36  19  38  1   
 37  20  26  1   
 38  20  39  1   
 39  20  40  1   
 40  21  22  1   
 41  21  41  1   
 42  21  42  1   
 43  22  43  1   
 44  22  44  1   
 45  23  27  1   
 46  23  45  1   
 47  23  46  1   
 48  24  27  1   
 49  24  47  1   
 50  24  48  1   
 51  25  28  1   
 52  25  49  1   
 53  25  50  1   
 54  26  28  1   
 55  26  51  1   
 56  26  52  1   
 57  27  29  1   
 58  27  53  1   
 59  29  54  1   
 60  29  55  1   
 61  29  56  1   
@<TRIPOS>SUBSTRUCTURE
  1 ****   2 GROUP 4 **** **** 0

# MOE 2024.06 (io_trps.svl 2023.06)
