@<TRIPOS>MOLECULE
8-(3-Methoxy-phenyl)-1,6,7-trimethyl-3-(1-methyl-2-oxo-propyl)-1H,8H-imidazo[2,1
54 57 1 0 0 
SMALL
USER_CHARGES


@<TRIPOS>ATOM
  1 O        0.9270     0.2110    -0.6490 O.2   1 <1>  -0.5740 
  2 C        1.8720     0.9630    -0.5250 C.2   1 <1>   0.6870 
  3 N        1.6810     2.3440    -0.5360 N.am  1 <1>  -0.4250 
  4 N        3.1460     0.4330    -0.3700 N.am  1 <1>  -0.4410 
  5 C        2.7600     3.2110    -0.4480 C.2   1 <1>   0.7000 
  6 C        0.3130     2.8900    -0.2350 C.3   1 <1>   0.2750 
  7 C        4.1950     1.3060    -0.1810 C.2   1 <1>   0.4210 
  8 C        3.3480    -1.0470    -0.3260 C.3   1 <1>   0.0530 
  9 O        2.6050     4.4140    -0.5770 O.2   1 <1>  -0.5740 
 10 C        4.0530     2.6540    -0.2180 C.2   1 <1>   0.2710 
 11 C       -0.1800     2.3330     1.1120 C.2   1 <1>   0.4430 
 12 C       -0.6180     2.7110    -1.4490 C.3   1 <1>  -0.2460 
 13 N        5.5020     0.9960     0.0580 N.pl3 1 <1>  -0.7030 
 14 N        5.3320     3.1910     0.0010 N.pl3 1 <1>  -0.6330 
 15 O        0.5750     2.2550     2.0380 O.2   1 <1>  -0.5740 
 16 C       -1.6230     1.8900     1.2630 C.3   1 <1>  -0.1860 
 17 C        6.1470     2.1600     0.1620 C.cat 1 <1>   1.0690 
 18 C        6.1070     4.3280     0.1160 C.2   1 <1>   0.2350 
 19 N        7.4100     2.5390     0.3780 N.pl3 1 <1>  -0.5550 
 20 C        7.3820     3.9280     0.3430 C.2   1 <1>   0.1580 
 21 C        5.4850     5.7040    -0.0200 C.3   1 <1>  -0.1090 
 22 C        8.4990     1.6670     0.5300 C.ar  1 <1>   0.3050 
 23 C        8.6500     4.7420     0.5330 C.3   1 <1>  -0.1090 
 24 C        8.8900     0.8680    -0.5310 C.ar  1 <1>  -0.1570 
 25 C        9.1640     1.5650     1.7430 C.ar  1 <1>  -0.1570 
 26 C        9.9200    -0.0410    -0.3850 C.ar  1 <1>   0.0750 
 27 C       10.2050     0.6660     1.8950 C.ar  1 <1>  -0.1570 
 28 O       10.2100    -0.7940    -1.4710 O.3   1 <1>  -0.3680 
 29 C       10.5820    -0.1410     0.8350 C.ar  1 <1>  -0.1570 
 30 C       11.2950    -1.6980    -1.4660 C.3   1 <1>   0.0330 
 31 H        0.3830     3.9520    -0.0800 H     1 <1>   0.0730 
 32 H        2.6040    -1.5440    -0.9260 H     1 <1>   0.0730 
 33 H        3.2580    -1.3940     0.6880 H     1 <1>   0.0730 
 34 H        4.3160    -1.3100    -0.7130 H     1 <1>   0.0730 
 35 H       -0.8500     1.6760    -1.6260 H     1 <1>   0.0730 
 36 H       -0.1590     3.1240    -2.3290 H     1 <1>   0.0730 
 37 H       -1.5420     3.2350    -1.2830 H     1 <1>   0.0730 
 38 H        5.9340     0.0790     0.1580 H     1 <1>   0.4450 
 39 H       -1.8230     1.0620     0.6080 H     1 <1>   0.0730 
 40 H       -2.2890     2.7010     1.0350 H     1 <1>   0.0730 
 41 H       -1.8000     1.5740     2.2750 H     1 <1>   0.0730 
 42 H        4.7220     5.8370     0.7250 H     1 <1>   0.0730 
 43 H        5.0370     5.8100    -0.9920 H     1 <1>   0.0730 
 44 H        6.2230     6.4750     0.1030 H     1 <1>   0.0730 
 45 H        9.0600     4.5690     1.5120 H     1 <1>   0.0730 
 46 H        8.4520     5.7930     0.4300 H     1 <1>   0.0730 
 47 H        9.3830     4.4610    -0.2030 H     1 <1>   0.0730 
 48 H        8.4030     0.9430    -1.4850 H     1 <1>   0.1430 
 49 H        8.8700     2.1840     2.5720 H     1 <1>   0.1430 
 50 H       10.7220     0.5880     2.8370 H     1 <1>   0.1430 
 51 H       11.3900    -0.8360     0.9760 H     1 <1>   0.1430 
 52 H       11.3530    -2.1560    -2.4370 H     1 <1>   0.0730 
 53 H       11.1200    -2.4510    -0.7180 H     1 <1>   0.0730 
 54 H       12.2020    -1.1560    -1.2630 H     1 <1>   0.0730 
@<TRIPOS>BOND
  1   1   2  2   
  2   2   3  am  
  3   2   4  am  
  4   3   5  am  
  5   3   6  1   
  6   4   7  1   
  7   4   8  1   
  8   5   9  2   
  9   5  10  1   
 10   6  11  1   
 11   6  12  1   
 12   6  31  1   
 13   7  10  2   
 14   7  13  1   
 15   8  32  1   
 16   8  33  1   
 17   8  34  1   
 18  10  14  1   
 19  11  15  2   
 20  11  16  1   
 21  12  35  1   
 22  12  36  1   
 23  12  37  1   
 24  13  17  ar  
 25  13  38  1   
 26  14  17  ar  
 27  14  18  1   
 28  16  39  1   
 29  16  40  1   
 30  16  41  1   
 31  17  19  ar  
 32  18  20  2   
 33  18  21  1   
 34  19  20  1   
 35  19  22  1   
 36  20  23  1   
 37  21  42  1   
 38  21  43  1   
 39  21  44  1   
 40  22  24  ar  
 41  22  25  ar  
 42  23  45  1   
 43  23  46  1   
 44  23  47  1   
 45  24  26  ar  
 46  24  48  1   
 47  25  27  ar  
 48  25  49  1   
 49  26  28  1   
 50  26  29  ar  
 51  27  29  ar  
 52  27  50  1   
 53  28  30  1   
 54  29  51  1   
 55  30  52  1   
 56  30  53  1   
 57  30  54  1   
@<TRIPOS>SUBSTRUCTURE
  1 ****  13 GROUP 4 **** **** 0

# MOE 2024.06 (io_trps.svl 2023.06)
