@<TRIPOS>MOLECULE
8-[4-(4-Chloro-benzyl)-piperazin-1-yl]-3-methyl-7-propyl-3,7-dihydro-purine-2,6-
56 59 1 0 0 
SMALL
USER_CHARGES


@<TRIPOS>ATOM
  1 CL      -0.1930    -0.0630     0.5390 Cl    1 <1>  -0.1840 
  2 C       -1.2020    -1.4480     0.2200 C.ar  1 <1>   0.1700 
  3 C       -1.4330    -2.3650     1.2270 C.ar  1 <1>  -0.1570 
  4 C       -1.7550    -1.6100    -1.0360 C.ar  1 <1>  -0.1570 
  5 C       -2.2390    -3.4630     0.9740 C.ar  1 <1>  -0.1570 
  6 C       -2.5610    -2.7080    -1.2870 C.ar  1 <1>  -0.1570 
  7 C       -2.8120    -3.6350    -0.2810 C.ar  1 <1>  -0.1500 
  8 C       -3.7080    -4.8270    -0.5530 C.3   1 <1>   0.4820 
  9 N       -5.0160    -4.5930     0.1300 N.4   1 <1>  -0.9610 
 10 C       -5.8750    -5.8180     0.1030 C.3   1 <1>   0.3370 
 11 C       -5.7220    -3.3990    -0.4440 C.3   1 <1>   0.3370 
 12 C       -7.2370    -5.5850     0.7990 C.3   1 <1>   0.1610 
 13 C       -7.0880    -3.1390     0.2320 C.3   1 <1>   0.1610 
 14 N       -7.9670    -4.3620     0.2970 N.pl3 1 <1>  -0.5960 
 15 C       -9.3100    -4.3630     0.0430 C.cat 1 <1>   1.0690 
 16 N       -9.9800    -5.4820    -0.2510 N.pl3 1 <1>  -0.7030 
 17 N      -10.1700    -3.3270     0.0400 N.pl3 1 <1>  -0.7670 
 18 C      -11.2870    -5.1720    -0.4590 C.2   1 <1>   0.4210 
 19 C      -11.4470    -3.8430    -0.2790 C.2   1 <1>   0.2710 
 20 C      -10.0250    -1.8970     0.4310 C.3   1 <1>   0.3490 
 21 N      -12.3160    -6.0400    -0.7950 N.am  1 <1>  -0.4410 
 22 C      -12.7700    -3.3000    -0.4200 C.2   1 <1>   0.7000 
 23 C       -9.9110    -1.0250    -0.8240 C.3   1 <1>  -0.1670 
 24 C      -13.5880    -5.5040    -0.9360 C.2   1 <1>   0.6870 
 25 C      -12.0790    -7.5020    -0.9860 C.3   1 <1>   0.0530 
 26 O      -13.0430    -2.1290    -0.2490 O.2   1 <1>  -0.5740 
 27 N      -13.7710    -4.1660    -0.7520 N.am  1 <1>  -0.4950 
 28 C       -9.5250     0.4160    -0.4710 C.3   1 <1>  -0.2460 
 29 O      -14.5470    -6.1840    -1.2140 O.2   1 <1>  -0.5740 
 30 H       -0.9800    -2.2170     2.1920 H     1 <1>   0.1430 
 31 H       -1.5490    -0.8830    -1.8020 H     1 <1>   0.1430 
 32 H       -2.4000    -4.1750     1.7650 H     1 <1>   0.1430 
 33 H       -2.9770    -2.8270    -2.2730 H     1 <1>   0.1430 
 34 H       -3.2390    -5.7170    -0.1670 H     1 <1>   0.0730 
 35 H       -3.8530    -4.9470    -1.6150 H     1 <1>   0.0730 
 36 H       -4.7630    -4.3670     1.1030 H     1 <1>   0.4450 
 37 H       -5.3620    -6.6300     0.5930 H     1 <1>   0.0730 
 38 H       -6.0500    -6.1110    -0.9200 H     1 <1>   0.0730 
 39 H       -5.8790    -3.5480    -1.5000 H     1 <1>   0.0730 
 40 H       -5.1030    -2.5220    -0.3300 H     1 <1>   0.0730 
 41 H       -7.0630    -5.4710     1.8560 H     1 <1>   0.0730 
 42 H       -7.8350    -6.4710     0.6770 H     1 <1>   0.0730 
 43 H       -7.5660    -2.3620    -0.3310 H     1 <1>   0.0730 
 44 H       -6.9200    -2.7680     1.2300 H     1 <1>   0.0730 
 45 H       -9.5980    -6.4160    -0.3400 H     1 <1>   0.4450 
 46 H       -9.1640    -1.7660     1.0620 H     1 <1>   0.0730 
 47 H      -10.8820    -1.5840     1.0060 H     1 <1>   0.0730 
 48 H      -10.8590    -1.0060    -1.3340 H     1 <1>   0.0730 
 49 H       -9.1780    -1.4220    -1.5020 H     1 <1>   0.0730 
 50 H      -11.2540    -7.6600    -1.6580 H     1 <1>   0.0730 
 51 H      -12.9480    -7.9790    -1.4080 H     1 <1>   0.0730 
 52 H      -11.8680    -7.9650    -0.0370 H     1 <1>   0.0730 
 53 H      -14.7180    -3.8040    -0.8560 H     1 <1>   0.3650 
 54 H      -10.2650     0.8580     0.1760 H     1 <1>   0.0730 
 55 H       -9.4700     1.0110    -1.3670 H     1 <1>   0.0730 
 56 H       -8.5680     0.4550     0.0200 H     1 <1>   0.0730 
@<TRIPOS>BOND
  1   1   2  1   
  2   2   3  ar  
  3   2   4  ar  
  4   3   5  ar  
  5   3  30  1   
  6   4   6  ar  
  7   4  31  1   
  8   5   7  ar  
  9   5  32  1   
 10   6   7  ar  
 11   6  33  1   
 12   7   8  1   
 13   8   9  1   
 14   8  34  1   
 15   8  35  1   
 16   9  10  1   
 17   9  11  1   
 18   9  36  1   
 19  10  12  1   
 20  10  37  1   
 21  10  38  1   
 22  11  13  1   
 23  11  39  1   
 24  11  40  1   
 25  12  14  1   
 26  12  41  1   
 27  12  42  1   
 28  13  14  1   
 29  13  43  1   
 30  13  44  1   
 31  14  15  ar  
 32  15  16  ar  
 33  15  17  ar  
 34  16  18  1   
 35  16  45  1   
 36  17  19  1   
 37  17  20  1   
 38  18  19  2   
 39  18  21  1   
 40  19  22  1   
 41  20  23  1   
 42  20  46  1   
 43  20  47  1   
 44  21  24  am  
 45  21  25  1   
 46  22  26  2   
 47  22  27  am  
 48  23  28  1   
 49  23  48  1   
 50  23  49  1   
 51  24  27  am  
 52  24  29  2   
 53  25  50  1   
 54  25  51  1   
 55  25  52  1   
 56  27  53  1   
 57  28  54  1   
 58  28  55  1   
 59  28  56  1   
@<TRIPOS>SUBSTRUCTURE
  1 ****  14 GROUP 4 **** **** 0

# MOE 2024.06 (io_trps.svl 2023.06)
