@<TRIPOS>MOLECULE
8-(4-Ethoxy-phenyl)-1,7-dimethyl-3-(2-oxo-propyl)-1H,8H-imidazo[2,1-f]purine-2,4
51 54 1 0 0 
SMALL
USER_CHARGES


@<TRIPOS>ATOM
  1 O        0.8050     0.1690     0.1540 O.2   1 <1>  -0.5750 
  2 C        1.8050     0.7880    -0.1470 C.2   1 <1>   0.6860 
  3 N        1.6940     2.0940    -0.6040 N.am  1 <1>  -0.4260 
  4 N        3.0550     0.1930    -0.0250 N.am  1 <1>  -0.4410 
  5 C        2.8090     2.8170    -0.9940 C.2   1 <1>   0.6990 
  6 C        0.4940     2.8790    -0.1740 C.3   1 <1>   0.1940 
  7 C        4.1690     0.9600    -0.3070 C.2   1 <1>   0.4210 
  8 C        3.1830    -1.2030     0.4880 C.3   1 <1>   0.0520 
  9 O        2.6870     3.9230    -1.4960 O.2   1 <1>  -0.5750 
 10 C        4.0890     2.2260    -0.7850 C.2   1 <1>   0.2710 
 11 C        0.7180     3.4660     1.2200 C.2   1 <1>   0.4430 
 12 N        5.4830     0.6140    -0.1640 N.pl3 1 <1>  -0.7040 
 13 N        5.4090     2.6690    -0.9500 N.pl3 1 <1>  -0.6330 
 14 O        1.7780     3.3890     1.7740 O.2   1 <1>  -0.5750 
 15 C       -0.4600     4.1540     1.8720 C.3   1 <1>  -0.1860 
 16 C        6.1940     1.6770    -0.5550 C.cat 1 <1>   1.0690 
 17 C        6.2350     3.7170    -1.3070 C.2   1 <1>   0.2220 
 18 N        7.4890     2.0000    -0.6420 N.pl3 1 <1>  -0.5550 
 19 C        7.5090     3.3060    -1.1190 C.2   1 <1>   0.1580 
 20 C        8.5750     1.1810    -0.2970 C.ar  1 <1>   0.3050 
 21 C        8.8110     4.0500    -1.3490 C.3   1 <1>  -0.1090 
 22 C        9.1990     0.4030    -1.2620 C.ar  1 <1>  -0.1570 
 23 C        9.0240     1.1310     1.0150 C.ar  1 <1>  -0.1570 
 24 C       10.2540    -0.4260    -0.9230 C.ar  1 <1>  -0.1570 
 25 C       10.0780     0.3030     1.3570 C.ar  1 <1>  -0.1570 
 26 C       10.6970    -0.4800     0.3960 C.ar  1 <1>   0.0750 
 27 O       11.7180    -1.2630     0.8190 O.3   1 <1>  -0.3680 
 28 C       12.4610    -2.0530    -0.0810 C.3   1 <1>   0.1130 
 29 C       13.5450    -2.7770     0.7100 C.3   1 <1>  -0.2470 
 30 H       -0.3780     2.2490    -0.1610 H     1 <1>   0.0720 
 31 H        0.3090     3.6780    -0.8700 H     1 <1>   0.0720 
 32 H        2.2930    -1.7680     0.2640 H     1 <1>   0.0720 
 33 H        3.3180    -1.1860     1.5550 H     1 <1>   0.0720 
 34 H        4.0180    -1.7000     0.0260 H     1 <1>   0.0720 
 35 H        5.8780    -0.2510     0.2000 H     1 <1>   0.4450 
 36 H       -1.2700     3.4590     1.9980 H     1 <1>   0.0720 
 37 H       -0.7880     4.9790     1.2670 H     1 <1>   0.0720 
 38 H       -0.1730     4.5280     2.8390 H     1 <1>   0.0720 
 39 H        5.8520     4.6630    -1.6600 H     1 <1>   0.1430 
 40 H        9.4120     3.5300    -2.0730 H     1 <1>   0.0720 
 41 H        9.3640     4.1220    -0.4290 H     1 <1>   0.0720 
 42 H        8.6180     5.0430    -1.7120 H     1 <1>   0.0720 
 43 H        8.8640     0.4440    -2.2830 H     1 <1>   0.1430 
 44 H        8.5600     1.7380     1.7710 H     1 <1>   0.1430 
 45 H       10.7200    -1.0180    -1.6890 H     1 <1>   0.1430 
 46 H       10.4360     0.2570     2.3720 H     1 <1>   0.1430 
 47 H       12.9000    -1.4070    -0.8220 H     1 <1>   0.0720 
 48 H       11.7960    -2.7610    -0.5450 H     1 <1>   0.0720 
 49 H       14.1970    -2.0640     1.1830 H     1 <1>   0.0720 
 50 H       14.1300    -3.3900     0.0490 H     1 <1>   0.0720 
 51 H       13.0990    -3.4080     1.4580 H     1 <1>   0.0720 
@<TRIPOS>BOND
  1   1   2  2   
  2   2   3  am  
  3   2   4  am  
  4   3   5  am  
  5   3   6  1   
  6   4   7  1   
  7   4   8  1   
  8   5   9  2   
  9   5  10  1   
 10   6  11  1   
 11   6  30  1   
 12   6  31  1   
 13   7  10  2   
 14   7  12  1   
 15   8  32  1   
 16   8  33  1   
 17   8  34  1   
 18  10  13  1   
 19  11  14  2   
 20  11  15  1   
 21  12  16  ar  
 22  12  35  1   
 23  13  16  ar  
 24  13  17  1   
 25  15  36  1   
 26  15  37  1   
 27  15  38  1   
 28  16  18  ar  
 29  17  19  2   
 30  17  39  1   
 31  18  19  1   
 32  18  20  1   
 33  19  21  1   
 34  20  22  ar  
 35  20  23  ar  
 36  21  40  1   
 37  21  41  1   
 38  21  42  1   
 39  22  24  ar  
 40  22  43  1   
 41  23  25  ar  
 42  23  44  1   
 43  24  26  ar  
 44  24  45  1   
 45  25  26  ar  
 46  25  46  1   
 47  26  27  1   
 48  27  28  1   
 49  28  29  1   
 50  28  47  1   
 51  28  48  1   
 52  29  49  1   
 53  29  50  1   
 54  29  51  1   
@<TRIPOS>SUBSTRUCTURE
  1 ****  16 GROUP 4 **** **** 0

# MOE 2024.06 (io_trps.svl 2023.06)
