@<TRIPOS>MOLECULE
1-(2,5-Dimethoxy-benzenesulfonyl)-piperidine-4-carboxylic acid (2-fluoro-phenyl)
52 54 1 0 0 
SMALL
USER_CHARGES


@<TRIPOS>ATOM
  1 S       -0.0430    -0.4050     1.6020 S.o2  1 <1>   1.4470 
  2 O        0.2080    -1.7110     2.1760 O.2   1 <1>  -0.6500 
  3 O       -0.4270     0.6570     2.5100 O.2   1 <1>  -0.6500 
  4 N        1.4120     0.0800     0.8750 N.am  1 <1>  -0.8490 
  5 C       -1.2030    -0.6220     0.2240 C.ar  1 <1>  -0.0090 
  6 C        2.5260    -0.0450     1.8200 C.3   1 <1>   0.1960 
  7 C        1.3240     1.4330     0.3160 C.3   1 <1>   0.1960 
  8 C       -1.9950     0.4170    -0.2620 C.ar  1 <1>   0.0820 
  9 C       -1.3090    -1.8600    -0.4010 C.ar  1 <1>  -0.1500 
 10 C        3.8560     0.2810     1.1360 C.3   1 <1>  -0.1600 
 11 C        2.6180     1.8030    -0.4130 C.3   1 <1>  -0.1600 
 12 O       -1.9140     1.6540     0.2720 O.3   1 <1>  -0.3620 
 13 C       -2.8650     0.2230    -1.3260 C.ar  1 <1>  -0.1500 
 14 C       -2.1820    -2.0680    -1.4640 C.ar  1 <1>   0.0820 
 15 C        3.8340     1.6870     0.5180 C.3   1 <1>  -0.0190 
 16 C       -2.9640     2.0340     1.1340 C.3   1 <1>   0.0400 
 17 C       -2.9600    -1.0190    -1.9210 C.ar  1 <1>  -0.1500 
 18 O       -2.3280    -3.2580    -2.1010 O.3   1 <1>  -0.3630 
 19 C        5.1380     2.0110    -0.2120 C.2   1 <1>   0.5690 
 20 C       -1.5790    -4.3900    -1.7140 C.3   1 <1>   0.0400 
 21 O        5.5000     1.2910    -1.1100 O.2   1 <1>  -0.5700 
 22 N        5.8310     3.1170     0.1960 N.am  1 <1>  -0.5470 
 23 C        7.0400     3.7030    -0.2350 C.ar  1 <1>   0.1170 
 24 C        7.4930     4.8690     0.3820 C.ar  1 <1>   0.1900 
 25 C        7.8360     3.1910    -1.2580 C.ar  1 <1>  -0.1500 
 26 F        6.7770     5.3870     1.3520 F     1 <1>  -0.1900 
 27 C        8.6630     5.5120     0.0280 C.ar  1 <1>  -0.1500 
 28 C        9.0140     3.8210    -1.6310 C.ar  1 <1>  -0.1500 
 29 C        9.4310     4.9790    -0.9930 C.ar  1 <1>  -0.1500 
 30 H        2.5750    -1.0550     2.1930 H     1 <1>   0.0800 
 31 H        2.3680     0.6130     2.6590 H     1 <1>   0.0800 
 32 H        1.1240     2.1460     1.1010 H     1 <1>   0.0800 
 33 H        0.5170     1.4810    -0.3940 H     1 <1>   0.0800 
 34 H       -0.6930    -2.6610    -0.0360 H     1 <1>   0.1500 
 35 H        4.0400    -0.4540     0.3710 H     1 <1>   0.0800 
 36 H        4.6530     0.2100     1.8550 H     1 <1>   0.0800 
 37 H        2.5400     2.8080    -0.7890 H     1 <1>   0.0800 
 38 H        2.7400     1.1460    -1.2580 H     1 <1>   0.0800 
 39 H       -3.4580     1.0430    -1.6870 H     1 <1>   0.1500 
 40 H        3.7080     2.3960     1.3170 H     1 <1>   0.0800 
 41 H       -2.7450     3.0130     1.5190 H     1 <1>   0.0800 
 42 H       -3.0220     1.3290     1.9450 H     1 <1>   0.0800 
 43 H       -3.8870     2.0510     0.5820 H     1 <1>   0.0800 
 44 H       -3.6310    -1.1830    -2.7450 H     1 <1>   0.1500 
 45 H       -1.8590    -5.2090    -2.3520 H     1 <1>   0.0800 
 46 H       -1.8080    -4.6290    -0.6910 H     1 <1>   0.0800 
 47 H       -0.5320    -4.1750    -1.8360 H     1 <1>   0.0800 
 48 H        5.4010     3.6360     0.9620 H     1 <1>   0.3700 
 49 H        7.5480     2.2960    -1.7770 H     1 <1>   0.1500 
 50 H        8.9650     6.4090     0.5380 H     1 <1>   0.1500 
 51 H        9.6100     3.4040    -2.4250 H     1 <1>   0.1500 
 52 H       10.3470     5.4600    -1.2900 H     1 <1>   0.1500 
@<TRIPOS>BOND
  1   1   2  2   
  2   1   3  2   
  3   1   4  am  
  4   1   5  1   
  5   4   6  1   
  6   4   7  1   
  7   5   8  ar  
  8   5   9  ar  
  9   6  10  1   
 10   6  30  1   
 11   6  31  1   
 12   7  11  1   
 13   7  32  1   
 14   7  33  1   
 15   8  12  1   
 16   8  13  ar  
 17   9  14  ar  
 18   9  34  1   
 19  10  15  1   
 20  10  35  1   
 21  10  36  1   
 22  11  15  1   
 23  11  37  1   
 24  11  38  1   
 25  12  16  1   
 26  13  17  ar  
 27  13  39  1   
 28  14  17  ar  
 29  14  18  1   
 30  15  19  1   
 31  15  40  1   
 32  16  41  1   
 33  16  42  1   
 34  16  43  1   
 35  17  44  1   
 36  18  20  1   
 37  19  21  2   
 38  19  22  am  
 39  20  45  1   
 40  20  46  1   
 41  20  47  1   
 42  22  23  1   
 43  22  48  1   
 44  23  24  ar  
 45  23  25  ar  
 46  24  26  1   
 47  24  27  ar  
 48  25  28  ar  
 49  25  49  1   
 50  27  29  ar  
 51  27  50  1   
 52  28  29  ar  
 53  28  51  1   
 54  29  52  1   
@<TRIPOS>SUBSTRUCTURE
  1 ****  11 GROUP 4 **** **** 0

# MOE 2024.06 (io_trps.svl 2023.06)
