@<TRIPOS>MOLECULE
1-Benzenesulfonyl-4-(piperidine-1-sulfonyl)-piperazine
47 49 1 0 0 
SMALL
USER_CHARGES


@<TRIPOS>ATOM
  1 S        0.0170     0.0500     1.1830 S.o2  1 <1>   1.5760 
  2 O        0.2700    -0.8840     2.2560 O.2   1 <1>  -0.6500 
  3 O       -0.3280     1.4240     1.4690 O.2   1 <1>  -0.6500 
  4 N        1.3560     0.0370     0.1610 N.am  1 <1>  -0.8490 
  5 N       -1.1500    -0.5920     0.1480 N.am  1 <1>  -0.8490 
  6 C        2.4740     0.7780     0.7570 C.3   1 <1>   0.1960 
  7 C        1.7860    -1.3360    -0.1570 C.3   1 <1>   0.1960 
  8 C       -1.5040     0.3540    -0.9140 C.3   1 <1>   0.1960 
  9 C       -2.3370    -1.0050     0.8990 C.3   1 <1>   0.1960 
 10 C        3.7030     0.7800    -0.1720 C.3   1 <1>   0.1960 
 11 C        3.0180    -1.3430    -1.0810 C.3   1 <1>   0.1960 
 12 C       -2.4590    -0.3060    -1.9130 C.3   1 <1>  -0.1600 
 13 C       -3.3310    -1.7120    -0.0290 C.3   1 <1>  -0.1600 
 14 N        4.1420    -0.5900    -0.4980 N.am  1 <1>  -0.8490 
 15 C       -3.7230    -0.8230    -1.2160 C.3   1 <1>  -0.1600 
 16 S        5.4900    -0.6130    -1.5240 S.o2  1 <1>   1.4470 
 17 O        5.2170     0.3360    -2.5820 O.2   1 <1>  -0.6500 
 18 O        5.7310    -2.0000    -1.8570 O.2   1 <1>  -0.6500 
 19 C        6.8250    -0.0040    -0.4550 C.ar  1 <1>  -0.0090 
 20 C        7.4650     1.2030    -0.7150 C.ar  1 <1>  -0.1500 
 21 C        7.2250    -0.7250     0.6640 C.ar  1 <1>  -0.1500 
 22 C        8.4680     1.6760     0.1140 C.ar  1 <1>  -0.1500 
 23 C        8.2270    -0.2600     1.4980 C.ar  1 <1>  -0.1500 
 24 C        8.8490     0.9430     1.2230 C.ar  1 <1>  -0.1500 
 25 H        2.7460     0.3400     1.7030 H     1 <1>   0.0800 
 26 H        2.1730     1.7970     0.9350 H     1 <1>   0.0800 
 27 H        0.9830    -1.8610    -0.6450 H     1 <1>   0.0800 
 28 H        2.0290    -1.8700     0.7470 H     1 <1>   0.0800 
 29 H       -0.6140     0.6660    -1.4360 H     1 <1>   0.0800 
 30 H       -1.9670     1.2310    -0.4900 H     1 <1>   0.0800 
 31 H       -2.8010    -0.1450     1.3530 H     1 <1>   0.0800 
 32 H       -2.0510    -1.6880     1.6830 H     1 <1>   0.0800 
 33 H        4.5030     1.3100     0.3160 H     1 <1>   0.0800 
 34 H        3.4500     1.3150    -1.0730 H     1 <1>   0.0800 
 35 H        2.7450    -0.9190    -2.0340 H     1 <1>   0.0800 
 36 H        3.3150    -2.3640    -1.2460 H     1 <1>   0.0800 
 37 H       -1.9470    -1.1210    -2.3940 H     1 <1>   0.0800 
 38 H       -2.7310     0.4070    -2.6720 H     1 <1>   0.0800 
 39 H       -4.2100    -1.9810     0.5280 H     1 <1>   0.0800 
 40 H       -2.8800    -2.6210    -0.3890 H     1 <1>   0.0800 
 41 H       -4.3270    -1.3800    -1.9110 H     1 <1>   0.0800 
 42 H       -4.3020     0.0120    -0.8600 H     1 <1>   0.0800 
 43 H        7.1780     1.7800    -1.5780 H     1 <1>   0.1500 
 44 H        6.7420    -1.6630     0.8830 H     1 <1>   0.1500 
 45 H        8.9530     2.6120    -0.1050 H     1 <1>   0.1500 
 46 H        8.5230    -0.8350     2.3590 H     1 <1>   0.1500 
 47 H        9.6290     1.3080     1.8690 H     1 <1>   0.1500 
@<TRIPOS>BOND
  1   1   2  2   
  2   1   3  2   
  3   1   4  am  
  4   1   5  am  
  5   4   6  1   
  6   4   7  1   
  7   5   8  1   
  8   5   9  1   
  9   6  10  1   
 10   6  25  1   
 11   6  26  1   
 12   7  11  1   
 13   7  27  1   
 14   7  28  1   
 15   8  12  1   
 16   8  29  1   
 17   8  30  1   
 18   9  13  1   
 19   9  31  1   
 20   9  32  1   
 21  10  14  1   
 22  10  33  1   
 23  10  34  1   
 24  11  14  1   
 25  11  35  1   
 26  11  36  1   
 27  12  15  1   
 28  12  37  1   
 29  12  38  1   
 30  13  15  1   
 31  13  39  1   
 32  13  40  1   
 33  14  16  am  
 34  15  41  1   
 35  15  42  1   
 36  16  17  2   
 37  16  18  2   
 38  16  19  1   
 39  19  20  ar  
 40  19  21  ar  
 41  20  22  ar  
 42  20  43  1   
 43  21  23  ar  
 44  21  44  1   
 45  22  24  ar  
 46  22  45  1   
 47  23  24  ar  
 48  23  46  1   
 49  24  47  1   
@<TRIPOS>SUBSTRUCTURE
  1 ****   6 GROUP 4 **** **** 0

# MOE 2024.06 (io_trps.svl 2023.06)
