@<TRIPOS>MOLECULE
1-(2,4-Dimethoxy-phenyl)-5-oxo-pyrrolidine-3-carboxylic acid
33 34 1 0 0 
SMALL
USER_CHARGES


@<TRIPOS>ATOM
  1 O        1.3930    -1.1430     2.6050 O.2   1 <1>  -0.5700 
  2 C        1.9400    -0.9330     1.5470 C.2   1 <1>   0.5690 
  3 N        1.8500    -1.7040     0.4290 N.am  1 <1>  -0.4770 
  4 C        2.8190     0.2630     1.3140 C.3   1 <1>  -0.0990 
  5 C        1.1710    -2.9320     0.2830 C.ar  1 <1>   0.1170 
  6 C        2.6780    -1.1490    -0.6650 C.3   1 <1>   0.1400 
  7 C        2.9910     0.2810    -0.2170 C.3   1 <1>  -0.1860 
  8 C        0.2220    -3.1680    -0.7230 C.ar  1 <1>   0.0820 
  9 C        1.4600    -3.9660     1.1650 C.ar  1 <1>  -0.1500 
 10 C        4.3480     0.7430    -0.7020 C.2   1 <1>   0.9060 
 11 O       -0.1610    -2.2060    -1.6010 O.3   1 <1>  -0.3630 
 12 C       -0.3690    -4.4120    -0.8540 C.ar  1 <1>  -0.1500 
 13 C        0.8580    -5.2060     1.0450 C.ar  1 <1>  -0.1500 
 14 O        4.9800     1.5520    -0.0180 O.co2 1 <1>  -0.9000 
 15 O        4.7710     0.3050    -1.7760 O.co2 1 <1>  -0.9000 
 16 C       -0.9370    -1.1550    -1.0700 C.3   1 <1>   0.0400 
 17 C       -0.0600    -5.4370     0.0240 C.ar  1 <1>   0.0820 
 18 O       -0.6930    -6.6240    -0.1720 O.3   1 <1>  -0.3630 
 19 C       -0.4680    -7.7160     0.6920 C.3   1 <1>   0.0400 
 20 H        3.7610     0.1050     1.8070 H     1 <1>   0.0800 
 21 H        2.3660     1.1670     1.6740 H     1 <1>   0.0800 
 22 H        2.1600    -1.1580    -1.6070 H     1 <1>   0.0800 
 23 H        3.5820    -1.7300    -0.7510 H     1 <1>   0.0800 
 24 H        2.2590     0.9360    -0.6480 H     1 <1>   0.0800 
 25 H        2.1700    -3.7890     1.9530 H     1 <1>   0.1500 
 26 H       -1.0790    -4.5840    -1.6400 H     1 <1>   0.1500 
 27 H        1.1170    -5.9720     1.7500 H     1 <1>   0.1500 
 28 H       -1.2550    -0.5290    -1.8830 H     1 <1>   0.0800 
 29 H       -0.3430    -0.5840    -0.3800 H     1 <1>   0.0800 
 30 H       -1.7910    -1.5730    -0.5680 H     1 <1>   0.0800 
 31 H       -1.0750    -8.5370     0.3560 H     1 <1>   0.0800 
 32 H       -0.7530    -7.4350     1.6900 H     1 <1>   0.0800 
 33 H        0.5720    -7.9870     0.6480 H     1 <1>   0.0800 
@<TRIPOS>BOND
  1   1   2  2   
  2   2   3  am  
  3   2   4  1   
  4   3   5  1   
  5   3   6  1   
  6   4   7  1   
  7   4  20  1   
  8   4  21  1   
  9   5   8  ar  
 10   5   9  ar  
 11   6   7  1   
 12   6  22  1   
 13   6  23  1   
 14   7  10  1   
 15   7  24  1   
 16   8  11  1   
 17   8  12  ar  
 18   9  13  ar  
 19   9  25  1   
 20  10  14  ar  
 21  10  15  ar  
 22  11  16  1   
 23  12  17  ar  
 24  12  26  1   
 25  13  17  ar  
 26  13  27  1   
 27  16  28  1   
 28  16  29  1   
 29  16  30  1   
 30  17  18  1   
 31  18  19  1   
 32  19  31  1   
 33  19  32  1   
 34  19  33  1   
@<TRIPOS>SUBSTRUCTURE
  1 ****   5 GROUP 4 **** **** 0

# MOE 2024.06 (io_trps.svl 2023.06)
