@<TRIPOS>MOLECULE
1,6,7-Trimethyl-3-(2-oxo-propyl)-8-p-tolyl-1H,8H-imidazo[2,1-f]purine-2,4-dione
50 53 1 0 0 
SMALL
USER_CHARGES


@<TRIPOS>ATOM
  1 O        0.7210     0.0410    -0.9250 O.2   1 <1>  -0.5750 
  2 C        1.7190     0.7290    -0.8770 C.2   1 <1>   0.6860 
  3 N        1.6060     2.1110    -0.9350 N.am  1 <1>  -0.4260 
  4 N        2.9690     0.1350    -0.7530 N.am  1 <1>  -0.4420 
  5 C        2.7250     2.9270    -0.9230 C.2   1 <1>   0.6990 
  6 C        0.3150     2.7210    -0.4850 C.3   1 <1>   0.1940 
  7 C        4.0680     0.9600    -0.6230 C.2   1 <1>   0.4200 
  8 C        3.0980    -1.3500    -0.6690 C.3   1 <1>   0.0520 
  9 O        2.6080     4.1300    -1.0940 O.2   1 <1>  -0.5750 
 10 C        3.9950     2.3130    -0.7070 C.2   1 <1>   0.2700 
 11 C        0.3040     2.8720     1.0360 C.2   1 <1>   0.4430 
 12 N        5.3630     0.5910    -0.3950 N.pl3 1 <1>  -0.7040 
 13 N        5.3040     2.7890    -0.5290 N.pl3 1 <1>  -0.6330 
 14 O        1.2740     2.6440     1.7010 O.2   1 <1>  -0.5750 
 15 C       -0.9920     3.3280     1.6700 C.3   1 <1>  -0.1860 
 16 C        6.0670     1.7240    -0.3370 C.cat 1 <1>   1.0690 
 17 C        6.1270     3.8910    -0.4250 C.2   1 <1>   0.2340 
 18 N        7.3460     2.0500    -0.1270 N.pl3 1 <1>  -0.5550 
 19 C        7.3800     3.4380    -0.1810 C.2   1 <1>   0.1580 
 20 C        5.5670     5.2910    -0.5800 C.3   1 <1>  -0.1090 
 21 C        8.3950     1.1530     0.1130 C.ar  1 <1>   0.3050 
 22 C        8.6820     4.1910     0.0230 C.3   1 <1>  -0.1090 
 23 C        9.1180     0.6250    -0.9450 C.ar  1 <1>  -0.1570 
 24 C        8.7040     0.7690     1.4100 C.ar  1 <1>  -0.1570 
 25 C       10.1300    -0.2880    -0.7110 C.ar  1 <1>  -0.1570 
 26 C        9.7160    -0.1440     1.6430 C.ar  1 <1>  -0.1570 
 27 C       10.4300    -0.6790     0.5830 C.ar  1 <1>  -0.1510 
 28 C       11.5430    -1.6790     0.8400 C.3   1 <1>  -0.1040 
 29 H       -0.5130     2.1060    -0.7900 H     1 <1>   0.0720 
 30 H        0.1880     3.6870    -0.9390 H     1 <1>   0.0720 
 31 H        2.2800    -1.8270    -1.1830 H     1 <1>   0.0720 
 32 H        3.0790    -1.6560     0.3620 H     1 <1>   0.0720 
 33 H        4.0150    -1.6760    -1.1260 H     1 <1>   0.0720 
 34 H        5.7480    -0.3400    -0.2530 H     1 <1>   0.4450 
 35 H       -1.7730     2.6210     1.4610 H     1 <1>   0.0720 
 36 H       -1.2700     4.2930     1.2870 H     1 <1>   0.0720 
 37 H       -0.8680     3.4020     2.7360 H     1 <1>   0.0720 
 38 H        5.1220     5.4040    -1.5530 H     1 <1>   0.0720 
 39 H        6.3380     6.0300    -0.4680 H     1 <1>   0.0720 
 40 H        4.8110     5.4680     0.1640 H     1 <1>   0.0720 
 41 H        9.0870     3.9730     0.9960 H     1 <1>   0.0720 
 42 H        8.5300     5.2520    -0.0520 H     1 <1>   0.0720 
 43 H        9.4000     3.8960    -0.7220 H     1 <1>   0.0720 
 44 H        8.8960     0.9250    -1.9530 H     1 <1>   0.1430 
 45 H        8.1590     1.1810     2.2390 H     1 <1>   0.1430 
 46 H       10.6900    -0.6940    -1.5380 H     1 <1>   0.1430 
 47 H        9.9540    -0.4380     2.6530 H     1 <1>   0.1430 
 48 H       12.4750    -1.1600     0.9770 H     1 <1>   0.0720 
 49 H       11.6430    -2.3560     0.0110 H     1 <1>   0.0720 
 50 H       11.3370    -2.2560     1.7240 H     1 <1>   0.0720 
@<TRIPOS>BOND
  1   1   2  2   
  2   2   3  am  
  3   2   4  am  
  4   3   5  am  
  5   3   6  1   
  6   4   7  1   
  7   4   8  1   
  8   5   9  2   
  9   5  10  1   
 10   6  11  1   
 11   6  29  1   
 12   6  30  1   
 13   7  10  2   
 14   7  12  1   
 15   8  31  1   
 16   8  32  1   
 17   8  33  1   
 18  10  13  1   
 19  11  14  2   
 20  11  15  1   
 21  12  16  ar  
 22  12  34  1   
 23  13  16  ar  
 24  13  17  1   
 25  15  35  1   
 26  15  36  1   
 27  15  37  1   
 28  16  18  ar  
 29  17  19  2   
 30  17  20  1   
 31  18  19  1   
 32  18  21  1   
 33  19  22  1   
 34  20  38  1   
 35  20  39  1   
 36  20  40  1   
 37  21  23  ar  
 38  21  24  ar  
 39  22  41  1   
 40  22  42  1   
 41  22  43  1   
 42  23  25  ar  
 43  23  44  1   
 44  24  26  ar  
 45  24  45  1   
 46  25  27  ar  
 47  25  46  1   
 48  26  27  ar  
 49  26  47  1   
 50  27  28  1   
 51  28  48  1   
 52  28  49  1   
 53  28  50  1   
@<TRIPOS>SUBSTRUCTURE
  1 ****  16 GROUP 4 **** **** 0

# MOE 2024.06 (io_trps.svl 2023.06)
