@<TRIPOS>MOLECULE
3-Ethyl-6-(4-methoxy-phenoxymethyl)-[1,2,4]triazolo[3,4-b][1,3,4]thiadiazole
34 36 1 0 0 
SMALL
USER_CHARGES


@<TRIPOS>ATOM
  1 S       -0.1720    -0.1900     0.0120 S.3   1 <1>  -0.1970 
  2 C        0.6290     1.3670     0.0100 C.2   1 <1>   0.2420 
  3 C       -1.7310     0.6640     0.0080 C.2   1 <1>   0.5300 
  4 N        1.8440     1.7850     0.0110 N.2   1 <1>  -0.3380 
  5 N       -0.2890     2.3170     0.0080 N.pl3 1 <1>   0.5050 
  6 N       -1.6330     1.9360     0.0060 N.2   1 <1>  -0.6520 
  7 C       -2.9540    -0.2440     0.0080 C.3   1 <1>   0.1810 
  8 N        1.7340     3.1280     0.0090 N.2   1 <1>  -0.3380 
  9 C        0.4670     3.4260     0.0070 C.2   1 <1>   0.0060 
 10 O       -4.1540     0.5070     0.0040 O.3   1 <1>  -0.3630 
 11 C       -0.1500     4.8190     0.0040 C.3   1 <1>   0.0200 
 12 C       -5.3650    -0.1090     0.0030 C.ar  1 <1>   0.0830 
 13 C        0.8960     5.9400     0.0020 C.3   1 <1>  -0.2400 
 14 C       -5.5360    -1.4910     0.0060 C.ar  1 <1>  -0.1500 
 15 C       -6.4790     0.7150    -0.0010 C.ar  1 <1>  -0.1500 
 16 C       -6.8120    -2.0270     0.0040 C.ar  1 <1>  -0.1500 
 17 C       -7.7550     0.1780    -0.0030 C.ar  1 <1>  -0.1500 
 18 C       -7.9260    -1.2040     0.0000 C.ar  1 <1>   0.0830 
 19 O       -9.1380    -1.8170    -0.0010 O.3   1 <1>  -0.3630 
 20 C      -10.3330    -1.0670    -0.0050 C.3   1 <1>   0.0400 
 21 H       -2.9460    -0.8570     0.8900 H     1 <1>   0.0800 
 22 H       -2.9430    -0.8610    -0.8720 H     1 <1>   0.0800 
 23 H       -0.7750     4.9220     0.8730 H     1 <1>   0.0800 
 24 H       -0.7750     4.9190    -0.8660 H     1 <1>   0.0800 
 25 H        1.5200     5.8670     0.8760 H     1 <1>   0.0800 
 26 H        0.4130     6.9010     0.0000 H     1 <1>   0.0800 
 27 H        1.5210     5.8640    -0.8710 H     1 <1>   0.0800 
 28 H       -4.7010    -2.1660     0.0090 H     1 <1>   0.1500 
 29 H       -6.3400     1.7810    -0.0030 H     1 <1>   0.1500 
 30 H       -6.9560    -3.0930     0.0070 H     1 <1>   0.1500 
 31 H       -8.5950     0.8460    -0.0060 H     1 <1>   0.1500 
 32 H      -11.1580    -1.7560    -0.0060 H     1 <1>   0.0800 
 33 H      -10.3610    -0.4620    -0.8940 H     1 <1>   0.0800 
 34 H      -10.3650    -0.4580     0.8800 H     1 <1>   0.0800 
@<TRIPOS>BOND
  1   1   2  1   
  2   1   3  1   
  3   2   4  2   
  4   2   5  1   
  5   3   6  2   
  6   3   7  1   
  7   4   8  1   
  8   5   6  1   
  9   5   9  1   
 10   7  10  1   
 11   7  21  1   
 12   7  22  1   
 13   8   9  2   
 14   9  11  1   
 15  10  12  1   
 16  11  13  1   
 17  11  23  1   
 18  11  24  1   
 19  12  14  ar  
 20  12  15  ar  
 21  13  25  1   
 22  13  26  1   
 23  13  27  1   
 24  14  16  ar  
 25  14  28  1   
 26  15  17  ar  
 27  15  29  1   
 28  16  18  ar  
 29  16  30  1   
 30  17  18  ar  
 31  17  31  1   
 32  18  19  1   
 33  19  20  1   
 34  20  32  1   
 35  20  33  1   
 36  20  34  1   
@<TRIPOS>SUBSTRUCTURE
  1 ****  10 GROUP 4 **** **** 0

# MOE 2024.06 (io_trps.svl 2023.06)
