@<TRIPOS>MOLECULE
2-(4-Amino-6-oxo-5-phenyl-1,6-dihydro-pyrimidin-2-ylsulfanyl)-N-(tetrahydro-fura
45 47 1 0 0 
SMALL
USER_CHARGES


@<TRIPOS>ATOM
  1 S        0.6980     1.2370    -0.0920 S.3   1 <1>  -0.3710 
  2 C       -0.9900     1.7760    -0.1370 C.2   1 <1>   0.6410 
  3 C        1.4380     2.0070    -1.6230 C.3   1 <1>   0.1310 
  4 N       -1.7380     1.3630     0.9110 N.pl3 1 <1>  -0.5500 
  5 N       -1.3990     2.4900    -1.1090 N.2   1 <1>  -0.6610 
  6 C        2.9070     1.6390    -1.7840 C.2   1 <1>   0.5690 
  7 C       -3.0410     1.6970     1.0020 C.2   1 <1>   0.2000 
  8 C       -2.7180     2.8640    -1.0630 C.2   1 <1>   0.7670 
  9 O        3.6180     2.3630    -2.4370 O.2   1 <1>  -0.5700 
 10 N        3.3880     0.5130    -1.1950 N.am  1 <1>  -0.7300 
 11 N       -3.7080     1.2050     2.0740 N.pl3 1 <1>  -0.9000 
 12 C       -3.5800     2.4870     0.0080 C.2   1 <1>  -0.0140 
 13 O       -3.1120     3.5410    -2.0060 O.2   1 <1>  -0.5700 
 14 C        4.8010     0.0490    -1.2670 C.3   1 <1>   0.1400 
 15 C       -4.9560     2.9160     0.0440 C.ar  1 <1>   0.0280 
 16 C        5.7060     0.8340    -0.3060 C.3   1 <1>   0.2000 
 17 C       -5.8480     2.5900    -0.9780 C.ar  1 <1>  -0.1500 
 18 C       -5.4460     3.6660     1.1140 C.ar  1 <1>  -0.1500 
 19 O        6.9490     0.2190    -0.2360 O.3   1 <1>  -0.5600 
 20 C        5.2350     0.8690     1.1430 C.3   1 <1>  -0.1600 
 21 C       -7.1720     2.9840    -0.9290 C.ar  1 <1>  -0.1500 
 22 C       -6.7690     4.0630     1.1680 C.ar  1 <1>  -0.1500 
 23 C        7.6160     0.6250     0.9150 C.3   1 <1>   0.1200 
 24 C        6.5340     1.0140     1.9210 C.3   1 <1>  -0.1600 
 25 C       -7.6370     3.7210     0.1470 C.ar  1 <1>  -0.1500 
 26 H        1.3300     3.0720    -1.5300 H     1 <1>   0.0800 
 27 H        0.8730     1.6580    -2.4660 H     1 <1>   0.0800 
 28 H       -1.2870     0.7940     1.6220 H     1 <1>   0.4000 
 29 H        2.7670    -0.0170    -0.5790 H     1 <1>   0.3700 
 30 H       -4.7170     1.3670     2.1880 H     1 <1>   0.4000 
 31 H       -3.3050     0.5930     2.7870 H     1 <1>   0.4000 
 32 H        5.1660     0.1810    -2.2710 H     1 <1>   0.0800 
 33 H        4.8400    -0.9980    -1.0200 H     1 <1>   0.0800 
 34 H        5.8590     1.8330    -0.6790 H     1 <1>   0.0800 
 35 H       -5.4960     2.0250    -1.8230 H     1 <1>   0.1500 
 36 H       -4.7770     3.9430     1.9100 H     1 <1>   0.1500 
 37 H        4.7560    -0.0610     1.3930 H     1 <1>   0.0800 
 38 H        4.5520     1.6820     1.3170 H     1 <1>   0.0800 
 39 H       -7.8410     2.7220    -1.7300 H     1 <1>   0.1500 
 40 H       -7.1260     4.6410     2.0030 H     1 <1>   0.1500 
 41 H        8.2370     1.4670     0.6630 H     1 <1>   0.0800 
 42 H        8.2240    -0.1920     1.2650 H     1 <1>   0.0800 
 43 H        6.5540     0.3690     2.7820 H     1 <1>   0.0800 
 44 H        6.6850     2.0300     2.2390 H     1 <1>   0.0800 
 45 H       -8.6670     4.0290     0.1850 H     1 <1>   0.1500 
@<TRIPOS>BOND
  1   1   2  1   
  2   1   3  1   
  3   2   4  1   
  4   2   5  2   
  5   3   6  1   
  6   3  26  1   
  7   3  27  1   
  8   4   7  1   
  9   4  28  1   
 10   5   8  1   
 11   6   9  2   
 12   6  10  am  
 13   7  11  1   
 14   7  12  2   
 15   8  12  1   
 16   8  13  2   
 17  10  14  1   
 18  10  29  1   
 19  11  30  1   
 20  11  31  1   
 21  12  15  1   
 22  14  16  1   
 23  14  32  1   
 24  14  33  1   
 25  15  17  ar  
 26  15  18  ar  
 27  16  19  1   
 28  16  20  1   
 29  16  34  1   
 30  17  21  ar  
 31  17  35  1   
 32  18  22  ar  
 33  18  36  1   
 34  19  23  1   
 35  20  24  1   
 36  20  37  1   
 37  20  38  1   
 38  21  25  ar  
 39  21  39  1   
 40  22  25  ar  
 41  22  40  1   
 42  23  24  1   
 43  23  41  1   
 44  23  42  1   
 45  24  43  1   
 46  24  44  1   
 47  25  45  1   
@<TRIPOS>SUBSTRUCTURE
  1 ****   2 GROUP 4 **** **** 0

# MOE 2024.06 (io_trps.svl 2023.06)
