@<TRIPOS>MOLECULE
2-(4-Ethyl-phenyl)-5,7-dimethyl-1,3-diaza-tricyclo[3.3.1.1*3,7*]decan-6-ol
48 51 1 0 0 
SMALL
USER_CHARGES


@<TRIPOS>ATOM
  1 O       -0.7420    -0.7700     0.2160 O.3   1 <1>  -0.6800 
  2 C        0.5880    -0.7300     0.6100 C.3   1 <1>   0.2000 
  3 C        1.4780    -0.1830    -0.5350 C.3   1 <1>   0.0000 
  4 C        1.0720    -2.1390     1.0370 C.3   1 <1>   0.0000 
  5 C        2.9140    -0.0960     0.0050 C.3   1 <1>   0.3430 
  6 C        1.5070    -1.1960    -1.6970 C.3   1 <1>   0.1100 
  7 C        1.0150     1.2020    -1.0260 C.3   1 <1>  -0.2400 
  8 C        2.5240    -2.0120     1.5190 C.3   1 <1>   0.3430 
  9 C        1.1160    -3.0630    -0.1900 C.3   1 <1>   0.1100 
 10 C        0.1990    -2.7470     2.1520 C.3   1 <1>  -0.2400 
 11 N        3.3850    -1.4510     0.4250 N.4   1 <1>  -0.9590 
 12 N        2.0260    -2.4850    -1.2030 N.3   1 <1>  -0.8100 
 13 C        3.4180    -2.3640    -0.7430 C.3   1 <1>   0.8360 
 14 C        4.0730    -3.7110    -0.4010 C.ar  1 <1>  -0.1440 
 15 C        3.7030    -4.8590    -1.0960 C.ar  1 <1>  -0.1500 
 16 C        5.0660    -3.8280     0.5710 C.ar  1 <1>  -0.1500 
 17 C        4.2800    -6.0830    -0.8110 C.ar  1 <1>  -0.1500 
 18 C        5.6410    -5.0550     0.8540 C.ar  1 <1>  -0.1500 
 19 C        5.2490    -6.1900     0.1690 C.ar  1 <1>  -0.1440 
 20 C        5.8840    -7.5370     0.4800 C.3   1 <1>  -0.0170 
 21 C        7.1280    -7.7560    -0.3840 C.3   1 <1>  -0.2400 
 22 H       -0.8760    -1.3850    -0.5300 H     1 <1>   0.4000 
 23 H        0.6320    -0.0610     1.4540 H     1 <1>   0.0800 
 24 H        2.9400     0.5800     0.8440 H     1 <1>   0.0800 
 25 H        3.5600     0.2960    -0.7640 H     1 <1>   0.0800 
 26 H        2.1340    -0.8350    -2.4960 H     1 <1>   0.0800 
 27 H        0.5180    -1.3340    -2.1030 H     1 <1>   0.0800 
 28 H        1.6770     1.5860    -1.7830 H     1 <1>   0.0800 
 29 H        0.9840     1.9040    -0.2100 H     1 <1>   0.0800 
 30 H        0.0260     1.1450    -1.4480 H     1 <1>   0.0800 
 31 H        2.5600    -1.3690     2.3830 H     1 <1>   0.0800 
 32 H        2.8860    -2.9860     1.8090 H     1 <1>   0.0800 
 33 H        0.1310    -3.1800    -0.6120 H     1 <1>   0.0800 
 34 H        1.4540    -4.0450     0.0970 H     1 <1>   0.0800 
 35 H        0.1660    -2.0950     3.0080 H     1 <1>   0.0800 
 36 H        0.5830    -3.7030     2.4640 H     1 <1>   0.0800 
 37 H       -0.8110    -2.8910     1.8080 H     1 <1>   0.0800 
 38 H        4.3510    -1.3980     0.7510 H     1 <1>   0.4500 
 39 H        3.9980    -1.9140    -1.5340 H     1 <1>   0.0800 
 40 H        2.9580    -4.8140    -1.8730 H     1 <1>   0.1500 
 41 H        5.4250    -2.9820     1.1260 H     1 <1>   0.1500 
 42 H        3.9730    -6.9570    -1.3620 H     1 <1>   0.1500 
 43 H        6.4050    -5.1270     1.6100 H     1 <1>   0.1500 
 44 H        5.1750    -8.3250     0.2950 H     1 <1>   0.0800 
 45 H        6.1550    -7.5810     1.5200 H     1 <1>   0.0800 
 46 H        6.8650    -7.7320    -1.4260 H     1 <1>   0.0800 
 47 H        7.5700    -8.7100    -0.1600 H     1 <1>   0.0800 
 48 H        7.8540    -6.9850    -0.1930 H     1 <1>   0.0800 
@<TRIPOS>BOND
  1   1   2  1   
  2   1  22  1   
  3   2   3  1   
  4   2   4  1   
  5   2  23  1   
  6   3   5  1   
  7   3   6  1   
  8   3   7  1   
  9   4   8  1   
 10   4   9  1   
 11   4  10  1   
 12   5  11  1   
 13   5  24  1   
 14   5  25  1   
 15   6  12  1   
 16   6  26  1   
 17   6  27  1   
 18   7  28  1   
 19   7  29  1   
 20   7  30  1   
 21   8  11  1   
 22   8  31  1   
 23   8  32  1   
 24   9  12  1   
 25   9  33  1   
 26   9  34  1   
 27  10  35  1   
 28  10  36  1   
 29  10  37  1   
 30  11  13  1   
 31  11  38  1   
 32  12  13  1   
 33  13  14  1   
 34  13  39  1   
 35  14  15  ar  
 36  14  16  ar  
 37  15  17  ar  
 38  15  40  1   
 39  16  18  ar  
 40  16  41  1   
 41  17  19  ar  
 42  17  42  1   
 43  18  19  ar  
 44  18  43  1   
 45  19  20  1   
 46  20  21  1   
 47  20  44  1   
 48  20  45  1   
 49  21  46  1   
 50  21  47  1   
 51  21  48  1   
@<TRIPOS>SUBSTRUCTURE
  1 ****  13 GROUP 4 **** **** 0

# MOE 2024.06 (io_trps.svl 2023.06)
