@<TRIPOS>MOLECULE
4-(4-Methyl-piperazin-1-yl)-3-(2-phenoxy-acetylamino)-benzoic acid methyl ester
54 56 1 0 0 
SMALL
USER_CHARGES


@<TRIPOS>ATOM
  1 O        0.4740    -0.3610     0.1380 O.2   1 <1>  -0.5700 
  2 C        1.2570    -1.2870     0.1990 C.2   1 <1>   0.6340 
  3 O        0.7760    -2.5170     0.4230 O.3   1 <1>  -0.4300 
  4 C        2.6890    -1.1360     0.0400 C.ar  1 <1>   0.0860 
  5 C       -0.6080    -2.7530     0.5940 C.3   1 <1>   0.0400 
  6 C        3.2730     0.1260    -0.0940 C.ar  1 <1>  -0.1500 
  7 C        3.5540    -2.2340     0.0060 C.ar  1 <1>  -0.1500 
  8 C        4.6370     0.2940    -0.2560 C.ar  1 <1>   0.1170 
  9 C        4.9190    -2.0820    -0.1490 C.ar  1 <1>  -0.1500 
 10 N        5.2100     1.5620    -0.4250 N.am  1 <1>  -0.5470 
 11 C        5.4900    -0.8220    -0.2790 C.ar  1 <1>   0.1000 
 12 C        4.9850     2.7340     0.2340 C.2   1 <1>   0.5690 
 13 N        6.8800    -0.6680    -0.4060 N.pl3 1 <1>  -0.8380 
 14 O        4.0280     2.9250     0.9430 O.2   1 <1>  -0.5700 
 15 C        6.0350     3.8290     0.1060 C.3   1 <1>   0.1810 
 16 C        7.6330    -0.0100     0.7130 C.3   1 <1>   0.2090 
 17 C        7.6760    -1.5330    -1.3320 C.3   1 <1>   0.2090 
 18 O        7.2710     3.2770    -0.3430 O.3   1 <1>  -0.3630 
 19 C        8.5770    -0.9990     1.4280 C.3   1 <1>   0.3430 
 20 C        8.6330    -2.4730    -0.5640 C.3   1 <1>   0.3430 
 21 C        8.3690     4.0530    -0.5090 C.ar  1 <1>   0.0830 
 22 N        9.4670    -1.7490     0.4670 N.4   1 <1>  -0.9590 
 23 C        8.5200     5.3080     0.0740 C.ar  1 <1>  -0.1500 
 24 C        9.3810     3.5410    -1.3050 C.ar  1 <1>  -0.1500 
 25 C       10.3730    -2.6900     1.1930 C.3   1 <1>   0.2630 
 26 C        9.6810     6.0310    -0.1390 C.ar  1 <1>  -0.1500 
 27 C       10.5400     4.2660    -1.5170 C.ar  1 <1>  -0.1500 
 28 C       10.6900     5.5110    -0.9320 C.ar  1 <1>  -0.1500 
 29 H       -0.7570    -3.8040     0.7610 H     1 <1>   0.0800 
 30 H       -1.1260    -2.4400    -0.2960 H     1 <1>   0.0800 
 31 H       -0.9540    -2.1880     1.4430 H     1 <1>   0.0800 
 32 H        2.6380     0.9960    -0.0740 H     1 <1>   0.1500 
 33 H        3.1460    -3.2250     0.1040 H     1 <1>   0.1500 
 34 H        5.5400    -2.9550    -0.1590 H     1 <1>   0.1500 
 35 H        6.1120     1.5160    -0.9040 H     1 <1>   0.3700 
 36 H        6.1840     4.2750     1.0720 H     1 <1>   0.0800 
 37 H        5.7120     4.5700    -0.6010 H     1 <1>   0.0800 
 38 H        6.9380     0.3890     1.4320 H     1 <1>   0.0800 
 39 H        8.2030     0.8140     0.3210 H     1 <1>   0.0800 
 40 H        8.2470    -0.9020    -1.9920 H     1 <1>   0.0800 
 41 H        7.0120    -2.1170    -1.9460 H     1 <1>   0.0800 
 42 H        7.9700    -1.6990     1.9790 H     1 <1>   0.0800 
 43 H        9.1780    -0.4550     2.1380 H     1 <1>   0.0800 
 44 H        9.2760    -2.9700    -1.2720 H     1 <1>   0.0800 
 45 H        8.0390    -3.2270    -0.0760 H     1 <1>   0.0800 
 46 H       10.0390    -1.0510    -0.0300 H     1 <1>   0.4500 
 47 H        7.7590     5.7380     0.6960 H     1 <1>   0.1500 
 48 H        9.2580     2.5790    -1.7660 H     1 <1>   0.1500 
 49 H        9.7970    -3.4300     1.7250 H     1 <1>   0.0800 
 50 H       10.9800    -2.1510     1.9030 H     1 <1>   0.0800 
 51 H       11.0250    -3.1940     0.4990 H     1 <1>   0.0800 
 52 H        9.8030     7.0010     0.3120 H     1 <1>   0.1500 
 53 H       11.3240     3.8690    -2.1390 H     1 <1>   0.1500 
 54 H       11.5910     6.0780    -1.0960 H     1 <1>   0.1500 
@<TRIPOS>BOND
  1   1   2  2   
  2   2   3  1   
  3   2   4  1   
  4   3   5  1   
  5   4   6  ar  
  6   4   7  ar  
  7   5  29  1   
  8   5  30  1   
  9   5  31  1   
 10   6   8  ar  
 11   6  32  1   
 12   7   9  ar  
 13   7  33  1   
 14   8  10  1   
 15   8  11  ar  
 16   9  11  ar  
 17   9  34  1   
 18  10  12  am  
 19  10  35  1   
 20  11  13  1   
 21  12  14  2   
 22  12  15  1   
 23  13  16  1   
 24  13  17  1   
 25  15  18  1   
 26  15  36  1   
 27  15  37  1   
 28  16  19  1   
 29  16  38  1   
 30  16  39  1   
 31  17  20  1   
 32  17  40  1   
 33  17  41  1   
 34  18  21  1   
 35  19  22  1   
 36  19  42  1   
 37  19  43  1   
 38  20  22  1   
 39  20  44  1   
 40  20  45  1   
 41  21  23  ar  
 42  21  24  ar  
 43  22  25  1   
 44  22  46  1   
 45  23  26  ar  
 46  23  47  1   
 47  24  27  ar  
 48  24  48  1   
 49  25  49  1   
 50  25  50  1   
 51  25  51  1   
 52  26  28  ar  
 53  26  52  1   
 54  27  28  ar  
 55  27  53  1   
 56  28  54  1   
@<TRIPOS>SUBSTRUCTURE
  1 ****  10 GROUP 4 **** **** 0

# MOE 2024.06 (io_trps.svl 2023.06)
