@<TRIPOS>MOLECULE
N-(4-Isopropyl-phenyl)-2-(4-methyl-5-morpholin-4-ylmethyl-4H-[1,2,4]triazol-3-yl
54 56 1 0 0 
SMALL
USER_CHARGES


@<TRIPOS>ATOM
  1 S       -0.0040    -0.4100    -1.0730 S.3   1 <1>  -0.2860 
  2 C       -0.8610     0.4380     0.2550 C.2   1 <1>   0.2420 
  3 C        1.7270     0.2510    -0.9180 C.3   1 <1>   0.1310 
  4 N       -0.3090     0.7230     1.3830 N.2   1 <1>  -0.3380 
  5 N       -2.0890     0.9300     0.1160 N.pl3 1 <1>   0.0480 
  6 C        1.7480     1.7500    -1.1940 C.2   1 <1>   0.5690 
  7 N       -1.1870     1.4960     2.0250 N.2   1 <1>  -0.3380 
  8 C       -2.2230     1.6230     1.2580 C.2   1 <1>   0.0060 
  9 C       -2.9880     0.8410    -1.0530 C.3   1 <1>   0.0160 
 10 O        2.2190     2.1310    -2.2380 O.2   1 <1>  -0.5700 
 11 N        1.2410     2.5920    -0.2400 N.am  1 <1>  -0.5470 
 12 C       -3.4240     2.5000     1.5860 C.3   1 <1>   0.2900 
 13 C        1.0120     3.9740    -0.2040 C.ar  1 <1>   0.1170 
 14 N       -3.7470     3.4210     0.4750 N.3   1 <1>  -0.8100 
 15 C        1.0570     4.7960    -1.3240 C.ar  1 <1>  -0.1500 
 16 C        0.6870     4.5460     1.0190 C.ar  1 <1>  -0.1500 
 17 C       -4.9400     4.2310     0.7860 C.3   1 <1>   0.1100 
 18 C       -2.6130     4.3280     0.1730 C.3   1 <1>   0.1100 
 19 C        0.7790     6.1470    -1.2210 C.ar  1 <1>  -0.1500 
 20 C        0.4130     5.8970     1.1230 C.ar  1 <1>  -0.1500 
 21 C       -5.2390     5.2330    -0.3460 C.3   1 <1>   0.1200 
 22 C       -2.9790     5.3230    -0.9400 C.3   1 <1>   0.1200 
 23 C        0.4510     6.7140     0.0020 C.ar  1 <1>  -0.1430 
 24 O       -4.1270     6.0450    -0.5910 O.3   1 <1>  -0.5600 
 25 C        0.1550     8.2100     0.0990 C.3   1 <1>   0.0630 
 26 C        1.2390     8.9160     0.9190 C.3   1 <1>  -0.2400 
 27 C       -1.2320     8.4750     0.6960 C.3   1 <1>  -0.2400 
 28 H        2.3300    -0.2710    -1.6380 H     1 <1>   0.0800 
 29 H        2.0710     0.0350     0.0760 H     1 <1>   0.0800 
 30 H       -2.8420    -0.0970    -1.5550 H     1 <1>   0.0800 
 31 H       -2.7690     1.6510    -1.7250 H     1 <1>   0.0800 
 32 H       -4.0100     0.9170    -0.7290 H     1 <1>   0.0800 
 33 H        0.8640     2.1080     0.5850 H     1 <1>   0.3700 
 34 H       -3.2140     3.0660     2.4790 H     1 <1>   0.0800 
 35 H       -4.2710     1.8660     1.7820 H     1 <1>   0.0800 
 36 H        1.3060     4.3830    -2.2840 H     1 <1>   0.1500 
 37 H        0.6450     3.9280     1.8980 H     1 <1>   0.1500 
 38 H       -4.7880     4.7790     1.7010 H     1 <1>   0.0800 
 39 H       -5.7900     3.5850     0.9160 H     1 <1>   0.0800 
 40 H       -1.7620     3.7580    -0.1550 H     1 <1>   0.0800 
 41 H       -2.3280     4.8770     1.0530 H     1 <1>   0.0800 
 42 H        0.8230     6.7580    -2.1060 H     1 <1>   0.1500 
 43 H        0.1700     6.3100     2.0860 H     1 <1>   0.1500 
 44 H       -6.0580     5.8740    -0.0710 H     1 <1>   0.0800 
 45 H       -5.4930     4.7130    -1.2530 H     1 <1>   0.0800 
 46 H       -3.1630     4.8040    -1.8640 H     1 <1>   0.0800 
 47 H       -2.1760     6.0220    -1.0910 H     1 <1>   0.0800 
 48 H        0.1680     8.6290    -0.8930 H     1 <1>   0.0800 
 49 H        1.2420     8.5590     1.9340 H     1 <1>   0.0800 
 50 H        1.0690     9.9770     0.9270 H     1 <1>   0.0800 
 51 H        2.2050     8.7260     0.4870 H     1 <1>   0.0800 
 52 H       -1.2950     8.1130     1.7060 H     1 <1>   0.0800 
 53 H       -1.9890     7.9860     0.1100 H     1 <1>   0.0800 
 54 H       -1.4390     9.5300     0.6990 H     1 <1>   0.0800 
@<TRIPOS>BOND
  1   1   2  1   
  2   1   3  1   
  3   2   4  2   
  4   2   5  1   
  5   3   6  1   
  6   3  28  1   
  7   3  29  1   
  8   4   7  1   
  9   5   8  1   
 10   5   9  1   
 11   6  10  2   
 12   6  11  am  
 13   7   8  2   
 14   8  12  1   
 15   9  30  1   
 16   9  31  1   
 17   9  32  1   
 18  11  13  1   
 19  11  33  1   
 20  12  14  1   
 21  12  34  1   
 22  12  35  1   
 23  13  15  ar  
 24  13  16  ar  
 25  14  17  1   
 26  14  18  1   
 27  15  19  ar  
 28  15  36  1   
 29  16  20  ar  
 30  16  37  1   
 31  17  21  1   
 32  17  38  1   
 33  17  39  1   
 34  18  22  1   
 35  18  40  1   
 36  18  41  1   
 37  19  23  ar  
 38  19  42  1   
 39  20  23  ar  
 40  20  43  1   
 41  21  24  1   
 42  21  44  1   
 43  21  45  1   
 44  22  24  1   
 45  22  46  1   
 46  22  47  1   
 47  23  25  1   
 48  25  26  1   
 49  25  27  1   
 50  25  48  1   
 51  26  49  1   
 52  26  50  1   
 53  26  51  1   
 54  27  52  1   
 55  27  53  1   
 56  27  54  1   
@<TRIPOS>SUBSTRUCTURE
  1 ****  18 GROUP 4 **** **** 0

# MOE 2024.06 (io_trps.svl 2023.06)
