@<TRIPOS>MOLECULE
N-(5-Ethoxymethyl-[1,3,4]thiadiazol-2-yl)-oxalamic acid ethyl ester
30 30 1 0 0 
SMALL
USER_CHARGES


@<TRIPOS>ATOM
  1 S       -0.5400     0.4160     0.7430 S.3   1 <1>  -0.0800 
  2 C       -2.1720     0.8250     1.1490 C.2   1 <1>   0.4420 
  3 C       -0.4780     1.8900    -0.1640 C.2   1 <1>   0.1980 
  4 N       -2.5430     1.9370     0.6290 N.2   1 <1>  -0.3380 
  5 N       -2.8610    -0.0440     1.9620 N.am  1 <1>  -0.4940 
  6 N       -1.5730     2.5380    -0.1230 N.2   1 <1>  -0.3380 
  7 C        0.8070     2.2390    -0.8970 C.3   1 <1>   0.3000 
  8 C       -4.1720    -0.0210     2.3660 C.2   1 <1>   0.6300 
  9 O        1.9010     2.1270    -0.0350 O.3   1 <1>  -0.5600 
 10 O       -4.4240    -0.7900     3.2760 O.2   1 <1>  -0.5700 
 11 C       -5.2010     0.8230     1.7430 C.2   1 <1>   0.7200 
 12 C        3.1160     2.4760    -0.6070 C.3   1 <1>   0.1200 
 13 O       -5.9700     1.5390     2.3590 O.2   1 <1>  -0.5700 
 14 O       -5.2990     0.7880     0.4070 O.3   1 <1>  -0.4300 
 15 C        4.1920     2.2830     0.4530 C.3   1 <1>  -0.2400 
 16 C       -6.1800     1.6310    -0.3000 C.3   1 <1>   0.1200 
 17 C       -5.9530     1.4010    -1.7900 C.3   1 <1>  -0.2400 
 18 H       -2.3190    -0.7750     2.4180 H     1 <1>   0.3700 
 19 H        0.7520     3.2520    -1.2560 H     1 <1>   0.0800 
 20 H        0.9490     1.5660    -1.7230 H     1 <1>   0.0800 
 21 H        3.0730     3.5070    -0.9190 H     1 <1>   0.0800 
 22 H        3.3020     1.8390    -1.4550 H     1 <1>   0.0800 
 23 H        3.9920     2.9130     1.3010 H     1 <1>   0.0800 
 24 H        5.1530     2.5450     0.0500 H     1 <1>   0.0800 
 25 H        4.2200     1.2560     0.7690 H     1 <1>   0.0800 
 26 H       -5.9630     2.6520    -0.0320 H     1 <1>   0.0800 
 27 H       -7.1900     1.3870    -0.0150 H     1 <1>   0.0800 
 28 H       -4.9370     1.6410    -2.0480 H     1 <1>   0.0800 
 29 H       -6.6100     2.0340    -2.3580 H     1 <1>   0.0800 
 30 H       -6.1580     0.3760    -2.0440 H     1 <1>   0.0800 
@<TRIPOS>BOND
  1   1   2  1   
  2   1   3  1   
  3   2   4  2   
  4   2   5  1   
  5   3   6  2   
  6   3   7  1   
  7   4   6  1   
  8   5   8  am  
  9   5  18  1   
 10   7   9  1   
 11   7  19  1   
 12   7  20  1   
 13   8  10  2   
 14   8  11  1   
 15   9  12  1   
 16  11  13  2   
 17  11  14  1   
 18  12  15  1   
 19  12  21  1   
 20  12  22  1   
 21  14  16  1   
 22  15  23  1   
 23  15  24  1   
 24  15  25  1   
 25  16  17  1   
 26  16  26  1   
 27  16  27  1   
 28  17  28  1   
 29  17  29  1   
 30  17  30  1   
@<TRIPOS>SUBSTRUCTURE
  1 ****   2 GROUP 4 **** **** 0

# MOE 2024.06 (io_trps.svl 2023.06)
