@<TRIPOS>MOLECULE
4-(3-Methanesulfonylamino-phenyl)-2-oxo-6-thiophen-2-yl-cyclohex-3-enecarboxylic
49 51 1 0 0 
SMALL
USER_CHARGES


@<TRIPOS>ATOM
  1 S        1.2520    -0.4390     0.9000 S.o2  1 <1>   1.3330 
  2 O        2.5940    -0.1490     0.4660 O.2   1 <1>  -0.6500 
  3 O        0.6630     0.2510     2.0180 O.2   1 <1>  -0.6500 
  4 N        1.1940    -2.0900     1.3530 N.am  1 <1>  -0.7570 
  5 C        0.1280    -0.3880    -0.4780 C.3   1 <1>  -0.1350 
  6 C        1.8100    -3.1290     0.6740 C.ar  1 <1>   0.1990 
  7 C        3.1820    -3.1590     0.4750 C.ar  1 <1>  -0.1500 
  8 C        1.0390    -4.1760     0.1900 C.ar  1 <1>  -0.1500 
  9 C        3.8070    -4.1990    -0.2070 C.ar  1 <1>   0.0280 
 10 C        1.6320    -5.2230    -0.4900 C.ar  1 <1>  -0.1500 
 11 C        5.2370    -4.1920    -0.4020 C.2   1 <1>  -0.1670 
 12 C        3.0000    -5.2310    -0.6870 C.ar  1 <1>  -0.1500 
 13 C        5.9660    -3.0940    -0.7070 C.2   1 <1>  -0.1360 
 14 C        5.9620    -5.5260    -0.2600 C.3   1 <1>  -0.0220 
 15 C        7.3800    -3.0630    -0.9090 C.2   1 <1>   0.4950 
 16 C        7.3970    -5.3290     0.2580 C.3   1 <1>   0.1000 
 17 O        7.9390    -2.1050    -1.3760 O.2   1 <1>  -0.5700 
 18 C        8.1860    -4.3040    -0.5840 C.3   1 <1>   0.0420 
 19 C        8.1330    -6.6640     0.3130 C.2   1 <1>  -0.1400 
 20 C        9.4340    -3.8720     0.1470 C.2   1 <1>   0.6590 
 21 S        9.3240    -6.8690     1.5910 S.3   1 <1>  -0.0800 
 22 C        8.0650    -7.7790    -0.4400 C.2   1 <1>  -0.1500 
 23 O        9.3860    -3.3560     1.2360 O.2   1 <1>  -0.5700 
 24 O       10.5840    -4.1300    -0.4630 O.3   1 <1>  -0.4300 
 25 C        9.7020    -8.4930     1.0480 C.2   1 <1>  -0.1100 
 26 C        8.9570    -8.8180    -0.0230 C.2   1 <1>  -0.1500 
 27 C       11.8170    -3.8120     0.1370 C.3   1 <1>   0.1200 
 28 C       12.9300    -4.2760    -0.7980 C.3   1 <1>  -0.2400 
 29 H        1.1930    -2.1440     2.3680 H     1 <1>   0.4200 
 30 H        0.0460     0.6150    -0.8480 H     1 <1>   0.0800 
 31 H       -0.8440    -0.7260    -0.1760 H     1 <1>   0.0800 
 32 H        0.4850    -1.0190    -1.2690 H     1 <1>   0.0800 
 33 H        3.7800    -2.3550     0.8650 H     1 <1>   0.1500 
 34 H       -0.0240    -4.1650     0.3480 H     1 <1>   0.1500 
 35 H        1.0270    -6.0310    -0.8660 H     1 <1>   0.1500 
 36 H        3.4430    -6.0480    -1.2270 H     1 <1>   0.1500 
 37 H        5.4910    -2.1370    -0.8390 H     1 <1>   0.1500 
 38 H        5.9730    -6.0170    -1.2170 H     1 <1>   0.0800 
 39 H        5.4370    -6.1560     0.4370 H     1 <1>   0.0800 
 40 H        7.3080    -4.9540     1.2650 H     1 <1>   0.0800 
 41 H        8.4700    -4.7560    -1.5150 H     1 <1>   0.0800 
 42 H        7.4220    -7.9340    -1.2890 H     1 <1>   0.1500 
 43 H       10.4500    -9.0370     1.5970 H     1 <1>   0.1500 
 44 H        8.9950    -9.7570    -0.5470 H     1 <1>   0.1500 
 45 H       11.8750    -4.3170     1.0870 H     1 <1>   0.0800 
 46 H       11.8560    -2.7470     0.2900 H     1 <1>   0.0800 
 47 H       12.8680    -5.3380    -0.9480 H     1 <1>   0.0800 
 48 H       13.8860    -4.0450    -0.3650 H     1 <1>   0.0800 
 49 H       12.8510    -3.7720    -1.7450 H     1 <1>   0.0800 
@<TRIPOS>BOND
  1   1   2  2   
  2   1   3  2   
  3   1   4  am  
  4   1   5  1   
  5   4   6  1   
  6   4  29  1   
  7   5  30  1   
  8   5  31  1   
  9   5  32  1   
 10   6   7  ar  
 11   6   8  ar  
 12   7   9  ar  
 13   7  33  1   
 14   8  10  ar  
 15   8  34  1   
 16   9  11  1   
 17   9  12  ar  
 18  10  12  ar  
 19  10  35  1   
 20  11  13  2   
 21  11  14  1   
 22  12  36  1   
 23  13  15  1   
 24  13  37  1   
 25  14  16  1   
 26  14  38  1   
 27  14  39  1   
 28  15  17  2   
 29  15  18  1   
 30  16  18  1   
 31  16  19  1   
 32  16  40  1   
 33  18  20  1   
 34  18  41  1   
 35  19  21  1   
 36  19  22  2   
 37  20  23  2   
 38  20  24  1   
 39  21  25  1   
 40  22  26  1   
 41  22  42  1   
 42  24  27  1   
 43  25  26  2   
 44  25  43  1   
 45  26  44  1   
 46  27  28  1   
 47  27  45  1   
 48  27  46  1   
 49  28  47  1   
 50  28  48  1   
 51  28  49  1   
@<TRIPOS>SUBSTRUCTURE
  1 ****  11 GROUP 4 **** **** 0

# MOE 2024.06 (io_trps.svl 2023.06)
