@<TRIPOS>MOLECULE
2-(4-Cyclopentylsulfamoyl-phenoxy)-N-pyridin-2-ylmethyl-acetamide
50 52 1 0 0 
SMALL
USER_CHARGES


@<TRIPOS>ATOM
  1 S       -0.2150     1.0990     1.5770 S.o2  1 <1>   1.4470 
  2 O       -0.9520     2.2960     1.2400 O.2   1 <1>  -0.6500 
  3 O       -0.5220     0.3750     2.7880 O.2   1 <1>  -0.6500 
  4 N       -0.4730    -0.0340     0.3720 N.am  1 <1>  -0.9140 
  5 C        1.5640     1.4190     1.4730 C.ar  1 <1>  -0.0090 
  6 C       -1.8300    -0.0360    -0.1350 C.3   1 <1>   0.2760 
  7 C        2.1660     1.7130     0.2550 C.ar  1 <1>  -0.1500 
  8 C        2.3690     1.3940     2.6070 C.ar  1 <1>  -0.1500 
  9 C       -2.1530    -1.4350    -0.6490 C.3   1 <1>  -0.1600 
 10 C       -1.9070     0.8140    -1.4000 C.3   1 <1>  -0.1600 
 11 C        3.5230     1.9690     0.1710 C.ar  1 <1>  -0.1500 
 12 C        3.7270     1.6480     2.5350 C.ar  1 <1>  -0.1500 
 13 C       -1.5340    -1.5220    -2.0480 C.3   1 <1>  -0.1600 
 14 C       -1.3970    -0.0760    -2.5400 C.3   1 <1>  -0.1600 
 15 C        4.3120     1.9400     1.3070 C.ar  1 <1>   0.0820 
 16 O        5.6280     2.2060     1.1420 O.3   1 <1>  -0.3620 
 17 C        6.5240     2.2340     2.2450 C.3   1 <1>   0.1810 
 18 C        7.9360     2.5990     1.8050 C.2   1 <1>   0.5690 
 19 O        8.8260     2.5570     2.6210 O.2   1 <1>  -0.5700 
 20 N        8.1660     2.9610     0.5190 N.am  1 <1>  -0.7300 
 21 C        9.4880     3.2660    -0.0710 C.3   1 <1>   0.2840 
 22 C        9.7420     2.3650    -1.2730 C.ar  1 <1>   0.1670 
 23 N        9.1600     2.7100    -2.4150 N.ar  1 <1>  -0.6200 
 24 C       10.5480     1.2460    -1.1220 C.ar  1 <1>  -0.1500 
 25 C        9.3950     1.9100    -3.4430 C.ar  1 <1>   0.1600 
 26 C       10.7840     0.4230    -2.2020 C.ar  1 <1>  -0.1500 
 27 C       10.1860     0.7750    -3.3930 C.ar  1 <1>  -0.1500 
 28 H       -0.3600    -0.9140     0.8670 H     1 <1>   0.4200 
 29 H       -2.5340     0.2770     0.6210 H     1 <1>   0.0800 
 30 H        1.5620     1.7400    -0.6370 H     1 <1>   0.1500 
 31 H        1.9230     1.1700     3.5630 H     1 <1>   0.1500 
 32 H       -3.2220    -1.5210    -0.7410 H     1 <1>   0.0800 
 33 H       -1.8060    -2.2130     0.0070 H     1 <1>   0.0800 
 34 H       -1.3520     1.7320    -1.3170 H     1 <1>   0.0800 
 35 H       -2.9380     1.0570    -1.5830 H     1 <1>   0.0800 
 36 H        3.9750     2.1940    -0.7790 H     1 <1>   0.1500 
 37 H        4.3050     1.6140     3.4390 H     1 <1>   0.1500 
 38 H       -2.1480    -2.1090    -2.7100 H     1 <1>   0.0800 
 39 H       -0.5570    -1.9700    -1.9860 H     1 <1>   0.0800 
 40 H       -0.3590     0.1400    -2.7320 H     1 <1>   0.0800 
 41 H       -1.9610     0.0930    -3.4410 H     1 <1>   0.0800 
 42 H        6.5350     1.2600     2.6990 H     1 <1>   0.0800 
 43 H        6.1750     2.9660     2.9490 H     1 <1>   0.0800 
 44 H        7.4000     2.9050    -0.1590 H     1 <1>   0.3700 
 45 H       10.2620     3.1280     0.6640 H     1 <1>   0.0800 
 46 H        9.5060     4.2940    -0.3890 H     1 <1>   0.0800 
 47 H       10.9830     1.0170    -0.1660 H     1 <1>   0.1500 
 48 H        8.9330     2.1730    -4.3790 H     1 <1>   0.1500 
 49 H       11.4040    -0.4530    -2.1190 H     1 <1>   0.1500 
 50 H       10.3280     0.1770    -4.2740 H     1 <1>   0.1500 
@<TRIPOS>BOND
  1   1   2  2   
  2   1   3  2   
  3   1   4  am  
  4   1   5  1   
  5   4   6  1   
  6   4  28  1   
  7   5   7  ar  
  8   5   8  ar  
  9   6   9  1   
 10   6  10  1   
 11   6  29  1   
 12   7  11  ar  
 13   7  30  1   
 14   8  12  ar  
 15   8  31  1   
 16   9  13  1   
 17   9  32  1   
 18   9  33  1   
 19  10  14  1   
 20  10  34  1   
 21  10  35  1   
 22  11  15  ar  
 23  11  36  1   
 24  12  15  ar  
 25  12  37  1   
 26  13  14  1   
 27  13  38  1   
 28  13  39  1   
 29  14  40  1   
 30  14  41  1   
 31  15  16  1   
 32  16  17  1   
 33  17  18  1   
 34  17  42  1   
 35  17  43  1   
 36  18  19  2   
 37  18  20  am  
 38  20  21  1   
 39  20  44  1   
 40  21  22  1   
 41  21  45  1   
 42  21  46  1   
 43  22  23  ar  
 44  22  24  ar  
 45  23  25  ar  
 46  24  26  ar  
 47  24  47  1   
 48  25  27  ar  
 49  25  48  1   
 50  26  27  ar  
 51  26  49  1   
 52  27  50  1   
@<TRIPOS>SUBSTRUCTURE
  1 ****  11 GROUP 4 **** **** 0

# MOE 2024.06 (io_trps.svl 2023.06)
