@<TRIPOS>MOLECULE
N-(1-Ethyl-8-methyl-1H-pyrazolo[3,4-b]quinolin-3-yl)-succinamic acid methyl este
45 47 1 0 0 
SMALL
USER_CHARGES


@<TRIPOS>ATOM
  1 O        0.8950    -1.1590     1.0050 O.2   1 <1>  -0.5700 
  2 C        0.7400    -1.5900    -0.1080 C.2   1 <1>   0.6590 
  3 O        1.5080    -1.2200    -1.1240 O.3   1 <1>  -0.4300 
  4 C       -0.3400    -2.6020    -0.4360 C.3   1 <1>  -0.0990 
  5 C        2.5560    -0.2880    -0.9610 C.3   1 <1>   0.0400 
  6 C       -1.4950    -2.6050     0.5840 C.3   1 <1>  -0.0990 
  7 C       -2.5410    -3.6400     0.2290 C.2   1 <1>   0.5690 
  8 O       -3.2690    -3.4110    -0.7030 O.2   1 <1>  -0.5700 
  9 N       -2.5790    -4.7810     0.9640 N.am  1 <1>  -0.4930 
 10 C       -3.3540    -5.9290     0.8570 C.2   1 <1>   0.3520 
 11 N       -2.8660    -7.0150     1.3380 N.2   1 <1>  -0.7070 
 12 C       -4.6570    -6.0900     0.3060 C.ar  1 <1>   0.0000 
 13 N       -3.8170    -7.9630     1.1000 N.pl3 1 <1>   0.3140 
 14 C       -4.9200    -7.4460     0.4810 C.ar  1 <1>   0.1050 
 15 C       -5.6350    -5.3150    -0.2750 C.ar  1 <1>  -0.1500 
 16 C       -3.6310    -9.3740     1.4950 C.3   1 <1>   0.0960 
 17 N       -6.0190    -8.0910     0.1280 N.ar  1 <1>  -0.5670 
 18 C       -6.8170    -5.9360    -0.6750 C.ar  1 <1>   0.0000 
 19 C       -2.9890   -10.1840     0.3620 C.3   1 <1>  -0.2400 
 20 C       -6.9710    -7.3370    -0.4570 C.ar  1 <1>   0.3100 
 21 C       -7.8660    -5.2150    -1.2910 C.ar  1 <1>  -0.1500 
 22 C       -8.1860    -7.9460    -0.8760 C.ar  1 <1>  -0.1430 
 23 C       -9.0160    -5.8340    -1.6770 C.ar  1 <1>  -0.1500 
 24 C       -9.1760    -7.2110    -1.4680 C.ar  1 <1>  -0.1500 
 25 C       -8.3880    -9.4430    -0.6630 C.3   1 <1>  -0.0970 
 26 H        0.1140    -3.5750    -0.4760 H     1 <1>   0.0800 
 27 H       -0.7320    -2.3780    -1.4120 H     1 <1>   0.0800 
 28 H        3.0370    -0.1440    -1.9120 H     1 <1>   0.0800 
 29 H        3.2590    -0.6770    -0.2450 H     1 <1>   0.0800 
 30 H        2.1440     0.6420    -0.6090 H     1 <1>   0.0800 
 31 H       -1.9650    -1.6370     0.5940 H     1 <1>   0.0800 
 32 H       -1.1140    -2.7950     1.5710 H     1 <1>   0.0800 
 33 H       -1.8300    -4.9240     1.6350 H     1 <1>   0.3700 
 34 H       -5.5030    -4.2600    -0.4200 H     1 <1>   0.1500 
 35 H       -4.5910    -9.7870     1.7470 H     1 <1>   0.0800 
 36 H       -3.0050    -9.4000     2.3690 H     1 <1>   0.0800 
 37 H       -3.6210   -10.1680    -0.5090 H     1 <1>   0.0800 
 38 H       -2.8580   -11.2050     0.6710 H     1 <1>   0.0800 
 39 H       -2.0260    -9.7730     0.1120 H     1 <1>   0.0800 
 40 H       -7.7320    -4.1600    -1.4490 H     1 <1>   0.1500 
 41 H       -9.8130    -5.2830    -2.1460 H     1 <1>   0.1500 
 42 H      -10.0970    -7.6680    -1.7860 H     1 <1>   0.1500 
 43 H       -8.3280    -9.6730     0.3860 H     1 <1>   0.0800 
 44 H       -7.6210    -9.9910    -1.1800 H     1 <1>   0.0800 
 45 H       -9.3460    -9.7640    -1.0290 H     1 <1>   0.0800 
@<TRIPOS>BOND
  1   1   2  2   
  2   2   3  1   
  3   2   4  1   
  4   3   5  1   
  5   4   6  1   
  6   4  26  1   
  7   4  27  1   
  8   5  28  1   
  9   5  29  1   
 10   5  30  1   
 11   6   7  1   
 12   6  31  1   
 13   6  32  1   
 14   7   8  2   
 15   7   9  am  
 16   9  10  1   
 17   9  33  1   
 18  10  11  2   
 19  10  12  1   
 20  11  13  1   
 21  12  14  ar  
 22  12  15  ar  
 23  13  14  1   
 24  13  16  1   
 25  14  17  ar  
 26  15  18  ar  
 27  15  34  1   
 28  16  19  1   
 29  16  35  1   
 30  16  36  1   
 31  17  20  ar  
 32  18  20  ar  
 33  18  21  ar  
 34  19  37  1   
 35  19  38  1   
 36  19  39  1   
 37  20  22  ar  
 38  21  23  ar  
 39  21  40  1   
 40  22  24  ar  
 41  22  25  1   
 42  23  24  ar  
 43  23  41  1   
 44  24  42  1   
 45  25  43  1   
 46  25  44  1   
 47  25  45  1   
@<TRIPOS>SUBSTRUCTURE
  1 ****  12 GROUP 4 **** **** 0

# MOE 2024.06 (io_trps.svl 2023.06)
