@<TRIPOS>MOLECULE
1-(3-Bromo-4-hydroxy-5-methoxy-benzyl)-piperidine-4-carboxylic acid diallylamide
54 55 1 0 0 
SMALL
USER_CHARGES


@<TRIPOS>ATOM
  1 BR       3.1040     0.2310    -3.4610 Br    1 <1>  -0.1110 
  2 C        3.1560     0.8300    -1.6280 C.ar  1 <1>   0.1110 
  3 C        3.5260    -0.0460    -0.6200 C.ar  1 <1>   0.0820 
  4 C        2.8100     2.1440    -1.3690 C.ar  1 <1>  -0.1500 
  5 O        3.8300    -1.3360    -0.8730 O.3   1 <1>  -0.5330 
  6 C        3.5640     0.4290     0.6860 C.ar  1 <1>   0.0820 
  7 C        2.8370     2.6080    -0.0590 C.ar  1 <1>  -0.1430 
  8 O        3.9230    -0.3900     1.7010 O.3   1 <1>  -0.3630 
  9 C        3.2120     1.7430     0.9640 C.ar  1 <1>  -0.1500 
 10 C        2.4540     4.0440     0.2520 C.3   1 <1>   0.4860 
 11 C        5.3010    -0.4420     2.0000 C.3   1 <1>   0.0400 
 12 N        3.5370     4.9470    -0.2250 N.4   1 <1>  -0.9590 
 13 C        4.8180     4.7200     0.5020 C.3   1 <1>   0.3430 
 14 C        3.1180     6.3750    -0.1840 C.3   1 <1>   0.3430 
 15 C        5.9240     5.5420    -0.1540 C.3   1 <1>  -0.1600 
 16 C        4.1840     7.2340    -0.8570 C.3   1 <1>  -0.1600 
 17 C        5.5740     7.0430    -0.2210 C.3   1 <1>  -0.0190 
 18 C        6.6260     7.8270    -1.0180 C.2   1 <1>   0.5690 
 19 O        6.9000     7.3840    -2.1090 O.2   1 <1>  -0.5700 
 20 N        7.2110     8.9710    -0.5410 N.am  1 <1>  -0.6600 
 21 C        8.2260     9.6920    -1.3560 C.3   1 <1>   0.2780 
 22 C        6.9230     9.6110     0.7680 C.3   1 <1>   0.2780 
 23 C        9.5800     9.5550    -0.6850 C.2   1 <1>  -0.2880 
 24 C        5.5230    10.1940     0.7460 C.2   1 <1>  -0.2880 
 25 C       10.3190    10.5620    -0.2080 C.2   1 <1>  -0.3000 
 26 C        4.5680     9.9700     1.6550 C.2   1 <1>  -0.3000 
 27 H        2.5190     2.7710    -2.1940 H     1 <1>   0.1500 
 28 H        3.9190    -1.8400    -0.0400 H     1 <1>   0.4500 
 29 H        3.2320     2.0650     1.9910 H     1 <1>   0.1500 
 30 H        2.3070     4.1650     1.3130 H     1 <1>   0.0800 
 31 H        1.5290     4.2770    -0.2490 H     1 <1>   0.0800 
 32 H        5.4490    -1.1580     2.7890 H     1 <1>   0.0800 
 33 H        5.6260     0.5310     2.3220 H     1 <1>   0.0800 
 34 H        5.8430    -0.7470     1.1210 H     1 <1>   0.0800 
 35 H        3.7160     4.7030    -1.2080 H     1 <1>   0.4500 
 36 H        5.0870     3.6750     0.4670 H     1 <1>   0.0800 
 37 H        4.7120     5.0100     1.5350 H     1 <1>   0.0800 
 38 H        2.9910     6.6930     0.8390 H     1 <1>   0.0800 
 39 H        2.1800     6.5040    -0.7010 H     1 <1>   0.0800 
 40 H        6.1020     5.1550    -1.1430 H     1 <1>   0.0800 
 41 H        6.8370     5.4160     0.4020 H     1 <1>   0.0800 
 42 H        3.9000     8.2700    -0.7840 H     1 <1>   0.0800 
 43 H        4.2250     6.9910    -1.9060 H     1 <1>   0.0800 
 44 H        5.5350     7.4050     0.7880 H     1 <1>   0.0800 
 45 H        7.9510    10.7290    -1.4350 H     1 <1>   0.0800 
 46 H        8.2810     9.2910    -2.3540 H     1 <1>   0.0800 
 47 H        7.6280    10.4030     0.9560 H     1 <1>   0.0800 
 48 H        7.0300     8.8910     1.5610 H     1 <1>   0.0800 
 49 H        9.8970     8.5270    -0.6330 H     1 <1>   0.1500 
 50 H        5.3720    10.8420    -0.1020 H     1 <1>   0.1500 
 51 H       11.2790    10.4290     0.2620 H     1 <1>   0.1500 
 52 H       10.0350    11.6000    -0.2460 H     1 <1>   0.1500 
 53 H        3.5870    10.4130     1.6110 H     1 <1>   0.1500 
 54 H        4.6840     9.3440     2.5240 H     1 <1>   0.1500 
@<TRIPOS>BOND
  1   1   2  1   
  2   2   3  ar  
  3   2   4  ar  
  4   3   5  1   
  5   3   6  ar  
  6   4   7  ar  
  7   4  27  1   
  8   5  28  1   
  9   6   8  1   
 10   6   9  ar  
 11   7   9  ar  
 12   7  10  1   
 13   8  11  1   
 14   9  29  1   
 15  10  12  1   
 16  10  30  1   
 17  10  31  1   
 18  11  32  1   
 19  11  33  1   
 20  11  34  1   
 21  12  13  1   
 22  12  14  1   
 23  12  35  1   
 24  13  15  1   
 25  13  36  1   
 26  13  37  1   
 27  14  16  1   
 28  14  38  1   
 29  14  39  1   
 30  15  17  1   
 31  15  40  1   
 32  15  41  1   
 33  16  17  1   
 34  16  42  1   
 35  16  43  1   
 36  17  18  1   
 37  17  44  1   
 38  18  19  2   
 39  18  20  am  
 40  20  21  1   
 41  20  22  1   
 42  21  23  1   
 43  21  45  1   
 44  21  46  1   
 45  22  24  1   
 46  22  47  1   
 47  22  48  1   
 48  23  25  2   
 49  23  49  1   
 50  24  26  2   
 51  24  50  1   
 52  25  51  1   
 53  25  52  1   
 54  26  53  1   
 55  26  54  1   
@<TRIPOS>SUBSTRUCTURE
  1 ****  13 GROUP 4 **** **** 0

# MOE 2024.06 (io_trps.svl 2023.06)
