@<TRIPOS>MOLECULE
8-Isopropyl-8,9-dihydro-2H,6H-7-oxa-11-thia-2,4,10-triaza-benzo[b]fluoren-1-one
36 39 1 0 0 
SMALL
USER_CHARGES


@<TRIPOS>ATOM
  1 S        0.3070    -0.7320    -0.8120 S.3   1 <1>  -0.0800 
  2 C       -1.1770     0.1470    -0.4110 C.ar  1 <1>   0.2970 
  3 C        1.3190     0.6440    -0.3260 C.2   1 <1>  -0.0450 
  4 N       -2.3700    -0.3970    -0.5650 N.ar  1 <1>  -0.5670 
  5 C       -0.8720     1.4190     0.0620 C.ar  1 <1>   0.0000 
  6 C        2.7330     0.7280    -0.3510 C.2   1 <1>   0.8660 
  7 C        0.5430     1.6650     0.0980 C.2   1 <1>   0.0830 
  8 C       -3.3640     0.4010    -0.2130 C.ar  1 <1>   0.1660 
  9 C       -1.9380     2.2320     0.4150 C.ar  1 <1>  -0.1500 
 10 O        3.4420    -0.1910    -0.7330 O.2   1 <1>  -0.5700 
 11 N        3.3310     1.8920     0.0720 N.2   1 <1>  -0.6610 
 12 N        1.2050     2.7990     0.5070 N.pl3 1 <1>  -0.5330 
 13 C       -3.2070     1.7030     0.2700 C.ar  1 <1>  -0.1430 
 14 C       -4.7590    -0.1820    -0.3420 C.3   1 <1>  -0.0170 
 15 C        2.5730     2.8510     0.4720 C.2   1 <1>   0.4400 
 16 C       -4.4260     2.5460     0.6290 C.3   1 <1>   0.2640 
 17 C       -5.8250     0.9210    -0.3210 C.3   1 <1>   0.2000 
 18 O       -5.5650     1.7550     0.7680 O.3   1 <1>  -0.5600 
 19 C       -7.2790     0.3960    -0.2440 C.3   1 <1>  -0.0800 
 20 C       -8.2780     1.5480    -0.4340 C.3   1 <1>  -0.2400 
 21 C       -7.6070    -0.3450     1.0650 C.3   1 <1>  -0.2400 
 22 H       -1.7780     3.2280     0.7850 H     1 <1>   0.1500 
 23 H        0.6800     3.6080     0.8440 H     1 <1>   0.4000 
 24 H       -4.9080    -0.8680     0.4680 H     1 <1>   0.0800 
 25 H       -4.8350    -0.7320    -1.2620 H     1 <1>   0.0800 
 26 H        3.0250     3.7690     0.8070 H     1 <1>   0.0600 
 27 H       -4.6170     3.2800    -0.1350 H     1 <1>   0.0800 
 28 H       -4.2720     3.0510     1.5670 H     1 <1>   0.0800 
 29 H       -5.7280     1.5110    -1.2180 H     1 <1>   0.0800 
 30 H       -7.4220    -0.2920    -1.0600 H     1 <1>   0.0800 
 31 H       -8.1880     2.2600     0.3680 H     1 <1>   0.0800 
 32 H       -9.2860     1.1740    -0.4470 H     1 <1>   0.0800 
 33 H       -8.0950     2.0560    -1.3640 H     1 <1>   0.0800 
 34 H       -7.4350     0.2950     1.9130 H     1 <1>   0.0800 
 35 H       -7.0040    -1.2270     1.1740 H     1 <1>   0.0800 
 36 H       -8.6390    -0.6490     1.0730 H     1 <1>   0.0800 
@<TRIPOS>BOND
  1   1   2  1   
  2   1   3  1   
  3   2   4  ar  
  4   2   5  ar  
  5   3   6  1   
  6   3   7  2   
  7   4   8  ar  
  8   5   7  1   
  9   5   9  ar  
 10   6  10  2   
 11   6  11  1   
 12   7  12  1   
 13   8  13  ar  
 14   8  14  1   
 15   9  13  ar  
 16   9  22  1   
 17  11  15  2   
 18  12  15  1   
 19  12  23  1   
 20  13  16  1   
 21  14  17  1   
 22  14  24  1   
 23  14  25  1   
 24  15  26  1   
 25  16  18  1   
 26  16  27  1   
 27  16  28  1   
 28  17  18  1   
 29  17  19  1   
 30  17  29  1   
 31  19  20  1   
 32  19  21  1   
 33  19  30  1   
 34  20  31  1   
 35  20  32  1   
 36  20  33  1   
 37  21  34  1   
 38  21  35  1   
 39  21  36  1   
@<TRIPOS>SUBSTRUCTURE
  1 ****   5 GROUP 4 **** **** 0

# MOE 2024.06 (io_trps.svl 2023.06)
