@<TRIPOS>MOLECULE
1-[1-(4-Ethoxy-3-methyl-benzenesulfonyl)-piperidine-4-carbonyl]-piperidine-4-car
61 63 1 0 0 
SMALL
USER_CHARGES


@<TRIPOS>ATOM
  1 S       -0.5870     1.2050    -2.3590 S.o2  1 <1>   1.4470 
  2 O       -0.0510     0.7060    -3.6090 O.2   1 <1>  -0.6500 
  3 O       -1.5720     2.2640    -2.3890 O.2   1 <1>  -0.6500 
  4 N        0.7380     1.7700    -1.4620 N.am  1 <1>  -0.8490 
  5 C       -1.2150    -0.1730    -1.3590 C.ar  1 <1>  -0.0090 
  6 C        1.1510     3.1050    -1.9000 C.3   1 <1>   0.1960 
  7 C        1.8560     0.8240    -1.4810 C.3   1 <1>   0.1960 
  8 C       -1.3090    -0.0690     0.0240 C.ar  1 <1>  -0.1500 
  9 C       -1.6220    -1.3630    -1.9480 C.ar  1 <1>  -0.1500 
 10 C        2.2420     3.6490    -0.9730 C.3   1 <1>  -0.1600 
 11 C        2.9590     1.2960    -0.5330 C.3   1 <1>  -0.1600 
 12 C       -1.7790    -1.1130     0.8040 C.ar  1 <1>  -0.1430 
 13 C       -2.0960    -2.4170    -1.1860 C.ar  1 <1>  -0.1500 
 14 C        3.4570     2.7030    -0.9090 C.3   1 <1>  -0.0190 
 15 C       -2.1760    -2.3000     0.1980 C.ar  1 <1>   0.0830 
 16 C       -1.8560    -0.9510     2.3160 C.3   1 <1>  -0.0970 
 17 C        4.5510     3.1780     0.0600 C.2   1 <1>   0.5690 
 18 O       -2.6280    -3.2980     1.0000 O.3   1 <1>  -0.3630 
 19 O        4.2330     3.9630     0.9250 O.2   1 <1>  -0.5700 
 20 N        5.8460     2.7170    -0.0380 N.am  1 <1>  -0.6600 
 21 C       -3.0820    -4.5250     0.4790 C.3   1 <1>   0.1200 
 22 C        6.8600     3.0880     0.9910 C.3   1 <1>   0.1400 
 23 C        6.3750     1.7850    -1.0740 C.3   1 <1>   0.1400 
 24 C       -3.5290    -5.3980     1.6480 C.3   1 <1>  -0.2400 
 25 C        7.3490     1.8210     1.6980 C.3   1 <1>  -0.1600 
 26 C        6.8670     0.5000    -0.4020 C.3   1 <1>  -0.1600 
 27 C        7.9050     0.7890     0.7000 C.3   1 <1>  -0.0190 
 28 C        8.3360    -0.4890     1.4160 C.2   1 <1>   0.5690 
 29 O        7.5180    -1.2870     1.7930 O.2   1 <1>  -0.5700 
 30 N        9.6430    -0.7240     1.6290 N.am  1 <1>  -0.8000 
 31 H        0.3090     3.7770    -1.8660 H     1 <1>   0.0800 
 32 H        1.5080     3.0640    -2.9160 H     1 <1>   0.0800 
 33 H        2.2470     0.7340    -2.4820 H     1 <1>   0.0800 
 34 H        1.5180    -0.1480    -1.1630 H     1 <1>   0.0800 
 35 H       -1.0040     0.8530     0.4920 H     1 <1>   0.1500 
 36 H       -1.5660    -1.4660    -3.0190 H     1 <1>   0.1500 
 37 H        1.8210     3.7760     0.0100 H     1 <1>   0.0800 
 38 H        2.5560     4.6180    -1.3190 H     1 <1>   0.0800 
 39 H        3.7700     0.5930    -0.5650 H     1 <1>   0.0800 
 40 H        2.5770     1.3040     0.4730 H     1 <1>   0.0800 
 41 H       -2.3970    -3.3160    -1.6890 H     1 <1>   0.1500 
 42 H        3.8730     2.6780    -1.8980 H     1 <1>   0.0800 
 43 H       -1.5230     0.0240     2.6220 H     1 <1>   0.0800 
 44 H       -1.2380    -1.6910     2.7920 H     1 <1>   0.0800 
 45 H       -2.8700    -1.0870     2.6450 H     1 <1>   0.0800 
 46 H       -2.2710    -4.9900    -0.0550 H     1 <1>   0.0800 
 47 H       -3.9060    -4.3290    -0.1860 H     1 <1>   0.0800 
 48 H        6.4450     3.7640     1.7190 H     1 <1>   0.0800 
 49 H        7.6830     3.5870     0.5100 H     1 <1>   0.0800 
 50 H        7.1920     2.2640    -1.5860 H     1 <1>   0.0800 
 51 H        5.6310     1.5360    -1.8060 H     1 <1>   0.0800 
 52 H       -2.7030    -5.5740     2.3150 H     1 <1>   0.0800 
 53 H       -3.8820    -6.3450     1.2820 H     1 <1>   0.0800 
 54 H       -4.3270    -4.9170     2.1840 H     1 <1>   0.0800 
 55 H        6.5260     1.3910     2.2450 H     1 <1>   0.0800 
 56 H        8.1090     2.0840     2.4110 H     1 <1>   0.0800 
 57 H        7.3010    -0.1480    -1.1430 H     1 <1>   0.0800 
 58 H        6.0240    -0.0150     0.0250 H     1 <1>   0.0800 
 59 H        8.7730     1.2160     0.2290 H     1 <1>   0.0800 
 60 H        9.9150    -1.5790     2.1150 H     1 <1>   0.3700 
 61 H       10.3970    -0.0950     1.3570 H     1 <1>   0.3700 
@<TRIPOS>BOND
  1   1   2  2   
  2   1   3  2   
  3   1   4  am  
  4   1   5  1   
  5   4   6  1   
  6   4   7  1   
  7   5   8  ar  
  8   5   9  ar  
  9   6  10  1   
 10   6  31  1   
 11   6  32  1   
 12   7  11  1   
 13   7  33  1   
 14   7  34  1   
 15   8  12  ar  
 16   8  35  1   
 17   9  13  ar  
 18   9  36  1   
 19  10  14  1   
 20  10  37  1   
 21  10  38  1   
 22  11  14  1   
 23  11  39  1   
 24  11  40  1   
 25  12  15  ar  
 26  12  16  1   
 27  13  15  ar  
 28  13  41  1   
 29  14  17  1   
 30  14  42  1   
 31  15  18  1   
 32  16  43  1   
 33  16  44  1   
 34  16  45  1   
 35  17  19  2   
 36  17  20  am  
 37  18  21  1   
 38  20  22  1   
 39  20  23  1   
 40  21  24  1   
 41  21  46  1   
 42  21  47  1   
 43  22  25  1   
 44  22  48  1   
 45  22  49  1   
 46  23  26  1   
 47  23  50  1   
 48  23  51  1   
 49  24  52  1   
 50  24  53  1   
 51  24  54  1   
 52  25  27  1   
 53  25  55  1   
 54  25  56  1   
 55  26  27  1   
 56  26  57  1   
 57  26  58  1   
 58  27  28  1   
 59  27  59  1   
 60  28  29  2   
 61  28  30  am  
 62  30  60  1   
 63  30  61  1   
@<TRIPOS>SUBSTRUCTURE
  1 ****  11 GROUP 4 **** **** 0

# MOE 2024.06 (io_trps.svl 2023.06)
