@<TRIPOS>MOLECULE
3-Chloro-N-cyclohexyl-4-(2-morpholin-4-yl-2-oxo-ethoxy)-benzenesulfonamide
52 54 1 0 0 
SMALL
USER_CHARGES


@<TRIPOS>ATOM
  1 CL       1.1570    -0.9980    -0.0320 Cl    1 <1>  -0.1770 
  2 C        0.7310    -2.6650    -0.3500 C.ar  1 <1>   0.1770 
  3 C        1.6520    -3.5230    -0.9370 C.ar  1 <1>   0.0830 
  4 C       -0.5270    -3.1030     0.0110 C.ar  1 <1>  -0.1500 
  5 O        2.8760    -3.0430    -1.2640 O.3   1 <1>  -0.3630 
  6 C        1.2830    -4.8430    -1.1640 C.ar  1 <1>  -0.1500 
  7 C       -0.9060    -4.4230    -0.2070 C.ar  1 <1>  -0.0090 
  8 C        4.0150    -3.8880    -1.1860 C.3   1 <1>   0.1810 
  9 C        0.0190    -5.2790    -0.7980 C.ar  1 <1>  -0.1500 
 10 S       -2.5490    -5.0040     0.2840 S.o2  1 <1>   1.4470 
 11 C        5.3140    -3.0920    -1.2740 C.2   1 <1>   0.5690 
 12 O       -2.8740    -6.2250    -0.4130 O.2   1 <1>  -0.6500 
 13 O       -2.6750    -4.9230     1.7210 O.2   1 <1>  -0.6500 
 14 N       -3.5690    -3.8710    -0.4100 N.am  1 <1>  -0.9140 
 15 O        6.1170    -3.4580    -2.1030 O.2   1 <1>  -0.5700 
 16 N        5.5810    -2.0320    -0.4390 N.am  1 <1>  -0.6600 
 17 C       -4.8310    -3.7190     0.2780 C.3   1 <1>   0.2760 
 18 C        6.8160    -1.2070    -0.6030 C.3   1 <1>   0.1400 
 19 C        4.6660    -1.5080     0.6220 C.3   1 <1>   0.1400 
 20 C       -5.9170    -3.4750    -0.7760 C.3   1 <1>  -0.1600 
 21 C       -4.7430    -2.5300     1.2450 C.3   1 <1>  -0.1600 
 22 C        7.4680    -0.9200     0.7580 C.3   1 <1>   0.1200 
 23 C        5.4430    -1.1830     1.9110 C.3   1 <1>   0.1200 
 24 C       -7.2790    -3.1990    -0.1220 C.3   1 <1>  -0.1600 
 25 C       -6.0990    -2.2450     1.9060 C.3   1 <1>  -0.1600 
 26 O        6.5400    -0.3570     1.6420 O.3   1 <1>  -0.5600 
 27 C       -7.1940    -2.0190     0.8550 C.3   1 <1>  -0.1600 
 28 H       -1.2170    -2.4140     0.4670 H     1 <1>   0.1500 
 29 H        1.9590    -5.5370    -1.6300 H     1 <1>   0.1500 
 30 H        3.9730    -4.5840    -2.0040 H     1 <1>   0.0800 
 31 H        3.9860    -4.4200    -0.2530 H     1 <1>   0.0800 
 32 H       -0.2570    -6.3060    -0.9780 H     1 <1>   0.1500 
 33 H       -3.7940    -4.3040    -1.3030 H     1 <1>   0.4200 
 34 H       -5.0800    -4.6170     0.8250 H     1 <1>   0.0800 
 35 H        6.5560    -0.2750    -1.0750 H     1 <1>   0.0800 
 36 H        7.5270    -1.7100    -1.2350 H     1 <1>   0.0800 
 37 H        3.9000    -2.2230     0.8580 H     1 <1>   0.0800 
 38 H        4.1860    -0.6140     0.2630 H     1 <1>   0.0800 
 39 H       -6.0050    -4.3390    -1.4110 H     1 <1>   0.0800 
 40 H       -5.6440    -2.6280    -1.3820 H     1 <1>   0.0800 
 41 H       -4.4240    -1.6550     0.7050 H     1 <1>   0.0800 
 42 H       -4.0190    -2.7340     2.0130 H     1 <1>   0.0800 
 43 H        8.2760    -0.2200     0.6410 H     1 <1>   0.0800 
 44 H        7.8550    -1.8260     1.1910 H     1 <1>   0.0800 
 45 H        5.7980    -2.0850     2.3760 H     1 <1>   0.0800 
 46 H        4.8060    -0.6640     2.6050 H     1 <1>   0.0800 
 47 H       -7.6070    -4.0770     0.4080 H     1 <1>   0.0800 
 48 H       -8.0080    -2.9820    -0.8840 H     1 <1>   0.0800 
 49 H       -6.0170    -1.3740     2.5340 H     1 <1>   0.0800 
 50 H       -6.3710    -3.0770     2.5330 H     1 <1>   0.0800 
 51 H       -8.1430    -1.8870     1.3450 H     1 <1>   0.0800 
 52 H       -6.9790    -1.1170     0.3070 H     1 <1>   0.0800 
@<TRIPOS>BOND
  1   1   2  1   
  2   2   3  ar  
  3   2   4  ar  
  4   3   5  1   
  5   3   6  ar  
  6   4   7  ar  
  7   4  28  1   
  8   5   8  1   
  9   6   9  ar  
 10   6  29  1   
 11   7   9  ar  
 12   7  10  1   
 13   8  11  1   
 14   8  30  1   
 15   8  31  1   
 16   9  32  1   
 17  10  12  2   
 18  10  13  2   
 19  10  14  am  
 20  11  15  2   
 21  11  16  am  
 22  14  17  1   
 23  14  33  1   
 24  16  18  1   
 25  16  19  1   
 26  17  20  1   
 27  17  21  1   
 28  17  34  1   
 29  18  22  1   
 30  18  35  1   
 31  18  36  1   
 32  19  23  1   
 33  19  37  1   
 34  19  38  1   
 35  20  24  1   
 36  20  39  1   
 37  20  40  1   
 38  21  25  1   
 39  21  41  1   
 40  21  42  1   
 41  22  26  1   
 42  22  43  1   
 43  22  44  1   
 44  23  26  1   
 45  23  45  1   
 46  23  46  1   
 47  24  27  1   
 48  24  47  1   
 49  24  48  1   
 50  25  27  1   
 51  25  49  1   
 52  25  50  1   
 53  27  51  1   
 54  27  52  1   
@<TRIPOS>SUBSTRUCTURE
  1 ****   2 GROUP 4 **** **** 0

# MOE 2024.06 (io_trps.svl 2023.06)
