@<TRIPOS>MOLECULE
1,7-Dimethyl-3-(2-oxo-propyl)-8-(tetrahydro-furan-2-ylmethyl)-1H,8H-imidazo[2,1-
48 51 1 0 0 
SMALL
USER_CHARGES


@<TRIPOS>ATOM
  1 O        1.4630    -0.5530    -1.4070 O.2   1 <1>  -0.5750 
  2 C        2.2180     0.3780    -1.2140 C.2   1 <1>   0.6860 
  3 N        1.7670     1.6780    -1.3960 N.am  1 <1>  -0.4260 
  4 N        3.5240     0.1430    -0.8050 N.am  1 <1>  -0.4420 
  5 C        2.6120     2.7640    -1.2270 C.2   1 <1>   0.6990 
  6 C        0.3000     1.9310    -1.2530 C.3   1 <1>   0.1940 
  7 C        4.3220     1.2340    -0.5270 C.2   1 <1>   0.4200 
  8 C        4.0120    -1.2460    -0.5640 C.3   1 <1>   0.0520 
  9 O        2.2330     3.8910    -1.5000 O.2   1 <1>  -0.5750 
 10 C        3.9240     2.5130    -0.7320 C.2   1 <1>   0.2700 
 11 C       -0.0670     2.0970     0.2220 C.2   1 <1>   0.4420 
 12 N        5.5940     1.2400    -0.0390 N.pl3 1 <1>  -0.7040 
 13 N        5.0090     3.3280    -0.3700 N.pl3 1 <1>  -0.6330 
 14 O        0.7670     2.1560     1.0790 O.2   1 <1>  -0.5750 
 15 C       -1.5400     2.1880     0.5540 C.3   1 <1>  -0.1870 
 16 C        5.9730     2.5130     0.0390 C.cat 1 <1>   1.0690 
 17 C        5.4910     4.6140    -0.2460 C.2   1 <1>   0.2220 
 18 N        7.0670     3.1890     0.4200 N.pl3 1 <1>  -0.5720 
 19 C        6.7520     4.5300     0.2380 C.2   1 <1>   0.1570 
 20 C        8.3110     2.6180     1.0260 C.3   1 <1>   0.1600 
 21 C        7.7200     5.6520     0.5610 C.3   1 <1>  -0.1100 
 22 C        8.9790     1.5280     0.1650 C.3   1 <1>   0.1930 
 23 O        8.1440     0.4220     0.0130 O.3   1 <1>  -0.5650 
 24 C       10.2420     0.9540     0.7910 C.3   1 <1>  -0.1680 
 25 C        8.9020    -0.6980    -0.3320 C.3   1 <1>   0.1120 
 26 C       10.3050    -0.4510     0.2160 C.3   1 <1>  -0.1680 
 27 H       -0.2600     1.1140    -1.6710 H     1 <1>   0.0720 
 28 H        0.0270     2.8220    -1.7890 H     1 <1>   0.0720 
 29 H        3.4810    -1.9440    -1.1890 H     1 <1>   0.0720 
 30 H        3.8470    -1.5130     0.4660 H     1 <1>   0.0720 
 31 H        5.0600    -1.3220    -0.7900 H     1 <1>   0.0720 
 32 H        6.2910     0.4930     0.0850 H     1 <1>   0.4440 
 33 H       -2.0430     1.2890     0.2490 H     1 <1>   0.0720 
 34 H       -1.9800     3.0310     0.0540 H     1 <1>   0.0720 
 35 H       -1.6660     2.3110     1.6150 H     1 <1>   0.0720 
 36 H        4.9020     5.4800    -0.5080 H     1 <1>   0.1420 
 37 H        8.0770     2.2070     1.9930 H     1 <1>   0.0720 
 38 H        9.0270     3.4060     1.1780 H     1 <1>   0.0720 
 39 H        7.9820     5.6300     1.6040 H     1 <1>   0.0720 
 40 H        7.2740     6.6060     0.3420 H     1 <1>   0.0720 
 41 H        8.6150     5.5510    -0.0280 H     1 <1>   0.0720 
 42 H        9.2050     1.9090    -0.8180 H     1 <1>   0.0720 
 43 H       10.1400     0.9050     1.8620 H     1 <1>   0.0720 
 44 H       11.1130     1.5350     0.5460 H     1 <1>   0.0720 
 45 H        8.9160    -0.7820    -1.4060 H     1 <1>   0.0720 
 46 H        8.4500    -1.5730     0.1010 H     1 <1>   0.0720 
 47 H       10.5630    -1.1750     0.9680 H     1 <1>   0.0720 
 48 H       11.0230    -0.5120    -0.5840 H     1 <1>   0.0720 
@<TRIPOS>BOND
  1   1   2  2   
  2   2   3  am  
  3   2   4  am  
  4   3   5  am  
  5   3   6  1   
  6   4   7  1   
  7   4   8  1   
  8   5   9  2   
  9   5  10  1   
 10   6  11  1   
 11   6  27  1   
 12   6  28  1   
 13   7  10  2   
 14   7  12  1   
 15   8  29  1   
 16   8  30  1   
 17   8  31  1   
 18  10  13  1   
 19  11  14  2   
 20  11  15  1   
 21  12  16  ar  
 22  12  32  1   
 23  13  16  ar  
 24  13  17  1   
 25  15  33  1   
 26  15  34  1   
 27  15  35  1   
 28  16  18  ar  
 29  17  19  2   
 30  17  36  1   
 31  18  19  1   
 32  18  20  1   
 33  19  21  1   
 34  20  22  1   
 35  20  37  1   
 36  20  38  1   
 37  21  39  1   
 38  21  40  1   
 39  21  41  1   
 40  22  23  1   
 41  22  24  1   
 42  22  42  1   
 43  23  25  1   
 44  24  26  1   
 45  24  43  1   
 46  24  44  1   
 47  25  26  1   
 48  25  45  1   
 49  25  46  1   
 50  26  47  1   
 51  26  48  1   
@<TRIPOS>SUBSTRUCTURE
  1 ****   7 GROUP 4 **** **** 0

# MOE 2024.06 (io_trps.svl 2023.06)
