@<TRIPOS>MOLECULE
2-[4-(2,4-Dimethyl-benzenesulfonyl)-piperazin-1-yl]-N-(4-methoxy-phenyl)-acetami
56 58 1 0 0 
SMALL
USER_CHARGES


@<TRIPOS>ATOM
  1 S        0.0990    -0.1560    -1.8240 S.o2  1 <1>   1.4470 
  2 O        0.3360    -1.2150    -2.7830 O.2   1 <1>  -0.6500 
  3 O       -0.4520     1.0960    -2.2980 O.2   1 <1>  -0.6500 
  4 N       -1.0180    -0.7620    -0.7020 N.am  1 <1>  -0.8490 
  5 C        1.5940     0.1540    -0.8270 C.ar  1 <1>  -0.0090 
  6 C       -1.4120     0.2450     0.2970 C.3   1 <1>   0.1960 
  7 C       -2.2260    -1.2570    -1.3760 C.3   1 <1>   0.1960 
  8 C        2.3280    -0.8590    -0.2020 C.ar  1 <1>  -0.1440 
  9 C        2.0270     1.4650    -0.6540 C.ar  1 <1>  -0.1500 
 10 C       -2.3850    -0.3500     1.3310 C.3   1 <1>   0.1100 
 11 C       -3.2220    -1.8670    -0.3710 C.3   1 <1>   0.1100 
 12 C        3.4420    -0.5460     0.5640 C.ar  1 <1>  -0.1500 
 13 C        1.9440    -2.3280    -0.3380 C.3   1 <1>  -0.0960 
 14 C        3.1380     1.7720     0.1100 C.ar  1 <1>  -0.1500 
 15 N       -3.5950    -0.9080     0.6920 N.3   1 <1>  -0.8100 
 16 C        3.8520     0.7640     0.7270 C.ar  1 <1>  -0.1430 
 17 C       -4.5260    -1.4620     1.7190 C.3   1 <1>   0.1710 
 18 C        5.0750     1.0850     1.5670 C.3   1 <1>  -0.0970 
 19 C       -5.8990    -1.9340     1.2160 C.2   1 <1>   0.5690 
 20 O       -6.8520    -1.2100     1.3730 O.2   1 <1>  -0.5700 
 21 N       -5.9790    -3.1790     0.6460 N.am  1 <1>  -0.5470 
 22 C       -7.0630    -3.8990     0.1150 C.ar  1 <1>   0.1170 
 23 C       -6.7940    -4.9780    -0.7190 C.ar  1 <1>  -0.1500 
 24 C       -8.3940    -3.5980     0.3910 C.ar  1 <1>  -0.1500 
 25 C       -7.8190    -5.7300    -1.2630 C.ar  1 <1>  -0.1500 
 26 C       -9.4240    -4.3460    -0.1510 C.ar  1 <1>  -0.1500 
 27 C       -9.1400    -5.4220    -0.9850 C.ar  1 <1>   0.0820 
 28 O      -10.0870    -6.2100    -1.5600 O.3   1 <1>  -0.3630 
 29 C      -11.4590    -5.9610    -1.3520 C.3   1 <1>   0.0400 
 30 H       -1.8870     1.0840    -0.1860 H     1 <1>   0.0800 
 31 H       -0.5390     0.6060     0.8130 H     1 <1>   0.0800 
 32 H       -1.9540    -2.0130    -2.0930 H     1 <1>   0.0800 
 33 H       -2.7070    -0.4530    -1.9080 H     1 <1>   0.0800 
 34 H        1.4880     2.2680    -1.1270 H     1 <1>   0.1500 
 35 H       -2.6730     0.4260     2.0190 H     1 <1>   0.0800 
 36 H       -1.8730    -1.1180     1.8850 H     1 <1>   0.0800 
 37 H       -2.7780    -2.7460     0.0640 H     1 <1>   0.0800 
 38 H       -4.1020    -2.1580    -0.9170 H     1 <1>   0.0800 
 39 H        4.0030    -1.3310     1.0400 H     1 <1>   0.1500 
 40 H        2.0220    -2.6370    -1.3660 H     1 <1>   0.0800 
 41 H        0.9360    -2.4890     0.0000 H     1 <1>   0.0800 
 42 H        2.5930    -2.9550     0.2450 H     1 <1>   0.0800 
 43 H        3.4430     2.7990     0.2180 H     1 <1>   0.1500 
 44 H       -4.7140    -0.6970     2.4510 H     1 <1>   0.0800 
 45 H       -4.0490    -2.2810     2.2280 H     1 <1>   0.0800 
 46 H        5.1250     0.4310     2.4190 H     1 <1>   0.0800 
 47 H        5.0380     2.0990     1.9210 H     1 <1>   0.0800 
 48 H        5.9650     0.9550     0.9770 H     1 <1>   0.0800 
 49 H       -5.0840    -3.6490     0.5470 H     1 <1>   0.3700 
 50 H       -5.7770    -5.2360    -0.9520 H     1 <1>   0.1500 
 51 H       -8.6370    -2.7740     1.0370 H     1 <1>   0.1500 
 52 H       -7.6040    -6.5630    -1.9080 H     1 <1>   0.1500 
 53 H      -10.4350    -4.0750     0.0890 H     1 <1>   0.1500 
 54 H      -12.0190    -6.6950    -1.9030 H     1 <1>   0.0800 
 55 H      -11.6940    -4.9760    -1.7120 H     1 <1>   0.0800 
 56 H      -11.6750    -6.0510    -0.3020 H     1 <1>   0.0800 
@<TRIPOS>BOND
  1   1   2  2   
  2   1   3  2   
  3   1   4  am  
  4   1   5  1   
  5   4   6  1   
  6   4   7  1   
  7   5   8  ar  
  8   5   9  ar  
  9   6  10  1   
 10   6  30  1   
 11   6  31  1   
 12   7  11  1   
 13   7  32  1   
 14   7  33  1   
 15   8  12  ar  
 16   8  13  1   
 17   9  14  ar  
 18   9  34  1   
 19  10  15  1   
 20  10  35  1   
 21  10  36  1   
 22  11  15  1   
 23  11  37  1   
 24  11  38  1   
 25  12  16  ar  
 26  12  39  1   
 27  13  40  1   
 28  13  41  1   
 29  13  42  1   
 30  14  16  ar  
 31  14  43  1   
 32  15  17  1   
 33  16  18  1   
 34  17  19  1   
 35  17  44  1   
 36  17  45  1   
 37  18  46  1   
 38  18  47  1   
 39  18  48  1   
 40  19  20  2   
 41  19  21  am  
 42  21  22  1   
 43  21  49  1   
 44  22  23  ar  
 45  22  24  ar  
 46  23  25  ar  
 47  23  50  1   
 48  24  26  ar  
 49  24  51  1   
 50  25  27  ar  
 51  25  52  1   
 52  26  27  ar  
 53  26  53  1   
 54  27  28  1   
 55  28  29  1   
 56  29  54  1   
 57  29  55  1   
 58  29  56  1   
@<TRIPOS>SUBSTRUCTURE
  1 ****  11 GROUP 4 **** **** 0

# MOE 2024.06 (io_trps.svl 2023.06)
