@<TRIPOS>MOLECULE
3-Azepan-1-ylmethyl-benzylamine
40 41 1 0 0 
SMALL
USER_CHARGES


@<TRIPOS>ATOM
  1 N        0.1940     0.0540    -0.2440 N.4   1 <1>  -0.9590 
  2 C       -0.2760    -1.3610    -0.2870 C.3   1 <1>   0.3430 
  3 C       -0.7600     1.0270    -0.8450 C.3   1 <1>   0.3430 
  4 C        1.5410     0.2050    -0.8610 C.3   1 <1>   0.4860 
  5 C       -1.1760    -1.6410     0.9160 C.3   1 <1>  -0.1600 
  6 C       -2.0690     1.1140    -0.0580 C.3   1 <1>  -0.1600 
  7 C        2.5710    -0.5460    -0.0260 C.ar  1 <1>  -0.1430 
  8 C       -2.6580    -1.2720     0.7300 C.3   1 <1>  -0.1600 
  9 C       -2.9660    -0.1200    -0.2360 C.3   1 <1>  -0.1600 
 10 C        3.2680    -1.6300    -0.5480 C.ar  1 <1>  -0.1500 
 11 C        2.8230    -0.1440     1.2780 C.ar  1 <1>  -0.1500 
 12 C        4.1980    -2.3130     0.2260 C.ar  1 <1>  -0.1430 
 13 C        3.7380    -0.8280     2.0550 C.ar  1 <1>  -0.1500 
 14 C        4.4200    -1.9110     1.5350 C.ar  1 <1>  -0.1500 
 15 C        4.9780    -3.4880    -0.3350 C.3   1 <1>   0.4860 
 16 N        6.3350    -3.0050    -0.6580 N.4   1 <1>  -0.8530 
 17 H        0.2970     0.2920     0.7490 H     1 <1>   0.4500 
 18 H        0.5730    -2.0220    -0.2220 H     1 <1>   0.0800 
 19 H       -0.7970    -1.5700    -1.2080 H     1 <1>   0.0800 
 20 H       -0.9730     0.7530    -1.8660 H     1 <1>   0.0800 
 21 H       -0.3080     2.0060    -0.8530 H     1 <1>   0.0800 
 22 H        1.8150     1.2470    -0.8930 H     1 <1>   0.0800 
 23 H        1.5310    -0.1740    -1.8700 H     1 <1>   0.0800 
 24 H       -0.7820    -1.1460     1.7860 H     1 <1>   0.0800 
 25 H       -1.1330    -2.6960     1.1240 H     1 <1>   0.0800 
 26 H       -2.6080     1.9600    -0.4470 H     1 <1>   0.0800 
 27 H       -1.8850     1.3150     0.9830 H     1 <1>   0.0800 
 28 H       -3.0700    -1.0370     1.6980 H     1 <1>   0.0800 
 29 H       -3.1900    -2.1410     0.3780 H     1 <1>   0.0800 
 30 H       -2.9130    -0.4680    -1.2530 H     1 <1>   0.0800 
 31 H       -3.9890     0.1760    -0.0680 H     1 <1>   0.0800 
 32 H        3.0810    -1.9410    -1.5640 H     1 <1>   0.1500 
 33 H        2.3160     0.7040     1.7100 H     1 <1>   0.1500 
 34 H        3.9200    -0.5140     3.0720 H     1 <1>   0.1500 
 35 H        5.1180    -2.4290     2.1730 H     1 <1>   0.1500 
 36 H        4.4930    -3.8670    -1.2210 H     1 <1>   0.0800 
 37 H        5.0250    -4.2790     0.3970 H     1 <1>   0.0800 
 38 H        6.2840    -2.2370    -1.3360 H     1 <1>   0.4500 
 39 H        6.9270    -3.7500    -1.0400 H     1 <1>   0.4500 
 40 H        6.7790    -2.6310     0.1870 H     1 <1>   0.4500 
@<TRIPOS>BOND
  1   1   2  1   
  2   1   3  1   
  3   1   4  1   
  4   1  17  1   
  5   2   5  1   
  6   2  18  1   
  7   2  19  1   
  8   3   6  1   
  9   3  20  1   
 10   3  21  1   
 11   4   7  1   
 12   4  22  1   
 13   4  23  1   
 14   5   8  1   
 15   5  24  1   
 16   5  25  1   
 17   6   9  1   
 18   6  26  1   
 19   6  27  1   
 20   7  10  ar  
 21   7  11  ar  
 22   8   9  1   
 23   8  28  1   
 24   8  29  1   
 25   9  30  1   
 26   9  31  1   
 27  10  12  ar  
 28  10  32  1   
 29  11  13  ar  
 30  11  33  1   
 31  12  14  ar  
 32  12  15  1   
 33  13  14  ar  
 34  13  34  1   
 35  14  35  1   
 36  15  16  1   
 37  15  36  1   
 38  15  37  1   
 39  16  38  1   
 40  16  39  1   
 41  16  40  1   
@<TRIPOS>SUBSTRUCTURE
  1 ****   7 GROUP 4 **** **** 0

# MOE 2024.06 (io_trps.svl 2023.06)
