@<TRIPOS>MOLECULE
Cyclohexanecarboxylic acid {1-[3-(3,4-dimethoxy-phenyl)-[1,2,4]oxadiazol-5-yl]-e
51 53 1 0 0 
SMALL
USER_CHARGES


@<TRIPOS>ATOM
  1 O       -1.7120    -0.9010     2.0200 O.2   1 <1>  -0.5700 
  2 C       -2.5230    -0.5150     1.2180 C.2   1 <1>   0.5690 
  3 N       -3.0680    -1.4530     0.4060 N.am  1 <1>  -0.7300 
  4 C       -2.7990     0.9980     1.1900 C.3   1 <1>  -0.0190 
  5 C       -4.2600    -1.4820    -0.4680 C.3   1 <1>   0.4000 
  6 C       -4.2550     1.4550     0.9710 C.3   1 <1>  -0.1600 
  7 C       -1.8570     1.7210     0.2080 C.3   1 <1>  -0.1600 
  8 C       -4.8770    -2.8810    -0.4860 C.2   1 <1>   0.2980 
  9 C       -3.8530    -1.0450    -1.8760 C.3   1 <1>  -0.2400 
 10 C       -4.3810     2.9770     1.1270 C.3   1 <1>  -0.1600 
 11 C       -1.9940     3.2480     0.3160 C.3   1 <1>  -0.1600 
 12 O       -4.1270    -3.8930    -0.8370 O.3   1 <1>  -0.0190 
 13 N       -6.0770    -3.1730    -0.1870 N.2   1 <1>  -0.5650 
 14 C       -3.4500     3.7010     0.1440 C.3   1 <1>  -0.1600 
 15 N       -4.9160    -4.9170    -0.7520 N.2   1 <1>  -0.4100 
 16 C       -6.0700    -4.4980    -0.3670 C.2   1 <1>   0.4620 
 17 C       -7.2440    -5.3260    -0.1430 C.ar  1 <1>   0.0540 
 18 C       -7.2130    -6.7020    -0.3660 C.ar  1 <1>  -0.1500 
 19 C       -8.4490    -4.7870     0.3050 C.ar  1 <1>  -0.1500 
 20 C       -8.3150    -7.5120    -0.1560 C.ar  1 <1>   0.0820 
 21 C       -9.5670    -5.5750     0.5120 C.ar  1 <1>  -0.1500 
 22 O       -8.1140    -8.8350    -0.4080 O.3   1 <1>  -0.3630 
 23 C       -9.5240    -6.9460     0.2780 C.ar  1 <1>   0.0820 
 24 C       -8.7170    -9.8200     0.4020 C.3   1 <1>   0.0400 
 25 O      -10.6250    -7.7330     0.4440 O.3   1 <1>  -0.3630 
 26 C      -11.9030    -7.1920     0.6970 C.3   1 <1>   0.0400 
 27 H       -2.6750    -2.3840     0.5640 H     1 <1>   0.3700 
 28 H       -2.5290     1.3420     2.1750 H     1 <1>   0.0800 
 29 H       -5.0130    -0.8240    -0.0800 H     1 <1>   0.0800 
 30 H       -4.9030     0.9640     1.6770 H     1 <1>   0.0800 
 31 H       -4.5750     1.2140    -0.0240 H     1 <1>   0.0800 
 32 H       -2.0720     1.4140    -0.7990 H     1 <1>   0.0800 
 33 H       -0.8380     1.4440     0.4230 H     1 <1>   0.0800 
 34 H       -3.0820    -1.6860    -2.2610 H     1 <1>   0.0800 
 35 H       -3.5020    -0.0310    -1.8690 H     1 <1>   0.0800 
 36 H       -4.7040    -1.1020    -2.5310 H     1 <1>   0.0800 
 37 H       -4.1300     3.2600     2.1350 H     1 <1>   0.0800 
 38 H       -5.3990     3.2770     0.9450 H     1 <1>   0.0800 
 39 H       -1.3790     3.7190    -0.4310 H     1 <1>   0.0800 
 40 H       -1.6370     3.5670     1.2810 H     1 <1>   0.0800 
 41 H       -3.5160     4.7640     0.3030 H     1 <1>   0.0800 
 42 H       -3.7680     3.4990    -0.8640 H     1 <1>   0.0800 
 43 H       -6.3050    -7.1620    -0.7110 H     1 <1>   0.1500 
 44 H       -8.5150    -3.7300     0.4950 H     1 <1>   0.1500 
 45 H      -10.4630    -5.0950     0.8550 H     1 <1>   0.1500 
 46 H       -8.1440   -10.7250     0.3110 H     1 <1>   0.0800 
 47 H       -9.7200    -9.9890     0.0550 H     1 <1>   0.0800 
 48 H       -8.7180    -9.4840     1.4240 H     1 <1>   0.0800 
 49 H      -12.6110    -8.0010     0.7100 H     1 <1>   0.0800 
 50 H      -12.1530    -6.5010    -0.0890 H     1 <1>   0.0800 
 51 H      -11.8920    -6.7030     1.6550 H     1 <1>   0.0800 
@<TRIPOS>BOND
  1   1   2  2   
  2   2   3  am  
  3   2   4  1   
  4   3   5  1   
  5   3  27  1   
  6   4   6  1   
  7   4   7  1   
  8   4  28  1   
  9   5   8  1   
 10   5   9  1   
 11   5  29  1   
 12   6  10  1   
 13   6  30  1   
 14   6  31  1   
 15   7  11  1   
 16   7  32  1   
 17   7  33  1   
 18   8  12  1   
 19   8  13  2   
 20   9  34  1   
 21   9  35  1   
 22   9  36  1   
 23  10  14  1   
 24  10  37  1   
 25  10  38  1   
 26  11  14  1   
 27  11  39  1   
 28  11  40  1   
 29  12  15  1   
 30  13  16  1   
 31  14  41  1   
 32  14  42  1   
 33  15  16  2   
 34  16  17  1   
 35  17  18  ar  
 36  17  19  ar  
 37  18  20  ar  
 38  18  43  1   
 39  19  21  ar  
 40  19  44  1   
 41  20  22  1   
 42  20  23  ar  
 43  21  23  ar  
 44  21  45  1   
 45  22  24  1   
 46  23  25  1   
 47  24  46  1   
 48  24  47  1   
 49  24  48  1   
 50  25  26  1   
 51  26  49  1   
 52  26  50  1   
 53  26  51  1   
@<TRIPOS>SUBSTRUCTURE
  1 ****  13 GROUP 4 **** **** 0

# MOE 2024.06 (io_trps.svl 2023.06)
