@<TRIPOS>MOLECULE
4-[3-(4-Methoxy-phenyl)-[1,2,4]oxadiazol-5-yl]-butyric acid
32 33 1 0 0 
SMALL
USER_CHARGES


@<TRIPOS>ATOM
  1 O        0.9800     0.4930    -1.0290 O.co2 1 <1>  -0.9000 
  2 C        1.3760    -0.0020     0.0290 C.2   1 <1>   0.9060 
  3 O        1.0840     0.4520     1.1390 O.co2 1 <1>  -0.9000 
  4 C        2.2650    -1.2210    -0.0370 C.3   1 <1>  -0.2660 
  5 C        1.4580    -2.5310    -0.0230 C.3   1 <1>  -0.1600 
  6 C        2.3830    -3.7550    -0.0910 C.3   1 <1>   0.0200 
  7 C        1.6480    -5.0880    -0.0810 C.2   1 <1>   0.2980 
  8 O        2.3690    -6.1780    -0.1360 O.3   1 <1>  -0.0190 
  9 N        0.3940    -5.2750    -0.0240 N.2   1 <1>  -0.5650 
 10 N        1.4980    -7.1390    -0.1130 N.2   1 <1>  -0.4100 
 11 C        0.3280    -6.6080    -0.0470 C.2   1 <1>   0.4620 
 12 C       -0.9330    -7.3290     0.0000 C.ar  1 <1>   0.0540 
 13 C       -2.1580    -6.6620     0.0710 C.ar  1 <1>  -0.1500 
 14 C       -0.9720    -8.7250    -0.0250 C.ar  1 <1>  -0.1500 
 15 C       -3.3560    -7.3520     0.1160 C.ar  1 <1>  -0.1500 
 16 C       -2.1650    -9.4230     0.0190 C.ar  1 <1>  -0.1500 
 17 C       -3.3720    -8.7360     0.0900 C.ar  1 <1>   0.0830 
 18 O       -4.5850    -9.3370     0.1370 O.3   1 <1>  -0.3630 
 19 C       -4.7110   -10.7410     0.1160 C.3   1 <1>   0.0400 
 20 H        2.9290    -1.1820     0.8050 H     1 <1>   0.0800 
 21 H        2.8460    -1.1490    -0.9360 H     1 <1>   0.0800 
 22 H        0.7830    -2.5360    -0.8620 H     1 <1>   0.0800 
 23 H        0.8660    -2.5690     0.8760 H     1 <1>   0.0800 
 24 H        3.0540    -3.7340     0.7480 H     1 <1>   0.0800 
 25 H        2.9710    -3.7010    -0.9890 H     1 <1>   0.0800 
 26 H       -2.1730    -5.5860     0.0930 H     1 <1>   0.1500 
 27 H       -0.0470    -9.2740    -0.0800 H     1 <1>   0.1500 
 28 H       -4.2880    -6.8200     0.1700 H     1 <1>   0.1500 
 29 H       -2.1370   -10.4960    -0.0030 H     1 <1>   0.1500 
 30 H       -5.7570   -10.9830     0.1610 H     1 <1>   0.0800 
 31 H       -4.2030   -11.1500     0.9720 H     1 <1>   0.0800 
 32 H       -4.2880   -11.1160    -0.8000 H     1 <1>   0.0800 
@<TRIPOS>BOND
  1   1   2  ar  
  2   2   3  ar  
  3   2   4  1   
  4   4   5  1   
  5   4  20  1   
  6   4  21  1   
  7   5   6  1   
  8   5  22  1   
  9   5  23  1   
 10   6   7  1   
 11   6  24  1   
 12   6  25  1   
 13   7   8  1   
 14   7   9  2   
 15   8  10  1   
 16   9  11  1   
 17  10  11  2   
 18  11  12  1   
 19  12  13  ar  
 20  12  14  ar  
 21  13  15  ar  
 22  13  26  1   
 23  14  16  ar  
 24  14  27  1   
 25  15  17  ar  
 26  15  28  1   
 27  16  17  ar  
 28  16  29  1   
 29  17  18  1   
 30  18  19  1   
 31  19  30  1   
 32  19  31  1   
 33  19  32  1   
@<TRIPOS>SUBSTRUCTURE
  1 ****   9 GROUP 4 **** **** 0

# MOE 2024.06 (io_trps.svl 2023.06)
