@<TRIPOS>MOLECULE
1,6,7-Trimethyl-3-(2-oxo-propyl)-8-(tetrahydro-furan-2-ylmethyl)-1H,8H-imidazo[2
51 54 1 0 0 
SMALL
USER_CHARGES


@<TRIPOS>ATOM
  1 O        1.5060    -0.4590    -1.5630 O.2   1 <1>  -0.5740 
  2 C        2.2220     0.4660    -1.2370 C.2   1 <1>   0.6860 
  3 N        1.6860     1.7410    -1.1160 N.am  1 <1>  -0.4260 
  4 N        3.5680     0.2490    -0.9790 N.am  1 <1>  -0.4410 
  5 C        2.4790     2.8290    -0.7880 C.2   1 <1>   0.6990 
  6 C        0.2220     1.8540    -0.8270 C.3   1 <1>   0.1940 
  7 C        4.3230     1.3180    -0.5390 C.2   1 <1>   0.4210 
  8 C        4.1530    -1.1200    -1.0650 C.3   1 <1>   0.0520 
  9 O        2.0080     3.9550    -0.8050 O.2   1 <1>  -0.5740 
 10 C        3.8410     2.5820    -0.4460 C.2   1 <1>   0.2710 
 11 C       -0.0360     1.7010     0.6720 C.2   1 <1>   0.4430 
 12 N        5.6280     1.3110    -0.1520 N.pl3 1 <1>  -0.7040 
 13 N        4.9100     3.3790     0.0010 N.pl3 1 <1>  -0.6330 
 14 O        0.8580     1.6480     1.4670 O.2   1 <1>  -0.5740 
 15 C       -1.4810     1.6230     1.1130 C.3   1 <1>  -0.1860 
 16 C        5.9440     2.5650     0.1620 C.cat 1 <1>   1.0690 
 17 C        5.3380     4.6390     0.3580 C.2   1 <1>   0.2340 
 18 N        7.0330     3.2130     0.5960 N.pl3 1 <1>  -0.5720 
 19 C        6.6400     4.5390     0.7230 C.2   1 <1>   0.1580 
 20 C        4.3870     5.8180     0.2980 C.3   1 <1>  -0.1090 
 21 C        8.3470     2.6050     0.9790 C.3   1 <1>   0.1610 
 22 C        7.5960     5.6160     1.2060 C.3   1 <1>  -0.1090 
 23 C        8.9950     1.7700    -0.1430 C.3   1 <1>   0.1930 
 24 O        8.2080     0.6650    -0.4690 O.3   1 <1>  -0.5650 
 25 C       10.3340     1.1640     0.2530 C.3   1 <1>  -0.1670 
 26 C        8.9920    -0.3020    -1.1010 C.3   1 <1>   0.1130 
 27 C       10.4210    -0.0790    -0.6150 C.3   1 <1>  -0.1670 
 28 H       -0.3220     1.0960    -1.3630 H     1 <1>   0.0720 
 29 H       -0.1430     2.8110    -1.1550 H     1 <1>   0.0720 
 30 H        3.6050    -1.7180    -1.7740 H     1 <1>   0.0720 
 31 H        4.1020    -1.5950    -0.1010 H     1 <1>   0.0720 
 32 H        5.1780    -1.0730    -1.3870 H     1 <1>   0.0720 
 33 H        6.3710     0.6050    -0.2380 H     1 <1>   0.4450 
 34 H       -1.9570     0.7690     0.6670 H     1 <1>   0.0720 
 35 H       -2.0040     2.5160     0.8230 H     1 <1>   0.0720 
 36 H       -1.5290     1.5260     2.1830 H     1 <1>   0.0720 
 37 H        3.5410     5.6390     0.9380 H     1 <1>   0.0720 
 38 H        4.0310     5.9520    -0.7080 H     1 <1>   0.0720 
 39 H        4.8700     6.7230     0.6140 H     1 <1>   0.0720 
 40 H        8.2090     1.9830     1.8470 H     1 <1>   0.0720 
 41 H        9.0350     3.3860     1.2510 H     1 <1>   0.0720 
 42 H        7.9420     5.3870     2.1990 H     1 <1>   0.0720 
 43 H        7.1140     6.5760     1.2300 H     1 <1>   0.0720 
 44 H        8.4440     5.6810     0.5470 H     1 <1>   0.0720 
 45 H        9.1170     2.3640    -1.0340 H     1 <1>   0.0720 
 46 H       10.3260     0.8840     1.2930 H     1 <1>   0.0720 
 47 H       11.1500     1.8430     0.0780 H     1 <1>   0.0720 
 48 H        8.9190    -0.1560    -2.1660 H     1 <1>   0.0720 
 49 H        8.6240    -1.2780    -0.8350 H     1 <1>   0.0720 
 50 H       10.7800    -0.9270    -0.0580 H     1 <1>   0.0720 
 51 H       11.0710     0.0800    -1.4590 H     1 <1>   0.0720 
@<TRIPOS>BOND
  1   1   2  2   
  2   2   3  am  
  3   2   4  am  
  4   3   5  am  
  5   3   6  1   
  6   4   7  1   
  7   4   8  1   
  8   5   9  2   
  9   5  10  1   
 10   6  11  1   
 11   6  28  1   
 12   6  29  1   
 13   7  10  2   
 14   7  12  1   
 15   8  30  1   
 16   8  31  1   
 17   8  32  1   
 18  10  13  1   
 19  11  14  2   
 20  11  15  1   
 21  12  16  ar  
 22  12  33  1   
 23  13  16  ar  
 24  13  17  1   
 25  15  34  1   
 26  15  35  1   
 27  15  36  1   
 28  16  18  ar  
 29  17  19  2   
 30  17  20  1   
 31  18  19  1   
 32  18  21  1   
 33  19  22  1   
 34  20  37  1   
 35  20  38  1   
 36  20  39  1   
 37  21  23  1   
 38  21  40  1   
 39  21  41  1   
 40  22  42  1   
 41  22  43  1   
 42  22  44  1   
 43  23  24  1   
 44  23  25  1   
 45  23  45  1   
 46  24  26  1   
 47  25  27  1   
 48  25  46  1   
 49  25  47  1   
 50  26  27  1   
 51  26  48  1   
 52  26  49  1   
 53  27  50  1   
 54  27  51  1   
@<TRIPOS>SUBSTRUCTURE
  1 ****   7 GROUP 4 **** **** 0

# MOE 2024.06 (io_trps.svl 2023.06)
