@<TRIPOS>MOLECULE
1-Allyl-4-hydroxy-6,7-dimethoxy-2-oxo-1,2-dihydro-quinoline-3-carboxylic acid cy
50 52 1 0 0 
SMALL
USER_CHARGES


@<TRIPOS>ATOM
  1 O        0.2100     0.7410    -0.4820 O.2   1 <1>  -0.5700 
  2 C       -0.9350     1.2030    -0.5130 C.2   1 <1>   0.5350 
  3 N       -1.9950     0.3130    -0.3790 N.am  1 <1>  -0.4770 
  4 C       -1.1740     2.5800    -0.6720 C.3   1 <1>  -0.7150 
  5 C       -3.3190     0.7670    -0.2260 C.ar  1 <1>   0.1170 
  6 C       -1.7080    -1.1430    -0.5410 C.3   1 <1>   0.2780 
  7 C       -2.4770     3.0590    -0.4620 C.2   1 <1>   0.3890 
  8 C       -0.1420     3.4560    -1.0480 C.2   1 <1>   0.5350 
  9 C       -3.5750     2.1420    -0.2810 C.ar  1 <1>   0.0860 
 10 C       -4.3920    -0.1010    -0.0100 C.ar  1 <1>  -0.1500 
 11 C       -1.7000    -1.8930     0.7900 C.2   1 <1>  -0.2880 
 12 O       -2.7180     4.2700    -0.3880 O.2   1 <1>  -0.5700 
 13 O       -0.2440     4.2570    -1.9720 O.2   1 <1>  -0.5700 
 14 N        1.0500     3.3580    -0.4030 N.am  1 <1>  -0.7300 
 15 C       -4.8940     2.5900    -0.1580 C.ar  1 <1>  -0.1500 
 16 C       -5.6910     0.3460     0.1240 C.ar  1 <1>   0.0820 
 17 C       -1.8240    -1.3700     2.0160 C.2   1 <1>  -0.3000 
 18 C        2.3040     3.8890    -0.9480 C.3   1 <1>   0.2200 
 19 C       -5.9580     1.7220     0.0300 C.ar  1 <1>   0.0820 
 20 O       -6.6200    -0.6260     0.3390 O.3   1 <1>  -0.3630 
 21 C        2.9600     2.8200    -1.8140 C.3   1 <1>  -0.1600 
 22 C        3.2960     4.0730     0.1940 C.3   1 <1>  -0.1600 
 23 O       -7.2480     2.1750     0.1070 O.3   1 <1>  -0.3630 
 24 C       -7.7550    -0.3910     1.1420 C.3   1 <1>   0.0400 
 25 C        3.6810     1.8810    -0.8400 C.3   1 <1>  -0.1600 
 26 C        3.9010     2.6860     0.4480 C.3   1 <1>  -0.1600 
 27 C       -7.5690     3.5150    -0.2000 C.3   1 <1>   0.0400 
 28 H       -0.7620    -1.2880    -1.0330 H     1 <1>   0.0800 
 29 H       -2.4520    -1.5680    -1.1900 H     1 <1>   0.0800 
 30 H       -4.2290    -1.1560     0.0710 H     1 <1>   0.1500 
 31 H       -1.5690    -2.9500     0.6410 H     1 <1>   0.1500 
 32 H        1.1370     2.4160    -0.0120 H     1 <1>   0.3700 
 33 H       -5.0450     3.6500    -0.2170 H     1 <1>   0.1500 
 34 H       -1.8090    -1.9430     2.9250 H     1 <1>   0.1500 
 35 H       -1.9460    -0.3160     2.2070 H     1 <1>   0.1500 
 36 H        2.1200     4.8050    -1.4850 H     1 <1>   0.0800 
 37 H        3.6820     3.2940    -2.4530 H     1 <1>   0.0800 
 38 H        2.2370     2.3070    -2.4250 H     1 <1>   0.0800 
 39 H        2.8230     4.4860     1.0680 H     1 <1>   0.0800 
 40 H        4.0710     4.7420    -0.1330 H     1 <1>   0.0800 
 41 H       -8.1270    -1.3400     1.4820 H     1 <1>   0.0800 
 42 H       -8.5040     0.1010     0.5480 H     1 <1>   0.0800 
 43 H       -7.4720     0.2180     1.9820 H     1 <1>   0.0800 
 44 H        4.6090     1.5290    -1.2560 H     1 <1>   0.0800 
 45 H        3.0480     1.0350    -0.6290 H     1 <1>   0.0800 
 46 H        3.3760     2.2090     1.2580 H     1 <1>   0.0800 
 47 H        4.9450     2.7590     0.6980 H     1 <1>   0.0800 
 48 H       -7.1150     4.1600     0.5320 H     1 <1>   0.0800 
 49 H       -8.6380     3.6200    -0.1650 H     1 <1>   0.0800 
 50 H       -7.2110     3.7430    -1.1880 H     1 <1>   0.0800 
@<TRIPOS>BOND
  1   1   2  2   
  2   2   3  am  
  3   2   4  1   
  4   3   5  1   
  5   3   6  1   
  6   4   7  1   
  7   4   8  1   
  8   5   9  ar  
  9   5  10  ar  
 10   6  11  1   
 11   6  28  1   
 12   6  29  1   
 13   7   9  1   
 14   7  12  2   
 15   8  13  2   
 16   8  14  am  
 17   9  15  ar  
 18  10  16  ar  
 19  10  30  1   
 20  11  17  2   
 21  11  31  1   
 22  14  18  1   
 23  14  32  1   
 24  15  19  ar  
 25  15  33  1   
 26  16  19  ar  
 27  16  20  1   
 28  17  34  1   
 29  17  35  1   
 30  18  21  1   
 31  18  22  1   
 32  18  36  1   
 33  19  23  1   
 34  20  24  1   
 35  21  25  1   
 36  21  37  1   
 37  21  38  1   
 38  22  26  1   
 39  22  39  1   
 40  22  40  1   
 41  23  27  1   
 42  24  41  1   
 43  24  42  1   
 44  24  43  1   
 45  25  26  1   
 46  25  44  1   
 47  25  45  1   
 48  26  46  1   
 49  26  47  1   
 50  27  48  1   
 51  27  49  1   
 52  27  50  1   
@<TRIPOS>SUBSTRUCTURE
  1 ****   2 GROUP 4 **** **** 0

# MOE 2024.06 (io_trps.svl 2023.06)
