@<TRIPOS>MOLECULE
1-Benzo[1,3]dioxol-5-ylmethyl-4-[5-(4-chloro-phenyl)-1H-pyrazol-4-ylmethyl]-pipe
53 57 1 0 0 
SMALL
USER_CHARGES


@<TRIPOS>ATOM
  1 CL      -2.4660     6.2760     4.4940 Cl    1 <1>  -0.1770 
  2 C       -2.9740     5.7110     2.9250 C.ar  1 <1>   0.1770 
  3 C       -2.0320     5.2110     2.0450 C.ar  1 <1>  -0.1500 
  4 C       -4.3110     5.7650     2.5820 C.ar  1 <1>  -0.1500 
  5 C       -2.4380     4.7730     0.7960 C.ar  1 <1>  -0.1500 
  6 C       -4.7050     5.3240     1.3310 C.ar  1 <1>  -0.1500 
  7 C       -3.7770     4.8410     0.4080 C.ar  1 <1>   0.0540 
  8 C       -4.2040     4.4430    -0.9140 C.2   1 <1>   0.2350 
  9 N       -5.1290     3.5490    -1.1350 N.2   1 <1>  -0.7070 
 10 C       -3.7260     4.9650    -2.1220 C.2   1 <1>  -0.1810 
 11 N       -5.2350     3.4530    -2.4690 N.pl3 1 <1>   0.3000 
 12 C       -4.3990     4.3070    -3.0910 C.2   1 <1>  -0.3020 
 13 C       -2.6830     6.0510    -2.2630 C.3   1 <1>   0.5240 
 14 N       -3.3770     7.3590    -2.3660 N.4   1 <1>  -0.9590 
 15 C       -2.4420     8.4500    -2.8080 C.3   1 <1>   0.3430 
 16 C       -4.0580     7.7310    -1.0740 C.3   1 <1>   0.3430 
 17 C       -3.1450     9.8220    -2.8670 C.3   1 <1>   0.1100 
 18 C       -4.7270     9.1160    -1.1490 C.3   1 <1>   0.1100 
 19 N       -3.7640    10.1560    -1.5730 N.3   1 <1>  -0.8100 
 20 C       -4.3730    11.5030    -1.5950 C.3   1 <1>   0.2530 
 21 C       -4.8890    11.8860    -0.2160 C.ar  1 <1>  -0.1430 
 22 C       -6.2500    12.0930    -0.0120 C.ar  1 <1>  -0.1500 
 23 C       -3.9970    12.0250     0.8480 C.ar  1 <1>  -0.1500 
 24 C       -6.6760    12.4290     1.2570 C.ar  1 <1>   0.0830 
 25 C       -4.4440    12.3670     2.1190 C.ar  1 <1>  -0.1500 
 26 O       -7.9230    12.6650     1.6760 O.3   1 <1>  -0.3630 
 27 C       -5.7990    12.5640     2.2930 C.ar  1 <1>   0.0830 
 28 C       -7.8340    12.9860     3.0630 C.3   1 <1>   0.4000 
 29 O       -6.4540    12.8950     3.4110 O.3   1 <1>  -0.3620 
 30 H       -1.0000     5.1610     2.3460 H     1 <1>   0.1500 
 31 H       -5.0280     6.1400     3.2910 H     1 <1>   0.1500 
 32 H       -1.7090     4.3580     0.1210 H     1 <1>   0.1500 
 33 H       -5.7480     5.3420     1.0610 H     1 <1>   0.1500 
 34 H       -5.8870     2.7940    -2.9190 H     1 <1>   0.2700 
 35 H       -4.3470     4.3810    -4.1640 H     1 <1>   0.1500 
 36 H       -2.1090     5.8690    -3.1560 H     1 <1>   0.0800 
 37 H       -2.0140     6.0450    -1.4180 H     1 <1>   0.0800 
 38 H       -4.1150     7.2500    -3.0710 H     1 <1>   0.4500 
 39 H       -2.0370     8.2190    -3.7790 H     1 <1>   0.0800 
 40 H       -1.6210     8.5270    -2.1130 H     1 <1>   0.0800 
 41 H       -3.3380     7.7480    -0.2720 H     1 <1>   0.0800 
 42 H       -4.8080     6.9980    -0.8290 H     1 <1>   0.0800 
 43 H       -3.8890     9.8180    -3.6460 H     1 <1>   0.0800 
 44 H       -2.4120    10.5730    -3.1120 H     1 <1>   0.0800 
 45 H       -5.1080     9.3500    -0.1690 H     1 <1>   0.0800 
 46 H       -5.5620     9.0830    -1.8270 H     1 <1>   0.0800 
 47 H       -5.1760    11.5330    -2.3110 H     1 <1>   0.0800 
 48 H       -3.6320    12.2260    -1.8930 H     1 <1>   0.0800 
 49 H       -6.9700    11.9980    -0.8040 H     1 <1>   0.1500 
 50 H       -2.9460    11.8600     0.6850 H     1 <1>   0.1500 
 51 H       -3.7680    12.4790     2.9470 H     1 <1>   0.1500 
 52 H       -8.3990    12.2730     3.6360 H     1 <1>   0.0800 
 53 H       -8.1800    13.9920     3.2230 H     1 <1>   0.0800 
@<TRIPOS>BOND
  1   1   2  1   
  2   2   3  ar  
  3   2   4  ar  
  4   3   5  ar  
  5   3  30  1   
  6   4   6  ar  
  7   4  31  1   
  8   5   7  ar  
  9   5  32  1   
 10   6   7  ar  
 11   6  33  1   
 12   7   8  1   
 13   8   9  2   
 14   8  10  1   
 15   9  11  1   
 16  10  12  2   
 17  10  13  1   
 18  11  12  1   
 19  11  34  1   
 20  12  35  1   
 21  13  14  1   
 22  13  36  1   
 23  13  37  1   
 24  14  15  1   
 25  14  16  1   
 26  14  38  1   
 27  15  17  1   
 28  15  39  1   
 29  15  40  1   
 30  16  18  1   
 31  16  41  1   
 32  16  42  1   
 33  17  19  1   
 34  17  43  1   
 35  17  44  1   
 36  18  19  1   
 37  18  45  1   
 38  18  46  1   
 39  19  20  1   
 40  20  21  1   
 41  20  47  1   
 42  20  48  1   
 43  21  22  ar  
 44  21  23  ar  
 45  22  24  ar  
 46  22  49  1   
 47  23  25  ar  
 48  23  50  1   
 49  24  26  1   
 50  24  27  ar  
 51  25  27  ar  
 52  25  51  1   
 53  26  28  1   
 54  27  29  1   
 55  28  29  1   
 56  28  52  1   
 57  28  53  1   
@<TRIPOS>SUBSTRUCTURE
  1 ****  16 GROUP 4 **** **** 0

# MOE 2024.06 (io_trps.svl 2023.06)
