@<TRIPOS>MOLECULE
7-Benzyl-1,3-dimethyl-8-(3-methyl-piperidin-1-ylmethyl)-3,7-dihydro-purine-2,6-d
56 59 1 0 0 
SMALL
USER_CHARGES


@<TRIPOS>ATOM
  1 O       -0.6190     0.3540     0.2480 O.2   1 <1>  -0.5700 
  2 C        0.5110     0.7970     0.2830 C.2   1 <1>   0.6900 
  3 N        0.8750     1.6880     1.2870 N.am  1 <1>  -0.4200 
  4 N        1.4350     0.4130    -0.6780 N.am  1 <1>  -0.4360 
  5 C        2.1650     2.1940     1.3680 C.2   1 <1>   0.7030 
  6 C       -0.1490     2.0800     2.3080 C.3   1 <1>   0.0600 
  7 C        2.7090     0.9460    -0.6060 C.2   1 <1>   0.4260 
  8 C        1.0580    -0.5360    -1.7690 C.3   1 <1>   0.0600 
  9 O        2.4760     2.9560     2.2660 O.2   1 <1>  -0.5700 
 10 C        3.1140     1.7980     0.3650 C.2   1 <1>   0.2770 
 11 N        3.7480     0.7340    -1.4560 N.pl3 1 <1>  -0.7000 
 12 N        4.4490     2.0940     0.0910 N.pl3 1 <1>  -0.7640 
 13 C        4.7880     1.4450    -1.0180 C.cat 1 <1>   0.6560 
 14 C        5.3130     3.0160     0.8850 C.3   1 <1>   0.4970 
 15 C        6.1610     1.4840    -1.7220 C.3   1 <1>   0.2540 
 16 C        5.4940     4.3060     0.1020 C.ar  1 <1>  -0.1430 
 17 N        7.3110     1.2200    -0.8210 N.3   1 <1>  -0.8100 
 18 C        6.7350     4.6390    -0.4200 C.ar  1 <1>  -0.1500 
 19 C        4.4200     5.1620    -0.1000 C.ar  1 <1>  -0.1500 
 20 C        7.3000    -0.1530    -0.2770 C.3   1 <1>   0.1100 
 21 C        8.5880     1.4990    -1.5020 C.3   1 <1>   0.1100 
 22 C        6.8980     5.8030    -1.1500 C.ar  1 <1>  -0.1500 
 23 C        4.5820     6.3270    -0.8300 C.ar  1 <1>  -0.1500 
 24 C        8.4100    -0.3190     0.7720 C.3   1 <1>  -0.0800 
 25 C        9.7420     1.3980    -0.5010 C.3   1 <1>  -0.1600 
 26 C        5.8200     6.6460    -1.3580 C.ar  1 <1>  -0.1500 
 27 C        9.7810     0.0180     0.1670 C.3   1 <1>  -0.1600 
 28 C        8.4110    -1.7430     1.3400 C.3   1 <1>  -0.2400 
 29 H       -0.2280     1.3070     3.0530 H     1 <1>   0.0800 
 30 H       -1.1100     2.2100     1.8400 H     1 <1>   0.0800 
 31 H        0.1160     3.0050     2.7900 H     1 <1>   0.0800 
 32 H        0.1620    -1.0780    -1.5130 H     1 <1>   0.0800 
 33 H        1.8440    -1.2520    -1.9290 H     1 <1>   0.0800 
 34 H        0.8770     0.0100    -2.6790 H     1 <1>   0.0800 
 35 H        3.7190     0.1400    -2.2850 H     1 <1>   0.4500 
 36 H        6.2660     2.5550     1.0770 H     1 <1>   0.0800 
 37 H        4.8650     3.2330     1.8380 H     1 <1>   0.0800 
 38 H        6.2720     2.4630    -2.1540 H     1 <1>   0.0800 
 39 H        6.1700     0.7700    -2.5270 H     1 <1>   0.0800 
 40 H        7.5860     3.9980    -0.2610 H     1 <1>   0.1500 
 41 H        3.4520     4.9340     0.3120 H     1 <1>   0.1500 
 42 H        7.4460    -0.8650    -1.0730 H     1 <1>   0.0800 
 43 H        6.3540    -0.3570     0.1940 H     1 <1>   0.0800 
 44 H        8.5740     2.4930    -1.9190 H     1 <1>   0.0800 
 45 H        8.7420     0.7970    -2.3050 H     1 <1>   0.0800 
 46 H        7.8620     6.0580    -1.5550 H     1 <1>   0.1500 
 47 H        3.7480     6.9890    -0.9850 H     1 <1>   0.1500 
 48 H        8.2110     0.3650     1.5800 H     1 <1>   0.0800 
 49 H        9.6240     2.1620     0.2480 H     1 <1>   0.0800 
 50 H       10.6730     1.5780    -1.0090 H     1 <1>   0.0800 
 51 H        5.9470     7.5520    -1.9250 H     1 <1>   0.1500 
 52 H       10.0440    -0.7220    -0.5690 H     1 <1>   0.0800 
 53 H       10.5350     0.0080     0.9350 H     1 <1>   0.0800 
 54 H        8.6050    -2.4640     0.5650 H     1 <1>   0.0800 
 55 H        7.4620    -1.9690     1.7930 H     1 <1>   0.0800 
 56 H        9.1740    -1.8400     2.0930 H     1 <1>   0.0800 
@<TRIPOS>BOND
  1   1   2  2   
  2   2   3  am  
  3   2   4  am  
  4   3   5  am  
  5   3   6  1   
  6   4   7  1   
  7   4   8  1   
  8   5   9  2   
  9   5  10  1   
 10   6  29  1   
 11   6  30  1   
 12   6  31  1   
 13   7  10  2   
 14   7  11  1   
 15   8  32  1   
 16   8  33  1   
 17   8  34  1   
 18  10  12  1   
 19  11  13  ar  
 20  11  35  1   
 21  12  13  ar  
 22  12  14  1   
 23  13  15  1   
 24  14  16  1   
 25  14  36  1   
 26  14  37  1   
 27  15  17  1   
 28  15  38  1   
 29  15  39  1   
 30  16  18  ar  
 31  16  19  ar  
 32  17  20  1   
 33  17  21  1   
 34  18  22  ar  
 35  18  40  1   
 36  19  23  ar  
 37  19  41  1   
 38  20  24  1   
 39  20  42  1   
 40  20  43  1   
 41  21  25  1   
 42  21  44  1   
 43  21  45  1   
 44  22  26  ar  
 45  22  46  1   
 46  23  26  ar  
 47  23  47  1   
 48  24  27  1   
 49  24  28  1   
 50  24  48  1   
 51  25  27  1   
 52  25  49  1   
 53  25  50  1   
 54  26  51  1   
 55  27  52  1   
 56  27  53  1   
 57  28  54  1   
 58  28  55  1   
 59  28  56  1   
@<TRIPOS>SUBSTRUCTURE
  1 ****  12 GROUP 4 **** **** 0

# MOE 2024.06 (io_trps.svl 2023.06)
