@<TRIPOS>MOLECULE
N-Allyl-4-[3-(3-methoxy-phenyl)-[1,2,4]oxadiazol-5-yl]-butyramide
41 42 1 0 0 
SMALL
USER_CHARGES


@<TRIPOS>ATOM
  1 O       -1.1840    -2.9940    -1.5800 O.2   1 <1>  -0.5700 
  2 C       -1.0410    -2.6360    -0.4380 C.2   1 <1>   0.5690 
  3 N        0.1420    -2.1730     0.0280 N.am  1 <1>  -0.7300 
  4 C       -2.2240    -2.6900     0.5070 C.3   1 <1>  -0.0990 
  5 C        1.3730    -2.0870    -0.7660 C.3   1 <1>   0.2780 
  6 C       -3.1010    -1.4300     0.3870 C.3   1 <1>  -0.1600 
  7 C        2.5270    -2.3670     0.1720 C.2   1 <1>  -0.2880 
  8 C       -4.2400    -1.3720     1.4200 C.3   1 <1>   0.0200 
  9 C        3.4770    -1.4910     0.5160 C.2   1 <1>  -0.3000 
 10 C       -5.2150    -2.5290     1.3010 C.2   1 <1>   0.2980 
 11 O       -4.9390    -3.6540     1.9060 O.3   1 <1>  -0.0190 
 12 N       -6.3090    -2.5090     0.6610 N.2   1 <1>  -0.5650 
 13 N       -5.9420    -4.4210     1.6190 N.2   1 <1>  -0.4100 
 14 C       -6.7550    -3.7500     0.8810 C.2   1 <1>   0.4620 
 15 C       -8.0100    -4.2430     0.3370 C.ar  1 <1>   0.0540 
 16 C       -8.8130    -3.4550    -0.4880 C.ar  1 <1>  -0.1500 
 17 C       -8.4640    -5.5330     0.6210 C.ar  1 <1>  -0.1500 
 18 C      -10.0090    -3.9190    -1.0080 C.ar  1 <1>   0.0820 
 19 C       -9.6570    -6.0110     0.1090 C.ar  1 <1>  -0.1500 
 20 O      -10.7050    -3.0630    -1.7980 O.3   1 <1>  -0.3630 
 21 C      -10.4340    -5.2080    -0.7060 C.ar  1 <1>  -0.1500 
 22 C      -11.9360    -3.4330    -2.3760 C.3   1 <1>   0.0400 
 23 H        0.2460    -1.8690     0.9950 H     1 <1>   0.3700 
 24 H       -1.8660    -2.8010     1.5140 H     1 <1>   0.0800 
 25 H       -2.8000    -3.5640     0.2610 H     1 <1>   0.0800 
 26 H        1.4570    -1.1010    -1.1880 H     1 <1>   0.0800 
 27 H        1.3550    -2.8080    -1.5680 H     1 <1>   0.0800 
 28 H       -3.5230    -1.3950    -0.6040 H     1 <1>   0.0800 
 29 H       -2.4830    -0.5570     0.5060 H     1 <1>   0.0800 
 30 H        2.5050    -3.3760     0.5460 H     1 <1>   0.1500 
 31 H       -4.7880    -0.4570     1.2760 H     1 <1>   0.0800 
 32 H       -3.8360    -1.3550     2.4160 H     1 <1>   0.0800 
 33 H        4.2880    -1.7200     1.1870 H     1 <1>   0.1500 
 34 H        3.5280    -0.4760     0.1600 H     1 <1>   0.1500 
 35 H       -8.5040    -2.4560    -0.7360 H     1 <1>   0.1500 
 36 H       -7.8730    -6.1720     1.2530 H     1 <1>   0.1500 
 37 H       -9.9810    -7.0100     0.3460 H     1 <1>   0.1500 
 38 H      -11.3560    -5.6000    -1.0910 H     1 <1>   0.1500 
 39 H      -12.2970    -2.6010    -2.9530 H     1 <1>   0.0800 
 40 H      -12.6350    -3.6640    -1.5920 H     1 <1>   0.0800 
 41 H      -11.7790    -4.2820    -3.0180 H     1 <1>   0.0800 
@<TRIPOS>BOND
  1   1   2  2   
  2   2   3  am  
  3   2   4  1   
  4   3   5  1   
  5   3  23  1   
  6   4   6  1   
  7   4  24  1   
  8   4  25  1   
  9   5   7  1   
 10   5  26  1   
 11   5  27  1   
 12   6   8  1   
 13   6  28  1   
 14   6  29  1   
 15   7   9  2   
 16   7  30  1   
 17   8  10  1   
 18   8  31  1   
 19   8  32  1   
 20   9  33  1   
 21   9  34  1   
 22  10  11  1   
 23  10  12  2   
 24  11  13  1   
 25  12  14  1   
 26  13  14  2   
 27  14  15  1   
 28  15  16  ar  
 29  15  17  ar  
 30  16  18  ar  
 31  16  35  1   
 32  17  19  ar  
 33  17  36  1   
 34  18  20  1   
 35  18  21  ar  
 36  19  21  ar  
 37  19  37  1   
 38  20  22  1   
 39  21  38  1   
 40  22  39  1   
 41  22  40  1   
 42  22  41  1   
@<TRIPOS>SUBSTRUCTURE
  1 ****  10 GROUP 4 **** **** 0

# MOE 2024.06 (io_trps.svl 2023.06)
