@<TRIPOS>MOLECULE
N-Bicyclo[2.2.1]hept-2-yl-2-(5-pyridin-2-yl-4H-[1,2,4]triazol-3-ylsulfanyl)-acet
42 45 1 0 0 
SMALL
USER_CHARGES


@<TRIPOS>ATOM
  1 S        0.4050    -1.4110    -0.8510 S.3   1 <1>  -0.2860 
  2 C       -1.3550    -1.3440    -1.2070 C.2   1 <1>   0.2420 
  3 C        0.5510    -2.3140     0.7690 C.3   1 <1>   0.1310 
  4 N       -1.8430    -0.7880    -2.2590 N.2   1 <1>  -0.3380 
  5 N       -2.2830    -1.8590    -0.4200 N.pl3 1 <1>   0.0330 
  6 C        1.9970    -2.4480     1.2200 C.2   1 <1>   0.5690 
  7 N       -3.1660    -0.9390    -2.1710 N.2   1 <1>  -0.3380 
  8 C       -3.4250    -1.5840    -1.0620 C.2   1 <1>   0.1330 
  9 O        2.2070    -3.0110     2.2660 O.2   1 <1>  -0.5700 
 10 N        3.0010    -1.9450     0.4570 N.am  1 <1>  -0.7300 
 11 C       -4.7100    -1.9780    -0.5360 C.ar  1 <1>   0.3630 
 12 C        4.4450    -2.0020     0.7790 C.3   1 <1>   0.2200 
 13 N       -4.7210    -2.6380     0.6320 N.ar  1 <1>  -0.6200 
 14 C       -5.8850    -1.6780    -1.2270 C.ar  1 <1>  -0.1500 
 15 C        5.0970    -0.5030     0.8860 C.3   1 <1>  -0.0800 
 16 C        5.2570    -2.8180    -0.4290 C.3   1 <1>  -0.1600 
 17 C       -5.9060    -2.9920     1.0990 C.ar  1 <1>   0.1600 
 18 C       -7.1110    -2.0530    -0.7270 C.ar  1 <1>  -0.1500 
 19 C        5.8170    -1.1900    -0.0100 C.3   1 <1>  -0.1600 
 20 C        6.3560     0.4290     0.4130 C.3   1 <1>  -0.1600 
 21 C        6.5090    -1.8850    -0.9180 C.3   1 <1>  -0.0800 
 22 C       -7.1110    -2.7300     0.4720 C.ar  1 <1>  -0.1500 
 23 C        7.1730    -0.3950    -0.7950 C.3   1 <1>  -0.1600 
 24 H        0.1210    -3.2880     0.6340 H     1 <1>   0.0800 
 25 H       -0.0060    -1.7570     1.4990 H     1 <1>   0.0800 
 26 H       -2.2190    -2.3550     0.4690 H     1 <1>   0.2700 
 27 H        2.7680    -1.4830    -0.4250 H     1 <1>   0.3700 
 28 H        4.5830    -2.5190     1.7180 H     1 <1>   0.0800 
 29 H       -5.8240    -1.1470    -2.1610 H     1 <1>   0.1500 
 30 H        4.2660     0.1230     0.5920 H     1 <1>   0.0800 
 31 H        4.6000    -3.0220    -1.2600 H     1 <1>   0.0800 
 32 H        5.6120    -3.7640    -0.0530 H     1 <1>   0.0800 
 33 H       -5.9230    -3.5220     2.0370 H     1 <1>   0.1500 
 34 H       -8.0260    -1.8290    -1.2490 H     1 <1>   0.1500 
 35 H        5.1190    -0.7770    -0.8660 H     1 <1>   0.0800 
 36 H        6.5060    -1.6160     0.8450 H     1 <1>   0.0800 
 37 H        7.0150     0.6140     1.2490 H     1 <1>   0.0800 
 38 H        6.0150     1.3870     0.0520 H     1 <1>   0.0800 
 39 H        7.3500    -2.5050    -0.6350 H     1 <1>   0.0800 
 40 H       -8.0350    -3.0520     0.9180 H     1 <1>   0.1500 
 41 H        8.2250    -0.4560    -0.5640 H     1 <1>   0.0800 
 42 H        7.0780     0.1310    -1.7330 H     1 <1>   0.0800 
@<TRIPOS>BOND
  1   1   2  1   
  2   1   3  1   
  3   2   4  2   
  4   2   5  1   
  5   3   6  1   
  6   3  24  1   
  7   3  25  1   
  8   4   7  1   
  9   5   8  1   
 10   5  26  1   
 11   6   9  2   
 12   6  10  am  
 13   7   8  2   
 14   8  11  1   
 15  10  12  1   
 16  10  27  1   
 17  11  13  ar  
 18  11  14  ar  
 19  12  15  1   
 20  12  16  1   
 21  12  28  1   
 22  13  17  ar  
 23  14  18  ar  
 24  14  29  1   
 25  15  19  1   
 26  15  20  1   
 27  15  30  1   
 28  16  21  1   
 29  16  31  1   
 30  16  32  1   
 31  17  22  ar  
 32  17  33  1   
 33  18  22  ar  
 34  18  34  1   
 35  19  21  1   
 36  19  35  1   
 37  19  36  1   
 38  20  23  1   
 39  20  37  1   
 40  20  38  1   
 41  21  23  1   
 42  21  39  1   
 43  22  40  1   
 44  23  41  1   
 45  23  42  1   
@<TRIPOS>SUBSTRUCTURE
  1 ****   1 GROUP 4 **** **** 0

# MOE 2024.06 (io_trps.svl 2023.06)
