@<TRIPOS>MOLECULE
Pentanoic acid {1-[3-(4-chloro-phenyl)-[1,2,4]oxadiazol-5-yl]-ethyl}-amide
39 40 1 0 0 
SMALL
USER_CHARGES


@<TRIPOS>ATOM
  1 CL       2.7950    -1.4180    -0.4070 Cl    1 <1>  -0.1770 
  2 C        3.4770     0.1870    -0.4030 C.ar  1 <1>   0.1770 
  3 C        2.7840     1.2200     0.1980 C.ar  1 <1>  -0.1500 
  4 C        4.7020     0.4090    -1.0010 C.ar  1 <1>  -0.1500 
  5 C        3.3290     2.4920     0.1980 C.ar  1 <1>  -0.1500 
  6 C        5.2370     1.6850    -0.9950 C.ar  1 <1>  -0.1500 
  7 C        4.5670     2.7580    -0.3970 C.ar  1 <1>   0.0540 
  8 C        5.1410     4.0940    -0.3970 C.2   1 <1>   0.4620 
  9 N        6.2660     4.4270    -0.9240 N.2   1 <1>  -0.4100 
 10 N        4.5340     5.1420     0.1690 N.2   1 <1>  -0.5650 
 11 O        6.4450     5.6930    -0.7180 O.3   1 <1>  -0.0190 
 12 C        5.3780     6.0670    -0.0610 C.2   1 <1>   0.2980 
 13 C        5.2780     7.5440     0.3380 C.3   1 <1>   0.4000 
 14 N        6.1930     7.8470     1.4570 N.am  1 <1>  -0.7300 
 15 C        3.8710     7.9540     0.7750 C.3   1 <1>  -0.2400 
 16 C        7.4250     8.4000     1.4290 C.2   1 <1>   0.5690 
 17 O        8.0160     8.5510     2.4670 O.2   1 <1>  -0.5700 
 18 C        8.0560     8.8280     0.1090 C.3   1 <1>  -0.0990 
 19 C        9.5210     9.2840     0.2280 C.3   1 <1>  -0.1600 
 20 C       10.0980     9.6800    -1.1370 C.3   1 <1>  -0.1600 
 21 C       11.5550    10.1310    -1.0050 C.3   1 <1>  -0.2400 
 22 H        1.8310     1.0260     0.6580 H     1 <1>   0.1500 
 23 H        5.2250    -0.4090    -1.4630 H     1 <1>   0.1500 
 24 H        2.7850     3.2930     0.6680 H     1 <1>   0.1500 
 25 H        6.1930     1.8530    -1.4610 H     1 <1>   0.1500 
 26 H        5.5480     8.1360    -0.5190 H     1 <1>   0.0800 
 27 H        5.8770     7.5300     2.3750 H     1 <1>   0.3700 
 28 H        3.5600     7.3820     1.6310 H     1 <1>   0.0800 
 29 H        3.1760     7.7710    -0.0240 H     1 <1>   0.0800 
 30 H        3.8460     9.0020     1.0160 H     1 <1>   0.0800 
 31 H        7.4720     9.6330    -0.2950 H     1 <1>   0.0800 
 32 H        8.0120     7.9990    -0.5720 H     1 <1>   0.0800 
 33 H       10.1070     8.4840     0.6500 H     1 <1>   0.0800 
 34 H        9.5780    10.1230     0.9020 H     1 <1>   0.0800 
 35 H        9.5170    10.4830    -1.5580 H     1 <1>   0.0800 
 36 H       10.0490     8.8410    -1.8100 H     1 <1>   0.0800 
 37 H       11.6270    10.9830    -0.3520 H     1 <1>   0.0800 
 38 H       11.9450    10.4050    -1.9700 H     1 <1>   0.0800 
 39 H       12.1600     9.3360    -0.6050 H     1 <1>   0.0800 
@<TRIPOS>BOND
  1   1   2  1   
  2   2   3  ar  
  3   2   4  ar  
  4   3   5  ar  
  5   3  22  1   
  6   4   6  ar  
  7   4  23  1   
  8   5   7  ar  
  9   5  24  1   
 10   6   7  ar  
 11   6  25  1   
 12   7   8  1   
 13   8   9  2   
 14   8  10  1   
 15   9  11  1   
 16  10  12  2   
 17  11  12  1   
 18  12  13  1   
 19  13  14  1   
 20  13  15  1   
 21  13  26  1   
 22  14  16  am  
 23  14  27  1   
 24  15  28  1   
 25  15  29  1   
 26  15  30  1   
 27  16  17  2   
 28  16  18  1   
 29  18  19  1   
 30  18  31  1   
 31  18  32  1   
 32  19  20  1   
 33  19  33  1   
 34  19  34  1   
 35  20  21  1   
 36  20  35  1   
 37  20  36  1   
 38  21  37  1   
 39  21  38  1   
 40  21  39  1   
@<TRIPOS>SUBSTRUCTURE
  1 ****  12 GROUP 4 **** **** 0

# MOE 2024.06 (io_trps.svl 2023.06)
