@<TRIPOS>MOLECULE
6-Methoxy-2-oxo-2H-chromene-3-carboxylic acid tert-butylamide
37 38 1 0 0 
SMALL
USER_CHARGES


@<TRIPOS>ATOM
  1 O       -0.4650     1.0610     1.7700 O.2   1 <1>  -0.5700 
  2 C       -1.4500     1.4490     1.1690 C.2   1 <1>   0.7060 
  3 O       -2.6250     1.0050     1.6290 O.3   1 <1>  -0.2330 
  4 C       -1.4340     2.3320     0.0270 C.2   1 <1>   0.0290 
  5 C       -3.8160     1.3340     1.0870 C.ar  1 <1>   0.0830 
  6 C       -0.1780     2.8320    -0.4970 C.2   1 <1>   0.6160 
  7 C       -2.6300     2.6750    -0.5340 C.2   1 <1>  -0.1780 
  8 C       -3.8620     2.1840    -0.0200 C.ar  1 <1>   0.0280 
  9 C       -4.9790     0.8190     1.6390 C.ar  1 <1>  -0.1500 
 10 O       -0.1970     3.5740    -1.4600 O.2   1 <1>  -0.5700 
 11 N        1.0320     2.5020     0.0500 N.am  1 <1>  -0.7300 
 12 C       -5.1090     2.5030    -0.5560 C.ar  1 <1>  -0.1500 
 13 C       -6.2060     1.1460     1.0950 C.ar  1 <1>  -0.1500 
 14 C        2.3910     2.8970    -0.3280 C.3   1 <1>   0.3000 
 15 C       -6.2730     1.9950    -0.0120 C.ar  1 <1>   0.0830 
 16 C        3.3270     2.2050     0.6610 C.3   1 <1>  -0.2400 
 17 C        2.5460     4.4120    -0.2040 C.3   1 <1>  -0.2400 
 18 C        2.6980     2.4140    -1.7460 C.3   1 <1>  -0.2400 
 19 O       -7.4370     2.3650    -0.6050 O.3   1 <1>  -0.3630 
 20 C       -8.6820     1.9030    -0.1290 C.3   1 <1>   0.0400 
 21 H       -2.6820     3.3300    -1.3880 H     1 <1>   0.1500 
 22 H       -4.9160     0.1660     2.4910 H     1 <1>   0.1500 
 23 H        1.0070     1.8730     0.8620 H     1 <1>   0.3700 
 24 H       -5.1730     3.1560    -1.4070 H     1 <1>   0.1500 
 25 H       -7.0950     0.7370     1.5380 H     1 <1>   0.1500 
 26 H        3.1160     2.5210     1.6670 H     1 <1>   0.0800 
 27 H        4.3490     2.4540     0.4390 H     1 <1>   0.0800 
 28 H        3.2210     1.1360     0.5980 H     1 <1>   0.0800 
 29 H        1.9200     4.9180    -0.9160 H     1 <1>   0.0800 
 30 H        3.5640     4.6970    -0.3990 H     1 <1>   0.0800 
 31 H        2.2830     4.7380     0.7860 H     1 <1>   0.0800 
 32 H        3.7210     2.6280    -1.9960 H     1 <1>   0.0800 
 33 H        2.5400     1.3540    -1.8250 H     1 <1>   0.0800 
 34 H        2.0720     2.9160    -2.4610 H     1 <1>   0.0800 
 35 H       -9.4530     2.3240    -0.7500 H     1 <1>   0.0800 
 36 H       -8.8120     2.2320     0.8870 H     1 <1>   0.0800 
 37 H       -8.7060     0.8300    -0.1950 H     1 <1>   0.0800 
@<TRIPOS>BOND
  1   1   2  2   
  2   2   3  1   
  3   2   4  1   
  4   3   5  1   
  5   4   6  1   
  6   4   7  2   
  7   5   8  ar  
  8   5   9  ar  
  9   6  10  2   
 10   6  11  am  
 11   7   8  1   
 12   7  21  1   
 13   8  12  ar  
 14   9  13  ar  
 15   9  22  1   
 16  11  14  1   
 17  11  23  1   
 18  12  15  ar  
 19  12  24  1   
 20  13  15  ar  
 21  13  25  1   
 22  14  16  1   
 23  14  17  1   
 24  14  18  1   
 25  15  19  1   
 26  16  26  1   
 27  16  27  1   
 28  16  28  1   
 29  17  29  1   
 30  17  30  1   
 31  17  31  1   
 32  18  32  1   
 33  18  33  1   
 34  18  34  1   
 35  19  20  1   
 36  20  35  1   
 37  20  36  1   
 38  20  37  1   
@<TRIPOS>SUBSTRUCTURE
  1 ****   4 GROUP 4 **** **** 0

# MOE 2024.06 (io_trps.svl 2023.06)
