@<TRIPOS>MOLECULE
N-(3,4-Dimethyl-phenyl)-3-[3-(3,4,5-trimethoxy-phenyl)-[1,2,4]oxadiazol-5-yl]-pr
55 57 1 0 0 
SMALL
USER_CHARGES


@<TRIPOS>ATOM
  1 O       -0.3690    -0.6130    -0.6260 O.2   1 <1>  -0.5700 
  2 C        0.2690    -1.6340    -0.5910 C.2   1 <1>   0.5690 
  3 N        1.6130    -1.5910    -0.7750 N.am  1 <1>  -0.5470 
  4 C       -0.4380    -2.9530    -0.3240 C.3   1 <1>  -0.0990 
  5 C        2.5550    -2.6230    -0.8130 C.ar  1 <1>   0.1170 
  6 C       -1.7600    -2.7730     0.4390 C.3   1 <1>   0.0200 
  7 C        3.6620    -2.5780     0.0220 C.ar  1 <1>  -0.1500 
  8 C        2.4170    -3.6970    -1.6810 C.ar  1 <1>  -0.1500 
  9 C       -2.4210    -4.1080     0.7180 C.2   1 <1>   0.2980 
 10 C        4.6130    -3.5860     0.0110 C.ar  1 <1>  -0.1430 
 11 C        3.3590    -4.7080    -1.6990 C.ar  1 <1>  -0.1500 
 12 O       -1.8560    -4.9240     1.5680 O.3   1 <1>  -0.0190 
 13 N       -3.4950    -4.5260     0.1920 N.2   1 <1>  -0.5650 
 14 C        4.4590    -4.6630    -0.8560 C.ar  1 <1>  -0.1430 
 15 C        5.8060    -3.4890     0.9520 C.3   1 <1>  -0.0970 
 16 N       -2.6400    -5.9550     1.5840 N.2   1 <1>  -0.4100 
 17 C       -3.6130    -5.7250     0.7740 C.2   1 <1>   0.4620 
 18 C        5.4730    -5.7980    -0.9040 C.3   1 <1>  -0.0970 
 19 C       -4.7190    -6.6270     0.4970 C.ar  1 <1>   0.0540 
 20 C       -4.7800    -7.8910     1.0810 C.ar  1 <1>  -0.1500 
 21 C       -5.7610    -6.2690    -0.3600 C.ar  1 <1>  -0.1500 
 22 C       -5.8190    -8.7670     0.8300 C.ar  1 <1>   0.0830 
 23 C       -6.8260    -7.1250    -0.6230 C.ar  1 <1>   0.0830 
 24 O       -5.7490    -9.9740     1.4540 O.3   1 <1>  -0.3620 
 25 C       -6.8640    -8.3800    -0.0140 C.ar  1 <1>   0.0830 
 26 O       -7.8500    -6.7820    -1.4580 O.3   1 <1>  -0.3630 
 27 C       -5.9920   -11.1450     0.7030 C.3   1 <1>   0.0400 
 28 O       -7.9180    -9.2090    -0.2430 O.3   1 <1>  -0.3630 
 29 C       -7.8100    -5.6060    -2.2370 C.3   1 <1>   0.0400 
 30 C       -9.0710    -8.9410     0.5190 C.3   1 <1>   0.0400 
 31 H        1.9760    -0.6400    -0.8500 H     1 <1>   0.3700 
 32 H        0.2120    -3.5900     0.2490 H     1 <1>   0.0800 
 33 H       -0.6360    -3.4310    -1.2660 H     1 <1>   0.0800 
 34 H       -2.4340    -2.1670    -0.1420 H     1 <1>   0.0800 
 35 H       -1.5810    -2.2690     1.3720 H     1 <1>   0.0800 
 36 H        3.7720    -1.7430     0.6890 H     1 <1>   0.1500 
 37 H        1.5790    -3.7390    -2.3510 H     1 <1>   0.1500 
 38 H        3.2310    -5.5330    -2.3780 H     1 <1>   0.1500 
 39 H        5.7640    -2.5900     1.5400 H     1 <1>   0.0800 
 40 H        6.7210    -3.4800     0.3880 H     1 <1>   0.0800 
 41 H        5.8150    -4.3290     1.6220 H     1 <1>   0.0800 
 42 H        6.4390    -5.4160    -1.1800 H     1 <1>   0.0800 
 43 H        5.1860    -6.5420    -1.6240 H     1 <1>   0.0800 
 44 H        5.5440    -6.2700     0.0590 H     1 <1>   0.0800 
 45 H       -3.9970    -8.2090     1.7470 H     1 <1>   0.1500 
 46 H       -5.7210    -5.2980    -0.8150 H     1 <1>   0.1500 
 47 H       -7.0500   -11.3270     0.6710 H     1 <1>   0.0800 
 48 H       -5.6010   -11.0150    -0.2910 H     1 <1>   0.0800 
 49 H       -5.4970   -11.9650     1.1900 H     1 <1>   0.0800 
 50 H       -6.9260    -5.6220    -2.8490 H     1 <1>   0.0800 
 51 H       -7.8130    -4.7530    -1.5830 H     1 <1>   0.0800 
 52 H       -8.6860    -5.5910    -2.8600 H     1 <1>   0.0800 
 53 H       -9.8170    -9.6720     0.2690 H     1 <1>   0.0800 
 54 H       -8.8190    -9.0080     1.5630 H     1 <1>   0.0800 
 55 H       -9.4270    -7.9540     0.2810 H     1 <1>   0.0800 
@<TRIPOS>BOND
  1   1   2  2   
  2   2   3  am  
  3   2   4  1   
  4   3   5  1   
  5   3  31  1   
  6   4   6  1   
  7   4  32  1   
  8   4  33  1   
  9   5   7  ar  
 10   5   8  ar  
 11   6   9  1   
 12   6  34  1   
 13   6  35  1   
 14   7  10  ar  
 15   7  36  1   
 16   8  11  ar  
 17   8  37  1   
 18   9  12  1   
 19   9  13  2   
 20  10  14  ar  
 21  10  15  1   
 22  11  14  ar  
 23  11  38  1   
 24  12  16  1   
 25  13  17  1   
 26  14  18  1   
 27  15  39  1   
 28  15  40  1   
 29  15  41  1   
 30  16  17  2   
 31  17  19  1   
 32  18  42  1   
 33  18  43  1   
 34  18  44  1   
 35  19  20  ar  
 36  19  21  ar  
 37  20  22  ar  
 38  20  45  1   
 39  21  23  ar  
 40  21  46  1   
 41  22  24  1   
 42  22  25  ar  
 43  23  25  ar  
 44  23  26  1   
 45  24  27  1   
 46  25  28  1   
 47  26  29  1   
 48  27  47  1   
 49  27  48  1   
 50  27  49  1   
 51  28  30  1   
 52  29  50  1   
 53  29  51  1   
 54  29  52  1   
 55  30  53  1   
 56  30  54  1   
 57  30  55  1   
@<TRIPOS>SUBSTRUCTURE
  1 ****   9 GROUP 4 **** **** 0

# MOE 2024.06 (io_trps.svl 2023.06)
