@<TRIPOS>MOLECULE
3-(2-Chloro-benzyl)-1,7-dimethyl-8-(tetrahydro-furan-2-ylmethyl)-1H,8H-imidazo[2
53 57 1 0 0 
SMALL
USER_CHARGES


@<TRIPOS>ATOM
  1 CL       1.4240    -0.4220     0.3520 Cl    1 <1>  -0.1840 
  2 C        1.5740    -2.0140    -0.3550 C.ar  1 <1>   0.1700 
  3 C        2.1190    -3.0710     0.3640 C.ar  1 <1>  -0.1500 
  4 C        1.1180    -2.1780    -1.6500 C.ar  1 <1>  -0.1570 
  5 C        2.1750    -4.3170    -0.2470 C.ar  1 <1>  -0.1570 
  6 C        2.6420    -2.9020     1.7870 C.3   1 <1>   0.2780 
  7 C        1.1950    -3.4230    -2.2490 C.ar  1 <1>  -0.1570 
  8 C        1.7200    -4.4910    -1.5440 C.ar  1 <1>  -0.1570 
  9 N        4.1300    -3.0120     1.7930 N.am  1 <1>  -0.4250 
 10 C        4.7240    -4.2520     1.9920 C.2   1 <1>   0.6870 
 11 C        4.8900    -1.8900     1.4990 C.2   1 <1>   0.7000 
 12 O        4.0610    -5.1930     2.3760 O.2   1 <1>  -0.5740 
 13 N        6.0850    -4.4170     1.7640 N.am  1 <1>  -0.4410 
 14 O        4.3890    -0.7810     1.4510 O.2   1 <1>  -0.5740 
 15 C        6.2850    -2.0720     1.2770 C.2   1 <1>   0.2710 
 16 C        6.8270    -3.3050     1.4190 C.2   1 <1>   0.4210 
 17 C        6.7350    -5.7490     1.9380 C.3   1 <1>   0.0530 
 18 N        7.3380    -1.2190     0.9090 N.pl3 1 <1>  -0.6330 
 19 N        8.1640    -3.2340     1.1650 N.pl3 1 <1>  -0.7030 
 20 C        8.4310    -1.9670     0.8510 C.cat 1 <1>   1.0690 
 21 C        7.7100     0.0630     0.5590 C.2   1 <1>   0.2230 
 22 N        9.5050    -1.2520     0.4860 N.pl3 1 <1>  -0.5720 
 23 C        9.0380     0.0440     0.3020 C.2   1 <1>   0.1580 
 24 C       10.9210    -1.7330     0.4010 C.3   1 <1>   0.1610 
 25 C        9.9390     1.1900    -0.1180 C.3   1 <1>  -0.1090 
 26 C       11.1090    -2.9420    -0.5370 C.3   1 <1>   0.1930 
 27 O       10.3930    -4.0500    -0.0830 O.3   1 <1>  -0.5640 
 28 C       12.5480    -3.4340    -0.6050 C.3   1 <1>  -0.1670 
 29 C       10.9290    -5.2140    -0.6380 C.3   1 <1>   0.1130 
 30 C       12.3940    -4.9090    -0.9380 C.3   1 <1>  -0.1670 
 31 H        0.7050    -1.3390    -2.1810 H     1 <1>   0.1430 
 32 H        2.5680    -5.1700     0.2810 H     1 <1>   0.1430 
 33 H        2.2100    -3.6630     2.4140 H     1 <1>   0.0730 
 34 H        2.3450    -1.9570     2.2040 H     1 <1>   0.0730 
 35 H        0.8420    -3.5610    -3.2570 H     1 <1>   0.1430 
 36 H        1.7720    -5.4630    -2.0050 H     1 <1>   0.1430 
 37 H        6.0220    -6.5390     1.7730 H     1 <1>   0.0730 
 38 H        7.1180    -5.8360     2.9400 H     1 <1>   0.0730 
 39 H        7.5400    -5.8720     1.2360 H     1 <1>   0.0730 
 40 H        8.8700    -3.9590     0.9790 H     1 <1>   0.4450 
 41 H        7.0050     0.8810     0.5220 H     1 <1>   0.1430 
 42 H       11.2640    -1.9970     1.3870 H     1 <1>   0.0730 
 43 H       11.5480    -0.9350     0.0460 H     1 <1>   0.0730 
 44 H        9.3720     2.1000    -0.2070 H     1 <1>   0.0730 
 45 H       10.7140     1.3430     0.6120 H     1 <1>   0.0730 
 46 H       10.3920     0.9780    -1.0700 H     1 <1>   0.0730 
 47 H       10.7610    -2.7070    -1.5300 H     1 <1>   0.0730 
 48 H       13.0280    -3.3240     0.3520 H     1 <1>   0.0730 
 49 H       13.1190    -2.9050    -1.3490 H     1 <1>   0.0730 
 50 H       10.3890    -5.4390    -1.5430 H     1 <1>   0.0730 
 51 H       10.8220    -6.0200     0.0670 H     1 <1>   0.0730 
 52 H       13.0490    -5.5190    -0.3400 H     1 <1>   0.0730 
 53 H       12.5990    -5.0980    -1.9780 H     1 <1>   0.0730 
@<TRIPOS>BOND
  1   1   2  1   
  2   2   3  ar  
  3   2   4  ar  
  4   3   5  ar  
  5   3   6  1   
  6   4   7  ar  
  7   4  31  1   
  8   5   8  ar  
  9   5  32  1   
 10   6   9  1   
 11   6  33  1   
 12   6  34  1   
 13   7   8  ar  
 14   7  35  1   
 15   8  36  1   
 16   9  10  am  
 17   9  11  am  
 18  10  12  2   
 19  10  13  am  
 20  11  14  2   
 21  11  15  1   
 22  13  16  1   
 23  13  17  1   
 24  15  16  2   
 25  15  18  1   
 26  16  19  1   
 27  17  37  1   
 28  17  38  1   
 29  17  39  1   
 30  18  20  ar  
 31  18  21  1   
 32  19  20  ar  
 33  19  40  1   
 34  20  22  ar  
 35  21  23  2   
 36  21  41  1   
 37  22  23  1   
 38  22  24  1   
 39  23  25  1   
 40  24  26  1   
 41  24  42  1   
 42  24  43  1   
 43  25  44  1   
 44  25  45  1   
 45  25  46  1   
 46  26  27  1   
 47  26  28  1   
 48  26  47  1   
 49  27  29  1   
 50  28  30  1   
 51  28  48  1   
 52  28  49  1   
 53  29  30  1   
 54  29  50  1   
 55  29  51  1   
 56  30  52  1   
 57  30  53  1   
@<TRIPOS>SUBSTRUCTURE
  1 ****  15 GROUP 4 **** **** 0

# MOE 2024.06 (io_trps.svl 2023.06)
