@<TRIPOS>MOLECULE
8-(2-Methoxy-phenyl)-1-methyl-5,6,7,8-tetrahydro-1H-1,3,4b,8,9-pentaaza-fluorene
42 45 1 0 0 
SMALL
USER_CHARGES


@<TRIPOS>ATOM
  1 O        1.7030     0.1980    -2.7290 O.2   1 <1>  -0.5760 
  2 C        2.4680     0.8450    -2.0520 C.2   1 <1>   0.6850 
  3 N        3.7060     0.3560    -1.6600 N.am  1 <1>  -0.4430 
  4 N        2.0910     2.1000    -1.6660 N.am  1 <1>  -0.4960 
  5 C        4.5090     1.1830    -0.8890 C.2   1 <1>   0.4190 
  6 C        4.1660    -1.0070    -2.0540 C.3   1 <1>   0.0500 
  7 C        2.8700     2.9280    -0.9090 C.2   1 <1>   0.6980 
  8 N        5.7520     0.9230    -0.4030 N.pl3 1 <1>  -0.7050 
  9 C        4.1510     2.4310    -0.5060 C.2   1 <1>   0.2690 
 10 O        2.4530     4.0320    -0.6170 O.2   1 <1>  -0.5760 
 11 C        6.1710     1.9970     0.2620 C.cat 1 <1>   1.0680 
 12 N        5.2300     2.9370     0.2320 N.pl3 1 <1>  -0.7680 
 13 N        7.3510     2.1530     0.8960 N.pl3 1 <1>  -0.5810 
 14 C        5.3610     4.2780     0.8300 C.3   1 <1>   0.3470 
 15 C        8.3490     1.1550     0.9330 C.ar  1 <1>   0.3030 
 16 C        7.6330     3.4330     1.6060 C.3   1 <1>   0.1590 
 17 C        6.8520     4.5960     0.9770 C.3   1 <1>  -0.1690 
 18 C        8.8930     0.6000    -0.2370 C.ar  1 <1>   0.0730 
 19 C        8.8060     0.7010     2.1640 C.ar  1 <1>  -0.1590 
 20 O        8.4310     1.0490    -1.4410 O.3   1 <1>  -0.3700 
 21 C        9.8700    -0.3860    -0.1480 C.ar  1 <1>  -0.1590 
 22 C        9.7780    -0.2800     2.2450 C.ar  1 <1>  -0.1590 
 23 C        9.1920     0.8690    -2.6200 C.3   1 <1>   0.0300 
 24 C       10.3080    -0.8220     1.0900 C.ar  1 <1>  -0.1590 
 25 H        1.1770     2.4290    -1.9690 H     1 <1>   0.3630 
 26 H        3.3910    -1.5360    -2.5820 H     1 <1>   0.0700 
 27 H        4.4260    -1.5730    -1.1770 H     1 <1>   0.0700 
 28 H        5.0250    -0.9280    -2.6980 H     1 <1>   0.0700 
 29 H        6.3660     0.1360    -0.6030 H     1 <1>   0.4430 
 30 H        4.8810     4.2850     1.7950 H     1 <1>   0.0700 
 31 H        4.8850     5.0140     0.2040 H     1 <1>   0.0700 
 32 H        8.6890     3.6460     1.5610 H     1 <1>   0.0700 
 33 H        7.3550     3.3270     2.6410 H     1 <1>   0.0700 
 34 H        6.9700     5.4770     1.5820 H     1 <1>   0.0700 
 35 H        7.2650     4.8190     0.0080 H     1 <1>   0.0700 
 36 H        8.4020     1.1080     3.0730 H     1 <1>   0.1410 
 37 H       10.3030    -0.8330    -1.0240 H     1 <1>   0.1410 
 38 H       10.1250    -0.6230     3.2060 H     1 <1>   0.1410 
 39 H        8.7330     1.4380    -3.4090 H     1 <1>   0.0700 
 40 H        9.1980    -0.1750    -2.8820 H     1 <1>   0.0700 
 41 H       10.1940     1.2260    -2.4500 H     1 <1>   0.0700 
 42 H       11.0660    -1.5850     1.1540 H     1 <1>   0.1410 
@<TRIPOS>BOND
  1   1   2  2   
  2   2   3  am  
  3   2   4  am  
  4   3   5  1   
  5   3   6  1   
  6   4   7  am  
  7   4  25  1   
  8   5   8  1   
  9   5   9  2   
 10   6  26  1   
 11   6  27  1   
 12   6  28  1   
 13   7   9  1   
 14   7  10  2   
 15   8  11  ar  
 16   8  29  1   
 17   9  12  1   
 18  11  12  ar  
 19  11  13  ar  
 20  12  14  1   
 21  13  15  1   
 22  13  16  1   
 23  14  17  1   
 24  14  30  1   
 25  14  31  1   
 26  15  18  ar  
 27  15  19  ar  
 28  16  17  1   
 29  16  32  1   
 30  16  33  1   
 31  17  34  1   
 32  17  35  1   
 33  18  20  1   
 34  18  21  ar  
 35  19  22  ar  
 36  19  36  1   
 37  20  23  1   
 38  21  24  ar  
 39  21  37  1   
 40  22  24  ar  
 41  22  38  1   
 42  23  39  1   
 43  23  40  1   
 44  23  41  1   
 45  24  42  1   
@<TRIPOS>SUBSTRUCTURE
  1 ****   8 GROUP 4 **** **** 0

# MOE 2024.06 (io_trps.svl 2023.06)
