@<TRIPOS>MOLECULE
1-(2-Ethyl-phenyl)-5-oxo-pyrrolidine-3-carboxylic acid (5-chloro-2-methoxy-pheny
47 49 1 0 0 
SMALL
USER_CHARGES


@<TRIPOS>ATOM
  1 CL      -0.3870    -0.0660     1.8320 Cl    1 <1>  -0.1770 
  2 C       -1.8270     0.7070     1.2180 C.ar  1 <1>   0.1770 
  3 C       -2.9920    -0.0240     1.1040 C.ar  1 <1>  -0.1500 
  4 C       -1.7710     2.0390     0.8590 C.ar  1 <1>  -0.1500 
  5 C       -4.1450     0.5820     0.6150 C.ar  1 <1>   0.1170 
  6 C       -2.9110     2.6570     0.3720 C.ar  1 <1>  -0.1500 
  7 N       -5.3720    -0.0910     0.4680 N.am  1 <1>  -0.5470 
  8 C       -4.0960     1.9350     0.2490 C.ar  1 <1>   0.0830 
  9 C       -5.7590    -1.3880     0.6540 C.2   1 <1>   0.5690 
 10 O       -5.2540     2.4890    -0.2260 O.3   1 <1>  -0.3630 
 11 O       -5.0180    -2.2560     1.0440 O.2   1 <1>  -0.5700 
 12 C       -7.2120    -1.7370     0.3680 C.3   1 <1>  -0.0190 
 13 C       -5.3030     3.8360    -0.6470 C.3   1 <1>   0.0400 
 14 C       -7.4820    -3.2480     0.2940 C.3   1 <1>   0.1400 
 15 C       -7.7480    -1.1830    -0.9640 C.3   1 <1>  -0.0990 
 16 N       -8.5910    -3.3710    -0.6680 N.am  1 <1>  -0.4770 
 17 C       -8.7370    -2.2290    -1.3950 C.2   1 <1>   0.5690 
 18 C       -9.2850    -4.5820    -0.8060 C.ar  1 <1>   0.1170 
 19 O       -9.5390    -2.0230    -2.2720 O.2   1 <1>  -0.5700 
 20 C      -10.6080    -4.7450    -0.3830 C.ar  1 <1>  -0.1430 
 21 C       -8.6200    -5.6660    -1.3690 C.ar  1 <1>  -0.1500 
 22 C      -11.2230    -5.9800    -0.5250 C.ar  1 <1>  -0.1500 
 23 C      -11.4120    -3.6070     0.2400 C.3   1 <1>  -0.0170 
 24 C       -9.2410    -6.8920    -1.5070 C.ar  1 <1>  -0.1500 
 25 C      -10.5470    -7.0500    -1.0830 C.ar  1 <1>  -0.1500 
 26 C      -11.1560    -3.5150     1.7460 C.3   1 <1>  -0.2400 
 27 H       -2.9830    -1.0550     1.3990 H     1 <1>   0.1500 
 28 H       -0.8480     2.5810     0.9600 H     1 <1>   0.1500 
 29 H       -2.8500     3.6930     0.0980 H     1 <1>   0.1500 
 30 H       -6.0950     0.5470     0.1290 H     1 <1>   0.3700 
 31 H       -7.8100    -1.3450     1.1710 H     1 <1>   0.0800 
 32 H       -6.3010     4.0450    -0.9880 H     1 <1>   0.0800 
 33 H       -4.6060     3.9760    -1.4550 H     1 <1>   0.0800 
 34 H       -5.0620     4.4720     0.1860 H     1 <1>   0.0800 
 35 H       -7.7570    -3.6510     1.2530 H     1 <1>   0.0800 
 36 H       -6.6300    -3.7820    -0.0910 H     1 <1>   0.0800 
 37 H       -6.9750    -1.1220    -1.7090 H     1 <1>   0.0800 
 38 H       -8.2280    -0.2290    -0.8460 H     1 <1>   0.0800 
 39 H       -7.6070    -5.5430    -1.7040 H     1 <1>   0.1500 
 40 H      -12.2390    -6.1160    -0.2000 H     1 <1>   0.1500 
 41 H      -12.4620    -3.7740     0.0700 H     1 <1>   0.0800 
 42 H      -11.1700    -2.6720    -0.2310 H     1 <1>   0.0800 
 43 H       -8.7120    -7.7200    -1.9450 H     1 <1>   0.1500 
 44 H      -11.0370    -8.0020    -1.1880 H     1 <1>   0.1500 
 45 H      -11.4210    -4.4420     2.2230 H     1 <1>   0.0800 
 46 H      -11.7440    -2.7240     2.1730 H     1 <1>   0.0800 
 47 H      -10.1170    -3.3160     1.9350 H     1 <1>   0.0800 
@<TRIPOS>BOND
  1   1   2  1   
  2   2   3  ar  
  3   2   4  ar  
  4   3   5  ar  
  5   3  27  1   
  6   4   6  ar  
  7   4  28  1   
  8   5   7  1   
  9   5   8  ar  
 10   6   8  ar  
 11   6  29  1   
 12   7   9  am  
 13   7  30  1   
 14   8  10  1   
 15   9  11  2   
 16   9  12  1   
 17  10  13  1   
 18  12  14  1   
 19  12  15  1   
 20  12  31  1   
 21  13  32  1   
 22  13  33  1   
 23  13  34  1   
 24  14  16  1   
 25  14  35  1   
 26  14  36  1   
 27  15  17  1   
 28  15  37  1   
 29  15  38  1   
 30  16  17  am  
 31  16  18  1   
 32  17  19  2   
 33  18  20  ar  
 34  18  21  ar  
 35  20  22  ar  
 36  20  23  1   
 37  21  24  ar  
 38  21  39  1   
 39  22  25  ar  
 40  22  40  1   
 41  23  26  1   
 42  23  41  1   
 43  23  42  1   
 44  24  25  ar  
 45  24  43  1   
 46  25  44  1   
 47  26  45  1   
 48  26  46  1   
 49  26  47  1   
@<TRIPOS>SUBSTRUCTURE
  1 ****  12 GROUP 4 **** **** 0

# MOE 2024.06 (io_trps.svl 2023.06)
