@<TRIPOS>MOLECULE
N-Benzyl-4-[2-(4-ethyl-piperazin-1-yl)-2-oxo-ethoxy]-N-methyl-benzenesulfonamide
60 62 1 0 0 
SMALL
USER_CHARGES


@<TRIPOS>ATOM
  1 S        0.0570    -0.9760    -1.6030 S.o2  1 <1>   1.4470 
  2 O       -0.2270    -2.3900    -1.7240 O.2   1 <1>  -0.6500 
  3 O       -0.0060    -0.1380    -2.7800 O.2   1 <1>  -0.6500 
  4 N       -1.0560    -0.3550    -0.4880 N.am  1 <1>  -0.8490 
  5 C        1.6560    -0.7260    -0.7870 C.ar  1 <1>  -0.0090 
  6 C       -2.3590    -0.1930    -1.1380 C.3   1 <1>   0.3390 
  7 C       -1.1660    -1.1840     0.7230 C.3   1 <1>   0.1160 
  8 C        2.5870    -1.7550    -0.6930 C.ar  1 <1>  -0.1500 
  9 C        1.9920     0.5070    -0.2390 C.ar  1 <1>  -0.1500 
 10 C       -3.3770     0.4480    -0.2010 C.ar  1 <1>  -0.1430 
 11 C        3.8110    -1.5670    -0.0750 C.ar  1 <1>  -0.1500 
 12 C        3.2110     0.7060     0.3820 C.ar  1 <1>  -0.1500 
 13 C       -4.5340    -0.2310     0.1560 C.ar  1 <1>  -0.1500 
 14 C       -3.1540     1.7200     0.3030 C.ar  1 <1>  -0.1500 
 15 C        4.1300    -0.3250     0.4640 C.ar  1 <1>   0.0830 
 16 C       -5.4540     0.3560     1.0070 C.ar  1 <1>  -0.1500 
 17 C       -4.0740     2.3090     1.1540 C.ar  1 <1>  -0.1500 
 18 O        5.3060    -0.0460     1.0710 O.3   1 <1>  -0.3630 
 19 C       -5.2250     1.6260     1.5060 C.ar  1 <1>  -0.1500 
 20 C        6.3640    -0.9920     1.1010 C.3   1 <1>   0.1810 
 21 C        7.6320    -0.3870     1.7010 C.2   1 <1>   0.5690 
 22 O        8.2180    -1.0490     2.5230 O.2   1 <1>  -0.5700 
 23 N        8.1180     0.8470     1.3200 N.am  1 <1>  -0.6600 
 24 C        9.2120     1.5010     2.1070 C.3   1 <1>   0.1400 
 25 C        7.5670     1.6730     0.1990 C.3   1 <1>   0.1400 
 26 C       10.3090     2.0610     1.1850 C.3   1 <1>   0.3430 
 27 C        8.6900     2.2660    -0.6770 C.3   1 <1>   0.3430 
 28 N        9.7450     2.9780     0.1330 N.4   1 <1>  -0.9590 
 29 C       10.8350     3.5290    -0.7150 C.3   1 <1>   0.3430 
 30 C       10.3150     4.7220    -1.5090 C.3   1 <1>  -0.2400 
 31 H       -2.7190    -1.1500    -1.4780 H     1 <1>   0.0800 
 32 H       -2.2580     0.4460    -2.0000 H     1 <1>   0.0800 
 33 H       -0.1960    -1.3260     1.1670 H     1 <1>   0.0800 
 34 H       -1.5850    -2.1490     0.4880 H     1 <1>   0.0800 
 35 H       -1.7930    -0.7010     1.4540 H     1 <1>   0.0800 
 36 H        2.3460    -2.7200    -1.1100 H     1 <1>   0.1500 
 37 H        1.2850     1.3180    -0.2990 H     1 <1>   0.1500 
 38 H        4.4900    -2.3980    -0.0230 H     1 <1>   0.1500 
 39 H        3.4510     1.6640     0.8070 H     1 <1>   0.1500 
 40 H       -4.7250    -1.2190    -0.2250 H     1 <1>   0.1500 
 41 H       -2.2570     2.2510     0.0340 H     1 <1>   0.1500 
 42 H       -6.3500    -0.1740     1.2810 H     1 <1>   0.1500 
 43 H       -3.8930     3.2960     1.5400 H     1 <1>   0.1500 
 44 H       -5.9400     2.0830     2.1670 H     1 <1>   0.1500 
 45 H        6.5650    -1.3190     0.0980 H     1 <1>   0.0800 
 46 H        6.0480    -1.8270     1.7000 H     1 <1>   0.0800 
 47 H        9.6620     0.8000     2.7880 H     1 <1>   0.0800 
 48 H        8.7920     2.2960     2.6980 H     1 <1>   0.0800 
 49 H        6.9660     2.4670     0.6090 H     1 <1>   0.0800 
 50 H        6.9310     1.0790    -0.4320 H     1 <1>   0.0800 
 51 H       10.8130     1.2320     0.7160 H     1 <1>   0.0800 
 52 H       11.0310     2.5900     1.7850 H     1 <1>   0.0800 
 53 H        8.2510     2.9460    -1.3880 H     1 <1>   0.0800 
 54 H        9.1470     1.4630    -1.2310 H     1 <1>   0.0800 
 55 H        9.2920     3.7640     0.6180 H     1 <1>   0.4500 
 56 H       11.2090     2.7710    -1.3850 H     1 <1>   0.0800 
 57 H       11.6500     3.8580    -0.0900 H     1 <1>   0.0800 
 58 H        9.5650     4.4290    -2.2210 H     1 <1>   0.0800 
 59 H       11.1310     5.1570    -2.0600 H     1 <1>   0.0800 
 60 H        9.9210     5.4790    -0.8540 H     1 <1>   0.0800 
@<TRIPOS>BOND
  1   1   2  2   
  2   1   3  2   
  3   1   4  am  
  4   1   5  1   
  5   4   6  1   
  6   4   7  1   
  7   5   8  ar  
  8   5   9  ar  
  9   6  10  1   
 10   6  31  1   
 11   6  32  1   
 12   7  33  1   
 13   7  34  1   
 14   7  35  1   
 15   8  11  ar  
 16   8  36  1   
 17   9  12  ar  
 18   9  37  1   
 19  10  13  ar  
 20  10  14  ar  
 21  11  15  ar  
 22  11  38  1   
 23  12  15  ar  
 24  12  39  1   
 25  13  16  ar  
 26  13  40  1   
 27  14  17  ar  
 28  14  41  1   
 29  15  18  1   
 30  16  19  ar  
 31  16  42  1   
 32  17  19  ar  
 33  17  43  1   
 34  18  20  1   
 35  19  44  1   
 36  20  21  1   
 37  20  45  1   
 38  20  46  1   
 39  21  22  2   
 40  21  23  am  
 41  23  24  1   
 42  23  25  1   
 43  24  26  1   
 44  24  47  1   
 45  24  48  1   
 46  25  27  1   
 47  25  49  1   
 48  25  50  1   
 49  26  28  1   
 50  26  51  1   
 51  26  52  1   
 52  27  28  1   
 53  27  53  1   
 54  27  54  1   
 55  28  29  1   
 56  28  55  1   
 57  29  30  1   
 58  29  56  1   
 59  29  57  1   
 60  30  58  1   
 61  30  59  1   
 62  30  60  1   
@<TRIPOS>SUBSTRUCTURE
  1 ****  12 GROUP 4 **** **** 0

# MOE 2024.06 (io_trps.svl 2023.06)
