@<TRIPOS>MOLECULE
2-(3,4-Dimethoxy-phenyl)-N-(5-ethoxymethyl-[1,3,4]thiadiazol-2-yl)-acetamide
42 43 1 0 0 
SMALL
USER_CHARGES


@<TRIPOS>ATOM
  1 S       -0.7410     0.1400     0.0890 S.3   1 <1>  -0.0800 
  2 C       -2.2640     0.9650    -0.0460 C.2   1 <1>   0.4420 
  3 C       -1.5130    -1.2410    -0.6120 C.2   1 <1>   0.1980 
  4 N       -3.1720     0.2230    -0.5660 N.2   1 <1>  -0.3380 
  5 N       -2.4340     2.2650     0.3760 N.am  1 <1>  -0.4940 
  6 N       -2.7380    -1.0320    -0.8900 N.2   1 <1>  -0.3380 
  7 C       -0.6830    -2.4930    -0.8320 C.3   1 <1>   0.3000 
  8 C       -1.5600     3.2020     0.8490 C.2   1 <1>   0.5690 
  9 O       -0.1420    -2.9340     0.3780 O.3   1 <1>  -0.5600 
 10 O       -0.3750     3.0140     0.9590 O.2   1 <1>  -0.5700 
 11 C       -2.1030     4.5640     1.2520 C.3   1 <1>   0.0440 
 12 C        0.6300    -4.0810     0.2740 C.3   1 <1>   0.1200 
 13 C       -3.6150     4.6790     1.0800 C.ar  1 <1>  -0.1440 
 14 C        1.1450    -4.4110     1.6690 C.3   1 <1>  -0.2400 
 15 C       -4.1490     5.0730    -0.1390 C.ar  1 <1>  -0.1500 
 16 C       -4.4670     4.3690     2.1290 C.ar  1 <1>  -0.1500 
 17 C       -5.5200     5.1500    -0.3160 C.ar  1 <1>   0.0820 
 18 C       -5.8390     4.4620     1.9660 C.ar  1 <1>  -0.1500 
 19 O       -5.9680     5.4960    -1.5470 O.3   1 <1>  -0.3630 
 20 C       -6.3740     4.8660     0.7560 C.ar  1 <1>   0.0820 
 21 C       -6.6960     4.5120    -2.2510 C.3   1 <1>   0.0400 
 22 O       -7.7230     4.9710     0.6730 O.3   1 <1>  -0.3620 
 23 C       -8.2410     6.2690     0.4780 C.3   1 <1>   0.0400 
 24 H       -3.4020     2.5820     0.3100 H     1 <1>   0.3700 
 25 H        0.1220    -2.2800    -1.5130 H     1 <1>   0.0800 
 26 H       -1.3070    -3.2720    -1.2350 H     1 <1>   0.0800 
 27 H       -1.6120     5.3130     0.6590 H     1 <1>   0.0800 
 28 H       -1.8380     4.7430     2.2780 H     1 <1>   0.0800 
 29 H        1.4520    -3.8920    -0.3970 H     1 <1>   0.0800 
 30 H        0.0180    -4.8830    -0.1040 H     1 <1>   0.0800 
 31 H        1.7400    -3.5990     2.0440 H     1 <1>   0.0800 
 32 H        1.7520    -5.2970     1.6350 H     1 <1>   0.0800 
 33 H        0.3180    -4.5860     2.3350 H     1 <1>   0.0800 
 34 H       -3.5110     5.3170    -0.9690 H     1 <1>   0.1500 
 35 H       -4.0710     4.0540     3.0810 H     1 <1>   0.1500 
 36 H       -6.5020     4.2270     2.7790 H     1 <1>   0.1500 
 37 H       -7.6240     4.3220    -1.7430 H     1 <1>   0.0800 
 38 H       -6.8900     4.8810    -3.2410 H     1 <1>   0.0800 
 39 H       -6.1070     3.6130    -2.3010 H     1 <1>   0.0800 
 40 H       -7.8600     6.9140     1.2500 H     1 <1>   0.0800 
 41 H       -7.9440     6.6300    -0.4900 H     1 <1>   0.0800 
 42 H       -9.3130     6.2160     0.5360 H     1 <1>   0.0800 
@<TRIPOS>BOND
  1   1   2  1   
  2   1   3  1   
  3   2   4  2   
  4   2   5  1   
  5   3   6  2   
  6   3   7  1   
  7   4   6  1   
  8   5   8  am  
  9   5  24  1   
 10   7   9  1   
 11   7  25  1   
 12   7  26  1   
 13   8  10  2   
 14   8  11  1   
 15   9  12  1   
 16  11  13  1   
 17  11  27  1   
 18  11  28  1   
 19  12  14  1   
 20  12  29  1   
 21  12  30  1   
 22  13  15  ar  
 23  13  16  ar  
 24  14  31  1   
 25  14  32  1   
 26  14  33  1   
 27  15  17  ar  
 28  15  34  1   
 29  16  18  ar  
 30  16  35  1   
 31  17  19  1   
 32  17  20  ar  
 33  18  20  ar  
 34  18  36  1   
 35  19  21  1   
 36  20  22  1   
 37  21  37  1   
 38  21  38  1   
 39  21  39  1   
 40  22  23  1   
 41  23  40  1   
 42  23  41  1   
 43  23  42  1   
@<TRIPOS>SUBSTRUCTURE
  1 ****   5 GROUP 4 **** **** 0

# MOE 2024.06 (io_trps.svl 2023.06)
