@<TRIPOS>MOLECULE
1-[4-(4-Methoxy-phenoxy)-butyl]-1H-benzotriazole
41 43 1 0 0 
SMALL
USER_CHARGES


@<TRIPOS>ATOM
  1 O        0.1790    -0.0210     0.5230 O.3   1 <1>  -0.3630 
  2 C        0.9640    -1.0510     0.1110 C.ar  1 <1>   0.0830 
  3 C        0.5480     1.3150     0.2770 C.3   1 <1>   0.1200 
  4 C        0.5120    -2.3300     0.3950 C.ar  1 <1>  -0.1500 
  5 C        2.1700    -0.8860    -0.5650 C.ar  1 <1>  -0.1500 
  6 C       -0.5390     2.2190     0.8600 C.3   1 <1>  -0.1600 
  7 C        1.2460    -3.4390     0.0140 C.ar  1 <1>  -0.1500 
  8 C        2.9040    -1.9960    -0.9460 C.ar  1 <1>  -0.1500 
  9 C       -0.2240     3.7000     0.6110 C.3   1 <1>  -0.1600 
 10 C        2.4520    -3.2740    -0.6630 C.ar  1 <1>   0.0830 
 11 C       -1.3080     4.6060     1.2110 C.3   1 <1>   0.0960 
 12 O        3.2360    -4.3050    -1.0740 O.3   1 <1>  -0.3630 
 13 N       -1.0020     6.0260     0.9540 N.pl3 1 <1>   0.3140 
 14 C        2.8630    -5.6430    -0.8330 C.3   1 <1>   0.0400 
 15 N       -0.3810     6.8090     1.8500 N.2   1 <1>  -0.4180 
 16 C       -1.2570     6.7220    -0.1760 C.ar  1 <1>  -0.1520 
 17 N       -0.2300     7.9750     1.3430 N.2   1 <1>  -0.2270 
 18 C       -0.7550     7.9690     0.0940 C.ar  1 <1>   0.2270 
 19 C       -1.8590     6.4300    -1.4060 C.ar  1 <1>  -0.1500 
 20 C       -0.8390     8.9810    -0.8650 C.ar  1 <1>  -0.1500 
 21 C       -1.9400     7.4300    -2.3480 C.ar  1 <1>  -0.1500 
 22 C       -1.4290     8.7070    -2.0790 C.ar  1 <1>  -0.1500 
 23 H        0.6310     1.4530    -0.7880 H     1 <1>   0.0800 
 24 H        1.4950     1.4990     0.7540 H     1 <1>   0.0800 
 25 H       -0.4200    -2.4490     0.9170 H     1 <1>   0.1500 
 26 H        2.5540     0.0880    -0.8020 H     1 <1>   0.1500 
 27 H       -0.6090     2.0370     1.9190 H     1 <1>   0.0800 
 28 H       -1.4810     1.9670     0.4030 H     1 <1>   0.0800 
 29 H        0.8650    -4.4140     0.2500 H     1 <1>   0.1500 
 30 H        3.8360    -1.8790    -1.4680 H     1 <1>   0.1500 
 31 H       -0.1550     3.8770    -0.4490 H     1 <1>   0.0800 
 32 H        0.7240     3.9440     1.0610 H     1 <1>   0.0800 
 33 H       -1.3640     4.4610     2.2750 H     1 <1>   0.0800 
 34 H       -2.2680     4.3810     0.7830 H     1 <1>   0.0800 
 35 H        3.6260    -6.2810    -1.2420 H     1 <1>   0.0800 
 36 H        1.9240    -5.8370    -1.3200 H     1 <1>   0.0800 
 37 H        2.7880    -5.7980     0.2290 H     1 <1>   0.0800 
 38 H       -2.2480     5.4470    -1.6030 H     1 <1>   0.1500 
 39 H       -0.4390     9.9500    -0.6310 H     1 <1>   0.1500 
 40 H       -2.3970     7.2420    -3.3050 H     1 <1>   0.1500 
 41 H       -1.5040     9.4730    -2.8320 H     1 <1>   0.1500 
@<TRIPOS>BOND
  1   1   2  1   
  2   1   3  1   
  3   2   4  ar  
  4   2   5  ar  
  5   3   6  1   
  6   3  23  1   
  7   3  24  1   
  8   4   7  ar  
  9   4  25  1   
 10   5   8  ar  
 11   5  26  1   
 12   6   9  1   
 13   6  27  1   
 14   6  28  1   
 15   7  10  ar  
 16   7  29  1   
 17   8  10  ar  
 18   8  30  1   
 19   9  11  1   
 20   9  31  1   
 21   9  32  1   
 22  10  12  1   
 23  11  13  1   
 24  11  33  1   
 25  11  34  1   
 26  12  14  1   
 27  13  15  1   
 28  13  16  1   
 29  14  35  1   
 30  14  36  1   
 31  14  37  1   
 32  15  17  2   
 33  16  18  ar  
 34  16  19  ar  
 35  17  18  1   
 36  18  20  ar  
 37  19  21  ar  
 38  19  38  1   
 39  20  22  ar  
 40  20  39  1   
 41  21  22  ar  
 42  21  40  1   
 43  22  41  1   
@<TRIPOS>SUBSTRUCTURE
  1 ****   6 GROUP 4 **** **** 0

# MOE 2024.06 (io_trps.svl 2023.06)
