@<TRIPOS>MOLECULE
N-[2-(4-Methyl-piperazin-1-yl)-phenyl]-2-p-tolyloxy-acetamide
51 53 1 0 0 
SMALL
USER_CHARGES


@<TRIPOS>ATOM
  1 O        0.1980     0.1650     1.0230 O.2   1 <1>  -0.5700 
  2 C       -0.6090     0.8750     0.4720 C.2   1 <1>   0.5690 
  3 N       -0.3130     2.1070    -0.0330 N.am  1 <1>  -0.5470 
  4 C       -2.0470     0.3880     0.3580 C.3   1 <1>   0.1810 
  5 C        0.8270     2.9240     0.0310 C.ar  1 <1>   0.1170 
  6 O       -2.9150     1.4490    -0.0360 O.3   1 <1>  -0.3630 
  7 C        0.6420     4.3110    -0.1040 C.ar  1 <1>   0.1000 
  8 C        2.1040     2.4120     0.2030 C.ar  1 <1>  -0.1500 
  9 C       -4.2360     1.2250    -0.2430 C.ar  1 <1>   0.0830 
 10 N       -0.6570     4.8440    -0.2460 N.pl3 1 <1>  -0.8380 
 11 C        1.7590     5.1390    -0.0700 C.ar  1 <1>  -0.1500 
 12 C        3.2030     3.2530     0.2380 C.ar  1 <1>  -0.1500 
 13 C       -4.9420     2.2130    -0.9100 C.ar  1 <1>  -0.1500 
 14 C       -4.8990     0.0750     0.1730 C.ar  1 <1>  -0.1500 
 15 C       -1.5000     4.8920     0.9910 C.3   1 <1>   0.2090 
 16 C       -0.9180     5.9030    -1.2710 C.3   1 <1>   0.2090 
 17 C        3.0290     4.6170     0.0990 C.ar  1 <1>  -0.1500 
 18 C       -6.2940     2.0620    -1.1590 C.ar  1 <1>  -0.1500 
 19 C       -6.2520    -0.0720    -0.0780 C.ar  1 <1>  -0.1500 
 20 C       -1.5870     6.3200     1.5700 C.3   1 <1>   0.3430 
 21 C       -1.0530     7.3080    -0.6400 C.3   1 <1>   0.3430 
 22 C       -6.9570     0.9190    -0.7420 C.ar  1 <1>  -0.1430 
 23 N       -2.0000     7.3390     0.5360 N.4   1 <1>  -0.9590 
 24 C       -8.4410     0.7500    -1.0160 C.3   1 <1>  -0.0970 
 25 C       -2.0850     8.7080     1.1300 C.3   1 <1>   0.2630 
 26 H       -1.1150     2.6100    -0.4200 H     1 <1>   0.3700 
 27 H       -2.3670     0.0210     1.3150 H     1 <1>   0.0800 
 28 H       -2.1070    -0.3930    -0.3770 H     1 <1>   0.0800 
 29 H        2.2480     1.3520     0.3060 H     1 <1>   0.1500 
 30 H        1.6500     6.2000    -0.1690 H     1 <1>   0.1500 
 31 H        4.1890     2.8420     0.3720 H     1 <1>   0.1500 
 32 H       -4.4290     3.0970    -1.2400 H     1 <1>   0.1500 
 33 H       -4.3890    -0.7130     0.6940 H     1 <1>   0.1500 
 34 H       -1.0820     4.2370     1.7380 H     1 <1>   0.0800 
 35 H       -2.4870     4.5290     0.7620 H     1 <1>   0.0800 
 36 H       -1.8230     5.6590    -1.7990 H     1 <1>   0.0800 
 37 H       -0.1190     5.9100    -1.9940 H     1 <1>   0.0800 
 38 H        3.8860     5.2690     0.1250 H     1 <1>   0.1500 
 39 H       -6.8310     2.8340    -1.6820 H     1 <1>   0.1500 
 40 H       -6.7580    -0.9650     0.2460 H     1 <1>   0.1500 
 41 H       -0.6190     6.5780     1.9650 H     1 <1>   0.0800 
 42 H       -2.2880     6.3210     2.3880 H     1 <1>   0.0800 
 43 H       -1.3860     7.9990    -1.3970 H     1 <1>   0.0800 
 44 H       -0.0760     7.6250    -0.3170 H     1 <1>   0.0800 
 45 H       -2.9310     7.0640     0.1900 H     1 <1>   0.4500 
 46 H       -8.9280     1.7080    -1.0540 H     1 <1>   0.0800 
 47 H       -8.9030     0.1660    -0.2410 H     1 <1>   0.0800 
 48 H       -8.5820     0.2510    -1.9580 H     1 <1>   0.0800 
 49 H       -1.1210     9.0160     1.5030 H     1 <1>   0.0800 
 50 H       -2.7890     8.7190     1.9460 H     1 <1>   0.0800 
 51 H       -2.4110     9.4200     0.3880 H     1 <1>   0.0800 
@<TRIPOS>BOND
  1   1   2  2   
  2   2   3  am  
  3   2   4  1   
  4   3   5  1   
  5   3  26  1   
  6   4   6  1   
  7   4  27  1   
  8   4  28  1   
  9   5   7  ar  
 10   5   8  ar  
 11   6   9  1   
 12   7  10  1   
 13   7  11  ar  
 14   8  12  ar  
 15   8  29  1   
 16   9  13  ar  
 17   9  14  ar  
 18  10  15  1   
 19  10  16  1   
 20  11  17  ar  
 21  11  30  1   
 22  12  17  ar  
 23  12  31  1   
 24  13  18  ar  
 25  13  32  1   
 26  14  19  ar  
 27  14  33  1   
 28  15  20  1   
 29  15  34  1   
 30  15  35  1   
 31  16  21  1   
 32  16  36  1   
 33  16  37  1   
 34  17  38  1   
 35  18  22  ar  
 36  18  39  1   
 37  19  22  ar  
 38  19  40  1   
 39  20  23  1   
 40  20  41  1   
 41  20  42  1   
 42  21  23  1   
 43  21  43  1   
 44  21  44  1   
 45  22  24  1   
 46  23  25  1   
 47  23  45  1   
 48  24  46  1   
 49  24  47  1   
 50  24  48  1   
 51  25  49  1   
 52  25  50  1   
 53  25  51  1   
@<TRIPOS>SUBSTRUCTURE
  1 ****   3 GROUP 4 **** **** 0

# MOE 2024.06 (io_trps.svl 2023.06)
