@<TRIPOS>MOLECULE
3,6-Dimethyl-2-methylsulfanyl-3H-thieno[2,3-d]pyrimidin-4-one
24 25 1 0 0 
SMALL
USER_CHARGES


@<TRIPOS>ATOM
  1 S       -0.0740    -0.5280    -0.0230 S.3   1 <1>  -0.0800 
  2 C        1.3410     0.5070     0.0100 C.2   1 <1>   0.1660 
  3 C       -1.1490     0.8670     0.0540 C.2   1 <1>  -0.1400 
  4 N        2.6000     0.0190    -0.0260 N.2   1 <1>  -0.5760 
  5 C        0.9840     1.8140     0.0750 C.2   1 <1>  -0.0860 
  6 C       -0.4390     2.0100     0.1000 C.2   1 <1>  -0.1500 
  7 C       -2.6370     0.5900     0.0580 C.3   1 <1>  -0.0600 
  8 C        3.5200     0.9230     0.0060 C.2   1 <1>   0.6510 
  9 C        2.0360     2.7690     0.1090 C.2   1 <1>   0.7160 
 10 S        5.2140     0.3510    -0.0390 S.3   1 <1>  -0.3710 
 11 N        3.3320     2.2890     0.0720 N.am  1 <1>  -0.4200 
 12 O        1.8130     3.9710     0.1670 O.2   1 <1>  -0.5700 
 13 C        5.0900    -1.4930    -0.1240 C.3   1 <1>  -0.0100 
 14 C        4.4910     3.2320     0.1030 C.3   1 <1>   0.0600 
 15 H       -0.8470     3.0050     0.1510 H     1 <1>   0.1500 
 16 H       -2.8950    -0.0150     0.9080 H     1 <1>   0.0800 
 17 H       -2.9140     0.0670    -0.8400 H     1 <1>   0.0800 
 18 H       -3.1860     1.5120     0.1070 H     1 <1>   0.0800 
 19 H        6.0880    -1.8910    -0.1540 H     1 <1>   0.0800 
 20 H        4.5460    -1.7480    -1.0160 H     1 <1>   0.0800 
 21 H        4.5650    -1.8300     0.7520 H     1 <1>   0.0800 
 22 H        5.1020     3.0270     0.9650 H     1 <1>   0.0800 
 23 H        4.1650     4.2560     0.1550 H     1 <1>   0.0800 
 24 H        5.0830     3.1090    -0.7870 H     1 <1>   0.0800 
@<TRIPOS>BOND
  1   1   2  1   
  2   1   3  1   
  3   2   4  1   
  4   2   5  2   
  5   3   6  2   
  6   3   7  1   
  7   4   8  2   
  8   5   6  1   
  9   5   9  1   
 10   6  15  1   
 11   7  16  1   
 12   7  17  1   
 13   7  18  1   
 14   8  10  1   
 15   8  11  1   
 16   9  11  am  
 17   9  12  2   
 18  10  13  1   
 19  11  14  1   
 20  13  19  1   
 21  13  20  1   
 22  13  21  1   
 23  14  22  1   
 24  14  23  1   
 25  14  24  1   
@<TRIPOS>SUBSTRUCTURE
  1 ****   2 GROUP 4 **** **** 0

# MOE 2024.06 (io_trps.svl 2023.06)
