@<TRIPOS>MOLECULE
3-(4-Methyl-piperazin-1-ylmethyl)-phenylamine
35 36 1 0 0 
SMALL
USER_CHARGES


@<TRIPOS>ATOM
  1 N        0.0200    -0.2810     0.4700 N.3   1 <1>  -0.8100 
  2 C       -0.2130    -1.7410     0.3090 C.3   1 <1>   0.1100 
  3 C       -1.0700     0.3400     1.2560 C.3   1 <1>   0.1100 
  4 C        1.3480     0.0110     1.0490 C.3   1 <1>   0.2540 
  5 C       -1.6180    -2.0600    -0.2560 C.3   1 <1>   0.3430 
  6 C       -2.4640     0.0820     0.6270 C.3   1 <1>   0.3430 
  7 C        2.4510    -0.5420     0.1600 C.ar  1 <1>  -0.1440 
  8 N       -2.3620    -0.8000    -0.5840 N.4   1 <1>  -0.9590 
  9 C        3.2790    -1.5580     0.6100 C.ar  1 <1>  -0.1500 
 10 C        2.6350    -0.0320    -1.1180 C.ar  1 <1>  -0.1500 
 11 C       -3.6670    -1.0360    -1.2650 C.3   1 <1>   0.2630 
 12 C        4.2800    -2.0750    -0.2010 C.ar  1 <1>   0.1000 
 13 C        3.6350    -0.5350    -1.9320 C.ar  1 <1>  -0.1500 
 14 N        5.0930    -3.0960     0.2510 N.pl3 1 <1>  -0.9000 
 15 C        4.4530    -1.5510    -1.4740 C.ar  1 <1>  -0.1500 
 16 H       -0.0890    -2.2410     1.2550 H     1 <1>   0.0800 
 17 H        0.5190    -2.1500    -0.3670 H     1 <1>   0.0800 
 18 H       -0.9090     1.4030     1.3140 H     1 <1>   0.0800 
 19 H       -1.0600    -0.0440     2.2620 H     1 <1>   0.0800 
 20 H        1.4220    -0.4120     2.0370 H     1 <1>   0.0800 
 21 H        1.4780     1.0770     1.1310 H     1 <1>   0.0800 
 22 H       -2.1690    -2.6350     0.4680 H     1 <1>   0.0800 
 23 H       -1.5070    -2.6640    -1.1420 H     1 <1>   0.0800 
 24 H       -2.9010     1.0280     0.3530 H     1 <1>   0.0800 
 25 H       -3.1040    -0.3740     1.3640 H     1 <1>   0.0800 
 26 H       -1.7080    -0.2900    -1.2030 H     1 <1>   0.4500 
 27 H        3.1600    -1.9590     1.5990 H     1 <1>   0.1500 
 28 H        1.9980     0.7570    -1.4780 H     1 <1>   0.1500 
 29 H       -4.3390    -1.5690    -0.6130 H     1 <1>   0.0800 
 30 H       -3.5200    -1.6180    -2.1610 H     1 <1>   0.0800 
 31 H       -4.1210    -0.0970    -1.5370 H     1 <1>   0.0800 
 32 H        3.7770    -0.1330    -2.9200 H     1 <1>   0.1500 
 33 H        5.5680    -3.6510    -0.4650 H     1 <1>   0.4000 
 34 H        4.7350    -3.6740     1.0160 H     1 <1>   0.4000 
 35 H        5.2320    -1.9370    -2.1040 H     1 <1>   0.1500 
@<TRIPOS>BOND
  1   1   2  1   
  2   1   3  1   
  3   1   4  1   
  4   2   5  1   
  5   2  16  1   
  6   2  17  1   
  7   3   6  1   
  8   3  18  1   
  9   3  19  1   
 10   4   7  1   
 11   4  20  1   
 12   4  21  1   
 13   5   8  1   
 14   5  22  1   
 15   5  23  1   
 16   6   8  1   
 17   6  24  1   
 18   6  25  1   
 19   7   9  ar  
 20   7  10  ar  
 21   8  11  1   
 22   8  26  1   
 23   9  12  ar  
 24   9  27  1   
 25  10  13  ar  
 26  10  28  1   
 27  11  29  1   
 28  11  30  1   
 29  11  31  1   
 30  12  14  1   
 31  12  15  ar  
 32  13  15  ar  
 33  13  32  1   
 34  14  33  1   
 35  14  34  1   
 36  15  35  1   
@<TRIPOS>SUBSTRUCTURE
  1 ****   1 GROUP 4 **** **** 0

# MOE 2024.06 (io_trps.svl 2023.06)
