@<TRIPOS>MOLECULE
4-[4-(4-Chloro-benzenesulfonyl)-piperazine-1-sulfonyl]-morpholine
45 47 1 0 0 
SMALL
USER_CHARGES


@<TRIPOS>ATOM
  1 CL      -2.4740     0.8010    -3.8620 Cl    1 <1>  -0.1770 
  2 C       -3.5080     0.6270    -2.4690 C.ar  1 <1>   0.1770 
  3 C       -3.9810     1.7560    -1.8280 C.ar  1 <1>  -0.1500 
  4 C       -3.8430    -0.6360    -2.0240 C.ar  1 <1>  -0.1500 
  5 C       -4.8040     1.6120    -0.7230 C.ar  1 <1>  -0.1500 
  6 C       -4.6680    -0.7660    -0.9180 C.ar  1 <1>  -0.1500 
  7 C       -5.1620     0.3510    -0.2500 C.ar  1 <1>  -0.0090 
  8 S       -6.2530     0.1610     1.1890 S.o2  1 <1>   1.4470 
  9 O       -5.6400    -0.7530     2.1270 O.2   1 <1>  -0.6500 
 10 O       -6.7070     1.4560     1.6440 O.2   1 <1>  -0.6500 
 11 N       -7.6010    -0.6390     0.5420 N.am  1 <1>  -0.8490 
 12 C       -8.4570    -1.1910     1.6030 C.3   1 <1>   0.1960 
 13 C       -8.4110     0.2250    -0.3360 C.3   1 <1>   0.1960 
 14 C       -9.6180    -2.0080     1.0010 C.3   1 <1>   0.1960 
 15 C       -9.6300    -0.5280    -0.9250 C.3   1 <1>   0.1960 
 16 N      -10.4590    -1.2260     0.0780 N.am  1 <1>  -0.8490 
 17 S      -11.5620    -0.2250     0.8740 S.o2  1 <1>   1.5760 
 18 O      -10.9230     1.0320     1.1850 O.2   1 <1>  -0.6500 
 19 O      -12.2230    -0.9880     1.9080 O.2   1 <1>  -0.6500 
 20 N      -12.6620     0.0350    -0.3760 N.am  1 <1>  -0.8490 
 21 C      -13.4200    -1.1830    -0.7040 C.3   1 <1>   0.1960 
 22 C      -13.6020     1.1080    -0.0290 C.3   1 <1>   0.1960 
 23 C      -14.4490    -0.9100    -1.8160 C.3   1 <1>   0.1200 
 24 C      -14.6320     1.3290    -1.1520 C.3   1 <1>   0.1200 
 25 O      -15.3040     0.1370    -1.4500 O.3   1 <1>  -0.5600 
 26 H       -3.7050     2.7310    -2.1900 H     1 <1>   0.1500 
 27 H       -3.4620    -1.5020    -2.5350 H     1 <1>   0.1500 
 28 H       -5.1720     2.4910    -0.2200 H     1 <1>   0.1500 
 29 H       -4.9330    -1.7490    -0.5630 H     1 <1>   0.1500 
 30 H       -8.8440    -0.3980     2.2230 H     1 <1>   0.0800 
 31 H       -7.8760    -1.8450     2.2310 H     1 <1>   0.0800 
 32 H       -7.8030     0.5730    -1.1530 H     1 <1>   0.0800 
 33 H       -8.7440     1.0960     0.2030 H     1 <1>   0.0800 
 34 H      -10.2190    -2.4200     1.7950 H     1 <1>   0.0800 
 35 H       -9.1970    -2.8390     0.4630 H     1 <1>   0.0800 
 36 H       -9.2580    -1.2600    -1.6220 H     1 <1>   0.0800 
 37 H      -10.2390     0.1610    -1.4850 H     1 <1>   0.0800 
 38 H      -13.9410    -1.5480     0.1660 H     1 <1>   0.0800 
 39 H      -12.7440    -1.9530    -1.0330 H     1 <1>   0.0800 
 40 H      -13.0590     2.0250     0.1320 H     1 <1>   0.0800 
 41 H      -14.1230     0.8650     0.8830 H     1 <1>   0.0800 
 42 H      -15.0540    -1.7820    -1.9870 H     1 <1>   0.0800 
 43 H      -13.9530    -0.6450    -2.7330 H     1 <1>   0.0800 
 44 H      -14.1460     1.6830    -2.0450 H     1 <1>   0.0800 
 45 H      -15.3660     2.0530    -0.8470 H     1 <1>   0.0800 
@<TRIPOS>BOND
  1   1   2  1   
  2   2   3  ar  
  3   2   4  ar  
  4   3   5  ar  
  5   3  26  1   
  6   4   6  ar  
  7   4  27  1   
  8   5   7  ar  
  9   5  28  1   
 10   6   7  ar  
 11   6  29  1   
 12   7   8  1   
 13   8   9  2   
 14   8  10  2   
 15   8  11  am  
 16  11  12  1   
 17  11  13  1   
 18  12  14  1   
 19  12  30  1   
 20  12  31  1   
 21  13  15  1   
 22  13  32  1   
 23  13  33  1   
 24  14  16  1   
 25  14  34  1   
 26  14  35  1   
 27  15  16  1   
 28  15  36  1   
 29  15  37  1   
 30  16  17  am  
 31  17  18  2   
 32  17  19  2   
 33  17  20  am  
 34  20  21  1   
 35  20  22  1   
 36  21  23  1   
 37  21  38  1   
 38  21  39  1   
 39  22  24  1   
 40  22  40  1   
 41  22  41  1   
 42  23  25  1   
 43  23  42  1   
 44  23  43  1   
 45  24  25  1   
 46  24  44  1   
 47  24  45  1   
@<TRIPOS>SUBSTRUCTURE
  1 ****  13 GROUP 4 **** **** 0

# MOE 2024.06 (io_trps.svl 2023.06)
