@<TRIPOS>MOLECULE
3-(3,4-Dimethoxy-phenyl)-2,5,7-trimethyl-pyrazolo[1,5-a]pyrimidine
41 43 1 0 0 
SMALL
USER_CHARGES


@<TRIPOS>ATOM
  1 O       -0.4740    -0.0740     0.6330 O.3   1 <1>  -0.3630 
  2 C       -1.4540    -0.8310     0.0560 C.ar  1 <1>   0.0830 
  3 C        0.7630    -0.6480     0.9980 C.3   1 <1>   0.0400 
  4 C       -2.4510    -0.2280    -0.7310 C.ar  1 <1>   0.0830 
  5 C       -1.4720    -2.2120     0.2240 C.ar  1 <1>  -0.1500 
  6 O       -2.5970     1.1080    -0.9700 O.3   1 <1>  -0.3630 
  7 C       -3.3940    -1.0310    -1.3510 C.ar  1 <1>  -0.1500 
  8 C       -2.4300    -3.0190    -0.3810 C.ar  1 <1>   0.0540 
  9 C       -2.1010     2.0820    -0.0790 C.3   1 <1>   0.0400 
 10 C       -3.3830    -2.4020    -1.1850 C.ar  1 <1>  -0.1500 
 11 C       -2.4210    -4.4480    -0.1800 C.2   1 <1>  -0.0540 
 12 C       -1.3520    -5.2980    -0.2750 C.2   1 <1>  -0.0260 
 13 C       -3.4870    -5.2860     0.1570 C.2   1 <1>   0.1080 
 14 N       -0.0280    -5.0440    -0.5640 N.2   1 <1>  -0.5760 
 15 N       -1.8370    -6.5590    -0.0190 N.pl3 1 <1>   0.6010 
 16 N       -3.1590    -6.5390     0.2500 N.2   1 <1>  -0.7070 
 17 C       -4.9100    -4.8400     0.4220 C.3   1 <1>  -0.0590 
 18 C        0.7640    -6.0640    -0.5970 C.2   1 <1>   0.3750 
 19 C       -0.9750    -7.6470    -0.0560 C.2   1 <1>  -0.1690 
 20 C        0.3290    -7.3960    -0.3470 C.2   1 <1>  -0.1360 
 21 C        2.2260    -5.8380    -0.9150 C.3   1 <1>  -0.1790 
 22 C       -1.5380    -9.0340     0.2270 C.3   1 <1>  -0.1020 
 23 H        1.4460     0.1500     1.2290 H     1 <1>   0.0800 
 24 H        1.1390    -1.2260     0.1720 H     1 <1>   0.0800 
 25 H        0.6200    -1.2660     1.8660 H     1 <1>   0.0800 
 26 H       -0.7390    -2.7070     0.8310 H     1 <1>   0.1500 
 27 H       -4.1410    -0.5680    -1.9700 H     1 <1>   0.1500 
 28 H       -2.5770     3.0180    -0.3080 H     1 <1>   0.0800 
 29 H       -1.0390     2.1710    -0.2180 H     1 <1>   0.0800 
 30 H       -2.3330     1.7860     0.9290 H     1 <1>   0.0800 
 31 H       -4.1180    -3.0040    -1.6870 H     1 <1>   0.1500 
 32 H       -4.9260    -3.8310     0.7930 H     1 <1>   0.0800 
 33 H       -5.3590    -5.4830     1.1560 H     1 <1>   0.0800 
 34 H       -5.4810    -4.8970    -0.4860 H     1 <1>   0.0800 
 35 H        1.0600    -8.1810    -0.3970 H     1 <1>   0.1500 
 36 H        2.5010    -6.4010    -1.7870 H     1 <1>   0.0800 
 37 H        2.8320    -6.1450    -0.0840 H     1 <1>   0.0800 
 38 H        2.4060    -4.7950    -1.1080 H     1 <1>   0.0800 
 39 H       -2.3080    -9.2690    -0.4880 H     1 <1>   0.0800 
 40 H       -1.9700    -9.0600     1.2120 H     1 <1>   0.0800 
 41 H       -0.7690    -9.7820     0.1660 H     1 <1>   0.0800 
@<TRIPOS>BOND
  1   1   2  1   
  2   1   3  1   
  3   2   4  ar  
  4   2   5  ar  
  5   3  23  1   
  6   3  24  1   
  7   3  25  1   
  8   4   6  1   
  9   4   7  ar  
 10   5   8  ar  
 11   5  26  1   
 12   6   9  1   
 13   7  10  ar  
 14   7  27  1   
 15   8  10  ar  
 16   8  11  1   
 17   9  28  1   
 18   9  29  1   
 19   9  30  1   
 20  10  31  1   
 21  11  12  2   
 22  11  13  1   
 23  12  14  1   
 24  12  15  1   
 25  13  16  2   
 26  13  17  1   
 27  14  18  2   
 28  15  16  1   
 29  15  19  1   
 30  17  32  1   
 31  17  33  1   
 32  17  34  1   
 33  18  20  1   
 34  18  21  1   
 35  19  20  2   
 36  19  22  1   
 37  20  35  1   
 38  21  36  1   
 39  21  37  1   
 40  21  38  1   
 41  22  39  1   
 42  22  40  1   
 43  22  41  1   
@<TRIPOS>SUBSTRUCTURE
  1 ****   8 GROUP 4 **** **** 0

# MOE 2024.06 (io_trps.svl 2023.06)
