@<TRIPOS>MOLECULE
3-Allyl-8-(3,4-dimethyl-phenyl)-1-methyl-5,6,7,8-tetrahydro-1H-1,3,4b,8,9-pentaa
51 54 1 0 0 
SMALL
USER_CHARGES


@<TRIPOS>ATOM
  1 O        0.9580     0.7420     1.9400 O.2   1 <1>  -0.5740 
  2 C        1.8830     1.3000     1.3860 C.2   1 <1>   0.6860 
  3 N        1.7710     2.6310     1.0080 N.am  1 <1>  -0.4260 
  4 N        3.0590     0.6030     1.1350 N.am  1 <1>  -0.4410 
  5 C        2.8330     3.3170     0.4420 C.2   1 <1>   0.6990 
  6 C        0.4440     3.2920     1.0790 C.3   1 <1>   0.2720 
  7 C        4.1040     1.2850     0.5420 C.2   1 <1>   0.4210 
  8 C        3.1950    -0.8360     1.5100 C.3   1 <1>   0.0520 
  9 O        2.7540     4.5050     0.1750 O.2   1 <1>  -0.5740 
 10 C        4.0390     2.5890     0.1930 C.2   1 <1>   0.2710 
 11 C       -0.2990     3.0040    -0.2110 C.2   1 <1>  -0.2940 
 12 N        5.3380     0.8080     0.2140 N.pl3 1 <1>  -0.7040 
 13 N        5.2850     2.9050    -0.3670 N.pl3 1 <1>  -0.7670 
 14 C       -0.5440     3.8990    -1.1730 C.2   1 <1>  -0.3060 
 15 C        6.0260     1.8050    -0.3360 C.cat 1 <1>   1.0690 
 16 C        5.7290     4.2030    -0.9140 C.3   1 <1>   0.3480 
 17 N        7.2840     1.7480    -0.8090 N.pl3 1 <1>  -0.5800 
 18 C        7.2610     4.2320    -0.9260 C.3   1 <1>  -0.1670 
 19 C        8.0550     0.5860    -0.7370 C.ar  1 <1>   0.3050 
 20 C        7.8690     2.9360    -1.4870 C.3   1 <1>   0.1610 
 21 C        8.5530     0.1550     0.4840 C.ar  1 <1>  -0.1570 
 22 C        8.3000    -0.1700    -1.8720 C.ar  1 <1>  -0.1570 
 23 C        9.2690    -1.0260     0.5850 C.ar  1 <1>  -0.1510 
 24 C        9.0170    -1.3470    -1.7810 C.ar  1 <1>  -0.1570 
 25 C        9.5000    -1.7840    -0.5570 C.ar  1 <1>  -0.1510 
 26 C        9.7960    -1.4630     1.9460 C.3   1 <1>  -0.1040 
 27 C       10.2840    -3.0880    -0.5000 C.3   1 <1>  -0.1040 
 28 H        0.5640     4.3550     1.2070 H     1 <1>   0.0720 
 29 H       -0.1200     2.9270     1.9200 H     1 <1>   0.0720 
 30 H        2.2260    -1.2940     1.6200 H     1 <1>   0.0720 
 31 H        3.7210    -0.9200     2.4460 H     1 <1>   0.0720 
 32 H        3.7310    -1.3730     0.7480 H     1 <1>   0.0720 
 33 H       -0.6210     1.9780    -0.2790 H     1 <1>   0.1430 
 34 H        5.7060    -0.1330     0.3410 H     1 <1>   0.4450 
 35 H       -1.0780     3.6740    -2.0810 H     1 <1>   0.1430 
 36 H       -0.2360     4.9310    -1.1370 H     1 <1>   0.1430 
 37 H        5.3480     5.0110    -0.3110 H     1 <1>   0.0720 
 38 H        5.3450     4.3140    -1.9150 H     1 <1>   0.0720 
 39 H        7.6210     4.3870     0.0760 H     1 <1>   0.0720 
 40 H        7.5960     5.0690    -1.5130 H     1 <1>   0.0720 
 41 H        7.6740     2.8670    -2.5450 H     1 <1>   0.0720 
 42 H        8.9380     2.9460    -1.3430 H     1 <1>   0.0720 
 43 H        8.3850     0.7510     1.3630 H     1 <1>   0.1430 
 44 H        7.9300     0.1540    -2.8280 H     1 <1>   0.1430 
 45 H        9.2000    -1.9270    -2.6710 H     1 <1>   0.1430 
 46 H        9.5080    -0.7720     2.7180 H     1 <1>   0.0720 
 47 H       10.8700    -1.5130     1.9250 H     1 <1>   0.0720 
 48 H        9.4090    -2.4330     2.2010 H     1 <1>   0.0720 
 49 H       11.2760    -2.9060    -0.1270 H     1 <1>   0.0720 
 50 H       10.3690    -3.5340    -1.4740 H     1 <1>   0.0720 
 51 H        9.7910    -3.7900     0.1480 H     1 <1>   0.0720 
@<TRIPOS>BOND
  1   1   2  2   
  2   2   3  am  
  3   2   4  am  
  4   3   5  am  
  5   3   6  1   
  6   4   7  1   
  7   4   8  1   
  8   5   9  2   
  9   5  10  1   
 10   6  11  1   
 11   6  28  1   
 12   6  29  1   
 13   7  10  2   
 14   7  12  1   
 15   8  30  1   
 16   8  31  1   
 17   8  32  1   
 18  10  13  1   
 19  11  14  2   
 20  11  33  1   
 21  12  15  ar  
 22  12  34  1   
 23  13  15  ar  
 24  13  16  1   
 25  14  35  1   
 26  14  36  1   
 27  15  17  ar  
 28  16  18  1   
 29  16  37  1   
 30  16  38  1   
 31  17  19  1   
 32  17  20  1   
 33  18  20  1   
 34  18  39  1   
 35  18  40  1   
 36  19  21  ar  
 37  19  22  ar  
 38  20  41  1   
 39  20  42  1   
 40  21  23  ar  
 41  21  43  1   
 42  22  24  ar  
 43  22  44  1   
 44  23  25  ar  
 45  23  26  1   
 46  24  25  ar  
 47  24  45  1   
 48  25  27  1   
 49  26  46  1   
 50  26  47  1   
 51  26  48  1   
 52  27  49  1   
 53  27  50  1   
 54  27  51  1   
@<TRIPOS>SUBSTRUCTURE
  1 ****  12 GROUP 4 **** **** 0

# MOE 2024.06 (io_trps.svl 2023.06)
