@<TRIPOS>MOLECULE
N-[3-(4-Chloro-phenyl)-[1,2,4]oxadiazol-5-ylmethyl]-N-isopropyl-2,2-dimethyl-pro
45 46 1 0 0 
SMALL
USER_CHARGES


@<TRIPOS>ATOM
  1 CL      -1.1180     1.0510     0.7260 Cl    1 <1>  -0.1770 
  2 C       -2.8560     0.9240     0.6760 C.ar  1 <1>   0.1770 
  3 C       -3.4650     0.3250    -0.4090 C.ar  1 <1>  -0.1500 
  4 C       -3.6060     1.4250     1.7220 C.ar  1 <1>  -0.1500 
  5 C       -4.8450     0.2280    -0.4440 C.ar  1 <1>  -0.1500 
  6 C       -4.9850     1.3220     1.6770 C.ar  1 <1>  -0.1500 
  7 C       -5.6410     0.7230     0.5960 C.ar  1 <1>   0.0540 
  8 C       -7.0910     0.6230     0.5590 C.2   1 <1>   0.4620 
  9 N       -7.8960     1.0540     1.4640 N.2   1 <1>  -0.4100 
 10 N       -7.7500     0.0560    -0.4560 N.2   1 <1>  -0.5650 
 11 O       -9.1050     0.7960     1.0800 O.3   1 <1>  -0.0190 
 12 C       -8.9540     0.2020    -0.0750 C.2   1 <1>   0.2980 
 13 C      -10.1910    -0.2570    -0.8380 C.3   1 <1>   0.3200 
 14 N      -11.1680     0.8380    -1.1660 N.am  1 <1>  -0.6600 
 15 C      -12.5200     0.6720    -0.9620 C.2   1 <1>   0.5690 
 16 C      -10.7150     1.9340    -2.0840 C.3   1 <1>   0.2200 
 17 O      -13.2940     0.9690    -1.8450 O.2   1 <1>  -0.5700 
 18 C      -13.1400     0.1200     0.3620 C.3   1 <1>   0.0610 
 19 C       -9.9050     1.4110    -3.2710 C.3   1 <1>  -0.2400 
 20 C       -9.9460     3.0020    -1.3060 C.3   1 <1>  -0.2400 
 21 C      -12.2570     0.3330     1.6110 C.3   1 <1>  -0.2400 
 22 C      -13.4710    -1.3790     0.2260 C.3   1 <1>  -0.2400 
 23 C      -14.4690     0.8550     0.6560 C.3   1 <1>  -0.2400 
 24 H       -2.8630    -0.0580    -1.2140 H     1 <1>   0.1500 
 25 H       -3.1130     1.8880     2.5580 H     1 <1>   0.1500 
 26 H       -5.3140    -0.2400    -1.2920 H     1 <1>   0.1500 
 27 H       -5.5660     1.7140     2.4950 H     1 <1>   0.1500 
 28 H      -10.6700    -1.0230    -0.2650 H     1 <1>   0.0800 
 29 H       -9.8720    -0.7240    -1.7510 H     1 <1>   0.0800 
 30 H      -11.5840     2.4250    -2.4910 H     1 <1>   0.0800 
 31 H       -8.9470     1.0330    -2.9630 H     1 <1>   0.0800 
 32 H       -9.7320     2.2130    -3.9650 H     1 <1>   0.0800 
 33 H      -10.4570     0.6430    -3.7830 H     1 <1>   0.0800 
 34 H       -8.9670     2.6650    -1.0270 H     1 <1>   0.0800 
 35 H      -10.4940     3.2860    -0.4260 H     1 <1>   0.0800 
 36 H       -9.8270     3.8750    -1.9230 H     1 <1>   0.0800 
 37 H      -11.4170    -0.3320     1.6270 H     1 <1>   0.0800 
 38 H      -12.8170     0.1470     2.5100 H     1 <1>   0.0800 
 39 H      -11.8980     1.3480     1.6430 H     1 <1>   0.0800 
 40 H      -12.5870    -1.9650     0.0640 H     1 <1>   0.0800 
 41 H      -14.1320    -1.5330    -0.6090 H     1 <1>   0.0800 
 42 H      -13.9580    -1.7420     1.1140 H     1 <1>   0.0800 
 43 H      -14.2950     1.9130     0.7440 H     1 <1>   0.0800 
 44 H      -14.9180     0.5040     1.5690 H     1 <1>   0.0800 
 45 H      -15.1740     0.6990    -0.1410 H     1 <1>   0.0800 
@<TRIPOS>BOND
  1   1   2  1   
  2   2   3  ar  
  3   2   4  ar  
  4   3   5  ar  
  5   3  24  1   
  6   4   6  ar  
  7   4  25  1   
  8   5   7  ar  
  9   5  26  1   
 10   6   7  ar  
 11   6  27  1   
 12   7   8  1   
 13   8   9  2   
 14   8  10  1   
 15   9  11  1   
 16  10  12  2   
 17  11  12  1   
 18  12  13  1   
 19  13  14  1   
 20  13  28  1   
 21  13  29  1   
 22  14  15  am  
 23  14  16  1   
 24  15  17  2   
 25  15  18  1   
 26  16  19  1   
 27  16  20  1   
 28  16  30  1   
 29  18  21  1   
 30  18  22  1   
 31  18  23  1   
 32  19  31  1   
 33  19  32  1   
 34  19  33  1   
 35  20  34  1   
 36  20  35  1   
 37  20  36  1   
 38  21  37  1   
 39  21  38  1   
 40  21  39  1   
 41  22  40  1   
 42  22  41  1   
 43  22  42  1   
 44  23  43  1   
 45  23  44  1   
 46  23  45  1   
@<TRIPOS>SUBSTRUCTURE
  1 ****  12 GROUP 4 **** **** 0

# MOE 2024.06 (io_trps.svl 2023.06)
