@<TRIPOS>MOLECULE
(8-Oxo-5,6,7,8-tetrahydro-4H-cyclopenta[d][1,2,4]triazolo[1,5-a]pyrimidin-2-yl)-
27 29 1 0 0 
SMALL
USER_CHARGES


@<TRIPOS>ATOM
  1 O        0.1170    -0.9380     2.0810 O.2   1 <1>  -0.5800 
  2 C       -0.1130    -1.8130     1.2720 C.2   1 <1>   0.9700 
  3 N       -1.4280    -2.1910     0.9890 N.pl3 1 <1>  -0.3740 
  4 C        0.9170    -2.5080     0.5720 C.2   1 <1>  -0.1390 
  5 N       -2.6350    -1.6980     1.4450 N.2   1 <1>  -0.2740 
  6 C       -1.6570    -3.1600     0.1120 C.cat 1 <1>   1.0660 
  7 C        0.6220    -3.4730    -0.3060 C.2   1 <1>   0.1500 
  8 C        2.4090    -2.2930     0.6830 C.3   1 <1>  -0.0380 
  9 C       -3.5140    -2.3990     0.8270 C.2   1 <1>   0.4740 
 10 N       -2.9360    -3.3230     0.0180 N.pl3 1 <1>  -0.7080 
 11 N       -0.6850    -3.8140    -0.5480 N.pl3 1 <1>  -0.6980 
 12 C        1.8320    -4.0910    -0.9520 C.3   1 <1>  -0.0380 
 13 C        3.0040    -3.3530    -0.2700 C.3   1 <1>  -0.1750 
 14 C       -5.0140    -2.2930     0.9180 C.3   1 <1>  -0.1140 
 15 C       -5.5730    -2.6330    -0.4330 C.2   1 <1>   0.9000 
 16 O       -6.1110    -1.7510    -1.0920 O.co2 1 <1>  -0.9060 
 17 O       -5.3500    -3.7690    -0.8820 O.co2 1 <1>  -0.9060 
 18 H        2.7470    -2.4470     1.6940 H     1 <1>   0.0640 
 19 H        2.6730    -1.2980     0.3650 H     1 <1>   0.0640 
 20 H       -3.5690    -3.8880    -0.5860 H     1 <1>   0.4390 
 21 H       -0.9540    -4.5320    -1.2250 H     1 <1>   0.4390 
 22 H        1.8290    -3.9120    -2.0130 H     1 <1>   0.0640 
 23 H        1.8760    -5.1490    -0.7580 H     1 <1>   0.0640 
 24 H        3.6010    -4.0530     0.2900 H     1 <1>   0.0640 
 25 H        3.6340    -2.8850    -1.0070 H     1 <1>   0.0640 
 26 H       -5.3080    -1.2970     1.1930 H     1 <1>   0.0640 
 27 H       -5.3950    -2.9910     1.6380 H     1 <1>   0.0640 
@<TRIPOS>BOND
  1   1   2  2   
  2   2   3  1   
  3   2   4  1   
  4   3   5  1   
  5   3   6  ar  
  6   4   7  2   
  7   4   8  1   
  8   5   9  2   
  9   6  10  ar  
 10   6  11  ar  
 11   7  11  1   
 12   7  12  1   
 13   8  13  1   
 14   8  18  1   
 15   8  19  1   
 16   9  10  1   
 17   9  14  1   
 18  10  20  1   
 19  11  21  1   
 20  12  13  1   
 21  12  22  1   
 22  12  23  1   
 23  13  24  1   
 24  13  25  1   
 25  14  15  1   
 26  14  26  1   
 27  14  27  1   
 28  15  16  ar  
 29  15  17  ar  
@<TRIPOS>SUBSTRUCTURE
  1 ****   6 GROUP 4 **** **** 0

# MOE 2024.06 (io_trps.svl 2023.06)
