@<TRIPOS>MOLECULE
4-Chloro-N-[1-(5-cyclohexylcarbamoylmethylsulfanyl-4-methyl-4H-[1,2,4]triazol-3-
55 57 1 0 0 
SMALL
USER_CHARGES


@<TRIPOS>ATOM
  1 CL       1.2880     3.6510     1.8990 Cl    1 <1>  -0.1770 
  2 C        2.2970     2.4500     1.1410 C.ar  1 <1>   0.1770 
  3 C        2.0740     2.1060    -0.1780 C.ar  1 <1>  -0.1500 
  4 C        3.3100     1.8550     1.8680 C.ar  1 <1>  -0.1500 
  5 C        2.8770     1.1490    -0.7730 C.ar  1 <1>  -0.1500 
  6 C        4.1070     0.8990     1.2630 C.ar  1 <1>  -0.1500 
  7 C        3.9060     0.5180    -0.0680 C.ar  1 <1>   0.0860 
  8 C        4.7350    -0.4940    -0.7030 C.2   1 <1>   0.5440 
  9 O        4.9050    -0.5110    -1.9040 O.2   1 <1>  -0.5700 
 10 N        5.3630    -1.4780    -0.0100 N.am  1 <1>  -0.7300 
 11 C        4.7330    -2.5630     0.7740 C.3   1 <1>   0.4000 
 12 C        5.2180    -3.9100     0.2460 C.2   1 <1>   0.0070 
 13 C        3.2020    -2.5010     0.7860 C.3   1 <1>  -0.2400 
 14 N        5.7160    -4.8170     1.0220 N.2   1 <1>  -0.3380 
 15 N        5.1990    -4.3130    -1.0400 N.pl3 1 <1>   0.0480 
 16 N        6.0490    -5.8590     0.2590 N.2   1 <1>  -0.3380 
 17 C        5.7310    -5.5310    -0.9420 C.2   1 <1>   0.2430 
 18 C        4.7410    -3.6370    -2.2760 C.3   1 <1>   0.0160 
 19 S        5.9590    -6.5960    -2.3740 S.3   1 <1>  -0.2860 
 20 C        6.3500    -8.2710    -1.6650 C.3   1 <1>   0.1310 
 21 C        5.2210    -9.2460    -1.9710 C.2   1 <1>   0.5690 
 22 O        5.3920   -10.0710    -2.8330 O.2   1 <1>  -0.5700 
 23 N        4.0400    -9.2280    -1.3040 N.am  1 <1>  -0.7300 
 24 C        3.6010    -8.3400    -0.2160 C.3   1 <1>   0.2200 
 25 C        2.9780    -9.1790     0.9020 C.3   1 <1>  -0.1600 
 26 C        2.5920    -7.3280    -0.7680 C.3   1 <1>  -0.1600 
 27 C        2.4500    -8.2780     2.0290 C.3   1 <1>  -0.1600 
 28 C        2.0710    -6.4150     0.3510 C.3   1 <1>  -0.1600 
 29 C        1.4560    -7.2380     1.4910 C.3   1 <1>  -0.1600 
 30 H        1.2840     2.5860    -0.7280 H     1 <1>   0.1500 
 31 H        3.4690     2.1430     2.8930 H     1 <1>   0.1500 
 32 H        2.7110     0.8820    -1.8030 H     1 <1>   0.1500 
 33 H        4.9020     0.4420     1.8270 H     1 <1>   0.1500 
 34 H        6.1970    -1.8290    -0.4850 H     1 <1>   0.3700 
 35 H        5.0770    -2.4730     1.7920 H     1 <1>   0.0800 
 36 H        2.7960    -2.5090    -0.2070 H     1 <1>   0.0800 
 37 H        2.8620    -1.6270     1.3090 H     1 <1>   0.0800 
 38 H        2.8210    -3.3580     1.3120 H     1 <1>   0.0800 
 39 H        3.9330    -2.9660    -2.0570 H     1 <1>   0.0800 
 40 H        4.3990    -4.3650    -2.9890 H     1 <1>   0.0800 
 41 H        5.5560    -3.0800    -2.7010 H     1 <1>   0.0800 
 42 H        6.5090    -8.1780    -0.6090 H     1 <1>   0.0800 
 43 H        7.2570    -8.6000    -2.1360 H     1 <1>   0.0800 
 44 H        3.3490    -9.9120    -1.6140 H     1 <1>   0.3700 
 45 H        4.4440    -7.8140     0.1910 H     1 <1>   0.0800 
 46 H        3.7200    -9.8480     1.3030 H     1 <1>   0.0800 
 47 H        2.1650    -9.7640     0.5090 H     1 <1>   0.0800 
 48 H        1.7630    -7.8500    -1.2130 H     1 <1>   0.0800 
 49 H        3.0610    -6.7280    -1.5270 H     1 <1>   0.0800 
 50 H        3.2780    -7.7680     2.4930 H     1 <1>   0.0800 
 51 H        1.9710    -8.8810     2.7810 H     1 <1>   0.0800 
 52 H        1.3350    -5.7370    -0.0460 H     1 <1>   0.0800 
 53 H        2.8880    -5.8310     0.7390 H     1 <1>   0.0800 
 54 H        1.1570    -6.5810     2.2890 H     1 <1>   0.0800 
 55 H        0.5740    -7.7420     1.1320 H     1 <1>   0.0800 
@<TRIPOS>BOND
  1   1   2  1   
  2   2   3  ar  
  3   2   4  ar  
  4   3   5  ar  
  5   3  30  1   
  6   4   6  ar  
  7   4  31  1   
  8   5   7  ar  
  9   5  32  1   
 10   6   7  ar  
 11   6  33  1   
 12   7   8  1   
 13   8   9  2   
 14   8  10  am  
 15  10  11  1   
 16  10  34  1   
 17  11  12  1   
 18  11  13  1   
 19  11  35  1   
 20  12  14  2   
 21  12  15  1   
 22  13  36  1   
 23  13  37  1   
 24  13  38  1   
 25  14  16  1   
 26  15  17  1   
 27  15  18  1   
 28  16  17  2   
 29  17  19  1   
 30  18  39  1   
 31  18  40  1   
 32  18  41  1   
 33  19  20  1   
 34  20  21  1   
 35  20  42  1   
 36  20  43  1   
 37  21  22  2   
 38  21  23  am  
 39  23  24  1   
 40  23  44  1   
 41  24  25  1   
 42  24  26  1   
 43  24  45  1   
 44  25  27  1   
 45  25  46  1   
 46  25  47  1   
 47  26  28  1   
 48  26  48  1   
 49  26  49  1   
 50  27  29  1   
 51  27  50  1   
 52  27  51  1   
 53  28  29  1   
 54  28  52  1   
 55  28  53  1   
 56  29  54  1   
 57  29  55  1   
@<TRIPOS>SUBSTRUCTURE
  1 ****  12 GROUP 4 **** **** 0

# MOE 2024.06 (io_trps.svl 2023.06)
