@<TRIPOS>MOLECULE
5-Isopropyl-[1,2,4]triazolo[1,5-a]pyrimidin-7-ol
23 24 1 0 0 
SMALL
USER_CHARGES


@<TRIPOS>ATOM
  1 O        0.5850     0.0640    -1.4310 O.2   1 <1>  -0.5700 
  2 C        1.6960     0.1090    -0.9220 C.2   1 <1>   0.5650 
  3 N        2.3040     1.3240    -0.5220 N.pl3 1 <1>   0.5610 
  4 C        2.4430    -1.0870    -0.7050 C.2   1 <1>  -0.1360 
  5 N        1.9110     2.6200    -0.5710 N.2   1 <1>  -0.7070 
  6 C        3.5390     1.3100     0.0390 C.2   1 <1>   0.2700 
  7 C        3.6830    -1.0840    -0.1390 C.2   1 <1>  -0.0380 
  8 C        2.9170     3.2390    -0.0510 C.2   1 <1>   0.3660 
  9 N        4.2300     0.1250     0.2340 N.pl3 1 <1>  -0.5840 
 10 N        3.9550     2.4850     0.3450 N.2   1 <1>  -0.5650 
 11 C        4.5450    -2.3220     0.1240 C.3   1 <1>   0.0580 
 12 C        5.7100    -2.3720    -0.8700 C.3   1 <1>  -0.2400 
 13 C        3.7570    -3.6380     0.0640 C.3   1 <1>  -0.2400 
 14 H        1.9550    -1.9880    -1.0240 H     1 <1>   0.1500 
 15 H        2.9460     4.3120     0.0700 H     1 <1>   0.1500 
 16 H        5.1620     0.2020     0.6570 H     1 <1>   0.4000 
 17 H        4.9490    -2.2380     1.1190 H     1 <1>   0.0800 
 18 H        5.3390    -2.4450    -1.8780 H     1 <1>   0.0800 
 19 H        6.3380    -3.2230    -0.6710 H     1 <1>   0.0800 
 20 H        6.3110    -1.4840    -0.7930 H     1 <1>   0.0800 
 21 H        3.3920    -3.8230    -0.9310 H     1 <1>   0.0800 
 22 H        2.9240    -3.6040     0.7440 H     1 <1>   0.0800 
 23 H        4.3900    -4.4590     0.3490 H     1 <1>   0.0800 
@<TRIPOS>BOND
  1   1   2  2   
  2   2   3  1   
  3   2   4  1   
  4   3   5  1   
  5   3   6  1   
  6   4   7  2   
  7   4  14  1   
  8   5   8  2   
  9   6   9  1   
 10   6  10  2   
 11   7   9  1   
 12   7  11  1   
 13   8  10  1   
 14   8  15  1   
 15   9  16  1   
 16  11  12  1   
 17  11  13  1   
 18  11  17  1   
 19  12  18  1   
 20  12  19  1   
 21  12  20  1   
 22  13  21  1   
 23  13  22  1   
 24  13  23  1   
@<TRIPOS>SUBSTRUCTURE
  1 ****   9 GROUP 4 **** **** 0

# MOE 2024.06 (io_trps.svl 2023.06)
