@<TRIPOS>MOLECULE
2-Methanesulfonylamino-4-methyl-thiazole-5-carboxylic acid ethyl ester
27 27 1 0 0 
SMALL
USER_CHARGES


@<TRIPOS>ATOM
  1 S        0.3070     0.2130     1.2420 S.o2  1 <1>   1.3830 
  2 O       -0.0560    -1.1850     1.3870 O.2   1 <1>  -0.6500 
  3 O       -0.0160     1.0850     2.3560 O.2   1 <1>  -0.6500 
  4 N        1.9370     0.2480     0.8760 N.2   1 <1>  -0.6380 
  5 C       -0.5980     0.7470    -0.2050 C.3   1 <1>  -0.1350 
  6 C        2.4030     1.3100     0.3600 C.2   1 <1>   0.4960 
  7 S        4.1220     1.3900    -0.0150 S.3   1 <1>  -0.2420 
  8 N        1.7970     2.4540     0.0010 N.2   1 <1>  -0.8300 
  9 C        3.9690     3.0560    -0.6150 C.2   1 <1>   0.1150 
 10 C        2.6170     3.3460    -0.5150 C.2   1 <1>  -0.2130 
 11 C        5.1360     3.7410    -1.0260 C.2   1 <1>   0.7060 
 12 C        1.9670     4.6330    -0.9820 C.3   1 <1>  -0.1020 
 13 O        6.2320     3.2180    -1.2340 O.2   1 <1>  -0.5700 
 14 O        5.1240     5.0760    -1.2080 O.3   1 <1>  -0.4300 
 15 C        4.8760     5.8970    -0.0870 C.3   1 <1>   0.1200 
 16 C        6.1980     6.1530     0.6320 C.3   1 <1>  -0.2400 
 17 H       -0.1970     0.2790    -1.0820 H     1 <1>   0.0800 
 18 H       -0.5390     1.8100    -0.3210 H     1 <1>   0.0800 
 19 H       -1.6300     0.4800    -0.1070 H     1 <1>   0.0800 
 20 H        1.0310     4.4040    -1.4590 H     1 <1>   0.0800 
 21 H        2.5840     5.1520    -1.6900 H     1 <1>   0.0800 
 22 H        1.7700     5.2650    -0.1360 H     1 <1>   0.0800 
 23 H        4.1680     5.4180     0.5690 H     1 <1>   0.0800 
 24 H        4.4570     6.8200    -0.4470 H     1 <1>   0.0800 
 25 H        6.6100     5.2290     0.9970 H     1 <1>   0.0800 
 26 H        6.0360     6.8090     1.4680 H     1 <1>   0.0800 
 27 H        6.8990     6.6160    -0.0400 H     1 <1>   0.0800 
@<TRIPOS>BOND
  1   1   2  2   
  2   1   3  2   
  3   1   4  1   
  4   1   5  1   
  5   4   6  2   
  6   5  17  1   
  7   5  18  1   
  8   5  19  1   
  9   6   7  1   
 10   6   8  1   
 11   7   9  1   
 12   8  10  1   
 13   9  10  2   
 14   9  11  1   
 15  10  12  1   
 16  11  13  2   
 17  11  14  1   
 18  12  20  1   
 19  12  21  1   
 20  12  22  1   
 21  14  15  1   
 22  15  16  1   
 23  15  23  1   
 24  15  24  1   
 25  16  25  1   
 26  16  26  1   
 27  16  27  1   
@<TRIPOS>SUBSTRUCTURE
  1 ****  10 GROUP 4 **** **** 0

# MOE 2024.06 (io_trps.svl 2023.06)
