@<TRIPOS>MOLECULE
N-[2-(4-Acetyl-piperazin-1-yl)-phenyl]-2-m-tolyloxy-acetamide
52 54 1 0 0 
SMALL
USER_CHARGES


@<TRIPOS>ATOM
  1 O        0.3960    -0.1580    -0.6400 O.2   1 <1>  -0.5700 
  2 C        0.1500     0.9930    -0.3670 C.2   1 <1>   0.5690 
  3 N        1.0930     1.8990     0.0120 N.am  1 <1>  -0.5470 
  4 C       -1.2940     1.4690    -0.4740 C.3   1 <1>   0.1810 
  5 C        2.4900     1.8930     0.1340 C.ar  1 <1>   0.1170 
  6 O       -1.4210     2.8390    -0.1030 O.3   1 <1>  -0.3630 
  7 C        3.0990     3.1360     0.3600 C.ar  1 <1>   0.1000 
  8 C        3.2710     0.7490     0.0530 C.ar  1 <1>  -0.1500 
  9 C       -2.6200     3.4720    -0.1450 C.ar  1 <1>   0.0830 
 10 N        2.3050     4.2930     0.4250 N.pl3 1 <1>  -0.8380 
 11 C        4.4770     3.2000     0.5030 C.ar  1 <1>  -0.1500 
 12 C        4.6460     0.8280     0.1970 C.ar  1 <1>  -0.1500 
 13 C       -3.7680     2.9180    -0.7080 C.ar  1 <1>  -0.1500 
 14 C       -2.6780     4.7410     0.4090 C.ar  1 <1>  -0.1500 
 15 C        2.0770     5.0570    -0.8310 C.3   1 <1>   0.2090 
 16 C        2.3630     5.1680     1.6270 C.3   1 <1>   0.2090 
 17 C        5.2490     2.0530     0.4230 C.ar  1 <1>  -0.1500 
 18 C       -4.9550     3.6320    -0.7210 C.ar  1 <1>  -0.1430 
 19 C       -3.8610     5.4550     0.3990 C.ar  1 <1>  -0.1500 
 20 C        0.7510     5.8340    -0.7430 C.3   1 <1>   0.1400 
 21 C        1.0410     5.9420     1.7690 C.3   1 <1>   0.1400 
 22 C       -4.9970     4.9010    -0.1650 C.ar  1 <1>  -0.1500 
 23 C       -6.2090     3.0330    -1.3330 C.3   1 <1>  -0.0970 
 24 N        0.6650     6.6680     0.5060 N.am  1 <1>  -0.6600 
 25 C        0.2210     7.9630     0.5540 C.2   1 <1>   0.5690 
 26 O        0.1730     8.5870     1.5860 O.2   1 <1>  -0.5700 
 27 C       -0.2410     8.6670    -0.7000 C.3   1 <1>  -0.1790 
 28 H        0.7340     2.8400     0.2100 H     1 <1>   0.3700 
 29 H       -1.9150     0.8810     0.1760 H     1 <1>   0.0800 
 30 H       -1.6180     1.3590    -1.4920 H     1 <1>   0.0800 
 31 H        2.8090    -0.2060    -0.1200 H     1 <1>   0.1500 
 32 H        4.9450     4.1510     0.6740 H     1 <1>   0.1500 
 33 H        5.2430    -0.0650     0.1330 H     1 <1>   0.1500 
 34 H       -3.7560     1.9360    -1.1410 H     1 <1>   0.1500 
 35 H       -1.7990     5.1690     0.8520 H     1 <1>   0.1500 
 36 H        2.0450     4.3780    -1.6660 H     1 <1>   0.0800 
 37 H        2.8900     5.7450    -0.9870 H     1 <1>   0.0800 
 38 H        3.1780     5.8640     1.5340 H     1 <1>   0.0800 
 39 H        2.5270     4.5660     2.5040 H     1 <1>   0.0800 
 40 H        6.3180     2.1140     0.5350 H     1 <1>   0.1500 
 41 H       -3.8990     6.4400     0.8320 H     1 <1>   0.1500 
 42 H       -0.0590     5.1280    -0.7490 H     1 <1>   0.0800 
 43 H        0.6570     6.4450    -1.6210 H     1 <1>   0.0800 
 44 H        1.1320     6.6330     2.5890 H     1 <1>   0.0800 
 45 H        0.2610     5.2450     2.0170 H     1 <1>   0.0800 
 46 H       -5.9150     5.4630    -0.1670 H     1 <1>   0.1500 
 47 H       -5.9560     2.2880    -2.0660 H     1 <1>   0.0800 
 48 H       -6.7920     3.7970    -1.8150 H     1 <1>   0.0800 
 49 H       -6.8050     2.5750    -0.5650 H     1 <1>   0.0800 
 50 H        0.5830     8.7840    -1.3770 H     1 <1>   0.0800 
 51 H       -0.6210     9.6410    -0.4500 H     1 <1>   0.0800 
 52 H       -1.0260     8.1030    -1.1680 H     1 <1>   0.0800 
@<TRIPOS>BOND
  1   1   2  2   
  2   2   3  am  
  3   2   4  1   
  4   3   5  1   
  5   3  28  1   
  6   4   6  1   
  7   4  29  1   
  8   4  30  1   
  9   5   7  ar  
 10   5   8  ar  
 11   6   9  1   
 12   7  10  1   
 13   7  11  ar  
 14   8  12  ar  
 15   8  31  1   
 16   9  13  ar  
 17   9  14  ar  
 18  10  15  1   
 19  10  16  1   
 20  11  17  ar  
 21  11  32  1   
 22  12  17  ar  
 23  12  33  1   
 24  13  18  ar  
 25  13  34  1   
 26  14  19  ar  
 27  14  35  1   
 28  15  20  1   
 29  15  36  1   
 30  15  37  1   
 31  16  21  1   
 32  16  38  1   
 33  16  39  1   
 34  17  40  1   
 35  18  22  ar  
 36  18  23  1   
 37  19  22  ar  
 38  19  41  1   
 39  20  24  1   
 40  20  42  1   
 41  20  43  1   
 42  21  24  1   
 43  21  44  1   
 44  21  45  1   
 45  22  46  1   
 46  23  47  1   
 47  23  48  1   
 48  23  49  1   
 49  24  25  am  
 50  25  26  2   
 51  25  27  1   
 52  27  50  1   
 53  27  51  1   
 54  27  52  1   
@<TRIPOS>SUBSTRUCTURE
  1 ****   6 GROUP 4 **** **** 0

# MOE 2024.06 (io_trps.svl 2023.06)
