@<TRIPOS>MOLECULE
N-[5-(2-Ethoxy-ethyl)-[1,3,4]thiadiazol-2-yl]-2-fluoro-benzamide
34 35 1 0 0 
SMALL
USER_CHARGES


@<TRIPOS>ATOM
  1 S        0.1150     0.3760     1.3970 S.3   1 <1>  -0.0800 
  2 C        1.6540    -0.3360     1.0460 C.2   1 <1>   0.4420 
  3 C       -0.6050    -1.0970     0.8390 C.2   1 <1>   0.1980 
  4 N        1.5470    -1.5280     0.5830 N.2   1 <1>  -0.3380 
  5 N        2.7760     0.4180     1.3020 N.am  1 <1>  -0.4940 
  6 N        0.2540    -1.9550     0.4660 N.2   1 <1>  -0.3380 
  7 C       -2.1140    -1.2030     0.8440 C.3   1 <1>   0.0200 
  8 C        4.0860     0.1590     1.0250 C.2   1 <1>   0.5440 
  9 C       -2.6930    -0.4990    -0.3800 C.3   1 <1>   0.1200 
 10 O        4.8920     0.8780     1.5730 O.2   1 <1>  -0.5700 
 11 C        4.5200    -0.9050     0.1500 C.ar  1 <1>   0.0860 
 12 O       -4.0780    -0.5650    -0.2990 O.3   1 <1>  -0.5600 
 13 C        4.1740    -0.9450    -1.1990 C.ar  1 <1>   0.1900 
 14 C        5.3210    -1.9470     0.6180 C.ar  1 <1>  -0.1500 
 15 C       -4.7370     0.0060    -1.3790 C.3   1 <1>   0.1200 
 16 F        3.4530     0.0200    -1.7020 F     1 <1>  -0.1900 
 17 C        4.5690    -1.9600    -2.0510 C.ar  1 <1>  -0.1500 
 18 C        5.7290    -2.9740    -0.2170 C.ar  1 <1>  -0.1500 
 19 C       -6.2330    -0.1420    -1.1330 C.3   1 <1>  -0.2400 
 20 C        5.3520    -2.9850    -1.5510 C.ar  1 <1>  -0.1500 
 21 H        2.6470     1.2790     1.8280 H     1 <1>   0.3700 
 22 H       -2.5030    -0.7580     1.7410 H     1 <1>   0.0800 
 23 H       -2.3930    -2.2410     0.8190 H     1 <1>   0.0800 
 24 H       -2.3700    -0.9910    -1.2820 H     1 <1>   0.0800 
 25 H       -2.3990     0.5370    -0.3990 H     1 <1>   0.0800 
 26 H        5.6230    -1.9460     1.6520 H     1 <1>   0.1500 
 27 H       -4.4470    -0.5120    -2.2780 H     1 <1>   0.0800 
 28 H       -4.4640     1.0460    -1.4460 H     1 <1>   0.0800 
 29 H        4.2660    -1.9450    -3.0820 H     1 <1>   0.1500 
 30 H        6.3420    -3.7690     0.1710 H     1 <1>   0.1500 
 31 H       -6.4920    -1.1830    -1.0550 H     1 <1>   0.0800 
 32 H       -6.7820     0.2890    -1.9510 H     1 <1>   0.0800 
 33 H       -6.5100     0.3660    -0.2270 H     1 <1>   0.0800 
 34 H        5.6690    -3.7880    -2.1960 H     1 <1>   0.1500 
@<TRIPOS>BOND
  1   1   2  1   
  2   1   3  1   
  3   2   4  2   
  4   2   5  1   
  5   3   6  2   
  6   3   7  1   
  7   4   6  1   
  8   5   8  am  
  9   5  21  1   
 10   7   9  1   
 11   7  22  1   
 12   7  23  1   
 13   8  10  2   
 14   8  11  1   
 15   9  12  1   
 16   9  24  1   
 17   9  25  1   
 18  11  13  ar  
 19  11  14  ar  
 20  12  15  1   
 21  13  16  1   
 22  13  17  ar  
 23  14  18  ar  
 24  14  26  1   
 25  15  19  1   
 26  15  27  1   
 27  15  28  1   
 28  17  20  ar  
 29  17  29  1   
 30  18  20  ar  
 31  18  30  1   
 32  19  31  1   
 33  19  32  1   
 34  19  33  1   
 35  20  34  1   
@<TRIPOS>SUBSTRUCTURE
  1 ****   4 GROUP 4 **** **** 0

# MOE 2024.06 (io_trps.svl 2023.06)
