@<TRIPOS>MOLECULE
N-(2-Cyano-phenyl)-2-(1-cyclohexyl-1H-tetrazol-5-ylsulfanyl)-acetamide
42 44 1 0 0 
SMALL
USER_CHARGES


@<TRIPOS>ATOM
  1 S       -0.3650     0.2870    -0.1980 S.3   1 <1>  -0.2860 
  2 C       -0.2830    -1.3740     0.4820 C.2   1 <1>   0.2420 
  3 C        1.4000     0.8780    -0.1610 C.3   1 <1>   0.1310 
  4 N        0.8110    -1.9340     0.8200 N.2   1 <1>  -0.3380 
  5 N       -1.3260    -2.1590     0.6990 N.pl3 1 <1>   0.3140 
  6 C        1.4700     2.3700    -0.4540 C.2   1 <1>   0.5690 
  7 N        0.4440    -3.1300     1.2700 N.2   1 <1>   0.0000 
  8 N       -0.8350    -3.2780     1.2050 N.2   1 <1>  -0.4180 
  9 C       -2.7870    -1.9650     0.4900 C.3   1 <1>   0.1760 
 10 O        2.5100     2.8230    -0.8620 O.2   1 <1>  -0.5700 
 11 N        0.3420     3.1200    -0.2410 N.am  1 <1>  -0.5470 
 12 C       -3.1320    -1.7670    -0.9990 C.3   1 <1>  -0.1600 
 13 C       -3.3420    -0.8200     1.3600 C.3   1 <1>  -0.1600 
 14 C        0.0380     4.4840    -0.4400 C.ar  1 <1>   0.1170 
 15 C       -4.6450    -1.5940    -1.1950 C.3   1 <1>  -0.1600 
 16 C       -4.8540    -0.6530     1.1520 C.3   1 <1>  -0.1600 
 17 C       -1.3010     4.8980    -0.4710 C.ar  1 <1>   0.0730 
 18 C        1.0350     5.4430    -0.5990 C.ar  1 <1>  -0.1500 
 19 C       -5.1880    -0.4460    -0.3320 C.3   1 <1>  -0.1600 
 20 C       -2.3600     3.9470    -0.2990 C.1   1 <1>   0.4840 
 21 C       -1.6020     6.2410    -0.6660 C.ar  1 <1>  -0.1500 
 22 C        0.7230     6.7750    -0.7930 C.ar  1 <1>  -0.1500 
 23 N       -3.1520     3.1400    -0.1430 N.1   1 <1>  -0.5570 
 24 C       -0.5990     7.1780    -0.8280 C.ar  1 <1>  -0.1500 
 25 H        1.9420     0.3190    -0.9010 H     1 <1>   0.0800 
 26 H        1.7930     0.6700     0.8170 H     1 <1>   0.0800 
 27 H       -3.2660    -2.8730     0.8120 H     1 <1>   0.0800 
 28 H       -0.4580     2.5420     0.0320 H     1 <1>   0.3700 
 29 H       -2.7980    -2.6200    -1.5630 H     1 <1>   0.0800 
 30 H       -2.6400    -0.8910    -1.3820 H     1 <1>   0.0800 
 31 H       -2.8640     0.1090     1.1050 H     1 <1>   0.0800 
 32 H       -3.1500    -1.0290     2.3980 H     1 <1>   0.0800 
 33 H       -5.1510    -2.5080    -0.9310 H     1 <1>   0.0800 
 34 H       -4.8530    -1.3910    -2.2320 H     1 <1>   0.0800 
 35 H       -5.2020     0.1950     1.7170 H     1 <1>   0.0800 
 36 H       -5.3690    -1.5260     1.5160 H     1 <1>   0.0800 
 37 H        2.0710     5.1590    -0.5700 H     1 <1>   0.1500 
 38 H       -6.2550    -0.3770    -0.4540 H     1 <1>   0.0800 
 39 H       -4.7610     0.4860    -0.6650 H     1 <1>   0.0800 
 40 H       -2.6300     6.5620    -0.6930 H     1 <1>   0.1500 
 41 H        1.5110     7.4990    -0.9160 H     1 <1>   0.1500 
 42 H       -0.8420     8.2160    -0.9800 H     1 <1>   0.1500 
@<TRIPOS>BOND
  1   1   2  1   
  2   1   3  1   
  3   2   4  2   
  4   2   5  1   
  5   3   6  1   
  6   3  25  1   
  7   3  26  1   
  8   4   7  1   
  9   5   8  1   
 10   5   9  1   
 11   6  10  2   
 12   6  11  am  
 13   7   8  2   
 14   9  12  1   
 15   9  13  1   
 16   9  27  1   
 17  11  14  1   
 18  11  28  1   
 19  12  15  1   
 20  12  29  1   
 21  12  30  1   
 22  13  16  1   
 23  13  31  1   
 24  13  32  1   
 25  14  17  ar  
 26  14  18  ar  
 27  15  19  1   
 28  15  33  1   
 29  15  34  1   
 30  16  19  1   
 31  16  35  1   
 32  16  36  1   
 33  17  20  1   
 34  17  21  ar  
 35  18  22  ar  
 36  18  37  1   
 37  19  38  1   
 38  19  39  1   
 39  20  23  3   
 40  21  24  ar  
 41  21  40  1   
 42  22  24  ar  
 43  22  41  1   
 44  24  42  1   
@<TRIPOS>SUBSTRUCTURE
  1 ****   1 GROUP 4 **** **** 0

# MOE 2024.06 (io_trps.svl 2023.06)
