@<TRIPOS>MOLECULE
2-[8-(3,4-Dimethyl-phenyl)-1,6,7-trimethyl-2,4-dioxo-1,2,4,8-tetrahydro-imidazo[
52 55 1 0 0 
SMALL
USER_CHARGES


@<TRIPOS>ATOM
  1 O        0.8720    -0.0720     0.4890 O.2   1 <1>  -0.5740 
  2 C        1.7970     0.6310     0.1380 C.2   1 <1>   0.6860 
  3 N        1.5650     1.9600    -0.1860 N.am  1 <1>  -0.4260 
  4 N        3.0820     0.1090     0.0700 N.am  1 <1>  -0.4410 
  5 C        2.5860     2.7810    -0.6360 C.2   1 <1>   0.6990 
  6 C        0.3830     2.6270     0.4490 C.3   1 <1>   0.1940 
  7 C        4.1120     0.9670    -0.2630 C.2   1 <1>   0.4210 
  8 C        3.3440    -1.3130     0.4380 C.3   1 <1>   0.0520 
  9 O        2.3370     3.9060    -1.0370 O.2   1 <1>  -0.5740 
 10 C        3.9140     2.2610    -0.6180 C.2   1 <1>   0.2710 
 11 C        0.7020     3.0360     1.8900 C.2   1 <1>   0.5640 
 12 N        5.4480     0.6880    -0.2940 N.pl3 1 <1>  -0.7040 
 13 N        5.1860     2.7950    -0.8830 N.pl3 1 <1>  -0.6330 
 14 O        1.8520     3.0800     2.2610 O.2   1 <1>  -0.5740 
 15 N       -0.2890     3.3440     2.7500 N.am  1 <1>  -0.8030 
 16 C        6.0540     1.8200    -0.6630 C.cat 1 <1>   1.0690 
 17 C        5.9220     3.9100    -1.2270 C.2   1 <1>   0.2340 
 18 N        7.3160     2.2140    -0.8540 N.pl3 1 <1>  -0.5550 
 19 C        7.2280     3.5530    -1.2100 C.2   1 <1>   0.1580 
 20 C        5.2330     5.2250    -1.5340 C.3   1 <1>  -0.1090 
 21 C        8.4550     1.4190    -0.6730 C.ar  1 <1>   0.3050 
 22 C        8.4800     4.3620    -1.5000 C.3   1 <1>  -0.1090 
 23 C        9.0020     1.2640     0.5900 C.ar  1 <1>  -0.1570 
 24 C        9.0250     0.7590    -1.7490 C.ar  1 <1>  -0.1570 
 25 C       10.1020     0.4460     0.7920 C.ar  1 <1>  -0.1510 
 26 C       10.1220    -0.0580    -1.5560 C.ar  1 <1>  -0.1570 
 27 C       10.6640    -0.2220    -0.2910 C.ar  1 <1>  -0.1510 
 28 C       10.6730     0.3020     2.1960 C.3   1 <1>  -0.1040 
 29 C       11.8740    -1.1310    -0.1200 C.3   1 <1>  -0.1040 
 30 H       -0.4610     1.9610     0.4460 H     1 <1>   0.0720 
 31 H        0.1090     3.5040    -0.1100 H     1 <1>   0.0720 
 32 H        2.4660    -1.9140     0.2660 H     1 <1>   0.0720 
 33 H        3.6020    -1.3750     1.4810 H     1 <1>   0.0720 
 34 H        4.1440    -1.7160    -0.1560 H     1 <1>   0.0720 
 35 H        5.9310    -0.1750    -0.0550 H     1 <1>   0.4450 
 36 H       -0.0520     3.6040     3.7100 H     1 <1>   0.3640 
 37 H       -1.2870     3.3080     2.5340 H     1 <1>   0.3640 
 38 H        4.6650     5.5490    -0.6800 H     1 <1>   0.0720 
 39 H        4.5620     5.1040    -2.3650 H     1 <1>   0.0720 
 40 H        5.9490     5.9880    -1.7780 H     1 <1>   0.0720 
 41 H        9.0190     3.9250    -2.3220 H     1 <1>   0.0720 
 42 H        9.1210     4.3720    -0.6360 H     1 <1>   0.0720 
 43 H        8.2340     5.3760    -1.7540 H     1 <1>   0.0720 
 44 H        8.5670     1.7890     1.4210 H     1 <1>   0.1430 
 45 H        8.6160     0.8800    -2.7350 H     1 <1>   0.1430 
 46 H       10.5590    -0.5670    -2.4000 H     1 <1>   0.1430 
 47 H       10.1200     0.8900     2.9070 H     1 <1>   0.0720 
 48 H       11.6960     0.6330     2.2130 H     1 <1>   0.0720 
 49 H       10.6360    -0.7260     2.5080 H     1 <1>   0.0720 
 50 H       12.7060    -0.5690     0.2640 H     1 <1>   0.0720 
 51 H       12.1680    -1.5660    -1.0580 H     1 <1>   0.0720 
 52 H       11.6450    -1.9290     0.5630 H     1 <1>   0.0720 
@<TRIPOS>BOND
  1   1   2  2   
  2   2   3  am  
  3   2   4  am  
  4   3   5  am  
  5   3   6  1   
  6   4   7  1   
  7   4   8  1   
  8   5   9  2   
  9   5  10  1   
 10   6  11  1   
 11   6  30  1   
 12   6  31  1   
 13   7  10  2   
 14   7  12  1   
 15   8  32  1   
 16   8  33  1   
 17   8  34  1   
 18  10  13  1   
 19  11  14  2   
 20  11  15  am  
 21  12  16  ar  
 22  12  35  1   
 23  13  16  ar  
 24  13  17  1   
 25  15  36  1   
 26  15  37  1   
 27  16  18  ar  
 28  17  19  2   
 29  17  20  1   
 30  18  19  1   
 31  18  21  1   
 32  19  22  1   
 33  20  38  1   
 34  20  39  1   
 35  20  40  1   
 36  21  23  ar  
 37  21  24  ar  
 38  22  41  1   
 39  22  42  1   
 40  22  43  1   
 41  23  25  ar  
 42  23  44  1   
 43  24  26  ar  
 44  24  45  1   
 45  25  27  ar  
 46  25  28  1   
 47  26  27  ar  
 48  26  46  1   
 49  27  29  1   
 50  28  47  1   
 51  28  48  1   
 52  28  49  1   
 53  29  50  1   
 54  29  51  1   
 55  29  52  1   
@<TRIPOS>SUBSTRUCTURE
  1 ****  16 GROUP 4 **** **** 0

# MOE 2024.06 (io_trps.svl 2023.06)
