@<TRIPOS>MOLECULE
2-Methoxy-N-{4-[(E)-((Z)-1-propenyl)-buta-1,3-dienyl]-tetrahydro-pyran-4-ylmethy
52 53 1 0 0 
SMALL
USER_CHARGES


@<TRIPOS>ATOM
  1 O       -1.0890     0.7680     1.1730 O.2   1 <1>  -0.5700 
  2 C       -1.3430     1.7220     0.4690 C.2   1 <1>   0.5440 
  3 N       -2.5760     1.7320    -0.1070 N.am  1 <1>  -0.7300 
  4 C       -0.3880     2.7960     0.3060 C.ar  1 <1>   0.0860 
  5 C       -3.2250     2.8400    -0.8610 C.3   1 <1>   0.1400 
  6 C        0.1260     3.2070    -0.9350 C.ar  1 <1>   0.0830 
  7 C        0.0330     3.4920     1.4400 C.ar  1 <1>  -0.1500 
  8 C       -4.5330     3.3040    -0.1670 C.3   1 <1>   0.1380 
  9 O       -0.1470     2.5810    -2.1020 O.3   1 <1>  -0.3630 
 10 C        0.9630     4.3090    -1.0190 C.ar  1 <1>  -0.1500 
 11 C        0.8840     4.5780     1.3550 C.ar  1 <1>  -0.1500 
 12 C       -5.4640     2.0700    -0.0050 C.2   1 <1>  -0.1380 
 13 C       -4.1770     3.9990     1.1720 C.3   1 <1>  -0.1600 
 14 C       -5.2520     4.3670    -1.0420 C.3   1 <1>  -0.1600 
 15 C        0.0260     1.1820    -2.2030 C.3   1 <1>   0.0400 
 16 C        1.3430     4.9950     0.1180 C.ar  1 <1>  -0.1500 
 17 C       -6.0140     1.5930    -1.2530 C.2   1 <1>  -0.1500 
 18 C       -5.7210     1.4950     1.2000 C.2   1 <1>  -0.1500 
 19 C       -3.3600     5.2930     0.9890 C.3   1 <1>   0.1200 
 20 C       -4.8110     5.8160    -0.7840 C.3   1 <1>   0.1200 
 21 C       -7.3040     1.5790    -1.6350 C.2   1 <1>  -0.2880 
 22 C       -6.4920     0.3270     1.5470 C.2   1 <1>  -0.1500 
 23 O       -3.5120     5.8250    -0.2940 O.3   1 <1>  -0.5600 
 24 C       -8.4870     2.0770    -0.8210 C.3   1 <1>  -0.1020 
 25 C       -6.9540    -0.6590     0.7610 C.2   1 <1>  -0.3000 
 26 H       -3.1980     0.9610     0.1550 H     1 <1>   0.3700 
 27 H       -2.5440     3.6640    -0.9680 H     1 <1>   0.0800 
 28 H       -3.4430     2.4890    -1.8530 H     1 <1>   0.0800 
 29 H       -0.3240     3.1700     2.4030 H     1 <1>   0.1500 
 30 H        1.3210     4.6210    -1.9830 H     1 <1>   0.1500 
 31 H        1.1870     5.1000     2.2450 H     1 <1>   0.1500 
 32 H       -3.6200     3.3400     1.8130 H     1 <1>   0.0800 
 33 H       -5.0870     4.2520     1.6860 H     1 <1>   0.0800 
 34 H       -6.3100     4.3260    -0.8580 H     1 <1>   0.0800 
 35 H       -5.1140     4.1400    -2.0840 H     1 <1>   0.0800 
 36 H        0.2620     0.9470    -3.2250 H     1 <1>   0.0800 
 37 H       -0.8880     0.6900    -1.9230 H     1 <1>   0.0800 
 38 H        0.8330     0.8740    -1.5600 H     1 <1>   0.0800 
 39 H        1.9970     5.8470     0.0440 H     1 <1>   0.1500 
 40 H       -5.2750     1.2200    -1.9400 H     1 <1>   0.1500 
 41 H       -5.2980     1.9270     2.0860 H     1 <1>   0.1500 
 42 H       -2.3100     5.0940     1.1190 H     1 <1>   0.0800 
 43 H       -3.6590     6.0390     1.7040 H     1 <1>   0.0800 
 44 H       -5.4480     6.2930    -0.0580 H     1 <1>   0.0800 
 45 H       -4.8290     6.3890    -1.6950 H     1 <1>   0.0800 
 46 H       -7.6020     1.1950    -2.5960 H     1 <1>   0.1500 
 47 H       -6.6950     0.2620     2.6030 H     1 <1>   0.1500 
 48 H       -9.0090     2.8450    -1.3620 H     1 <1>   0.0800 
 49 H       -8.1660     2.4810     0.1220 H     1 <1>   0.0800 
 50 H       -9.1640     1.2640    -0.6280 H     1 <1>   0.0800 
 51 H       -7.5230    -1.4950     1.1280 H     1 <1>   0.1500 
 52 H       -6.8010    -0.7150    -0.3000 H     1 <1>   0.1500 
@<TRIPOS>BOND
  1   1   2  2   
  2   2   3  am  
  3   2   4  1   
  4   3   5  1   
  5   3  26  1   
  6   4   6  ar  
  7   4   7  ar  
  8   5   8  1   
  9   5  27  1   
 10   5  28  1   
 11   6   9  1   
 12   6  10  ar  
 13   7  11  ar  
 14   7  29  1   
 15   8  12  1   
 16   8  13  1   
 17   8  14  1   
 18   9  15  1   
 19  10  16  ar  
 20  10  30  1   
 21  11  16  ar  
 22  11  31  1   
 23  12  17  1   
 24  12  18  2   
 25  13  19  1   
 26  13  32  1   
 27  13  33  1   
 28  14  20  1   
 29  14  34  1   
 30  14  35  1   
 31  15  36  1   
 32  15  37  1   
 33  15  38  1   
 34  16  39  1   
 35  17  21  2   
 36  17  40  1   
 37  18  22  1   
 38  18  41  1   
 39  19  23  1   
 40  19  42  1   
 41  19  43  1   
 42  20  23  1   
 43  20  44  1   
 44  20  45  1   
 45  21  24  1   
 46  21  46  1   
 47  22  25  2   
 48  22  47  1   
 49  24  48  1   
 50  24  49  1   
 51  24  50  1   
 52  25  51  1   
 53  25  52  1   
@<TRIPOS>SUBSTRUCTURE
  1 ****   5 GROUP 4 **** **** 0

# MOE 2024.06 (io_trps.svl 2023.06)
