@<TRIPOS>MOLECULE
1-Morpholin-4-ylmethyl-cyclohexylamine
37 38 1 0 0 
SMALL
USER_CHARGES


@<TRIPOS>ATOM
  1 O        1.3130    -1.5560     0.7590 O.3   1 <1>  -0.5600 
  2 C        0.3020    -0.6470     0.4440 C.3   1 <1>   0.1200 
  3 C        0.8610    -2.8400     1.0660 C.3   1 <1>   0.1200 
  4 C       -0.5460    -1.1660    -0.7370 C.3   1 <1>   0.1100 
  5 C        0.0530    -3.4150    -0.1140 C.3   1 <1>   0.1100 
  6 N       -1.0810    -2.5390    -0.5150 N.3   1 <1>  -0.8100 
  7 C       -2.2040    -2.5780     0.4730 C.3   1 <1>   0.1100 
  8 C       -3.5880    -2.6110    -0.2380 C.3   1 <1>   0.5030 
  9 N       -3.3930    -3.3810    -1.4640 N.4   1 <1>  -0.8530 
 10 C       -4.0210    -1.1900    -0.6640 C.3   1 <1>  -0.1600 
 11 C       -4.6730    -3.3230     0.6050 C.3   1 <1>  -0.1600 
 12 C       -5.5380    -1.0770    -0.8820 C.3   1 <1>  -0.1600 
 13 C       -5.5620    -2.3330     1.3720 C.3   1 <1>  -0.1600 
 14 C       -6.3120    -1.3920     0.4110 C.3   1 <1>  -0.1600 
 15 H        0.7750     0.2830     0.1780 H     1 <1>   0.0800 
 16 H       -0.2990    -0.4840     1.3210 H     1 <1>   0.0800 
 17 H        0.2700    -2.7940     1.9630 H     1 <1>   0.0800 
 18 H        1.7270    -3.4500     1.2550 H     1 <1>   0.0800 
 19 H        0.0820    -1.1750    -1.6120 H     1 <1>   0.0800 
 20 H       -1.3450    -0.4730    -0.9270 H     1 <1>   0.0800 
 21 H       -0.3050    -4.3970     0.1400 H     1 <1>   0.0800 
 22 H        0.7230    -3.5270    -0.9510 H     1 <1>   0.0800 
 23 H       -2.1530    -1.7510     1.1590 H     1 <1>   0.0800 
 24 H       -2.1120    -3.4710     1.0680 H     1 <1>   0.0800 
 25 H       -2.4030    -3.1830    -1.7070 H     1 <1>   0.4500 
 26 H       -4.0140    -3.0650    -2.2090 H     1 <1>   0.4500 
 27 H       -3.4780    -4.3820    -1.2970 H     1 <1>   0.4500 
 28 H       -3.4970    -0.8750    -1.5490 H     1 <1>   0.0800 
 29 H       -3.7610    -0.4930     0.1150 H     1 <1>   0.0800 
 30 H       -4.2260    -4.0050     1.3080 H     1 <1>   0.0800 
 31 H       -5.3240    -3.8990    -0.0300 H     1 <1>   0.0800 
 32 H       -5.8480    -1.7560    -1.6570 H     1 <1>   0.0800 
 33 H       -5.7900    -0.0810    -1.2110 H     1 <1>   0.0800 
 34 H       -4.9520    -1.7480     2.0410 H     1 <1>   0.0800 
 35 H       -6.2760    -2.8660     1.9770 H     1 <1>   0.0800 
 36 H       -7.2610    -1.8300     0.1460 H     1 <1>   0.0800 
 37 H       -6.5280    -0.4750     0.9330 H     1 <1>   0.0800 
@<TRIPOS>BOND
  1   1   2  1   
  2   1   3  1   
  3   2   4  1   
  4   2  15  1   
  5   2  16  1   
  6   3   5  1   
  7   3  17  1   
  8   3  18  1   
  9   4   6  1   
 10   4  19  1   
 11   4  20  1   
 12   5   6  1   
 13   5  21  1   
 14   5  22  1   
 15   6   7  1   
 16   7   8  1   
 17   7  23  1   
 18   7  24  1   
 19   8   9  1   
 20   8  10  1   
 21   8  11  1   
 22   9  25  1   
 23   9  26  1   
 24   9  27  1   
 25  10  12  1   
 26  10  28  1   
 27  10  29  1   
 28  11  13  1   
 29  11  30  1   
 30  11  31  1   
 31  12  14  1   
 32  12  32  1   
 33  12  33  1   
 34  13  14  1   
 35  13  34  1   
 36  13  35  1   
 37  14  36  1   
 38  14  37  1   
@<TRIPOS>SUBSTRUCTURE
  1 ****   7 GROUP 4 **** **** 0

# MOE 2024.06 (io_trps.svl 2023.06)
