@<TRIPOS>MOLECULE
1-[2-(Methanesulfonyl-methyl-amino)-benzoyl]-piperidine-4-carboxylic acid ethyl
49 50 1 0 0 
SMALL
USER_CHARGES


@<TRIPOS>ATOM
  1 S        1.2100    -0.0930     0.4090 S.o2  1 <1>   1.3330 
  2 O       -0.1960     0.0530     0.6980 O.2   1 <1>  -0.6500 
  3 O        1.9820    -1.1340     1.0460 O.2   1 <1>  -0.6500 
  4 N        1.9960     1.4140     0.7680 N.am  1 <1>  -0.6930 
  5 C        1.4250    -0.2390    -1.3510 C.3   1 <1>  -0.1350 
  6 C        1.4220     2.6390     0.4310 C.ar  1 <1>   0.1990 
  7 C        3.4130     1.3420     1.2020 C.3   1 <1>   0.1160 
  8 C        1.9500     3.4910    -0.5570 C.ar  1 <1>   0.0860 
  9 C        0.2730     3.0350     1.1110 C.ar  1 <1>  -0.1500 
 10 C        3.1390     3.1540    -1.3040 C.2   1 <1>   0.5440 
 11 C        1.2930     4.6930    -0.8270 C.ar  1 <1>  -0.1500 
 12 C       -0.3570     4.2310     0.8360 C.ar  1 <1>  -0.1500 
 13 O        3.0970     2.2360    -2.1030 O.2   1 <1>  -0.5700 
 14 N        4.3240     3.8520    -1.1490 N.am  1 <1>  -0.6600 
 15 C        0.1550     5.0660    -0.1410 C.ar  1 <1>  -0.1500 
 16 C        4.5250     4.9390    -0.1490 C.3   1 <1>   0.1400 
 17 C        5.5070     3.5840    -2.0140 C.3   1 <1>   0.1400 
 18 C        5.7400     4.6260     0.7280 C.3   1 <1>  -0.1600 
 19 C        6.7150     3.2370    -1.1420 C.3   1 <1>  -0.1600 
 20 C        7.0050     4.3420    -0.1090 C.3   1 <1>  -0.0190 
 21 C        8.2120     3.9760     0.7530 C.2   1 <1>   0.6590 
 22 O        8.1030     3.5520     1.8750 O.2   1 <1>  -0.5700 
 23 O        9.3940     4.1480     0.1770 O.3   1 <1>  -0.4300 
 24 C       10.5910     3.8350     0.8510 C.3   1 <1>   0.1200 
 25 C       11.7540     4.1270    -0.0900 C.3   1 <1>  -0.2400 
 26 H        0.9760    -1.1450    -1.7030 H     1 <1>   0.0800 
 27 H        2.4680    -0.2520    -1.5970 H     1 <1>   0.0800 
 28 H        0.9660     0.5910    -1.8500 H     1 <1>   0.0800 
 29 H        3.5030     0.6800     2.0460 H     1 <1>   0.0800 
 30 H        3.7610     2.3170     1.4930 H     1 <1>   0.0800 
 31 H        4.0250     0.9720     0.3970 H     1 <1>   0.0800 
 32 H       -0.1310     2.3840     1.8680 H     1 <1>   0.1500 
 33 H        1.6870     5.3390    -1.5930 H     1 <1>   0.1500 
 34 H       -1.2470     4.5100     1.3750 H     1 <1>   0.1500 
 35 H       -0.3380     5.9970    -0.3640 H     1 <1>   0.1500 
 36 H        3.6600     5.0540     0.4810 H     1 <1>   0.0800 
 37 H        4.6820     5.8680    -0.6720 H     1 <1>   0.0800 
 38 H        5.7170     4.4610    -2.6020 H     1 <1>   0.0800 
 39 H        5.3140     2.7720    -2.6950 H     1 <1>   0.0800 
 40 H        5.5150     3.7740     1.3430 H     1 <1>   0.0800 
 41 H        5.9250     5.4570     1.3860 H     1 <1>   0.0800 
 42 H        7.5750     3.0980    -1.7740 H     1 <1>   0.0800 
 43 H        6.5250     2.3050    -0.6380 H     1 <1>   0.0800 
 44 H        7.2600     5.2420    -0.6400 H     1 <1>   0.0800 
 45 H       10.5660     2.7930     1.1240 H     1 <1>   0.0800 
 46 H       10.6500     4.4390     1.7410 H     1 <1>   0.0800 
 47 H       11.6750     3.5250    -0.9770 H     1 <1>   0.0800 
 48 H       12.6830     3.8950     0.3990 H     1 <1>   0.0800 
 49 H       11.7610     5.1680    -0.3600 H     1 <1>   0.0800 
@<TRIPOS>BOND
  1   1   2  2   
  2   1   3  2   
  3   1   4  am  
  4   1   5  1   
  5   4   6  1   
  6   4   7  1   
  7   5  26  1   
  8   5  27  1   
  9   5  28  1   
 10   6   8  ar  
 11   6   9  ar  
 12   7  29  1   
 13   7  30  1   
 14   7  31  1   
 15   8  10  1   
 16   8  11  ar  
 17   9  12  ar  
 18   9  32  1   
 19  10  13  2   
 20  10  14  am  
 21  11  15  ar  
 22  11  33  1   
 23  12  15  ar  
 24  12  34  1   
 25  14  16  1   
 26  14  17  1   
 27  15  35  1   
 28  16  18  1   
 29  16  36  1   
 30  16  37  1   
 31  17  19  1   
 32  17  38  1   
 33  17  39  1   
 34  18  20  1   
 35  18  40  1   
 36  18  41  1   
 37  19  20  1   
 38  19  42  1   
 39  19  43  1   
 40  20  21  1   
 41  20  44  1   
 42  21  22  2   
 43  21  23  1   
 44  23  24  1   
 45  24  25  1   
 46  24  45  1   
 47  24  46  1   
 48  25  47  1   
 49  25  48  1   
 50  25  49  1   
@<TRIPOS>SUBSTRUCTURE
  1 ****  14 GROUP 4 **** **** 0

# MOE 2024.06 (io_trps.svl 2023.06)
