@<TRIPOS>MOLECULE
7-(2-Hydroxy-3-phenoxy-propyl)-1,3-dimethyl-8-propylamino-3,7-dihydro-purine-2,6
54 56 1 0 0 
SMALL
USER_CHARGES


@<TRIPOS>ATOM
  1 O        0.8250     0.5640    -0.8930 O.2   1 <1>  -0.5740 
  2 C        1.8660     1.1280    -0.6270 C.2   1 <1>   0.6860 
  3 N        1.9030     2.5150    -0.5340 N.am  1 <1>  -0.4250 
  4 N        3.0180     0.3850    -0.4090 N.am  1 <1>  -0.4410 
  5 C        3.0640     3.1810    -0.1640 C.2   1 <1>   0.7000 
  6 C        0.6500     3.2900    -0.8030 C.3   1 <1>   0.0530 
  7 C        4.1660     1.0590    -0.0390 C.2   1 <1>   0.4210 
  8 C        3.0010    -1.1040    -0.5320 C.3   1 <1>   0.0530 
  9 O        3.0830     4.3970    -0.0660 O.2   1 <1>  -0.5740 
 10 C        4.2370     2.4010     0.0970 C.2   1 <1>   0.2710 
 11 N        5.3870     0.5290     0.2420 N.pl3 1 <1>  -0.7030 
 12 N        5.5630     2.6900     0.4850 N.pl3 1 <1>  -0.7670 
 13 C        6.2130     1.5270     0.5340 C.cat 1 <1>   1.0690 
 14 C        6.0610     4.0530     0.8640 C.3   1 <1>   0.3480 
 15 N        7.4990     1.3790     0.8130 N.pl3 1 <1>  -0.7180 
 16 C        7.0560     4.6360    -0.1600 C.3   1 <1>   0.1930 
 17 C        8.2940     0.1390     0.9210 C.3   1 <1>   0.1610 
 18 O        8.2190     3.8670    -0.1870 O.3   1 <1>  -0.6840 
 19 C        7.4410     6.0850     0.1660 C.3   1 <1>   0.1130 
 20 C        8.9740    -0.1340    -0.4190 C.3   1 <1>  -0.1670 
 21 O        8.5200     6.4610    -0.6640 O.3   1 <1>  -0.3680 
 22 C        9.7900    -1.4290    -0.3680 C.3   1 <1>  -0.2460 
 23 C        9.0700     7.6990    -0.5820 C.ar  1 <1>   0.0750 
 24 C        8.6240     8.6880     0.2920 C.ar  1 <1>  -0.1570 
 25 C       10.1340     7.9670    -1.4280 C.ar  1 <1>  -0.1570 
 26 C        9.2460     9.9250     0.3110 C.ar  1 <1>  -0.1570 
 27 C       10.7540     9.2040    -1.4070 C.ar  1 <1>  -0.1570 
 28 C       10.3090    10.1840    -0.5370 C.ar  1 <1>  -0.1570 
 29 H        0.1010     2.8390    -1.6120 H     1 <1>   0.0730 
 30 H        0.8730     4.3070    -1.0760 H     1 <1>   0.0730 
 31 H        0.0310     3.2910     0.0780 H     1 <1>   0.0730 
 32 H        2.1870    -1.4220    -1.1620 H     1 <1>   0.0730 
 33 H        2.8750    -1.5470     0.4400 H     1 <1>   0.0730 
 34 H        3.9170    -1.4550    -0.9730 H     1 <1>   0.0730 
 35 H        5.6630    -0.4470     0.2040 H     1 <1>   0.4450 
 36 H        6.5390     4.0050     1.8280 H     1 <1>   0.0730 
 37 H        5.2310     4.7300     0.9610 H     1 <1>   0.0730 
 38 H        8.0570     2.2410     0.7020 H     1 <1>   0.4450 
 39 H        6.6160     4.6130    -1.1430 H     1 <1>   0.0730 
 40 H        7.6620    -0.6900     1.1940 H     1 <1>   0.0730 
 41 H        9.0380     0.2600     1.6920 H     1 <1>   0.0730 
 42 H        8.9130     4.4090    -0.6370 H     1 <1>   0.3950 
 43 H        7.7560     6.1760     1.1920 H     1 <1>   0.0730 
 44 H        6.6150     6.7490    -0.0250 H     1 <1>   0.0730 
 45 H        9.6350     0.6810    -0.6620 H     1 <1>   0.0730 
 46 H        8.2370    -0.2210    -1.1990 H     1 <1>   0.0730 
 47 H       10.5560    -1.3670     0.3860 H     1 <1>   0.0730 
 48 H       10.2680    -1.6000    -1.3180 H     1 <1>   0.0730 
 49 H        9.1580    -2.2730    -0.1510 H     1 <1>   0.0730 
 50 H        7.8030     8.5230     0.9610 H     1 <1>   0.1430 
 51 H       10.4770     7.2050    -2.1040 H     1 <1>   0.1430 
 52 H        8.9020    10.6900     0.9850 H     1 <1>   0.1430 
 53 H       11.5800     9.4050    -2.0670 H     1 <1>   0.1430 
 54 H       10.7900    11.1470    -0.5200 H     1 <1>   0.1430 
@<TRIPOS>BOND
  1   1   2  2   
  2   2   3  am  
  3   2   4  am  
  4   3   5  am  
  5   3   6  1   
  6   4   7  1   
  7   4   8  1   
  8   5   9  2   
  9   5  10  1   
 10   6  29  1   
 11   6  30  1   
 12   6  31  1   
 13   7  10  2   
 14   7  11  1   
 15   8  32  1   
 16   8  33  1   
 17   8  34  1   
 18  10  12  1   
 19  11  13  ar  
 20  11  35  1   
 21  12  13  ar  
 22  12  14  1   
 23  13  15  ar  
 24  14  16  1   
 25  14  36  1   
 26  14  37  1   
 27  15  17  1   
 28  15  38  1   
 29  16  18  1   
 30  16  19  1   
 31  16  39  1   
 32  17  20  1   
 33  17  40  1   
 34  17  41  1   
 35  18  42  1   
 36  19  21  1   
 37  19  43  1   
 38  19  44  1   
 39  20  22  1   
 40  20  45  1   
 41  20  46  1   
 42  21  23  1   
 43  22  47  1   
 44  22  48  1   
 45  22  49  1   
 46  23  24  ar  
 47  23  25  ar  
 48  24  26  ar  
 49  24  50  1   
 50  25  27  ar  
 51  25  51  1   
 52  26  28  ar  
 53  26  52  1   
 54  27  28  ar  
 55  27  53  1   
 56  28  54  1   
@<TRIPOS>SUBSTRUCTURE
  1 ****  14 GROUP 4 **** **** 0

# MOE 2024.06 (io_trps.svl 2023.06)
