@<TRIPOS>MOLECULE
8-Benzylamino-7-(2-hydroxy-propyl)-1,3-dimethyl-3,7-dihydro-purine-2,6-dione
47 49 1 0 0 
SMALL
USER_CHARGES


@<TRIPOS>ATOM
  1 O        2.8840     1.0460     2.7970 O.2   1 <1>  -0.5750 
  2 C        3.4690     1.3680     1.7830 C.2   1 <1>   0.6860 
  3 N        2.8970     2.2890     0.9100 N.am  1 <1>  -0.4260 
  4 N        4.7110     0.8220     1.4970 N.am  1 <1>  -0.4420 
  5 C        3.5710     2.7210    -0.2260 C.2   1 <1>   0.6990 
  6 C        1.5490     2.8510     1.2370 C.3   1 <1>   0.0510 
  7 C        5.3600     1.2530     0.3590 C.2   1 <1>   0.4200 
  8 C        5.3550    -0.1810     2.3980 C.3   1 <1>   0.0510 
  9 O        3.0790     3.5660    -0.9570 O.2   1 <1>  -0.5750 
 10 C        4.8580     2.1570    -0.5070 C.2   1 <1>   0.2700 
 11 N        6.5830     0.8740    -0.0810 N.pl3 1 <1>  -0.7040 
 12 N        5.8280     2.3130    -1.5220 N.pl3 1 <1>  -0.7680 
 13 C        6.8610     1.5340    -1.1970 C.cat 1 <1>   1.0680 
 14 C        5.6320     3.1400    -2.7590 C.3   1 <1>   0.3470 
 15 N        7.9940     1.4570    -1.8920 N.pl3 1 <1>  -0.7180 
 16 C        6.5320     4.3970    -2.8270 C.3   1 <1>   0.1920 
 17 C        9.2260     0.6440    -1.7020 C.3   1 <1>   0.3040 
 18 O        7.8670     4.0280    -2.9240 O.3   1 <1>  -0.6840 
 19 C        6.4020     5.3130    -1.6090 C.3   1 <1>  -0.2470 
 20 C        9.1200    -0.2310    -0.4670 C.ar  1 <1>  -0.1520 
 21 C        9.5190     0.2570     0.7690 C.ar  1 <1>  -0.1580 
 22 C        8.5640    -1.4990    -0.5540 C.ar  1 <1>  -0.1580 
 23 C        9.3400    -0.5050     1.9090 C.ar  1 <1>  -0.1580 
 24 C        8.3860    -2.2600     0.5870 C.ar  1 <1>  -0.1580 
 25 C        8.7700    -1.7620     1.8190 C.ar  1 <1>  -0.1580 
 26 H        0.9240     2.0890     1.6710 H     1 <1>   0.0710 
 27 H        1.0590     3.2210     0.3530 H     1 <1>   0.0710 
 28 H        1.6560     3.6560     1.9420 H     1 <1>   0.0710 
 29 H        4.6480    -0.5650     3.1130 H     1 <1>   0.0710 
 30 H        6.1680     0.2790     2.9310 H     1 <1>   0.0710 
 31 H        5.7310    -1.0080     1.8210 H     1 <1>   0.0710 
 32 H        7.2450     0.2150     0.3440 H     1 <1>   0.4440 
 33 H        4.6060     3.4560    -2.8240 H     1 <1>   0.0710 
 34 H        5.8210     2.5320    -3.6270 H     1 <1>   0.0710 
 35 H        8.1090     2.2290    -2.5640 H     1 <1>   0.4440 
 36 H        6.2850     4.9500    -3.7190 H     1 <1>   0.0710 
 37 H       10.0730     1.3020    -1.6060 H     1 <1>   0.0710 
 38 H        9.3830     0.0280    -2.5720 H     1 <1>   0.0710 
 39 H        8.4170     4.8390    -3.0080 H     1 <1>   0.3940 
 40 H        6.7300     4.8180    -0.7130 H     1 <1>   0.0710 
 41 H        5.3740     5.6020    -1.4800 H     1 <1>   0.0710 
 42 H        6.9800     6.2090    -1.7500 H     1 <1>   0.0710 
 43 H        9.9670     1.2340     0.8560 H     1 <1>   0.1420 
 44 H        8.2610    -1.9030    -1.5060 H     1 <1>   0.1420 
 45 H        9.6530    -0.1260     2.8680 H     1 <1>   0.1420 
 46 H        7.9560    -3.2460     0.5180 H     1 <1>   0.1420 
 47 H        8.6370    -2.3590     2.7060 H     1 <1>   0.1420 
@<TRIPOS>BOND
  1   1   2  2   
  2   2   3  am  
  3   2   4  am  
  4   3   5  am  
  5   3   6  1   
  6   4   7  1   
  7   4   8  1   
  8   5   9  2   
  9   5  10  1   
 10   6  26  1   
 11   6  27  1   
 12   6  28  1   
 13   7  10  2   
 14   7  11  1   
 15   8  29  1   
 16   8  30  1   
 17   8  31  1   
 18  10  12  1   
 19  11  13  ar  
 20  11  32  1   
 21  12  13  ar  
 22  12  14  1   
 23  13  15  ar  
 24  14  16  1   
 25  14  33  1   
 26  14  34  1   
 27  15  17  1   
 28  15  35  1   
 29  16  18  1   
 30  16  19  1   
 31  16  36  1   
 32  17  20  1   
 33  17  37  1   
 34  17  38  1   
 35  18  39  1   
 36  19  40  1   
 37  19  41  1   
 38  19  42  1   
 39  20  21  ar  
 40  20  22  ar  
 41  21  23  ar  
 42  21  43  1   
 43  22  24  ar  
 44  22  44  1   
 45  23  25  ar  
 46  23  45  1   
 47  24  25  ar  
 48  24  46  1   
 49  25  47  1   
@<TRIPOS>SUBSTRUCTURE
  1 ****  11 GROUP 4 **** **** 0

# MOE 2024.06 (io_trps.svl 2023.06)
