@<TRIPOS>MOLECULE
N-tert-Butyl-3-(3-m-tolyl-[1,2,4]oxadiazol-5-yl)-propionamide
42 43 1 0 0 
SMALL
USER_CHARGES


@<TRIPOS>ATOM
  1 O        0.1470    -0.6090     1.7150 O.2   1 <1>  -0.5700 
  2 C        0.6260    -1.4510     0.9990 C.2   1 <1>   0.5690 
  3 N        1.8500    -1.2230     0.4680 N.am  1 <1>  -0.7300 
  4 C       -0.1670    -2.7190     0.7300 C.3   1 <1>  -0.0990 
  5 C        2.7510    -1.9570    -0.4270 C.3   1 <1>   0.3000 
  6 C       -1.3100    -2.9380     1.7330 C.3   1 <1>   0.0200 
  7 C        3.4240    -3.0880     0.3510 C.3   1 <1>  -0.2400 
  8 C        2.0130    -2.4810    -1.6600 C.3   1 <1>  -0.2400 
  9 C        3.8090    -0.9490    -0.8710 C.3   1 <1>  -0.2400 
 10 C       -2.0240    -4.2460     1.4610 C.2   1 <1>   0.2980 
 11 O       -1.4060    -5.3660     1.7340 O.3   1 <1>  -0.0190 
 12 N       -3.1870    -4.3690     0.9740 N.2   1 <1>  -0.5650 
 13 N       -2.2520    -6.2840     1.3870 N.2   1 <1>  -0.4100 
 14 C       -3.3080    -5.7010     0.9390 C.2   1 <1>   0.4620 
 15 C       -4.5010    -6.3700     0.4460 C.ar  1 <1>   0.0540 
 16 C       -5.6170    -5.6550     0.0030 C.ar  1 <1>  -0.1500 
 17 C       -4.5800    -7.7630     0.3950 C.ar  1 <1>  -0.1500 
 18 C       -6.7540    -6.2880    -0.4690 C.ar  1 <1>  -0.1440 
 19 C       -5.7100    -8.4070    -0.0730 C.ar  1 <1>  -0.1500 
 20 C       -6.7970    -7.6710    -0.5050 C.ar  1 <1>  -0.1500 
 21 C       -7.9510    -5.4840    -0.9430 C.3   1 <1>  -0.0970 
 22 H        2.2450    -0.3300     0.7630 H     1 <1>   0.3700 
 23 H        0.4920    -3.5620     0.7730 H     1 <1>   0.0800 
 24 H       -0.5820    -2.6560    -0.2580 H     1 <1>   0.0800 
 25 H       -2.0180    -2.1310     1.6580 H     1 <1>   0.0800 
 26 H       -0.9240    -2.9500     2.7370 H     1 <1>   0.0800 
 27 H        2.7110    -3.8250     0.6630 H     1 <1>   0.0800 
 28 H        3.9260    -2.6990     1.2190 H     1 <1>   0.0800 
 29 H        4.1540    -3.5770    -0.2690 H     1 <1>   0.0800 
 30 H        2.7210    -2.8350    -2.3870 H     1 <1>   0.0800 
 31 H        1.4320    -1.6970    -2.1110 H     1 <1>   0.0800 
 32 H        1.3730    -3.3070    -1.4160 H     1 <1>   0.0800 
 33 H        4.5210    -1.4200    -1.5250 H     1 <1>   0.0800 
 34 H        4.3440    -0.5590    -0.0240 H     1 <1>   0.0800 
 35 H        3.3530    -0.1350    -1.4060 H     1 <1>   0.0800 
 36 H       -5.5870    -4.5800     0.0320 H     1 <1>   0.1500 
 37 H       -3.7420    -8.3510     0.7270 H     1 <1>   0.1500 
 38 H       -5.7440    -9.4820    -0.1020 H     1 <1>   0.1500 
 39 H       -7.6750    -8.1760    -0.8680 H     1 <1>   0.1500 
 40 H       -7.7020    -4.4420    -1.0330 H     1 <1>   0.0800 
 41 H       -8.7590    -5.5860    -0.2410 H     1 <1>   0.0800 
 42 H       -8.2770    -5.8400    -1.9040 H     1 <1>   0.0800 
@<TRIPOS>BOND
  1   1   2  2   
  2   2   3  am  
  3   2   4  1   
  4   3   5  1   
  5   3  22  1   
  6   4   6  1   
  7   4  23  1   
  8   4  24  1   
  9   5   7  1   
 10   5   8  1   
 11   5   9  1   
 12   6  10  1   
 13   6  25  1   
 14   6  26  1   
 15   7  27  1   
 16   7  28  1   
 17   7  29  1   
 18   8  30  1   
 19   8  31  1   
 20   8  32  1   
 21   9  33  1   
 22   9  34  1   
 23   9  35  1   
 24  10  11  1   
 25  10  12  2   
 26  11  13  1   
 27  12  14  1   
 28  13  14  2   
 29  14  15  1   
 30  15  16  ar  
 31  15  17  ar  
 32  16  18  ar  
 33  16  36  1   
 34  17  19  ar  
 35  17  37  1   
 36  18  20  ar  
 37  18  21  1   
 38  19  20  ar  
 39  19  38  1   
 40  20  39  1   
 41  21  40  1   
 42  21  41  1   
 43  21  42  1   
@<TRIPOS>SUBSTRUCTURE
  1 ****  10 GROUP 4 **** **** 0

# MOE 2024.06 (io_trps.svl 2023.06)
