@<TRIPOS>MOLECULE
1-(2,3-Dihydro-benzo[1,4]dioxin-6-yl)-5-oxo-pyrrolidine-3-carboxylic acid
31 33 1 0 0 
SMALL
USER_CHARGES


@<TRIPOS>ATOM
  1 O        0.3980     0.2420     0.6420 O.2   1 <1>  -0.5700 
  2 C        0.6500     1.3920     0.3680 C.2   1 <1>   0.5690 
  3 N        1.8730     1.9050     0.0350 N.am  1 <1>  -0.4770 
  4 C       -0.4130     2.4570     0.3520 C.3   1 <1>  -0.0990 
  5 C        3.1050     1.2320    -0.1000 C.ar  1 <1>   0.1170 
  6 C        1.7650     3.3610    -0.2160 C.3   1 <1>   0.1400 
  7 C        0.2680     3.6190    -0.3910 C.3   1 <1>  -0.1860 
  8 C        4.3000     1.8590     0.2450 C.ar  1 <1>  -0.1500 
  9 C        3.1600    -0.0700    -0.5930 C.ar  1 <1>  -0.1500 
 10 C       -0.1290     5.0010     0.0810 C.2   1 <1>   0.9060 
 11 C        5.5110     1.2070     0.0980 C.ar  1 <1>   0.0820 
 12 C        4.3660    -0.7340    -0.7370 C.ar  1 <1>  -0.1500 
 13 O        0.7120     5.9030     0.0320 O.co2 1 <1>  -0.9000 
 14 O       -1.2800     5.1840     0.4850 O.co2 1 <1>  -0.9000 
 15 O        6.6540     1.8610     0.4310 O.3   1 <1>  -0.3630 
 16 C        5.5450    -0.1010    -0.3890 C.ar  1 <1>   0.0820 
 17 C        7.8700     1.2940    -0.0170 C.3   1 <1>   0.1200 
 18 O        6.7190    -0.7740    -0.5240 O.3   1 <1>  -0.3630 
 19 C        7.8380    -0.2320     0.1500 C.3   1 <1>   0.1200 
 20 H       -0.6500     2.7310     1.3640 H     1 <1>   0.0800 
 21 H       -1.3000     2.1270    -0.1550 H     1 <1>   0.0800 
 22 H        2.3140     3.6510    -1.0950 H     1 <1>   0.0800 
 23 H        2.1430     3.8970     0.6390 H     1 <1>   0.0800 
 24 H        0.0320     3.5580    -1.4360 H     1 <1>   0.0800 
 25 H        4.2950     2.8590     0.6340 H     1 <1>   0.1500 
 26 H        2.2470    -0.5690    -0.8650 H     1 <1>   0.1500 
 27 H        4.3960    -1.7400    -1.1150 H     1 <1>   0.1500 
 28 H        8.6690     1.7250     0.5580 H     1 <1>   0.0800 
 29 H        7.9990     1.5530    -1.0530 H     1 <1>   0.0800 
 30 H        7.7600    -0.4920     1.1910 H     1 <1>   0.0800 
 31 H        8.7230    -0.6810    -0.2620 H     1 <1>   0.0800 
@<TRIPOS>BOND
  1   1   2  2   
  2   2   3  am  
  3   2   4  1   
  4   3   5  1   
  5   3   6  1   
  6   4   7  1   
  7   4  20  1   
  8   4  21  1   
  9   5   8  ar  
 10   5   9  ar  
 11   6   7  1   
 12   6  22  1   
 13   6  23  1   
 14   7  10  1   
 15   7  24  1   
 16   8  11  ar  
 17   8  25  1   
 18   9  12  ar  
 19   9  26  1   
 20  10  13  ar  
 21  10  14  ar  
 22  11  15  1   
 23  11  16  ar  
 24  12  16  ar  
 25  12  27  1   
 26  15  17  1   
 27  16  18  1   
 28  17  19  1   
 29  17  28  1   
 30  17  29  1   
 31  18  19  1   
 32  19  30  1   
 33  19  31  1   
@<TRIPOS>SUBSTRUCTURE
  1 ****   5 GROUP 4 **** **** 0

# MOE 2024.06 (io_trps.svl 2023.06)
