@<TRIPOS>MOLECULE
1-(4-Ethoxy-phenyl)-5-oxo-pyrrolidine-3-carboxylic acid (2,5-dimethoxy-phenyl)-a
52 54 1 0 0 
SMALL
USER_CHARGES


@<TRIPOS>ATOM
  1 O        0.5380     0.1670    -0.4180 O.2   1 <1>  -0.5700 
  2 C        1.5950    -0.2710    -0.0360 C.2   1 <1>   0.5690 
  3 N        1.9160    -1.5820     0.1740 N.am  1 <1>  -0.4770 
  4 C        2.7580     0.6300     0.2670 C.3   1 <1>  -0.0990 
  5 C        1.1310    -2.7310    -0.0550 C.ar  1 <1>   0.1170 
  6 C        3.3180    -1.7030     0.6170 C.3   1 <1>   0.1400 
  7 C        3.9520    -0.3410     0.3120 C.3   1 <1>  -0.0190 
  8 C        0.2280    -2.7880    -1.1110 C.ar  1 <1>  -0.1500 
  9 C        1.2530    -3.8510     0.7650 C.ar  1 <1>  -0.1500 
 10 C        5.0660     0.0360     1.2870 C.2   1 <1>   0.5690 
 11 C       -0.5230    -3.9250    -1.3450 C.ar  1 <1>  -0.1500 
 12 C        0.5050    -4.9920     0.5360 C.ar  1 <1>  -0.1500 
 13 O        5.0390     1.1050     1.8410 O.2   1 <1>  -0.5700 
 14 N        6.0870    -0.8180     1.5630 N.am  1 <1>  -0.5470 
 15 C       -0.3900    -5.0350    -0.5280 C.ar  1 <1>   0.0830 
 16 C        6.3770    -2.0910     1.0420 C.ar  1 <1>   0.1170 
 17 O       -1.1620    -6.1120    -0.8290 O.3   1 <1>  -0.3630 
 18 C        6.6940    -2.2980    -0.3070 C.ar  1 <1>   0.0830 
 19 C        6.3420    -3.1770     1.9010 C.ar  1 <1>  -0.1500 
 20 C       -1.1390    -7.2680    -0.0260 C.3   1 <1>   0.1200 
 21 O        6.7420    -1.2060    -1.1260 O.3   1 <1>  -0.3630 
 22 C        6.9470    -3.5880    -0.7650 C.ar  1 <1>  -0.1500 
 23 C        6.5950    -4.4590     1.4480 C.ar  1 <1>   0.0830 
 24 C       -2.1300    -8.2690    -0.6120 C.3   1 <1>  -0.2400 
 25 C        7.2390    -1.2980    -2.4440 C.3   1 <1>   0.0400 
 26 C        6.8970    -4.6640     0.1060 C.ar  1 <1>  -0.1500 
 27 O        6.5270    -5.4540     2.3690 O.3   1 <1>  -0.3620 
 28 C        6.8780    -6.7800     2.0360 C.3   1 <1>   0.0400 
 29 H        2.5810     1.0970     1.2190 H     1 <1>   0.0800 
 30 H        2.8800     1.3800    -0.4920 H     1 <1>   0.0800 
 31 H        3.8150    -2.4960     0.0850 H     1 <1>   0.0800 
 32 H        3.3370    -1.9030     1.6750 H     1 <1>   0.0800 
 33 H        4.3720    -0.3870    -0.6750 H     1 <1>   0.0800 
 34 H        0.1100    -1.9360    -1.7560 H     1 <1>   0.1500 
 35 H        1.9330    -3.8330     1.5960 H     1 <1>   0.1500 
 36 H       -1.2180    -3.9570    -2.1640 H     1 <1>   0.1500 
 37 H        0.6320    -5.8310     1.1930 H     1 <1>   0.1500 
 38 H        6.7530    -0.4390     2.2380 H     1 <1>   0.3700 
 39 H        6.1100    -3.0320     2.9410 H     1 <1>   0.1500 
 40 H       -1.4230    -6.9940     0.9750 H     1 <1>   0.0800 
 41 H       -0.1410    -7.6710    -0.0370 H     1 <1>   0.0800 
 42 H        7.1830    -3.7800    -1.7940 H     1 <1>   0.1500 
 43 H       -3.1200    -7.8500    -0.6130 H     1 <1>   0.0800 
 44 H       -2.1360    -9.1660    -0.0200 H     1 <1>   0.0800 
 45 H       -1.8470    -8.5230    -1.6180 H     1 <1>   0.0800 
 46 H        7.2570    -0.3070    -2.8630 H     1 <1>   0.0800 
 47 H        6.5850    -1.9260    -3.0230 H     1 <1>   0.0800 
 48 H        8.2370    -1.6990    -2.4150 H     1 <1>   0.0800 
 49 H        7.0950    -5.6470    -0.2780 H     1 <1>   0.1500 
 50 H        6.7920    -7.3800     2.9240 H     1 <1>   0.0800 
 51 H        7.8930    -6.7950     1.6820 H     1 <1>   0.0800 
 52 H        6.2000    -7.1440     1.2840 H     1 <1>   0.0800 
@<TRIPOS>BOND
  1   1   2  2   
  2   2   3  am  
  3   2   4  1   
  4   3   5  1   
  5   3   6  1   
  6   4   7  1   
  7   4  29  1   
  8   4  30  1   
  9   5   8  ar  
 10   5   9  ar  
 11   6   7  1   
 12   6  31  1   
 13   6  32  1   
 14   7  10  1   
 15   7  33  1   
 16   8  11  ar  
 17   8  34  1   
 18   9  12  ar  
 19   9  35  1   
 20  10  13  2   
 21  10  14  am  
 22  11  15  ar  
 23  11  36  1   
 24  12  15  ar  
 25  12  37  1   
 26  14  16  1   
 27  14  38  1   
 28  15  17  1   
 29  16  18  ar  
 30  16  19  ar  
 31  17  20  1   
 32  18  21  1   
 33  18  22  ar  
 34  19  23  ar  
 35  19  39  1   
 36  20  24  1   
 37  20  40  1   
 38  20  41  1   
 39  21  25  1   
 40  22  26  ar  
 41  22  42  1   
 42  23  26  ar  
 43  23  27  1   
 44  24  43  1   
 45  24  44  1   
 46  24  45  1   
 47  25  46  1   
 48  25  47  1   
 49  25  48  1   
 50  26  49  1   
 51  27  28  1   
 52  28  50  1   
 53  28  51  1   
 54  28  52  1   
@<TRIPOS>SUBSTRUCTURE
  1 ****   6 GROUP 4 **** **** 0

# MOE 2024.06 (io_trps.svl 2023.06)
