@<TRIPOS>MOLECULE
N-(2,4-Dichloro-phenyl)-N-(2-oxo-2-pyrrolidin-1-yl-ethyl)-methanesulfonamide
37 38 1 0 0 
SMALL
USER_CHARGES


@<TRIPOS>ATOM
  1 CL      -2.7820    -1.2270     0.7610 Cl    1 <1>  -0.1770 
  2 C       -2.0640    -2.0050    -0.6350 C.ar  1 <1>   0.1770 
  3 C       -0.8420    -2.6720    -0.5070 C.ar  1 <1>   0.1990 
  4 C       -2.7410    -1.9430    -1.8370 C.ar  1 <1>  -0.1500 
  5 N       -0.1480    -2.7200     0.7030 N.am  1 <1>  -0.6930 
  6 C       -0.3150    -3.2910    -1.6370 C.ar  1 <1>  -0.1500 
  7 C       -2.1860    -2.5670    -2.9380 C.ar  1 <1>   0.1770 
  8 S       -0.0800    -4.1580     1.6610 S.o2  1 <1>   1.3330 
  9 C        0.7360    -1.5610     1.0570 C.3   1 <1>   0.2570 
 10 C       -0.9810    -3.2410    -2.8500 C.ar  1 <1>  -0.1500 
 11 CL      -3.0240    -2.5050    -4.4690 Cl    1 <1>  -0.1770 
 12 O        0.0310    -5.2690     0.7500 O.2   1 <1>  -0.6500 
 13 O        0.9190    -3.9500     2.6800 O.2   1 <1>  -0.6500 
 14 C       -1.6850    -4.1690     2.4290 C.3   1 <1>  -0.1350 
 15 C        1.7780    -1.2330    -0.0190 C.2   1 <1>   0.5690 
 16 O        1.6130    -0.2260    -0.6690 O.2   1 <1>  -0.5700 
 17 N        2.8560    -2.0500    -0.2390 N.am  1 <1>  -0.6600 
 18 C        3.8540    -1.7750    -1.2950 C.3   1 <1>   0.1400 
 19 C        3.1780    -3.3020     0.4840 C.3   1 <1>   0.1400 
 20 C        4.6910    -3.0460    -1.3800 C.3   1 <1>  -0.1600 
 21 C        4.5760    -3.6760     0.0060 C.3   1 <1>  -0.1600 
 22 H       -3.6780    -1.4230    -1.9180 H     1 <1>   0.1500 
 23 H        0.6240    -3.8120    -1.5590 H     1 <1>   0.1500 
 24 H        1.2480    -1.7290     1.9850 H     1 <1>   0.0800 
 25 H        0.1170    -0.6930     1.1920 H     1 <1>   0.0800 
 26 H       -0.5710    -3.7190    -3.7230 H     1 <1>   0.1500 
 27 H       -1.8250    -3.2770     3.0080 H     1 <1>   0.0800 
 28 H       -1.7760    -5.0190     3.0760 H     1 <1>   0.0800 
 29 H       -2.4530    -4.2210     1.6830 H     1 <1>   0.0800 
 30 H        4.4610    -0.9390    -0.9920 H     1 <1>   0.0800 
 31 H        3.3710    -1.5500    -2.2310 H     1 <1>   0.0800 
 32 H        2.4770    -4.0670     0.2000 H     1 <1>   0.0800 
 33 H        3.1540    -3.1590     1.5510 H     1 <1>   0.0800 
 34 H        5.7090    -2.8360    -1.6530 H     1 <1>   0.0800 
 35 H        4.2570    -3.7000    -2.1160 H     1 <1>   0.0800 
 36 H        4.7180    -4.7420    -0.0130 H     1 <1>   0.0800 
 37 H        5.3000    -3.2370     0.6690 H     1 <1>   0.0800 
@<TRIPOS>BOND
  1   1   2  1   
  2   2   3  ar  
  3   2   4  ar  
  4   3   5  1   
  5   3   6  ar  
  6   4   7  ar  
  7   4  22  1   
  8   5   8  am  
  9   5   9  1   
 10   6  10  ar  
 11   6  23  1   
 12   7  10  ar  
 13   7  11  1   
 14   8  12  2   
 15   8  13  2   
 16   8  14  1   
 17   9  15  1   
 18   9  24  1   
 19   9  25  1   
 20  10  26  1   
 21  14  27  1   
 22  14  28  1   
 23  14  29  1   
 24  15  16  2   
 25  15  17  am  
 26  17  18  1   
 27  17  19  1   
 28  18  20  1   
 29  18  30  1   
 30  18  31  1   
 31  19  21  1   
 32  19  32  1   
 33  19  33  1   
 34  20  21  1   
 35  20  34  1   
 36  20  35  1   
 37  21  36  1   
 38  21  37  1   
@<TRIPOS>SUBSTRUCTURE
  1 ****   5 GROUP 4 **** **** 0

# MOE 2024.06 (io_trps.svl 2023.06)
