@<TRIPOS>MOLECULE
N-p-Tolyl-2-(3,8,8-trimethyl-1-oxo-8,9-dihydro-1H,6H-7-oxa-11-thia-2,4,10-triaza
56 60 1 0 0 
SMALL
USER_CHARGES


@<TRIPOS>ATOM
  1 S        1.2400     0.4490    -1.5150 S.3   1 <1>  -0.0800 
  2 C       -0.0010     1.5470    -0.8960 C.ar  1 <1>   0.2970 
  3 C        2.2110     0.6410    -0.0470 C.2   1 <1>  -0.0450 
  4 N       -1.0840     1.8400    -1.5940 N.ar  1 <1>  -0.5670 
  5 C        0.3520     2.0070     0.3660 C.ar  1 <1>   0.0000 
  6 C        3.4510     0.0400     0.2400 C.2   1 <1>   0.7150 
  7 C        1.6090     1.4820     0.8220 C.2   1 <1>   0.1250 
  8 C       -1.8990     2.6780    -0.9720 C.ar  1 <1>   0.1660 
  9 C       -0.5230     2.8820     0.9860 C.ar  1 <1>  -0.1500 
 10 O        4.0610    -0.6760    -0.5470 O.2   1 <1>  -0.5700 
 11 N        3.9840     0.3260     1.4810 N.am  1 <1>  -0.4200 
 12 N        2.2000     1.7850     2.0220 N.2   1 <1>  -0.5750 
 13 C       -1.6700     3.2200     0.2950 C.ar  1 <1>  -0.1430 
 14 C       -3.1690     3.0420    -1.7140 C.3   1 <1>  -0.0170 
 15 C        3.3290     1.2320     2.3060 C.2   1 <1>   0.4490 
 16 C        5.2860    -0.3220     1.8510 C.3   1 <1>   0.2010 
 17 C       -2.6610     4.1940     0.9190 C.3   1 <1>   0.2640 
 18 C       -3.8080     4.3320    -1.1790 C.3   1 <1>   0.2800 
 19 C        3.9620     1.6160     3.6300 C.3   1 <1>  -0.1790 
 20 C        6.4800     0.4260     1.2710 C.2   1 <1>   0.5690 
 21 O       -3.8680     4.2560     0.2120 O.3   1 <1>  -0.5600 
 22 C       -3.0420     5.5960    -1.6050 C.3   1 <1>  -0.2400 
 23 C       -5.2590     4.4440    -1.6470 C.3   1 <1>  -0.2400 
 24 O        7.1850     1.0350     2.0370 O.2   1 <1>  -0.5700 
 25 N        6.6740     0.3700    -0.0830 N.am  1 <1>  -0.5470 
 26 C        7.6460     0.9380    -0.9200 C.ar  1 <1>   0.1170 
 27 C        7.4050     0.9510    -2.2890 C.ar  1 <1>  -0.1500 
 28 C        8.8410     1.4780    -0.4570 C.ar  1 <1>  -0.1500 
 29 C        8.3260     1.4910    -3.1690 C.ar  1 <1>  -0.1500 
 30 C        9.7630     2.0190    -1.3360 C.ar  1 <1>  -0.1500 
 31 C        9.5110     2.0310    -2.6980 C.ar  1 <1>  -0.1430 
 32 C       10.5230     2.6240    -3.6600 C.3   1 <1>  -0.0970 
 33 H       -0.2960     3.2700     1.9640 H     1 <1>   0.1500 
 34 H       -3.8580     2.2250    -1.6100 H     1 <1>   0.0800 
 35 H       -2.9550     3.1550    -2.7610 H     1 <1>   0.0800 
 36 H        5.3040    -1.3330     1.4860 H     1 <1>   0.0800 
 37 H        5.3960    -0.3780     2.9170 H     1 <1>   0.0800 
 38 H       -2.2400     5.1840     0.9550 H     1 <1>   0.0800 
 39 H       -2.8960     3.8880     1.9220 H     1 <1>   0.0800 
 40 H        3.9920     0.7700     4.2900 H     1 <1>   0.0800 
 41 H        3.3850     2.3900     4.1050 H     1 <1>   0.0800 
 42 H        4.9560     1.9940     3.4750 H     1 <1>   0.0800 
 43 H       -1.9950     5.5220    -1.3750 H     1 <1>   0.0800 
 44 H       -3.4560     6.4620    -1.1210 H     1 <1>   0.0800 
 45 H       -3.1270     5.7310    -2.6680 H     1 <1>   0.0800 
 46 H       -5.8270     3.5950    -1.3090 H     1 <1>   0.0800 
 47 H       -5.3060     4.4800    -2.7200 H     1 <1>   0.0800 
 48 H       -5.7080     5.3390    -1.2550 H     1 <1>   0.0800 
 49 H        5.9280    -0.1230    -0.5920 H     1 <1>   0.3700 
 50 H        6.4900     0.5380    -2.6730 H     1 <1>   0.1500 
 51 H        9.0650     1.4790     0.5930 H     1 <1>   0.1500 
 52 H        8.1160     1.4900    -4.2250 H     1 <1>   0.1500 
 53 H       10.6800     2.4310    -0.9520 H     1 <1>   0.1500 
 54 H       11.2180     1.8640    -3.9690 H     1 <1>   0.0800 
 55 H       11.0680     3.4210    -3.1880 H     1 <1>   0.0800 
 56 H       10.0300     3.0190    -4.5300 H     1 <1>   0.0800 
@<TRIPOS>BOND
  1   1   2  1   
  2   1   3  1   
  3   2   4  ar  
  4   2   5  ar  
  5   3   6  1   
  6   3   7  2   
  7   4   8  ar  
  8   5   7  1   
  9   5   9  ar  
 10   6  10  2   
 11   6  11  am  
 12   7  12  1   
 13   8  13  ar  
 14   8  14  1   
 15   9  13  ar  
 16   9  33  1   
 17  11  15  1   
 18  11  16  1   
 19  12  15  2   
 20  13  17  1   
 21  14  18  1   
 22  14  34  1   
 23  14  35  1   
 24  15  19  1   
 25  16  20  1   
 26  16  36  1   
 27  16  37  1   
 28  17  21  1   
 29  17  38  1   
 30  17  39  1   
 31  18  21  1   
 32  18  22  1   
 33  18  23  1   
 34  19  40  1   
 35  19  41  1   
 36  19  42  1   
 37  20  24  2   
 38  20  25  am  
 39  22  43  1   
 40  22  44  1   
 41  22  45  1   
 42  23  46  1   
 43  23  47  1   
 44  23  48  1   
 45  25  26  1   
 46  25  49  1   
 47  26  27  ar  
 48  26  28  ar  
 49  27  29  ar  
 50  27  50  1   
 51  28  30  ar  
 52  28  51  1   
 53  29  31  ar  
 54  29  52  1   
 55  30  31  ar  
 56  30  53  1   
 57  31  32  1   
 58  32  54  1   
 59  32  55  1   
 60  32  56  1   
@<TRIPOS>SUBSTRUCTURE
  1 ****   3 GROUP 4 **** **** 0

# MOE 2024.06 (io_trps.svl 2023.06)
