@<TRIPOS>MOLECULE
N-(1-Ethyl-7-methyl-1H-pyrazolo[3,4-b]quinolin-3-yl)-succinamic acid
41 43 1 0 0 
SMALL
USER_CHARGES


@<TRIPOS>ATOM
  1 O        0.2630    -0.5120     0.6660 O.co2 1 <1>  -0.9000 
  2 C        0.2380    -1.7410     0.7500 C.2   1 <1>   0.9060 
  3 O        1.2480    -2.4360     0.8850 O.co2 1 <1>  -0.9000 
  4 C       -1.0860    -2.4490     0.6680 C.3   1 <1>  -0.2660 
  5 C       -1.2510    -3.1450    -0.6970 C.3   1 <1>  -0.0990 
  6 C       -2.3900    -4.1420    -0.7110 C.2   1 <1>   0.5690 
  7 O       -3.3410    -3.9410    -1.4280 O.2   1 <1>  -0.5700 
  8 N       -2.2550    -5.2380     0.0790 N.am  1 <1>  -0.4930 
  9 C       -3.0830    -6.3330     0.2950 C.2   1 <1>   0.3520 
 10 N       -2.5430    -7.4450     0.6460 N.2   1 <1>  -0.7070 
 11 C       -4.5020    -6.3960     0.2160 C.ar  1 <1>   0.0000 
 12 N       -3.5850    -8.3130     0.7870 N.pl3 1 <1>   0.3140 
 13 C       -4.7910    -7.7190     0.5410 C.ar  1 <1>   0.1050 
 14 C       -5.5550    -5.5490    -0.0510 C.ar  1 <1>  -0.1500 
 15 C       -3.3780    -9.7250     1.1680 C.3   1 <1>   0.0960 
 16 N       -5.9910    -8.2740     0.6090 N.ar  1 <1>  -0.5670 
 17 C       -6.8450    -6.0720    -0.0020 C.ar  1 <1>   0.0000 
 18 C       -3.1990   -10.6100    -0.0720 C.3   1 <1>  -0.2400 
 19 C       -7.0130    -7.4460     0.3320 C.ar  1 <1>   0.3100 
 20 C       -7.9940    -5.2920    -0.2720 C.ar  1 <1>  -0.1500 
 21 C       -8.3270    -7.9580     0.3760 C.ar  1 <1>  -0.1500 
 22 C       -9.2470    -5.8310    -0.2170 C.ar  1 <1>  -0.1500 
 23 C       -9.4230    -7.1850     0.1130 C.ar  1 <1>  -0.1440 
 24 C      -10.8320    -7.7490     0.1640 C.3   1 <1>  -0.0970 
 25 H       -1.8720    -1.7350     0.8210 H     1 <1>   0.0800 
 26 H       -1.1090    -3.1620     1.4700 H     1 <1>   0.0800 
 27 H       -0.3430    -3.6660    -0.9440 H     1 <1>   0.0800 
 28 H       -1.4120    -2.4000    -1.4560 H     1 <1>   0.0800 
 29 H       -1.3470    -5.3490     0.5240 H     1 <1>   0.3700 
 30 H       -5.3950    -4.5140    -0.2880 H     1 <1>   0.1500 
 31 H       -4.2290   -10.0530     1.7370 H     1 <1>   0.0800 
 32 H       -2.5050    -9.7810     1.7910 H     1 <1>   0.0800 
 33 H       -4.0790   -10.5640    -0.6900 H     1 <1>   0.0800 
 34 H       -3.0420   -11.6300     0.2270 H     1 <1>   0.0800 
 35 H       -2.3460   -10.2820    -0.6400 H     1 <1>   0.0800 
 36 H       -7.8550    -4.2570    -0.5270 H     1 <1>   0.1500 
 37 H       -8.4280    -8.9960     0.6300 H     1 <1>   0.1500 
 38 H      -10.1130    -5.2270    -0.4250 H     1 <1>   0.1500 
 39 H      -10.8180    -8.7910     0.4290 H     1 <1>   0.0800 
 40 H      -11.3030    -7.6460    -0.7970 H     1 <1>   0.0800 
 41 H      -11.4130    -7.2170     0.8960 H     1 <1>   0.0800 
@<TRIPOS>BOND
  1   1   2  ar  
  2   2   3  ar  
  3   2   4  1   
  4   4   5  1   
  5   4  25  1   
  6   4  26  1   
  7   5   6  1   
  8   5  27  1   
  9   5  28  1   
 10   6   7  2   
 11   6   8  am  
 12   8   9  1   
 13   8  29  1   
 14   9  10  2   
 15   9  11  1   
 16  10  12  1   
 17  11  13  ar  
 18  11  14  ar  
 19  12  13  1   
 20  12  15  1   
 21  13  16  ar  
 22  14  17  ar  
 23  14  30  1   
 24  15  18  1   
 25  15  31  1   
 26  15  32  1   
 27  16  19  ar  
 28  17  19  ar  
 29  17  20  ar  
 30  18  33  1   
 31  18  34  1   
 32  18  35  1   
 33  19  21  ar  
 34  20  22  ar  
 35  20  36  1   
 36  21  23  ar  
 37  21  37  1   
 38  22  23  ar  
 39  22  38  1   
 40  23  24  1   
 41  24  39  1   
 42  24  40  1   
 43  24  41  1   
@<TRIPOS>SUBSTRUCTURE
  1 ****  11 GROUP 4 **** **** 0

# MOE 2024.06 (io_trps.svl 2023.06)
