@<TRIPOS>MOLECULE
2-Benzylsulfanyl-N-(5-ethoxymethyl-[1,3,4]thiadiazol-2-yl)-acetamide
38 39 1 0 0 
SMALL
USER_CHARGES


@<TRIPOS>ATOM
  1 S        0.4600    -1.1190     0.0530 S.3   1 <1>  -0.0800 
  2 C        1.9790    -1.9420    -0.0620 C.2   1 <1>   0.4420 
  3 C       -0.0880    -2.4310     1.0440 C.2   1 <1>   0.1980 
  4 N        1.9920    -3.0380     0.6060 N.2   1 <1>  -0.3380 
  5 N        2.9690    -1.3460    -0.8100 N.am  1 <1>  -0.4940 
  6 N        0.8090    -3.3150     1.2290 N.2   1 <1>  -0.3380 
  7 C       -1.5110    -2.3890     1.5750 C.3   1 <1>   0.3000 
  8 C        4.1800    -1.8090    -1.2260 C.2   1 <1>   0.5690 
  9 O       -2.4110    -2.2210     0.5210 O.3   1 <1>  -0.5600 
 10 O        4.9470    -1.0350    -1.7390 O.2   1 <1>  -0.5700 
 11 C        4.5950    -3.2690    -1.0700 C.3   1 <1>   0.1310 
 12 C       -3.7450    -2.2220     0.9030 C.3   1 <1>   0.1200 
 13 S        3.7330    -4.3160    -2.3010 S.3   1 <1>  -0.4600 
 14 C       -4.5790    -2.0230    -0.3560 C.3   1 <1>  -0.2400 
 15 C        2.9770    -5.6470    -1.3160 C.3   1 <1>   0.2130 
 16 C        4.0080    -6.2100    -0.3490 C.ar  1 <1>  -0.1440 
 17 C        5.1530    -6.8320    -0.8230 C.ar  1 <1>  -0.1500 
 18 C        3.8070    -6.1040     1.0190 C.ar  1 <1>  -0.1500 
 19 C        6.0890    -7.3400     0.0610 C.ar  1 <1>  -0.1500 
 20 C        4.7420    -6.6120     1.9040 C.ar  1 <1>  -0.1500 
 21 C        5.8840    -7.2310     1.4260 C.ar  1 <1>  -0.1500 
 22 H        2.7910    -0.3930    -1.1160 H     1 <1>   0.3700 
 23 H       -1.6220    -1.5660     2.2580 H     1 <1>   0.0800 
 24 H       -1.7350    -3.3140     2.0780 H     1 <1>   0.0800 
 25 H        4.3760    -3.6310    -0.0860 H     1 <1>   0.0800 
 26 H        5.6470    -3.3770    -1.2580 H     1 <1>   0.0800 
 27 H       -3.9130    -1.4180     1.5990 H     1 <1>   0.0800 
 28 H       -3.9770    -3.1680     1.3640 H     1 <1>   0.0800 
 29 H       -4.3330    -1.0840    -0.8180 H     1 <1>   0.0800 
 30 H       -5.6240    -2.0190    -0.1050 H     1 <1>   0.0800 
 31 H       -4.3960    -2.8230    -1.0510 H     1 <1>   0.0800 
 32 H        2.6430    -6.4000    -2.0070 H     1 <1>   0.0800 
 33 H        2.1300    -5.2300    -0.8030 H     1 <1>   0.0800 
 34 H        5.3190    -6.9160    -1.8830 H     1 <1>   0.1500 
 35 H        2.9230    -5.6220     1.4020 H     1 <1>   0.1500 
 36 H        6.9760    -7.8210    -0.3130 H     1 <1>   0.1500 
 37 H        4.5800    -6.5250     2.9640 H     1 <1>   0.1500 
 38 H        6.6110    -7.6260     2.1130 H     1 <1>   0.1500 
@<TRIPOS>BOND
  1   1   2  1   
  2   1   3  1   
  3   2   4  2   
  4   2   5  1   
  5   3   6  2   
  6   3   7  1   
  7   4   6  1   
  8   5   8  am  
  9   5  22  1   
 10   7   9  1   
 11   7  23  1   
 12   7  24  1   
 13   8  10  2   
 14   8  11  1   
 15   9  12  1   
 16  11  13  1   
 17  11  25  1   
 18  11  26  1   
 19  12  14  1   
 20  12  27  1   
 21  12  28  1   
 22  13  15  1   
 23  14  29  1   
 24  14  30  1   
 25  14  31  1   
 26  15  16  1   
 27  15  32  1   
 28  15  33  1   
 29  16  17  ar  
 30  16  18  ar  
 31  17  19  ar  
 32  17  34  1   
 33  18  20  ar  
 34  18  35  1   
 35  19  21  ar  
 36  19  36  1   
 37  20  21  ar  
 38  20  37  1   
 39  21  38  1   
@<TRIPOS>SUBSTRUCTURE
  1 ****   4 GROUP 4 **** **** 0

# MOE 2024.06 (io_trps.svl 2023.06)
