@<TRIPOS>MOLECULE
7,7-Dimethyl-2-oxo-1,5,7,8-tetrahydro-2H-thiopyrano[4,3-b]pyridine-3-carbonitril
27 28 1 0 0 
SMALL
USER_CHARGES


@<TRIPOS>ATOM
  1 S        0.3780    -0.8850    -1.7330 S.3   1 <1>  -0.4600 
  2 C        0.3250    -1.9760    -0.3000 C.3   1 <1>   0.2300 
  3 C        1.6680     0.3140    -1.3100 C.3   1 <1>   0.2080 
  4 C        1.7160    -2.6130    -0.1720 C.3   1 <1>  -0.0220 
  5 C       -0.7460    -3.0240    -0.6100 C.3   1 <1>  -0.2400 
  6 C       -0.0820    -1.1460     0.9250 C.3   1 <1>  -0.2400 
  7 C        2.8610    -0.3490    -0.6240 C.2   1 <1>  -0.1380 
  8 C        2.8760    -1.6240    -0.1260 C.2   1 <1>  -0.0290 
  9 C        4.0270     0.4520    -0.5080 C.2   1 <1>  -0.1500 
 10 N        4.0250    -2.1030     0.4610 N.am  1 <1>  -0.5390 
 11 C        5.1610    -0.0320     0.0830 C.2   1 <1>   0.0790 
 12 C        5.1660    -1.3640     0.5880 C.2   1 <1>   0.6160 
 13 C        6.3500     0.7450     0.2160 C.1   1 <1>   0.4920 
 14 O        6.1210    -1.8980     1.1320 O.2   1 <1>  -0.5700 
 15 N        7.2650     1.4230     0.2910 N.1   1 <1>  -0.5570 
 16 H        1.2150     1.0500    -0.6700 H     1 <1>   0.0800 
 17 H        1.9620     0.7770    -2.2360 H     1 <1>   0.0800 
 18 H        1.8780    -3.2750    -1.0040 H     1 <1>   0.0800 
 19 H        1.7240    -3.2110     0.7220 H     1 <1>   0.0800 
 20 H       -0.4990    -3.5600    -1.5100 H     1 <1>   0.0800 
 21 H       -1.7010    -2.5500    -0.7500 H     1 <1>   0.0800 
 22 H       -0.8290    -3.7290     0.1980 H     1 <1>   0.0800 
 23 H       -0.2210    -1.7900     1.7750 H     1 <1>   0.0800 
 24 H        0.6680    -0.4210     1.1790 H     1 <1>   0.0800 
 25 H       -1.0080    -0.6330     0.7340 H     1 <1>   0.0800 
 26 H        4.0020     1.4570    -0.8980 H     1 <1>   0.1500 
 27 H        4.0940    -3.0520     0.8330 H     1 <1>   0.3700 
@<TRIPOS>BOND
  1   1   2  1   
  2   1   3  1   
  3   2   4  1   
  4   2   5  1   
  5   2   6  1   
  6   3   7  1   
  7   3  16  1   
  8   3  17  1   
  9   4   8  1   
 10   4  18  1   
 11   4  19  1   
 12   5  20  1   
 13   5  21  1   
 14   5  22  1   
 15   6  23  1   
 16   6  24  1   
 17   6  25  1   
 18   7   8  2   
 19   7   9  1   
 20   8  10  1   
 21   9  11  2   
 22   9  26  1   
 23  10  12  am  
 24  10  27  1   
 25  11  12  1   
 26  11  13  1   
 27  12  14  2   
 28  13  15  3   
@<TRIPOS>SUBSTRUCTURE
  1 ****   8 GROUP 4 **** **** 0

# MOE 2024.06 (io_trps.svl 2023.06)
