@<TRIPOS>MOLECULE
1-Cyclopropyl-4-hydroxy-2-oxo-1,2,5,6,7,8-hexahydro-quinoline-3-carboxylic acid
45 48 1 0 0 
SMALL
USER_CHARGES


@<TRIPOS>ATOM
  1 O       -0.2740     0.4410     0.8350 O.3   1 <1>  -0.8500 
  2 C       -1.2790     1.0110     0.3980 C.2   1 <1>  -0.0500 
  3 N       -2.4400     0.2550     0.2280 N.pl3 1 <1>  -0.3690 
  4 C       -1.2730     2.4020     0.1000 C.2   1 <1>   0.0290 
  5 C       -3.6720     0.8980     0.1060 C.2   1 <1>  -0.0380 
  6 C       -2.3280    -1.2340     0.2810 C.3   1 <1>   0.0690 
  7 C       -2.4980     2.9860    -0.2860 C.2   1 <1>   0.5410 
  8 C       -0.0850     3.1760     0.1840 C.2   1 <1>   0.6160 
  9 C       -3.7110     2.2350    -0.1310 C.2   1 <1>  -0.1240 
 10 C       -4.9500     0.0740     0.2980 C.3   1 <1>  -0.0220 
 11 C       -1.3060    -1.9270    -0.5740 C.3   1 <1>  -0.2000 
 12 C       -2.7520    -2.0600    -0.9010 C.3   1 <1>  -0.2000 
 13 O       -2.5890     4.1200    -0.7880 O.2   1 <1>  -0.5700 
 14 O       -0.0810     4.3960     0.3560 O.2   1 <1>  -0.5700 
 15 N        1.1410     2.5560     0.1030 N.am  1 <1>  -0.5470 
 16 C       -5.0250     3.0110    -0.2340 C.3   1 <1>  -0.0220 
 17 C       -6.2300     0.8180    -0.1060 C.3   1 <1>  -0.1600 
 18 C        2.4380     3.0070    -0.0160 C.ar  1 <1>   0.4270 
 19 C       -6.2030     2.2610     0.3950 C.3   1 <1>  -0.1600 
 20 N        3.3730     2.1290     0.3280 N.ar  1 <1>  -0.6200 
 21 C        2.7490     4.2820    -0.4900 C.ar  1 <1>  -0.1500 
 22 C        4.6290     2.5190     0.2220 C.ar  1 <1>   0.1670 
 23 C        4.0600     4.6840    -0.6000 C.ar  1 <1>  -0.1500 
 24 C        5.0210     3.7680    -0.2290 C.ar  1 <1>  -0.1500 
 25 C        5.6640     1.4950     0.6320 C.3   1 <1>  -0.0970 
 26 H       -2.4330    -1.6030     1.2860 H     1 <1>   0.1000 
 27 H       -5.0070    -0.2010     1.3360 H     1 <1>   0.0800 
 28 H       -4.9160    -0.8280    -0.2790 H     1 <1>   0.0800 
 29 H       -0.7740    -2.7460    -0.1280 H     1 <1>   0.1000 
 30 H       -0.6640    -1.2870    -1.1530 H     1 <1>   0.1000 
 31 H       -3.1140    -1.5540    -1.7780 H     1 <1>   0.1000 
 32 H       -3.2280    -3.0070    -0.7290 H     1 <1>   0.1000 
 33 H        1.0210     1.5520     0.3440 H     1 <1>   0.3700 
 34 H       -5.2250     3.2030    -1.2730 H     1 <1>   0.0800 
 35 H       -4.9240     3.9620     0.2620 H     1 <1>   0.0800 
 36 H       -7.0860     0.3030     0.2930 H     1 <1>   0.0800 
 37 H       -6.3110     0.8190    -1.1790 H     1 <1>   0.0800 
 38 H       -7.1230     2.7580     0.1450 H     1 <1>   0.0800 
 39 H       -6.0960     2.2660     1.4660 H     1 <1>   0.0800 
 40 H        1.9590     4.9500    -0.7730 H     1 <1>   0.1500 
 41 H        4.3180     5.6640    -0.9590 H     1 <1>   0.1500 
 42 H        6.0620     4.0260    -0.2920 H     1 <1>   0.1500 
 43 H        5.5070     1.2240     1.6600 H     1 <1>   0.0800 
 44 H        6.6600     1.8790     0.5180 H     1 <1>   0.0800 
 45 H        5.5540     0.6150     0.0240 H     1 <1>   0.0800 
@<TRIPOS>BOND
  1   1   2  1   
  2   2   3  1   
  3   2   4  2   
  4   3   5  1   
  5   3   6  1   
  6   4   7  1   
  7   4   8  1   
  8   5   9  2   
  9   5  10  1   
 10   6  11  1   
 11   6  12  1   
 12   6  26  1   
 13   7   9  1   
 14   7  13  2   
 15   8  14  2   
 16   8  15  am  
 17   9  16  1   
 18  10  17  1   
 19  10  27  1   
 20  10  28  1   
 21  11  12  1   
 22  11  29  1   
 23  11  30  1   
 24  12  31  1   
 25  12  32  1   
 26  15  18  1   
 27  15  33  1   
 28  16  19  1   
 29  16  34  1   
 30  16  35  1   
 31  17  19  1   
 32  17  36  1   
 33  17  37  1   
 34  18  20  ar  
 35  18  21  ar  
 36  19  38  1   
 37  19  39  1   
 38  20  22  ar  
 39  21  23  ar  
 40  21  40  1   
 41  22  24  ar  
 42  22  25  1   
 43  23  24  ar  
 44  23  41  1   
 45  24  42  1   
 46  25  43  1   
 47  25  44  1   
 48  25  45  1   
@<TRIPOS>SUBSTRUCTURE
  1 ****   4 GROUP 4 **** **** 0

# MOE 2024.06 (io_trps.svl 2023.06)
