@<TRIPOS>MOLECULE
N-(1-sec-Butyl-6-methyl-1H-pyrazolo[3,4-b]quinolin-3-yl)-acetamide
42 44 1 0 0 
SMALL
USER_CHARGES


@<TRIPOS>ATOM
  1 O       -3.3530     1.8650    -0.4290 O.2   1 <1>  -0.5700 
  2 C       -2.3900     1.4300     0.1490 C.2   1 <1>   0.5690 
  3 N       -2.2110     0.1230     0.4650 N.am  1 <1>  -0.4930 
  4 C       -1.2950     2.3920     0.5360 C.3   1 <1>  -0.1790 
  5 C       -2.9750    -1.0110     0.2200 C.2   1 <1>   0.3520 
  6 N       -2.3610    -2.1380     0.2030 N.2   1 <1>  -0.7070 
  7 C       -4.3760    -1.1280     0.0080 C.ar  1 <1>   0.0000 
  8 N       -3.3310    -3.0690    -0.0560 N.pl3 1 <1>   0.3140 
  9 C       -4.5670    -2.4960    -0.1770 C.ar  1 <1>   0.1050 
 10 C       -5.4830    -0.3080    -0.0320 C.ar  1 <1>  -0.1500 
 11 C       -3.0430    -4.5270    -0.1780 C.3   1 <1>   0.1760 
 12 N       -5.7180    -3.1090    -0.4110 N.ar  1 <1>  -0.5670 
 13 C       -6.7240    -0.8900    -0.2780 C.ar  1 <1>   0.0000 
 14 C       -2.4970    -5.0680     1.1600 C.3   1 <1>  -0.1600 
 15 C       -2.0840    -4.7780    -1.3540 C.3   1 <1>  -0.2400 
 16 C       -6.7900    -2.3000    -0.4630 C.ar  1 <1>   0.3100 
 17 C       -7.9180    -0.1350    -0.3500 C.ar  1 <1>  -0.1500 
 18 C       -2.3690    -6.5990     1.1960 C.3   1 <1>  -0.2400 
 19 C       -8.0550    -2.8710    -0.7110 C.ar  1 <1>  -0.1500 
 20 C       -9.1260    -0.7240    -0.5910 C.ar  1 <1>  -0.1430 
 21 C       -9.1910    -2.1150    -0.7740 C.ar  1 <1>  -0.1500 
 22 C      -10.4090     0.0840    -0.6700 C.3   1 <1>  -0.0970 
 23 H       -1.2970    -0.1390     0.8230 H     1 <1>   0.3700 
 24 H       -1.5900     3.3960     0.2910 H     1 <1>   0.0800 
 25 H       -0.3960     2.1540     0.0000 H     1 <1>   0.0800 
 26 H       -1.1120     2.3330     1.5930 H     1 <1>   0.0800 
 27 H       -5.4050     0.7510     0.1230 H     1 <1>   0.1500 
 28 H       -3.9740    -5.0230    -0.3890 H     1 <1>   0.0800 
 29 H       -3.1670    -4.7690     1.9470 H     1 <1>   0.0800 
 30 H       -1.5350    -4.6270     1.3590 H     1 <1>   0.0800 
 31 H       -1.1200    -4.3470    -1.1500 H     1 <1>   0.0800 
 32 H       -2.4820    -4.3380    -2.2510 H     1 <1>   0.0800 
 33 H       -1.9630    -5.8310    -1.5250 H     1 <1>   0.0800 
 34 H       -7.8420     0.9290    -0.2100 H     1 <1>   0.1500 
 35 H       -3.3120    -7.0620     0.9630 H     1 <1>   0.0800 
 36 H       -2.0690    -6.9150     2.1800 H     1 <1>   0.0800 
 37 H       -1.6280    -6.9410     0.4960 H     1 <1>   0.0800 
 38 H       -8.0920    -3.9350    -0.8490 H     1 <1>   0.1500 
 39 H      -10.1460    -2.5740    -0.9640 H     1 <1>   0.1500 
 40 H      -10.2130     1.1290    -0.5150 H     1 <1>   0.0800 
 41 H      -11.1000    -0.2510     0.0830 H     1 <1>   0.0800 
 42 H      -10.8610    -0.0400    -1.6380 H     1 <1>   0.0800 
@<TRIPOS>BOND
  1   1   2  2   
  2   2   3  am  
  3   2   4  1   
  4   3   5  1   
  5   3  23  1   
  6   4  24  1   
  7   4  25  1   
  8   4  26  1   
  9   5   6  2   
 10   5   7  1   
 11   6   8  1   
 12   7   9  ar  
 13   7  10  ar  
 14   8   9  1   
 15   8  11  1   
 16   9  12  ar  
 17  10  13  ar  
 18  10  27  1   
 19  11  14  1   
 20  11  15  1   
 21  11  28  1   
 22  12  16  ar  
 23  13  16  ar  
 24  13  17  ar  
 25  14  18  1   
 26  14  29  1   
 27  14  30  1   
 28  15  31  1   
 29  15  32  1   
 30  15  33  1   
 31  16  19  ar  
 32  17  20  ar  
 33  17  34  1   
 34  18  35  1   
 35  18  36  1   
 36  18  37  1   
 37  19  21  ar  
 38  19  38  1   
 39  20  21  ar  
 40  20  22  1   
 41  21  39  1   
 42  22  40  1   
 43  22  41  1   
 44  22  42  1   
@<TRIPOS>SUBSTRUCTURE
  1 ****   7 GROUP 4 **** **** 0

# MOE 2024.06 (io_trps.svl 2023.06)
