@<TRIPOS>MOLECULE
4-[3-(4-Methoxy-phenyl)-[1,2,4]oxadiazol-5-yl]-N-propyl-butyramide
43 44 1 0 0 
SMALL
USER_CHARGES


@<TRIPOS>ATOM
  1 O       -1.0570    -1.4050     2.9690 O.2   1 <1>  -0.5700 
  2 C       -1.8180    -2.0500     2.2950 C.2   1 <1>   0.5690 
  3 N       -1.5860    -3.3680     2.0890 N.am  1 <1>  -0.7300 
  4 C       -3.0200    -1.3580     1.6800 C.3   1 <1>  -0.0990 
  5 C       -2.3440    -4.3490     1.2790 C.3   1 <1>   0.1400 
  6 C       -2.7530    -0.9430     0.2190 C.3   1 <1>  -0.1600 
  7 C       -1.4260    -4.9090     0.1940 C.3   1 <1>  -0.1600 
  8 C       -4.0500    -0.6510    -0.5530 C.3   1 <1>   0.0200 
  9 C       -2.1590    -5.9290    -0.6840 C.3   1 <1>  -0.2400 
 10 C       -4.8680    -1.9160    -0.7450 C.2   1 <1>   0.2980 
 11 O       -4.4230    -2.8320    -1.5650 O.3   1 <1>  -0.0190 
 12 N       -5.9530    -2.1940    -0.1520 N.2   1 <1>  -0.5650 
 13 N       -5.2980    -3.7830    -1.4770 N.2   1 <1>  -0.4100 
 14 C       -6.2060    -3.4120    -0.6450 C.2   1 <1>   0.4620 
 15 C       -7.3630    -4.1960    -0.2490 C.ar  1 <1>   0.0540 
 16 C       -8.2940    -3.7180     0.6760 C.ar  1 <1>  -0.1500 
 17 C       -7.5890    -5.4710    -0.7740 C.ar  1 <1>  -0.1500 
 18 C       -9.3880    -4.4730     1.0580 C.ar  1 <1>  -0.1500 
 19 C       -8.6790    -6.2330    -0.3980 C.ar  1 <1>  -0.1500 
 20 C       -9.5910    -5.7350     0.5270 C.ar  1 <1>   0.0820 
 21 O      -10.6840    -6.4120     0.9530 O.3   1 <1>  -0.3620 
 22 C      -10.9910    -7.6980     0.4630 C.3   1 <1>   0.0400 
 23 H       -0.7490    -3.7310     2.5490 H     1 <1>   0.3700 
 24 H       -3.2470    -0.4830     2.2630 H     1 <1>   0.0800 
 25 H       -3.8650    -2.0140     1.7590 H     1 <1>   0.0800 
 26 H       -3.2020    -3.8900     0.8220 H     1 <1>   0.0800 
 27 H       -2.6880    -5.1440     1.9190 H     1 <1>   0.0800 
 28 H       -2.2160    -1.7260    -0.2880 H     1 <1>   0.0800 
 29 H       -2.1240    -0.0690     0.2160 H     1 <1>   0.0800 
 30 H       -0.5770    -5.3860     0.6520 H     1 <1>   0.0800 
 31 H       -1.0730    -4.1030    -0.4260 H     1 <1>   0.0800 
 32 H       -3.8120    -0.2460    -1.5210 H     1 <1>   0.0800 
 33 H       -4.6360     0.0780    -0.0230 H     1 <1>   0.0800 
 34 H       -2.5150    -6.7530    -0.0910 H     1 <1>   0.0800 
 35 H       -1.4930    -6.3120    -1.4370 H     1 <1>   0.0800 
 36 H       -2.9980    -5.4680    -1.1760 H     1 <1>   0.0800 
 37 H       -8.1610    -2.7400     1.1050 H     1 <1>   0.1500 
 38 H       -6.8940    -5.8730    -1.4920 H     1 <1>   0.1500 
 39 H      -10.0930    -4.0880     1.7720 H     1 <1>   0.1500 
 40 H       -8.8040    -7.2060    -0.8320 H     1 <1>   0.1500 
 41 H      -11.8970    -8.0280     0.9370 H     1 <1>   0.0800 
 42 H      -10.1850    -8.3670     0.7090 H     1 <1>   0.0800 
 43 H      -11.1340    -7.6410    -0.6010 H     1 <1>   0.0800 
@<TRIPOS>BOND
  1   1   2  2   
  2   2   3  am  
  3   2   4  1   
  4   3   5  1   
  5   3  23  1   
  6   4   6  1   
  7   4  24  1   
  8   4  25  1   
  9   5   7  1   
 10   5  26  1   
 11   5  27  1   
 12   6   8  1   
 13   6  28  1   
 14   6  29  1   
 15   7   9  1   
 16   7  30  1   
 17   7  31  1   
 18   8  10  1   
 19   8  32  1   
 20   8  33  1   
 21   9  34  1   
 22   9  35  1   
 23   9  36  1   
 24  10  11  1   
 25  10  12  2   
 26  11  13  1   
 27  12  14  1   
 28  13  14  2   
 29  14  15  1   
 30  15  16  ar  
 31  15  17  ar  
 32  16  18  ar  
 33  16  37  1   
 34  17  19  ar  
 35  17  38  1   
 36  18  20  ar  
 37  18  39  1   
 38  19  20  ar  
 39  19  40  1   
 40  20  21  1   
 41  21  22  1   
 42  22  41  1   
 43  22  42  1   
 44  22  43  1   
@<TRIPOS>SUBSTRUCTURE
  1 ****  14 GROUP 4 **** **** 0

# MOE 2024.06 (io_trps.svl 2023.06)
