@<TRIPOS>MOLECULE
3-tert-Butyl-6-(3-fluoro-phenyl)-[1,2,4]triazolo[3,4-b][1,3,4]thiadiazole
32 34 1 0 0 
SMALL
USER_CHARGES


@<TRIPOS>ATOM
  1 S        0.0260    -0.2050    -0.4450 S.3   1 <1>  -0.1970 
  2 C        0.8510     1.3220    -0.2550 C.2   1 <1>   0.2420 
  3 C       -1.5380     0.6450    -0.2750 C.2   1 <1>   0.5050 
  4 N        2.0720     1.7130    -0.2390 N.2   1 <1>  -0.3380 
  5 N       -0.0500     2.2730    -0.0920 N.pl3 1 <1>   0.5050 
  6 N       -1.4000     1.9110    -0.1000 N.2   1 <1>  -0.6520 
  7 C       -2.7660    -0.1240    -0.3450 C.ar  1 <1>   0.0860 
  8 N        1.9910     3.0430    -0.0480 N.2   1 <1>  -0.3380 
  9 C        0.7310     3.3630     0.0370 C.2   1 <1>   0.0060 
 10 C       -3.9950     0.5260    -0.2140 C.ar  1 <1>  -0.1500 
 11 C       -2.8000    -1.5120    -0.5410 C.ar  1 <1>  -0.1500 
 12 C        0.1700     4.7760     0.2550 C.3   1 <1>   0.1800 
 13 C       -5.1710    -0.1910    -0.2780 C.ar  1 <1>   0.1900 
 14 C       -3.9910    -2.2190    -0.6030 C.ar  1 <1>  -0.1500 
 15 C       -0.7250     5.1770    -0.9270 C.3   1 <1>  -0.2400 
 16 C        1.3090     5.8050     0.3640 C.3   1 <1>  -0.2400 
 17 C       -0.6460     4.8260     1.5560 C.3   1 <1>  -0.2400 
 18 F       -6.3040     0.4460    -0.1510 F     1 <1>  -0.1900 
 19 C       -5.1980    -1.5570    -0.4710 C.ar  1 <1>  -0.1500 
 20 H       -4.0380     1.5910    -0.0620 H     1 <1>   0.1500 
 21 H       -1.8850    -2.0680    -0.6490 H     1 <1>   0.1500 
 22 H       -3.9800    -3.2860    -0.7540 H     1 <1>   0.1500 
 23 H       -0.1690     5.1210    -1.8460 H     1 <1>   0.0800 
 24 H       -1.0840     6.1830    -0.8050 H     1 <1>   0.0800 
 25 H       -1.5760     4.5250    -1.0040 H     1 <1>   0.0800 
 26 H        1.9540     5.5610     1.1890 H     1 <1>   0.0800 
 27 H        0.9200     6.7950     0.5170 H     1 <1>   0.0800 
 28 H        1.8990     5.8050    -0.5350 H     1 <1>   0.0800 
 29 H       -0.0340     4.5230     2.3870 H     1 <1>   0.0800 
 30 H       -1.4960     4.1700     1.5020 H     1 <1>   0.0800 
 31 H       -1.0030     5.8230     1.7410 H     1 <1>   0.0800 
 32 H       -6.1360    -2.0810    -0.5150 H     1 <1>   0.1500 
@<TRIPOS>BOND
  1   1   2  1   
  2   1   3  1   
  3   2   4  2   
  4   2   5  1   
  5   3   6  2   
  6   3   7  1   
  7   4   8  1   
  8   5   6  1   
  9   5   9  1   
 10   7  10  ar  
 11   7  11  ar  
 12   8   9  2   
 13   9  12  1   
 14  10  13  ar  
 15  10  20  1   
 16  11  14  ar  
 17  11  21  1   
 18  12  15  1   
 19  12  16  1   
 20  12  17  1   
 21  13  18  1   
 22  13  19  ar  
 23  14  19  ar  
 24  14  22  1   
 25  15  23  1   
 26  15  24  1   
 27  15  25  1   
 28  16  26  1   
 29  16  27  1   
 30  16  28  1   
 31  17  29  1   
 32  17  30  1   
 33  17  31  1   
 34  19  32  1   
@<TRIPOS>SUBSTRUCTURE
  1 ****   6 GROUP 4 **** **** 0

# MOE 2024.06 (io_trps.svl 2023.06)
