@<TRIPOS>MOLECULE
1-(2-Fluoro-phenyl)-5-oxo-pyrrolidine-3-carboxylic acid sec-butylamide
39 40 1 0 0 
SMALL
USER_CHARGES


@<TRIPOS>ATOM
  1 F        0.4820     0.0210    -0.6580 F     1 <1>  -0.1900 
  2 C        0.4030    -1.2790    -0.5120 C.ar  1 <1>   0.1900 
  3 C        1.5180    -2.0050    -0.0760 C.ar  1 <1>   0.1170 
  4 C       -0.8140    -1.8670    -0.7980 C.ar  1 <1>  -0.1500 
  5 N        2.7760    -1.4190     0.2040 N.am  1 <1>  -0.4770 
  6 C        1.3420    -3.3790     0.0710 C.ar  1 <1>  -0.1500 
  7 C       -0.9510    -3.2360    -0.6450 C.ar  1 <1>  -0.1500 
  8 C        3.6340    -1.7240     1.2190 C.2   1 <1>   0.5690 
  9 C        3.3710    -0.3900    -0.6780 C.3   1 <1>   0.1400 
 10 C        0.1280    -3.9870    -0.2090 C.ar  1 <1>  -0.1500 
 11 O        3.4600    -2.5290     2.1000 O.2   1 <1>  -0.5700 
 12 C        4.9050    -0.9270     1.1230 C.3   1 <1>  -0.0990 
 13 C        4.8630    -0.3880    -0.3160 C.3   1 <1>  -0.0190 
 14 C        5.5270     0.9660    -0.5110 C.2   1 <1>   0.5690 
 15 O        5.0350     1.7540    -1.2810 O.2   1 <1>  -0.5700 
 16 N        6.6690     1.2410     0.1690 N.am  1 <1>  -0.7300 
 17 C        7.4390     2.4900     0.0630 C.3   1 <1>   0.2200 
 18 C        8.8780     2.1750    -0.3680 C.3   1 <1>  -0.1600 
 19 C        7.4060     3.1740     1.4260 C.3   1 <1>  -0.2400 
 20 C        8.9590     1.5080    -1.7500 C.3   1 <1>  -0.2400 
 21 H       -1.6380    -1.2630    -1.1300 H     1 <1>   0.1500 
 22 H        2.1650    -3.9820     0.4120 H     1 <1>   0.1500 
 23 H       -1.8910    -3.7140    -0.8610 H     1 <1>   0.1500 
 24 H        2.9260     0.5650    -0.4550 H     1 <1>   0.0800 
 25 H        3.2160    -0.6290    -1.7160 H     1 <1>   0.0800 
 26 H        0.0250    -5.0510    -0.0840 H     1 <1>   0.1500 
 27 H        5.7630    -1.5480     1.3000 H     1 <1>   0.0800 
 28 H        4.8600    -0.1330     1.8460 H     1 <1>   0.0800 
 29 H        5.3550    -1.0900    -0.9650 H     1 <1>   0.0800 
 30 H        7.0790     0.5440     0.7890 H     1 <1>   0.3700 
 31 H        6.9820     3.1390    -0.6690 H     1 <1>   0.0800 
 32 H        9.3500     1.5470     0.3660 H     1 <1>   0.0800 
 33 H        9.4300     3.0980    -0.4060 H     1 <1>   0.0800 
 34 H        7.8590     2.5540     2.1780 H     1 <1>   0.0800 
 35 H        6.3890     3.3880     1.7020 H     1 <1>   0.0800 
 36 H        7.9420     4.1040     1.3790 H     1 <1>   0.0800 
 37 H        8.4810     0.5450    -1.7400 H     1 <1>   0.0800 
 38 H        9.9880     1.3740    -2.0350 H     1 <1>   0.0800 
 39 H        8.4750     2.1230    -2.4900 H     1 <1>   0.0800 
@<TRIPOS>BOND
  1   1   2  1   
  2   2   3  ar  
  3   2   4  ar  
  4   3   5  1   
  5   3   6  ar  
  6   4   7  ar  
  7   4  21  1   
  8   5   8  am  
  9   5   9  1   
 10   6  10  ar  
 11   6  22  1   
 12   7  10  ar  
 13   7  23  1   
 14   8  11  2   
 15   8  12  1   
 16   9  13  1   
 17   9  24  1   
 18   9  25  1   
 19  10  26  1   
 20  12  13  1   
 21  12  27  1   
 22  12  28  1   
 23  13  14  1   
 24  13  29  1   
 25  14  15  2   
 26  14  16  am  
 27  16  17  1   
 28  16  30  1   
 29  17  18  1   
 30  17  19  1   
 31  17  31  1   
 32  18  20  1   
 33  18  32  1   
 34  18  33  1   
 35  19  34  1   
 36  19  35  1   
 37  19  36  1   
 38  20  37  1   
 39  20  38  1   
 40  20  39  1   
@<TRIPOS>SUBSTRUCTURE
  1 ****   9 GROUP 4 **** **** 0

# MOE 2024.06 (io_trps.svl 2023.06)
