@<TRIPOS>MOLECULE
1-(4-Methoxy-3-methyl-benzenesulfonyl)-piperidine-4-carboxylic acid (2,4-dimetho
59 61 1 0 0 
SMALL
USER_CHARGES


@<TRIPOS>ATOM
  1 S        0.2190    -0.8550     2.2300 S.o2  1 <1>   1.4470 
  2 O        0.9560    -2.0670     2.5240 O.2   1 <1>  -0.6500 
  3 O       -0.3770    -0.1140     3.3190 O.2   1 <1>  -0.6500 
  4 N        1.3060     0.1870     1.4480 N.am  1 <1>  -0.8490 
  5 C       -1.0380    -1.1800     0.9630 C.ar  1 <1>  -0.0090 
  6 C        2.0730    -0.5020     0.4050 C.3   1 <1>   0.1960 
  7 C        2.1810     0.8630     2.4080 C.3   1 <1>   0.1960 
  8 C       -1.5540    -0.1500     0.1870 C.ar  1 <1>  -0.1500 
  9 C       -1.5220    -2.4640     0.7420 C.ar  1 <1>  -0.1500 
 10 C        2.9180     0.5040    -0.3780 C.3   1 <1>  -0.1600 
 11 C        3.0450     1.9070     1.6960 C.3   1 <1>  -0.1600 
 12 C       -2.5110    -0.3800    -0.7890 C.ar  1 <1>  -0.1430 
 13 C       -2.4790    -2.7130    -0.2260 C.ar  1 <1>  -0.1500 
 14 C        3.8630     1.2800     0.5560 C.3   1 <1>  -0.0190 
 15 C       -2.9800    -1.6720    -1.0010 C.ar  1 <1>   0.0830 
 16 C       -3.0390     0.7830    -1.6170 C.3   1 <1>  -0.0970 
 17 C        4.6810     2.3390    -0.1850 C.2   1 <1>   0.5690 
 18 O       -3.9170    -1.8550    -1.9670 O.3   1 <1>  -0.3630 
 19 O        4.1300     3.0470    -0.9930 O.2   1 <1>  -0.5700 
 20 N        6.0080     2.4300     0.1240 N.am  1 <1>  -0.5470 
 21 C       -4.4740    -3.1220    -2.2330 C.3   1 <1>   0.0400 
 22 C        7.0550     3.2580    -0.3250 C.ar  1 <1>   0.1170 
 23 C        8.3090     3.1050     0.2780 C.ar  1 <1>   0.0830 
 24 C        6.9070     4.2090    -1.3290 C.ar  1 <1>  -0.1500 
 25 O        8.4160     2.1580     1.2610 O.3   1 <1>  -0.3630 
 26 C        9.3780     3.8960    -0.1270 C.ar  1 <1>  -0.1500 
 27 C        7.9740     4.9940    -1.7300 C.ar  1 <1>  -0.1500 
 28 C        9.6420     1.9390     1.9260 C.3   1 <1>   0.0400 
 29 C        9.2170     4.8390    -1.1270 C.ar  1 <1>   0.0830 
 30 O       10.3160     5.5680    -1.4590 O.3   1 <1>  -0.3620 
 31 C       10.2540     6.5560    -2.4640 C.3   1 <1>   0.0400 
 32 H        1.4010    -0.9950    -0.2770 H     1 <1>   0.0800 
 33 H        2.7110    -1.2500     0.8490 H     1 <1>   0.0800 
 34 H        2.8030     0.1380     2.9080 H     1 <1>   0.0800 
 35 H        1.5850     1.3640     3.1530 H     1 <1>   0.0800 
 36 H       -1.1920     0.8510     0.3550 H     1 <1>   0.1500 
 37 H       -1.1430    -3.2790     1.3350 H     1 <1>   0.1500 
 38 H        2.2580     1.1870    -0.8860 H     1 <1>   0.0800 
 39 H        3.4920    -0.0130    -1.1260 H     1 <1>   0.0800 
 40 H        3.7050     2.3690     2.4080 H     1 <1>   0.0800 
 41 H        2.4030     2.6760     1.3000 H     1 <1>   0.0800 
 42 H       -2.8190    -3.7220    -0.3600 H     1 <1>   0.1500 
 43 H        4.5470     0.5710     0.9870 H     1 <1>   0.0800 
 44 H       -2.5610     1.7060    -1.3440 H     1 <1>   0.0800 
 45 H       -4.0980     0.8860    -1.4630 H     1 <1>   0.0800 
 46 H       -2.8590     0.5980    -2.6610 H     1 <1>   0.0800 
 47 H        6.3420     1.7910     0.8460 H     1 <1>   0.3700 
 48 H       -5.1940    -3.0100    -3.0230 H     1 <1>   0.0800 
 49 H       -4.9600    -3.4830    -1.3440 H     1 <1>   0.0800 
 50 H       -3.6910    -3.7900    -2.5450 H     1 <1>   0.0800 
 51 H        5.9570     4.3460    -1.8100 H     1 <1>   0.1500 
 52 H       10.3520     3.8050     0.3130 H     1 <1>   0.1500 
 53 H        7.8130     5.7150    -2.5080 H     1 <1>   0.1500 
 54 H        9.4960     1.1590     2.6510 H     1 <1>   0.0800 
 55 H        9.9400     2.8470     2.4210 H     1 <1>   0.0800 
 56 H       10.3810     1.6330     1.2060 H     1 <1>   0.0800 
 57 H       11.2280     7.0000    -2.5560 H     1 <1>   0.0800 
 58 H        9.5370     7.3040    -2.1750 H     1 <1>   0.0800 
 59 H        9.9740     6.0920    -3.3940 H     1 <1>   0.0800 
@<TRIPOS>BOND
  1   1   2  2   
  2   1   3  2   
  3   1   4  am  
  4   1   5  1   
  5   4   6  1   
  6   4   7  1   
  7   5   8  ar  
  8   5   9  ar  
  9   6  10  1   
 10   6  32  1   
 11   6  33  1   
 12   7  11  1   
 13   7  34  1   
 14   7  35  1   
 15   8  12  ar  
 16   8  36  1   
 17   9  13  ar  
 18   9  37  1   
 19  10  14  1   
 20  10  38  1   
 21  10  39  1   
 22  11  14  1   
 23  11  40  1   
 24  11  41  1   
 25  12  15  ar  
 26  12  16  1   
 27  13  15  ar  
 28  13  42  1   
 29  14  17  1   
 30  14  43  1   
 31  15  18  1   
 32  16  44  1   
 33  16  45  1   
 34  16  46  1   
 35  17  19  2   
 36  17  20  am  
 37  18  21  1   
 38  20  22  1   
 39  20  47  1   
 40  21  48  1   
 41  21  49  1   
 42  21  50  1   
 43  22  23  ar  
 44  22  24  ar  
 45  23  25  1   
 46  23  26  ar  
 47  24  27  ar  
 48  24  51  1   
 49  25  28  1   
 50  26  29  ar  
 51  26  52  1   
 52  27  29  ar  
 53  27  53  1   
 54  28  54  1   
 55  28  55  1   
 56  28  56  1   
 57  29  30  1   
 58  30  31  1   
 59  31  57  1   
 60  31  58  1   
 61  31  59  1   
@<TRIPOS>SUBSTRUCTURE
  1 ****  10 GROUP 4 **** **** 0

# MOE 2024.06 (io_trps.svl 2023.06)
