@<TRIPOS>MOLECULE
3-[1,2,4]Triazol-1-yl-propylamine
20 20 1 0 0 
SMALL
USER_CHARGES


@<TRIPOS>ATOM
  1 N        1.5720     0.4110    -1.2960 N.2   1 <1>  -0.7070 
  2 N        1.4110     0.7130    -0.0170 N.pl3 1 <1>   0.3140 
  3 C        1.6010    -0.8830    -1.2750 C.2   1 <1>   0.3660 
  4 C        1.3560    -0.4210     0.6880 C.2   1 <1>   0.0360 
  5 C        1.3190     2.1100     0.4580 C.3   1 <1>   0.0960 
  6 N        1.4750    -1.4500    -0.0690 N.2   1 <1>  -0.5650 
  7 C        2.4940     2.9490    -0.0830 C.3   1 <1>  -0.1600 
  8 C        2.3700     4.4200     0.3010 C.3   1 <1>   0.3430 
  9 N        3.4790     5.1760    -0.3280 N.4   1 <1>  -0.8530 
 10 H        1.7200    -1.4900    -2.1590 H     1 <1>   0.1500 
 11 H        1.2270    -0.4530     1.7540 H     1 <1>   0.1500 
 12 H        1.3150     2.1070     1.5330 H     1 <1>   0.0800 
 13 H        0.3820     2.5070     0.1090 H     1 <1>   0.0800 
 14 H        2.5020     2.8710    -1.1580 H     1 <1>   0.0800 
 15 H        3.4140     2.5430     0.3040 H     1 <1>   0.0800 
 16 H        2.4100     4.5250     1.3740 H     1 <1>   0.0800 
 17 H        1.4230     4.8070    -0.0450 H     1 <1>   0.0800 
 18 H        4.3920     4.8290    -0.0100 H     1 <1>   0.4500 
 19 H        3.4260     6.1770    -0.1040 H     1 <1>   0.4500 
 20 H        3.4510     5.0810    -1.3510 H     1 <1>   0.4500 
@<TRIPOS>BOND
  1   1   2  1   
  2   1   3  2   
  3   2   4  1   
  4   2   5  1   
  5   3   6  1   
  6   3  10  1   
  7   4   6  2   
  8   4  11  1   
  9   5   7  1   
 10   5  12  1   
 11   5  13  1   
 12   7   8  1   
 13   7  14  1   
 14   7  15  1   
 15   8   9  1   
 16   8  16  1   
 17   8  17  1   
 18   9  18  1   
 19   9  19  1   
 20   9  20  1   
@<TRIPOS>SUBSTRUCTURE
  1 ****   2 GROUP 4 **** **** 0

# MOE 2024.06 (io_trps.svl 2023.06)
