@<TRIPOS>MOLECULE
8-(4-Methoxy-benzyl)-1,6,7-trimethyl-3-(1-methyl-2-oxo-propyl)-1H,8H-imidazo[2,1
57 60 1 0 0 
SMALL
USER_CHARGES


@<TRIPOS>ATOM
  1 O        1.0620    -0.2930    -0.3050 O.2   1 <1>  -0.5740 
  2 C        1.9810     0.5000    -0.3390 C.2   1 <1>   0.6870 
  3 N        1.7330     1.8600    -0.5230 N.am  1 <1>  -0.4250 
  4 N        3.2830     0.0400    -0.1950 N.am  1 <1>  -0.4410 
  5 C        2.7780     2.7700    -0.6110 C.2   1 <1>   0.7000 
  6 C        0.3500     2.3910    -0.2710 C.3   1 <1>   0.2750 
  7 C        4.3020     0.9670    -0.2000 C.2   1 <1>   0.4210 
  8 C        3.5640    -1.4070     0.0520 C.3   1 <1>   0.0530 
  9 O        2.5650     3.9410    -0.8790 O.2   1 <1>  -0.5740 
 10 C        4.1050     2.2920    -0.3990 C.2   1 <1>   0.2710 
 11 C       -0.1110     1.9950     1.1430 C.2   1 <1>   0.4430 
 12 C       -0.5850     2.0260    -1.4390 C.3   1 <1>  -0.2460 
 13 N        5.6280     0.7360    -0.0160 N.pl3 1 <1>  -0.7030 
 14 N        5.3780     2.8930    -0.3330 N.pl3 1 <1>  -0.6330 
 15 O        0.6230     2.1590     2.0750 O.2   1 <1>  -0.5740 
 16 C       -1.4890     1.3980     1.3510 C.3   1 <1>  -0.1850 
 17 C        6.2460     1.9180    -0.0970 C.cat 1 <1>   1.0690 
 18 C        6.1010     4.0660    -0.3890 C.2   1 <1>   0.2350 
 19 N        7.5030     2.3820     0.0000 N.pl3 1 <1>  -0.5710 
 20 C        7.4050     3.7530    -0.1860 C.2   1 <1>   0.1590 
 21 C        5.4060     5.3900    -0.6410 C.3   1 <1>  -0.1080 
 22 C        8.7460     1.6010     0.2600 C.3   1 <1>   0.3060 
 23 C        8.6320     4.6480    -0.1430 C.3   1 <1>  -0.1080 
 24 C        8.4010     0.1240     0.3230 C.ar  1 <1>  -0.1500 
 25 C        8.3730    -0.6350    -0.8380 C.ar  1 <1>  -0.1560 
 26 C        8.0250    -0.4510     1.5280 C.ar  1 <1>  -0.1560 
 27 C        7.9280    -1.9450    -0.8050 C.ar  1 <1>  -0.1560 
 28 C        7.5750    -1.7580     1.5590 C.ar  1 <1>  -0.1560 
 29 C        7.5090    -2.5070     0.3960 C.ar  1 <1>   0.0760 
 30 O        7.0230    -3.7650     0.5070 O.3   1 <1>  -0.3680 
 31 C        7.1630    -4.7000    -0.5400 C.3   1 <1>   0.0330 
 32 H        0.3820     3.4650    -0.2510 H     1 <1>   0.0730 
 33 H        2.7960    -2.0200    -0.3880 H     1 <1>   0.0730 
 34 H        3.5880    -1.5950     1.1120 H     1 <1>   0.0730 
 35 H        4.5070    -1.6920    -0.3800 H     1 <1>   0.0730 
 36 H       -0.7640     0.9670    -1.4920 H     1 <1>   0.0730 
 37 H       -0.1570     2.3570    -2.3690 H     1 <1>   0.0730 
 38 H       -1.5320     2.5200    -1.3190 H     1 <1>   0.0730 
 39 H        6.1300    -0.1410     0.1680 H     1 <1>   0.4450 
 40 H       -1.5720     0.4690     0.8170 H     1 <1>   0.0730 
 41 H       -2.2470     2.0790     1.0130 H     1 <1>   0.0730 
 42 H       -1.6440     1.2030     2.3970 H     1 <1>   0.0730 
 43 H        4.6770     5.5750     0.1280 H     1 <1>   0.0730 
 44 H        4.9010     5.3650    -1.5910 H     1 <1>   0.0730 
 45 H        6.1080     6.2020    -0.6490 H     1 <1>   0.0730 
 46 H        9.1840     1.9190     1.1910 H     1 <1>   0.0730 
 47 H        9.4570     1.7790    -0.5300 H     1 <1>   0.0730 
 48 H        9.3290     4.3600    -0.9090 H     1 <1>   0.0730 
 49 H        9.1140     4.5720     0.8150 H     1 <1>   0.0730 
 50 H        8.3620     5.6760    -0.3030 H     1 <1>   0.0730 
 51 H        8.6850    -0.2120    -1.7790 H     1 <1>   0.1440 
 52 H        8.0650     0.1110     2.4470 H     1 <1>   0.1440 
 53 H        7.9100    -2.5110    -1.7190 H     1 <1>   0.1440 
 54 H        7.2750    -2.2120     2.4880 H     1 <1>   0.1440 
 55 H        6.8010    -5.6500    -0.1900 H     1 <1>   0.0730 
 56 H        8.2040    -4.7810    -0.8000 H     1 <1>   0.0730 
 57 H        6.5790    -4.3760    -1.3830 H     1 <1>   0.0730 
@<TRIPOS>BOND
  1   1   2  2   
  2   2   3  am  
  3   2   4  am  
  4   3   5  am  
  5   3   6  1   
  6   4   7  1   
  7   4   8  1   
  8   5   9  2   
  9   5  10  1   
 10   6  11  1   
 11   6  12  1   
 12   6  32  1   
 13   7  10  2   
 14   7  13  1   
 15   8  33  1   
 16   8  34  1   
 17   8  35  1   
 18  10  14  1   
 19  11  15  2   
 20  11  16  1   
 21  12  36  1   
 22  12  37  1   
 23  12  38  1   
 24  13  17  ar  
 25  13  39  1   
 26  14  17  ar  
 27  14  18  1   
 28  16  40  1   
 29  16  41  1   
 30  16  42  1   
 31  17  19  ar  
 32  18  20  2   
 33  18  21  1   
 34  19  20  1   
 35  19  22  1   
 36  20  23  1   
 37  21  43  1   
 38  21  44  1   
 39  21  45  1   
 40  22  24  1   
 41  22  46  1   
 42  22  47  1   
 43  23  48  1   
 44  23  49  1   
 45  23  50  1   
 46  24  25  ar  
 47  24  26  ar  
 48  25  27  ar  
 49  25  51  1   
 50  26  28  ar  
 51  26  52  1   
 52  27  29  ar  
 53  27  53  1   
 54  28  29  ar  
 55  28  54  1   
 56  29  30  1   
 57  30  31  1   
 58  31  55  1   
 59  31  56  1   
 60  31  57  1   
@<TRIPOS>SUBSTRUCTURE
  1 ****   7 GROUP 4 **** **** 0

# MOE 2024.06 (io_trps.svl 2023.06)
