@<TRIPOS>MOLECULE
N-(2-Ethyl-2H-tetrazol-5-yl)-2-o-tolyloxy-acetamide
34 35 1 0 0 
SMALL
USER_CHARGES


@<TRIPOS>ATOM
  1 O       -0.6570    -3.8900    -2.3290 O.2   1 <1>  -0.5700 
  2 C       -0.1480    -3.3000    -1.4080 C.2   1 <1>   0.5690 
  3 N       -0.8240    -2.4710    -0.5700 N.am  1 <1>  -0.4930 
  4 C        1.3430    -3.4990    -1.1720 C.3   1 <1>   0.1810 
  5 C       -2.1560    -2.0950    -0.5330 C.2   1 <1>   0.5790 
  6 O        1.7900    -2.7390    -0.0570 O.3   1 <1>  -0.3630 
  7 N       -3.1020    -2.5000    -1.3780 N.2   1 <1>  -0.2270 
  8 N       -2.5600    -1.2910     0.3730 N.2   1 <1>  -0.7070 
  9 C        3.0890    -2.7570     0.3430 C.ar  1 <1>   0.0830 
 10 N       -4.1750    -1.9250    -0.9990 N.2   1 <1>  -0.4180 
 11 N       -3.8390    -1.2000     0.0530 N.pl3 1 <1>   0.5800 
 12 C        3.4330    -1.9780     1.4440 C.ar  1 <1>  -0.1440 
 13 C        4.0670    -3.5140    -0.2990 C.ar  1 <1>  -0.1500 
 14 C       -4.8000    -0.3670     0.8060 C.3   1 <1>   0.0960 
 15 C        4.7460    -1.9640     1.8890 C.ar  1 <1>  -0.1500 
 16 C        2.3860    -1.1400     2.1650 C.3   1 <1>  -0.0970 
 17 C        5.3740    -3.4920     0.1550 C.ar  1 <1>  -0.1500 
 18 C       -4.7660     1.0980     0.3440 C.3   1 <1>  -0.2400 
 19 C        5.7130    -2.7170     1.2490 C.ar  1 <1>  -0.1500 
 20 H       -0.2750    -2.0370     0.1670 H     1 <1>   0.3700 
 21 H        1.8850    -3.1790    -2.0430 H     1 <1>   0.0800 
 22 H        1.5350    -4.5380    -0.9770 H     1 <1>   0.0800 
 23 H        3.8390    -4.1270    -1.1500 H     1 <1>   0.1500 
 24 H       -4.5510    -0.4320     1.8490 H     1 <1>   0.0800 
 25 H       -5.7830    -0.7760     0.6610 H     1 <1>   0.0800 
 26 H        5.0240    -1.3660     2.7390 H     1 <1>   0.1500 
 27 H        1.9530    -0.4310     1.4830 H     1 <1>   0.0800 
 28 H        2.8190    -0.6020     2.9890 H     1 <1>   0.0800 
 29 H        1.6080    -1.7780     2.5450 H     1 <1>   0.0800 
 30 H        6.1290    -4.0770    -0.3420 H     1 <1>   0.1500 
 31 H       -3.7850     1.5140     0.4970 H     1 <1>   0.0800 
 32 H       -5.4740     1.6760     0.9090 H     1 <1>   0.0800 
 33 H       -5.0220     1.1660    -0.6990 H     1 <1>   0.0800 
 34 H        6.7300    -2.7000     1.6020 H     1 <1>   0.1500 
@<TRIPOS>BOND
  1   1   2  2   
  2   2   3  am  
  3   2   4  1   
  4   3   5  1   
  5   3  20  1   
  6   4   6  1   
  7   4  21  1   
  8   4  22  1   
  9   5   7  1   
 10   5   8  2   
 11   6   9  1   
 12   7  10  2   
 13   8  11  1   
 14   9  12  ar  
 15   9  13  ar  
 16  10  11  1   
 17  11  14  1   
 18  12  15  ar  
 19  12  16  1   
 20  13  17  ar  
 21  13  23  1   
 22  14  18  1   
 23  14  24  1   
 24  14  25  1   
 25  15  19  ar  
 26  15  26  1   
 27  16  27  1   
 28  16  28  1   
 29  16  29  1   
 30  17  19  ar  
 31  17  30  1   
 32  18  31  1   
 33  18  32  1   
 34  18  33  1   
 35  19  34  1   
@<TRIPOS>SUBSTRUCTURE
  1 ****   3 GROUP 4 **** **** 0

# MOE 2024.06 (io_trps.svl 2023.06)
