@<TRIPOS>MOLECULE
N-[5-(2-Ethoxy-ethyl)-[1,3,4]thiadiazol-2-yl]-3-phenyl-propionamide
40 41 1 0 0 
SMALL
USER_CHARGES


@<TRIPOS>ATOM
  1 S       -0.4750    -0.2950     0.3190 S.3   1 <1>  -0.0800 
  2 C       -2.1410     0.1350     0.5230 C.2   1 <1>   0.4420 
  3 C       -0.1210     1.3960     0.2450 C.2   1 <1>   0.1980 
  4 N       -2.3160     1.4060     0.5220 N.2   1 <1>  -0.3380 
  5 N       -3.0340    -0.9090     0.6530 N.am  1 <1>  -0.4940 
  6 N       -1.1600     2.1190     0.3630 N.2   1 <1>  -0.3380 
  7 C        1.3270     1.8050     0.0560 C.3   1 <1>   0.0200 
  8 C       -4.3850    -0.8700     0.8430 C.2   1 <1>   0.5690 
  9 C        1.4780     3.3240     0.0150 C.3   1 <1>   0.1200 
 10 O       -5.0230     0.1430     0.9460 O.2   1 <1>  -0.5700 
 11 C       -5.1220    -2.1900     0.9200 C.3   1 <1>  -0.0990 
 12 O        2.8250     3.6190    -0.1600 O.3   1 <1>  -0.5600 
 13 C       -5.8490    -2.4940    -0.3950 C.3   1 <1>  -0.0170 
 14 C        3.0990     4.9790    -0.2130 C.3   1 <1>   0.1200 
 15 C       -6.5220    -3.8540    -0.3190 C.ar  1 <1>  -0.1440 
 16 C        4.6010     5.1370    -0.4060 C.3   1 <1>  -0.2400 
 17 C       -5.9060    -4.9770    -0.8500 C.ar  1 <1>  -0.1500 
 18 C       -7.7610    -3.9810     0.2900 C.ar  1 <1>  -0.1500 
 19 C       -6.5210    -6.2140    -0.7710 C.ar  1 <1>  -0.1500 
 20 C       -8.3770    -5.2180     0.3700 C.ar  1 <1>  -0.1500 
 21 C       -7.7570    -6.3360    -0.1600 C.ar  1 <1>  -0.1500 
 22 H       -2.6180    -1.8330     0.6010 H     1 <1>   0.3700 
 23 H        1.6900     1.3900    -0.8670 H     1 <1>   0.0800 
 24 H        1.9090     1.4150     0.8700 H     1 <1>   0.0800 
 25 H        1.1410     3.7610     0.9400 H     1 <1>   0.0800 
 26 H        0.9190     3.7360    -0.8090 H     1 <1>   0.0800 
 27 H       -5.8410    -2.1310     1.7180 H     1 <1>   0.0800 
 28 H       -4.4390    -2.9860     1.1510 H     1 <1>   0.0800 
 29 H       -5.1510    -2.4780    -1.2140 H     1 <1>   0.0800 
 30 H       -6.5880    -1.7340    -0.5830 H     1 <1>   0.0800 
 31 H        2.7830     5.4350     0.7100 H     1 <1>   0.0800 
 32 H        2.5620     5.4100    -1.0420 H     1 <1>   0.0800 
 33 H        5.1270     4.6910     0.4190 H     1 <1>   0.0800 
 34 H        4.8550     6.1800    -0.4530 H     1 <1>   0.0800 
 35 H        4.9070     4.6660    -1.3230 H     1 <1>   0.0800 
 36 H       -4.9460    -4.8960    -1.3280 H     1 <1>   0.1500 
 37 H       -8.2520    -3.1180     0.7040 H     1 <1>   0.1500 
 38 H       -6.0400    -7.0830    -1.1850 H     1 <1>   0.1500 
 39 H       -9.3390    -5.3110     0.8430 H     1 <1>   0.1500 
 40 H       -8.2360    -7.2970    -0.0990 H     1 <1>   0.1500 
@<TRIPOS>BOND
  1   1   2  1   
  2   1   3  1   
  3   2   4  2   
  4   2   5  1   
  5   3   6  2   
  6   3   7  1   
  7   4   6  1   
  8   5   8  am  
  9   5  22  1   
 10   7   9  1   
 11   7  23  1   
 12   7  24  1   
 13   8  10  2   
 14   8  11  1   
 15   9  12  1   
 16   9  25  1   
 17   9  26  1   
 18  11  13  1   
 19  11  27  1   
 20  11  28  1   
 21  12  14  1   
 22  13  15  1   
 23  13  29  1   
 24  13  30  1   
 25  14  16  1   
 26  14  31  1   
 27  14  32  1   
 28  15  17  ar  
 29  15  18  ar  
 30  16  33  1   
 31  16  34  1   
 32  16  35  1   
 33  17  19  ar  
 34  17  36  1   
 35  18  20  ar  
 36  18  37  1   
 37  19  21  ar  
 38  19  38  1   
 39  20  21  ar  
 40  20  39  1   
 41  21  40  1   
@<TRIPOS>SUBSTRUCTURE
  1 ****   5 GROUP 4 **** **** 0

# MOE 2024.06 (io_trps.svl 2023.06)
