@<TRIPOS>MOLECULE
N-(5-Ethyl-[1,3,4]thiadiazol-2-yl)-2-[4-(2-methoxy-phenyl)-piperazin-1-yl]-aceta
48 50 1 0 0 
SMALL
USER_CHARGES


@<TRIPOS>ATOM
  1 S       -3.0730    -0.8530     1.5220 S.3   1 <1>  -0.0800 
  2 C       -2.9390    -0.5910    -0.1850 C.2   1 <1>   0.4420 
  3 C       -1.6620     0.1290     1.7130 C.2   1 <1>   0.1980 
  4 N       -1.9370     0.1510    -0.4850 N.2   1 <1>  -0.3380 
  5 N       -3.8910    -1.1890    -0.9790 N.am  1 <1>  -0.4940 
  6 N       -1.2120     0.5580     0.6030 N.2   1 <1>  -0.3380 
  7 C       -1.1520     0.3510     3.1280 C.3   1 <1>   0.0200 
  8 C       -4.0830    -1.1540    -2.3270 C.2   1 <1>   0.5690 
  9 C        0.0930     1.2470     3.1840 C.3   1 <1>  -0.2400 
 10 O       -3.4020    -0.5300    -3.1000 O.2   1 <1>  -0.5700 
 11 C       -5.2570    -1.9780    -2.8550 C.3   1 <1>   0.1710 
 12 N       -6.2900    -2.2610    -1.8150 N.3   1 <1>  -0.8100 
 13 C       -7.1500    -3.3990    -2.2240 C.3   1 <1>   0.1100 
 14 C       -7.1450    -1.0660    -1.5800 C.3   1 <1>   0.1100 
 15 C       -8.2540    -3.6990    -1.1910 C.3   1 <1>   0.2090 
 16 C       -8.2490    -1.3300    -0.5380 C.3   1 <1>   0.2090 
 17 N       -9.0900    -2.4900    -0.9450 N.pl3 1 <1>  -0.8380 
 18 C      -10.2440    -2.6980    -0.1770 C.ar  1 <1>   0.1000 
 19 C      -10.2420    -3.0720     1.1810 C.ar  1 <1>   0.0820 
 20 C      -11.4620    -2.5190    -0.8160 C.ar  1 <1>  -0.1500 
 21 O       -9.0370    -3.2500     1.8090 O.3   1 <1>  -0.3620 
 22 C      -11.4520    -3.2490     1.8460 C.ar  1 <1>  -0.1500 
 23 C      -12.6600    -2.6990    -0.1490 C.ar  1 <1>  -0.1500 
 24 C       -8.9620    -3.7240     3.1350 C.3   1 <1>   0.0400 
 25 C      -12.6550    -3.0640     1.1840 C.ar  1 <1>  -0.1500 
 26 H       -4.6190    -1.7320    -0.5080 H     1 <1>   0.3700 
 27 H       -0.9190    -0.6050     3.5630 H     1 <1>   0.0800 
 28 H       -1.9370     0.8000     3.7100 H     1 <1>   0.0800 
 29 H        0.8940     0.8030     2.6190 H     1 <1>   0.0800 
 30 H        0.4160     1.3750     4.2020 H     1 <1>   0.0800 
 31 H       -0.1270     2.2130     2.7650 H     1 <1>   0.0800 
 32 H       -4.8490    -2.9060    -3.2160 H     1 <1>   0.0800 
 33 H       -5.7000    -1.4660    -3.6920 H     1 <1>   0.0800 
 34 H       -6.5450    -4.2800    -2.3430 H     1 <1>   0.0800 
 35 H       -7.6190    -3.1830    -3.1690 H     1 <1>   0.0800 
 36 H       -7.6180    -0.7670    -2.5000 H     1 <1>   0.0800 
 37 H       -6.5400    -0.2450    -1.2380 H     1 <1>   0.0800 
 38 H       -7.8000    -4.0230    -0.2710 H     1 <1>   0.0800 
 39 H       -8.8820    -4.4940    -1.5530 H     1 <1>   0.0800 
 40 H       -8.8730    -0.4580    -0.4430 H     1 <1>   0.0800 
 41 H       -7.7970    -1.5240     0.4190 H     1 <1>   0.0800 
 42 H      -11.4590    -2.2350    -1.8520 H     1 <1>   0.1500 
 43 H      -11.4880    -3.5300     2.8800 H     1 <1>   0.1500 
 44 H      -13.5910    -2.5540    -0.6670 H     1 <1>   0.1500 
 45 H       -7.9240    -3.8240     3.3950 H     1 <1>   0.0800 
 46 H       -9.4470    -4.6830     3.1910 H     1 <1>   0.0800 
 47 H       -9.4350    -3.0120     3.7880 H     1 <1>   0.0800 
 48 H      -13.5850    -3.2040     1.7060 H     1 <1>   0.1500 
@<TRIPOS>BOND
  1   1   2  1   
  2   1   3  1   
  3   2   4  2   
  4   2   5  1   
  5   3   6  2   
  6   3   7  1   
  7   4   6  1   
  8   5   8  am  
  9   5  26  1   
 10   7   9  1   
 11   7  27  1   
 12   7  28  1   
 13   8  10  2   
 14   8  11  1   
 15   9  29  1   
 16   9  30  1   
 17   9  31  1   
 18  11  12  1   
 19  11  32  1   
 20  11  33  1   
 21  12  13  1   
 22  12  14  1   
 23  13  15  1   
 24  13  34  1   
 25  13  35  1   
 26  14  16  1   
 27  14  36  1   
 28  14  37  1   
 29  15  17  1   
 30  15  38  1   
 31  15  39  1   
 32  16  17  1   
 33  16  40  1   
 34  16  41  1   
 35  17  18  1   
 36  18  19  ar  
 37  18  20  ar  
 38  19  21  1   
 39  19  22  ar  
 40  20  23  ar  
 41  20  42  1   
 42  21  24  1   
 43  22  25  ar  
 44  22  43  1   
 45  23  25  ar  
 46  23  44  1   
 47  24  45  1   
 48  24  46  1   
 49  24  47  1   
 50  25  48  1   
@<TRIPOS>SUBSTRUCTURE
  1 ****  14 GROUP 4 **** **** 0

# MOE 2024.06 (io_trps.svl 2023.06)
