@<TRIPOS>MOLECULE
2-Chloro-N-{2-[2-(cyclohexanecarbonyl-amino)-ethyl]-1-methyl-1H-benzoimidazol-5-
58 61 1 0 0 
SMALL
USER_CHARGES


@<TRIPOS>ATOM
  1 CL       2.2820     1.2510    -2.4090 Cl    1 <1>  -0.1770 
  2 C        1.3300     2.0120    -1.1550 C.ar  1 <1>   0.1770 
  3 C        1.7100     1.9530     0.1900 C.ar  1 <1>   0.0860 
  4 C        0.1830     2.6650    -1.5700 C.ar  1 <1>  -0.1500 
  5 C        2.9070     1.2930     0.6770 C.2   1 <1>   0.5440 
  6 C        0.8560     2.5820     1.1020 C.ar  1 <1>  -0.1500 
  7 C       -0.6330     3.2830    -0.6410 C.ar  1 <1>  -0.1500 
  8 O        2.8780     0.7350     1.7560 O.2   1 <1>  -0.5700 
  9 N        4.0810     1.3410    -0.0380 N.am  1 <1>  -0.5470 
 10 C       -0.2930     3.2370     0.6990 C.ar  1 <1>  -0.1500 
 11 C        5.3730     0.8540     0.2360 C.ar  1 <1>   0.1170 
 12 C        6.4520     1.4690    -0.3680 C.ar  1 <1>  -0.1500 
 13 C        5.6040    -0.2460     1.0830 C.ar  1 <1>  -0.1500 
 14 C        7.7420     1.0070    -0.1280 C.ar  1 <1>   0.2270 
 15 C        6.8760    -0.7090     1.3300 C.ar  1 <1>  -0.1500 
 16 N        8.9240     1.4660    -0.6240 N.2   1 <1>  -0.5650 
 17 C        7.9520    -0.0660     0.7150 C.ar  1 <1>  -0.1520 
 18 C        9.8100     0.6980    -0.0920 C.2   1 <1>   0.0060 
 19 N        9.2990    -0.2560     0.7390 N.pl3 1 <1>   0.0480 
 20 C       11.2940     0.8320    -0.3730 C.3   1 <1>   0.0200 
 21 C       10.0190    -1.3060     1.4920 C.3   1 <1>   0.0160 
 22 C       11.7290    -0.2310    -1.3840 C.3   1 <1>   0.1400 
 23 N       13.1840    -0.4900    -1.2660 N.am  1 <1>  -0.7300 
 24 C       13.7280    -1.3220    -0.3400 C.2   1 <1>   0.5690 
 25 O       13.0400    -1.8760     0.4860 O.2   1 <1>  -0.5700 
 26 C       15.2410    -1.5390    -0.3450 C.3   1 <1>  -0.0190 
 27 C       15.5970    -3.0290    -0.5130 C.3   1 <1>  -0.1600 
 28 C       15.8890    -0.9680     0.9310 C.3   1 <1>  -0.1600 
 29 C       17.1170    -3.2500    -0.5050 C.3   1 <1>  -0.1600 
 30 C       17.4090    -1.1900     0.9410 C.3   1 <1>  -0.1600 
 31 C       17.7530    -2.6740     0.7670 C.3   1 <1>  -0.1600 
 32 H       -0.0710     2.6870    -2.6150 H     1 <1>   0.1500 
 33 H        1.1050     2.5520     2.1500 H     1 <1>   0.1500 
 34 H       -1.5280     3.7930    -0.9560 H     1 <1>   0.1500 
 35 H        4.0090     1.8290    -0.9310 H     1 <1>   0.3700 
 36 H       -0.9270     3.7120     1.4300 H     1 <1>   0.1500 
 37 H        6.3320     2.3070    -1.0250 H     1 <1>   0.1500 
 38 H        4.7680    -0.7370     1.5450 H     1 <1>   0.1500 
 39 H        7.0400    -1.5490     1.9810 H     1 <1>   0.1500 
 40 H       11.8360     0.7240     0.5480 H     1 <1>   0.0800 
 41 H       11.4960     1.8090    -0.7710 H     1 <1>   0.0800 
 42 H        9.4040    -1.6630     2.2950 H     1 <1>   0.0800 
 43 H       10.9280    -0.9040     1.8990 H     1 <1>   0.0800 
 44 H       10.2560    -2.1200     0.8320 H     1 <1>   0.0800 
 45 H       11.4850     0.0880    -2.3830 H     1 <1>   0.0800 
 46 H       11.2020    -1.1500    -1.1930 H     1 <1>   0.0800 
 47 H       13.7850    -0.0070    -1.9360 H     1 <1>   0.3700 
 48 H       15.6500    -1.0090    -1.1860 H     1 <1>   0.0800 
 49 H       15.1850    -3.3970    -1.4370 H     1 <1>   0.0800 
 50 H       15.1540    -3.5930     0.2910 H     1 <1>   0.0800 
 51 H       15.4570    -1.4490     1.7930 H     1 <1>   0.0800 
 52 H       15.6790     0.0850     1.0040 H     1 <1>   0.0800 
 53 H       17.5530    -2.7770    -1.3680 H     1 <1>   0.0800 
 54 H       17.3270    -4.3050    -0.5660 H     1 <1>   0.0800 
 55 H       17.8190    -0.8330     1.8700 H     1 <1>   0.0800 
 56 H       17.8590    -0.6240     0.1430 H     1 <1>   0.0800 
 57 H       18.8220    -2.7940     0.7220 H     1 <1>   0.0800 
 58 H       17.3960    -3.2240     1.6220 H     1 <1>   0.0800 
@<TRIPOS>BOND
  1   1   2  1   
  2   2   3  ar  
  3   2   4  ar  
  4   3   5  1   
  5   3   6  ar  
  6   4   7  ar  
  7   4  32  1   
  8   5   8  2   
  9   5   9  am  
 10   6  10  ar  
 11   6  33  1   
 12   7  10  ar  
 13   7  34  1   
 14   9  11  1   
 15   9  35  1   
 16  10  36  1   
 17  11  12  ar  
 18  11  13  ar  
 19  12  14  ar  
 20  12  37  1   
 21  13  15  ar  
 22  13  38  1   
 23  14  16  1   
 24  14  17  ar  
 25  15  17  ar  
 26  15  39  1   
 27  16  18  2   
 28  17  19  1   
 29  18  19  1   
 30  18  20  1   
 31  19  21  1   
 32  20  22  1   
 33  20  40  1   
 34  20  41  1   
 35  21  42  1   
 36  21  43  1   
 37  21  44  1   
 38  22  23  1   
 39  22  45  1   
 40  22  46  1   
 41  23  24  am  
 42  23  47  1   
 43  24  25  2   
 44  24  26  1   
 45  26  27  1   
 46  26  28  1   
 47  26  48  1   
 48  27  29  1   
 49  27  49  1   
 50  27  50  1   
 51  28  30  1   
 52  28  51  1   
 53  28  52  1   
 54  29  31  1   
 55  29  53  1   
 56  29  54  1   
 57  30  31  1   
 58  30  55  1   
 59  30  56  1   
 60  31  57  1   
 61  31  58  1   
@<TRIPOS>SUBSTRUCTURE
  1 ****  17 GROUP 4 **** **** 0

# MOE 2024.06 (io_trps.svl 2023.06)
