@<TRIPOS>MOLECULE
1-[2-(4-Hydroxy-3-methoxy-phenyl)-3-(toluene-4-sulfonyl)-imidazolidin-1-yl]-etha
49 51 1 0 0 
SMALL
USER_CHARGES


@<TRIPOS>ATOM
  1 S        0.1860     0.7030     1.7980 S.o2  1 <1>   1.4470 
  2 O        0.8380     0.3760     3.0470 O.2   1 <1>  -0.6500 
  3 O       -0.4800     1.9820     1.6820 O.2   1 <1>  -0.6500 
  4 N        1.3820     0.7170     0.6140 N.am  1 <1>  -0.8490 
  5 C       -0.9510    -0.6130     1.2810 C.ar  1 <1>  -0.0090 
  6 C        2.3020    -0.3890     0.7770 C.3   1 <1>   0.7190 
  7 C        2.1780     1.9280     0.6020 C.3   1 <1>   0.1960 
  8 C       -1.7680    -0.4510     0.1680 C.ar  1 <1>  -0.1500 
  9 C       -1.0080    -1.8270     1.9540 C.ar  1 <1>  -0.1500 
 10 N        3.5470     0.0930     0.1630 N.am  1 <1>  -0.6600 
 11 C        1.7710    -1.6240     0.0500 C.ar  1 <1>  -0.1430 
 12 C        3.4240     1.5240    -0.1600 C.3   1 <1>   0.1400 
 13 C       -2.5980    -1.4680    -0.2700 C.ar  1 <1>  -0.1500 
 14 C       -1.8300    -2.8510     1.5170 C.ar  1 <1>  -0.1500 
 15 C        4.7110    -0.5750     0.3670 C.2   1 <1>   0.5690 
 16 C        1.7960    -2.8570     0.6880 C.ar  1 <1>  -0.1500 
 17 C        1.2400    -1.5440    -1.2310 C.ar  1 <1>  -0.1500 
 18 C       -2.6270    -2.6780     0.4010 C.ar  1 <1>  -0.1430 
 19 O        4.7720    -1.5570     1.0640 O.2   1 <1>  -0.5700 
 20 C        5.9840    -0.0750    -0.2710 C.3   1 <1>  -0.1790 
 21 C        1.2780    -3.9920     0.0870 C.ar  1 <1>   0.0830 
 22 C        0.7160    -2.6660    -1.8480 C.ar  1 <1>  -0.1500 
 23 C       -3.5080    -3.8180    -0.0760 C.3   1 <1>  -0.0970 
 24 O        1.3520    -5.1340     0.8270 O.3   1 <1>  -0.3620 
 25 C        0.7200    -3.8890    -1.1950 C.ar  1 <1>   0.0830 
 26 C        1.6200    -6.3670     0.2000 C.3   1 <1>   0.0400 
 27 O        0.1540    -4.9330    -1.8370 O.3   1 <1>  -0.5330 
 28 H        2.4980    -0.6090     1.8140 H     1 <1>   0.0800 
 29 H        2.4420     2.2170     1.6070 H     1 <1>   0.0800 
 30 H        1.6530     2.7380     0.1230 H     1 <1>   0.0800 
 31 H       -1.7470     0.4840    -0.3670 H     1 <1>   0.1500 
 32 H       -0.3910    -1.9850     2.8220 H     1 <1>   0.1500 
 33 H        4.2810     2.0900     0.1610 H     1 <1>   0.0800 
 34 H        3.2720     1.6460    -1.2190 H     1 <1>   0.0800 
 35 H       -3.2150    -1.3130    -1.1380 H     1 <1>   0.1500 
 36 H       -1.8370    -3.7880     2.0470 H     1 <1>   0.1500 
 37 H        2.2240    -2.9510     1.6710 H     1 <1>   0.1500 
 38 H        1.2250    -0.5980    -1.7440 H     1 <1>   0.1500 
 39 H        6.3810     0.7400     0.3030 H     1 <1>   0.0800 
 40 H        5.7920     0.2470    -1.2780 H     1 <1>   0.0800 
 41 H        6.7080    -0.8680    -0.2960 H     1 <1>   0.0800 
 42 H        0.3010    -2.5760    -2.8340 H     1 <1>   0.1500 
 43 H       -4.1670    -4.1270     0.7160 H     1 <1>   0.0800 
 44 H       -2.8930    -4.6530    -0.3630 H     1 <1>   0.0800 
 45 H       -4.1020    -3.5200    -0.9210 H     1 <1>   0.0800 
 46 H        2.0080    -7.0420     0.9410 H     1 <1>   0.0800 
 47 H        2.3480    -6.2150    -0.5780 H     1 <1>   0.0800 
 48 H        0.7040    -6.7580    -0.2050 H     1 <1>   0.0800 
 49 H       -0.2310    -4.6780    -2.6920 H     1 <1>   0.4500 
@<TRIPOS>BOND
  1   1   2  2   
  2   1   3  2   
  3   1   4  am  
  4   1   5  1   
  5   4   6  1   
  6   4   7  1   
  7   5   8  ar  
  8   5   9  ar  
  9   6  10  1   
 10   6  11  1   
 11   6  28  1   
 12   7  12  1   
 13   7  29  1   
 14   7  30  1   
 15   8  13  ar  
 16   8  31  1   
 17   9  14  ar  
 18   9  32  1   
 19  10  12  1   
 20  10  15  am  
 21  11  16  ar  
 22  11  17  ar  
 23  12  33  1   
 24  12  34  1   
 25  13  18  ar  
 26  13  35  1   
 27  14  18  ar  
 28  14  36  1   
 29  15  19  2   
 30  15  20  1   
 31  16  21  ar  
 32  16  37  1   
 33  17  22  ar  
 34  17  38  1   
 35  18  23  1   
 36  20  39  1   
 37  20  40  1   
 38  20  41  1   
 39  21  24  1   
 40  21  25  ar  
 41  22  25  ar  
 42  22  42  1   
 43  23  43  1   
 44  23  44  1   
 45  23  45  1   
 46  24  26  1   
 47  25  27  1   
 48  26  46  1   
 49  26  47  1   
 50  26  48  1   
 51  27  49  1   
@<TRIPOS>SUBSTRUCTURE
  1 ****  11 GROUP 4 **** **** 0

# MOE 2024.06 (io_trps.svl 2023.06)
