@<TRIPOS>MOLECULE
2-Morpholin-4-yl-pyrimidine-5-carbaldehyde
25 26 1 0 0 
SMALL
USER_CHARGES


@<TRIPOS>ATOM
  1 O       -0.4200    -0.3050    -0.5450 O.2   1 <1>  -0.5700 
  2 C       -1.1070    -1.2920    -0.4750 C.2   1 <1>   0.4240 
  3 C       -2.5160    -1.2870    -0.2380 C.ar  1 <1>   0.0860 
  4 C       -3.2370    -0.1190    -0.0590 C.ar  1 <1>   0.1600 
  5 C       -3.2660    -2.4470    -0.1690 C.ar  1 <1>   0.1600 
  6 N       -4.5280    -0.0980     0.1590 N.ar  1 <1>  -0.6200 
  7 N       -4.5560    -2.4600     0.0460 N.ar  1 <1>  -0.6200 
  8 C       -5.1520    -1.2760     0.2060 C.ar  1 <1>   0.7200 
  9 N       -6.5040    -1.2710     0.4370 N.pl3 1 <1>  -0.8380 
 10 C       -7.3000    -0.0250     0.6730 C.3   1 <1>   0.2090 
 11 C       -7.3360    -2.5120     0.5310 C.3   1 <1>   0.2090 
 12 C       -8.5910    -0.0330    -0.1640 C.3   1 <1>   0.1200 
 13 C       -8.6260    -2.3720    -0.2970 C.3   1 <1>   0.1200 
 14 O       -9.3250    -1.2080     0.0480 O.3   1 <1>  -0.5600 
 15 H       -0.6300    -2.2480    -0.5990 H     1 <1>   0.0600 
 16 H       -2.7150     0.8230    -0.0990 H     1 <1>   0.1500 
 17 H       -2.7770    -3.3980    -0.2990 H     1 <1>   0.1500 
 18 H       -6.7370     0.8560     0.4230 H     1 <1>   0.0800 
 19 H       -7.5560     0.0350     1.7160 H     1 <1>   0.0800 
 20 H       -7.5960    -2.6830     1.5610 H     1 <1>   0.0800 
 21 H       -6.7980    -3.3750     0.1810 H     1 <1>   0.0800 
 22 H       -8.3560     0.0430    -1.2110 H     1 <1>   0.0800 
 23 H       -9.2150     0.7980     0.1120 H     1 <1>   0.0800 
 24 H       -9.2740    -3.2100    -0.1170 H     1 <1>   0.0800 
 25 H       -8.3910    -2.3340    -1.3470 H     1 <1>   0.0800 
@<TRIPOS>BOND
  1   1   2  2   
  2   2   3  1   
  3   2  15  1   
  4   3   4  ar  
  5   3   5  ar  
  6   4   6  ar  
  7   4  16  1   
  8   5   7  ar  
  9   5  17  1   
 10   6   8  ar  
 11   7   8  ar  
 12   8   9  1   
 13   9  10  1   
 14   9  11  1   
 15  10  12  1   
 16  10  18  1   
 17  10  19  1   
 18  11  13  1   
 19  11  20  1   
 20  11  21  1   
 21  12  14  1   
 22  12  22  1   
 23  12  23  1   
 24  13  14  1   
 25  13  24  1   
 26  13  25  1   
@<TRIPOS>SUBSTRUCTURE
  1 ****   8 GROUP 4 **** **** 0

# MOE 2024.06 (io_trps.svl 2023.06)
