@<TRIPOS>MOLECULE
N-{1-[3-(4-Chloro-phenyl)-[1,2,4]oxadiazol-5-yl]-ethyl}-butyramide
36 37 1 0 0 
SMALL
USER_CHARGES


@<TRIPOS>ATOM
  1 CL       2.0130    -1.2160     0.0160 Cl    1 <1>  -0.1770 
  2 C        2.9020     0.2810    -0.0830 C.ar  1 <1>   0.1770 
  3 C        2.3770     1.4240     0.4880 C.ar  1 <1>  -0.1500 
  4 C        4.1220     0.3080    -0.7300 C.ar  1 <1>  -0.1500 
  5 C        3.0880     2.6090     0.4070 C.ar  1 <1>  -0.1500 
  6 C        4.8230     1.4990    -0.8040 C.ar  1 <1>  -0.1500 
  7 C        4.3260     2.6780    -0.2400 C.ar  1 <1>   0.0540 
  8 C        5.0740     3.9230    -0.3250 C.2   1 <1>   0.4620 
  9 N        6.2110     4.0770    -0.9050 N.2   1 <1>  -0.4100 
 10 N        4.6350     5.0680     0.2080 N.2   1 <1>  -0.5650 
 11 O        6.5660     5.3140    -0.7680 O.3   1 <1>  -0.0190 
 12 C        5.5850     5.8580    -0.0950 C.2   1 <1>   0.2980 
 13 C        5.7000     7.3510     0.2330 C.3   1 <1>   0.4000 
 14 N        6.6870     7.5770     1.3080 N.am  1 <1>  -0.7300 
 15 C        4.3770     7.9680     0.6920 C.3   1 <1>  -0.2400 
 16 C        7.9790     7.9570     1.2160 C.2   1 <1>   0.5690 
 17 O        8.6250     8.0690     2.2260 O.2   1 <1>  -0.5700 
 18 C        8.6120     8.2420    -0.1420 C.3   1 <1>  -0.0990 
 19 C       10.1250     8.5190    -0.0890 C.3   1 <1>  -0.1600 
 20 C       10.6970     8.7800    -1.4860 C.3   1 <1>  -0.2400 
 21 H        1.4260     1.3820     0.9880 H     1 <1>   0.1500 
 22 H        4.5130    -0.5930    -1.1670 H     1 <1>   0.1500 
 23 H        2.6740     3.4970     0.8540 H     1 <1>   0.1500 
 24 H        5.7740     1.5140    -1.3100 H     1 <1>   0.1500 
 25 H        6.0150     7.8620    -0.6590 H     1 <1>   0.0800 
 26 H        6.3660     7.3430     2.2490 H     1 <1>   0.3700 
 27 H        4.0240     7.4830     1.5850 H     1 <1>   0.0800 
 28 H        3.6350     7.8460    -0.0750 H     1 <1>   0.0800 
 29 H        4.5020     9.0190     0.8810 H     1 <1>   0.0800 
 30 H        8.1170     9.0930    -0.5700 H     1 <1>   0.0800 
 31 H        8.4440     7.3930    -0.7790 H     1 <1>   0.0800 
 32 H       10.6280     7.6740     0.3520 H     1 <1>   0.0800 
 33 H       10.3100     9.3750     0.5390 H     1 <1>   0.0800 
 34 H       10.5450     7.9250    -2.1210 H     1 <1>   0.0800 
 35 H       11.7540     8.9700    -1.4180 H     1 <1>   0.0800 
 36 H       10.2250     9.6360    -1.9340 H     1 <1>   0.0800 
@<TRIPOS>BOND
  1   1   2  1   
  2   2   3  ar  
  3   2   4  ar  
  4   3   5  ar  
  5   3  21  1   
  6   4   6  ar  
  7   4  22  1   
  8   5   7  ar  
  9   5  23  1   
 10   6   7  ar  
 11   6  24  1   
 12   7   8  1   
 13   8   9  2   
 14   8  10  1   
 15   9  11  1   
 16  10  12  2   
 17  11  12  1   
 18  12  13  1   
 19  13  14  1   
 20  13  15  1   
 21  13  25  1   
 22  14  16  am  
 23  14  26  1   
 24  15  27  1   
 25  15  28  1   
 26  15  29  1   
 27  16  17  2   
 28  16  18  1   
 29  18  19  1   
 30  18  30  1   
 31  18  31  1   
 32  19  20  1   
 33  19  32  1   
 34  19  33  1   
 35  20  34  1   
 36  20  35  1   
 37  20  36  1   
@<TRIPOS>SUBSTRUCTURE
  1 ****  12 GROUP 4 **** **** 0

# MOE 2024.06 (io_trps.svl 2023.06)
