@<TRIPOS>MOLECULE
2-(5-Diethylcarbamoylmethyl-1,3-dimethyl-2,4,6-trioxo-hexahydro-pyrimidin-5-yl)-
57 57 1 0 0 
SMALL
USER_CHARGES


@<TRIPOS>ATOM
  1 O        1.7520    -0.0380    -2.2430 O.2   1 <1>  -0.5700 
  2 C        2.5930    -0.0190    -1.3660 C.2   1 <1>   0.6900 
  3 N        2.2680    -0.4110    -0.0900 N.am  1 <1>  -0.4200 
  4 N        3.8610     0.4380    -1.6390 N.am  1 <1>  -0.4200 
  5 C        3.1580    -0.3480     0.9550 C.2   1 <1>   0.5690 
  6 C        0.9020    -0.9660     0.1560 C.3   1 <1>   0.0600 
  7 C        4.8530     0.5000    -0.6890 C.2   1 <1>   0.5690 
  8 C        4.1610     0.8880    -3.0360 C.3   1 <1>   0.0600 
  9 O        2.7800    -0.5050     2.0930 O.2   1 <1>  -0.5700 
 10 C        4.6510    -0.0670     0.7240 C.3   1 <1>   0.1220 
 11 O        5.9210     0.9900    -0.9650 O.2   1 <1>  -0.5700 
 12 C        5.4240    -1.4070     0.8540 C.3   1 <1>  -0.0990 
 13 C        5.1050     0.9440     1.8270 C.3   1 <1>  -0.0990 
 14 C        5.0720    -2.3840    -0.2560 C.2   1 <1>   0.5690 
 15 C        6.5600     1.3950     1.8170 C.2   1 <1>   0.5690 
 16 O        4.0060    -2.9430    -0.1560 O.2   1 <1>  -0.5700 
 17 N        5.8940    -2.5970    -1.3350 N.am  1 <1>  -0.6600 
 18 O        7.3710     0.5880     2.2080 O.2   1 <1>  -0.5700 
 19 N        6.9320     2.6670     1.4490 N.am  1 <1>  -0.6600 
 20 C        7.2500    -2.0050    -1.5210 C.3   1 <1>   0.1400 
 21 C        5.4730    -3.5230    -2.4200 C.3   1 <1>   0.1400 
 22 C        8.3700     3.0530     1.4960 C.3   1 <1>   0.1400 
 23 C        6.0350     3.6570     0.7900 C.3   1 <1>   0.1400 
 24 C        8.2950    -2.9210    -0.8900 C.3   1 <1>  -0.2400 
 25 C        4.7470    -2.7340    -3.5060 C.3   1 <1>  -0.2400 
 26 C        8.7460     3.5060     2.9050 C.3   1 <1>  -0.2400 
 27 C        5.4660     4.6230     1.8250 C.3   1 <1>  -0.2400 
 28 H        0.2040    -0.1590     0.2880 H     1 <1>   0.0800 
 29 H        0.8950    -1.5880     1.0340 H     1 <1>   0.0800 
 30 H        0.5920    -1.5700    -0.6790 H     1 <1>   0.0800 
 31 H        3.6470     0.2660    -3.7490 H     1 <1>   0.0800 
 32 H        5.2150     0.8250    -3.2450 H     1 <1>   0.0800 
 33 H        3.8360     1.9060    -3.1630 H     1 <1>   0.0800 
 34 H        5.1780    -1.8700     1.7940 H     1 <1>   0.0800 
 35 H        6.4800    -1.2430     0.8660 H     1 <1>   0.0800 
 36 H        4.9560     0.4880     2.7900 H     1 <1>   0.0800 
 37 H        4.4570     1.7980     1.8110 H     1 <1>   0.0800 
 38 H        7.3110    -1.0280    -1.0790 H     1 <1>   0.0800 
 39 H        7.4530    -1.8900    -2.5730 H     1 <1>   0.0800 
 40 H        4.8170    -4.2810    -2.0240 H     1 <1>   0.0800 
 41 H        6.3340    -4.0190    -2.8340 H     1 <1>   0.0800 
 42 H        8.5710     3.8400     0.7910 H     1 <1>   0.0800 
 43 H        8.9750     2.2050     1.2190 H     1 <1>   0.0800 
 44 H        5.2320     3.1540     0.2830 H     1 <1>   0.0800 
 45 H        6.5810     4.2030     0.0400 H     1 <1>   0.0800 
 46 H        8.1110    -3.0290     0.1640 H     1 <1>   0.0800 
 47 H        9.2730    -2.4950    -1.0210 H     1 <1>   0.0800 
 48 H        8.2790    -3.8910    -1.3540 H     1 <1>   0.0800 
 49 H        3.8570    -2.2870    -3.1000 H     1 <1>   0.0800 
 50 H        4.4580    -3.3970    -4.3010 H     1 <1>   0.0800 
 51 H        5.3840    -1.9690    -3.9110 H     1 <1>   0.0800 
 52 H        8.1770     4.3690     3.1950 H     1 <1>   0.0800 
 53 H        9.7890     3.7590     2.9360 H     1 <1>   0.0800 
 54 H        8.5700     2.7100     3.6070 H     1 <1>   0.0800 
 55 H        4.9700     4.0860     2.6130 H     1 <1>   0.0800 
 56 H        4.7530     5.2770     1.3550 H     1 <1>   0.0800 
 57 H        6.2480     5.2270     2.2440 H     1 <1>   0.0800 
@<TRIPOS>BOND
  1   1   2  2   
  2   2   3  am  
  3   2   4  am  
  4   3   5  am  
  5   3   6  1   
  6   4   7  am  
  7   4   8  1   
  8   5   9  2   
  9   5  10  1   
 10   6  28  1   
 11   6  29  1   
 12   6  30  1   
 13   7  10  1   
 14   7  11  2   
 15   8  31  1   
 16   8  32  1   
 17   8  33  1   
 18  10  12  1   
 19  10  13  1   
 20  12  14  1   
 21  12  34  1   
 22  12  35  1   
 23  13  15  1   
 24  13  36  1   
 25  13  37  1   
 26  14  16  2   
 27  14  17  am  
 28  15  18  2   
 29  15  19  am  
 30  17  20  1   
 31  17  21  1   
 32  19  22  1   
 33  19  23  1   
 34  20  24  1   
 35  20  38  1   
 36  20  39  1   
 37  21  25  1   
 38  21  40  1   
 39  21  41  1   
 40  22  26  1   
 41  22  42  1   
 42  22  43  1   
 43  23  27  1   
 44  23  44  1   
 45  23  45  1   
 46  24  46  1   
 47  24  47  1   
 48  24  48  1   
 49  25  49  1   
 50  25  50  1   
 51  25  51  1   
 52  26  52  1   
 53  26  53  1   
 54  26  54  1   
 55  27  55  1   
 56  27  56  1   
 57  27  57  1   
@<TRIPOS>SUBSTRUCTURE
  1 ****   7 GROUP 4 **** **** 0

# MOE 2024.06 (io_trps.svl 2023.06)
