@<TRIPOS>MOLECULE
3-(2-Ethoxy-ethyl)-8-(2-methoxy-phenyl)-1,6-dimethyl-5,6,7,8-tetrahydro-1H-1,3,4
58 61 1 0 0 
SMALL
USER_CHARGES


@<TRIPOS>ATOM
  1 O        1.1650     0.0690     0.0700 O.2   1 <1>  -0.5740 
  2 C        2.0730     0.8380    -0.1690 C.2   1 <1>   0.6870 
  3 N        1.8060     2.1820    -0.4070 N.am  1 <1>  -0.4250 
  4 N        3.3820     0.3740    -0.1850 N.am  1 <1>  -0.4410 
  5 C        2.8330     3.1000    -0.5800 C.2   1 <1>   0.7000 
  6 C        0.3830     2.6430    -0.4700 C.3   1 <1>   0.1340 
  7 C        4.3940     1.2930    -0.3760 C.2   1 <1>   0.4210 
  8 C        3.6880    -1.0710     0.0320 C.3   1 <1>   0.0530 
  9 O        2.5990     4.2880    -0.7250 O.2   1 <1>  -0.5740 
 10 C        4.1770     2.6120    -0.5680 C.2   1 <1>   0.2720 
 11 C       -0.1490     2.9520     0.9290 C.3   1 <1>   0.1140 
 12 N        5.7360     1.0700    -0.3870 N.pl3 1 <1>  -0.7030 
 13 N        5.4440     3.2000    -0.6990 N.pl3 1 <1>  -0.7670 
 14 O       -1.4440     3.4370     0.7960 O.3   1 <1>  -0.5640 
 15 C        6.3490     2.2360    -0.5690 C.cat 1 <1>   1.0690 
 16 C        5.7540     4.6320    -0.8920 C.3   1 <1>   0.3490 
 17 C       -2.0670     3.7190     2.0030 C.3   1 <1>   0.1140 
 18 N        7.6760     2.4570    -0.6270 N.pl3 1 <1>  -0.5790 
 19 C        7.1890     4.7730    -1.4310 C.3   1 <1>  -0.0870 
 20 C       -3.4640     4.2390     1.6880 C.3   1 <1>  -0.2460 
 21 C        8.6390     1.4340    -0.5040 C.ar  1 <1>   0.3060 
 22 C        8.1690     3.8640    -0.6650 C.3   1 <1>   0.1610 
 23 C        7.6540     6.2360    -1.3730 C.3   1 <1>  -0.2460 
 24 C        8.7060     0.6080     0.6300 C.ar  1 <1>   0.0760 
 25 C        9.5420     1.2290    -1.5390 C.ar  1 <1>  -0.1560 
 26 O        7.8020     0.8140     1.6320 O.3   1 <1>  -0.3680 
 27 C        9.6700    -0.3920     0.7010 C.ar  1 <1>  -0.1560 
 28 C       10.4970     0.2320    -1.4610 C.ar  1 <1>  -0.1560 
 29 C        8.0490     0.3290     2.9380 C.3   1 <1>   0.0330 
 30 C       10.5610    -0.5760    -0.3410 C.ar  1 <1>  -0.1560 
 31 H       -0.2270     1.8770    -0.9170 H     1 <1>   0.0730 
 32 H        0.3060     3.5270    -1.0800 H     1 <1>   0.0730 
 33 H        3.9570    -1.2350     1.0610 H     1 <1>   0.0730 
 34 H        4.4970    -1.3820    -0.6060 H     1 <1>   0.0730 
 35 H        2.8290    -1.6800    -0.1990 H     1 <1>   0.0730 
 36 H        0.4480     3.7110     1.4040 H     1 <1>   0.0730 
 37 H       -0.1780     2.0570     1.5270 H     1 <1>   0.0730 
 38 H        6.2430     0.2190    -0.1520 H     1 <1>   0.4450 
 39 H        5.6590     5.1410     0.0530 H     1 <1>   0.0730 
 40 H        5.0560     5.0710    -1.5860 H     1 <1>   0.0730 
 41 H       -1.4940     4.4660     2.5260 H     1 <1>   0.0730 
 42 H       -2.1220     2.8160     2.5870 H     1 <1>   0.0730 
 43 H        7.1910     4.4750    -2.4660 H     1 <1>   0.0730 
 44 H       -3.3990     5.1320     1.0920 H     1 <1>   0.0730 
 45 H       -3.9810     4.4710     2.6010 H     1 <1>   0.0730 
 46 H       -4.0240     3.4920     1.1550 H     1 <1>   0.0730 
 47 H        9.1360     3.9030    -1.1390 H     1 <1>   0.0730 
 48 H        8.2830     4.2160     0.3470 H     1 <1>   0.0730 
 49 H        7.6810     6.5950    -0.3580 H     1 <1>   0.0730 
 50 H        6.9890     6.8660    -1.9400 H     1 <1>   0.0730 
 51 H        8.6410     6.3330    -1.7940 H     1 <1>   0.0730 
 52 H        9.5010     1.8480    -2.4170 H     1 <1>   0.1440 
 53 H        9.7480    -1.0420     1.5540 H     1 <1>   0.1440 
 54 H       11.1940     0.0830    -2.2700 H     1 <1>   0.1440 
 55 H        7.3040     0.7390     3.5970 H     1 <1>   0.0730 
 56 H        9.0270     0.6470     3.2540 H     1 <1>   0.0730 
 57 H        7.9790    -0.7450     2.9360 H     1 <1>   0.0730 
 58 H       11.3070    -1.3520    -0.2820 H     1 <1>   0.1440 
@<TRIPOS>BOND
  1   1   2  2   
  2   2   3  am  
  3   2   4  am  
  4   3   5  am  
  5   3   6  1   
  6   4   7  1   
  7   4   8  1   
  8   5   9  2   
  9   5  10  1   
 10   6  11  1   
 11   6  31  1   
 12   6  32  1   
 13   7  10  2   
 14   7  12  1   
 15   8  33  1   
 16   8  34  1   
 17   8  35  1   
 18  10  13  1   
 19  11  14  1   
 20  11  36  1   
 21  11  37  1   
 22  12  15  ar  
 23  12  38  1   
 24  13  15  ar  
 25  13  16  1   
 26  14  17  1   
 27  15  18  ar  
 28  16  19  1   
 29  16  39  1   
 30  16  40  1   
 31  17  20  1   
 32  17  41  1   
 33  17  42  1   
 34  18  21  1   
 35  18  22  1   
 36  19  22  1   
 37  19  23  1   
 38  19  43  1   
 39  20  44  1   
 40  20  45  1   
 41  20  46  1   
 42  21  24  ar  
 43  21  25  ar  
 44  22  47  1   
 45  22  48  1   
 46  23  49  1   
 47  23  50  1   
 48  23  51  1   
 49  24  26  1   
 50  24  27  ar  
 51  25  28  ar  
 52  25  52  1   
 53  26  29  1   
 54  27  30  ar  
 55  27  53  1   
 56  28  30  ar  
 57  28  54  1   
 58  29  55  1   
 59  29  56  1   
 60  29  57  1   
 61  30  58  1   
@<TRIPOS>SUBSTRUCTURE
  1 ****   7 GROUP 4 **** **** 0

# MOE 2024.06 (io_trps.svl 2023.06)
