@<TRIPOS>MOLECULE
2-[5-(5-Chloro-benzofuran-2-yl)-4-methyl-4H-[1,2,4]triazol-3-ylsulfanyl]-N-cyclo
48 51 1 0 0 
SMALL
USER_CHARGES


@<TRIPOS>ATOM
  1 CL      -2.6180    -1.0180     2.4610 Cl    1 <1>  -0.1770 
  2 C       -1.8120    -2.3120     1.6090 C.ar  1 <1>   0.1770 
  3 C       -1.3410    -3.3960     2.3170 C.ar  1 <1>  -0.1500 
  4 C       -1.6680    -2.2100     0.2240 C.ar  1 <1>  -0.1500 
  5 C       -0.7010    -4.4170     1.6130 C.ar  1 <1>   0.0000 
  6 C       -1.0350    -3.2200    -0.4740 C.ar  1 <1>  -0.1500 
  7 C       -0.5600    -4.3140     0.2400 C.ar  1 <1>   0.1400 
  8 C       -0.1020    -5.6440     1.9390 C.2   1 <1>  -0.1500 
  9 O        0.0730    -5.3850    -0.2400 O.3   1 <1>  -0.2800 
 10 C        0.3540    -6.1980     0.7880 C.2   1 <1>   0.1400 
 11 C        1.0330    -7.4530     0.5840 C.2   1 <1>   0.1870 
 12 N        1.2810    -8.3070     1.5430 N.2   1 <1>  -0.3380 
 13 N        1.4900    -7.9300    -0.5960 N.pl3 1 <1>   0.0480 
 14 N        1.8940    -9.3600     1.0110 N.2   1 <1>  -0.3380 
 15 C        1.9920    -9.1110    -0.2460 C.2   1 <1>   0.2430 
 16 C        1.4260    -7.3240    -1.9450 C.3   1 <1>   0.0160 
 17 S        2.7090   -10.2490    -1.4380 S.3   1 <1>  -0.2860 
 18 C        2.8130   -11.8760    -0.5410 C.3   1 <1>   0.1310 
 19 C        1.8410   -12.8760    -1.1550 C.2   1 <1>   0.5690 
 20 O        2.2850   -13.7510    -1.8550 O.2   1 <1>  -0.5700 
 21 N        0.5040   -12.8260    -0.9350 N.am  1 <1>  -0.7300 
 22 C       -0.2720   -11.8930    -0.1010 C.3   1 <1>   0.2200 
 23 C       -1.2330   -12.6920     0.7840 C.3   1 <1>  -0.1600 
 24 C       -1.0360   -10.9230    -1.0070 C.3   1 <1>  -0.1600 
 25 C       -2.1130   -11.7500     1.6210 C.3   1 <1>  -0.1600 
 26 C       -1.9100    -9.9720    -0.1760 C.3   1 <1>  -0.1600 
 27 C       -2.8700   -10.7560     0.7290 C.3   1 <1>  -0.1600 
 28 H       -1.4610    -3.4580     3.3830 H     1 <1>   0.1500 
 29 H       -2.0530    -1.3420    -0.2820 H     1 <1>   0.1500 
 30 H       -0.9040    -3.1780    -1.5400 H     1 <1>   0.1500 
 31 H       -0.0300    -6.0500     2.9320 H     1 <1>   0.1500 
 32 H        1.8960    -6.3580    -1.9230 H     1 <1>   0.0800 
 33 H        0.3970    -7.2140    -2.2360 H     1 <1>   0.0800 
 34 H        1.9320    -7.9440    -2.6620 H     1 <1>   0.0800 
 35 H        2.6050   -11.7200     0.4990 H     1 <1>   0.0800 
 36 H        3.8210   -12.2270    -0.6560 H     1 <1>   0.0800 
 37 H       -0.0470   -13.5310    -1.4250 H     1 <1>   0.3700 
 38 H        0.3870   -11.3380     0.5390 H     1 <1>   0.0800 
 39 H       -0.6690   -13.3280     1.4420 H     1 <1>   0.0800 
 40 H       -1.8650   -13.3080     0.1680 H     1 <1>   0.0800 
 41 H       -1.6640   -11.4800    -1.6810 H     1 <1>   0.0800 
 42 H       -0.3400   -10.3490    -1.5900 H     1 <1>   0.0800 
 43 H       -1.4910   -11.2030     2.3100 H     1 <1>   0.0800 
 44 H       -2.8150   -12.3270     2.1970 H     1 <1>   0.0800 
 45 H       -2.4730    -9.3300    -0.8310 H     1 <1>   0.0800 
 46 H       -1.2790    -9.3500     0.4350 H     1 <1>   0.0800 
 47 H       -3.4240   -10.0690     1.3460 H     1 <1>   0.0800 
 48 H       -3.5770   -11.2920     0.1190 H     1 <1>   0.0800 
@<TRIPOS>BOND
  1   1   2  1   
  2   2   3  ar  
  3   2   4  ar  
  4   3   5  ar  
  5   3  28  1   
  6   4   6  ar  
  7   4  29  1   
  8   5   7  ar  
  9   5   8  1   
 10   6   7  ar  
 11   6  30  1   
 12   7   9  1   
 13   8  10  2   
 14   8  31  1   
 15   9  10  1   
 16  10  11  1   
 17  11  12  2   
 18  11  13  1   
 19  12  14  1   
 20  13  15  1   
 21  13  16  1   
 22  14  15  2   
 23  15  17  1   
 24  16  32  1   
 25  16  33  1   
 26  16  34  1   
 27  17  18  1   
 28  18  19  1   
 29  18  35  1   
 30  18  36  1   
 31  19  20  2   
 32  19  21  am  
 33  21  22  1   
 34  21  37  1   
 35  22  23  1   
 36  22  24  1   
 37  22  38  1   
 38  23  25  1   
 39  23  39  1   
 40  23  40  1   
 41  24  26  1   
 42  24  41  1   
 43  24  42  1   
 44  25  27  1   
 45  25  43  1   
 46  25  44  1   
 47  26  27  1   
 48  26  45  1   
 49  26  46  1   
 50  27  47  1   
 51  27  48  1   
@<TRIPOS>SUBSTRUCTURE
  1 ****  11 GROUP 4 **** **** 0

# MOE 2024.06 (io_trps.svl 2023.06)
