@<TRIPOS>MOLECULE
1-(4-Ethoxy-3-methyl-benzenesulfonyl)-piperidine-4-carboxylic acid (2-methoxy-et
54 55 1 0 0 
SMALL
USER_CHARGES


@<TRIPOS>ATOM
  1 S        0.0180     0.3550     2.0930 S.o2  1 <1>   1.4470 
  2 O        0.3720    -0.4790     3.2210 O.2   1 <1>  -0.6500 
  3 O       -0.4430     1.7070     2.3320 O.2   1 <1>  -0.6500 
  4 N        1.4000     0.4880     1.1170 N.am  1 <1>  -0.8490 
  5 C       -1.1520    -0.5370     1.0320 C.ar  1 <1>  -0.0090 
  6 C        2.5790     0.8490     1.9070 C.3   1 <1>   0.1960 
  7 C        1.1930     1.4160     0.0000 C.3   1 <1>   0.1960 
  8 C       -2.4250    -0.0390     0.7810 C.ar  1 <1>  -0.1500 
  9 C       -0.8000    -1.7420     0.4390 C.ar  1 <1>  -0.1500 
 10 C        3.8360     0.8200     1.0340 C.3   1 <1>  -0.1600 
 11 C        2.4010     1.3910    -0.9390 C.3   1 <1>  -0.1600 
 12 C       -3.3220    -0.7080    -0.0370 C.ar  1 <1>  -0.1430 
 13 C       -1.6800    -2.4270    -0.3800 C.ar  1 <1>  -0.1500 
 14 C        3.6960     1.7420    -0.1890 C.3   1 <1>  -0.0190 
 15 C       -2.9500    -1.9130    -0.6250 C.ar  1 <1>   0.0830 
 16 C       -4.7050    -0.1220    -0.2820 C.3   1 <1>  -0.0970 
 17 C        4.9180     1.6590    -1.1030 C.2   1 <1>   0.5690 
 18 O       -3.8590    -2.5340    -1.4210 O.3   1 <1>  -0.3630 
 19 O        5.1810     0.6190    -1.6560 O.2   1 <1>  -0.5700 
 20 N        5.6860     2.7680    -1.2690 N.am  1 <1>  -0.7300 
 21 C       -3.5860    -3.7690    -2.0400 C.3   1 <1>   0.1200 
 22 C        6.8540     2.8520    -2.1860 C.3   1 <1>   0.1400 
 23 C       -4.8190    -4.1770    -2.8410 C.3   1 <1>  -0.2400 
 24 C        8.0710     2.1500    -1.5830 C.3   1 <1>   0.1200 
 25 O        9.1860     2.4590    -2.3590 O.3   1 <1>  -0.5600 
 26 C       10.3450     1.8000    -1.9630 C.3   1 <1>   0.0400 
 27 H        2.7060     0.1440     2.7130 H     1 <1>   0.0800 
 28 H        2.4440     1.8290     2.3380 H     1 <1>   0.0800 
 29 H        1.0410     2.4160     0.3740 H     1 <1>   0.0800 
 30 H        0.3160     1.1280    -0.5560 H     1 <1>   0.0800 
 31 H       -2.7150     0.8930     1.2380 H     1 <1>   0.1500 
 32 H        0.1820    -2.1470     0.6230 H     1 <1>   0.1500 
 33 H        4.0060    -0.1930     0.7080 H     1 <1>   0.0800 
 34 H        4.6860     1.1200     1.6200 H     1 <1>   0.0800 
 35 H        2.2450     2.0910    -1.7410 H     1 <1>   0.0800 
 36 H        2.4830     0.4090    -1.3730 H     1 <1>   0.0800 
 37 H       -1.3580    -3.3540    -0.8150 H     1 <1>   0.1500 
 38 H        3.6100     2.7530     0.1660 H     1 <1>   0.0800 
 39 H       -4.8360     0.8070     0.2410 H     1 <1>   0.0800 
 40 H       -5.4570    -0.8140     0.0530 H     1 <1>   0.0800 
 41 H       -4.8440     0.0520    -1.3340 H     1 <1>   0.0800 
 42 H        5.4530     3.6300    -0.7760 H     1 <1>   0.3700 
 43 H       -3.3730    -4.4950    -1.2730 H     1 <1>   0.0800 
 44 H       -2.7350    -3.6460    -2.6870 H     1 <1>   0.0800 
 45 H        7.0880     3.8870    -2.3650 H     1 <1>   0.0800 
 46 H        6.6060     2.3830    -3.1230 H     1 <1>   0.0800 
 47 H       -5.6660    -4.2820    -2.1880 H     1 <1>   0.0800 
 48 H       -4.6420    -5.1200    -3.3270 H     1 <1>   0.0800 
 49 H       -5.0330    -3.4380    -3.5920 H     1 <1>   0.0800 
 50 H        7.9210     1.0830    -1.5920 H     1 <1>   0.0800 
 51 H        8.2490     2.4970    -0.5810 H     1 <1>   0.0800 
 52 H       11.1440     2.1070    -2.6140 H     1 <1>   0.0800 
 53 H       10.1960     0.7370    -2.0480 H     1 <1>   0.0800 
 54 H       10.5800     2.0700    -0.9480 H     1 <1>   0.0800 
@<TRIPOS>BOND
  1   1   2  2   
  2   1   3  2   
  3   1   4  am  
  4   1   5  1   
  5   4   6  1   
  6   4   7  1   
  7   5   8  ar  
  8   5   9  ar  
  9   6  10  1   
 10   6  27  1   
 11   6  28  1   
 12   7  11  1   
 13   7  29  1   
 14   7  30  1   
 15   8  12  ar  
 16   8  31  1   
 17   9  13  ar  
 18   9  32  1   
 19  10  14  1   
 20  10  33  1   
 21  10  34  1   
 22  11  14  1   
 23  11  35  1   
 24  11  36  1   
 25  12  15  ar  
 26  12  16  1   
 27  13  15  ar  
 28  13  37  1   
 29  14  17  1   
 30  14  38  1   
 31  15  18  1   
 32  16  39  1   
 33  16  40  1   
 34  16  41  1   
 35  17  19  2   
 36  17  20  am  
 37  18  21  1   
 38  20  22  1   
 39  20  42  1   
 40  21  23  1   
 41  21  43  1   
 42  21  44  1   
 43  22  24  1   
 44  22  45  1   
 45  22  46  1   
 46  23  47  1   
 47  23  48  1   
 48  23  49  1   
 49  24  25  1   
 50  24  50  1   
 51  24  51  1   
 52  25  26  1   
 53  26  52  1   
 54  26  53  1   
 55  26  54  1   
@<TRIPOS>SUBSTRUCTURE
  1 ****   7 GROUP 4 **** **** 0

# MOE 2024.06 (io_trps.svl 2023.06)
