@<TRIPOS>MOLECULE
N-{1-[3-(4-tert-Butyl-phenyl)-[1,2,4]oxadiazol-5-yl]-ethyl}-3,4-dimethoxy-benzam
57 59 1 0 0 
SMALL
USER_CHARGES


@<TRIPOS>ATOM
  1 O       -4.2800    -0.0330    -3.3450 O.2   1 <1>  -0.5700 
  2 C       -4.8150     0.3290    -2.3200 C.2   1 <1>   0.5440 
  3 N       -6.0410    -0.1990    -2.0720 N.am  1 <1>  -0.7300 
  4 C       -4.1530     1.2490    -1.4160 C.ar  1 <1>   0.0860 
  5 C       -6.6440    -0.4340    -0.7420 C.3   1 <1>   0.4000 
  6 C       -4.8290     2.3180    -0.8330 C.ar  1 <1>  -0.1500 
  7 C       -2.8060     1.0960    -1.0980 C.ar  1 <1>  -0.1500 
  8 C       -6.5370    -1.9150    -0.3600 C.2   1 <1>   0.2980 
  9 C       -8.0870     0.0700    -0.7960 C.3   1 <1>  -0.2400 
 10 C       -4.2140     3.1870     0.0490 C.ar  1 <1>   0.0830 
 11 C       -2.1700     1.9500    -0.2160 C.ar  1 <1>  -0.1500 
 12 O       -5.3710    -2.3500     0.0380 O.3   1 <1>  -0.0190 
 13 N       -7.4610    -2.7900    -0.3840 N.2   1 <1>  -0.5650 
 14 O       -5.0200     4.1730     0.5320 O.3   1 <1>  -0.3630 
 15 C       -2.8620     3.0020     0.3810 C.ar  1 <1>   0.0830 
 16 N       -5.5680    -3.6040     0.2920 N.2   1 <1>  -0.4100 
 17 C       -6.8010    -3.8720     0.0420 C.2   1 <1>   0.4620 
 18 C       -4.5090     5.4580     0.8120 C.3   1 <1>   0.0400 
 19 O       -2.2600     3.8270     1.2810 O.3   1 <1>  -0.3630 
 20 C       -7.4350    -5.1710     0.1930 C.ar  1 <1>   0.0540 
 21 C       -0.9290     3.6440     1.7110 C.3   1 <1>   0.0400 
 22 C       -6.7180    -6.2820     0.6320 C.ar  1 <1>  -0.1500 
 23 C       -8.7840    -5.3730    -0.0920 C.ar  1 <1>  -0.1500 
 24 C       -7.3150    -7.5210     0.7790 C.ar  1 <1>  -0.1500 
 25 C       -9.3840    -6.6100     0.0530 C.ar  1 <1>  -0.1500 
 26 C       -8.6620    -7.7150     0.4930 C.ar  1 <1>  -0.1430 
 27 C       -9.2850    -9.1170     0.6730 C.3   1 <1>   0.1430 
 28 C       -9.1430    -9.5580     2.1370 C.3   1 <1>  -0.2400 
 29 C       -8.5600   -10.1210    -0.2350 C.3   1 <1>  -0.2400 
 30 C      -10.7800    -9.1640     0.3160 C.3   1 <1>  -0.2400 
 31 H       -6.3780    -0.8340    -2.7980 H     1 <1>   0.3700 
 32 H       -6.1150     0.1300     0.0050 H     1 <1>   0.0800 
 33 H       -5.8620     2.4830    -1.0790 H     1 <1>   0.1500 
 34 H       -2.2560     0.2900    -1.5540 H     1 <1>   0.1500 
 35 H       -8.6480    -0.4740    -1.5350 H     1 <1>   0.0800 
 36 H       -8.1070     1.1180    -1.0320 H     1 <1>   0.0800 
 37 H       -8.5560    -0.0740     0.1600 H     1 <1>   0.0800 
 38 H       -1.1310     1.7750    -0.0090 H     1 <1>   0.1500 
 39 H       -5.3280     6.1540     0.8090 H     1 <1>   0.0800 
 40 H       -3.7940     5.7270     0.0540 H     1 <1>   0.0800 
 41 H       -4.0480     5.4450     1.7830 H     1 <1>   0.0800 
 42 H       -0.7070     4.4020     2.4400 H     1 <1>   0.0800 
 43 H       -0.2710     3.7480     0.8660 H     1 <1>   0.0800 
 44 H       -0.8360     2.6700     2.1580 H     1 <1>   0.0800 
 45 H       -5.6720    -6.1770     0.8640 H     1 <1>   0.1500 
 46 H       -9.3790    -4.5440    -0.4360 H     1 <1>   0.1500 
 47 H       -6.7110    -8.3400     1.1220 H     1 <1>   0.1500 
 48 H      -10.4280    -6.6850    -0.1860 H     1 <1>   0.1500 
 49 H       -9.6040   -10.5170     2.2920 H     1 <1>   0.0800 
 50 H       -8.1100    -9.6350     2.4210 H     1 <1>   0.0800 
 51 H       -9.6180    -8.8410     2.7840 H     1 <1>   0.0800 
 52 H       -7.5210   -10.2030     0.0270 H     1 <1>   0.0800 
 53 H       -8.6240    -9.8010    -1.2600 H     1 <1>   0.0800 
 54 H       -9.0020   -11.0970    -0.1530 H     1 <1>   0.0800 
 55 H      -11.1710   -10.1560     0.4560 H     1 <1>   0.0800 
 56 H      -11.3400    -8.4950     0.9450 H     1 <1>   0.0800 
 57 H      -10.9320    -8.8890    -0.7120 H     1 <1>   0.0800 
@<TRIPOS>BOND
  1   1   2  2   
  2   2   3  am  
  3   2   4  1   
  4   3   5  1   
  5   3  31  1   
  6   4   6  ar  
  7   4   7  ar  
  8   5   8  1   
  9   5   9  1   
 10   5  32  1   
 11   6  10  ar  
 12   6  33  1   
 13   7  11  ar  
 14   7  34  1   
 15   8  12  1   
 16   8  13  2   
 17   9  35  1   
 18   9  36  1   
 19   9  37  1   
 20  10  14  1   
 21  10  15  ar  
 22  11  15  ar  
 23  11  38  1   
 24  12  16  1   
 25  13  17  1   
 26  14  18  1   
 27  15  19  1   
 28  16  17  2   
 29  17  20  1   
 30  18  39  1   
 31  18  40  1   
 32  18  41  1   
 33  19  21  1   
 34  20  22  ar  
 35  20  23  ar  
 36  21  42  1   
 37  21  43  1   
 38  21  44  1   
 39  22  24  ar  
 40  22  45  1   
 41  23  25  ar  
 42  23  46  1   
 43  24  26  ar  
 44  24  47  1   
 45  25  26  ar  
 46  25  48  1   
 47  26  27  1   
 48  27  28  1   
 49  27  29  1   
 50  27  30  1   
 51  28  49  1   
 52  28  50  1   
 53  28  51  1   
 54  29  52  1   
 55  29  53  1   
 56  29  54  1   
 57  30  55  1   
 58  30  56  1   
 59  30  57  1   
@<TRIPOS>SUBSTRUCTURE
  1 ****   8 GROUP 4 **** **** 0

# MOE 2024.06 (io_trps.svl 2023.06)
