@<TRIPOS>MOLECULE
8-Cyclohexylamino-7-[2-(4-methoxy-phenyl)-ethyl]-3-methyl-3,7-dihydro-purine-2,6
57 60 1 0 0 
SMALL
USER_CHARGES


@<TRIPOS>ATOM
  1 O        1.2170     0.9030    -2.5720 O.2   1 <1>  -0.5740 
  2 C        2.2120     1.3270    -2.0350 C.2   1 <1>   0.6870 
  3 N        3.2530     0.4970    -1.6410 N.am  1 <1>  -0.4410 
  4 N        2.3090     2.6700    -1.8130 N.am  1 <1>  -0.4940 
  5 C        4.3560     1.0880    -1.0420 C.2   1 <1>   0.4210 
  6 C        3.1880    -0.9780    -1.8610 C.3   1 <1>   0.0530 
  7 C        3.3850     3.2680    -1.2230 C.2   1 <1>   0.7000 
  8 N        5.4860     0.4810    -0.5880 N.pl3 1 <1>  -0.7030 
  9 C        4.4660     2.4180    -0.8170 C.2   1 <1>   0.2710 
 10 O        3.3850     4.4730    -1.0710 O.2   1 <1>  -0.5740 
 11 C        6.2870     1.4170    -0.0860 C.cat 1 <1>   1.0690 
 12 N        5.7150     2.6150    -0.1990 N.pl3 1 <1>  -0.7670 
 13 N        7.4830     1.1950     0.4430 N.pl3 1 <1>  -0.7170 
 14 C        6.2190     3.9480     0.2300 C.3   1 <1>   0.3490 
 15 C        8.1900    -0.0860     0.5930 C.3   1 <1>   0.2420 
 16 C        6.8640     4.6810    -0.9470 C.3   1 <1>  -0.0240 
 17 C        8.4190    -0.3650     2.0880 C.3   1 <1>  -0.1660 
 18 C        9.5100    -0.0160    -0.1770 C.3   1 <1>  -0.1660 
 19 C        7.5350     5.9360    -0.4280 C.ar  1 <1>  -0.1500 
 20 C        9.6650    -1.2300     2.3590 C.3   1 <1>  -0.1660 
 21 C       10.2630    -1.3580    -0.1100 C.3   1 <1>  -0.1660 
 22 C        6.7790     7.0720    -0.1820 C.ar  1 <1>  -0.1560 
 23 C        8.8990     5.9570    -0.1810 C.ar  1 <1>  -0.1560 
 24 C        9.9830    -2.1540     1.1780 C.3   1 <1>  -0.1660 
 25 C        7.3750     8.2160     0.3180 C.ar  1 <1>  -0.1560 
 26 C        9.4960     7.1000     0.3190 C.ar  1 <1>  -0.1560 
 27 C        8.7430     8.2330     0.5750 C.ar  1 <1>   0.0760 
 28 O        9.4050     9.3080     1.0690 O.3   1 <1>  -0.3680 
 29 C        8.7360    10.5210     1.3320 C.3   1 <1>   0.0330 
 30 H        1.5270     3.2510    -2.1130 H     1 <1>   0.3650 
 31 H        2.2210    -1.2680    -2.2370 H     1 <1>   0.0730 
 32 H        3.3570    -1.4970    -0.9340 H     1 <1>   0.0730 
 33 H        3.9330    -1.2730    -2.5800 H     1 <1>   0.0730 
 34 H        5.7020    -0.5110    -0.6180 H     1 <1>   0.4450 
 35 H        8.0160     1.9870     0.7940 H     1 <1>   0.4450 
 36 H        6.9430     3.8310     1.0180 H     1 <1>   0.0730 
 37 H        5.4070     4.5390     0.6210 H     1 <1>   0.0730 
 38 H        7.6060    -0.8910     0.1780 H     1 <1>   0.0730 
 39 H        6.1160     4.9490    -1.6720 H     1 <1>   0.0730 
 40 H        7.5960     4.0540    -1.4240 H     1 <1>   0.0730 
 41 H        8.5310     0.5530     2.6390 H     1 <1>   0.0730 
 42 H        7.5550    -0.8780     2.4730 H     1 <1>   0.0730 
 43 H       10.1340     0.7460     0.2590 H     1 <1>   0.0730 
 44 H        9.3380     0.2360    -1.2090 H     1 <1>   0.0730 
 45 H        9.5170    -1.8120     3.2530 H     1 <1>   0.0730 
 46 H       10.5150    -0.5900     2.5290 H     1 <1>   0.0730 
 47 H        9.9980    -1.9710    -0.9550 H     1 <1>   0.0730 
 48 H       11.3200    -1.1610    -0.1820 H     1 <1>   0.0730 
 49 H        5.7200     7.0780    -0.3780 H     1 <1>   0.1440 
 50 H        9.5120     5.0950    -0.3750 H     1 <1>   0.1440 
 51 H        9.1490    -2.8170     1.0190 H     1 <1>   0.0730 
 52 H       10.8370    -2.7670     1.4130 H     1 <1>   0.0730 
 53 H        6.7640     9.0790     0.4990 H     1 <1>   0.1440 
 54 H       10.5530     7.1240     0.5140 H     1 <1>   0.1440 
 55 H        9.4580    11.2270     1.7010 H     1 <1>   0.0730 
 56 H        7.9800    10.3480     2.0770 H     1 <1>   0.0730 
 57 H        8.3020    10.8840     0.4180 H     1 <1>   0.0730 
@<TRIPOS>BOND
  1   1   2  2   
  2   2   3  am  
  3   2   4  am  
  4   3   5  1   
  5   3   6  1   
  6   4   7  am  
  7   4  30  1   
  8   5   8  1   
  9   5   9  2   
 10   6  31  1   
 11   6  32  1   
 12   6  33  1   
 13   7   9  1   
 14   7  10  2   
 15   8  11  ar  
 16   8  34  1   
 17   9  12  1   
 18  11  12  ar  
 19  11  13  ar  
 20  12  14  1   
 21  13  15  1   
 22  13  35  1   
 23  14  16  1   
 24  14  36  1   
 25  14  37  1   
 26  15  17  1   
 27  15  18  1   
 28  15  38  1   
 29  16  19  1   
 30  16  39  1   
 31  16  40  1   
 32  17  20  1   
 33  17  41  1   
 34  17  42  1   
 35  18  21  1   
 36  18  43  1   
 37  18  44  1   
 38  19  22  ar  
 39  19  23  ar  
 40  20  24  1   
 41  20  45  1   
 42  20  46  1   
 43  21  24  1   
 44  21  47  1   
 45  21  48  1   
 46  22  25  ar  
 47  22  49  1   
 48  23  26  ar  
 49  23  50  1   
 50  24  51  1   
 51  24  52  1   
 52  25  27  ar  
 53  25  53  1   
 54  26  27  ar  
 55  26  54  1   
 56  27  28  1   
 57  28  29  1   
 58  29  55  1   
 59  29  56  1   
 60  29  57  1   
@<TRIPOS>SUBSTRUCTURE
  1 ****  12 GROUP 4 **** **** 0

# MOE 2024.06 (io_trps.svl 2023.06)
