@<TRIPOS>MOLECULE
3-Pyrrolidin-1-ylmethyl-piperidine
34 35 1 0 0 
SMALL
USER_CHARGES


@<TRIPOS>ATOM
  1 N       -0.0850     0.4040    -0.1690 N.4   1 <1>  -0.9590 
  2 C        1.1020    -0.3610    -0.6390 C.3   1 <1>   0.3430 
  3 C        0.3780     1.1260     1.0480 C.3   1 <1>   0.3430 
  4 C       -1.2880    -0.4620     0.0200 C.3   1 <1>   0.3430 
  5 C        2.2820     0.5580    -0.3600 C.3   1 <1>  -0.1600 
  6 C        1.8120     1.5240     0.7310 C.3   1 <1>  -0.1600 
  7 C       -2.5690     0.3550     0.3010 C.3   1 <1>  -0.0800 
  8 C       -3.7660    -0.6030     0.4740 C.3   1 <1>   0.3430 
  9 C       -2.8620     1.3820    -0.8150 C.3   1 <1>  -0.1600 
 10 N       -5.0350     0.1540     0.6950 N.4   1 <1>  -0.9060 
 11 C       -4.2070     2.0880    -0.5830 C.3   1 <1>  -0.1600 
 12 C       -5.3610     1.0990    -0.4080 C.3   1 <1>   0.3430 
 13 H       -0.2690     1.1140    -0.8910 H     1 <1>   0.4500 
 14 H        1.0330    -0.6100    -1.6870 H     1 <1>   0.0800 
 15 H        1.2100    -1.2660    -0.0620 H     1 <1>   0.0800 
 16 H        0.3740     0.4580     1.8960 H     1 <1>   0.0800 
 17 H       -0.2330     1.9880     1.2640 H     1 <1>   0.0800 
 18 H       -1.1080    -1.1470     0.8340 H     1 <1>   0.0800 
 19 H       -1.4380    -1.0470    -0.8740 H     1 <1>   0.0800 
 20 H        2.5470     1.0980    -1.2530 H     1 <1>   0.0800 
 21 H        3.1380    -0.0150    -0.0440 H     1 <1>   0.0800 
 22 H        2.4250     1.4600     1.6130 H     1 <1>   0.0800 
 23 H        1.8400     2.5390     0.3710 H     1 <1>   0.0800 
 24 H       -2.4360     0.8740     1.2340 H     1 <1>   0.0800 
 25 H       -3.5880    -1.2620     1.3110 H     1 <1>   0.0800 
 26 H       -3.8680    -1.2110    -0.4120 H     1 <1>   0.0800 
 27 H       -2.8890     0.8880    -1.7730 H     1 <1>   0.0800 
 28 H       -2.0890     2.1320    -0.8550 H     1 <1>   0.0800 
 29 H       -4.9840     0.6850     1.5750 H     1 <1>   0.4500 
 30 H       -5.8200    -0.5040     0.8090 H     1 <1>   0.4500 
 31 H       -4.4240     2.7250    -1.4240 H     1 <1>   0.0800 
 32 H       -4.1490     2.7240     0.2850 H     1 <1>   0.0800 
 33 H       -6.2710     1.6350    -0.1840 H     1 <1>   0.0800 
 34 H       -5.5100     0.5530    -1.3270 H     1 <1>   0.0800 
@<TRIPOS>BOND
  1   1   2  1   
  2   1   3  1   
  3   1   4  1   
  4   1  13  1   
  5   2   5  1   
  6   2  14  1   
  7   2  15  1   
  8   3   6  1   
  9   3  16  1   
 10   3  17  1   
 11   4   7  1   
 12   4  18  1   
 13   4  19  1   
 14   5   6  1   
 15   5  20  1   
 16   5  21  1   
 17   6  22  1   
 18   6  23  1   
 19   7   8  1   
 20   7   9  1   
 21   7  24  1   
 22   8  10  1   
 23   8  25  1   
 24   8  26  1   
 25   9  11  1   
 26   9  27  1   
 27   9  28  1   
 28  10  12  1   
 29  10  29  1   
 30  10  30  1   
 31  11  12  1   
 32  11  31  1   
 33  11  32  1   
 34  12  33  1   
 35  12  34  1   
@<TRIPOS>SUBSTRUCTURE
  1 ****   7 GROUP 4 **** **** 0

# MOE 2024.06 (io_trps.svl 2023.06)
