@<TRIPOS>MOLECULE
N,N-Dimethyl-N'-(4-morpholin-4-yl-2,3-dihydro-1H-6-thia-5,8,10-triaza-cyclopenta
55 59 1 0 0 
SMALL
USER_CHARGES


@<TRIPOS>ATOM
  1 S        0.1280    -0.2960     0.5360 S.3   1 <1>  -0.0800 
  2 C       -1.4700     0.4320     0.3380 C.ar  1 <1>   0.2970 
  3 C        0.9370     1.2740     0.3330 C.ar  1 <1>   0.0400 
  4 N       -2.5570    -0.3160     0.3830 N.ar  1 <1>  -0.5670 
  5 C       -1.3510     1.8040     0.1410 C.ar  1 <1>   0.0000 
  6 C        2.2890     1.5770     0.3490 C.ar  1 <1>   0.4100 
  7 C        0.0120     2.2690     0.1450 C.ar  1 <1>   0.2560 
  8 C       -3.6840     0.3750     0.2170 C.ar  1 <1>   0.4100 
  9 C       -2.5470     2.4880    -0.0260 C.ar  1 <1>  -0.1430 
 10 N        2.6820     2.8200     0.2000 N.ar  1 <1>  -0.6200 
 11 N        3.3200     0.6900     0.5130 N.pl3 1 <1>  -0.8690 
 12 N        0.4090     3.5290    -0.0130 N.ar  1 <1>  -0.5660 
 13 N       -4.8640    -0.3320     0.2400 N.pl3 1 <1>  -0.8380 
 14 C       -3.7010     1.7620     0.0150 C.ar  1 <1>  -0.1430 
 15 C       -2.8030     3.9570    -0.2470 C.3   1 <1>  -0.0170 
 16 C        1.7160     3.7180     0.0300 C.ar  1 <1>   0.4700 
 17 C        3.3730    -0.6280    -0.1620 C.3   1 <1>   0.2090 
 18 C       -5.0580    -1.3310     1.3300 C.3   1 <1>   0.2090 
 19 C       -5.3540    -0.8480    -1.0680 C.3   1 <1>   0.2090 
 20 C       -4.9060     2.6550    -0.1640 C.3   1 <1>  -0.0170 
 21 C       -4.3030     4.0060    -0.5900 C.3   1 <1>  -0.1600 
 22 C        3.2310    -1.7480     0.8880 C.3   1 <1>   0.3430 
 23 C       -6.5080    -1.8450     1.3460 C.3   1 <1>   0.1200 
 24 C       -6.7900    -1.3860    -0.9380 C.3   1 <1>   0.1200 
 25 N        3.0580    -3.1230     0.2960 N.4   1 <1>  -0.9590 
 26 O       -6.8820    -2.3380     0.0870 O.3   1 <1>  -0.5600 
 27 C        1.7280    -3.2780    -0.3800 C.3   1 <1>   0.2630 
 28 C        3.2030    -4.1570     1.3680 C.3   1 <1>   0.2630 
 29 H        4.2130     1.1990     0.5160 H     1 <1>   0.4000 
 30 H       -2.2010     4.3460    -1.0500 H     1 <1>   0.0800 
 31 H       -2.5960     4.4990     0.6590 H     1 <1>   0.0800 
 32 H        2.0460     4.7370    -0.0900 H     1 <1>   0.1500 
 33 H        4.3170    -0.7210    -0.6710 H     1 <1>   0.0800 
 34 H        2.5840    -0.6840    -0.8910 H     1 <1>   0.0800 
 35 H       -4.8220    -0.8760     2.2760 H     1 <1>   0.0800 
 36 H       -4.3890    -2.1620     1.1820 H     1 <1>   0.0800 
 37 H       -4.7060    -1.6400    -1.4040 H     1 <1>   0.0800 
 38 H       -5.3270    -0.0600    -1.8000 H     1 <1>   0.0800 
 39 H       -5.4240     2.7420     0.7750 H     1 <1>   0.0800 
 40 H       -5.5760     2.2680    -0.9110 H     1 <1>   0.0800 
 41 H       -4.4110     4.1150    -1.6550 H     1 <1>   0.0800 
 42 H       -4.7940     4.8310    -0.1030 H     1 <1>   0.0800 
 43 H        2.3820    -1.5230     1.5130 H     1 <1>   0.0800 
 44 H        4.1100    -1.7320     1.5100 H     1 <1>   0.0800 
 45 H       -7.1820    -1.0510     1.6180 H     1 <1>   0.0800 
 46 H       -6.6100    -2.6460     2.0560 H     1 <1>   0.0800 
 47 H       -7.0930    -1.8610    -1.8540 H     1 <1>   0.0800 
 48 H       -7.4710    -0.5820    -0.7220 H     1 <1>   0.0800 
 49 H        3.8060    -3.2820    -0.3980 H     1 <1>   0.4500 
 50 H        0.9280    -3.1110     0.3240 H     1 <1>   0.0800 
 51 H        1.6260    -4.2720    -0.7850 H     1 <1>   0.0800 
 52 H        1.6260    -2.5700    -1.1860 H     1 <1>   0.0800 
 53 H        2.4370    -4.0290     2.1170 H     1 <1>   0.0800 
 54 H        4.1670    -4.0730     1.8440 H     1 <1>   0.0800 
 55 H        3.1130    -5.1470     0.9500 H     1 <1>   0.0800 
@<TRIPOS>BOND
  1   1   2  1   
  2   1   3  1   
  3   2   4  ar  
  4   2   5  ar  
  5   3   6  ar  
  6   3   7  ar  
  7   4   8  ar  
  8   5   7  1   
  9   5   9  ar  
 10   6  10  ar  
 11   6  11  1   
 12   7  12  ar  
 13   8  13  1   
 14   8  14  ar  
 15   9  14  ar  
 16   9  15  1   
 17  10  16  ar  
 18  11  17  1   
 19  11  29  1   
 20  12  16  ar  
 21  13  18  1   
 22  13  19  1   
 23  14  20  1   
 24  15  21  1   
 25  15  30  1   
 26  15  31  1   
 27  16  32  1   
 28  17  22  1   
 29  17  33  1   
 30  17  34  1   
 31  18  23  1   
 32  18  35  1   
 33  18  36  1   
 34  19  24  1   
 35  19  37  1   
 36  19  38  1   
 37  20  21  1   
 38  20  39  1   
 39  20  40  1   
 40  21  41  1   
 41  21  42  1   
 42  22  25  1   
 43  22  43  1   
 44  22  44  1   
 45  23  26  1   
 46  23  45  1   
 47  23  46  1   
 48  24  26  1   
 49  24  47  1   
 50  24  48  1   
 51  25  27  1   
 52  25  28  1   
 53  25  49  1   
 54  27  50  1   
 55  27  51  1   
 56  27  52  1   
 57  28  53  1   
 58  28  54  1   
 59  28  55  1   
@<TRIPOS>SUBSTRUCTURE
  1 ****   2 GROUP 4 **** **** 0

# MOE 2024.06 (io_trps.svl 2023.06)
