@<TRIPOS>MOLECULE
2-[2-Methyl-4-(pyrrolidine-1-sulfonyl)-phenoxy]-N-pyridin-2-ylmethyl-acetamide
50 52 1 0 0 
SMALL
USER_CHARGES


@<TRIPOS>ATOM
  1 S        0.0100     1.1960     0.0360 S.o2  1 <1>   1.4470 
  2 O       -0.7140     1.6660    -1.1250 O.2   1 <1>  -0.6500 
  3 O       -0.3520     1.6890     1.3490 O.2   1 <1>  -0.6500 
  4 N       -0.1700    -0.4880     0.0710 N.am  1 <1>  -0.8490 
  5 C        1.7880     1.3940    -0.2470 C.ar  1 <1>  -0.0090 
  6 C        0.3620    -1.1330     1.2590 C.3   1 <1>   0.1960 
  7 C       -1.5570    -0.9070    -0.0090 C.3   1 <1>   0.1960 
  8 C        2.5940     2.0780     0.6560 C.ar  1 <1>  -0.1500 
  9 C        2.3880     0.8540    -1.3770 C.ar  1 <1>  -0.1500 
 10 C       -0.2510    -2.5260     1.2320 C.3   1 <1>  -0.1600 
 11 C       -1.5430    -2.3680     0.4290 C.3   1 <1>  -0.1600 
 12 C        3.9560     2.2220     0.4490 C.ar  1 <1>  -0.1430 
 13 C        3.7450     0.9870    -1.6030 C.ar  1 <1>  -0.1500 
 14 C        4.5370     1.6740    -0.6890 C.ar  1 <1>   0.0820 
 15 C        4.8010     2.9790     1.4650 C.3   1 <1>  -0.0970 
 16 O        5.8710     1.8420    -0.8520 O.3   1 <1>  -0.3630 
 17 C        6.5660     1.3390    -1.9840 C.3   1 <1>   0.1810 
 18 C        8.0430     1.7020    -1.9170 C.2   1 <1>   0.5690 
 19 O        8.8070     1.1930    -2.7010 O.2   1 <1>  -0.5700 
 20 N        8.4660     2.5860    -0.9810 N.am  1 <1>  -0.7300 
 21 C        9.8670     2.9660    -0.7060 C.3   1 <1>   0.2840 
 22 C       10.1490     2.8470     0.7870 C.ar  1 <1>   0.1670 
 23 N        9.5500     3.7270     1.5820 N.ar  1 <1>  -0.6200 
 24 C       10.9940     1.8440     1.2420 C.ar  1 <1>  -0.1500 
 25 C        9.8100     3.6020     2.8740 C.ar  1 <1>   0.1600 
 26 C       11.2530     1.7280     2.5910 C.ar  1 <1>  -0.1500 
 27 C       10.6390     2.6390     3.4220 C.ar  1 <1>  -0.1500 
 28 H        0.0340    -0.6160     2.1470 H     1 <1>   0.0800 
 29 H        1.4390    -1.1650     1.2360 H     1 <1>   0.0800 
 30 H       -1.9380    -0.7880    -1.0100 H     1 <1>   0.0800 
 31 H       -2.1560    -0.3250     0.6740 H     1 <1>   0.0800 
 32 H        2.1410     2.5040     1.5360 H     1 <1>   0.1500 
 33 H        1.7760     0.3210    -2.0860 H     1 <1>   0.1500 
 34 H       -0.4320    -2.8860     2.2290 H     1 <1>   0.0800 
 35 H        0.4180    -3.2030     0.7300 H     1 <1>   0.0800 
 36 H       -1.5270    -3.0070    -0.4360 H     1 <1>   0.0800 
 37 H       -2.4150    -2.5940     1.0170 H     1 <1>   0.0800 
 38 H        4.1590     0.5500    -2.4920 H     1 <1>   0.1500 
 39 H        4.2070     3.3120     2.2960 H     1 <1>   0.0800 
 40 H        5.2500     3.8370     0.9990 H     1 <1>   0.0800 
 41 H        5.5830     2.3410     1.8380 H     1 <1>   0.0800 
 42 H        6.1350     1.7690    -2.8690 H     1 <1>   0.0800 
 43 H        6.4620     0.2700    -2.0000 H     1 <1>   0.0800 
 44 H        7.7960     2.9320    -0.2850 H     1 <1>   0.3700 
 45 H       10.0230     3.9850    -1.0130 H     1 <1>   0.0800 
 46 H       10.5360     2.3360    -1.2670 H     1 <1>   0.0800 
 47 H       11.4420     1.1560     0.5480 H     1 <1>   0.1500 
 48 H        9.3350     4.3080     3.5340 H     1 <1>   0.1500 
 49 H       11.9040     0.9610     2.9760 H     1 <1>   0.1500 
 50 H       10.7990     2.6050     4.4840 H     1 <1>   0.1500 
@<TRIPOS>BOND
  1   1   2  2   
  2   1   3  2   
  3   1   4  am  
  4   1   5  1   
  5   4   6  1   
  6   4   7  1   
  7   5   8  ar  
  8   5   9  ar  
  9   6  10  1   
 10   6  28  1   
 11   6  29  1   
 12   7  11  1   
 13   7  30  1   
 14   7  31  1   
 15   8  12  ar  
 16   8  32  1   
 17   9  13  ar  
 18   9  33  1   
 19  10  11  1   
 20  10  34  1   
 21  10  35  1   
 22  11  36  1   
 23  11  37  1   
 24  12  14  ar  
 25  12  15  1   
 26  13  14  ar  
 27  13  38  1   
 28  14  16  1   
 29  15  39  1   
 30  15  40  1   
 31  15  41  1   
 32  16  17  1   
 33  17  18  1   
 34  17  42  1   
 35  17  43  1   
 36  18  19  2   
 37  18  20  am  
 38  20  21  1   
 39  20  44  1   
 40  21  22  1   
 41  21  45  1   
 42  21  46  1   
 43  22  23  ar  
 44  22  24  ar  
 45  23  25  ar  
 46  24  26  ar  
 47  24  47  1   
 48  25  27  ar  
 49  25  48  1   
 50  26  27  ar  
 51  26  49  1   
 52  27  50  1   
@<TRIPOS>SUBSTRUCTURE
  1 ****  14 GROUP 4 **** **** 0

# MOE 2024.06 (io_trps.svl 2023.06)
