@<TRIPOS>MOLECULE
2-(2-Methoxy-ethyl)-8,8-dimethyl-8,9-dihydro-2H,6H-7-oxa-11-thia-2,4,10-triaza-b
43 46 1 0 0 
SMALL
USER_CHARGES


@<TRIPOS>ATOM
  1 S        0.1260     0.3460    -1.4060 S.3   1 <1>  -0.0800 
  2 C       -0.8980     1.5850    -0.6670 C.ar  1 <1>   0.2970 
  3 C        1.4830     0.7640    -0.3490 C.2   1 <1>  -0.0450 
  4 N       -2.1430     1.7880    -1.0600 N.ar  1 <1>  -0.5670 
  5 C       -0.1970     2.2530     0.3290 C.ar  1 <1>   0.0000 
  6 C        2.7640     0.1740    -0.3340 C.2   1 <1>   0.7150 
  7 C        1.1470     1.7730     0.4900 C.2   1 <1>   0.1250 
  8 C       -2.7530     2.7550    -0.3940 C.ar  1 <1>   0.1660 
  9 C       -0.8660     3.2590     1.0050 C.ar  1 <1>  -0.1500 
 10 O        3.1120    -0.7270    -1.0850 O.2   1 <1>  -0.5700 
 11 N        3.6390     0.6950     0.5960 N.am  1 <1>  -0.4200 
 12 N        2.0520     2.2630     1.3990 N.2   1 <1>  -0.5750 
 13 C       -2.1710     3.5100     0.6280 C.ar  1 <1>  -0.1430 
 14 C       -4.1910     3.0270    -0.7860 C.3   1 <1>  -0.0170 
 15 C        3.2220     1.7220     1.4170 C.2   1 <1>   0.4500 
 16 C        5.0200     0.1570     0.7200 C.3   1 <1>   0.1400 
 17 C       -2.9510     4.6190     1.3230 C.3   1 <1>   0.2640 
 18 C       -4.6680     4.4150    -0.3340 C.3   1 <1>   0.2800 
 19 C        5.9030     0.6640    -0.4210 C.3   1 <1>   0.1200 
 20 O       -4.3140     4.5950     1.0020 O.3   1 <1>  -0.5600 
 21 C       -4.0860     5.5520    -1.1920 C.3   1 <1>  -0.2400 
 22 C       -6.1950     4.4940    -0.3690 C.3   1 <1>  -0.2400 
 23 O        7.2200     0.3370    -0.1190 O.3   1 <1>  -0.5600 
 24 C        8.1290     0.6720    -1.1180 C.3   1 <1>   0.0400 
 25 H       -0.3680     3.8090     1.7840 H     1 <1>   0.1500 
 26 H       -4.8050     2.2680    -0.3370 H     1 <1>   0.0800 
 27 H       -4.2960     2.9400    -1.8520 H     1 <1>   0.0800 
 28 H        3.9470     2.0900     2.1220 H     1 <1>   0.0600 
 29 H        4.9890    -0.9190     0.6950 H     1 <1>   0.0800 
 30 H        5.4440     0.4660     1.6590 H     1 <1>   0.0800 
 31 H       -2.5570     5.5820     1.0500 H     1 <1>   0.0800 
 32 H       -2.8750     4.5100     2.3900 H     1 <1>   0.0800 
 33 H        5.8330     1.7350    -0.5110 H     1 <1>   0.0800 
 34 H        5.6290     0.1890    -1.3480 H     1 <1>   0.0800 
 35 H       -3.0160     5.4820    -1.2690 H     1 <1>   0.0800 
 36 H       -4.3540     6.5060    -0.7760 H     1 <1>   0.0800 
 37 H       -4.4830     5.4950    -2.1890 H     1 <1>   0.0800 
 38 H       -6.6210     3.7420     0.2710 H     1 <1>   0.0800 
 39 H       -6.5560     4.3360    -1.3690 H     1 <1>   0.0800 
 40 H       -6.5240     5.4610    -0.0350 H     1 <1>   0.0800 
 41 H        9.1110     0.3850    -0.7870 H     1 <1>   0.0800 
 42 H        8.0990     1.7350    -1.2870 H     1 <1>   0.0800 
 43 H        7.8800     0.1370    -2.0190 H     1 <1>   0.0800 
@<TRIPOS>BOND
  1   1   2  1   
  2   1   3  1   
  3   2   4  ar  
  4   2   5  ar  
  5   3   6  1   
  6   3   7  2   
  7   4   8  ar  
  8   5   7  1   
  9   5   9  ar  
 10   6  10  2   
 11   6  11  am  
 12   7  12  1   
 13   8  13  ar  
 14   8  14  1   
 15   9  13  ar  
 16   9  25  1   
 17  11  15  1   
 18  11  16  1   
 19  12  15  2   
 20  13  17  1   
 21  14  18  1   
 22  14  26  1   
 23  14  27  1   
 24  15  28  1   
 25  16  19  1   
 26  16  29  1   
 27  16  30  1   
 28  17  20  1   
 29  17  31  1   
 30  17  32  1   
 31  18  20  1   
 32  18  21  1   
 33  18  22  1   
 34  19  23  1   
 35  19  33  1   
 36  19  34  1   
 37  21  35  1   
 38  21  36  1   
 39  21  37  1   
 40  22  38  1   
 41  22  39  1   
 42  22  40  1   
 43  23  24  1   
 44  24  41  1   
 45  24  42  1   
 46  24  43  1   
@<TRIPOS>SUBSTRUCTURE
  1 ****   5 GROUP 4 **** **** 0

# MOE 2024.06 (io_trps.svl 2023.06)
