@<TRIPOS>MOLECULE
1-(2,5-Dimethyl-phenyl)-5-oxo-pyrrolidine-3-carboxylic acid (2,5-dimethoxy-pheny
51 53 1 0 0 
SMALL
USER_CHARGES


@<TRIPOS>ATOM
  1 O        0.7950    -0.2250     1.5710 O.2   1 <1>  -0.5700 
  2 C        1.7600    -0.3850     0.8670 C.2   1 <1>   0.5690 
  3 N        2.0860    -1.5010     0.1570 N.am  1 <1>  -0.4770 
  4 C        2.7810     0.6990     0.6700 C.3   1 <1>  -0.0990 
  5 C        1.4060    -2.7280     0.0970 C.ar  1 <1>   0.1170 
  6 C        3.3550    -1.3140    -0.5690 C.3   1 <1>   0.1400 
  7 C        3.5840     0.2060    -0.5460 C.3   1 <1>  -0.0190 
  8 C        0.1440    -2.8530    -0.4890 C.ar  1 <1>  -0.1440 
  9 C        2.0180    -3.8600     0.6240 C.ar  1 <1>  -0.1500 
 10 C        5.0530     0.6060    -0.5280 C.2   1 <1>   0.5690 
 11 C       -0.4700    -4.0940    -0.5330 C.ar  1 <1>  -0.1500 
 12 C       -0.5820    -1.6530    -1.0840 C.3   1 <1>  -0.0970 
 13 C        1.4050    -5.1000     0.5740 C.ar  1 <1>  -0.1440 
 14 O        5.8860    -0.2320    -0.7660 O.2   1 <1>  -0.5700 
 15 N        5.3430     1.9130    -0.2560 N.am  1 <1>  -0.5470 
 16 C        0.1550    -5.2110    -0.0070 C.ar  1 <1>  -0.1500 
 17 C        2.0840    -6.3270     1.1550 C.3   1 <1>  -0.0970 
 18 C        6.5450     2.6360    -0.1370 C.ar  1 <1>   0.1170 
 19 C        6.4550     3.9890     0.2080 C.ar  1 <1>   0.0830 
 20 C        7.8010     2.0780    -0.3420 C.ar  1 <1>  -0.1500 
 21 O        5.1980     4.4990     0.4030 O.3   1 <1>  -0.3630 
 22 C        7.6100     4.7540     0.3390 C.ar  1 <1>  -0.1500 
 23 C        8.9510     2.8370    -0.2110 C.ar  1 <1>   0.0830 
 24 C        5.0120     5.8480     0.7770 C.3   1 <1>   0.0400 
 25 C        8.8530     4.1810     0.1310 C.ar  1 <1>  -0.1500 
 26 O       10.1310     2.1990    -0.4310 O.3   1 <1>  -0.3620 
 27 C       11.3610     2.8800    -0.3250 C.3   1 <1>   0.0400 
 28 H        3.3910     0.7540     1.5530 H     1 <1>   0.0800 
 29 H        2.3040     1.6450     0.4870 H     1 <1>   0.0800 
 30 H        3.2820    -1.6890    -1.5760 H     1 <1>   0.0800 
 31 H        4.1350    -1.8380    -0.0440 H     1 <1>   0.0800 
 32 H        3.1440     0.6100    -1.4400 H     1 <1>   0.0800 
 33 H        2.9840    -3.7600     1.0820 H     1 <1>   0.1500 
 34 H       -1.4440    -4.2010    -0.9760 H     1 <1>   0.1500 
 35 H        0.0890    -1.0740    -1.6910 H     1 <1>   0.0800 
 36 H       -0.9610    -1.0320    -0.2930 H     1 <1>   0.0800 
 37 H       -1.4070    -1.9660    -1.6970 H     1 <1>   0.0800 
 38 H        4.5420     2.5220    -0.0800 H     1 <1>   0.3700 
 39 H       -0.3390    -6.1660    -0.0500 H     1 <1>   0.1500 
 40 H        3.1300    -6.1440     1.3190 H     1 <1>   0.0800 
 41 H        1.9860    -7.1580     0.4810 H     1 <1>   0.0800 
 42 H        1.6270    -6.5840     2.0940 H     1 <1>   0.0800 
 43 H        7.9080     1.0450    -0.6090 H     1 <1>   0.1500 
 44 H        7.5690     5.7940     0.6010 H     1 <1>   0.1500 
 45 H        3.9560     6.0240     0.8840 H     1 <1>   0.0800 
 46 H        5.4110     6.4840     0.0070 H     1 <1>   0.0800 
 47 H        5.5060     6.0220     1.7170 H     1 <1>   0.0800 
 48 H        9.7280     4.7940     0.2400 H     1 <1>   0.1500 
 49 H       12.1480     2.1790    -0.5410 H     1 <1>   0.0800 
 50 H       11.4690     3.2520     0.6780 H     1 <1>   0.0800 
 51 H       11.3790     3.6820    -1.0410 H     1 <1>   0.0800 
@<TRIPOS>BOND
  1   1   2  2   
  2   2   3  am  
  3   2   4  1   
  4   3   5  1   
  5   3   6  1   
  6   4   7  1   
  7   4  28  1   
  8   4  29  1   
  9   5   8  ar  
 10   5   9  ar  
 11   6   7  1   
 12   6  30  1   
 13   6  31  1   
 14   7  10  1   
 15   7  32  1   
 16   8  11  ar  
 17   8  12  1   
 18   9  13  ar  
 19   9  33  1   
 20  10  14  2   
 21  10  15  am  
 22  11  16  ar  
 23  11  34  1   
 24  12  35  1   
 25  12  36  1   
 26  12  37  1   
 27  13  16  ar  
 28  13  17  1   
 29  15  18  1   
 30  15  38  1   
 31  16  39  1   
 32  17  40  1   
 33  17  41  1   
 34  17  42  1   
 35  18  19  ar  
 36  18  20  ar  
 37  19  21  1   
 38  19  22  ar  
 39  20  23  ar  
 40  20  43  1   
 41  21  24  1   
 42  22  25  ar  
 43  22  44  1   
 44  23  25  ar  
 45  23  26  1   
 46  24  45  1   
 47  24  46  1   
 48  24  47  1   
 49  25  48  1   
 50  26  27  1   
 51  27  49  1   
 52  27  50  1   
 53  27  51  1   
@<TRIPOS>SUBSTRUCTURE
  1 ****   7 GROUP 4 **** **** 0

# MOE 2024.06 (io_trps.svl 2023.06)
