@<TRIPOS>MOLECULE
2-[2-Methyl-4-(pyrrolidine-1-sulfonyl)-phenoxy]-acetamide
38 39 1 0 0 
SMALL
USER_CHARGES


@<TRIPOS>ATOM
  1 S       -0.2820     0.0270    -1.1550 S.o2  1 <1>   1.4470 
  2 O       -0.0260    -0.9830    -2.1590 O.2   1 <1>  -0.6500 
  3 O       -1.2120     1.0990    -1.4440 O.2   1 <1>  -0.6500 
  4 N       -0.8700    -0.7860     0.2100 N.am  1 <1>  -0.8490 
  5 C        1.2930     0.6970    -0.5650 C.ar  1 <1>  -0.0090 
  6 C       -1.3330     0.0790     1.2810 C.3   1 <1>   0.1960 
  7 C       -1.9880    -1.6600    -0.0930 C.3   1 <1>   0.1960 
  8 C        1.5490     2.0630    -0.5730 C.ar  1 <1>  -0.1500 
  9 C        2.2830    -0.1480    -0.0810 C.ar  1 <1>  -0.1500 
 10 C       -2.1410    -0.8450     2.1830 C.3   1 <1>  -0.1600 
 11 C       -2.6100    -1.9730     1.2630 C.3   1 <1>  -0.1600 
 12 C        2.7480     2.5810    -0.1110 C.ar  1 <1>  -0.1430 
 13 C        3.4870     0.3480     0.3830 C.ar  1 <1>  -0.1500 
 14 C        3.7270     1.7190     0.3710 C.ar  1 <1>   0.0830 
 15 C        2.9790     4.0850    -0.1400 C.3   1 <1>  -0.0970 
 16 O        4.8860     2.2670     0.8130 O.3   1 <1>  -0.3630 
 17 C        5.9550     1.4640     1.2970 C.3   1 <1>   0.1810 
 18 C        7.1430     2.3230     1.7110 C.2   1 <1>   0.5690 
 19 O        8.1260     1.7950     2.1620 O.2   1 <1>  -0.5700 
 20 N        7.0960     3.6640     1.5750 N.am  1 <1>  -0.8000 
 21 H       -1.9780     0.8500     0.8900 H     1 <1>   0.0800 
 22 H       -0.5060     0.5310     1.8030 H     1 <1>   0.0800 
 23 H       -1.6550    -2.5500    -0.6020 H     1 <1>   0.0800 
 24 H       -2.7020    -1.1400    -0.7130 H     1 <1>   0.0800 
 25 H        0.7890     2.7280    -0.9480 H     1 <1>   0.1500 
 26 H        2.1010    -1.2100    -0.0690 H     1 <1>   0.1500 
 27 H       -2.9630    -0.3190     2.6350 H     1 <1>   0.0800 
 28 H       -1.5050    -1.2370     2.9570 H     1 <1>   0.0800 
 29 H       -2.2470    -2.9210     1.6190 H     1 <1>   0.0800 
 30 H       -3.6820    -2.0130     1.1870 H     1 <1>   0.0800 
 31 H        4.2170    -0.3510     0.7460 H     1 <1>   0.1500 
 32 H        2.1260     4.6030    -0.5410 H     1 <1>   0.0800 
 33 H        3.8330     4.3100    -0.7530 H     1 <1>   0.0800 
 34 H        3.1600     4.4450     0.8560 H     1 <1>   0.0800 
 35 H        6.2600     0.7940     0.5150 H     1 <1>   0.0800 
 36 H        5.6070     0.9080     2.1480 H     1 <1>   0.0800 
 37 H        7.8900     4.2410     1.8530 H     1 <1>   0.3700 
 38 H        6.2720     4.1340     1.1980 H     1 <1>   0.3700 
@<TRIPOS>BOND
  1   1   2  2   
  2   1   3  2   
  3   1   4  am  
  4   1   5  1   
  5   4   6  1   
  6   4   7  1   
  7   5   8  ar  
  8   5   9  ar  
  9   6  10  1   
 10   6  21  1   
 11   6  22  1   
 12   7  11  1   
 13   7  23  1   
 14   7  24  1   
 15   8  12  ar  
 16   8  25  1   
 17   9  13  ar  
 18   9  26  1   
 19  10  11  1   
 20  10  27  1   
 21  10  28  1   
 22  11  29  1   
 23  11  30  1   
 24  12  14  ar  
 25  12  15  1   
 26  13  14  ar  
 27  13  31  1   
 28  14  16  1   
 29  15  32  1   
 30  15  33  1   
 31  15  34  1   
 32  16  17  1   
 33  17  18  1   
 34  17  35  1   
 35  17  36  1   
 36  18  19  2   
 37  18  20  am  
 38  20  37  1   
 39  20  38  1   
@<TRIPOS>SUBSTRUCTURE
  1 ****   9 GROUP 4 **** **** 0

# MOE 2024.06 (io_trps.svl 2023.06)
