@<TRIPOS>MOLECULE
N-[2-(4-tert-Butyl-benzoylamino)-ethyl]-isonicotinamide
47 48 1 0 0 
SMALL
USER_CHARGES


@<TRIPOS>ATOM
  1 O        1.3130    -0.4050    -1.4310 O.2   1 <1>  -0.5700 
  2 C        2.0230    -1.0990    -0.7310 C.2   1 <1>   0.5440 
  3 N        2.8370    -0.4870     0.1830 N.am  1 <1>  -0.7300 
  4 C        1.9960    -2.5460    -0.8600 C.ar  1 <1>   0.0860 
  5 C        2.8170     0.9700     0.4790 C.3   1 <1>   0.1400 
  6 C        0.8960    -3.2120    -1.3820 C.ar  1 <1>  -0.1500 
  7 C        3.0470    -3.3720    -0.4820 C.ar  1 <1>  -0.1500 
  8 C        3.4320     1.7690    -0.6810 C.3   1 <1>   0.1400 
  9 C        0.8920    -4.5900    -1.4840 C.ar  1 <1>   0.1600 
 10 C        2.9460    -4.7430    -0.6240 C.ar  1 <1>   0.1600 
 11 N        3.5400     3.2180    -0.3590 N.am  1 <1>  -0.7300 
 12 N        1.8910    -5.3720    -1.1130 N.ar  1 <1>  -0.6200 
 13 C        2.5760     4.1050     0.0190 C.2   1 <1>   0.5440 
 14 O        2.9780     5.1880     0.3840 O.2   1 <1>  -0.5700 
 15 C        1.1560     3.7960     0.0420 C.ar  1 <1>   0.0860 
 16 C        0.3810     4.1290     1.1480 C.ar  1 <1>  -0.1500 
 17 C        0.5080     3.1540    -1.0100 C.ar  1 <1>  -0.1500 
 18 C       -0.9630     3.8130     1.2130 C.ar  1 <1>  -0.1500 
 19 C       -0.8350     2.8310    -0.9470 C.ar  1 <1>  -0.1500 
 20 C       -1.6010     3.1510     0.1700 C.ar  1 <1>  -0.1430 
 21 C       -3.1020     2.8060     0.2900 C.3   1 <1>   0.1430 
 22 C       -3.6570     2.0820    -0.9480 C.3   1 <1>  -0.2400 
 23 C       -3.3200     1.8870     1.5010 C.3   1 <1>  -0.2400 
 24 C       -3.9130     4.0970     0.4750 C.3   1 <1>  -0.2400 
 25 H        3.3200    -1.0620     0.8740 H     1 <1>   0.3700 
 26 H        3.3740     1.1570     1.3800 H     1 <1>   0.0800 
 27 H        1.7960     1.2740     0.6330 H     1 <1>   0.0800 
 28 H        0.0400    -2.6480    -1.7090 H     1 <1>   0.1500 
 29 H        3.9510    -2.9520    -0.0830 H     1 <1>   0.1500 
 30 H        2.8390     1.6420    -1.5690 H     1 <1>   0.0800 
 31 H        4.4180     1.3900    -0.8800 H     1 <1>   0.0800 
 32 H        0.0210    -5.0760    -1.8910 H     1 <1>   0.1500 
 33 H        3.7770    -5.3590    -0.3230 H     1 <1>   0.1500 
 34 H        4.4860     3.6050    -0.3440 H     1 <1>   0.3700 
 35 H        0.8480     4.6460     1.9700 H     1 <1>   0.1500 
 36 H        1.0610     2.9000    -1.8950 H     1 <1>   0.1500 
 37 H       -1.5110     4.0910     2.0950 H     1 <1>   0.1500 
 38 H       -1.2590     2.3220    -1.7920 H     1 <1>   0.1500 
 39 H       -3.1380     1.1540    -1.1070 H     1 <1>   0.0800 
 40 H       -3.5510     2.6970    -1.8240 H     1 <1>   0.0800 
 41 H       -4.7020     1.8610    -0.8210 H     1 <1>   0.0800 
 42 H       -3.0330     2.3750     2.4140 H     1 <1>   0.0800 
 43 H       -2.7300     0.9950     1.3950 H     1 <1>   0.0800 
 44 H       -4.3550     1.6070     1.5840 H     1 <1>   0.0800 
 45 H       -4.9660     3.8820     0.5220 H     1 <1>   0.0800 
 46 H       -3.6370     4.6040     1.3800 H     1 <1>   0.0800 
 47 H       -3.7360     4.7630    -0.3520 H     1 <1>   0.0800 
@<TRIPOS>BOND
  1   1   2  2   
  2   2   3  am  
  3   2   4  1   
  4   3   5  1   
  5   3  25  1   
  6   4   6  ar  
  7   4   7  ar  
  8   5   8  1   
  9   5  26  1   
 10   5  27  1   
 11   6   9  ar  
 12   6  28  1   
 13   7  10  ar  
 14   7  29  1   
 15   8  11  1   
 16   8  30  1   
 17   8  31  1   
 18   9  12  ar  
 19   9  32  1   
 20  10  12  ar  
 21  10  33  1   
 22  11  13  am  
 23  11  34  1   
 24  13  14  2   
 25  13  15  1   
 26  15  16  ar  
 27  15  17  ar  
 28  16  18  ar  
 29  16  35  1   
 30  17  19  ar  
 31  17  36  1   
 32  18  20  ar  
 33  18  37  1   
 34  19  20  ar  
 35  19  38  1   
 36  20  21  1   
 37  21  22  1   
 38  21  23  1   
 39  21  24  1   
 40  22  39  1   
 41  22  40  1   
 42  22  41  1   
 43  23  42  1   
 44  23  43  1   
 45  23  44  1   
 46  24  45  1   
 47  24  46  1   
 48  24  47  1   
@<TRIPOS>SUBSTRUCTURE
  1 ****   1 GROUP 4 **** **** 0

# MOE 2024.06 (io_trps.svl 2023.06)
