@<TRIPOS>MOLECULE
3-Ethyl-6-m-tolyloxymethyl-[1,2,4]triazolo[3,4-b][1,3,4]thiadiazole
33 35 1 0 0 
SMALL
USER_CHARGES


@<TRIPOS>ATOM
  1 S       -0.2130    -0.1900     0.0260 S.3   1 <1>  -0.1970 
  2 C        0.5870     1.3670     0.0230 C.2   1 <1>   0.2420 
  3 C       -1.7720     0.6640     0.0070 C.2   1 <1>   0.5300 
  4 N        1.8010     1.7860     0.0300 N.2   1 <1>  -0.3380 
  5 N       -0.3320     2.3170     0.0090 N.pl3 1 <1>   0.5050 
  6 N       -1.6750     1.9350     0.0000 N.2   1 <1>  -0.6520 
  7 C       -2.9960    -0.2420     0.0020 C.3   1 <1>   0.1810 
  8 N        1.6910     3.1300     0.0210 N.2   1 <1>  -0.3380 
  9 C        0.4240     3.4260     0.0090 C.2   1 <1>   0.0060 
 10 O       -4.1920     0.5130    -0.0140 O.3   1 <1>  -0.3630 
 11 C       -0.1940     4.8190    -0.0050 C.3   1 <1>   0.0200 
 12 C       -5.4060    -0.0910    -0.0200 C.ar  1 <1>   0.0830 
 13 C        0.8510     5.9410    -0.0060 C.3   1 <1>  -0.2400 
 14 C       -6.5130     0.7430    -0.0360 C.ar  1 <1>  -0.1500 
 15 C       -5.5880    -1.4710    -0.0110 C.ar  1 <1>  -0.1500 
 16 C       -7.7950     0.2200    -0.0450 C.ar  1 <1>  -0.1430 
 17 C       -6.8680    -1.9970    -0.0180 C.ar  1 <1>  -0.1500 
 18 C       -7.9670    -1.1540    -0.0340 C.ar  1 <1>  -0.1500 
 19 C       -9.0030     1.1390    -0.0610 C.3   1 <1>  -0.0970 
 20 H       -2.9970    -0.8510     0.8880 H     1 <1>   0.0800 
 21 H       -2.9810    -0.8630    -0.8740 H     1 <1>   0.0800 
 22 H       -0.8250     4.9260     0.8600 H     1 <1>   0.0800 
 23 H       -0.8140     4.9140    -0.8790 H     1 <1>   0.0800 
 24 H        1.4700     5.8730     0.8720 H     1 <1>   0.0800 
 25 H        0.3680     6.9010    -0.0160 H     1 <1>   0.0800 
 26 H        1.4810     5.8600    -0.8750 H     1 <1>   0.0800 
 27 H       -6.3570     1.8070    -0.0420 H     1 <1>   0.1500 
 28 H       -4.7590    -2.1510     0.0010 H     1 <1>   0.1500 
 29 H       -7.0140    -3.0630    -0.0100 H     1 <1>   0.1500 
 30 H       -8.9580    -1.5730    -0.0380 H     1 <1>   0.1500 
 31 H       -8.7310     2.1190    -0.4090 H     1 <1>   0.0800 
 32 H       -9.4080     1.2240     0.9310 H     1 <1>   0.0800 
 33 H       -9.7610     0.7450    -0.7140 H     1 <1>   0.0800 
@<TRIPOS>BOND
  1   1   2  1   
  2   1   3  1   
  3   2   4  2   
  4   2   5  1   
  5   3   6  2   
  6   3   7  1   
  7   4   8  1   
  8   5   6  1   
  9   5   9  1   
 10   7  10  1   
 11   7  20  1   
 12   7  21  1   
 13   8   9  2   
 14   9  11  1   
 15  10  12  1   
 16  11  13  1   
 17  11  22  1   
 18  11  23  1   
 19  12  14  ar  
 20  12  15  ar  
 21  13  24  1   
 22  13  25  1   
 23  13  26  1   
 24  14  16  ar  
 25  14  27  1   
 26  15  17  ar  
 27  15  28  1   
 28  16  18  ar  
 29  16  19  1   
 30  17  18  ar  
 31  17  29  1   
 32  18  30  1   
 33  19  31  1   
 34  19  32  1   
 35  19  33  1   
@<TRIPOS>SUBSTRUCTURE
  1 ****   3 GROUP 4 **** **** 0

# MOE 2024.06 (io_trps.svl 2023.06)
