@<TRIPOS>MOLECULE
2-(3-Cyano-4,6-dimethyl-2-oxo-2H-pyridin-1-yl)-N-(2-isopropyl-phenyl)-acetamide
45 46 1 0 0 
SMALL
USER_CHARGES


@<TRIPOS>ATOM
  1 O        1.7990    -0.2690    -1.3130 O.2   1 <1>  -0.5700 
  2 C        1.4360    -1.2680    -0.7000 C.2   1 <1>   0.6160 
  3 N        1.8500    -1.4390     0.6150 N.am  1 <1>  -0.4690 
  4 C        0.5900    -2.2510    -1.3030 C.2   1 <1>   0.0790 
  5 C        1.4630    -2.5640     1.3260 C.2   1 <1>  -0.0290 
  6 C        2.7960    -0.4110     1.1850 C.3   1 <1>   0.2010 
  7 C        0.1970    -2.0150    -2.6570 C.1   1 <1>   0.4920 
  8 C        0.1990    -3.3510    -0.5830 C.2   1 <1>  -0.1380 
  9 C        0.6550    -3.4930     0.7470 C.2   1 <1>  -0.1500 
 10 C        1.9550    -2.7690     2.7520 C.3   1 <1>  -0.1020 
 11 C        4.2660    -0.6710     0.8340 C.2   1 <1>   0.5690 
 12 N       -0.1570    -1.8880    -3.7350 N.1   1 <1>  -0.5570 
 13 C       -0.7020    -4.4630    -1.1130 C.3   1 <1>  -0.1020 
 14 O        4.6990    -1.7980     0.8170 O.2   1 <1>  -0.5700 
 15 N        5.1100     0.3590     0.5560 N.am  1 <1>  -0.5470 
 16 C        4.8910     1.7400     0.5820 C.ar  1 <1>   0.1170 
 17 C        5.1010     2.5490    -0.5420 C.ar  1 <1>  -0.1430 
 18 C        4.4690     2.3210     1.7730 C.ar  1 <1>  -0.1500 
 19 C        4.8600     3.9130    -0.4340 C.ar  1 <1>  -0.1500 
 20 C        5.5790     2.0260    -1.9060 C.3   1 <1>   0.0630 
 21 C        4.2340     3.6780     1.8620 C.ar  1 <1>  -0.1500 
 22 C        4.4280     4.4770     0.7530 C.ar  1 <1>  -0.1500 
 23 C        4.5870     1.0470    -2.5430 C.3   1 <1>  -0.2400 
 24 C        6.9910     1.4330    -1.8460 C.3   1 <1>  -0.2400 
 25 H        2.7050    -0.3730     2.2520 H     1 <1>   0.0800 
 26 H        2.5150     0.5600     0.8200 H     1 <1>   0.0800 
 27 H        0.3490    -4.3690     1.2920 H     1 <1>   0.1500 
 28 H        1.6070    -3.7060     3.1450 H     1 <1>   0.0800 
 29 H        3.0300    -2.7810     2.7760 H     1 <1>   0.0800 
 30 H        1.5910    -1.9840     3.3900 H     1 <1>   0.0800 
 31 H       -0.1770    -5.4010    -1.0850 H     1 <1>   0.0800 
 32 H       -1.0210    -4.2910    -2.1250 H     1 <1>   0.0800 
 33 H       -1.5800    -4.5450    -0.4970 H     1 <1>   0.0800 
 34 H        6.0030     0.0530     0.1730 H     1 <1>   0.3700 
 35 H        4.3320     1.7060     2.6440 H     1 <1>   0.1500 
 36 H        5.0050     4.5590    -1.2820 H     1 <1>   0.1500 
 37 H        5.6360     2.8670    -2.5770 H     1 <1>   0.0800 
 38 H        3.9050     4.1140     2.7900 H     1 <1>   0.1500 
 39 H        4.2470     5.5360     0.8120 H     1 <1>   0.1500 
 40 H        4.5450     0.1170    -2.0080 H     1 <1>   0.0800 
 41 H        4.8710     0.8370    -3.5590 H     1 <1>   0.0800 
 42 H        3.6000     1.4760    -2.5490 H     1 <1>   0.0800 
 43 H        7.0070     0.5000    -1.3170 H     1 <1>   0.0800 
 44 H        7.6570     2.1220    -1.3570 H     1 <1>   0.0800 
 45 H        7.3560     1.2570    -2.8420 H     1 <1>   0.0800 
@<TRIPOS>BOND
  1   1   2  2   
  2   2   3  am  
  3   2   4  1   
  4   3   5  1   
  5   3   6  1   
  6   4   7  1   
  7   4   8  2   
  8   5   9  2   
  9   5  10  1   
 10   6  11  1   
 11   6  25  1   
 12   6  26  1   
 13   7  12  3   
 14   8   9  1   
 15   8  13  1   
 16   9  27  1   
 17  10  28  1   
 18  10  29  1   
 19  10  30  1   
 20  11  14  2   
 21  11  15  am  
 22  13  31  1   
 23  13  32  1   
 24  13  33  1   
 25  15  16  1   
 26  15  34  1   
 27  16  17  ar  
 28  16  18  ar  
 29  17  19  ar  
 30  17  20  1   
 31  18  21  ar  
 32  18  35  1   
 33  19  22  ar  
 34  19  36  1   
 35  20  23  1   
 36  20  24  1   
 37  20  37  1   
 38  21  22  ar  
 39  21  38  1   
 40  22  39  1   
 41  23  40  1   
 42  23  41  1   
 43  23  42  1   
 44  24  43  1   
 45  24  44  1   
 46  24  45  1   
@<TRIPOS>SUBSTRUCTURE
  1 ****   6 GROUP 4 **** **** 0

# MOE 2024.06 (io_trps.svl 2023.06)
