@<TRIPOS>MOLECULE
Azepane-1-sulfonic acid pyridin-3-ylamide
34 35 1 0 0 
SMALL
USER_CHARGES


@<TRIPOS>ATOM
  1 S       -0.0790    -0.0020    -0.7380 S.o2  1 <1>   1.5760 
  2 O        0.4870    -0.7380    -1.8410 O.2   1 <1>  -0.6500 
  3 O       -1.2480     0.8300    -0.8670 O.2   1 <1>  -0.6500 
  4 N        1.1480     0.8570     0.0360 N.am  1 <1>  -0.8490 
  5 N       -0.4430    -1.0740     0.5390 N.am  1 <1>  -0.7570 
  6 C        1.3630     2.1630    -0.6000 C.3   1 <1>   0.1960 
  7 C        2.3760     0.0550     0.1220 C.3   1 <1>   0.1960 
  8 C       -1.0780    -2.3040     0.3910 C.ar  1 <1>   0.1990 
  9 C        1.9390     3.1610     0.4090 C.3   1 <1>  -0.1600 
 10 C        3.4510     0.6760     1.0230 C.3   1 <1>  -0.1600 
 11 C       -0.7110    -3.2640    -0.5580 C.ar  1 <1>   0.1600 
 12 C       -2.1270    -2.6180     1.2390 C.ar  1 <1>  -0.1500 
 13 C        3.4730     3.2000     0.4960 C.3   1 <1>  -0.1600 
 14 C        4.1880     1.8490     0.3620 C.3   1 <1>  -0.1600 
 15 N       -1.2860    -4.4480    -0.7200 N.ar  1 <1>  -0.6200 
 16 C       -2.7380    -3.8430     1.0850 C.ar  1 <1>  -0.1500 
 17 C       -2.2870    -4.7090     0.1040 C.ar  1 <1>   0.1600 
 18 H       -0.7730    -0.4920     1.2980 H     1 <1>   0.4200 
 19 H        0.4170     2.5650    -0.9230 H     1 <1>   0.0800 
 20 H        1.9900     2.0730    -1.4720 H     1 <1>   0.0800 
 21 H        2.7770    -0.1130    -0.8650 H     1 <1>   0.0800 
 22 H        2.1320    -0.9100     0.5330 H     1 <1>   0.0800 
 23 H        1.5220     2.9510     1.3790 H     1 <1>   0.0800 
 24 H        1.6040     4.1460     0.1360 H     1 <1>   0.0800 
 25 H        4.1770    -0.0930     1.2190 H     1 <1>   0.0800 
 26 H        3.0280     0.9610     1.9710 H     1 <1>   0.0800 
 27 H        0.1090    -3.0420    -1.2160 H     1 <1>   0.1500 
 28 H       -2.4570    -1.9260     1.9930 H     1 <1>   0.1500 
 29 H        3.7380     3.6410     1.4420 H     1 <1>   0.0800 
 30 H        3.8510     3.8550    -0.2710 H     1 <1>   0.0800 
 31 H        4.3470     1.6280    -0.6790 H     1 <1>   0.0800 
 32 H        5.1630     1.9450     0.8110 H     1 <1>   0.0800 
 33 H       -3.5590    -4.1300     1.7170 H     1 <1>   0.1500 
 34 H       -2.7730    -5.6640    -0.0090 H     1 <1>   0.1500 
@<TRIPOS>BOND
  1   1   2  2   
  2   1   3  2   
  3   1   4  am  
  4   1   5  am  
  5   4   6  1   
  6   4   7  1   
  7   5   8  1   
  8   5  18  1   
  9   6   9  1   
 10   6  19  1   
 11   6  20  1   
 12   7  10  1   
 13   7  21  1   
 14   7  22  1   
 15   8  11  ar  
 16   8  12  ar  
 17   9  13  1   
 18   9  23  1   
 19   9  24  1   
 20  10  14  1   
 21  10  25  1   
 22  10  26  1   
 23  11  15  ar  
 24  11  27  1   
 25  12  16  ar  
 26  12  28  1   
 27  13  14  1   
 28  13  29  1   
 29  13  30  1   
 30  14  31  1   
 31  14  32  1   
 32  15  17  ar  
 33  16  17  ar  
 34  16  33  1   
 35  17  34  1   
@<TRIPOS>SUBSTRUCTURE
  1 ****   1 GROUP 4 **** **** 0

# MOE 2024.06 (io_trps.svl 2023.06)
