@<TRIPOS>MOLECULE
N-(4-Bromo-phenyl)-2-(4-dimethylsulfamoyl-piperazin-1-yl)-acetamide
44 45 1 0 0 
SMALL
USER_CHARGES


@<TRIPOS>ATOM
  1 BR       0.2010    -0.2840     0.9920 Br    1 <1>  -0.1110 
  2 C        0.9360     1.4700     0.6840 C.ar  1 <1>   0.1110 
  3 C        1.9270     1.6210    -0.2660 C.ar  1 <1>  -0.1500 
  4 C        0.4530     2.5350     1.4200 C.ar  1 <1>  -0.1500 
  5 C        2.4500     2.8850    -0.4800 C.ar  1 <1>  -0.1500 
  6 C        0.9860     3.7920     1.1920 C.ar  1 <1>  -0.1500 
  7 C        1.9910     3.9840     0.2440 C.ar  1 <1>   0.1170 
  8 N        2.5570     5.2400    -0.0290 N.am  1 <1>  -0.5470 
  9 C        2.6060     6.3970     0.7080 C.2   1 <1>   0.5690 
 10 O        2.0970     6.5120     1.7980 O.2   1 <1>  -0.5700 
 11 C        3.3090     7.6130     0.0880 C.3   1 <1>   0.1710 
 12 N        4.7970     7.6420     0.1820 N.3   1 <1>  -0.8100 
 13 C        5.3230     8.9260    -0.3310 C.3   1 <1>   0.1100 
 14 C        5.4720     6.5100    -0.4930 C.3   1 <1>   0.1100 
 15 C        6.8590     9.0060    -0.2370 C.3   1 <1>   0.1960 
 16 C        7.0060     6.6110    -0.3960 C.3   1 <1>   0.1960 
 17 N        7.4870     7.8830    -0.9420 N.am  1 <1>  -0.8490 
 18 S        9.1700     7.9880    -1.0010 S.o2  1 <1>   1.5760 
 19 O        9.5240     9.3080    -1.4790 O.2   1 <1>  -0.6500 
 20 O        9.6680     6.7990    -1.6580 O.2   1 <1>  -0.6500 
 21 N        9.5410     7.8910     0.6560 N.am  1 <1>  -0.8490 
 22 C       10.3520     6.7210     1.0060 C.3   1 <1>   0.1160 
 23 C       10.1440     9.1140     1.1930 C.3   1 <1>   0.1160 
 24 H        2.2780     0.7690    -0.8200 H     1 <1>   0.1500 
 25 H       -0.3190     2.3840     2.1520 H     1 <1>   0.1500 
 26 H        3.2230     3.0130    -1.2150 H     1 <1>   0.1500 
 27 H        0.6100     4.6240     1.7590 H     1 <1>   0.1500 
 28 H        3.0700     5.2860    -0.9050 H     1 <1>   0.3700 
 29 H        2.9230     8.4820     0.5920 H     1 <1>   0.0800 
 30 H        3.0160     7.6860    -0.9440 H     1 <1>   0.0800 
 31 H        4.9020     9.7360     0.2390 H     1 <1>   0.0800 
 32 H        5.0360     9.0550    -1.3610 H     1 <1>   0.0800 
 33 H        5.1940     6.4820    -1.5320 H     1 <1>   0.0800 
 34 H        5.1740     5.5860    -0.0290 H     1 <1>   0.0800 
 35 H        7.1450     9.0010     0.8010 H     1 <1>   0.0800 
 36 H        7.1860     9.9340    -0.6740 H     1 <1>   0.0800 
 37 H        7.4430     5.7950    -0.9470 H     1 <1>   0.0800 
 38 H        7.2980     6.5150     0.6360 H     1 <1>   0.0800 
 39 H        9.8490     5.8200     0.6990 H     1 <1>   0.0800 
 40 H       10.5020     6.6780     2.0700 H     1 <1>   0.0800 
 41 H       11.3090     6.7670     0.5130 H     1 <1>   0.0800 
 42 H        9.4950     9.9540     1.0150 H     1 <1>   0.0800 
 43 H       11.0930     9.3040     0.7180 H     1 <1>   0.0800 
 44 H       10.2920     9.0210     2.2550 H     1 <1>   0.0800 
@<TRIPOS>BOND
  1   1   2  1   
  2   2   3  ar  
  3   2   4  ar  
  4   3   5  ar  
  5   3  24  1   
  6   4   6  ar  
  7   4  25  1   
  8   5   7  ar  
  9   5  26  1   
 10   6   7  ar  
 11   6  27  1   
 12   7   8  1   
 13   8   9  am  
 14   8  28  1   
 15   9  10  2   
 16   9  11  1   
 17  11  12  1   
 18  11  29  1   
 19  11  30  1   
 20  12  13  1   
 21  12  14  1   
 22  13  15  1   
 23  13  31  1   
 24  13  32  1   
 25  14  16  1   
 26  14  33  1   
 27  14  34  1   
 28  15  17  1   
 29  15  35  1   
 30  15  36  1   
 31  16  17  1   
 32  16  37  1   
 33  16  38  1   
 34  17  18  am  
 35  18  19  2   
 36  18  20  2   
 37  18  21  am  
 38  21  22  1   
 39  21  23  1   
 40  22  39  1   
 41  22  40  1   
 42  22  41  1   
 43  23  42  1   
 44  23  43  1   
 45  23  44  1   
@<TRIPOS>SUBSTRUCTURE
  1 ****  14 GROUP 4 **** **** 0

# MOE 2024.06 (io_trps.svl 2023.06)
