@<TRIPOS>MOLECULE
3-Ethoxy-N-[4-(4-methyl-pyrimidin-2-ylsulfamoyl)-phenyl]-propionamide
45 46 1 0 0 
SMALL
USER_CHARGES


@<TRIPOS>ATOM
  1 S        0.1650     0.1590    -1.7740 S.o2  1 <1>   1.4970 
  2 O       -0.4870     1.1680    -2.5930 O.2   1 <1>  -0.6500 
  3 O        1.2030    -0.6580    -2.3640 O.2   1 <1>  -0.6500 
  4 N        0.7780     0.8740    -0.3950 N.2   1 <1>  -0.6380 
  5 C       -1.1160    -0.9410    -1.1000 C.ar  1 <1>  -0.0090 
  6 C        0.0790     1.7180     0.2380 C.2   1 <1>   0.7110 
  7 C       -2.3900    -0.9960    -1.6550 C.ar  1 <1>  -0.1500 
  8 C       -0.8570    -1.7650    -0.0100 C.ar  1 <1>  -0.1500 
  9 N       -1.1070     2.2790    -0.2110 N.pl3 1 <1>  -0.5500 
 10 N        0.5280     2.0980     1.4820 N.2   1 <1>  -0.6610 
 11 C       -3.3670    -1.8240    -1.1350 C.ar  1 <1>  -0.1500 
 12 C       -1.8330    -2.5950     0.5140 C.ar  1 <1>  -0.1500 
 13 C       -1.8820     3.1120     0.5430 C.2   1 <1>  -0.0380 
 14 C       -0.1850     2.8920     2.1940 C.2   1 <1>   0.3760 
 15 C       -3.1070    -2.6340    -0.0350 C.ar  1 <1>   0.1170 
 16 C       -1.4260     3.4270     1.7740 C.2   1 <1>  -0.1360 
 17 C       -3.1750     3.6170    -0.0640 C.3   1 <1>  -0.1020 
 18 N       -4.0640    -3.4920     0.5260 N.am  1 <1>  -0.5470 
 19 C       -5.4310    -3.4370     0.5030 C.2   1 <1>   0.5690 
 20 O       -6.0560    -2.5530    -0.0280 O.2   1 <1>  -0.5700 
 21 C       -6.1920    -4.5450     1.1960 C.3   1 <1>  -0.0990 
 22 C       -7.2400    -5.1440     0.2630 C.3   1 <1>   0.1200 
 23 O       -7.8100    -6.2320     0.9120 O.3   1 <1>  -0.5600 
 24 C       -8.8280    -6.8440     0.1940 C.3   1 <1>   0.1200 
 25 C       -9.3370    -8.0140     1.0260 C.3   1 <1>  -0.2400 
 26 H       -2.6260    -0.3830    -2.5090 H     1 <1>   0.1500 
 27 H        0.1240    -1.7520     0.4370 H     1 <1>   0.1500 
 28 H       -1.3110     2.1430    -1.2100 H     1 <1>   0.4000 
 29 H       -4.3390    -1.8400    -1.5950 H     1 <1>   0.1500 
 30 H       -1.5970    -3.2130     1.3610 H     1 <1>   0.1500 
 31 H        0.1680     3.1770     3.1690 H     1 <1>   0.0600 
 32 H       -1.9570     4.0730     2.4470 H     1 <1>   0.1500 
 33 H       -2.9700     4.1700    -0.9630 H     1 <1>   0.0800 
 34 H       -3.6910     4.2620     0.6250 H     1 <1>   0.0800 
 35 H       -3.8170     2.7880    -0.3020 H     1 <1>   0.0800 
 36 H       -3.6760    -4.2530     1.0800 H     1 <1>   0.3700 
 37 H       -6.6810    -4.1360     2.0600 H     1 <1>   0.0800 
 38 H       -5.5170    -5.3190     1.5090 H     1 <1>   0.0800 
 39 H       -6.7870    -5.4860    -0.6520 H     1 <1>   0.0800 
 40 H       -8.0080    -4.4200     0.0440 H     1 <1>   0.0800 
 41 H       -8.4330    -7.1900    -0.7460 H     1 <1>   0.0800 
 42 H       -9.6140    -6.1280     0.0240 H     1 <1>   0.0800 
 43 H       -8.5410    -8.7160     1.2020 H     1 <1>   0.0800 
 44 H      -10.1300    -8.5160     0.5030 H     1 <1>   0.0800 
 45 H       -9.7160    -7.6580     1.9680 H     1 <1>   0.0800 
@<TRIPOS>BOND
  1   1   2  2   
  2   1   3  2   
  3   1   4  1   
  4   1   5  1   
  5   4   6  2   
  6   5   7  ar  
  7   5   8  ar  
  8   6   9  1   
  9   6  10  1   
 10   7  11  ar  
 11   7  26  1   
 12   8  12  ar  
 13   8  27  1   
 14   9  13  1   
 15   9  28  1   
 16  10  14  2   
 17  11  15  ar  
 18  11  29  1   
 19  12  15  ar  
 20  12  30  1   
 21  13  16  2   
 22  13  17  1   
 23  14  16  1   
 24  14  31  1   
 25  15  18  1   
 26  16  32  1   
 27  17  33  1   
 28  17  34  1   
 29  17  35  1   
 30  18  19  am  
 31  18  36  1   
 32  19  20  2   
 33  19  21  1   
 34  21  22  1   
 35  21  37  1   
 36  21  38  1   
 37  22  23  1   
 38  22  39  1   
 39  22  40  1   
 40  23  24  1   
 41  24  25  1   
 42  24  41  1   
 43  24  42  1   
 44  25  43  1   
 45  25  44  1   
 46  25  45  1   
@<TRIPOS>SUBSTRUCTURE
  1 ****  11 GROUP 4 **** **** 0

# MOE 2024.06 (io_trps.svl 2023.06)
