@<TRIPOS>MOLECULE
2-(4-Morpholin-4-yl-6-phenylamino-[1,3,5]triazin-2-ylsulfanyl)-acetamide
42 44 1 0 0 
SMALL
USER_CHARGES


@<TRIPOS>ATOM
  1 S       -0.1340     0.0840     0.0340 S.3   1 <1>  -0.3320 
  2 C       -1.6390     1.0410     0.0680 C.ar  1 <1>   0.7220 
  3 C       -0.7170    -1.6820    -0.0830 C.3   1 <1>   0.1310 
  4 N       -1.4730     2.3220     0.1600 N.ar  1 <1>  -0.6200 
  5 N       -2.7480     0.3650    -0.0030 N.ar  1 <1>  -0.6200 
  6 C        0.4440    -2.6650    -0.1270 C.2   1 <1>   0.5690 
  7 C       -2.6030     2.9890     0.1790 C.ar  1 <1>   0.7200 
  8 C       -3.8000     1.1400     0.0370 C.ar  1 <1>   0.7200 
  9 O        0.2080    -3.8410    -0.2350 O.2   1 <1>  -0.5700 
 10 N        1.7200    -2.2420    -0.0470 N.am  1 <1>  -0.8000 
 11 N       -3.7910     2.4420     0.1210 N.ar  1 <1>  -0.6200 
 12 N       -2.5350     4.3590     0.2690 N.pl3 1 <1>  -0.8380 
 13 N       -4.9870     0.4730    -0.0390 N.pl3 1 <1>  -0.6000 
 14 C       -1.2630     5.1180     0.4950 C.3   1 <1>   0.2090 
 15 C       -3.7390     5.2510     0.2080 C.3   1 <1>   0.2090 
 16 C       -6.3150     0.9020     0.0730 C.ar  1 <1>   0.1000 
 17 C       -1.1650     6.3220    -0.4580 C.3   1 <1>   0.1200 
 18 C       -3.4880     6.4490    -0.7240 C.3   1 <1>   0.1200 
 19 C       -7.2950     0.2670    -0.6810 C.ar  1 <1>  -0.1500 
 20 C       -6.7020     1.9260     0.9330 C.ar  1 <1>  -0.1500 
 21 O       -2.3100     7.1250    -0.3770 O.3   1 <1>  -0.5600 
 22 C       -8.6220     0.6460    -0.5880 C.ar  1 <1>  -0.1500 
 23 C       -8.0270     2.3100     1.0290 C.ar  1 <1>  -0.1500 
 24 C       -8.9900     1.6700     0.2670 C.ar  1 <1>  -0.1500 
 25 H       -1.3040    -1.7670    -0.9780 H     1 <1>   0.0800 
 26 H       -1.3300    -1.8750     0.7780 H     1 <1>   0.0800 
 27 H        2.4860    -2.9140    -0.0800 H     1 <1>   0.3700 
 28 H        1.9680    -1.2540     0.0400 H     1 <1>   0.3700 
 29 H       -4.8510    -0.5080    -0.2620 H     1 <1>   0.4000 
 30 H       -0.4000     4.4930     0.3480 H     1 <1>   0.0800 
 31 H       -1.2410     5.4720     1.5110 H     1 <1>   0.0800 
 32 H       -3.9600     5.6130     1.1960 H     1 <1>   0.0800 
 33 H       -4.6040     4.7180    -0.1480 H     1 <1>   0.0800 
 34 H       -1.0490     5.9860    -1.4730 H     1 <1>   0.0800 
 35 H       -0.3180     6.9320    -0.1970 H     1 <1>   0.0800 
 36 H       -4.3010     7.1490    -0.6530 H     1 <1>   0.0800 
 37 H       -3.4080     6.1170    -1.7450 H     1 <1>   0.0800 
 38 H       -7.0180    -0.5270    -1.3500 H     1 <1>   0.1500 
 39 H       -5.9640     2.4220     1.5360 H     1 <1>   0.1500 
 40 H       -9.3690     0.1480    -1.1800 H     1 <1>   0.1500 
 41 H       -8.3100     3.1040     1.6970 H     1 <1>   0.1500 
 42 H      -10.0220     1.9680     0.3410 H     1 <1>   0.1500 
@<TRIPOS>BOND
  1   1   2  1   
  2   1   3  1   
  3   2   4  ar  
  4   2   5  ar  
  5   3   6  1   
  6   3  25  1   
  7   3  26  1   
  8   4   7  ar  
  9   5   8  ar  
 10   6   9  2   
 11   6  10  am  
 12   7  11  ar  
 13   7  12  1   
 14   8  11  ar  
 15   8  13  1   
 16  10  27  1   
 17  10  28  1   
 18  12  14  1   
 19  12  15  1   
 20  13  16  1   
 21  13  29  1   
 22  14  17  1   
 23  14  30  1   
 24  14  31  1   
 25  15  18  1   
 26  15  32  1   
 27  15  33  1   
 28  16  19  ar  
 29  16  20  ar  
 30  17  21  1   
 31  17  34  1   
 32  17  35  1   
 33  18  21  1   
 34  18  36  1   
 35  18  37  1   
 36  19  22  ar  
 37  19  38  1   
 38  20  23  ar  
 39  20  39  1   
 40  22  24  ar  
 41  22  40  1   
 42  23  24  ar  
 43  23  41  1   
 44  24  42  1   
@<TRIPOS>SUBSTRUCTURE
  1 ****   8 GROUP 4 **** **** 0

# MOE 2024.06 (io_trps.svl 2023.06)
