@<TRIPOS>MOLECULE
7-(2-Hydroxy-2-phenyl-ethyl)-3-methyl-8-piperidin-1-yl-3,7-dihydro-purine-2,6-di
51 54 1 0 0 
SMALL
USER_CHARGES


@<TRIPOS>ATOM
  1 O        1.1130     1.7220     0.4670 O.2   1 <1>  -0.5750 
  2 C        2.2420     2.0250     0.1580 C.2   1 <1>   0.6860 
  3 N        3.3310     1.2150     0.4440 N.am  1 <1>  -0.4420 
  4 N        2.4420     3.2060    -0.4950 N.am  1 <1>  -0.4950 
  5 C        4.5860     1.6720     0.0690 C.2   1 <1>   0.4200 
  6 C        3.1580    -0.0800     1.1620 C.3   1 <1>   0.0520 
  7 C        3.6690     3.6610    -0.8860 C.2   1 <1>   0.6990 
  8 N        5.7860     1.0800     0.3020 N.pl3 1 <1>  -0.7040 
  9 C        4.8030     2.8330    -0.5880 C.2   1 <1>   0.2710 
 10 O        3.7350     4.7290    -1.4630 O.2   1 <1>  -0.5750 
 11 C        6.7450     1.8610    -0.1940 C.cat 1 <1>   1.0690 
 12 N        6.1980     2.9400    -0.7680 N.pl3 1 <1>  -0.7670 
 13 N        8.0570     1.5700    -0.0890 N.pl3 1 <1>  -0.5960 
 14 C        6.8370     4.2860    -0.9590 C.3   1 <1>   0.3480 
 15 C        9.0410     1.8380    -1.1790 C.3   1 <1>   0.1600 
 16 C        8.6170     0.7630     1.0340 C.3   1 <1>   0.1600 
 17 C        7.1520     4.9920     0.3850 C.3   1 <1>   0.3370 
 18 C        9.5910     0.5130    -1.7200 C.3   1 <1>  -0.1670 
 19 C        9.1310    -0.5790     0.5070 C.3   1 <1>  -0.1670 
 20 O        6.1780     4.7250     1.3400 O.3   1 <1>  -0.6840 
 21 C        7.2400     6.5000     0.2280 C.ar  1 <1>  -0.1510 
 22 C       10.1640    -0.3740    -0.6070 C.3   1 <1>  -0.1670 
 23 C        6.1210     7.2460    -0.1190 C.ar  1 <1>  -0.1570 
 24 C        8.4500     7.1490     0.4290 C.ar  1 <1>  -0.1570 
 25 C        6.2120     8.6190    -0.2660 C.ar  1 <1>  -0.1570 
 26 C        8.5400     8.5220     0.2820 C.ar  1 <1>  -0.1570 
 27 C        7.4220     9.2570    -0.0660 C.ar  1 <1>  -0.1570 
 28 H        1.6250     3.7800    -0.6880 H     1 <1>   0.3640 
 29 H        2.1200    -0.3700     1.1810 H     1 <1>   0.0720 
 30 H        3.5020     0.0170     2.1770 H     1 <1>   0.0720 
 31 H        3.7130    -0.8560     0.6660 H     1 <1>   0.0720 
 32 H        5.9560     0.1940     0.7650 H     1 <1>   0.4450 
 33 H        6.1820     4.9120    -1.5380 H     1 <1>   0.0720 
 34 H        7.7440     4.2060    -1.5270 H     1 <1>   0.0720 
 35 H        9.8480     2.4390    -0.7930 H     1 <1>   0.0720 
 36 H        8.5780     2.3620    -1.9950 H     1 <1>   0.0720 
 37 H        7.8800     0.6020     1.8010 H     1 <1>   0.0720 
 38 H        9.4350     1.3060     1.4780 H     1 <1>   0.0720 
 39 H        8.0830     4.6160     0.7730 H     1 <1>   0.0720 
 40 H       10.3630     0.7190    -2.4420 H     1 <1>   0.0720 
 41 H        8.8060    -0.0140    -2.2320 H     1 <1>   0.0720 
 42 H        8.3080    -1.1660     0.1380 H     1 <1>   0.0720 
 43 H        9.5850    -1.1280     1.3150 H     1 <1>   0.0720 
 44 H        6.1520     5.4870     1.9600 H     1 <1>   0.3940 
 45 H       11.0460     0.0900    -0.1980 H     1 <1>   0.0720 
 46 H       10.4550    -1.3280    -1.0150 H     1 <1>   0.0720 
 47 H        5.1670     6.7700    -0.2770 H     1 <1>   0.1430 
 48 H        9.3350     6.6010     0.7040 H     1 <1>   0.1430 
 49 H        5.3410     9.1900    -0.5360 H     1 <1>   0.1430 
 50 H        9.4800     9.0220     0.4390 H     1 <1>   0.1430 
 51 H        7.4920    10.3260    -0.1810 H     1 <1>   0.1430 
@<TRIPOS>BOND
  1   1   2  2   
  2   2   3  am  
  3   2   4  am  
  4   3   5  1   
  5   3   6  1   
  6   4   7  am  
  7   4  28  1   
  8   5   8  1   
  9   5   9  2   
 10   6  29  1   
 11   6  30  1   
 12   6  31  1   
 13   7   9  1   
 14   7  10  2   
 15   8  11  ar  
 16   8  32  1   
 17   9  12  1   
 18  11  12  ar  
 19  11  13  ar  
 20  12  14  1   
 21  13  15  1   
 22  13  16  1   
 23  14  17  1   
 24  14  33  1   
 25  14  34  1   
 26  15  18  1   
 27  15  35  1   
 28  15  36  1   
 29  16  19  1   
 30  16  37  1   
 31  16  38  1   
 32  17  20  1   
 33  17  21  1   
 34  17  39  1   
 35  18  22  1   
 36  18  40  1   
 37  18  41  1   
 38  19  22  1   
 39  19  42  1   
 40  19  43  1   
 41  20  44  1   
 42  21  23  ar  
 43  21  24  ar  
 44  22  45  1   
 45  22  46  1   
 46  23  25  ar  
 47  23  47  1   
 48  24  26  ar  
 49  24  48  1   
 50  25  27  ar  
 51  25  49  1   
 52  26  27  ar  
 53  26  50  1   
 54  27  51  1   
@<TRIPOS>SUBSTRUCTURE
  1 ****  12 GROUP 4 **** **** 0

# MOE 2024.06 (io_trps.svl 2023.06)
