@<TRIPOS>MOLECULE
NONAME
42 44 1 0 0 
SMALL
USER_CHARGES


@<TRIPOS>ATOM
  1 CL       1.8350    -0.9350    -4.1990 Cl    1 <1>  -0.1770 
  2 C        2.7280    -1.4780    -2.8010 C.ar  1 <1>   0.1770 
  3 C        3.5220    -0.5740    -2.1170 C.ar  1 <1>  -0.1500 
  4 C        2.6270    -2.8030    -2.4050 C.ar  1 <1>  -0.1500 
  5 C        4.2230    -1.0300    -1.0130 C.ar  1 <1>  -0.1440 
  6 C        3.3320    -3.2470    -1.2960 C.ar  1 <1>  -0.1500 
  7 C        4.1330    -2.3490    -0.6010 C.ar  1 <1>   0.1170 
  8 C        5.1600    -0.2920    -0.0690 C.3   1 <1>   0.7350 
  9 N        4.9210    -2.5750     0.5320 N.am  1 <1>  -0.4770 
 10 S        6.6080     0.2860    -1.0270 S.3   1 <1>  -0.3710 
 11 N        4.6130     0.9770     0.5000 N.am  1 <1>  -0.2980 
 12 C        5.5420    -1.4140     0.9140 C.2   1 <1>   0.5690 
 13 C        4.9810    -3.8390     1.2970 C.3   1 <1>   0.1400 
 14 C        6.3260     1.9710    -0.5770 C.2   1 <1>   0.6510 
 15 N        5.3090     2.1570     0.1550 N.2   1 <1>  -0.5120 
 16 C        3.5250     0.9180     1.3350 C.2   1 <1>   0.5690 
 17 O        6.2950    -1.2960     1.8590 O.2   1 <1>  -0.5700 
 18 C        5.9900    -4.7900     0.6480 C.3   1 <1>  -0.1600 
 19 N        7.1650     2.9590    -1.0470 N.am  1 <1>  -0.4900 
 20 O        2.9530    -0.1140     1.5910 O.2   1 <1>  -0.5700 
 21 C        3.0060     2.1920     1.9640 C.3   1 <1>  -0.1790 
 22 C        6.0660    -6.1220     1.4020 C.3   1 <1>  -0.2400 
 23 C        8.3620     3.0110    -1.6770 C.2   1 <1>   0.5690 
 24 O        8.7940     4.0860    -1.9990 O.2   1 <1>  -0.5700 
 25 C        9.2030     1.7930    -1.9810 C.3   1 <1>  -0.1790 
 26 H        3.5820     0.4500    -2.4420 H     1 <1>   0.1500 
 27 H        1.9980    -3.4760    -2.9610 H     1 <1>   0.1500 
 28 H        3.2590    -4.2710    -0.9780 H     1 <1>   0.1500 
 29 H        4.0020    -4.2860     1.3230 H     1 <1>   0.0800 
 30 H        5.2790    -3.6280     2.3110 H     1 <1>   0.0800 
 31 H        6.9620    -4.3280     0.6520 H     1 <1>   0.0800 
 32 H        5.7050    -4.9800    -0.3730 H     1 <1>   0.0800 
 33 H        6.8040     3.8890    -0.8510 H     1 <1>   0.3700 
 34 H        2.1590     1.9750     2.5890 H     1 <1>   0.0800 
 35 H        2.7090     2.8800     1.1960 H     1 <1>   0.0800 
 36 H        3.7780     2.6380     2.5630 H     1 <1>   0.0800 
 37 H        6.3710    -5.9600     2.4220 H     1 <1>   0.0800 
 38 H        6.7840    -6.7710     0.9320 H     1 <1>   0.0800 
 39 H        5.1080    -6.6140     1.4000 H     1 <1>   0.0800 
 40 H        9.3430     1.2050    -1.0930 H     1 <1>   0.0800 
 41 H       10.1690     2.1020    -2.3380 H     1 <1>   0.0800 
 42 H        8.7330     1.2020    -2.7440 H     1 <1>   0.0800 
@<TRIPOS>BOND
  1   1   2  1   
  2   2   3  ar  
  3   2   4  ar  
  4   3   5  ar  
  5   3  26  1   
  6   4   6  ar  
  7   4  27  1   
  8   5   7  ar  
  9   5   8  1   
 10   6   7  ar  
 11   6  28  1   
 12   7   9  1   
 13   8  10  1   
 14   8  11  1   
 15   8  12  1   
 16   9  12  am  
 17   9  13  1   
 18  10  14  1   
 19  11  15  1   
 20  11  16  am  
 21  12  17  2   
 22  13  18  1   
 23  13  29  1   
 24  13  30  1   
 25  14  15  2   
 26  14  19  1   
 27  16  20  2   
 28  16  21  1   
 29  18  22  1   
 30  18  31  1   
 31  18  32  1   
 32  19  23  am  
 33  19  33  1   
 34  21  34  1   
 35  21  35  1   
 36  21  36  1   
 37  22  37  1   
 38  22  38  1   
 39  22  39  1   
 40  23  24  2   
 41  23  25  1   
 42  25  40  1   
 43  25  41  1   
 44  25  42  1   
@<TRIPOS>SUBSTRUCTURE
  1 ****   8 GROUP 4 **** **** 0

# MOE 2024.06 (io_trps.svl 2023.06)
