@<TRIPOS>MOLECULE
(E)-N-Butyl-N-methyl-2-(2-oxo-2H-pyridin-1-yl)-3-p-tolyl-acrylamide
48 49 1 0 0 
SMALL
USER_CHARGES


@<TRIPOS>ATOM
  1 O       -0.5960     1.4980    -3.4710 O.2   1 <1>  -0.5700 
  2 C       -1.3360     0.7350    -2.8630 C.2   1 <1>   0.6160 
  3 N       -2.0850     1.1660    -1.7650 N.am  1 <1>  -0.2780 
  4 C       -1.4290    -0.6290    -3.2620 C.2   1 <1>  -0.1360 
  5 C       -2.1110     2.5280    -1.3680 C.2   1 <1>   0.1230 
  6 C       -2.8910     0.2400    -1.1070 C.2   1 <1>  -0.0410 
  7 C       -2.2180    -1.5150    -2.6030 C.2   1 <1>  -0.1500 
  8 C       -3.4280     3.1360    -1.2750 C.2   1 <1>   0.6160 
  9 C       -0.9500     3.1760    -1.0720 C.2   1 <1>  -0.1780 
 10 C       -2.9680    -1.0590    -1.4930 C.2   1 <1>  -0.1500 
 11 O       -4.0730     3.3180    -2.2930 O.2   1 <1>  -0.5700 
 12 N       -3.9930     3.4720    -0.0520 N.am  1 <1>  -0.6600 
 13 C       -0.7620     4.5520    -0.7160 C.ar  1 <1>   0.0280 
 14 C       -5.3810     4.0220     0.0440 C.3   1 <1>   0.1400 
 15 C       -3.2930     3.2600     1.2490 C.3   1 <1>   0.0600 
 16 C        0.1000     4.9020     0.3210 C.ar  1 <1>  -0.1500 
 17 C       -1.4110     5.5830    -1.3910 C.ar  1 <1>  -0.1500 
 18 C       -5.4480     5.3530     0.8100 C.3   1 <1>  -0.1600 
 19 C        0.2900     6.2230     0.6820 C.ar  1 <1>  -0.1500 
 20 C       -1.2210     6.9050    -1.0360 C.ar  1 <1>  -0.1500 
 21 C       -4.5460     6.4400     0.2100 C.3   1 <1>  -0.1600 
 22 C       -0.3720     7.2350     0.0060 C.ar  1 <1>  -0.1430 
 23 C       -4.7440     7.7840     0.9150 C.3   1 <1>  -0.2400 
 24 C       -0.1760     8.6880     0.3990 C.3   1 <1>  -0.0970 
 25 H       -0.8380    -0.9110    -4.1120 H     1 <1>   0.1500 
 26 H       -3.4650     0.6020    -0.2700 H     1 <1>   0.1500 
 27 H       -2.2940    -2.5480    -2.8970 H     1 <1>   0.1500 
 28 H       -0.0320     2.6190    -1.1100 H     1 <1>   0.1500 
 29 H       -3.5970    -1.7640    -0.9760 H     1 <1>   0.1500 
 30 H       -5.7880     4.1790    -0.9410 H     1 <1>   0.0800 
 31 H       -6.0070     3.2970     0.5340 H     1 <1>   0.0800 
 32 H       -2.5360     2.5020     1.1650 H     1 <1>   0.0800 
 33 H       -3.9990     2.9510     2.0000 H     1 <1>   0.0800 
 34 H       -2.8280     4.1800     1.5600 H     1 <1>   0.0800 
 35 H        0.6250     4.1280     0.8500 H     1 <1>   0.1500 
 36 H       -2.0710     5.3460    -2.2090 H     1 <1>   0.1500 
 37 H       -6.4680     5.6950     0.7840 H     1 <1>   0.0800 
 38 H       -5.1930     5.1930     1.8420 H     1 <1>   0.0800 
 39 H        0.9570     6.4620     1.4910 H     1 <1>   0.1500 
 40 H       -1.7410     7.6770    -1.5760 H     1 <1>   0.1500 
 41 H       -3.5180     6.1440     0.3130 H     1 <1>   0.0800 
 42 H       -4.7570     6.5480    -0.8400 H     1 <1>   0.0800 
 43 H       -4.5160     7.6950     1.9630 H     1 <1>   0.0800 
 44 H       -5.7590     8.1220     0.8050 H     1 <1>   0.0800 
 45 H       -4.0890     8.5200     0.4850 H     1 <1>   0.0800 
 46 H        0.7530     8.8170     0.9240 H     1 <1>   0.0800 
 47 H       -0.9830     9.0030     1.0350 H     1 <1>   0.0800 
 48 H       -0.1600     9.3100    -0.4780 H     1 <1>   0.0800 
@<TRIPOS>BOND
  1   1   2  2   
  2   2   3  am  
  3   2   4  1   
  4   3   5  1   
  5   3   6  1   
  6   4   7  2   
  7   4  25  1   
  8   5   8  1   
  9   5   9  2   
 10   6  10  2   
 11   6  26  1   
 12   7  10  1   
 13   7  27  1   
 14   8  11  2   
 15   8  12  am  
 16   9  13  1   
 17   9  28  1   
 18  10  29  1   
 19  12  14  1   
 20  12  15  1   
 21  13  16  ar  
 22  13  17  ar  
 23  14  18  1   
 24  14  30  1   
 25  14  31  1   
 26  15  32  1   
 27  15  33  1   
 28  15  34  1   
 29  16  19  ar  
 30  16  35  1   
 31  17  20  ar  
 32  17  36  1   
 33  18  21  1   
 34  18  37  1   
 35  18  38  1   
 36  19  22  ar  
 37  19  39  1   
 38  20  22  ar  
 39  20  40  1   
 40  21  23  1   
 41  21  41  1   
 42  21  42  1   
 43  22  24  1   
 44  23  43  1   
 45  23  44  1   
 46  23  45  1   
 47  24  46  1   
 48  24  47  1   
 49  24  48  1   
@<TRIPOS>SUBSTRUCTURE
  1 ****   5 GROUP 4 **** **** 0

# MOE 2024.06 (io_trps.svl 2023.06)
