@<TRIPOS>MOLECULE
1-(4-Ethoxy-benzenesulfonyl)-piperidine-3-carboxylic acid (2-methoxy-1-methyl-et
54 55 1 0 0 
SMALL
USER_CHARGES


@<TRIPOS>ATOM
  1 S        0.1500    -1.1480     1.8580 S.o2  1 <1>   1.4470 
  2 O       -0.7020    -2.2160     2.3340 O.2   1 <1>  -0.6500 
  3 O        1.2030    -0.6470     2.7160 O.2   1 <1>  -0.6500 
  4 N        0.9110    -1.7190     0.4540 N.am  1 <1>  -0.8490 
  5 C       -0.8780     0.2170     1.2480 C.ar  1 <1>  -0.0090 
  6 C        1.9000    -0.7710    -0.1100 C.3   1 <1>   0.1960 
  7 C        1.3960    -3.0970     0.6320 C.3   1 <1>   0.1960 
  8 C       -0.8090     1.4840     1.8180 C.ar  1 <1>  -0.1500 
  9 C       -1.7630     0.0290     0.1920 C.ar  1 <1>  -0.1500 
 10 C        3.3450    -1.1630     0.2320 C.3   1 <1>  -0.0190 
 11 C        2.4390    -3.4660    -0.4290 C.3   1 <1>  -0.1600 
 12 C       -1.5900     2.5250     1.3460 C.ar  1 <1>  -0.1500 
 13 C       -2.5480     1.0630    -0.2880 C.ar  1 <1>  -0.1500 
 14 C        4.3160    -0.1030    -0.2650 C.2   1 <1>   0.5690 
 15 C        3.6800    -2.5560    -0.3480 C.3   1 <1>  -0.1600 
 16 C       -2.4640     2.3250     0.2910 C.ar  1 <1>   0.0830 
 17 O        4.1470     0.3950    -1.3520 O.2   1 <1>  -0.5700 
 18 N        5.3630     0.2460     0.5240 N.am  1 <1>  -0.7300 
 19 O       -3.1910     3.3940    -0.1130 O.3   1 <1>  -0.3630 
 20 C        6.3550     1.2900     0.1960 C.3   1 <1>   0.2200 
 21 C       -4.1130     3.3000    -1.1740 C.3   1 <1>   0.1200 
 22 C        7.3620     0.7490    -0.8340 C.3   1 <1>   0.1200 
 23 C        7.0140     1.7200     1.5070 C.3   1 <1>  -0.2400 
 24 C       -4.7550     4.6710    -1.3650 C.3   1 <1>  -0.2400 
 25 O        8.3740     1.6870    -1.0620 O.3   1 <1>  -0.5600 
 26 C        9.2830     1.3060    -2.0420 C.3   1 <1>   0.0400 
 27 H        1.7040     0.2330     0.2300 H     1 <1>   0.0800 
 28 H        1.7920    -0.7670    -1.1820 H     1 <1>   0.0800 
 29 H        0.5600    -3.7740     0.5770 H     1 <1>   0.0800 
 30 H        1.8430    -3.2030     1.6080 H     1 <1>   0.0800 
 31 H       -0.1360     1.6600     2.6400 H     1 <1>   0.1500 
 32 H       -1.8330    -0.9470    -0.2610 H     1 <1>   0.1500 
 33 H        3.4220    -1.2000     1.3030 H     1 <1>   0.0800 
 34 H        1.9800    -3.3750    -1.3990 H     1 <1>   0.0800 
 35 H        2.7340    -4.4930    -0.3060 H     1 <1>   0.0800 
 36 H       -1.5270     3.5010     1.7930 H     1 <1>   0.1500 
 37 H       -3.2140     0.8680    -1.1070 H     1 <1>   0.1500 
 38 H        4.4320    -3.0160     0.2700 H     1 <1>   0.0800 
 39 H        4.0900    -2.4530    -1.3390 H     1 <1>   0.0800 
 40 H        5.4780    -0.1810     1.4440 H     1 <1>   0.3700 
 41 H        5.8410     2.1300    -0.2420 H     1 <1>   0.0800 
 42 H       -4.8550     2.5650    -0.9160 H     1 <1>   0.0800 
 43 H       -3.5820     3.0020    -2.0610 H     1 <1>   0.0800 
 44 H        6.8560     0.5590    -1.7660 H     1 <1>   0.0800 
 45 H        7.8170    -0.1550    -0.4700 H     1 <1>   0.0800 
 46 H        7.5610     0.9030     1.9440 H     1 <1>   0.0800 
 47 H        6.2720     2.0750     2.2000 H     1 <1>   0.0800 
 48 H        7.7040     2.5230     1.3180 H     1 <1>   0.0800 
 49 H       -5.2680     4.9670    -0.4680 H     1 <1>   0.0800 
 50 H       -5.4650     4.6320    -2.1700 H     1 <1>   0.0800 
 51 H       -4.0030     5.4010    -1.6060 H     1 <1>   0.0800 
 52 H       10.0170     2.0860    -2.1390 H     1 <1>   0.0800 
 53 H        8.7640     1.1780    -2.9770 H     1 <1>   0.0800 
 54 H        9.7630     0.3890    -1.7460 H     1 <1>   0.0800 
@<TRIPOS>BOND
  1   1   2  2   
  2   1   3  2   
  3   1   4  am  
  4   1   5  1   
  5   4   6  1   
  6   4   7  1   
  7   5   8  ar  
  8   5   9  ar  
  9   6  10  1   
 10   6  27  1   
 11   6  28  1   
 12   7  11  1   
 13   7  29  1   
 14   7  30  1   
 15   8  12  ar  
 16   8  31  1   
 17   9  13  ar  
 18   9  32  1   
 19  10  14  1   
 20  10  15  1   
 21  10  33  1   
 22  11  15  1   
 23  11  34  1   
 24  11  35  1   
 25  12  16  ar  
 26  12  36  1   
 27  13  16  ar  
 28  13  37  1   
 29  14  17  2   
 30  14  18  am  
 31  15  38  1   
 32  15  39  1   
 33  16  19  1   
 34  18  20  1   
 35  18  40  1   
 36  19  21  1   
 37  20  22  1   
 38  20  23  1   
 39  20  41  1   
 40  21  24  1   
 41  21  42  1   
 42  21  43  1   
 43  22  25  1   
 44  22  44  1   
 45  22  45  1   
 46  23  46  1   
 47  23  47  1   
 48  23  48  1   
 49  24  49  1   
 50  24  50  1   
 51  24  51  1   
 52  25  26  1   
 53  26  52  1   
 54  26  53  1   
 55  26  54  1   
@<TRIPOS>SUBSTRUCTURE
  1 ****   6 GROUP 4 **** **** 0

# MOE 2024.06 (io_trps.svl 2023.06)
