@<TRIPOS>MOLECULE
4-[3-(4-Ethoxy-3-methoxy-phenyl)-[1,2,4]oxadiazol-5-yl]-1-morpholin-4-yl-butan-1
52 54 1 0 0 
SMALL
USER_CHARGES


@<TRIPOS>ATOM
  1 O        0.2600    -0.0510    -0.1530 O.2   1 <1>  -0.5700 
  2 C        1.4600     0.0690    -0.2270 C.2   1 <1>   0.5690 
  3 N        2.0460     1.2990    -0.3860 N.am  1 <1>  -0.6600 
  4 C        2.3260    -1.1850    -0.1380 C.3   1 <1>  -0.0990 
  5 C        1.2220     2.5400    -0.5180 C.3   1 <1>   0.1400 
  6 C        3.5150     1.5780    -0.4150 C.3   1 <1>   0.1400 
  7 C        1.5320    -2.5070    -0.1070 C.3   1 <1>  -0.1600 
  8 C        1.7080     3.6230     0.4580 C.3   1 <1>   0.1200 
  9 C        3.8690     2.7150     0.5600 C.3   1 <1>   0.1200 
 10 C        2.4570    -3.7350    -0.0320 C.3   1 <1>   0.0200 
 11 O        3.0830     3.8440     0.3080 O.3   1 <1>  -0.5600 
 12 C        1.7080    -5.0590     0.0020 C.2   1 <1>   0.2980 
 13 O        2.4140    -6.1580     0.0620 O.3   1 <1>  -0.0190 
 14 N        0.4510    -5.2250    -0.0210 N.2   1 <1>  -0.5650 
 15 N        1.5280    -7.1040     0.0790 N.2   1 <1>  -0.4100 
 16 C        0.3650    -6.5570     0.0300 C.2   1 <1>   0.4620 
 17 C       -0.9070    -7.2610     0.0280 C.ar  1 <1>   0.0540 
 18 C       -0.9630    -8.6550     0.0770 C.ar  1 <1>  -0.1500 
 19 C       -2.1230    -6.5770    -0.0230 C.ar  1 <1>  -0.1500 
 20 C       -2.1700    -9.3440     0.0760 C.ar  1 <1>   0.0820 
 21 C       -3.3340    -7.2440    -0.0250 C.ar  1 <1>  -0.1500 
 22 O       -2.2360   -10.7070     0.1230 O.3   1 <1>  -0.3630 
 23 C       -3.3720    -8.6340     0.0240 C.ar  1 <1>   0.0820 
 24 C       -1.0760   -11.5080     0.1770 C.3   1 <1>   0.0400 
 25 O       -4.5390    -9.3380     0.0240 O.3   1 <1>  -0.3630 
 26 C       -5.7940    -8.7030    -0.0250 C.3   1 <1>   0.1200 
 27 C       -6.8690    -9.7850    -0.0100 C.3   1 <1>  -0.2400 
 28 H        2.9190    -1.1140     0.7550 H     1 <1>   0.0800 
 29 H        2.9830    -1.1970    -0.9880 H     1 <1>   0.0800 
 30 H        0.1840     2.3320    -0.3240 H     1 <1>   0.0800 
 31 H        1.3000     2.9100    -1.5250 H     1 <1>   0.0800 
 32 H        3.7970     1.8720    -1.4110 H     1 <1>   0.0800 
 33 H        4.0840     0.7060    -0.1520 H     1 <1>   0.0800 
 34 H        0.9210    -2.5750    -0.9920 H     1 <1>   0.0800 
 35 H        0.8720    -2.5070     0.7440 H     1 <1>   0.0800 
 36 H        1.5130     3.3290     1.4750 H     1 <1>   0.0800 
 37 H        1.2020     4.5520     0.2630 H     1 <1>   0.0800 
 38 H        4.8990     3.0010     0.4400 H     1 <1>   0.0800 
 39 H        3.7110     2.4050     1.5780 H     1 <1>   0.0800 
 40 H        3.0640    -3.6710     0.8540 H     1 <1>   0.0800 
 41 H        3.1110    -3.7430    -0.8850 H     1 <1>   0.0800 
 42 H       -0.0330    -9.1890     0.1160 H     1 <1>   0.1500 
 43 H       -2.1200    -5.5010    -0.0610 H     1 <1>   0.1500 
 44 H       -4.2340    -6.6620    -0.0650 H     1 <1>   0.1500 
 45 H       -1.3850   -12.5370     0.2070 H     1 <1>   0.0800 
 46 H       -0.5250   -11.2650     1.0680 H     1 <1>   0.0800 
 47 H       -0.4870   -11.3290    -0.7050 H     1 <1>   0.0800 
 48 H       -5.8480    -8.1260    -0.9330 H     1 <1>   0.0800 
 49 H       -5.8860    -8.0620     0.8350 H     1 <1>   0.0800 
 50 H       -6.7540   -10.4300    -0.8620 H     1 <1>   0.0800 
 51 H       -7.8440    -9.3340    -0.0470 H     1 <1>   0.0800 
 52 H       -6.7920   -10.3670     0.8920 H     1 <1>   0.0800 
@<TRIPOS>BOND
  1   1   2  2   
  2   2   3  am  
  3   2   4  1   
  4   3   5  1   
  5   3   6  1   
  6   4   7  1   
  7   4  28  1   
  8   4  29  1   
  9   5   8  1   
 10   5  30  1   
 11   5  31  1   
 12   6   9  1   
 13   6  32  1   
 14   6  33  1   
 15   7  10  1   
 16   7  34  1   
 17   7  35  1   
 18   8  11  1   
 19   8  36  1   
 20   8  37  1   
 21   9  11  1   
 22   9  38  1   
 23   9  39  1   
 24  10  12  1   
 25  10  40  1   
 26  10  41  1   
 27  12  13  1   
 28  12  14  2   
 29  13  15  1   
 30  14  16  1   
 31  15  16  2   
 32  16  17  1   
 33  17  18  ar  
 34  17  19  ar  
 35  18  20  ar  
 36  18  42  1   
 37  19  21  ar  
 38  19  43  1   
 39  20  22  1   
 40  20  23  ar  
 41  21  23  ar  
 42  21  44  1   
 43  22  24  1   
 44  23  25  1   
 45  24  45  1   
 46  24  46  1   
 47  24  47  1   
 48  25  26  1   
 49  26  27  1   
 50  26  48  1   
 51  26  49  1   
 52  27  50  1   
 53  27  51  1   
 54  27  52  1   
@<TRIPOS>SUBSTRUCTURE
  1 ****  14 GROUP 4 **** **** 0

# MOE 2024.06 (io_trps.svl 2023.06)
