@<TRIPOS>MOLECULE
1-(4-Methoxy-3-methyl-benzenesulfonyl)-piperidine-4-carboxylic acid (pyridin-4-y
53 55 1 0 0 
SMALL
USER_CHARGES


@<TRIPOS>ATOM
  1 S        0.2660    -0.5440    -1.9510 S.o2  1 <1>   1.4470 
  2 O        0.7550    -1.7070    -2.6580 O.2   1 <1>  -0.6500 
  3 O       -0.1490     0.6200    -2.7070 O.2   1 <1>  -0.6500 
  4 N        1.5140    -0.0230    -0.9260 N.am  1 <1>  -0.8490 
  5 C       -1.0360    -1.0490    -0.7940 C.ar  1 <1>  -0.0090 
  6 C        1.1700     1.2240    -0.2350 C.3   1 <1>   0.1960 
  7 C        2.7790     0.0960    -1.6530 C.3   1 <1>   0.1960 
  8 C       -2.3270    -0.5440    -0.8930 C.ar  1 <1>  -0.1500 
  9 C       -0.7700    -1.9530     0.2260 C.ar  1 <1>  -0.1500 
 10 C        2.2500     1.5720     0.7900 C.3   1 <1>  -0.1600 
 11 C        3.9200     0.4190    -0.6830 C.3   1 <1>  -0.1600 
 12 C       -3.3250    -0.9170    -0.0070 C.ar  1 <1>  -0.1430 
 13 C       -1.7520    -2.3380     1.1210 C.ar  1 <1>  -0.1500 
 14 C        3.6320     1.6960     0.1220 C.3   1 <1>  -0.0190 
 15 C       -3.0390    -1.8200     1.0120 C.ar  1 <1>   0.0820 
 16 C       -4.7240    -0.3360    -0.1550 C.3   1 <1>  -0.0970 
 17 C        4.7540     1.9760     1.1210 C.2   1 <1>   0.5690 
 18 O       -4.0440    -2.1570     1.8610 O.3   1 <1>  -0.3630 
 19 O        4.6860     1.5510     2.2480 O.2   1 <1>  -0.5700 
 20 N        5.8280     2.6860     0.6950 N.am  1 <1>  -0.7300 
 21 C       -3.8540    -3.0800     2.9100 C.3   1 <1>   0.0400 
 22 C        7.0480     2.9150     1.4900 C.3   1 <1>   0.2840 
 23 C        8.2220     2.3510     0.7120 C.ar  1 <1>  -0.1430 
 24 C        9.1660     3.1540     0.1040 C.ar  1 <1>  -0.1500 
 25 C        8.3970     0.9880     0.5730 C.ar  1 <1>  -0.1500 
 26 C       10.2090     2.5700    -0.5970 C.ar  1 <1>   0.1600 
 27 C        9.4750     0.5070    -0.1500 C.ar  1 <1>   0.1600 
 28 N       10.3840     1.2670    -0.7400 N.ar  1 <1>  -0.6200 
 29 H        0.2300     1.1090     0.2790 H     1 <1>   0.0800 
 30 H        1.0670     2.0260    -0.9480 H     1 <1>   0.0800 
 31 H        2.6970     0.8640    -2.4050 H     1 <1>   0.0800 
 32 H        3.0050    -0.8350    -2.1470 H     1 <1>   0.0800 
 33 H       -2.5500     0.1540    -1.6820 H     1 <1>   0.1500 
 34 H        0.2250    -2.3580     0.3190 H     1 <1>   0.1500 
 35 H        2.2720     0.8020     1.5420 H     1 <1>   0.0800 
 36 H        1.9990     2.4970     1.2770 H     1 <1>   0.0800 
 37 H        4.8340     0.5330    -1.2370 H     1 <1>   0.0800 
 38 H        4.0460    -0.4120    -0.0100 H     1 <1>   0.0800 
 39 H       -1.4950    -3.0390     1.8920 H     1 <1>   0.1500 
 40 H        3.5900     2.5250    -0.5620 H     1 <1>   0.0800 
 41 H       -4.7810     0.3420    -0.9870 H     1 <1>   0.0800 
 42 H       -4.9950     0.1930     0.7400 H     1 <1>   0.0800 
 43 H       -5.4320    -1.1310    -0.3120 H     1 <1>   0.0800 
 44 H        5.9070     2.9600    -0.2840 H     1 <1>   0.3700 
 45 H       -4.7870    -3.1850     3.4340 H     1 <1>   0.0800 
 46 H       -3.1020    -2.6990     3.5780 H     1 <1>   0.0800 
 47 H       -3.5600    -4.0270     2.4930 H     1 <1>   0.0800 
 48 H        6.9740     2.4260     2.4480 H     1 <1>   0.0800 
 49 H        7.1750     3.9700     1.6580 H     1 <1>   0.0800 
 50 H        9.1030     4.2250     0.1660 H     1 <1>   0.1500 
 51 H        7.7000     0.3010     1.0200 H     1 <1>   0.1500 
 52 H       10.9380     3.2100    -1.0650 H     1 <1>   0.1500 
 53 H        9.5960    -0.5580    -0.2480 H     1 <1>   0.1500 
@<TRIPOS>BOND
  1   1   2  2   
  2   1   3  2   
  3   1   4  am  
  4   1   5  1   
  5   4   6  1   
  6   4   7  1   
  7   5   8  ar  
  8   5   9  ar  
  9   6  10  1   
 10   6  29  1   
 11   6  30  1   
 12   7  11  1   
 13   7  31  1   
 14   7  32  1   
 15   8  12  ar  
 16   8  33  1   
 17   9  13  ar  
 18   9  34  1   
 19  10  14  1   
 20  10  35  1   
 21  10  36  1   
 22  11  14  1   
 23  11  37  1   
 24  11  38  1   
 25  12  15  ar  
 26  12  16  1   
 27  13  15  ar  
 28  13  39  1   
 29  14  17  1   
 30  14  40  1   
 31  15  18  1   
 32  16  41  1   
 33  16  42  1   
 34  16  43  1   
 35  17  19  2   
 36  17  20  am  
 37  18  21  1   
 38  20  22  1   
 39  20  44  1   
 40  21  45  1   
 41  21  46  1   
 42  21  47  1   
 43  22  23  1   
 44  22  48  1   
 45  22  49  1   
 46  23  24  ar  
 47  23  25  ar  
 48  24  26  ar  
 49  24  50  1   
 50  25  27  ar  
 51  25  51  1   
 52  26  28  ar  
 53  26  52  1   
 54  27  28  ar  
 55  27  53  1   
@<TRIPOS>SUBSTRUCTURE
  1 ****   4 GROUP 4 **** **** 0

# MOE 2024.06 (io_trps.svl 2023.06)
