@<TRIPOS>MOLECULE
1-(2-Cyano-ethyl)-3-(3,4-dimethyl-phenyl)-1H-pyrazole-4-carboxylic acid methyl e
38 39 1 0 0 
SMALL
USER_CHARGES


@<TRIPOS>ATOM
  1 O        0.4620    -0.6900     2.6590 O.2   1 <1>  -0.5700 
  2 C        1.0200    -1.3460     1.8090 C.2   1 <1>   0.8060 
  3 O        2.2160    -0.9130     1.3970 O.3   1 <1>  -0.4300 
  4 C        0.4480    -2.5370     1.2380 C.2   1 <1>  -0.0860 
  5 C        2.8710    -1.4060     0.2460 C.3   1 <1>   0.0400 
  6 C       -0.7860    -2.6220     0.5680 C.2   1 <1>   0.2350 
  7 C        0.9200    -3.8150     1.2250 C.2   1 <1>  -0.3020 
  8 N       -1.0310    -3.8530     0.1950 N.2   1 <1>  -0.7070 
  9 C       -1.6930    -1.5260     0.2910 C.ar  1 <1>   0.0540 
 10 N        0.0160    -4.5770     0.6020 N.pl3 1 <1>   0.3140 
 11 C       -1.2500    -0.2830    -0.1580 C.ar  1 <1>  -0.1500 
 12 C       -3.0640    -1.6920     0.4540 C.ar  1 <1>  -0.1500 
 13 C        0.0880    -6.0320     0.3740 C.3   1 <1>   0.0960 
 14 C       -2.1250     0.7590    -0.4190 C.ar  1 <1>  -0.1430 
 15 C       -3.9500    -0.6640     0.1940 C.ar  1 <1>  -0.1500 
 16 C       -0.3160    -6.3780    -1.0630 C.3   1 <1>   0.0400 
 17 C       -3.4910     0.5680    -0.2420 C.ar  1 <1>  -0.1430 
 18 C       -1.5670     2.0930    -0.8940 C.3   1 <1>  -0.0970 
 19 C       -0.1210    -7.8300    -1.2990 C.1   1 <1>   0.3570 
 20 C       -4.4950     1.6790    -0.5140 C.3   1 <1>  -0.0970 
 21 N        0.0520    -8.9430    -1.4460 N.1   1 <1>  -0.5570 
 22 H        3.7270    -0.7830     0.0560 H     1 <1>   0.0800 
 23 H        2.1960    -1.3630    -0.5920 H     1 <1>   0.0800 
 24 H        3.1900    -2.4160     0.4270 H     1 <1>   0.0800 
 25 H        1.8340    -4.1980     1.6400 H     1 <1>   0.1500 
 26 H       -0.1990    -0.1290    -0.3070 H     1 <1>   0.1500 
 27 H       -3.4340    -2.6450     0.7890 H     1 <1>   0.1500 
 28 H       -0.5730    -6.5150     1.0690 H     1 <1>   0.0800 
 29 H        1.0940    -6.3600     0.5660 H     1 <1>   0.0800 
 30 H       -5.0030    -0.8320     0.3350 H     1 <1>   0.1500 
 31 H        0.2890    -5.8310    -1.7630 H     1 <1>   0.0800 
 32 H       -1.3510    -6.1380    -1.2280 H     1 <1>   0.0800 
 33 H       -0.4950     2.0630    -0.9600 H     1 <1>   0.0800 
 34 H       -1.8380     2.8700    -0.2020 H     1 <1>   0.0800 
 35 H       -1.9600     2.3320    -1.8650 H     1 <1>   0.0800 
 36 H       -4.2960     2.5180     0.1270 H     1 <1>   0.0800 
 37 H       -5.4990     1.3440    -0.3300 H     1 <1>   0.0800 
 38 H       -4.4260     1.9940    -1.5400 H     1 <1>   0.0800 
@<TRIPOS>BOND
  1   1   2  2   
  2   2   3  1   
  3   2   4  1   
  4   3   5  1   
  5   4   6  1   
  6   4   7  2   
  7   5  22  1   
  8   5  23  1   
  9   5  24  1   
 10   6   8  2   
 11   6   9  1   
 12   7  10  1   
 13   7  25  1   
 14   8  10  1   
 15   9  11  ar  
 16   9  12  ar  
 17  10  13  1   
 18  11  14  ar  
 19  11  26  1   
 20  12  15  ar  
 21  12  27  1   
 22  13  16  1   
 23  13  28  1   
 24  13  29  1   
 25  14  17  ar  
 26  14  18  1   
 27  15  17  ar  
 28  15  30  1   
 29  16  19  1   
 30  16  31  1   
 31  16  32  1   
 32  17  20  1   
 33  18  33  1   
 34  18  34  1   
 35  18  35  1   
 36  19  21  3   
 37  20  36  1   
 38  20  37  1   
 39  20  38  1   
@<TRIPOS>SUBSTRUCTURE
  1 ****   6 GROUP 4 **** **** 0

# MOE 2024.06 (io_trps.svl 2023.06)
