@<TRIPOS>MOLECULE
tert-Butyl-[4-(2-chloro-6-methyl-pyrimidin-4-ylsulfanyl)-6-morpholin-4-yl-[1,3,5
48 50 1 0 0 
SMALL
USER_CHARGES


@<TRIPOS>ATOM
  1 CL      -0.8820    -0.9830     2.0980 Cl    1 <1>  -0.1770 
  2 C       -0.4540    -2.1850     0.9190 C.ar  1 <1>   0.7970 
  3 N        0.7490    -2.7080     1.0600 N.ar  1 <1>  -0.6200 
  4 N       -1.3820    -2.4410     0.0100 N.ar  1 <1>  -0.6200 
  5 C        1.0270    -3.6170     0.1580 C.ar  1 <1>   0.4120 
  6 C       -1.0540    -3.3450    -0.8840 C.ar  1 <1>   0.1670 
  7 S        2.6450    -4.3640     0.2990 S.3   1 <1>  -0.2030 
  8 C        0.1680    -3.9700    -0.8570 C.ar  1 <1>  -0.1500 
  9 C       -2.0840    -3.6730    -1.9450 C.3   1 <1>  -0.0960 
 10 C        2.4300    -6.1100     0.0020 C.ar  1 <1>   0.7220 
 11 N        3.5240    -6.7570    -0.2580 N.ar  1 <1>  -0.6200 
 12 N        1.2210    -6.5760     0.0830 N.ar  1 <1>  -0.6200 
 13 C        3.3320    -8.0380    -0.4680 C.ar  1 <1>   0.7200 
 14 C        1.1640    -7.8610    -0.1420 C.ar  1 <1>   0.7200 
 15 N        2.1670    -8.6380    -0.4290 N.ar  1 <1>  -0.6200 
 16 N        4.4390    -8.8040    -0.7530 N.pl3 1 <1>  -0.8380 
 17 N       -0.0330    -8.4850    -0.1080 N.pl3 1 <1>  -0.8690 
 18 C        4.3780   -10.2670    -1.0680 C.3   1 <1>   0.2090 
 19 C        5.8350    -8.2610    -0.8070 C.3   1 <1>   0.2090 
 20 C       -1.1970    -8.2040     0.7330 C.3   1 <1>   0.3690 
 21 C        5.4310   -11.0450    -0.2570 C.3   1 <1>   0.1200 
 22 C        6.8000    -9.1580    -0.0110 C.3   1 <1>   0.1200 
 23 C       -1.9440    -6.9850     0.1960 C.3   1 <1>  -0.2400 
 24 C       -2.0940    -9.4350     0.6290 C.3   1 <1>  -0.2400 
 25 C       -0.7700    -8.0070     2.1880 C.3   1 <1>  -0.2400 
 26 O        6.7080   -10.4930    -0.4270 O.3   1 <1>  -0.5600 
 27 H        0.4410    -4.7020    -1.5920 H     1 <1>   0.1500 
 28 H       -2.3180    -2.7870    -2.5070 H     1 <1>   0.0800 
 29 H       -2.9820    -4.0320    -1.4760 H     1 <1>   0.0800 
 30 H       -1.7190    -4.4270    -2.6180 H     1 <1>   0.0800 
 31 H        0.0620    -9.4750    -0.3180 H     1 <1>   0.4000 
 32 H        4.5680   -10.4100    -2.1170 H     1 <1>   0.0800 
 33 H        3.4080   -10.6780    -0.8520 H     1 <1>   0.0800 
 34 H        5.8880    -7.2650    -0.4060 H     1 <1>   0.0800 
 35 H        6.1580    -8.2200    -1.8320 H     1 <1>   0.0800 
 36 H        5.4690   -12.0680    -0.5860 H     1 <1>   0.0800 
 37 H        5.1840   -11.0260     0.7900 H     1 <1>   0.0800 
 38 H        6.5750    -9.1080     1.0400 H     1 <1>   0.0800 
 39 H        7.8150    -8.8370    -0.1640 H     1 <1>   0.0800 
 40 H       -2.1590    -7.1080    -0.8490 H     1 <1>   0.0800 
 41 H       -1.3630    -6.0940     0.3350 H     1 <1>   0.0800 
 42 H       -2.8710    -6.8560     0.7250 H     1 <1>   0.0800 
 43 H       -1.5840   -10.3080     0.9960 H     1 <1>   0.0800 
 44 H       -2.3900    -9.5990    -0.3920 H     1 <1>   0.0800 
 45 H       -2.9830    -9.2950     1.2170 H     1 <1>   0.0800 
 46 H       -0.1980    -8.8500     2.5300 H     1 <1>   0.0800 
 47 H       -1.6370    -7.9060     2.8150 H     1 <1>   0.0800 
 48 H       -0.1810    -7.1150     2.2970 H     1 <1>   0.0800 
@<TRIPOS>BOND
  1   1   2  1   
  2   2   3  ar  
  3   2   4  ar  
  4   3   5  ar  
  5   4   6  ar  
  6   5   7  1   
  7   5   8  ar  
  8   6   8  ar  
  9   6   9  1   
 10   7  10  1   
 11   8  27  1   
 12   9  28  1   
 13   9  29  1   
 14   9  30  1   
 15  10  11  ar  
 16  10  12  ar  
 17  11  13  ar  
 18  12  14  ar  
 19  13  15  ar  
 20  13  16  1   
 21  14  15  ar  
 22  14  17  1   
 23  16  18  1   
 24  16  19  1   
 25  17  20  1   
 26  17  31  1   
 27  18  21  1   
 28  18  32  1   
 29  18  33  1   
 30  19  22  1   
 31  19  34  1   
 32  19  35  1   
 33  20  23  1   
 34  20  24  1   
 35  20  25  1   
 36  21  26  1   
 37  21  36  1   
 38  21  37  1   
 39  22  26  1   
 40  22  38  1   
 41  22  39  1   
 42  23  40  1   
 43  23  41  1   
 44  23  42  1   
 45  24  43  1   
 46  24  44  1   
 47  24  45  1   
 48  25  46  1   
 49  25  47  1   
 50  25  48  1   
@<TRIPOS>SUBSTRUCTURE
  1 ****  12 GROUP 4 **** **** 0

# MOE 2024.06 (io_trps.svl 2023.06)
