@<TRIPOS>MOLECULE
(2-Imidazol-1-yl-ethyl)-methyl-amine
21 21 1 0 0 
SMALL
USER_CHARGES


@<TRIPOS>ATOM
  1 N       -0.4030    -0.4870    -0.8790 N.2   1 <1>  -0.5650 
  2 C       -1.6550    -0.1750    -0.8490 C.2   1 <1>   0.0360 
  3 C       -0.2300    -1.2410     0.2220 C.2   1 <1>   0.0770 
  4 N       -2.3210    -0.6920     0.2080 N.pl3 1 <1>   0.0480 
  5 C       -1.3920    -1.3790     0.8970 C.2   1 <1>  -0.3020 
  6 C       -3.7570    -0.6060     0.4990 C.3   1 <1>   0.0960 
  7 C       -4.4240    -1.8820    -0.0230 C.3   1 <1>   0.3430 
  8 N       -5.8990    -1.8970     0.2370 N.4   1 <1>  -0.9060 
  9 C       -6.5400    -3.1480    -0.2760 C.3   1 <1>   0.2630 
 10 H       -2.1310     0.4370    -1.5960 H     1 <1>   0.1500 
 11 H        0.7370    -1.6480     0.4720 H     1 <1>   0.1500 
 12 H       -1.5810    -1.9160     1.8090 H     1 <1>   0.1500 
 13 H       -4.1550     0.2650     0.0100 H     1 <1>   0.0800 
 14 H       -3.8820    -0.5140     1.5630 H     1 <1>   0.0800 
 15 H       -3.9660    -2.7330     0.4560 H     1 <1>   0.0800 
 16 H       -4.2450    -1.9590    -1.0840 H     1 <1>   0.0800 
 17 H       -6.3490    -1.0840    -0.2100 H     1 <1>   0.4500 
 18 H       -6.0830    -1.8180     1.2480 H     1 <1>   0.4500 
 19 H       -6.3940    -3.2370    -1.3410 H     1 <1>   0.0800 
 20 H       -7.6010    -3.1350    -0.0770 H     1 <1>   0.0800 
 21 H       -6.1140    -4.0140     0.2040 H     1 <1>   0.0800 
@<TRIPOS>BOND
  1   1   2  2   
  2   1   3  1   
  3   2   4  1   
  4   2  10  1   
  5   3   5  2   
  6   3  11  1   
  7   4   5  1   
  8   4   6  1   
  9   5  12  1   
 10   6   7  1   
 11   6  13  1   
 12   6  14  1   
 13   7   8  1   
 14   7  15  1   
 15   7  16  1   
 16   8   9  1   
 17   8  17  1   
 18   8  18  1   
 19   9  19  1   
 20   9  20  1   
 21   9  21  1   
@<TRIPOS>SUBSTRUCTURE
  1 ****   4 GROUP 4 **** **** 0

# MOE 2024.06 (io_trps.svl 2023.06)
