@<TRIPOS>MOLECULE
N-tert-Butyl-4-[3-(4-chloro-phenyl)-[1,2,4]oxadiazol-5-yl]-butyramide
42 43 1 0 0 
SMALL
USER_CHARGES


@<TRIPOS>ATOM
  1 CL      -0.0460     0.6010    -0.9090 Cl    1 <1>  -0.1770 
  2 C        1.4340     1.4170    -0.4800 C.ar  1 <1>   0.1770 
  3 C        1.6910     2.6740    -0.9910 C.ar  1 <1>  -0.1500 
  4 C        2.3320     0.7980     0.3660 C.ar  1 <1>  -0.1500 
  5 C        2.8670     3.3170    -0.6460 C.ar  1 <1>  -0.1500 
  6 C        3.5050     1.4510     0.7030 C.ar  1 <1>  -0.1500 
  7 C        3.8040     2.7240     0.2080 C.ar  1 <1>   0.0540 
  8 C        5.0400     3.4000     0.5700 C.2   1 <1>   0.4620 
  9 N        5.9670     2.9160     1.3190 N.2   1 <1>  -0.4100 
 10 N        5.3430     4.6290     0.1410 N.2   1 <1>  -0.5650 
 11 O        6.9060     3.8040     1.4110 O.3   1 <1>  -0.0190 
 12 C        6.4770     4.8000     0.6810 C.2   1 <1>   0.2980 
 13 C        7.3470     6.0370     0.5490 C.3   1 <1>   0.0200 
 14 C        8.3950     5.9200    -0.5710 C.3   1 <1>  -0.1600 
 15 C        9.3300     4.7030    -0.4130 C.3   1 <1>  -0.0990 
 16 C       10.4770     4.6620    -1.4140 C.2   1 <1>   0.5690 
 17 O       10.4460     5.3930    -2.3720 O.2   1 <1>  -0.5700 
 18 N       11.5380     3.8320    -1.2770 N.am  1 <1>  -0.7300 
 19 C       11.9490     2.8170    -0.3000 C.3   1 <1>   0.3000 
 20 C       13.0780     2.0320    -0.9640 C.3   1 <1>  -0.2400 
 21 C       10.8050     1.8590     0.0340 C.3   1 <1>  -0.2400 
 22 C       12.4840     3.5120     0.9520 C.3   1 <1>  -0.2400 
 23 H        0.9790     3.1390    -1.6480 H     1 <1>   0.1500 
 24 H        2.1130    -0.1820     0.7530 H     1 <1>   0.1500 
 25 H        3.0650     4.2970    -1.0470 H     1 <1>   0.1500 
 26 H        4.2040     0.9640     1.3630 H     1 <1>   0.1500 
 27 H        7.8340     6.2230     1.4890 H     1 <1>   0.0800 
 28 H        6.7110     6.8790     0.3400 H     1 <1>   0.0800 
 29 H        8.9870     6.8200    -0.5850 H     1 <1>   0.0800 
 30 H        7.8910     5.8510    -1.5210 H     1 <1>   0.0800 
 31 H        8.7580     3.8040    -0.5470 H     1 <1>   0.0800 
 32 H        9.7390     4.7080     0.5780 H     1 <1>   0.0800 
 33 H       12.2190     3.9410    -2.0280 H     1 <1>   0.3700 
 34 H       12.7250     1.5490    -1.8580 H     1 <1>   0.0800 
 35 H       13.4470     1.2730    -0.2980 H     1 <1>   0.0800 
 36 H       13.8980     2.6810    -1.2150 H     1 <1>   0.0800 
 37 H       11.1830     1.0120     0.5780 H     1 <1>   0.0800 
 38 H       10.3400     1.4990    -0.8660 H     1 <1>   0.0800 
 39 H       10.0670     2.3260     0.6570 H     1 <1>   0.0800 
 40 H       12.8680     2.7830     1.6420 H     1 <1>   0.0800 
 41 H       11.7090     4.0630     1.4510 H     1 <1>   0.0800 
 42 H       13.2800     4.1880     0.6950 H     1 <1>   0.0800 
@<TRIPOS>BOND
  1   1   2  1   
  2   2   3  ar  
  3   2   4  ar  
  4   3   5  ar  
  5   3  23  1   
  6   4   6  ar  
  7   4  24  1   
  8   5   7  ar  
  9   5  25  1   
 10   6   7  ar  
 11   6  26  1   
 12   7   8  1   
 13   8   9  2   
 14   8  10  1   
 15   9  11  1   
 16  10  12  2   
 17  11  12  1   
 18  12  13  1   
 19  13  14  1   
 20  13  27  1   
 21  13  28  1   
 22  14  15  1   
 23  14  29  1   
 24  14  30  1   
 25  15  16  1   
 26  15  31  1   
 27  15  32  1   
 28  16  17  2   
 29  16  18  am  
 30  18  19  1   
 31  18  33  1   
 32  19  20  1   
 33  19  21  1   
 34  19  22  1   
 35  20  34  1   
 36  20  35  1   
 37  20  36  1   
 38  21  37  1   
 39  21  38  1   
 40  21  39  1   
 41  22  40  1   
 42  22  41  1   
 43  22  42  1   
@<TRIPOS>SUBSTRUCTURE
  1 ****  11 GROUP 4 **** **** 0

# MOE 2024.06 (io_trps.svl 2023.06)
