@<TRIPOS>MOLECULE
3-(4-Fluoro-benzyl)-1,7-dimethyl-8-(tetrahydro-furan-2-ylmethyl)-1H,8H-imidazo[2
53 57 1 0 0 
SMALL
USER_CHARGES


@<TRIPOS>ATOM
  1 F        3.7910    -0.5810    -3.5520 F     1 <1>  -0.1970 
  2 C        4.2510    -0.6910    -2.3350 C.ar  1 <1>   0.1830 
  3 C        4.3530    -1.9480    -1.7720 C.ar  1 <1>  -0.1570 
  4 C        4.6200     0.4530    -1.6560 C.ar  1 <1>  -0.1570 
  5 C        4.8440    -2.0590    -0.4820 C.ar  1 <1>  -0.1570 
  6 C        5.1080     0.3300    -0.3650 C.ar  1 <1>  -0.1570 
  7 C        5.2220    -0.9230     0.2250 C.ar  1 <1>  -0.1500 
  8 C        5.7620    -1.0550     1.6410 C.3   1 <1>   0.2780 
  9 N        7.2290    -1.2970     1.5820 N.am  1 <1>  -0.4250 
 10 C        7.6980    -2.6020     1.5080 C.2   1 <1>   0.6870 
 11 C        8.0860    -0.2130     1.4750 C.2   1 <1>   0.7000 
 12 O        6.9410    -3.5350     1.6850 O.2   1 <1>  -0.5740 
 13 N        9.0410    -2.8450     1.2470 N.am  1 <1>  -0.4410 
 14 O        7.6780     0.9300     1.6100 O.2   1 <1>  -0.5740 
 15 C        9.4630    -0.4780     1.2220 C.2   1 <1>   0.2710 
 16 C        9.8880    -1.7610     1.1260 C.2   1 <1>   0.4210 
 17 C        9.5600    -4.2400     1.1380 C.3   1 <1>   0.0530 
 18 N       10.5970     0.3280     1.0260 N.pl3 1 <1>  -0.6330 
 19 N       11.2310    -1.7680     0.8980 N.pl3 1 <1>  -0.7030 
 20 C       11.6190    -0.4950     0.8310 C.cat 1 <1>   1.0690 
 21 C       11.0940     1.6120     0.9300 C.2   1 <1>   0.2230 
 22 N       12.7620     0.1720     0.6160 N.pl3 1 <1>  -0.5720 
 23 C       12.4200     1.5170     0.6810 C.2   1 <1>   0.1580 
 24 C       14.1310    -0.4140     0.4540 C.3   1 <1>   0.1610 
 25 C       13.4320     2.6320     0.4940 C.3   1 <1>  -0.1090 
 26 C       14.2340    -1.4490    -0.6840 C.3   1 <1>   0.1930 
 27 O       13.4200    -2.5550    -0.4350 O.3   1 <1>  -0.5640 
 28 C       15.6280    -2.0420    -0.8350 C.3   1 <1>  -0.1670 
 29 C       13.8690    -3.6450    -1.1830 C.3   1 <1>   0.1130 
 30 C       15.3570    -3.4140    -1.4280 C.3   1 <1>  -0.1670 
 31 H        4.0540    -2.8160    -2.3320 H     1 <1>   0.1430 
 32 H        4.5240     1.4150    -2.1270 H     1 <1>   0.1430 
 33 H        4.9280    -3.0340    -0.0310 H     1 <1>   0.1430 
 34 H        5.3970     1.2170     0.1750 H     1 <1>   0.1430 
 35 H        5.2660    -1.8640     2.1490 H     1 <1>   0.0730 
 36 H        5.5560    -0.1570     2.1990 H     1 <1>   0.0730 
 37 H        8.7770    -4.9090     0.8230 H     1 <1>   0.0730 
 38 H        9.9260    -4.5660     2.0970 H     1 <1>   0.0730 
 39 H       10.3550    -4.2920     0.4160 H     1 <1>   0.0730 
 40 H       11.8770    -2.5090     0.5920 H     1 <1>   0.4450 
 41 H       10.4680     2.4850     1.0460 H     1 <1>   0.1430 
 42 H       14.4300    -0.8770     1.3790 H     1 <1>   0.0730 
 43 H       14.8340     0.3740     0.2500 H     1 <1>   0.0730 
 44 H       14.1990     2.5690     1.2450 H     1 <1>   0.0730 
 45 H       12.9520     3.5910     0.5780 H     1 <1>   0.0730 
 46 H       13.8860     2.5630    -0.4790 H     1 <1>   0.0730 
 47 H       13.9240    -1.0140    -1.6200 H     1 <1>   0.0730 
 48 H       16.0970    -2.1480     0.1280 H     1 <1>   0.0730 
 49 H       16.2550    -1.4400    -1.4690 H     1 <1>   0.0730 
 50 H       13.3240    -3.6680    -2.1120 H     1 <1>   0.0730 
 51 H       13.6880    -4.5490    -0.6260 H     1 <1>   0.0730 
 52 H       15.9520    -4.1750    -0.9540 H     1 <1>   0.0730 
 53 H       15.5570    -3.4280    -2.4860 H     1 <1>   0.0730 
@<TRIPOS>BOND
  1   1   2  1   
  2   2   3  ar  
  3   2   4  ar  
  4   3   5  ar  
  5   3  31  1   
  6   4   6  ar  
  7   4  32  1   
  8   5   7  ar  
  9   5  33  1   
 10   6   7  ar  
 11   6  34  1   
 12   7   8  1   
 13   8   9  1   
 14   8  35  1   
 15   8  36  1   
 16   9  10  am  
 17   9  11  am  
 18  10  12  2   
 19  10  13  am  
 20  11  14  2   
 21  11  15  1   
 22  13  16  1   
 23  13  17  1   
 24  15  16  2   
 25  15  18  1   
 26  16  19  1   
 27  17  37  1   
 28  17  38  1   
 29  17  39  1   
 30  18  20  ar  
 31  18  21  1   
 32  19  20  ar  
 33  19  40  1   
 34  20  22  ar  
 35  21  23  2   
 36  21  41  1   
 37  22  23  1   
 38  22  24  1   
 39  23  25  1   
 40  24  26  1   
 41  24  42  1   
 42  24  43  1   
 43  25  44  1   
 44  25  45  1   
 45  25  46  1   
 46  26  27  1   
 47  26  28  1   
 48  26  47  1   
 49  27  29  1   
 50  28  30  1   
 51  28  48  1   
 52  28  49  1   
 53  29  30  1   
 54  29  50  1   
 55  29  51  1   
 56  30  52  1   
 57  30  53  1   
@<TRIPOS>SUBSTRUCTURE
  1 ****  15 GROUP 4 **** **** 0

# MOE 2024.06 (io_trps.svl 2023.06)
