@<TRIPOS>MOLECULE
2-Fluoro-N-[2-methoxy-5-(4-methyl-piperazine-1-sulfonyl)-phenyl]-benzamide
51 53 1 0 0 
SMALL
USER_CHARGES


@<TRIPOS>ATOM
  1 S       -0.0360    -0.5190     1.9020 S.o2  1 <1>   1.4470 
  2 O        1.1010    -1.3460     2.2370 O.2   1 <1>  -0.6500 
  3 O       -0.4520     0.5260     2.8110 O.2   1 <1>  -0.6500 
  4 N        0.3980     0.3050     0.4780 N.am  1 <1>  -0.8490 
  5 C       -1.4420    -1.5460     1.3990 C.ar  1 <1>  -0.0090 
  6 C        1.6720     1.0170     0.6770 C.3   1 <1>   0.1960 
  7 C       -0.6640     1.2200    -0.0040 C.3   1 <1>   0.1960 
  8 C       -2.6910    -0.9670     1.2500 C.ar  1 <1>  -0.1500 
  9 C       -1.3120    -2.8930     1.0830 C.ar  1 <1>  -0.1500 
 10 C        2.1180     1.7840    -0.5860 C.3   1 <1>   0.3430 
 11 C       -0.2480     2.0030    -1.2650 C.3   1 <1>   0.3430 
 12 C       -3.7620    -1.6490     0.6980 C.ar  1 <1>   0.1170 
 13 C       -2.3900    -3.6240     0.6110 C.ar  1 <1>  -0.1500 
 14 N        1.0570     2.7330    -1.0800 N.4   1 <1>  -0.9590 
 15 N       -4.9540    -0.9740     0.3950 N.am  1 <1>  -0.5470 
 16 C       -3.6210    -3.0080     0.4110 C.ar  1 <1>   0.0830 
 17 C        1.4760     3.4120    -2.3420 C.3   1 <1>   0.2630 
 18 C       -5.1310     0.2950    -0.1090 C.2   1 <1>   0.5440 
 19 O       -4.7190    -3.6620    -0.0680 O.3   1 <1>  -0.3630 
 20 O       -4.1520     0.9960    -0.3140 O.2   1 <1>  -0.5700 
 21 C       -6.4590     0.8100    -0.3910 C.ar  1 <1>   0.0860 
 22 C       -4.6620    -5.0240    -0.4310 C.3   1 <1>   0.0400 
 23 C       -7.5480     0.0100    -0.7490 C.ar  1 <1>   0.1900 
 24 C       -6.7140     2.1820    -0.3170 C.ar  1 <1>  -0.1500 
 25 F       -7.4020    -1.2830    -0.8560 F     1 <1>  -0.1900 
 26 C       -8.8090     0.5140    -1.0110 C.ar  1 <1>  -0.1500 
 27 C       -7.9690     2.7090    -0.5760 C.ar  1 <1>  -0.1500 
 28 C       -9.0200     1.8780    -0.9230 C.ar  1 <1>  -0.1500 
 29 H        2.4420     0.3060     0.9290 H     1 <1>   0.0800 
 30 H        1.5840     1.7040     1.5030 H     1 <1>   0.0800 
 31 H       -0.9440     1.9150     0.7710 H     1 <1>   0.0800 
 32 H       -1.5380     0.6540    -0.2700 H     1 <1>   0.0800 
 33 H       -2.8310     0.0570     1.5470 H     1 <1>   0.1500 
 34 H       -0.3550    -3.3740     1.2040 H     1 <1>   0.1500 
 35 H        2.3430     1.0620    -1.3530 H     1 <1>   0.0800 
 36 H        3.0230     2.3270    -0.3660 H     1 <1>   0.0800 
 37 H       -1.0310     2.7000    -1.5170 H     1 <1>   0.0800 
 38 H       -0.1590     1.3020    -2.0790 H     1 <1>   0.0800 
 39 H       -2.2460    -4.6670     0.3960 H     1 <1>   0.1500 
 40 H        0.9100     3.4460    -0.3490 H     1 <1>   0.4500 
 41 H       -5.7520    -1.6060     0.2780 H     1 <1>   0.3700 
 42 H        1.6320     2.6860    -3.1240 H     1 <1>   0.0800 
 43 H        2.3950     3.9560    -2.1890 H     1 <1>   0.0800 
 44 H        0.7170     4.1070    -2.6640 H     1 <1>   0.0800 
 45 H       -5.6320    -5.3140    -0.7920 H     1 <1>   0.0800 
 46 H       -4.4060    -5.6070     0.4360 H     1 <1>   0.0800 
 47 H       -3.9310    -5.1480    -1.2110 H     1 <1>   0.0800 
 48 H       -5.9120     2.8480    -0.0490 H     1 <1>   0.1500 
 49 H       -9.6100    -0.1500    -1.2820 H     1 <1>   0.1500 
 50 H       -8.1290     3.7720    -0.5070 H     1 <1>   0.1500 
 51 H       -9.9950     2.2910    -1.1240 H     1 <1>   0.1500 
@<TRIPOS>BOND
  1   1   2  2   
  2   1   3  2   
  3   1   4  am  
  4   1   5  1   
  5   4   6  1   
  6   4   7  1   
  7   5   8  ar  
  8   5   9  ar  
  9   6  10  1   
 10   6  29  1   
 11   6  30  1   
 12   7  11  1   
 13   7  31  1   
 14   7  32  1   
 15   8  12  ar  
 16   8  33  1   
 17   9  13  ar  
 18   9  34  1   
 19  10  14  1   
 20  10  35  1   
 21  10  36  1   
 22  11  14  1   
 23  11  37  1   
 24  11  38  1   
 25  12  15  1   
 26  12  16  ar  
 27  13  16  ar  
 28  13  39  1   
 29  14  17  1   
 30  14  40  1   
 31  15  18  am  
 32  15  41  1   
 33  16  19  1   
 34  17  42  1   
 35  17  43  1   
 36  17  44  1   
 37  18  20  2   
 38  18  21  1   
 39  19  22  1   
 40  21  23  ar  
 41  21  24  ar  
 42  22  45  1   
 43  22  46  1   
 44  22  47  1   
 45  23  25  1   
 46  23  26  ar  
 47  24  27  ar  
 48  24  48  1   
 49  26  28  ar  
 50  26  49  1   
 51  27  28  ar  
 52  27  50  1   
 53  28  51  1   
@<TRIPOS>SUBSTRUCTURE
  1 ****   8 GROUP 4 **** **** 0

# MOE 2024.06 (io_trps.svl 2023.06)
