@<TRIPOS>MOLECULE
1-[5-(2,4-Dichloro-phenyl)-isoxazole-3-carbonyl]-piperidine-4-carboxylic acid am
39 41 1 0 0 
SMALL
USER_CHARGES


@<TRIPOS>ATOM
  1 CL       0.6690     0.0900     0.2690 Cl    1 <1>  -0.1770 
  2 C       -0.0530     1.6770     0.3780 C.ar  1 <1>   0.1770 
  3 C        0.7210     2.8240     0.1750 C.ar  1 <1>   0.0530 
  4 C       -1.3980     1.7420     0.6890 C.ar  1 <1>  -0.1500 
  5 C        2.1220     2.7780    -0.1600 C.2   1 <1>   0.0870 
  6 C        0.0830     4.0590     0.3120 C.ar  1 <1>  -0.1500 
  7 C       -1.9920     2.9820     0.8090 C.ar  1 <1>   0.1770 
  8 O        2.5470     2.0190    -1.1560 O.3   1 <1>  -0.0190 
  9 C        3.1580     3.4370     0.3840 C.2   1 <1>  -0.1500 
 10 C       -1.2630     4.1420     0.6250 C.ar  1 <1>  -0.1500 
 11 CL      -3.6860     3.0870     1.2020 Cl    1 <1>  -0.1770 
 12 N        3.8430     2.1890    -1.2540 N.2   1 <1>  -0.4100 
 13 C        4.2580     3.0240    -0.3450 C.2   1 <1>   0.2030 
 14 C        5.6160     3.5020    -0.1090 C.2   1 <1>   0.7160 
 15 O        5.7550     4.5910     0.4260 O.2   1 <1>  -0.5700 
 16 N        6.7600     2.7970    -0.4560 N.am  1 <1>  -0.6600 
 17 C        8.0850     3.4730    -0.5640 C.3   1 <1>   0.1400 
 18 C        6.7760     1.3330    -0.7430 C.3   1 <1>   0.1400 
 19 C        9.1080     2.7780     0.3380 C.3   1 <1>  -0.1600 
 20 C        7.8140     0.6310     0.1390 C.3   1 <1>  -0.1600 
 21 C        9.2060     1.2760     0.0220 C.3   1 <1>  -0.0190 
 22 C       10.2240     0.5850     0.9270 C.2   1 <1>   0.5690 
 23 O       10.0190     0.4760     2.1080 O.2   1 <1>  -0.5700 
 24 N       11.3610     0.0950     0.4010 N.am  1 <1>  -0.8000 
 25 H       -1.9710     0.8450     0.8380 H     1 <1>   0.1500 
 26 H        0.6490     4.9630     0.1640 H     1 <1>   0.1500 
 27 H        3.1750     4.1370     1.1990 H     1 <1>   0.1500 
 28 H       -1.7490     5.0970     0.7270 H     1 <1>   0.1500 
 29 H        8.0130     4.5110    -0.2860 H     1 <1>   0.0800 
 30 H        8.4130     3.4300    -1.5880 H     1 <1>   0.0800 
 31 H        7.0090     1.1820    -1.7830 H     1 <1>   0.0800 
 32 H        5.8190     0.8870    -0.5450 H     1 <1>   0.0800 
 33 H        8.8180     2.9170     1.3660 H     1 <1>   0.0800 
 34 H       10.0700     3.2410     0.2060 H     1 <1>   0.0800 
 35 H        7.8710    -0.4060    -0.1390 H     1 <1>   0.0800 
 36 H        7.4810     0.6730     1.1620 H     1 <1>   0.0800 
 37 H        9.5380     1.1680    -0.9950 H     1 <1>   0.0800 
 38 H       12.0320    -0.3620     1.0200 H     1 <1>   0.3700 
 39 H       11.6130     0.1490    -0.5850 H     1 <1>   0.3700 
@<TRIPOS>BOND
  1   1   2  1   
  2   2   3  ar  
  3   2   4  ar  
  4   3   5  1   
  5   3   6  ar  
  6   4   7  ar  
  7   4  25  1   
  8   5   8  1   
  9   5   9  2   
 10   6  10  ar  
 11   6  26  1   
 12   7  10  ar  
 13   7  11  1   
 14   8  12  1   
 15   9  13  1   
 16   9  27  1   
 17  10  28  1   
 18  12  13  2   
 19  13  14  1   
 20  14  15  2   
 21  14  16  am  
 22  16  17  1   
 23  16  18  1   
 24  17  19  1   
 25  17  29  1   
 26  17  30  1   
 27  18  20  1   
 28  18  31  1   
 29  18  32  1   
 30  19  21  1   
 31  19  33  1   
 32  19  34  1   
 33  20  21  1   
 34  20  35  1   
 35  20  36  1   
 36  21  22  1   
 37  21  37  1   
 38  22  23  2   
 39  22  24  am  
 40  24  38  1   
 41  24  39  1   
@<TRIPOS>SUBSTRUCTURE
  1 ****  13 GROUP 4 **** **** 0

# MOE 2024.06 (io_trps.svl 2023.06)
