@<TRIPOS>MOLECULE
7-(2-Ethoxy-phenyl)-5-methyl-4,7-dihydro-tetrazolo[1,5-a]pyrimidine-6-carboxylic
43 45 1 0 0 
SMALL
USER_CHARGES


@<TRIPOS>ATOM
  1 O       -0.9700    -1.2290     1.7020 O.2   1 <1>  -0.5700 
  2 C       -0.6350    -1.7200     0.6420 C.2   1 <1>   0.7060 
  3 O        0.6590    -1.7110     0.3040 O.3   1 <1>  -0.4300 
  4 C       -1.5730    -2.2690    -0.2800 C.2   1 <1>  -0.1240 
  5 C        1.6400    -1.0380     1.0660 C.3   1 <1>   0.1200 
  6 C       -1.4190    -3.3450    -1.1090 C.2   1 <1>  -0.0380 
  7 C       -2.8830    -1.4590    -0.2900 C.3   1 <1>   0.4570 
  8 C        1.6360     0.4390     0.6740 C.3   1 <1>  -0.2400 
  9 N       -2.4310    -3.7390    -1.9550 N.pl3 1 <1>  -0.5840 
 10 C       -0.1830    -4.2280    -1.1910 C.3   1 <1>  -0.1020 
 11 N       -3.9170    -2.0940    -1.1420 N.pl3 1 <1>   0.3140 
 12 C       -2.6390    -0.0330    -0.7960 C.ar  1 <1>  -0.1440 
 13 C       -3.6780    -3.1340    -1.9150 C.2   1 <1>   0.2700 
 14 N       -5.1940    -1.7710    -1.2870 N.2   1 <1>  -0.4180 
 15 C       -3.3340     1.0240    -0.2210 C.ar  1 <1>   0.0830 
 16 C       -1.7500     0.2320    -1.8320 C.ar  1 <1>  -0.1500 
 17 N       -4.7400    -3.4690    -2.5480 N.2   1 <1>  -0.3380 
 18 N       -5.6720    -2.6050    -2.1410 N.2   1 <1>   0.0000 
 19 O       -4.2210     0.7620     0.7630 O.3   1 <1>  -0.3630 
 20 C       -3.1220     2.3270    -0.6530 C.ar  1 <1>  -0.1500 
 21 C       -1.5450     1.5290    -2.2680 C.ar  1 <1>  -0.1500 
 22 C       -5.5430     1.2130     0.5870 C.3   1 <1>   0.1200 
 23 C       -2.2270     2.5780    -1.6770 C.ar  1 <1>  -0.1500 
 24 C       -6.4270     0.4740     1.5870 C.3   1 <1>  -0.2400 
 25 H        2.5930    -1.4830     0.8360 H     1 <1>   0.0800 
 26 H        1.4350    -1.1720     2.1150 H     1 <1>   0.0800 
 27 H       -3.2750    -1.4370     0.7110 H     1 <1>   0.0800 
 28 H        1.8280     0.5470    -0.3780 H     1 <1>   0.0800 
 29 H        2.4040     0.9590     1.2180 H     1 <1>   0.0800 
 30 H        0.6890     0.8880     0.9150 H     1 <1>   0.0800 
 31 H       -2.3390    -4.5460    -2.5820 H     1 <1>   0.4000 
 32 H       -0.4700    -5.2640    -1.2050 H     1 <1>   0.0800 
 33 H        0.4690    -4.0890    -0.3500 H     1 <1>   0.0800 
 34 H        0.3630    -4.0090    -2.0910 H     1 <1>   0.0800 
 35 H       -1.2100    -0.5660    -2.3130 H     1 <1>   0.1500 
 36 H       -3.6470     3.1410    -0.1900 H     1 <1>   0.1500 
 37 H       -0.8520     1.7240    -3.0690 H     1 <1>   0.1500 
 38 H       -5.8490     0.9930    -0.4230 H     1 <1>   0.0800 
 39 H       -5.5720     2.2740     0.7590 H     1 <1>   0.0800 
 40 H       -2.0620     3.5860    -2.0140 H     1 <1>   0.1500 
 41 H       -6.3900    -0.5840     1.3970 H     1 <1>   0.0800 
 42 H       -7.4450     0.8030     1.4840 H     1 <1>   0.0800 
 43 H       -6.0990     0.6730     2.5910 H     1 <1>   0.0800 
@<TRIPOS>BOND
  1   1   2  2   
  2   2   3  1   
  3   2   4  1   
  4   3   5  1   
  5   4   6  2   
  6   4   7  1   
  7   5   8  1   
  8   5  25  1   
  9   5  26  1   
 10   6   9  1   
 11   6  10  1   
 12   7  11  1   
 13   7  12  1   
 14   7  27  1   
 15   8  28  1   
 16   8  29  1   
 17   8  30  1   
 18   9  13  1   
 19   9  31  1   
 20  10  32  1   
 21  10  33  1   
 22  10  34  1   
 23  11  13  1   
 24  11  14  1   
 25  12  15  ar  
 26  12  16  ar  
 27  13  17  2   
 28  14  18  2   
 29  15  19  1   
 30  15  20  ar  
 31  16  21  ar  
 32  16  35  1   
 33  17  18  1   
 34  19  22  1   
 35  20  23  ar  
 36  20  36  1   
 37  21  23  ar  
 38  21  37  1   
 39  22  24  1   
 40  22  38  1   
 41  22  39  1   
 42  23  40  1   
 43  24  41  1   
 44  24  42  1   
 45  24  43  1   
@<TRIPOS>SUBSTRUCTURE
  1 ****   7 GROUP 4 **** **** 0

# MOE 2024.06 (io_trps.svl 2023.06)
