@<TRIPOS>MOLECULE
C-(1-Phenethyl-pyrrolidin-3-yl)-methylamine
37 38 1 0 0 
SMALL
USER_CHARGES


@<TRIPOS>ATOM
  1 N       -0.1950     0.0790    -0.6130 N.4   1 <1>  -0.9590 
  2 C        0.5290    -1.0090     0.1110 C.3   1 <1>   0.3430 
  3 C        0.6110     1.3220    -0.4930 C.3   1 <1>   0.3430 
  4 C       -1.6060     0.2380    -0.1230 C.3   1 <1>   0.3430 
  5 C        1.9520    -0.4880     0.3790 C.3   1 <1>  -0.0800 
  6 C        2.0450     0.8180    -0.4210 C.3   1 <1>  -0.1600 
  7 C       -2.4210     1.1880    -1.0040 C.3   1 <1>  -0.0170 
  8 C        3.0390    -1.5290     0.0420 C.3   1 <1>   0.3430 
  9 C       -3.8410     1.2240    -0.4760 C.ar  1 <1>  -0.1440 
 10 N        4.4040    -1.0180     0.3570 N.4   1 <1>  -0.8530 
 11 C       -4.2080     2.1540     0.4860 C.ar  1 <1>  -0.1500 
 12 C       -4.7830     0.3190    -0.9420 C.ar  1 <1>  -0.1500 
 13 C       -5.5000     2.1730     0.9810 C.ar  1 <1>  -0.1500 
 14 C       -6.0750     0.3390    -0.4460 C.ar  1 <1>  -0.1500 
 15 C       -6.4330     1.2650     0.5170 C.ar  1 <1>  -0.1500 
 16 H       -0.2470    -0.1700    -1.6120 H     1 <1>   0.4500 
 17 H        0.5430    -1.9030    -0.4920 H     1 <1>   0.0800 
 18 H        0.0400    -1.2310     1.0470 H     1 <1>   0.0800 
 19 H        0.3590     1.8360     0.4220 H     1 <1>   0.0800 
 20 H        0.4550     1.9860    -1.3300 H     1 <1>   0.0800 
 21 H       -1.6090     0.6090     0.8890 H     1 <1>   0.0800 
 22 H       -2.0990    -0.7210    -0.1200 H     1 <1>   0.0800 
 23 H        2.0030    -0.2650     1.4320 H     1 <1>   0.0800 
 24 H        2.6810     1.5500     0.0490 H     1 <1>   0.0800 
 25 H        2.3950     0.6420    -1.4240 H     1 <1>   0.0800 
 26 H       -2.4310     0.8410    -2.0220 H     1 <1>   0.0800 
 27 H       -2.0130     2.1820    -0.9800 H     1 <1>   0.0800 
 28 H        2.9840    -1.7810    -1.0060 H     1 <1>   0.0800 
 29 H        2.8580    -2.4310     0.6080 H     1 <1>   0.0800 
 30 H        4.6420    -0.1750    -0.1790 H     1 <1>   0.4500 
 31 H        5.1200    -1.7240     0.1310 H     1 <1>   0.4500 
 32 H        4.5170    -0.7990     1.3560 H     1 <1>   0.4500 
 33 H       -3.5010     2.8740     0.8580 H     1 <1>   0.1500 
 34 H       -4.5300    -0.4070    -1.6940 H     1 <1>   0.1500 
 35 H       -5.7820     2.8960     1.7270 H     1 <1>   0.1500 
 36 H       -6.8050    -0.3650    -0.8090 H     1 <1>   0.1500 
 37 H       -7.4390     1.2800     0.9020 H     1 <1>   0.1500 
@<TRIPOS>BOND
  1   1   2  1   
  2   1   3  1   
  3   1   4  1   
  4   1  16  1   
  5   2   5  1   
  6   2  17  1   
  7   2  18  1   
  8   3   6  1   
  9   3  19  1   
 10   3  20  1   
 11   4   7  1   
 12   4  21  1   
 13   4  22  1   
 14   5   6  1   
 15   5   8  1   
 16   5  23  1   
 17   6  24  1   
 18   6  25  1   
 19   7   9  1   
 20   7  26  1   
 21   7  27  1   
 22   8  10  1   
 23   8  28  1   
 24   8  29  1   
 25   9  11  ar  
 26   9  12  ar  
 27  10  30  1   
 28  10  31  1   
 29  10  32  1   
 30  11  13  ar  
 31  11  33  1   
 32  12  14  ar  
 33  12  34  1   
 34  13  15  ar  
 35  13  35  1   
 36  14  15  ar  
 37  14  36  1   
 38  15  37  1   
@<TRIPOS>SUBSTRUCTURE
  1 ****   4 GROUP 4 **** **** 0

# MOE 2024.06 (io_trps.svl 2023.06)
