@<TRIPOS>MOLECULE
N-(2-Hydroxy-6-methoxy-quinolin-3-ylmethyl)-N-methyl-propionamide
38 39 1 0 0 
SMALL
USER_CHARGES


@<TRIPOS>ATOM
  1 O       -2.1600     0.1090     1.9280 O.2   1 <1>  -0.5700 
  2 C       -2.4490    -0.2880     0.8240 C.2   1 <1>   0.5690 
  3 N       -2.7220    -1.6150     0.5890 N.am  1 <1>  -0.6600 
  4 C       -2.4830     0.7560    -0.2870 C.3   1 <1>  -0.0990 
  5 C       -3.1270    -2.1830    -0.7300 C.3   1 <1>   0.2780 
  6 C       -2.6150    -2.6310     1.6790 C.3   1 <1>   0.0600 
  7 C       -3.9030     1.2080    -0.6650 C.3   1 <1>  -0.2400 
  8 C       -4.6310    -2.4130    -0.8360 C.2   1 <1>  -0.1240 
  9 C       -5.0530    -3.1140    -2.0100 C.2   1 <1>   0.6160 
 10 C       -5.5520    -1.9990     0.0760 C.2   1 <1>  -0.1780 
 11 O       -4.2840    -3.5020    -2.8710 O.2   1 <1>  -0.5700 
 12 N       -6.3810    -3.3570    -2.1780 N.am  1 <1>  -0.5470 
 13 C       -6.9480    -2.2590    -0.1130 C.ar  1 <1>   0.0280 
 14 C       -7.3510    -2.9530    -1.2660 C.ar  1 <1>   0.1170 
 15 C       -7.9230    -1.8540     0.7980 C.ar  1 <1>  -0.1500 
 16 C       -8.7010    -3.2210    -1.4770 C.ar  1 <1>  -0.1500 
 17 C       -9.2590    -2.1220     0.5860 C.ar  1 <1>   0.0820 
 18 C       -9.6500    -2.8130    -0.5640 C.ar  1 <1>  -0.1500 
 19 O      -10.1300    -1.6850     1.5330 O.3   1 <1>  -0.3620 
 20 C      -11.5180    -1.9040     1.4060 C.3   1 <1>   0.0400 
 21 H       -1.9610     0.3910    -1.1500 H     1 <1>   0.0800 
 22 H       -1.9380     1.6170     0.0600 H     1 <1>   0.0800 
 23 H       -2.6180    -3.1220    -0.8690 H     1 <1>   0.0800 
 24 H       -2.8170    -1.5420    -1.5340 H     1 <1>   0.0800 
 25 H       -2.4350    -2.1600     2.6300 H     1 <1>   0.0800 
 26 H       -1.8010    -3.3020     1.4710 H     1 <1>   0.0800 
 27 H       -3.5290    -3.1950     1.7490 H     1 <1>   0.0800 
 28 H       -4.4650     0.4000    -1.0930 H     1 <1>   0.0800 
 29 H       -3.8560     2.0080    -1.3820 H     1 <1>   0.0800 
 30 H       -4.4200     1.5620     0.2100 H     1 <1>   0.0800 
 31 H       -5.2770    -1.4610     0.9670 H     1 <1>   0.1500 
 32 H       -6.6310    -3.8590    -3.0280 H     1 <1>   0.3700 
 33 H       -7.6320    -1.3210     1.6850 H     1 <1>   0.1500 
 34 H       -9.0010    -3.7530    -2.3620 H     1 <1>   0.1500 
 35 H      -10.6830    -3.0350    -0.7540 H     1 <1>   0.1500 
 36 H      -12.0030    -1.4740     2.2630 H     1 <1>   0.0800 
 37 H      -11.7030    -2.9630     1.3750 H     1 <1>   0.0800 
 38 H      -11.8670    -1.4230     0.5090 H     1 <1>   0.0800 
@<TRIPOS>BOND
  1   1   2  2   
  2   2   3  am  
  3   2   4  1   
  4   3   5  1   
  5   3   6  1   
  6   4   7  1   
  7   4  21  1   
  8   4  22  1   
  9   5   8  1   
 10   5  23  1   
 11   5  24  1   
 12   6  25  1   
 13   6  26  1   
 14   6  27  1   
 15   7  28  1   
 16   7  29  1   
 17   7  30  1   
 18   8   9  1   
 19   8  10  2   
 20   9  11  2   
 21   9  12  am  
 22  10  13  1   
 23  10  31  1   
 24  12  14  1   
 25  12  32  1   
 26  13  14  ar  
 27  13  15  ar  
 28  14  16  ar  
 29  15  17  ar  
 30  15  33  1   
 31  16  18  ar  
 32  16  34  1   
 33  17  18  ar  
 34  17  19  1   
 35  18  35  1   
 36  19  20  1   
 37  20  36  1   
 38  20  37  1   
 39  20  38  1   
@<TRIPOS>SUBSTRUCTURE
  1 ****  10 GROUP 4 **** **** 0

# MOE 2024.06 (io_trps.svl 2023.06)
