@<TRIPOS>MOLECULE
3-(3,5-Dimethyl-pyrazol-1-ylmethyl)-benzylamine
34 35 1 0 0 
SMALL
USER_CHARGES


@<TRIPOS>ATOM
  1 N       -0.1980    -1.5130     0.6040 N.2   1 <1>  -0.7070 
  2 N        0.4410    -1.3740    -0.5870 N.pl3 1 <1>   0.3140 
  3 C       -1.4400    -1.2510     0.3480 C.2   1 <1>   0.1080 
  4 C       -0.4350    -1.0540    -1.5690 C.2   1 <1>  -0.3320 
  5 C        1.9130    -1.5470    -0.7190 C.3   1 <1>   0.2390 
  6 C       -1.6520    -0.9650    -0.9940 C.2   1 <1>  -0.1500 
  7 C       -2.5170    -1.2520     1.4080 C.3   1 <1>  -0.0590 
  8 C       -0.0840    -0.8370    -3.0320 C.3   1 <1>  -0.0600 
  9 C        2.2880    -3.0150    -0.5500 C.ar  1 <1>  -0.1430 
 10 C        2.0650    -3.6160     0.6750 C.ar  1 <1>  -0.1500 
 11 C        2.8030    -3.7710    -1.5910 C.ar  1 <1>  -0.1500 
 12 C        2.2750    -4.9710     0.8520 C.ar  1 <1>  -0.1430 
 13 C        3.0660    -5.1180    -1.4060 C.ar  1 <1>  -0.1500 
 14 C        2.7940    -5.7230    -0.1910 C.ar  1 <1>  -0.1500 
 15 C        1.8680    -5.5910     2.1650 C.3   1 <1>   0.4860 
 16 N        0.4010    -5.4270     2.2310 N.4   1 <1>  -0.8530 
 17 H        2.3880    -0.9570     0.0420 H     1 <1>   0.0800 
 18 H        2.2300    -1.1830    -1.6770 H     1 <1>   0.0800 
 19 H       -2.5960    -0.7240    -1.4500 H     1 <1>   0.1500 
 20 H       -3.4270    -0.8360     1.0150 H     1 <1>   0.0800 
 21 H       -2.1970    -0.6590     2.2450 H     1 <1>   0.0800 
 22 H       -2.7030    -2.2560     1.7370 H     1 <1>   0.0800 
 23 H        0.5930    -0.0080    -3.1370 H     1 <1>   0.0800 
 24 H       -0.9740    -0.6200    -3.5960 H     1 <1>   0.0800 
 25 H        0.3700    -1.7210    -3.4420 H     1 <1>   0.0800 
 26 H        1.6980    -3.0060     1.4850 H     1 <1>   0.1500 
 27 H        2.9960    -3.3210    -2.5510 H     1 <1>   0.1500 
 28 H        3.4740    -5.6970    -2.2180 H     1 <1>   0.1500 
 29 H        2.9870    -6.7770    -0.0800 H     1 <1>   0.1500 
 30 H        2.3470    -5.0720     2.9800 H     1 <1>   0.0800 
 31 H        2.1410    -6.6330     2.1950 H     1 <1>   0.0800 
 32 H        0.1740    -4.4370     2.0590 H     1 <1>   0.4500 
 33 H        0.0050    -5.7230     3.1270 H     1 <1>   0.4500 
 34 H       -0.0310    -5.9490     1.4620 H     1 <1>   0.4500 
@<TRIPOS>BOND
  1   1   2  1   
  2   1   3  2   
  3   2   4  1   
  4   2   5  1   
  5   3   6  1   
  6   3   7  1   
  7   4   6  2   
  8   4   8  1   
  9   5   9  1   
 10   5  17  1   
 11   5  18  1   
 12   6  19  1   
 13   7  20  1   
 14   7  21  1   
 15   7  22  1   
 16   8  23  1   
 17   8  24  1   
 18   8  25  1   
 19   9  10  ar  
 20   9  11  ar  
 21  10  12  ar  
 22  10  26  1   
 23  11  13  ar  
 24  11  27  1   
 25  12  14  ar  
 26  12  15  1   
 27  13  14  ar  
 28  13  28  1   
 29  14  29  1   
 30  15  16  1   
 31  15  30  1   
 32  15  31  1   
 33  16  32  1   
 34  16  33  1   
 35  16  34  1   
@<TRIPOS>SUBSTRUCTURE
  1 ****   9 GROUP 4 **** **** 0

# MOE 2024.06 (io_trps.svl 2023.06)
