@<TRIPOS>MOLECULE
2-[Cyano-(4,6-dimethyl-pyrimidin-2-yl)-amino]-N-methyl-acetamide
29 29 1 0 0 
SMALL
USER_CHARGES


@<TRIPOS>ATOM
  1 O       -0.0590     3.8270     0.9770 O.2   1 <1>  -0.5700 
  2 C       -0.2220     2.6390     0.8500 C.2   1 <1>   0.5690 
  3 N        0.3810     1.7940     1.7270 N.am  1 <1>  -0.7300 
  4 C       -1.0970     2.1390    -0.3070 C.3   1 <1>   0.2570 
  5 C        0.3430     0.3110     1.7610 C.3   1 <1>   0.0600 
  6 N       -2.2530     1.2810     0.1210 N.pl3 1 <1>  -0.6810 
  7 C       -3.1770     1.9000     0.9780 C.1   1 <1>   0.6830 
  8 C       -2.3700    -0.0460    -0.2200 C.ar  1 <1>   0.8190 
  9 N       -3.9090     2.4400     1.6620 N.1   1 <1>  -0.5570 
 10 N       -3.2130    -0.7910     0.4900 N.ar  1 <1>  -0.6200 
 11 N       -1.6110    -0.4780    -1.2260 N.ar  1 <1>  -0.6200 
 12 C       -3.3160    -2.0510     0.1530 C.ar  1 <1>   0.1670 
 13 C       -1.7270    -1.7410    -1.5500 C.ar  1 <1>   0.1670 
 14 C       -2.5810    -2.5820    -0.8780 C.ar  1 <1>  -0.1500 
 15 C       -4.2840    -2.8980     0.9530 C.3   1 <1>  -0.0970 
 16 C       -0.8770    -2.2390    -2.7000 C.3   1 <1>  -0.0970 
 17 H        0.8840     2.2520     2.4920 H     1 <1>   0.3700 
 18 H       -0.4560     1.6220    -0.9960 H     1 <1>   0.0800 
 19 H       -1.4870     2.9980    -0.8250 H     1 <1>   0.0800 
 20 H        0.3140    -0.0870     0.7610 H     1 <1>   0.0800 
 21 H       -0.5320    -0.0190     2.2970 H     1 <1>   0.0800 
 22 H        1.2220    -0.0650     2.2550 H     1 <1>   0.0800 
 23 H       -2.6720    -3.6170    -1.1500 H     1 <1>   0.1500 
 24 H       -5.2730    -2.4860     0.8710 H     1 <1>   0.0800 
 25 H       -3.9950    -2.8940     1.9880 H     1 <1>   0.0800 
 26 H       -4.2980    -3.9110     0.5980 H     1 <1>   0.0800 
 27 H       -1.1180    -1.6860    -3.5900 H     1 <1>   0.0800 
 28 H       -1.0470    -3.2830    -2.8840 H     1 <1>   0.0800 
 29 H        0.1630    -2.0900    -2.4720 H     1 <1>   0.0800 
@<TRIPOS>BOND
  1   1   2  2   
  2   2   3  am  
  3   2   4  1   
  4   3   5  1   
  5   3  17  1   
  6   4   6  1   
  7   4  18  1   
  8   4  19  1   
  9   5  20  1   
 10   5  21  1   
 11   5  22  1   
 12   6   7  1   
 13   6   8  1   
 14   7   9  3   
 15   8  10  ar  
 16   8  11  ar  
 17  10  12  ar  
 18  11  13  ar  
 19  12  14  ar  
 20  12  15  1   
 21  13  14  ar  
 22  13  16  1   
 23  14  23  1   
 24  15  24  1   
 25  15  25  1   
 26  15  26  1   
 27  16  27  1   
 28  16  28  1   
 29  16  29  1   
@<TRIPOS>SUBSTRUCTURE
  1 ****   8 GROUP 4 **** **** 0

# MOE 2024.06 (io_trps.svl 2023.06)
