@<TRIPOS>MOLECULE
4-(Thiophene-2-carbonyl)-piperazine-1-sulfonic acid dimethylamide
36 37 1 0 0 
SMALL
USER_CHARGES


@<TRIPOS>ATOM
  1 S        0.0620     0.0290     0.9640 S.o2  1 <1>   1.5760 
  2 O        0.4670    -1.0970     1.7760 O.2   1 <1>  -0.6500 
  3 O        0.7420     1.3030     1.0570 O.2   1 <1>  -0.6500 
  4 N       -1.5850     0.2940     1.2200 N.am  1 <1>  -0.8490 
  5 N        0.0340    -0.4560    -0.6660 N.am  1 <1>  -0.8490 
  6 C       -2.3900    -0.9310     1.0930 C.3   1 <1>   0.1960 
  7 C       -2.1250     1.3970     0.4080 C.3   1 <1>   0.1960 
  8 C        0.4960    -1.8320    -0.8730 C.3   1 <1>   0.1160 
  9 C        0.7440     0.4620    -1.5610 C.3   1 <1>   0.1160 
 10 C       -3.8610    -0.6740     1.4610 C.3   1 <1>   0.1400 
 11 C       -3.5970     1.6910     0.7460 C.3   1 <1>   0.1400 
 12 N       -4.4140     0.4460     0.6430 N.am  1 <1>  -0.6600 
 13 C       -5.5680     0.3870    -0.1090 C.2   1 <1>   0.7150 
 14 O       -6.1480     1.4300    -0.3510 O.2   1 <1>  -0.5700 
 15 C       -6.1180    -0.8490    -0.6100 C.2   1 <1>  -0.0450 
 16 S       -5.0490    -2.0960    -1.2710 S.3   1 <1>  -0.0800 
 17 C       -7.4010    -1.2750    -0.7320 C.2   1 <1>  -0.1500 
 18 C       -6.3930    -3.1470    -1.6600 C.2   1 <1>  -0.1100 
 19 C       -7.5570    -2.5680    -1.3140 C.2   1 <1>  -0.1500 
 20 H       -1.9980    -1.6890     1.7500 H     1 <1>   0.0800 
 21 H       -2.3410    -1.3040     0.0840 H     1 <1>   0.0800 
 22 H       -2.0530     1.1530    -0.6390 H     1 <1>   0.0800 
 23 H       -1.5480     2.2890     0.5830 H     1 <1>   0.0800 
 24 H       -0.0980    -2.5130    -0.2870 H     1 <1>   0.0800 
 25 H        1.5270    -1.9300    -0.5760 H     1 <1>   0.0800 
 26 H        0.3980    -2.1050    -1.9100 H     1 <1>   0.0800 
 27 H        0.3340     1.4540    -1.4740 H     1 <1>   0.0800 
 28 H        0.6380     0.1420    -2.5830 H     1 <1>   0.0800 
 29 H        1.7910     0.4990    -1.3070 H     1 <1>   0.0800 
 30 H       -3.9130    -0.4040     2.5010 H     1 <1>   0.0800 
 31 H       -4.4370    -1.5710     1.3310 H     1 <1>   0.0800 
 32 H       -3.9710     2.4430     0.0720 H     1 <1>   0.0800 
 33 H       -3.6630     2.0780     1.7470 H     1 <1>   0.0800 
 34 H       -8.2580    -0.6980    -0.4280 H     1 <1>   0.1500 
 35 H       -6.1720    -4.0970    -2.1140 H     1 <1>   0.1500 
 36 H       -8.5330    -3.0010    -1.4480 H     1 <1>   0.1500 
@<TRIPOS>BOND
  1   1   2  2   
  2   1   3  2   
  3   1   4  am  
  4   1   5  am  
  5   4   6  1   
  6   4   7  1   
  7   5   8  1   
  8   5   9  1   
  9   6  10  1   
 10   6  20  1   
 11   6  21  1   
 12   7  11  1   
 13   7  22  1   
 14   7  23  1   
 15   8  24  1   
 16   8  25  1   
 17   8  26  1   
 18   9  27  1   
 19   9  28  1   
 20   9  29  1   
 21  10  12  1   
 22  10  30  1   
 23  10  31  1   
 24  11  12  1   
 25  11  32  1   
 26  11  33  1   
 27  12  13  am  
 28  13  14  2   
 29  13  15  1   
 30  15  16  1   
 31  15  17  2   
 32  16  18  1   
 33  17  19  1   
 34  17  34  1   
 35  18  19  2   
 36  18  35  1   
 37  19  36  1   
@<TRIPOS>SUBSTRUCTURE
  1 ****   6 GROUP 4 **** **** 0

# MOE 2024.06 (io_trps.svl 2023.06)
