@<TRIPOS>MOLECULE
2-Methoxy-5,N-dimethyl-N-(2-morpholin-4-yl-2-oxo-ethyl)-benzenesulfonamide
45 46 1 0 0 
SMALL
USER_CHARGES


@<TRIPOS>ATOM
  1 S       -0.0860    -0.3340     0.6450 S.o2  1 <1>   1.4470 
  2 O       -1.3960    -0.8760     0.3480 O.2   1 <1>  -0.6500 
  3 O        0.5520    -0.7350     1.8820 O.2   1 <1>  -0.6500 
  4 N        0.9120    -0.8680    -0.6170 N.am  1 <1>  -0.8490 
  5 C       -0.1200     1.4710     0.4900 C.ar  1 <1>  -0.0090 
  6 C        1.2020    -2.3180    -0.4870 C.3   1 <1>   0.2570 
  7 C        0.3890    -0.5710    -1.9540 C.3   1 <1>   0.1160 
  8 C        1.0400     2.2350     0.6030 C.ar  1 <1>   0.0830 
  9 C       -1.3210     2.1290     0.2490 C.ar  1 <1>  -0.1500 
 10 C        2.4420    -2.7830    -1.2660 C.2   1 <1>   0.5690 
 11 O        2.2100     1.5870     0.8440 O.3   1 <1>  -0.3630 
 12 C        0.9800     3.6210     0.4690 C.ar  1 <1>  -0.1500 
 13 C       -1.3860     3.5050     0.1150 C.ar  1 <1>  -0.1440 
 14 O        2.2730    -3.5860    -2.1570 O.2   1 <1>  -0.5700 
 15 N        3.6940    -2.3050    -0.9590 N.am  1 <1>  -0.6600 
 16 C        3.3980     2.2800     1.1580 C.3   1 <1>   0.0400 
 17 C       -0.2260     4.2490     0.2280 C.ar  1 <1>  -0.1500 
 18 C       -2.7150     4.1920    -0.1450 C.3   1 <1>  -0.0970 
 19 C        4.9050    -2.7120    -1.7290 C.3   1 <1>   0.1400 
 20 C        3.9700    -1.2580     0.0750 C.3   1 <1>   0.1400 
 21 C        6.0880    -2.9870    -0.7860 C.3   1 <1>   0.1200 
 22 C        5.2120    -1.6190     0.9040 C.3   1 <1>   0.1200 
 23 O        6.3020    -1.9020     0.0730 O.3   1 <1>  -0.5600 
 24 H        0.3490    -2.8890    -0.8100 H     1 <1>   0.0800 
 25 H        1.3780    -2.5700     0.5430 H     1 <1>   0.0800 
 26 H        0.2370     0.4890    -2.0650 H     1 <1>   0.0800 
 27 H       -0.5490    -1.0770    -2.1160 H     1 <1>   0.0800 
 28 H        1.0910    -0.8890    -2.7070 H     1 <1>   0.0800 
 29 H       -2.2260     1.5500     0.1650 H     1 <1>   0.1500 
 30 H        1.8600     4.2300     0.5470 H     1 <1>   0.1500 
 31 H        4.1560     1.5560     1.3960 H     1 <1>   0.0800 
 32 H        3.2200     2.9120     2.0110 H     1 <1>   0.0800 
 33 H        3.7030     2.8590     0.3040 H     1 <1>   0.0800 
 34 H       -0.2600     5.3210     0.1290 H     1 <1>   0.1500 
 35 H       -3.3900     3.5310    -0.6580 H     1 <1>   0.0800 
 36 H       -2.5730     5.0680    -0.7520 H     1 <1>   0.0800 
 37 H       -3.1610     4.4860     0.7880 H     1 <1>   0.0800 
 38 H        5.1710    -1.9220    -2.4090 H     1 <1>   0.0800 
 39 H        4.7020    -3.5950    -2.3100 H     1 <1>   0.0800 
 40 H        3.1380    -1.1370     0.7440 H     1 <1>   0.0800 
 41 H        4.1320    -0.3150    -0.4180 H     1 <1>   0.0800 
 42 H        6.9880    -3.1390    -1.3550 H     1 <1>   0.0800 
 43 H        5.9010    -3.8660    -0.1940 H     1 <1>   0.0800 
 44 H        5.0170    -2.4780     1.5220 H     1 <1>   0.0800 
 45 H        5.4870    -0.7940     1.5370 H     1 <1>   0.0800 
@<TRIPOS>BOND
  1   1   2  2   
  2   1   3  2   
  3   1   4  am  
  4   1   5  1   
  5   4   6  1   
  6   4   7  1   
  7   5   8  ar  
  8   5   9  ar  
  9   6  10  1   
 10   6  24  1   
 11   6  25  1   
 12   7  26  1   
 13   7  27  1   
 14   7  28  1   
 15   8  11  1   
 16   8  12  ar  
 17   9  13  ar  
 18   9  29  1   
 19  10  14  2   
 20  10  15  am  
 21  11  16  1   
 22  12  17  ar  
 23  12  30  1   
 24  13  17  ar  
 25  13  18  1   
 26  15  19  1   
 27  15  20  1   
 28  16  31  1   
 29  16  32  1   
 30  16  33  1   
 31  17  34  1   
 32  18  35  1   
 33  18  36  1   
 34  18  37  1   
 35  19  21  1   
 36  19  38  1   
 37  19  39  1   
 38  20  22  1   
 39  20  40  1   
 40  20  41  1   
 41  21  23  1   
 42  21  42  1   
 43  21  43  1   
 44  22  23  1   
 45  22  44  1   
 46  22  45  1   
@<TRIPOS>SUBSTRUCTURE
  1 ****   4 GROUP 4 **** **** 0

# MOE 2024.06 (io_trps.svl 2023.06)
