@<TRIPOS>MOLECULE
1,6,7-Trimethyl-3-(2-methyl-allyl)-8-(tetrahydro-furan-2-ylmethyl)-1H,8H-imidazo
53 56 1 0 0 
SMALL
USER_CHARGES


@<TRIPOS>ATOM
  1 O        1.6140    -0.4950     1.1260 O.2   1 <1>  -0.5740 
  2 C        2.3350     0.4710     0.9710 C.2   1 <1>   0.6870 
  3 N        1.7900     1.7410     0.8450 N.am  1 <1>  -0.4250 
  4 N        3.7130     0.3010     0.9280 N.am  1 <1>  -0.4410 
  5 C        2.5900     2.8730     0.7940 C.2   1 <1>   0.7000 
  6 C        0.3280     1.8930     0.6300 C.3   1 <1>   0.2720 
  7 C        4.5040     1.4260     0.8210 C.2   1 <1>   0.4210 
  8 C        4.3220    -1.0580     1.0380 C.3   1 <1>   0.0530 
  9 O        2.1010     3.9910     0.8170 O.2   1 <1>  -0.5740 
 10 C        4.0030     2.6840     0.7450 C.2   1 <1>   0.2710 
 11 C        0.0490     2.0120    -0.8640 C.2   1 <1>  -0.2820 
 12 N        5.8630     1.4850     0.7670 N.pl3 1 <1>  -0.7030 
 13 N        5.1120     3.5410     0.6220 N.pl3 1 <1>  -0.6330 
 14 C       -0.2660     3.1700    -1.4520 C.2   1 <1>  -0.3060 
 15 C        0.1400     0.7050    -1.6400 C.3   1 <1>  -0.1090 
 16 C        6.1890     2.7680     0.6330 C.cat 1 <1>   1.0690 
 17 C        5.5550     4.8370     0.4660 C.2   1 <1>   0.2350 
 18 N        7.3180     3.4760     0.5000 N.pl3 1 <1>  -0.5710 
 19 C        6.9080     4.7990     0.3940 C.2   1 <1>   0.1580 
 20 C        4.5670     5.9860     0.4060 C.3   1 <1>  -0.1090 
 21 C        8.7200     2.9530     0.5620 C.3   1 <1>   0.1610 
 22 C        7.9020     5.9360     0.2280 C.3   1 <1>  -0.1090 
 23 C        9.0150     1.8440    -0.4680 C.3   1 <1>   0.1930 
 24 O        8.2310     0.7150    -0.2320 O.3   1 <1>  -0.5640 
 25 C       10.4430     1.3230    -0.4000 C.3   1 <1>  -0.1670 
 26 C        8.8210    -0.4000    -0.8320 C.3   1 <1>   0.1130 
 27 C       10.3150    -0.1030    -0.9100 C.3   1 <1>  -0.1670 
 28 H       -0.0170     2.7790     1.1350 H     1 <1>   0.0730 
 29 H       -0.2140     1.0610     1.0440 H     1 <1>   0.0730 
 30 H        3.6280    -1.8100     0.7040 H     1 <1>   0.0730 
 31 H        4.5780    -1.2570     2.0640 H     1 <1>   0.0730 
 32 H        5.2060    -1.1250     0.4290 H     1 <1>   0.0730 
 33 H        6.5780     0.7630     0.6040 H     1 <1>   0.4450 
 34 H       -0.4760     3.2800    -2.5020 H     1 <1>   0.1430 
 35 H       -0.3400     4.1110    -0.9330 H     1 <1>   0.1430 
 36 H        1.1420     0.3170    -1.6190 H     1 <1>   0.0730 
 37 H       -0.1410     0.8550    -2.6670 H     1 <1>   0.0730 
 38 H       -0.5220    -0.0270    -1.2130 H     1 <1>   0.0730 
 39 H        3.8890     5.8450    -0.4170 H     1 <1>   0.0730 
 40 H        5.0710     6.9250     0.2770 H     1 <1>   0.0730 
 41 H        3.9950     6.0260     1.3160 H     1 <1>   0.0730 
 42 H        8.9130     2.5740     1.5510 H     1 <1>   0.0730 
 43 H        9.4100     3.7590     0.3880 H     1 <1>   0.0730 
 44 H        8.5670     5.9740     1.0720 H     1 <1>   0.0730 
 45 H        7.3970     6.8820     0.1560 H     1 <1>   0.0730 
 46 H        8.4810     5.7940    -0.6680 H     1 <1>   0.0730 
 47 H        8.8040     2.1910    -1.4670 H     1 <1>   0.0730 
 48 H       10.7920     1.3160     0.6180 H     1 <1>   0.0730 
 49 H       11.1150     1.9120    -0.9990 H     1 <1>   0.0730 
 50 H        8.3990    -0.5200    -1.8160 H     1 <1>   0.0730 
 51 H        8.6140    -1.2700    -0.2320 H     1 <1>   0.0730 
 52 H       10.8810    -0.7910    -0.3060 H     1 <1>   0.0730 
 53 H       10.6490    -0.1830    -1.9300 H     1 <1>   0.0730 
@<TRIPOS>BOND
  1   1   2  2   
  2   2   3  am  
  3   2   4  am  
  4   3   5  am  
  5   3   6  1   
  6   4   7  1   
  7   4   8  1   
  8   5   9  2   
  9   5  10  1   
 10   6  11  1   
 11   6  28  1   
 12   6  29  1   
 13   7  10  2   
 14   7  12  1   
 15   8  30  1   
 16   8  31  1   
 17   8  32  1   
 18  10  13  1   
 19  11  14  2   
 20  11  15  1   
 21  12  16  ar  
 22  12  33  1   
 23  13  16  ar  
 24  13  17  1   
 25  14  34  1   
 26  14  35  1   
 27  15  36  1   
 28  15  37  1   
 29  15  38  1   
 30  16  18  ar  
 31  17  19  2   
 32  17  20  1   
 33  18  19  1   
 34  18  21  1   
 35  19  22  1   
 36  20  39  1   
 37  20  40  1   
 38  20  41  1   
 39  21  23  1   
 40  21  42  1   
 41  21  43  1   
 42  22  44  1   
 43  22  45  1   
 44  22  46  1   
 45  23  24  1   
 46  23  25  1   
 47  23  47  1   
 48  24  26  1   
 49  25  27  1   
 50  25  48  1   
 51  25  49  1   
 52  26  27  1   
 53  26  50  1   
 54  26  51  1   
 55  27  52  1   
 56  27  53  1   
@<TRIPOS>SUBSTRUCTURE
  1 ****   7 GROUP 4 **** **** 0

# MOE 2024.06 (io_trps.svl 2023.06)
