@<TRIPOS>MOLECULE
1-(4-Methoxy-3-methyl-benzenesulfonyl)-piperidine-4-carboxylic acid 4-chloro-ben
54 56 1 0 0 
SMALL
USER_CHARGES


@<TRIPOS>ATOM
  1 CL      -0.6410     1.0550     0.3820 Cl    1 <1>  -0.1770 
  2 C       -2.2280     1.4940    -0.1970 C.ar  1 <1>   0.1770 
  3 C       -2.8730     0.6700    -1.0990 C.ar  1 <1>  -0.1500 
  4 C       -2.8160     2.6590     0.2570 C.ar  1 <1>  -0.1500 
  5 C       -4.1330     1.0200    -1.5550 C.ar  1 <1>  -0.1500 
  6 C       -4.0760     3.0050    -0.2030 C.ar  1 <1>  -0.1500 
  7 C       -4.7380     2.1880    -1.1110 C.ar  1 <1>  -0.1430 
  8 C       -6.1210     2.5660    -1.6090 C.3   1 <1>   0.2840 
  9 N       -7.1080     1.9470    -0.7120 N.am  1 <1>  -0.7300 
 10 C       -8.4470     2.0090    -0.9040 C.2   1 <1>   0.5690 
 11 O       -8.9160     2.5990    -1.8460 O.2   1 <1>  -0.5700 
 12 C       -9.3680     1.3170     0.0990 C.3   1 <1>  -0.0190 
 13 C      -10.3130     0.3170    -0.5880 C.3   1 <1>  -0.1600 
 14 C      -10.2000     2.3350     0.8950 C.3   1 <1>  -0.1600 
 15 C      -11.2750    -0.3160     0.4200 C.3   1 <1>   0.1960 
 16 C      -11.1780     1.6410     1.8470 C.3   1 <1>   0.1960 
 17 N      -12.0470     0.7260     1.1040 N.am  1 <1>  -0.8490 
 18 S      -13.2530     0.0700     2.1020 S.o2  1 <1>   1.4470 
 19 O      -12.6270    -1.0050     2.8440 O.2   1 <1>  -0.6500 
 20 O      -13.8550     1.1680     2.8280 O.2   1 <1>  -0.6500 
 21 C      -14.4560    -0.6020     0.9230 C.ar  1 <1>  -0.0090 
 22 C      -14.8450     0.1250    -0.1950 C.ar  1 <1>  -0.1500 
 23 C      -15.0250    -1.8560     1.1110 C.ar  1 <1>  -0.1500 
 24 C      -15.7580    -0.3750    -1.1100 C.ar  1 <1>  -0.1430 
 25 C      -15.9410    -2.3720     0.2110 C.ar  1 <1>  -0.1500 
 26 C      -16.3130    -1.6340    -0.9090 C.ar  1 <1>   0.0830 
 27 C      -16.1450     0.4600    -2.3220 C.3   1 <1>  -0.0970 
 28 O      -17.2050    -2.0870    -1.8280 O.3   1 <1>  -0.3620 
 29 C      -17.8430    -3.3370    -1.6930 C.3   1 <1>   0.0400 
 30 H       -2.3930    -0.2310    -1.4360 H     1 <1>   0.1500 
 31 H       -2.2930     3.2830     0.9590 H     1 <1>   0.1500 
 32 H       -4.6410     0.3800    -2.2570 H     1 <1>   0.1500 
 33 H       -4.5400     3.9110     0.1490 H     1 <1>   0.1500 
 34 H       -6.2740     2.2110    -2.6140 H     1 <1>   0.0800 
 35 H       -6.2500     3.6350    -1.6030 H     1 <1>   0.0800 
 36 H       -6.7010     1.4500     0.0820 H     1 <1>   0.3700 
 37 H       -8.7570     0.7700     0.7940 H     1 <1>   0.0800 
 38 H       -9.7390    -0.4550    -1.0680 H     1 <1>   0.0800 
 39 H      -10.8880     0.8180    -1.3480 H     1 <1>   0.0800 
 40 H      -10.7610     2.9550     0.2170 H     1 <1>   0.0800 
 41 H       -9.5470     2.9760     1.4600 H     1 <1>   0.0800 
 42 H      -10.7230    -0.8990     1.1390 H     1 <1>   0.0800 
 43 H      -11.9430    -0.9780    -0.1070 H     1 <1>   0.0800 
 44 H      -11.7750     2.3960     2.3330 H     1 <1>   0.0800 
 45 H      -10.6410     1.0970     2.6080 H     1 <1>   0.0800 
 46 H      -14.4160     1.1010    -0.3470 H     1 <1>   0.1500 
 47 H      -14.7450    -2.4370     1.9740 H     1 <1>   0.1500 
 48 H      -16.3510    -3.3450     0.3990 H     1 <1>   0.1500 
 49 H      -15.9290    -0.0860    -3.2240 H     1 <1>   0.0800 
 50 H      -15.6050     1.3890    -2.3460 H     1 <1>   0.0800 
 51 H      -17.1980     0.6740    -2.2940 H     1 <1>   0.0800 
 52 H      -18.5050    -3.4650    -2.5300 H     1 <1>   0.0800 
 53 H      -18.4060    -3.3440    -0.7770 H     1 <1>   0.0800 
 54 H      -17.0970    -4.1120    -1.6960 H     1 <1>   0.0800 
@<TRIPOS>BOND
  1   1   2  1   
  2   2   3  ar  
  3   2   4  ar  
  4   3   5  ar  
  5   3  30  1   
  6   4   6  ar  
  7   4  31  1   
  8   5   7  ar  
  9   5  32  1   
 10   6   7  ar  
 11   6  33  1   
 12   7   8  1   
 13   8   9  1   
 14   8  34  1   
 15   8  35  1   
 16   9  10  am  
 17   9  36  1   
 18  10  11  2   
 19  10  12  1   
 20  12  13  1   
 21  12  14  1   
 22  12  37  1   
 23  13  15  1   
 24  13  38  1   
 25  13  39  1   
 26  14  16  1   
 27  14  40  1   
 28  14  41  1   
 29  15  17  1   
 30  15  42  1   
 31  15  43  1   
 32  16  17  1   
 33  16  44  1   
 34  16  45  1   
 35  17  18  am  
 36  18  19  2   
 37  18  20  2   
 38  18  21  1   
 39  21  22  ar  
 40  21  23  ar  
 41  22  24  ar  
 42  22  46  1   
 43  23  25  ar  
 44  23  47  1   
 45  24  26  ar  
 46  24  27  1   
 47  25  26  ar  
 48  25  48  1   
 49  26  28  1   
 50  27  49  1   
 51  27  50  1   
 52  27  51  1   
 53  28  29  1   
 54  29  52  1   
 55  29  53  1   
 56  29  54  1   
@<TRIPOS>SUBSTRUCTURE
  1 ****  13 GROUP 4 **** **** 0

# MOE 2024.06 (io_trps.svl 2023.06)
