@<TRIPOS>MOLECULE
2-Adamantan-1-yl-N-furan-2-ylmethyl-acetamide
43 46 1 0 0 
SMALL
USER_CHARGES


@<TRIPOS>ATOM
  1 O        0.3560    -0.1420    -2.1480 O.2   1 <1>  -0.5700 
  2 C        0.7540    -0.9890    -1.3870 C.2   1 <1>   0.5690 
  3 N        1.8200    -0.7720    -0.5840 N.am  1 <1>  -0.7300 
  4 C        0.0660    -2.3400    -1.3430 C.3   1 <1>  -0.0990 
  5 C        2.5880     0.4810    -0.5330 C.3   1 <1>   0.3200 
  6 C       -1.0610    -2.4710    -0.2930 C.3   1 <1>   0.0000 
  7 C        3.9820     0.1740    -0.0190 C.2   1 <1>  -0.0400 
  8 C       -0.5290    -2.2780     1.1480 C.3   1 <1>  -0.1600 
  9 C       -1.6770    -3.8870    -0.3970 C.3   1 <1>  -0.1600 
 10 C       -2.1830    -1.4350    -0.5430 C.3   1 <1>  -0.1600 
 11 O        4.1180    -0.3770     1.1740 O.3   1 <1>  -0.2800 
 12 C        5.1920     0.3650    -0.5910 C.2   1 <1>  -0.1500 
 13 C       -1.6610    -2.4550     2.1780 C.3   1 <1>  -0.0800 
 14 C       -2.8150    -4.0710     0.6240 C.3   1 <1>  -0.0800 
 15 C       -3.3230    -1.6050     0.4790 C.3   1 <1>  -0.0800 
 16 C        5.4080    -0.5460     1.3900 C.2   1 <1>  -0.0100 
 17 C        6.1290    -0.1080     0.3370 C.2   1 <1>  -0.1500 
 18 C       -2.2550    -3.8680     2.0440 C.3   1 <1>  -0.1600 
 19 C       -2.7610    -1.4130     1.9000 C.3   1 <1>  -0.1600 
 20 C       -3.9100    -3.0230     0.3530 C.3   1 <1>  -0.1600 
 21 H        2.1470    -1.4820     0.0740 H     1 <1>   0.3700 
 22 H        0.8100    -3.0930    -1.1660 H     1 <1>   0.0800 
 23 H       -0.3430    -2.5240    -2.3200 H     1 <1>   0.0800 
 24 H        2.1000     1.1710     0.1320 H     1 <1>   0.0800 
 25 H        2.6390     0.9210    -1.5150 H     1 <1>   0.0800 
 26 H       -0.1150    -1.2920     1.2630 H     1 <1>   0.0800 
 27 H        0.2520    -2.9900     1.3510 H     1 <1>   0.0800 
 28 H       -0.9190    -4.6300    -0.2210 H     1 <1>   0.0800 
 29 H       -2.0640    -4.0450    -1.3890 H     1 <1>   0.0800 
 30 H       -2.5720    -1.5490    -1.5390 H     1 <1>   0.0800 
 31 H       -1.7900    -0.4360    -0.4650 H     1 <1>   0.0800 
 32 H        5.4250     0.7860    -1.5530 H     1 <1>   0.1500 
 33 H       -1.2730    -2.3160     3.1720 H     1 <1>   0.0800 
 34 H       -3.2290    -5.0610     0.5340 H     1 <1>   0.0800 
 35 H       -4.0910    -0.8750     0.2900 H     1 <1>   0.0800 
 36 H        5.7250    -0.9850     2.3190 H     1 <1>   0.1500 
 37 H        7.1960    -0.1060     0.2040 H     1 <1>   0.1500 
 38 H       -3.0410    -4.0030     2.7670 H     1 <1>   0.0800 
 39 H       -1.4960    -4.6040     2.2460 H     1 <1>   0.0800 
 40 H       -2.3580    -0.4210     2.0000 H     1 <1>   0.0800 
 41 H       -3.5530    -1.5180     2.6210 H     1 <1>   0.0800 
 42 H       -4.7150    -3.1470     1.0560 H     1 <1>   0.0800 
 43 H       -4.3130    -3.1640    -0.6340 H     1 <1>   0.0800 
@<TRIPOS>BOND
  1   1   2  2   
  2   2   3  am  
  3   2   4  1   
  4   3   5  1   
  5   3  21  1   
  6   4   6  1   
  7   4  22  1   
  8   4  23  1   
  9   5   7  1   
 10   5  24  1   
 11   5  25  1   
 12   6   8  1   
 13   6   9  1   
 14   6  10  1   
 15   7  11  1   
 16   7  12  2   
 17   8  13  1   
 18   8  26  1   
 19   8  27  1   
 20   9  14  1   
 21   9  28  1   
 22   9  29  1   
 23  10  15  1   
 24  10  30  1   
 25  10  31  1   
 26  11  16  1   
 27  12  17  1   
 28  12  32  1   
 29  13  18  1   
 30  13  19  1   
 31  13  33  1   
 32  14  18  1   
 33  14  20  1   
 34  14  34  1   
 35  15  19  1   
 36  15  20  1   
 37  15  35  1   
 38  16  17  2   
 39  16  36  1   
 40  17  37  1   
 41  18  38  1   
 42  18  39  1   
 43  19  40  1   
 44  19  41  1   
 45  20  42  1   
 46  20  43  1   
@<TRIPOS>SUBSTRUCTURE
  1 ****   8 GROUP 4 **** **** 0

# MOE 2024.06 (io_trps.svl 2023.06)
