@<TRIPOS>MOLECULE
2-(4-sec-Butyl-phenoxy)-N-(2-propyl-2H-tetrazol-5-yl)-acetamide
46 47 1 0 0 
SMALL
USER_CHARGES


@<TRIPOS>ATOM
  1 O       -0.2730    -0.0040     3.0450 O.2   1 <1>  -0.5700 
  2 C        0.0430    -0.6710     2.0910 C.2   1 <1>   0.5690 
  3 N       -0.7980    -0.9820     1.0700 N.am  1 <1>  -0.4930 
  4 C        1.4730    -1.1930     2.0340 C.3   1 <1>   0.1810 
  5 C       -2.1260    -0.6570     0.8510 C.2   1 <1>   0.5790 
  6 O        1.6980    -1.9520     0.8530 O.3   1 <1>  -0.3630 
  7 N       -2.8940     0.0660     1.6630 N.2   1 <1>  -0.2270 
  8 N       -2.7100    -1.0640    -0.2100 N.2   1 <1>  -0.7070 
  9 C        2.9080    -2.5130     0.6030 C.ar  1 <1>   0.0830 
 10 N       -4.0350     0.1300     1.0980 N.2   1 <1>  -0.4180 
 11 N       -3.9150    -0.5540    -0.0270 N.pl3 1 <1>   0.5800 
 12 C        4.0060    -2.4000     1.4510 C.ar  1 <1>  -0.1500 
 13 C        3.0300    -3.2350    -0.5720 C.ar  1 <1>  -0.1500 
 14 C       -5.0180    -0.7280    -0.9920 C.3   1 <1>   0.0960 
 15 C        5.2040    -3.0070     1.1160 C.ar  1 <1>  -0.1500 
 16 C        4.2300    -3.8390    -0.9020 C.ar  1 <1>  -0.1500 
 17 C       -5.7770    -2.0420    -0.7440 C.3   1 <1>  -0.1600 
 18 C        5.3290    -3.7320    -0.0610 C.ar  1 <1>  -0.1430 
 19 C       -6.9250    -2.2200    -1.7440 C.3   1 <1>  -0.2400 
 20 C        6.6610    -4.3930    -0.4120 C.3   1 <1>   0.0630 
 21 C        7.2390    -3.7740    -1.6990 C.3   1 <1>  -0.1600 
 22 C        6.4850    -5.9140    -0.5170 C.3   1 <1>  -0.2400 
 23 C        8.6680    -4.2370    -2.0150 C.3   1 <1>  -0.2400 
 24 H       -0.4060    -1.5500     0.3220 H     1 <1>   0.3700 
 25 H        1.6530    -1.8240     2.8840 H     1 <1>   0.0800 
 26 H        2.1530    -0.3610     2.0400 H     1 <1>   0.0800 
 27 H        3.9550    -1.8500     2.3710 H     1 <1>   0.1500 
 28 H        2.1840    -3.3230    -1.2280 H     1 <1>   0.1500 
 29 H       -4.6000    -0.7210    -1.9810 H     1 <1>   0.0800 
 30 H       -5.6850     0.1090    -0.8930 H     1 <1>   0.0800 
 31 H        6.0440    -2.9120     1.7810 H     1 <1>   0.1500 
 32 H        4.3030    -4.3950    -1.8190 H     1 <1>   0.1500 
 33 H       -6.1770    -2.0410     0.2560 H     1 <1>   0.0800 
 34 H       -5.0950    -2.8710    -0.8380 H     1 <1>   0.0800 
 35 H       -7.6330    -1.4150    -1.6560 H     1 <1>   0.0800 
 36 H       -7.4390    -3.1460    -1.5510 H     1 <1>   0.0800 
 37 H       -6.5500    -2.2450    -2.7530 H     1 <1>   0.0800 
 38 H        7.3560    -4.2000     0.3870 H     1 <1>   0.0800 
 39 H        7.2460    -2.7030    -1.5850 H     1 <1>   0.0800 
 40 H        6.6000    -4.0050    -2.5330 H     1 <1>   0.0800 
 41 H        5.8870    -6.1730    -1.3710 H     1 <1>   0.0800 
 42 H        5.9970    -6.2850     0.3670 H     1 <1>   0.0800 
 43 H        7.4380    -6.4020    -0.6030 H     1 <1>   0.0800 
 44 H        9.3210    -4.0410    -1.1830 H     1 <1>   0.0800 
 45 H        9.0400    -3.7060    -2.8730 H     1 <1>   0.0800 
 46 H        8.6910    -5.2890    -2.2370 H     1 <1>   0.0800 
@<TRIPOS>BOND
  1   1   2  2   
  2   2   3  am  
  3   2   4  1   
  4   3   5  1   
  5   3  24  1   
  6   4   6  1   
  7   4  25  1   
  8   4  26  1   
  9   5   7  1   
 10   5   8  2   
 11   6   9  1   
 12   7  10  2   
 13   8  11  1   
 14   9  12  ar  
 15   9  13  ar  
 16  10  11  1   
 17  11  14  1   
 18  12  15  ar  
 19  12  27  1   
 20  13  16  ar  
 21  13  28  1   
 22  14  17  1   
 23  14  29  1   
 24  14  30  1   
 25  15  18  ar  
 26  15  31  1   
 27  16  18  ar  
 28  16  32  1   
 29  17  19  1   
 30  17  33  1   
 31  17  34  1   
 32  18  20  1   
 33  19  35  1   
 34  19  36  1   
 35  19  37  1   
 36  20  21  1   
 37  20  22  1   
 38  20  38  1   
 39  21  23  1   
 40  21  39  1   
 41  21  40  1   
 42  22  41  1   
 43  22  42  1   
 44  22  43  1   
 45  23  44  1   
 46  23  45  1   
 47  23  46  1   
@<TRIPOS>SUBSTRUCTURE
  1 ****   6 GROUP 4 **** **** 0

# MOE 2024.06 (io_trps.svl 2023.06)
