@<TRIPOS>MOLECULE
2-(5-Cyclohexyl-4-methyl-4H-[1,2,4]triazol-3-ylsulfanyl)-N-thiophen-2-ylmethyl-a
45 47 1 0 0 
SMALL
USER_CHARGES


@<TRIPOS>ATOM
  1 S       -2.4270    -1.3480     0.7150 S.3   1 <1>  -0.0800 
  2 C       -3.8280    -0.6420    -0.0780 C.2   1 <1>  -0.1400 
  3 C       -2.5020    -2.7710    -0.3100 C.2   1 <1>  -0.1100 
  4 C       -4.2770    -1.4650    -1.0470 C.2   1 <1>  -0.1500 
  5 C       -4.2780     0.7140     0.4340 C.3   1 <1>   0.3200 
  6 C       -3.5260    -2.6760    -1.1770 C.2   1 <1>  -0.1500 
  7 N       -5.6430     1.0020    -0.0320 N.am  1 <1>  -0.7300 
  8 C       -6.3530     2.1000     0.3210 C.2   1 <1>   0.5690 
  9 O       -5.8520     2.9910     0.9640 O.2   1 <1>  -0.5700 
 10 C       -7.8120     2.2220    -0.0950 C.3   1 <1>   0.1310 
 11 S       -8.8390     0.9580     0.8010 S.3   1 <1>  -0.2860 
 12 C       -8.4380    -0.5760    -0.0440 C.2   1 <1>   0.2430 
 13 N       -7.8680    -0.6220    -1.1950 N.2   1 <1>  -0.3380 
 14 N       -8.6700    -1.7760     0.4870 N.pl3 1 <1>   0.0480 
 15 N       -7.6870    -1.9170    -1.4550 N.2   1 <1>  -0.3380 
 16 C       -8.1530    -2.5880    -0.4490 C.2   1 <1>   0.0060 
 17 C       -9.2980    -2.1000     1.7850 C.3   1 <1>   0.0160 
 18 C       -8.1150    -4.1110    -0.3330 C.3   1 <1>   0.1000 
 19 C       -6.7800    -4.6820    -0.8430 C.3   1 <1>  -0.1600 
 20 C       -9.2960    -4.7320    -1.0960 C.3   1 <1>  -0.1600 
 21 C       -6.7530    -6.2150    -0.7570 C.3   1 <1>  -0.1600 
 22 C       -9.2750    -6.2660    -1.0170 C.3   1 <1>  -0.1600 
 23 C       -7.9380    -6.8290    -1.5150 C.3   1 <1>  -0.1600 
 24 H       -1.7630    -3.5350    -0.1510 H     1 <1>   0.1500 
 25 H       -5.1150    -1.2790    -1.6960 H     1 <1>   0.1500 
 26 H       -3.6070     1.4810     0.0860 H     1 <1>   0.0800 
 27 H       -4.2710     0.7160     1.5100 H     1 <1>   0.0800 
 28 H       -3.7940    -3.4100    -1.9170 H     1 <1>   0.1500 
 29 H       -6.1040     0.2310    -0.5340 H     1 <1>   0.3700 
 30 H       -7.9310     2.0580    -1.1490 H     1 <1>   0.0800 
 31 H       -8.1970     3.1880     0.1740 H     1 <1>   0.0800 
 32 H       -9.9310    -1.2890     2.0970 H     1 <1>   0.0800 
 33 H       -8.5300    -2.2560     2.5200 H     1 <1>   0.0800 
 34 H       -9.8930    -2.9890     1.6870 H     1 <1>   0.0800 
 35 H       -8.2020    -4.3830     0.7030 H     1 <1>   0.0800 
 36 H       -5.9710    -4.2720    -0.2630 H     1 <1>   0.0800 
 37 H       -6.6320    -4.3860    -1.8670 H     1 <1>   0.0800 
 38 H       -9.2430    -4.4280    -2.1280 H     1 <1>   0.0800 
 39 H      -10.2230    -4.3630    -0.6940 H     1 <1>   0.0800 
 40 H       -6.7930    -6.5190     0.2760 H     1 <1>   0.0800 
 41 H       -5.8310    -6.5820    -1.1720 H     1 <1>   0.0800 
 42 H      -10.0770    -6.6670    -1.6130 H     1 <1>   0.0800 
 43 H       -9.4350    -6.5750     0.0010 H     1 <1>   0.0800 
 44 H       -7.9280    -7.8990    -1.3940 H     1 <1>   0.0800 
 45 H       -7.8330    -6.6170    -2.5660 H     1 <1>   0.0800 
@<TRIPOS>BOND
  1   1   2  1   
  2   1   3  1   
  3   2   4  2   
  4   2   5  1   
  5   3   6  2   
  6   3  24  1   
  7   4   6  1   
  8   4  25  1   
  9   5   7  1   
 10   5  26  1   
 11   5  27  1   
 12   6  28  1   
 13   7   8  am  
 14   7  29  1   
 15   8   9  2   
 16   8  10  1   
 17  10  11  1   
 18  10  30  1   
 19  10  31  1   
 20  11  12  1   
 21  12  13  2   
 22  12  14  1   
 23  13  15  1   
 24  14  16  1   
 25  14  17  1   
 26  15  16  2   
 27  16  18  1   
 28  17  32  1   
 29  17  33  1   
 30  17  34  1   
 31  18  19  1   
 32  18  20  1   
 33  18  35  1   
 34  19  21  1   
 35  19  36  1   
 36  19  37  1   
 37  20  22  1   
 38  20  38  1   
 39  20  39  1   
 40  21  23  1   
 41  21  40  1   
 42  21  41  1   
 43  22  23  1   
 44  22  42  1   
 45  22  43  1   
 46  23  44  1   
 47  23  45  1   
@<TRIPOS>SUBSTRUCTURE
  1 ****  15 GROUP 4 **** **** 0

# MOE 2024.06 (io_trps.svl 2023.06)
