@<TRIPOS>MOLECULE
N-(1,3-Diethyl-2-oxo-2,3-dihydro-1H-benzoimidazol-5-yl)-2-(5-methyl-[1,3,4]thiad
44 46 1 0 0 
SMALL
USER_CHARGES


@<TRIPOS>ATOM
  1 S        0.8430    -3.2110     1.3300 S.3   1 <1>  -0.0800 
  2 C        1.5370    -1.9410     0.3960 C.2   1 <1>   0.4340 
  3 C       -0.6910    -2.5990     0.8050 C.2   1 <1>   0.1980 
  4 S        3.3150    -1.8180     0.3770 S.3   1 <1>  -0.2860 
  5 N        0.6980    -1.1960    -0.2010 N.2   1 <1>  -0.3380 
  6 N       -0.5950    -1.5840     0.0400 N.2   1 <1>  -0.3380 
  7 C       -1.9380    -3.3040     1.2880 C.3   1 <1>  -0.0600 
  8 C        3.6080    -0.3550    -0.7360 C.3   1 <1>   0.1310 
  9 C        5.0900    -0.0440    -0.8940 C.2   1 <1>   0.5690 
 10 O        5.4020     0.7570    -1.7400 O.2   1 <1>  -0.5700 
 11 N        5.9950    -0.6780    -0.0840 N.am  1 <1>  -0.5470 
 12 C        7.3970    -0.5870     0.0040 C.ar  1 <1>   0.1170 
 13 C        8.1210     0.4810    -0.5160 C.ar  1 <1>  -0.1500 
 14 C        8.0830    -1.6160     0.6560 C.ar  1 <1>  -0.1500 
 15 C        9.5010     0.5010    -0.3830 C.ar  1 <1>   0.1170 
 16 C        9.4600    -1.5970     0.7920 C.ar  1 <1>  -0.1500 
 17 N       10.4520     1.4240    -0.8040 N.am  1 <1>  -0.4770 
 18 C       10.1660    -0.5260     0.2640 C.ar  1 <1>   0.1170 
 19 C       11.6770     0.9520    -0.4210 C.2   1 <1>   0.6900 
 20 C       10.2050     2.6500    -1.5850 C.3   1 <1>   0.1400 
 21 N       11.5270    -0.2340     0.2420 N.am  1 <1>  -0.4770 
 22 O       12.7460     1.5030    -0.6450 O.2   1 <1>  -0.5700 
 23 C        9.7530     3.7700    -0.6510 C.3   1 <1>  -0.2400 
 24 C       12.6220    -1.0580     0.7870 C.3   1 <1>   0.1400 
 25 C       12.7250    -0.8410     2.2950 C.3   1 <1>  -0.2400 
 26 H       -1.9850    -3.2710     2.3610 H     1 <1>   0.0800 
 27 H       -1.9280    -4.3280     0.9640 H     1 <1>   0.0800 
 28 H       -2.8090    -2.8190     0.8860 H     1 <1>   0.0800 
 29 H        3.0960     0.4840    -0.3030 H     1 <1>   0.0800 
 30 H        3.1740    -0.5890    -1.6900 H     1 <1>   0.0800 
 31 H        5.5770    -1.3740     0.5350 H     1 <1>   0.3700 
 32 H        7.6340     1.2960    -1.0160 H     1 <1>   0.1500 
 33 H        7.5290    -2.4440     1.0610 H     1 <1>   0.1500 
 34 H        9.9830    -2.3900     1.2930 H     1 <1>   0.1500 
 35 H        9.4500     2.4520    -2.3270 H     1 <1>   0.0800 
 36 H       11.1120     2.9370    -2.0900 H     1 <1>   0.0800 
 37 H        8.8420     3.4970    -0.1500 H     1 <1>   0.0800 
 38 H        9.5780     4.6660    -1.2170 H     1 <1>   0.0800 
 39 H       10.5180     3.9700     0.0790 H     1 <1>   0.0800 
 40 H       13.5470    -0.7760     0.3130 H     1 <1>   0.0800 
 41 H       12.4290    -2.0930     0.5680 H     1 <1>   0.0800 
 42 H       12.9330     0.1940     2.5020 H     1 <1>   0.0800 
 43 H       13.5260    -1.4360     2.6940 H     1 <1>   0.0800 
 44 H       11.8090    -1.1240     2.7810 H     1 <1>   0.0800 
@<TRIPOS>BOND
  1   1   2  1   
  2   1   3  1   
  3   2   4  1   
  4   2   5  2   
  5   3   6  2   
  6   3   7  1   
  7   4   8  1   
  8   5   6  1   
  9   7  26  1   
 10   7  27  1   
 11   7  28  1   
 12   8   9  1   
 13   8  29  1   
 14   8  30  1   
 15   9  10  2   
 16   9  11  am  
 17  11  12  1   
 18  11  31  1   
 19  12  13  ar  
 20  12  14  ar  
 21  13  15  ar  
 22  13  32  1   
 23  14  16  ar  
 24  14  33  1   
 25  15  17  1   
 26  15  18  ar  
 27  16  18  ar  
 28  16  34  1   
 29  17  19  am  
 30  17  20  1   
 31  18  21  1   
 32  19  21  am  
 33  19  22  2   
 34  20  23  1   
 35  20  35  1   
 36  20  36  1   
 37  21  24  1   
 38  23  37  1   
 39  23  38  1   
 40  23  39  1   
 41  24  25  1   
 42  24  40  1   
 43  24  41  1   
 44  25  42  1   
 45  25  43  1   
 46  25  44  1   
@<TRIPOS>SUBSTRUCTURE
  1 ****  12 GROUP 4 **** **** 0

# MOE 2024.06 (io_trps.svl 2023.06)
