@<TRIPOS>MOLECULE
3,4,5-Trimethoxy-N-(4-morpholin-4-ylmethyl-phenyl)-benzamide
55 57 1 0 0 
SMALL
USER_CHARGES


@<TRIPOS>ATOM
  1 O        0.4490     0.6320     0.9650 O.2   1 <1>  -0.5700 
  2 C        0.2400     1.6370     0.3140 C.2   1 <1>   0.5440 
  3 N        1.3000     2.3660    -0.1750 N.am  1 <1>  -0.5470 
  4 C       -1.1160     2.0530     0.0150 C.ar  1 <1>   0.0860 
  5 C        2.6680     2.2250     0.0850 C.ar  1 <1>   0.1170 
  6 C       -1.4670     3.4010    -0.0560 C.ar  1 <1>  -0.1500 
  7 C       -2.1130     1.1050    -0.2110 C.ar  1 <1>  -0.1500 
  8 C        3.1450     1.8230     1.3270 C.ar  1 <1>  -0.1500 
  9 C        3.5880     2.5040    -0.9180 C.ar  1 <1>  -0.1500 
 10 C       -2.7620     3.7980    -0.3680 C.ar  1 <1>   0.0830 
 11 C       -3.4140     1.4750    -0.5260 C.ar  1 <1>   0.0830 
 12 C        4.5000     1.6780     1.5560 C.ar  1 <1>  -0.1500 
 13 C        4.9460     2.3600    -0.6960 C.ar  1 <1>  -0.1500 
 14 O       -3.1310     5.1100    -0.4380 O.3   1 <1>  -0.3630 
 15 C       -3.7350     2.8300    -0.6120 C.ar  1 <1>   0.0830 
 16 O       -4.4010     0.5610    -0.7560 O.3   1 <1>  -0.3630 
 17 C        5.4100     1.9330     0.5400 C.ar  1 <1>  -0.1430 
 18 C       -2.2330     6.1610    -0.1590 C.3   1 <1>   0.0400 
 19 O       -4.9910     3.2150    -0.9530 O.3   1 <1>  -0.3630 
 20 C       -4.1460    -0.8260    -0.7430 C.3   1 <1>   0.0400 
 21 C        6.8920     1.7200     0.7800 C.3   1 <1>   0.4860 
 22 C       -5.9300     3.2450     0.0950 C.3   1 <1>   0.0400 
 23 N        7.3020     0.4590     0.1070 N.4   1 <1>  -0.9590 
 24 C        6.5090    -0.7460     0.5360 C.3   1 <1>   0.3430 
 25 C        8.7750     0.1860     0.1790 C.3   1 <1>   0.3430 
 26 C        6.9360    -2.0050    -0.2530 C.3   1 <1>   0.1200 
 27 C        9.1330    -1.1770    -0.4610 C.3   1 <1>   0.1200 
 28 O        8.0210    -1.7370    -1.1040 O.3   1 <1>  -0.5600 
 29 H        1.0590     3.0240    -0.9140 H     1 <1>   0.3700 
 30 H       -0.7100     4.1330     0.1470 H     1 <1>   0.1500 
 31 H       -1.8360     0.0700    -0.1340 H     1 <1>   0.1500 
 32 H        2.4460     1.6190     2.1190 H     1 <1>   0.1500 
 33 H        3.2370     2.8290    -1.8810 H     1 <1>   0.1500 
 34 H        4.8270     1.3630     2.5320 H     1 <1>   0.1500 
 35 H        5.6290     2.5820    -1.4990 H     1 <1>   0.1500 
 36 H       -2.7650     7.0890    -0.2640 H     1 <1>   0.0800 
 37 H       -1.4230     6.1250    -0.8660 H     1 <1>   0.0800 
 38 H       -1.8760     6.0580     0.8500 H     1 <1>   0.0800 
 39 H       -5.0650    -1.3360    -0.9710 H     1 <1>   0.0800 
 40 H       -3.8050    -1.1100     0.2370 H     1 <1>   0.0800 
 41 H       -3.4080    -1.0530    -1.4910 H     1 <1>   0.0800 
 42 H        7.0840     1.6580     1.8390 H     1 <1>   0.0800 
 43 H        7.4440     2.5540     0.3790 H     1 <1>   0.0800 
 44 H       -6.8690     3.5770    -0.3070 H     1 <1>   0.0800 
 45 H       -5.5850     3.9320     0.8470 H     1 <1>   0.0800 
 46 H       -6.0310     2.2550     0.5020 H     1 <1>   0.0800 
 47 H        7.0830     0.5510    -0.8950 H     1 <1>   0.4500 
 48 H        5.4560    -0.5760     0.3760 H     1 <1>   0.0800 
 49 H        6.6510    -0.9250     1.5890 H     1 <1>   0.0800 
 50 H        9.1040     0.1830     1.2050 H     1 <1>   0.0800 
 51 H        9.3170     0.9630    -0.3340 H     1 <1>   0.0800 
 52 H        6.1200    -2.3500    -0.8640 H     1 <1>   0.0800 
 53 H        7.2120    -2.8000     0.4180 H     1 <1>   0.0800 
 54 H        9.4840    -1.8700     0.2850 H     1 <1>   0.0800 
 55 H        9.9100    -1.0510    -1.1950 H     1 <1>   0.0800 
@<TRIPOS>BOND
  1   1   2  2   
  2   2   3  am  
  3   2   4  1   
  4   3   5  1   
  5   3  29  1   
  6   4   6  ar  
  7   4   7  ar  
  8   5   8  ar  
  9   5   9  ar  
 10   6  10  ar  
 11   6  30  1   
 12   7  11  ar  
 13   7  31  1   
 14   8  12  ar  
 15   8  32  1   
 16   9  13  ar  
 17   9  33  1   
 18  10  14  1   
 19  10  15  ar  
 20  11  15  ar  
 21  11  16  1   
 22  12  17  ar  
 23  12  34  1   
 24  13  17  ar  
 25  13  35  1   
 26  14  18  1   
 27  15  19  1   
 28  16  20  1   
 29  17  21  1   
 30  18  36  1   
 31  18  37  1   
 32  18  38  1   
 33  19  22  1   
 34  20  39  1   
 35  20  40  1   
 36  20  41  1   
 37  21  23  1   
 38  21  42  1   
 39  21  43  1   
 40  22  44  1   
 41  22  45  1   
 42  22  46  1   
 43  23  24  1   
 44  23  25  1   
 45  23  47  1   
 46  24  26  1   
 47  24  48  1   
 48  24  49  1   
 49  25  27  1   
 50  25  50  1   
 51  25  51  1   
 52  26  28  1   
 53  26  52  1   
 54  26  53  1   
 55  27  28  1   
 56  27  54  1   
 57  27  55  1   
@<TRIPOS>SUBSTRUCTURE
  1 ****   3 GROUP 4 **** **** 0

# MOE 2024.06 (io_trps.svl 2023.06)
