@<TRIPOS>MOLECULE
N-(2,4-Dimethyl-phenyl)-3-[3-(3,4,5-trimethoxy-phenyl)-[1,2,4]oxadiazol-5-yl]-pr
55 57 1 0 0 
SMALL
USER_CHARGES


@<TRIPOS>ATOM
  1 O       -0.0740    -0.3700    -0.3270 O.2   1 <1>  -0.5700 
  2 C        0.4800    -1.4270    -0.1600 C.2   1 <1>   0.5690 
  3 N        1.8020    -1.4520     0.1430 N.am  1 <1>  -0.5470 
  4 C       -0.2960    -2.7250    -0.3070 C.3   1 <1>  -0.0990 
  5 C        2.6410    -2.5510     0.3580 C.ar  1 <1>   0.1170 
  6 C       -1.6260    -2.5460    -1.0550 C.3   1 <1>   0.0200 
  7 C        3.7030    -2.8220    -0.5030 C.ar  1 <1>  -0.1430 
  8 C        2.4210    -3.3850     1.4470 C.ar  1 <1>  -0.1500 
  9 C       -2.3370    -3.8720    -1.2280 C.2   1 <1>   0.2980 
 10 C        4.5130    -3.9200    -0.2650 C.ar  1 <1>  -0.1500 
 11 C        3.9840    -1.9330    -1.7080 C.3   1 <1>  -0.0960 
 12 C        3.2330    -4.4790     1.6750 C.ar  1 <1>  -0.1500 
 13 O       -1.8400    -4.7480    -2.0620 O.3   1 <1>  -0.0190 
 14 N       -3.3920    -4.2310    -0.6250 N.2   1 <1>  -0.5650 
 15 C        4.2840    -4.7540     0.8170 C.ar  1 <1>  -0.1430 
 16 N       -2.6520    -5.7540    -1.9820 N.2   1 <1>  -0.4100 
 17 C       -3.5730    -5.4540    -1.1360 C.2   1 <1>   0.4620 
 18 C        5.1820    -5.9540     1.0600 C.3   1 <1>  -0.0970 
 19 C       -4.6860    -6.3070    -0.7540 C.ar  1 <1>   0.0540 
 20 C       -4.8170    -7.5980    -1.2650 C.ar  1 <1>  -0.1500 
 21 C       -5.6660    -5.8770     0.1410 C.ar  1 <1>  -0.1500 
 22 C       -5.8680    -8.4290    -0.9170 C.ar  1 <1>   0.0830 
 23 C       -6.7250    -6.6880     0.5060 C.ar  1 <1>   0.0830 
 24 O       -5.8660    -9.6640    -1.4880 O.3   1 <1>  -0.3620 
 25 C       -6.8550    -7.9680    -0.0390 C.ar  1 <1>   0.0830 
 26 O       -7.6220    -6.1790     1.3870 O.3   1 <1>  -0.3630 
 27 C       -6.1610   -10.7930    -0.6940 C.3   1 <1>   0.0400 
 28 O       -7.9370    -8.7350     0.2630 O.3   1 <1>  -0.3630 
 29 C       -7.6700    -6.7870     2.6580 C.3   1 <1>   0.0400 
 30 C       -9.1250    -8.3830    -0.4080 C.3   1 <1>   0.0400 
 31 H        2.2440    -0.5340     0.1270 H     1 <1>   0.3700 
 32 H       -0.4920    -3.1190     0.6730 H     1 <1>   0.0800 
 33 H        0.3140    -3.4330    -0.8380 H     1 <1>   0.0800 
 34 H       -1.4500    -2.1140    -2.0240 H     1 <1>   0.0800 
 35 H       -2.2640    -1.8780    -0.5030 H     1 <1>   0.0800 
 36 H        1.6130    -3.1730     2.1230 H     1 <1>   0.1500 
 37 H        5.3340    -4.1350    -0.9270 H     1 <1>   0.1500 
 38 H        3.1070    -1.8640    -2.3280 H     1 <1>   0.0800 
 39 H        4.7870    -2.3290    -2.3020 H     1 <1>   0.0800 
 40 H        4.2580    -0.9460    -1.3810 H     1 <1>   0.0800 
 41 H        3.0470    -5.1140     2.5240 H     1 <1>   0.1500 
 42 H        5.4860    -6.3890     0.1250 H     1 <1>   0.0800 
 43 H        4.6660    -6.7040     1.6310 H     1 <1>   0.0800 
 44 H        6.0590    -5.6470     1.6020 H     1 <1>   0.0800 
 45 H       -4.0820    -7.9730    -1.9550 H     1 <1>   0.1500 
 46 H       -5.6080    -4.8910     0.5650 H     1 <1>   0.1500 
 47 H       -5.7480   -10.6510     0.2900 H     1 <1>   0.0800 
 48 H       -7.2270   -10.9150    -0.6430 H     1 <1>   0.0800 
 49 H       -5.7190   -11.6540    -1.1590 H     1 <1>   0.0800 
 50 H       -6.6780    -6.7980     3.0760 H     1 <1>   0.0800 
 51 H       -8.0460    -7.7890     2.5610 H     1 <1>   0.0800 
 52 H       -8.3260    -6.2090     3.2830 H     1 <1>   0.0800 
 53 H       -9.8950    -9.0740    -0.1160 H     1 <1>   0.0800 
 54 H       -9.4030    -7.3810    -0.1310 H     1 <1>   0.0800 
 55 H       -8.9540    -8.4450    -1.4690 H     1 <1>   0.0800 
@<TRIPOS>BOND
  1   1   2  2   
  2   2   3  am  
  3   2   4  1   
  4   3   5  1   
  5   3  31  1   
  6   4   6  1   
  7   4  32  1   
  8   4  33  1   
  9   5   7  ar  
 10   5   8  ar  
 11   6   9  1   
 12   6  34  1   
 13   6  35  1   
 14   7  10  ar  
 15   7  11  1   
 16   8  12  ar  
 17   8  36  1   
 18   9  13  1   
 19   9  14  2   
 20  10  15  ar  
 21  10  37  1   
 22  11  38  1   
 23  11  39  1   
 24  11  40  1   
 25  12  15  ar  
 26  12  41  1   
 27  13  16  1   
 28  14  17  1   
 29  15  18  1   
 30  16  17  2   
 31  17  19  1   
 32  18  42  1   
 33  18  43  1   
 34  18  44  1   
 35  19  20  ar  
 36  19  21  ar  
 37  20  22  ar  
 38  20  45  1   
 39  21  23  ar  
 40  21  46  1   
 41  22  24  1   
 42  22  25  ar  
 43  23  25  ar  
 44  23  26  1   
 45  24  27  1   
 46  25  28  1   
 47  26  29  1   
 48  27  47  1   
 49  27  48  1   
 50  27  49  1   
 51  28  30  1   
 52  29  50  1   
 53  29  51  1   
 54  29  52  1   
 55  30  53  1   
 56  30  54  1   
 57  30  55  1   
@<TRIPOS>SUBSTRUCTURE
  1 ****  14 GROUP 4 **** **** 0

# MOE 2024.06 (io_trps.svl 2023.06)
