@<TRIPOS>MOLECULE
1-[2-Methyl-3-(toluene-4-sulfonyl)-imidazolidin-1-yl]-propan-1-one
40 41 1 0 0 
SMALL
USER_CHARGES


@<TRIPOS>ATOM
  1 S       -0.0560     0.8390    -0.8610 S.o2  1 <1>   1.4470 
  2 O       -0.7020     2.1340    -0.8640 O.2   1 <1>  -0.6500 
  3 O        0.5080     0.3680    -2.1070 O.2   1 <1>  -0.6500 
  4 N        1.1850     0.9450     0.2950 N.am  1 <1>  -0.8490 
  5 C       -1.2520    -0.3510    -0.1910 C.ar  1 <1>  -0.0090 
  6 C        2.1190    -0.1780     0.4340 C.3   1 <1>   0.5760 
  7 C        2.0350     2.1030     0.0170 C.3   1 <1>   0.1960 
  8 C       -1.7230    -1.4110    -0.9560 C.ar  1 <1>  -0.1500 
  9 C       -1.7280    -0.2280     1.1090 C.ar  1 <1>  -0.1500 
 10 N        3.3360     0.2060    -0.3010 N.am  1 <1>  -0.6600 
 11 C        1.6190    -1.5670     0.0300 C.3   1 <1>  -0.2400 
 12 C        3.1570     1.5610    -0.8440 C.3   1 <1>   0.1400 
 13 C       -2.6260    -2.3240    -0.4390 C.ar  1 <1>  -0.1500 
 14 C       -2.6310    -1.1370     1.6330 C.ar  1 <1>  -0.1500 
 15 C        4.5910    -0.3280    -0.1810 C.2   1 <1>   0.5690 
 16 C       -3.0840    -2.1920     0.8600 C.ar  1 <1>  -0.1430 
 17 O        5.5200     0.1480    -0.7900 O.2   1 <1>  -0.5700 
 18 C        4.8770    -1.5260     0.7240 C.3   1 <1>  -0.0990 
 19 C       -4.0730    -3.1920     1.4310 C.3   1 <1>  -0.0970 
 20 C        6.2870    -1.5240     1.3410 C.3   1 <1>  -0.2400 
 21 H        2.3820    -0.2250     1.4790 H     1 <1>   0.0800 
 22 H        2.4480     2.4700     0.9410 H     1 <1>   0.0800 
 23 H        1.5210     2.9150    -0.4680 H     1 <1>   0.0800 
 24 H       -1.3780    -1.5260    -1.9700 H     1 <1>   0.1500 
 25 H       -1.3870     0.5920     1.7180 H     1 <1>   0.1500 
 26 H        1.4330    -1.6380    -1.0250 H     1 <1>   0.0800 
 27 H        0.7400    -1.8240     0.5870 H     1 <1>   0.0800 
 28 H        2.3510    -2.3100     0.2710 H     1 <1>   0.0800 
 29 H        4.0480     2.1580    -0.7510 H     1 <1>   0.0800 
 30 H        2.8620     1.5060    -1.8770 H     1 <1>   0.0800 
 31 H       -2.9710    -3.1380    -1.0540 H     1 <1>   0.1500 
 32 H       -2.9810    -1.0180     2.6440 H     1 <1>   0.1500 
 33 H        4.7570    -2.4190     0.1380 H     1 <1>   0.0800 
 34 H        4.1730    -1.5530     1.5320 H     1 <1>   0.0800 
 35 H       -3.5430    -4.0020     1.9000 H     1 <1>   0.0800 
 36 H       -4.6980    -3.5910     0.6520 H     1 <1>   0.0800 
 37 H       -4.7050    -2.7210     2.1620 H     1 <1>   0.0800 
 38 H        7.0330    -1.5620     0.5650 H     1 <1>   0.0800 
 39 H        6.4170    -2.3770     1.9820 H     1 <1>   0.0800 
 40 H        6.4400    -0.6280     1.9160 H     1 <1>   0.0800 
@<TRIPOS>BOND
  1   1   2  2   
  2   1   3  2   
  3   1   4  am  
  4   1   5  1   
  5   4   6  1   
  6   4   7  1   
  7   5   8  ar  
  8   5   9  ar  
  9   6  10  1   
 10   6  11  1   
 11   6  21  1   
 12   7  12  1   
 13   7  22  1   
 14   7  23  1   
 15   8  13  ar  
 16   8  24  1   
 17   9  14  ar  
 18   9  25  1   
 19  10  12  1   
 20  10  15  am  
 21  11  26  1   
 22  11  27  1   
 23  11  28  1   
 24  12  29  1   
 25  12  30  1   
 26  13  16  ar  
 27  13  31  1   
 28  14  16  ar  
 29  14  32  1   
 30  15  17  2   
 31  15  18  1   
 32  16  19  1   
 33  18  20  1   
 34  18  33  1   
 35  18  34  1   
 36  19  35  1   
 37  19  36  1   
 38  19  37  1   
 39  20  38  1   
 40  20  39  1   
 41  20  40  1   
@<TRIPOS>SUBSTRUCTURE
  1 ****   6 GROUP 4 **** **** 0

# MOE 2024.06 (io_trps.svl 2023.06)
