@<TRIPOS>MOLECULE
N-(4-Ethyl-5-mercapto-4H-[1,2,4]triazol-3-ylmethyl)-4-methyl-benzamide
35 36 1 0 0 
SMALL
USER_CHARGES


@<TRIPOS>ATOM
  1 S       -0.5410    -0.5080    -1.8170 S.3   1 <1>  -0.9360 
  2 C       -1.0680     1.0220    -1.7140 C.cat 1 <1>   0.7360 
  3 N       -0.7120     1.9860    -2.5330 N.pl3 1 <1>  -0.3930 
  4 N       -1.9110     1.5150    -0.8270 N.pl3 1 <1>  -0.7640 
  5 N       -1.3310     3.1570    -2.1970 N.2   1 <1>  -0.2600 
  6 C       -2.0430     2.8430    -1.1730 C.2   1 <1>   0.4850 
  7 C       -2.5330     0.7340     0.2590 C.3   1 <1>   0.3540 
  8 C       -2.9410     3.8370    -0.4310 C.3   1 <1>   0.3080 
  9 C       -1.7930     1.0000     1.5650 C.3   1 <1>  -0.2400 
 10 N       -4.3960     3.5430    -0.6090 N.am  1 <1>  -0.7300 
 11 C       -5.2260     3.1120     0.3840 C.2   1 <1>   0.5440 
 12 O       -4.7550     2.9690     1.4940 O.2   1 <1>  -0.5700 
 13 C       -6.6240     2.8240     0.1180 C.ar  1 <1>   0.0860 
 14 C       -7.0600     2.3650    -1.1270 C.ar  1 <1>  -0.1500 
 15 C       -7.5900     2.9940     1.1090 C.ar  1 <1>  -0.1500 
 16 C       -8.3960     2.1030    -1.3710 C.ar  1 <1>  -0.1500 
 17 C       -8.9260     2.7330     0.8700 C.ar  1 <1>  -0.1500 
 18 C       -9.3390     2.2860    -0.3740 C.ar  1 <1>  -0.1430 
 19 C      -10.8060     2.0010    -0.6390 C.3   1 <1>  -0.0970 
 20 H       -0.0570     1.8080    -3.2930 H     1 <1>   0.4500 
 21 H       -2.4830    -0.3180     0.0280 H     1 <1>   0.0800 
 22 H       -3.5700     0.9950     0.3550 H     1 <1>   0.0800 
 23 H       -2.7430     4.8270    -0.8010 H     1 <1>   0.0800 
 24 H       -2.6810     3.8250     0.6110 H     1 <1>   0.0800 
 25 H       -0.7560     0.7310     1.4590 H     1 <1>   0.0800 
 26 H       -2.2220     0.4000     2.3460 H     1 <1>   0.0800 
 27 H       -1.8760     2.0320     1.8490 H     1 <1>   0.0800 
 28 H       -4.7740     3.6980    -1.5450 H     1 <1>   0.3700 
 29 H       -6.3500     2.1990    -1.9160 H     1 <1>   0.1500 
 30 H       -7.2830     3.3370     2.0820 H     1 <1>   0.1500 
 31 H       -8.7030     1.7520    -2.3420 H     1 <1>   0.1500 
 32 H       -9.6460     2.8790     1.6570 H     1 <1>   0.1500 
 33 H      -10.9140     1.2330    -1.3840 H     1 <1>   0.0800 
 34 H      -11.2930     2.8940    -0.9880 H     1 <1>   0.0800 
 35 H      -11.2930     1.6690     0.2610 H     1 <1>   0.0800 
@<TRIPOS>BOND
  1   1   2  1   
  2   2   3  ar  
  3   2   4  ar  
  4   3   5  1   
  5   3  20  1   
  6   4   6  1   
  7   4   7  1   
  8   5   6  2   
  9   6   8  1   
 10   7   9  1   
 11   7  21  1   
 12   7  22  1   
 13   8  10  1   
 14   8  23  1   
 15   8  24  1   
 16   9  25  1   
 17   9  26  1   
 18   9  27  1   
 19  10  11  am  
 20  10  28  1   
 21  11  12  2   
 22  11  13  1   
 23  13  14  ar  
 24  13  15  ar  
 25  14  16  ar  
 26  14  29  1   
 27  15  17  ar  
 28  15  30  1   
 29  16  18  ar  
 30  16  31  1   
 31  17  18  ar  
 32  17  32  1   
 33  18  19  1   
 34  19  33  1   
 35  19  34  1   
 36  19  35  1   
@<TRIPOS>SUBSTRUCTURE
  1 ****  10 GROUP 4 **** **** 0

# MOE 2024.06 (io_trps.svl 2023.06)
