@<TRIPOS>MOLECULE
1-(2,6-Dimethyl-phenyl)-5-oxo-pyrrolidine-3-carboxylic acid (3-methoxy-phenyl)-a
47 49 1 0 0 
SMALL
USER_CHARGES


@<TRIPOS>ATOM
  1 O        2.3870    -0.9310     2.3970 O.2   1 <1>  -0.5700 
  2 C        2.6860    -0.9320     1.2290 C.2   1 <1>   0.5690 
  3 N        2.2850    -1.8270     0.2850 N.am  1 <1>  -0.4770 
  4 C        3.5710     0.1260     0.6350 C.3   1 <1>  -0.0990 
  5 C        1.4260    -2.9260     0.4580 C.ar  1 <1>   0.1170 
  6 C        2.8390    -1.5090    -1.0410 C.3   1 <1>   0.1400 
  7 C        3.4080    -0.0930    -0.8770 C.3   1 <1>  -0.0190 
  8 C        1.9460    -4.1920     0.7360 C.ar  1 <1>  -0.1440 
  9 C        0.0430    -2.7640     0.3390 C.ar  1 <1>  -0.1440 
 10 C        4.6380     0.2490    -1.7130 C.2   1 <1>   0.5690 
 11 C        1.0940    -5.2760     0.8650 C.ar  1 <1>  -0.1500 
 12 C        3.4430    -4.4070     0.9080 C.3   1 <1>  -0.0970 
 13 C       -0.7940    -3.8590     0.4710 C.ar  1 <1>  -0.1500 
 14 C       -0.5710    -1.3940     0.0770 C.3   1 <1>  -0.0960 
 15 O        4.6140     1.2800    -2.3340 O.2   1 <1>  -0.5700 
 16 N        5.7520    -0.5290    -1.8070 N.am  1 <1>  -0.5470 
 17 C       -0.2720    -5.1130     0.7300 C.ar  1 <1>  -0.1500 
 18 C        6.0840    -1.7830    -1.2880 C.ar  1 <1>   0.1170 
 19 C        6.4470    -1.9440     0.0400 C.ar  1 <1>  -0.1500 
 20 C        6.0780    -2.8940    -2.1220 C.ar  1 <1>  -0.1500 
 21 C        6.7730    -3.1910     0.5430 C.ar  1 <1>   0.0820 
 22 C        6.4140    -4.1440    -1.6330 C.ar  1 <1>  -0.1500 
 23 O        7.0880    -3.2520     1.8600 O.3   1 <1>  -0.3630 
 24 C        6.7610    -4.2980    -0.3020 C.ar  1 <1>  -0.1500 
 25 C        7.3110    -4.4860     2.5050 C.3   1 <1>   0.0400 
 26 H        4.5770    -0.0340     0.9670 H     1 <1>   0.0800 
 27 H        3.2450     1.1060     0.9320 H     1 <1>   0.0800 
 28 H        2.0650    -1.5360    -1.7890 H     1 <1>   0.0800 
 29 H        3.5900    -2.2340    -1.2830 H     1 <1>   0.0800 
 30 H        2.6250     0.5710    -1.2000 H     1 <1>   0.0800 
 31 H        1.4860    -6.2550     1.0760 H     1 <1>   0.1500 
 32 H        3.8400    -3.6960     1.6120 H     1 <1>   0.0800 
 33 H        3.9370    -4.2760    -0.0360 H     1 <1>   0.0800 
 34 H        3.6550    -5.3940     1.2730 H     1 <1>   0.0800 
 35 H       -1.8590    -3.7450     0.3780 H     1 <1>   0.1500 
 36 H       -0.2290    -1.0100    -0.8660 H     1 <1>   0.0800 
 37 H       -0.2820    -0.7140     0.8580 H     1 <1>   0.0800 
 38 H       -1.6440    -1.4470     0.0560 H     1 <1>   0.0800 
 39 H        6.4460    -0.1200    -2.4360 H     1 <1>   0.3700 
 40 H       -0.9290    -5.9590     0.8330 H     1 <1>   0.1500 
 41 H        6.4940    -1.0970     0.6980 H     1 <1>   0.1500 
 42 H        5.8110    -2.7790    -3.1570 H     1 <1>   0.1500 
 43 H        6.4070    -4.9980    -2.2890 H     1 <1>   0.1500 
 44 H        7.0180    -5.2770     0.0560 H     1 <1>   0.1500 
 45 H        7.4930    -4.2890     3.5460 H     1 <1>   0.0800 
 46 H        8.1720    -4.9590     2.0670 H     1 <1>   0.0800 
 47 H        6.4350    -5.1000     2.3970 H     1 <1>   0.0800 
@<TRIPOS>BOND
  1   1   2  2   
  2   2   3  am  
  3   2   4  1   
  4   3   5  1   
  5   3   6  1   
  6   4   7  1   
  7   4  26  1   
  8   4  27  1   
  9   5   8  ar  
 10   5   9  ar  
 11   6   7  1   
 12   6  28  1   
 13   6  29  1   
 14   7  10  1   
 15   7  30  1   
 16   8  11  ar  
 17   8  12  1   
 18   9  13  ar  
 19   9  14  1   
 20  10  15  2   
 21  10  16  am  
 22  11  17  ar  
 23  11  31  1   
 24  12  32  1   
 25  12  33  1   
 26  12  34  1   
 27  13  17  ar  
 28  13  35  1   
 29  14  36  1   
 30  14  37  1   
 31  14  38  1   
 32  16  18  1   
 33  16  39  1   
 34  17  40  1   
 35  18  19  ar  
 36  18  20  ar  
 37  19  21  ar  
 38  19  41  1   
 39  20  22  ar  
 40  20  42  1   
 41  21  23  1   
 42  21  24  ar  
 43  22  24  ar  
 44  22  43  1   
 45  23  25  1   
 46  24  44  1   
 47  25  45  1   
 48  25  46  1   
 49  25  47  1   
@<TRIPOS>SUBSTRUCTURE
  1 ****   3 GROUP 4 **** **** 0

# MOE 2024.06 (io_trps.svl 2023.06)
