@<TRIPOS>MOLECULE
1-(Thiophene-2-sulfonyl)-azepane
30 31 1 0 0 
SMALL
USER_CHARGES


@<TRIPOS>ATOM
  1 S       -0.1740    -0.1310     0.6130 S.o2  1 <1>   1.5000 
  2 O       -0.1460    -1.4830     0.0970 O.2   1 <1>  -0.6500 
  3 O       -0.1210     0.0700     2.0460 O.2   1 <1>  -0.6500 
  4 N        1.1450     0.7150    -0.0420 N.am  1 <1>  -0.8490 
  5 C       -1.6270     0.7200    -0.0530 C.2   1 <1>  -0.0220 
  6 C        2.3960    -0.0410     0.0980 C.3   1 <1>   0.1960 
  7 C        1.2310     2.0720     0.5100 C.3   1 <1>   0.1960 
  8 S       -1.6500     1.1170    -1.7710 S.3   1 <1>  -0.0800 
  9 C       -2.7810     1.1330     0.5140 C.2   1 <1>  -0.1500 
 10 C        3.3750     0.3420    -1.0150 C.3   1 <1>  -0.1600 
 11 C        2.2250     2.9710    -0.2340 C.3   1 <1>  -0.1600 
 12 C       -3.2410     1.8440    -1.6480 C.2   1 <1>  -0.1100 
 13 C       -3.6950     1.7710    -0.3850 C.2   1 <1>  -0.1500 
 14 C        4.3070     1.5230    -0.6980 C.3   1 <1>  -0.1600 
 15 C        3.6890     2.6680     0.1160 C.3   1 <1>  -0.1600 
 16 H        2.1970    -1.0930    -0.0180 H     1 <1>   0.0800 
 17 H        2.8280     0.1000     1.0750 H     1 <1>   0.0800 
 18 H        1.4850     2.0290     1.5570 H     1 <1>   0.0800 
 19 H        0.2630     2.5380     0.4340 H     1 <1>   0.0800 
 20 H       -3.0300     1.0090     1.5540 H     1 <1>   0.1500 
 21 H        2.8150     0.5480    -1.9110 H     1 <1>   0.0800 
 22 H        3.9930    -0.5120    -1.2270 H     1 <1>   0.0800 
 23 H        2.0230     3.9820     0.0700 H     1 <1>   0.0800 
 24 H        2.0560     2.9190    -1.2960 H     1 <1>   0.0800 
 25 H       -3.6710     2.2510    -2.5460 H     1 <1>   0.1500 
 26 H       -4.6450     2.1420    -0.0390 H     1 <1>   0.1500 
 27 H        4.6690     1.9170    -1.6320 H     1 <1>   0.0800 
 28 H        5.1650     1.1570    -0.1600 H     1 <1>   0.0800 
 29 H        3.7650     2.4440     1.1660 H     1 <1>   0.0800 
 30 H        4.2790     3.5520    -0.0580 H     1 <1>   0.0800 
@<TRIPOS>BOND
  1   1   2  2   
  2   1   3  2   
  3   1   4  am  
  4   1   5  1   
  5   4   6  1   
  6   4   7  1   
  7   5   8  1   
  8   5   9  2   
  9   6  10  1   
 10   6  16  1   
 11   6  17  1   
 12   7  11  1   
 13   7  18  1   
 14   7  19  1   
 15   8  12  1   
 16   9  13  1   
 17   9  20  1   
 18  10  14  1   
 19  10  21  1   
 20  10  22  1   
 21  11  15  1   
 22  11  23  1   
 23  11  24  1   
 24  12  13  2   
 25  12  25  1   
 26  13  26  1   
 27  14  15  1   
 28  14  27  1   
 29  14  28  1   
 30  15  29  1   
 31  15  30  1   
@<TRIPOS>SUBSTRUCTURE
  1 ****   4 GROUP 4 **** **** 0

# MOE 2024.06 (io_trps.svl 2023.06)
