@<TRIPOS>MOLECULE
N-Isobutyl-4-(3-m-tolyl-[1,2,4]oxadiazol-5-yl)-butyramide
45 46 1 0 0 
SMALL
USER_CHARGES


@<TRIPOS>ATOM
  1 O       -0.6470    -1.3700    -1.7210 O.2   1 <1>  -0.5700 
  2 C       -1.6300    -1.8460    -1.2130 C.2   1 <1>   0.5690 
  3 N       -1.7220    -3.1840    -1.0320 N.am  1 <1>  -0.7300 
  4 C       -2.7490    -0.9240    -0.7660 C.3   1 <1>  -0.0990 
  5 C       -2.8160    -3.9580    -0.4010 C.3   1 <1>   0.1400 
  6 C       -2.6260    -0.5440     0.7250 C.3   1 <1>  -0.1600 
  7 C       -2.6520    -5.4600    -0.6750 C.3   1 <1>  -0.0800 
  8 C       -3.9940    -0.3250     1.3920 C.3   1 <1>   0.0200 
  9 C       -3.8670    -6.2220    -0.1300 C.3   1 <1>  -0.2400 
 10 C       -1.3680    -6.0230    -0.0460 C.3   1 <1>  -0.2400 
 11 C       -4.7220    -1.6460     1.5710 C.2   1 <1>   0.2980 
 12 O       -4.3650    -2.4260     2.5570 O.3   1 <1>  -0.0190 
 13 N       -5.6420    -2.0980     0.8250 N.2   1 <1>  -0.5650 
 14 N       -5.1140    -3.4730     2.4180 N.2   1 <1>  -0.4100 
 15 C       -5.8710    -3.2860     1.3950 C.2   1 <1>   0.4620 
 16 C       -6.8360    -4.2380     0.8710 C.ar  1 <1>   0.0540 
 17 C       -7.5280    -4.0020    -0.3190 C.ar  1 <1>  -0.1500 
 18 C       -7.0970    -5.4390     1.5310 C.ar  1 <1>  -0.1500 
 19 C       -8.4290    -4.9160    -0.8350 C.ar  1 <1>  -0.1440 
 20 C       -7.9970    -6.3590     1.0270 C.ar  1 <1>  -0.1500 
 21 C       -8.6630    -6.0990    -0.1560 C.ar  1 <1>  -0.1500 
 22 C       -9.1630    -4.6260    -2.1320 C.3   1 <1>  -0.0970 
 23 H       -0.9140    -3.7290    -1.3380 H     1 <1>   0.3700 
 24 H       -3.6870    -1.4020    -0.9740 H     1 <1>   0.0800 
 25 H       -2.7180    -0.0310    -1.3640 H     1 <1>   0.0800 
 26 H       -3.7620    -3.6280    -0.7960 H     1 <1>   0.0800 
 27 H       -2.8100    -3.7810     0.6610 H     1 <1>   0.0800 
 28 H       -2.0330     0.3520     0.8050 H     1 <1>   0.0800 
 29 H       -2.1030    -1.3200     1.2580 H     1 <1>   0.0800 
 30 H       -2.6180    -5.6100    -1.7420 H     1 <1>   0.0800 
 31 H       -4.5940     0.3390     0.7950 H     1 <1>   0.0800 
 32 H       -3.8600     0.1260     2.3580 H     1 <1>   0.0800 
 33 H       -3.9570    -6.0840     0.9330 H     1 <1>   0.0800 
 34 H       -3.7720    -7.2740    -0.3330 H     1 <1>   0.0800 
 35 H       -4.7710    -5.8720    -0.5990 H     1 <1>   0.0800 
 36 H       -1.3700    -5.8650     1.0190 H     1 <1>   0.0800 
 37 H       -0.4960    -5.5490    -0.4590 H     1 <1>   0.0800 
 38 H       -1.2940    -7.0790    -0.2350 H     1 <1>   0.0800 
 39 H       -7.3530    -3.0820    -0.8490 H     1 <1>   0.1500 
 40 H       -6.5870    -5.6580     2.4530 H     1 <1>   0.1500 
 41 H       -8.1810    -7.2790     1.5560 H     1 <1>   0.1500 
 42 H       -9.3630    -6.8190    -0.5430 H     1 <1>   0.1500 
 43 H       -8.5940    -3.9510    -2.7460 H     1 <1>   0.0800 
 44 H      -10.1170    -4.1790    -1.9180 H     1 <1>   0.0800 
 45 H       -9.3210    -5.5350    -2.6850 H     1 <1>   0.0800 
@<TRIPOS>BOND
  1   1   2  2   
  2   2   3  am  
  3   2   4  1   
  4   3   5  1   
  5   3  23  1   
  6   4   6  1   
  7   4  24  1   
  8   4  25  1   
  9   5   7  1   
 10   5  26  1   
 11   5  27  1   
 12   6   8  1   
 13   6  28  1   
 14   6  29  1   
 15   7   9  1   
 16   7  10  1   
 17   7  30  1   
 18   8  11  1   
 19   8  31  1   
 20   8  32  1   
 21   9  33  1   
 22   9  34  1   
 23   9  35  1   
 24  10  36  1   
 25  10  37  1   
 26  10  38  1   
 27  11  12  1   
 28  11  13  2   
 29  12  14  1   
 30  13  15  1   
 31  14  15  2   
 32  15  16  1   
 33  16  17  ar  
 34  16  18  ar  
 35  17  19  ar  
 36  17  39  1   
 37  18  20  ar  
 38  18  40  1   
 39  19  21  ar  
 40  19  22  1   
 41  20  21  ar  
 42  20  41  1   
 43  21  42  1   
 44  22  43  1   
 45  22  44  1   
 46  22  45  1   
@<TRIPOS>SUBSTRUCTURE
  1 ****  15 GROUP 4 **** **** 0

# MOE 2024.06 (io_trps.svl 2023.06)
