@<TRIPOS>MOLECULE
3-[4-(3,4-Dimethyl-benzenesulfonyl)-piperazin-1-yl]-propionic acid
44 45 1 0 0 
SMALL
USER_CHARGES


@<TRIPOS>ATOM
  1 S       -0.3580    -0.1930    -2.1690 S.o2  1 <1>   1.4470 
  2 O       -0.2760     0.8810    -3.1340 O.2   1 <1>  -0.6500 
  3 O       -0.6600    -1.5330    -2.6200 O.2   1 <1>  -0.6500 
  4 N       -1.6170     0.2340    -1.1140 N.am  1 <1>  -0.8490 
  5 C        1.1080    -0.1790    -1.1010 C.ar  1 <1>  -0.0090 
  6 C       -1.8870    -0.8110    -0.1010 C.3   1 <1>   0.1960 
  7 C       -2.8510     0.5330    -1.8670 C.3   1 <1>   0.1960 
  8 C        1.6890    -1.3610    -0.6590 C.ar  1 <1>  -0.1500 
  9 C        1.6680     1.0160    -0.6740 C.ar  1 <1>  -0.1500 
 10 C       -2.9820    -0.3650     0.8880 C.3   1 <1>   0.3430 
 11 C       -3.9960     1.0020    -0.9440 C.3   1 <1>   0.3430 
 12 C        2.7910    -1.3640     0.1840 C.ar  1 <1>  -0.1440 
 13 C        2.7680     1.0300     0.1640 C.ar  1 <1>  -0.1500 
 14 N       -4.2360     0.0340     0.1650 N.4   1 <1>  -0.9590 
 15 C        3.3350    -0.1550     0.6010 C.ar  1 <1>  -0.1430 
 16 C        3.3790    -2.6960     0.6290 C.3   1 <1>  -0.0970 
 17 C       -5.3230     0.3760     1.1200 C.3   1 <1>   0.3430 
 18 C        4.5460    -0.1020     1.5230 C.3   1 <1>  -0.0970 
 19 C       -6.3520    -0.7420     1.1190 C.3   1 <1>  -0.2660 
 20 C       -5.5990    -2.0250     1.2180 C.2   1 <1>   0.9060 
 21 O       -5.1530    -2.3530     2.3110 O.co2 1 <1>  -0.9000 
 22 O       -5.1990    -2.4990     0.1490 O.co2 1 <1>  -0.9000 
 23 H       -0.9910    -1.0200     0.4580 H     1 <1>   0.0800 
 24 H       -2.2010    -1.7270    -0.5750 H     1 <1>   0.0800 
 25 H       -3.1680    -0.3430    -2.4120 H     1 <1>   0.0800 
 26 H       -2.6570     1.3120    -2.5860 H     1 <1>   0.0800 
 27 H        1.2690    -2.2980    -0.9850 H     1 <1>   0.1500 
 28 H        1.2400     1.9480    -1.0040 H     1 <1>   0.1500 
 29 H       -2.6140     0.4620     1.4700 H     1 <1>   0.0800 
 30 H       -3.1980    -1.1810     1.5620 H     1 <1>   0.0800 
 31 H       -4.8960     1.1190    -1.5250 H     1 <1>   0.0800 
 32 H       -3.7330     1.9620    -0.5330 H     1 <1>   0.0800 
 33 H        3.1810     1.9750     0.4740 H     1 <1>   0.1500 
 34 H       -4.5490    -0.8840    -0.2480 H     1 <1>   0.4500 
 35 H        2.8480    -3.5210     0.1880 H     1 <1>   0.0800 
 36 H        3.3160    -2.7870     1.6980 H     1 <1>   0.0800 
 37 H        4.4090    -2.7630     0.3300 H     1 <1>   0.0800 
 38 H       -5.7900     1.3080     0.8510 H     1 <1>   0.0800 
 39 H       -4.9140     0.4680     2.1140 H     1 <1>   0.0800 
 40 H        4.3310    -0.6090     2.4450 H     1 <1>   0.0800 
 41 H        4.8130     0.9140     1.7520 H     1 <1>   0.0800 
 42 H        5.3890    -0.5730     1.0510 H     1 <1>   0.0800 
 43 H       -6.9320    -0.7340     0.2160 H     1 <1>   0.0800 
 44 H       -7.0090    -0.6520     1.9620 H     1 <1>   0.0800 
@<TRIPOS>BOND
  1   1   2  2   
  2   1   3  2   
  3   1   4  am  
  4   1   5  1   
  5   4   6  1   
  6   4   7  1   
  7   5   8  ar  
  8   5   9  ar  
  9   6  10  1   
 10   6  23  1   
 11   6  24  1   
 12   7  11  1   
 13   7  25  1   
 14   7  26  1   
 15   8  12  ar  
 16   8  27  1   
 17   9  13  ar  
 18   9  28  1   
 19  10  14  1   
 20  10  29  1   
 21  10  30  1   
 22  11  14  1   
 23  11  31  1   
 24  11  32  1   
 25  12  15  ar  
 26  12  16  1   
 27  13  15  ar  
 28  13  33  1   
 29  14  17  1   
 30  14  34  1   
 31  15  18  1   
 32  16  35  1   
 33  16  36  1   
 34  16  37  1   
 35  17  19  1   
 36  17  38  1   
 37  17  39  1   
 38  18  40  1   
 39  18  41  1   
 40  18  42  1   
 41  19  20  1   
 42  19  43  1   
 43  19  44  1   
 44  20  21  ar  
 45  20  22  ar  
@<TRIPOS>SUBSTRUCTURE
  1 ****   6 GROUP 4 **** **** 0

# MOE 2024.06 (io_trps.svl 2023.06)
