@<TRIPOS>MOLECULE
1-Benzyl-3,7-dimethyl-8-(2-morpholin-4-yl-ethylamino)-3,7-dihydro-purine-2,6-dio
57 60 1 0 0 
SMALL
USER_CHARGES


@<TRIPOS>ATOM
  1 O        0.7340     1.2130    -2.9850 O.2   1 <1>  -0.5740 
  2 C        1.5370     1.4570    -2.1090 C.2   1 <1>   0.6870 
  3 N        1.3520     2.5480    -1.2740 N.am  1 <1>  -0.4250 
  4 N        2.6560     0.6470    -1.9550 N.am  1 <1>  -0.4410 
  5 C        2.3110     2.9230    -0.3500 C.2   1 <1>   0.7000 
  6 C        0.0130     3.1910    -1.2150 C.3   1 <1>   0.2780 
  7 C        3.5890     1.0030    -1.0000 C.2   1 <1>   0.4210 
  8 C        2.8290    -0.5630    -2.8130 C.3   1 <1>   0.0530 
  9 O        2.1890     3.9430     0.3080 O.2   1 <1>  -0.5740 
 10 C        3.4650     2.0860    -0.2040 C.2   1 <1>   0.2710 
 11 C       -0.8070     2.4930    -0.1420 C.ar  1 <1>  -0.1500 
 12 N        4.7590     0.3730    -0.6940 N.pl3 1 <1>  -0.7030 
 13 N        4.6080     2.1090     0.6230 N.pl3 1 <1>  -0.7670 
 14 C       -1.5120     1.3380    -0.4450 C.ar  1 <1>  -0.1570 
 15 C       -0.8510     2.9980     1.1490 C.ar  1 <1>  -0.1570 
 16 C        5.3490     1.0550     0.2840 C.cat 1 <1>   1.0690 
 17 C        4.7980     3.1770     1.6500 C.3   1 <1>   0.2680 
 18 C       -2.2490     0.6920     0.5330 C.ar  1 <1>  -0.1570 
 19 C       -1.5870     2.3530     2.1270 C.ar  1 <1>  -0.1570 
 20 N        6.5190     0.7420     0.8540 N.pl3 1 <1>  -0.7180 
 21 C       -2.2860     1.1990     1.8200 C.ar  1 <1>  -0.1570 
 22 C        7.4320    -0.4170     0.5900 C.3   1 <1>   0.1610 
 23 C        8.8920     0.0360     0.3390 C.3   1 <1>   0.3380 
 24 N        9.8700    -1.0970     0.3520 N.4   1 <1>  -0.9610 
 25 C       11.2960    -0.6140     0.4230 C.3   1 <1>   0.3380 
 26 C        9.7530    -2.0880    -0.7780 C.3   1 <1>   0.3380 
 27 C       12.2790    -1.8020     0.5400 C.3   1 <1>   0.1130 
 28 C       10.8200    -3.2010    -0.6590 C.3   1 <1>   0.1130 
 29 O       11.5960    -3.0270     0.4950 O.3   1 <1>  -0.5640 
 30 H       -0.4880     3.1180    -2.1650 H     1 <1>   0.0730 
 31 H        0.1110     4.2380    -0.9840 H     1 <1>   0.0730 
 32 H        1.8690    -0.9490    -3.1140 H     1 <1>   0.0730 
 33 H        3.3430    -1.3410    -2.2780 H     1 <1>   0.0730 
 34 H        3.3840    -0.3040    -3.6980 H     1 <1>   0.0730 
 35 H        5.0850    -0.4830    -1.1280 H     1 <1>   0.4450 
 36 H       -1.4930     0.9340    -1.4430 H     1 <1>   0.1430 
 37 H       -0.3130     3.8960     1.4020 H     1 <1>   0.1430 
 38 H        4.8270     4.1430     1.1720 H     1 <1>   0.0730 
 39 H        5.7120     3.0360     2.1980 H     1 <1>   0.0730 
 40 H        3.9730     3.1690     2.3430 H     1 <1>   0.0730 
 41 H       -2.7950    -0.2030     0.2920 H     1 <1>   0.1430 
 42 H       -1.6200     2.7490     3.1270 H     1 <1>   0.1430 
 43 H        6.7640     1.3160     1.6630 H     1 <1>   0.4450 
 44 H       -2.8610     0.6980     2.5790 H     1 <1>   0.1430 
 45 H        7.0830    -0.9740    -0.2610 H     1 <1>   0.0730 
 46 H        7.4100    -1.0650     1.4520 H     1 <1>   0.0730 
 47 H        9.1700     0.7300     1.1160 H     1 <1>   0.0730 
 48 H        8.9530     0.5490    -0.6070 H     1 <1>   0.0730 
 49 H        9.7800    -1.6710     1.2090 H     1 <1>   0.4450 
 50 H       11.4290     0.0320     1.2740 H     1 <1>   0.0730 
 51 H       11.5380    -0.0460    -0.4600 H     1 <1>   0.0730 
 52 H        9.8770    -1.5880    -1.7240 H     1 <1>   0.0730 
 53 H        8.7780    -2.5460    -0.7720 H     1 <1>   0.0730 
 54 H       12.8070    -1.7570     1.4770 H     1 <1>   0.0730 
 55 H       13.0040    -1.7810    -0.2550 H     1 <1>   0.0730 
 56 H       11.4720    -3.2020    -1.5160 H     1 <1>   0.0730 
 57 H       10.3490    -4.1670    -0.5950 H     1 <1>   0.0730 
@<TRIPOS>BOND
  1   1   2  2   
  2   2   3  am  
  3   2   4  am  
  4   3   5  am  
  5   3   6  1   
  6   4   7  1   
  7   4   8  1   
  8   5   9  2   
  9   5  10  1   
 10   6  11  1   
 11   6  30  1   
 12   6  31  1   
 13   7  10  2   
 14   7  12  1   
 15   8  32  1   
 16   8  33  1   
 17   8  34  1   
 18  10  13  1   
 19  11  14  ar  
 20  11  15  ar  
 21  12  16  ar  
 22  12  35  1   
 23  13  16  ar  
 24  13  17  1   
 25  14  18  ar  
 26  14  36  1   
 27  15  19  ar  
 28  15  37  1   
 29  16  20  ar  
 30  17  38  1   
 31  17  39  1   
 32  17  40  1   
 33  18  21  ar  
 34  18  41  1   
 35  19  21  ar  
 36  19  42  1   
 37  20  22  1   
 38  20  43  1   
 39  21  44  1   
 40  22  23  1   
 41  22  45  1   
 42  22  46  1   
 43  23  24  1   
 44  23  47  1   
 45  23  48  1   
 46  24  25  1   
 47  24  26  1   
 48  24  49  1   
 49  25  27  1   
 50  25  50  1   
 51  25  51  1   
 52  26  28  1   
 53  26  52  1   
 54  26  53  1   
 55  27  29  1   
 56  27  54  1   
 57  27  55  1   
 58  28  29  1   
 59  28  56  1   
 60  28  57  1   
@<TRIPOS>SUBSTRUCTURE
  1 ****  12 GROUP 4 **** **** 0

# MOE 2024.06 (io_trps.svl 2023.06)
