@<TRIPOS>MOLECULE
5-Amino-7-(2-chloro-phenyl)-2-methyl-3-oxo-2,3-dihydro-7H-thiazolo[3,2-a]pyridin
50 52 1 0 0 
SMALL
USER_CHARGES


@<TRIPOS>ATOM
  1 CL      -2.1460    -4.0440    -2.6450 Cl    1 <1>  -0.1770 
  2 C       -2.6450    -2.4890    -2.0240 C.ar  1 <1>   0.1770 
  3 C       -3.0670    -2.3280    -0.7070 C.ar  1 <1>  -0.1430 
  4 C       -2.6000    -1.4250    -2.9070 C.ar  1 <1>  -0.1500 
  5 C       -3.4370    -1.0500    -0.3010 C.ar  1 <1>  -0.1500 
  6 C       -3.1470    -3.4800     0.3080 C.3   1 <1>   0.3400 
  7 C       -2.9770    -0.1640    -2.4840 C.ar  1 <1>  -0.1500 
  8 C       -3.3940     0.0200    -1.1780 C.ar  1 <1>  -0.1500 
  9 C       -1.7530    -4.0320     0.6260 C.2   1 <1>  -0.1240 
 10 C       -4.1510    -4.5280    -0.1580 C.2   1 <1>  -0.1240 
 11 C       -1.4530    -5.3430     0.3540 C.2   1 <1>   0.2090 
 12 C       -0.8900    -3.0730     1.2260 C.2   1 <1>   0.7060 
 13 C       -3.6950    -5.7850    -0.3720 C.2   1 <1>   0.2100 
 14 C       -5.4880    -4.0500    -0.3350 C.2   1 <1>   0.7060 
 15 N       -2.3850    -6.2330    -0.2070 N.am  1 <1>  -0.2780 
 16 N       -0.2330    -5.8710     0.6460 N.pl3 1 <1>  -0.9000 
 17 O       -1.2990    -2.0550     1.7670 O.2   1 <1>  -0.5700 
 18 O        0.4390    -3.2700     1.2190 O.3   1 <1>  -0.4300 
 19 S       -4.7200    -7.1300    -0.9110 S.3   1 <1>  -0.3310 
 20 O       -6.3000    -4.5410    -1.0920 O.2   1 <1>  -0.5700 
 21 O       -5.8660    -2.9810     0.3760 O.3   1 <1>  -0.4300 
 22 C       -2.1430    -7.5540    -0.6100 C.2   1 <1>   0.5690 
 23 C        1.3260    -2.3300     1.7840 C.3   1 <1>   0.1200 
 24 C       -3.3540    -8.3170    -1.1360 C.3   1 <1>   0.2110 
 25 C       -7.1450    -2.4070     0.2260 C.3   1 <1>   0.1200 
 26 O       -1.0770    -8.1280    -0.5660 O.2   1 <1>  -0.5700 
 27 C        2.7460    -2.8590     1.6100 C.3   1 <1>  -0.2400 
 28 C       -3.2900    -8.6750    -2.6250 C.3   1 <1>  -0.2400 
 29 C       -7.2160    -1.1750     1.1230 C.3   1 <1>  -0.2400 
 30 H       -2.2720    -1.5870    -3.9180 H     1 <1>   0.1500 
 31 H       -3.7600    -0.8740     0.7120 H     1 <1>   0.1500 
 32 H       -3.5290    -3.0940     1.2380 H     1 <1>   0.0800 
 33 H       -2.9440     0.6690    -3.1650 H     1 <1>   0.1500 
 34 H       -3.6840     1.0010    -0.8410 H     1 <1>   0.1500 
 35 H        0.5710    -5.2830     0.9020 H     1 <1>   0.4000 
 36 H        0.0000    -6.8280     0.3280 H     1 <1>   0.4000 
 37 H        1.0820    -2.2120     2.8270 H     1 <1>   0.0800 
 38 H        1.1980    -1.3900     1.2730 H     1 <1>   0.0800 
 39 H       -3.5600    -9.1750    -0.5220 H     1 <1>   0.0800 
 40 H       -7.8830    -3.1390     0.5090 H     1 <1>   0.0800 
 41 H       -7.2800    -2.1380    -0.8080 H     1 <1>   0.0800 
 42 H        2.8580    -3.7980     2.1210 H     1 <1>   0.0800 
 43 H        3.4460    -2.1580     2.0270 H     1 <1>   0.0800 
 44 H        2.9700    -2.9850     0.5660 H     1 <1>   0.0800 
 45 H       -3.1330    -7.7890    -3.2150 H     1 <1>   0.0800 
 46 H       -4.2080    -9.1430    -2.9330 H     1 <1>   0.0800 
 47 H       -2.4770    -9.3550    -2.8020 H     1 <1>   0.0800 
 48 H       -7.0620    -1.4540     2.1500 H     1 <1>   0.0800 
 49 H       -8.1860    -0.7200     1.0340 H     1 <1>   0.0800 
 50 H       -6.4730    -0.4570     0.8270 H     1 <1>   0.0800 
@<TRIPOS>BOND
  1   1   2  1   
  2   2   3  ar  
  3   2   4  ar  
  4   3   5  ar  
  5   3   6  1   
  6   4   7  ar  
  7   4  30  1   
  8   5   8  ar  
  9   5  31  1   
 10   6   9  1   
 11   6  10  1   
 12   6  32  1   
 13   7   8  ar  
 14   7  33  1   
 15   8  34  1   
 16   9  11  2   
 17   9  12  1   
 18  10  13  2   
 19  10  14  1   
 20  11  15  1   
 21  11  16  1   
 22  12  17  2   
 23  12  18  1   
 24  13  15  1   
 25  13  19  1   
 26  14  20  2   
 27  14  21  1   
 28  15  22  am  
 29  16  35  1   
 30  16  36  1   
 31  18  23  1   
 32  19  24  1   
 33  21  25  1   
 34  22  24  1   
 35  22  26  2   
 36  23  27  1   
 37  23  37  1   
 38  23  38  1   
 39  24  28  1   
 40  24  39  1   
 41  25  29  1   
 42  25  40  1   
 43  25  41  1   
 44  27  42  1   
 45  27  43  1   
 46  27  44  1   
 47  28  45  1   
 48  28  46  1   
 49  28  47  1   
 50  29  48  1   
 51  29  49  1   
 52  29  50  1   
@<TRIPOS>SUBSTRUCTURE
  1 ****   6 GROUP 4 **** **** 0

# MOE 2024.06 (io_trps.svl 2023.06)
