@<TRIPOS>MOLECULE
3-(3,4,5-Trimethyl-pyrazol-1-yl)-butyric acid
29 29 1 0 0 
SMALL
USER_CHARGES


@<TRIPOS>ATOM
  1 O       -0.2200     0.0370    -0.8310 O.co2 1 <1>  -0.9000 
  2 C       -1.3090    -0.3090    -0.3670 C.2   1 <1>   0.9060 
  3 O       -1.4600    -1.3370     0.2970 O.co2 1 <1>  -0.9000 
  4 C       -2.4950     0.5800    -0.5970 C.3   1 <1>  -0.2660 
  5 C       -2.9430     1.2380     0.7160 C.3   1 <1>   0.1760 
  6 N       -4.1360     2.1220     0.5000 N.pl3 1 <1>   0.3140 
  7 C       -1.8070     1.9810     1.4420 C.3   1 <1>  -0.2400 
  8 N       -5.3440     1.7240     0.9570 N.2   1 <1>  -0.7070 
  9 C       -4.2350     3.3410    -0.1040 C.2   1 <1>  -0.3320 
 10 C       -6.1640     2.6670     0.6340 C.2   1 <1>   0.1080 
 11 C       -5.5330     3.7130    -0.0290 C.2   1 <1>  -0.1810 
 12 C       -3.0790     4.1130    -0.7300 C.3   1 <1>  -0.0600 
 13 C       -7.6350     2.5920     0.9700 C.3   1 <1>  -0.0590 
 14 C       -6.2130     4.9750    -0.5290 C.3   1 <1>  -0.0590 
 15 H       -3.2880    -0.0280    -0.9850 H     1 <1>   0.0800 
 16 H       -2.2210     1.3090    -1.3300 H     1 <1>   0.0800 
 17 H       -3.2670     0.4460     1.3690 H     1 <1>   0.0800 
 18 H       -1.2680     2.6160     0.7650 H     1 <1>   0.0800 
 19 H       -1.1080     1.2650     1.8370 H     1 <1>   0.0800 
 20 H       -2.1990     2.5570     2.2600 H     1 <1>   0.0800 
 21 H       -2.5120     3.4860    -1.3900 H     1 <1>   0.0800 
 22 H       -2.4310     4.4910     0.0390 H     1 <1>   0.0800 
 23 H       -3.4400     4.9450    -1.3030 H     1 <1>   0.0800 
 24 H       -7.8950     1.5810     1.2260 H     1 <1>   0.0800 
 25 H       -8.2220     2.8980     0.1250 H     1 <1>   0.0800 
 26 H       -7.8460     3.2310     1.8060 H     1 <1>   0.0800 
 27 H       -5.4920     5.7200    -0.8020 H     1 <1>   0.0800 
 28 H       -6.8410     5.3800     0.2420 H     1 <1>   0.0800 
 29 H       -6.8170     4.7430    -1.3880 H     1 <1>   0.0800 
@<TRIPOS>BOND
  1   1   2  ar  
  2   2   3  ar  
  3   2   4  1   
  4   4   5  1   
  5   4  15  1   
  6   4  16  1   
  7   5   6  1   
  8   5   7  1   
  9   5  17  1   
 10   6   8  1   
 11   6   9  1   
 12   7  18  1   
 13   7  19  1   
 14   7  20  1   
 15   8  10  2   
 16   9  11  2   
 17   9  12  1   
 18  10  11  1   
 19  10  13  1   
 20  11  14  1   
 21  12  21  1   
 22  12  22  1   
 23  12  23  1   
 24  13  24  1   
 25  13  25  1   
 26  13  26  1   
 27  14  27  1   
 28  14  28  1   
 29  14  29  1   
@<TRIPOS>SUBSTRUCTURE
  1 ****   6 GROUP 4 **** **** 0

# MOE 2024.06 (io_trps.svl 2023.06)
