@<TRIPOS>MOLECULE
N-(4-Chloro-phenyl)-N-(1-methyl-2-oxo-2-pyrrolidin-1-yl-ethyl)-methanesulfonamid
40 41 1 0 0 
SMALL
USER_CHARGES


@<TRIPOS>ATOM
  1 CL       0.9780    -0.9490     3.1640 Cl    1 <1>  -0.1770 
  2 C        2.2280    -1.5180     2.0840 C.ar  1 <1>   0.1770 
  3 C        3.4860    -1.7940     2.5870 C.ar  1 <1>  -0.1500 
  4 C        1.9410    -1.6850     0.7420 C.ar  1 <1>  -0.1500 
  5 C        4.4720    -2.2470     1.7270 C.ar  1 <1>  -0.1500 
  6 C        2.9340    -2.1380    -0.1090 C.ar  1 <1>  -0.1500 
  7 C        4.2080    -2.4250     0.3710 C.ar  1 <1>   0.1990 
  8 N        5.1820    -2.8970    -0.5060 N.am  1 <1>  -0.6930 
  9 S        5.7410    -4.5250    -0.3560 S.o2  1 <1>   1.3330 
 10 C        6.1920    -1.9290    -1.0460 C.3   1 <1>   0.3370 
 11 O        6.2470    -4.7030     0.9820 O.2   1 <1>  -0.6500 
 12 O        6.5890    -4.7870    -1.4940 O.2   1 <1>  -0.6500 
 13 C        4.2420    -5.4620    -0.5610 C.3   1 <1>  -0.1350 
 14 C        7.1370    -1.3290     0.0300 C.2   1 <1>   0.5690 
 15 C        5.4640    -0.8460    -1.8570 C.3   1 <1>  -0.2400 
 16 O        6.7660    -0.3520     0.6460 O.2   1 <1>  -0.5700 
 17 N        8.3780    -1.8640     0.2770 N.am  1 <1>  -0.6600 
 18 C        9.2790    -1.2910     1.3020 C.3   1 <1>   0.1400 
 19 C        9.0010    -3.0480    -0.3600 C.3   1 <1>   0.1400 
 20 C       10.4530    -2.2610     1.3890 C.3   1 <1>  -0.1600 
 21 C       10.4680    -2.9700     0.0390 C.3   1 <1>  -0.1600 
 22 H        3.6910    -1.6530     3.6330 H     1 <1>   0.1500 
 23 H        0.9550    -1.4600     0.3760 H     1 <1>   0.1500 
 24 H        5.4560    -2.4600     2.1070 H     1 <1>   0.1500 
 25 H        2.7270    -2.2700    -1.1550 H     1 <1>   0.1500 
 26 H        6.8110    -2.4430    -1.7560 H     1 <1>   0.0800 
 27 H        3.5460    -5.2260     0.2200 H     1 <1>   0.0800 
 28 H        4.4580    -6.5120    -0.5220 H     1 <1>   0.0800 
 29 H        3.7920    -5.2380    -1.5080 H     1 <1>   0.0800 
 30 H        4.8500    -0.2390    -1.2160 H     1 <1>   0.0800 
 31 H        4.8570    -1.2960    -2.6210 H     1 <1>   0.0800 
 32 H        6.1870    -0.2040    -2.3270 H     1 <1>   0.0800 
 33 H        8.7700    -1.1970     2.2470 H     1 <1>   0.0800 
 34 H        9.6100    -0.3210     0.9740 H     1 <1>   0.0800 
 35 H        8.8840    -3.0400    -1.4300 H     1 <1>   0.0800 
 36 H        8.5660    -3.9420     0.0510 H     1 <1>   0.0800 
 37 H       10.2580    -2.9720     2.1730 H     1 <1>   0.0800 
 38 H       11.3770    -1.7520     1.5990 H     1 <1>   0.0800 
 39 H       10.9980    -2.3750    -0.6840 H     1 <1>   0.0800 
 40 H       10.9190    -3.9450     0.0920 H     1 <1>   0.0800 
@<TRIPOS>BOND
  1   1   2  1   
  2   2   3  ar  
  3   2   4  ar  
  4   3   5  ar  
  5   3  22  1   
  6   4   6  ar  
  7   4  23  1   
  8   5   7  ar  
  9   5  24  1   
 10   6   7  ar  
 11   6  25  1   
 12   7   8  1   
 13   8   9  am  
 14   8  10  1   
 15   9  11  2   
 16   9  12  2   
 17   9  13  1   
 18  10  14  1   
 19  10  15  1   
 20  10  26  1   
 21  13  27  1   
 22  13  28  1   
 23  13  29  1   
 24  14  16  2   
 25  14  17  am  
 26  15  30  1   
 27  15  31  1   
 28  15  32  1   
 29  17  18  1   
 30  17  19  1   
 31  18  20  1   
 32  18  33  1   
 33  18  34  1   
 34  19  21  1   
 35  19  35  1   
 36  19  36  1   
 37  20  21  1   
 38  20  37  1   
 39  20  38  1   
 40  21  39  1   
 41  21  40  1   
@<TRIPOS>SUBSTRUCTURE
  1 ****   8 GROUP 4 **** **** 0

# MOE 2024.06 (io_trps.svl 2023.06)
