@<TRIPOS>MOLECULE
3-Methyl-7-[2-methyl-3-(pyrimidin-2-ylsulfanyl)-propyl]-8-piperidin-1-yl-3,7-dih
55 58 1 0 0 
SMALL
USER_CHARGES


@<TRIPOS>ATOM
  1 S       -0.4530    -0.1750     1.3770 S.3   1 <1>  -0.3370 
  2 C       -0.0370     1.4850     0.8680 C.ar  1 <1>   0.7180 
  3 C       -1.6210    -0.7800     0.0800 C.3   1 <1>   0.0630 
  4 N        0.8050     2.1150     1.6700 N.ar  1 <1>  -0.6240 
  5 N       -0.6080     1.9040    -0.2520 N.ar  1 <1>  -0.6240 
  6 C       -1.9560    -2.2500     0.3740 C.3   1 <1>  -0.0870 
  7 C        1.1060     3.3360     1.2900 C.ar  1 <1>   0.1530 
  8 C       -0.2830     3.1300    -0.5970 C.ar  1 <1>   0.1530 
  9 C       -2.5120    -2.9080    -0.9010 C.3   1 <1>   0.3480 
 10 C       -2.9350    -2.3610     1.5600 C.3   1 <1>  -0.2460 
 11 C        0.5810     3.8980     0.1500 C.ar  1 <1>  -0.1570 
 12 N       -2.7550    -4.3680    -0.6940 N.pl3 1 <1>  -0.7670 
 13 C       -1.8890    -5.3280    -0.3290 C.cat 1 <1>   1.0690 
 14 C       -4.0520    -4.9050    -0.5510 C.2   1 <1>   0.2710 
 15 N       -2.5660    -6.4170     0.0370 N.pl3 1 <1>  -0.7030 
 16 N       -0.5410    -5.2760    -0.2980 N.pl3 1 <1>  -0.5960 
 17 C       -5.3910    -4.4250    -0.7470 C.2   1 <1>   0.7000 
 18 C       -3.8940    -6.1710    -0.1020 C.2   1 <1>   0.4210 
 19 C        0.2690    -6.0260     0.7060 C.3   1 <1>   0.1610 
 20 C        0.2930    -4.5480    -1.2990 C.3   1 <1>   0.1610 
 21 O       -5.6640    -3.3080    -1.1390 O.2   1 <1>  -0.5740 
 22 N       -6.4130    -5.2860    -0.4680 N.am  1 <1>  -0.4950 
 23 N       -4.9440    -7.0370     0.1690 N.am  1 <1>  -0.4410 
 24 C        1.1690    -7.0430     0.0000 C.3   1 <1>  -0.1670 
 25 C        1.2240    -5.5310    -2.0170 C.3   1 <1>  -0.1670 
 26 C       -6.2330    -6.5610    -0.0180 C.2   1 <1>   0.6870 
 27 C       -4.6980    -8.4260     0.6550 C.3   1 <1>   0.0530 
 28 C        2.0660    -6.3550    -1.0350 C.3   1 <1>  -0.1670 
 29 O       -7.2100    -7.2360     0.2070 O.2   1 <1>  -0.5740 
 30 H       -1.1080    -0.6660    -0.8590 H     1 <1>   0.0730 
 31 H       -2.4910    -0.1460     0.1020 H     1 <1>   0.0730 
 32 H       -1.0340    -2.7350     0.6370 H     1 <1>   0.0730 
 33 H        1.7870     3.9010     1.9050 H     1 <1>   0.1430 
 34 H       -0.7160     3.5330    -1.4980 H     1 <1>   0.1430 
 35 H       -1.8320    -2.7600    -1.7200 H     1 <1>   0.0730 
 36 H       -3.4280    -2.4140    -1.1740 H     1 <1>   0.0730 
 37 H       -3.8810    -1.9080     1.3160 H     1 <1>   0.0730 
 38 H       -2.5370    -1.8550     2.4240 H     1 <1>   0.0730 
 39 H       -3.1010    -3.3860     1.8350 H     1 <1>   0.0730 
 40 H        0.8360     4.8980    -0.1460 H     1 <1>   0.1430 
 41 H       -2.1270    -7.2890     0.3140 H     1 <1>   0.4450 
 42 H       -0.3610    -6.5250     1.4220 H     1 <1>   0.0730 
 43 H        0.8840    -5.3260     1.2490 H     1 <1>   0.0730 
 44 H        0.8750    -3.7910    -0.7980 H     1 <1>   0.0730 
 45 H       -0.3210    -4.0770    -2.0430 H     1 <1>   0.0730 
 46 H       -7.3710    -4.9660    -0.5960 H     1 <1>   0.3650 
 47 H        0.5650    -7.7940    -0.4810 H     1 <1>   0.0730 
 48 H        1.7860    -7.5400     0.7290 H     1 <1>   0.0730 
 49 H        1.8800    -4.9830    -2.6720 H     1 <1>   0.0730 
 50 H        0.6370    -6.1920    -2.6310 H     1 <1>   0.0730 
 51 H       -4.0380    -8.9410    -0.0210 H     1 <1>   0.0730 
 52 H       -5.6190    -8.9820     0.7110 H     1 <1>   0.0730 
 53 H       -4.2590    -8.3970     1.6360 H     1 <1>   0.0730 
 54 H        2.6370    -7.0940    -1.5730 H     1 <1>   0.0730 
 55 H        2.7630    -5.7060    -0.5310 H     1 <1>   0.0730 
@<TRIPOS>BOND
  1   1   2  1   
  2   1   3  1   
  3   2   4  ar  
  4   2   5  ar  
  5   3   6  1   
  6   3  30  1   
  7   3  31  1   
  8   4   7  ar  
  9   5   8  ar  
 10   6   9  1   
 11   6  10  1   
 12   6  32  1   
 13   7  11  ar  
 14   7  33  1   
 15   8  11  ar  
 16   8  34  1   
 17   9  12  1   
 18   9  35  1   
 19   9  36  1   
 20  10  37  1   
 21  10  38  1   
 22  10  39  1   
 23  11  40  1   
 24  12  13  ar  
 25  12  14  1   
 26  13  15  ar  
 27  13  16  ar  
 28  14  17  1   
 29  14  18  2   
 30  15  18  1   
 31  15  41  1   
 32  16  19  1   
 33  16  20  1   
 34  17  21  2   
 35  17  22  am  
 36  18  23  1   
 37  19  24  1   
 38  19  42  1   
 39  19  43  1   
 40  20  25  1   
 41  20  44  1   
 42  20  45  1   
 43  22  26  am  
 44  22  46  1   
 45  23  26  am  
 46  23  27  1   
 47  24  28  1   
 48  24  47  1   
 49  24  48  1   
 50  25  28  1   
 51  25  49  1   
 52  25  50  1   
 53  26  29  2   
 54  27  51  1   
 55  27  52  1   
 56  27  53  1   
 57  28  54  1   
 58  28  55  1   
@<TRIPOS>SUBSTRUCTURE
  1 ****   9 GROUP 4 **** **** 0

# MOE 2024.06 (io_trps.svl 2023.06)
