@<TRIPOS>MOLECULE
8-(4-Benzyl-piperidin-1-yl)-7-(2-hydroxy-ethyl)-3-methyl-3,7-dihydro-purine-2,6-
54 57 1 0 0 
SMALL
USER_CHARGES


@<TRIPOS>ATOM
  1 O        1.4140    -0.4440     0.1000 O.2   1 <1>  -0.5740 
  2 C        2.3350     0.3340     0.1880 C.2   1 <1>   0.6870 
  3 N        3.6480    -0.0400    -0.0620 N.am  1 <1>  -0.4410 
  4 N        2.0640     1.6240     0.5420 N.am  1 <1>  -0.4950 
  5 C        4.6290     0.9340     0.0600 C.2   1 <1>   0.4210 
  6 C        3.9910    -1.4350    -0.4660 C.3   1 <1>   0.0530 
  7 C        3.0170     2.5940     0.6620 C.2   1 <1>   0.7000 
  8 N        5.9620     0.8080    -0.1640 N.pl3 1 <1>  -0.7030 
  9 C        4.3770     2.2110     0.4240 C.2   1 <1>   0.2710 
 10 O        2.6770     3.7270     0.9430 O.2   1 <1>  -0.5740 
 11 C        6.5440     1.9880     0.0610 C.cat 1 <1>   1.0690 
 12 N        5.6140     2.8800     0.4360 N.pl3 1 <1>  -0.7670 
 13 N        7.8740     2.1730    -0.0640 N.pl3 1 <1>  -0.5960 
 14 C        5.6950     4.3700     0.3370 C.3   1 <1>   0.3480 
 15 C        8.6760     3.0410     0.8420 C.3   1 <1>   0.1610 
 16 C        8.7000     1.4250    -1.0520 C.3   1 <1>   0.1610 
 17 C        5.2130     4.8690    -1.0400 C.3   1 <1>   0.1130 
 18 C        9.7190     2.1960     1.5830 C.3   1 <1>  -0.1670 
 19 C        9.7150     0.5450    -0.3210 C.3   1 <1>  -0.1670 
 20 O        5.7610     4.0940    -2.0640 O.3   1 <1>  -0.6840 
 21 C       10.6000     1.3820     0.6200 C.3   1 <1>  -0.0870 
 22 C       11.5970     0.5080     1.4040 C.3   1 <1>  -0.0240 
 23 C       12.5150    -0.2780     0.4800 C.ar  1 <1>  -0.1500 
 24 C       12.3460    -1.6440     0.3110 C.ar  1 <1>  -0.1570 
 25 C       13.5320     0.3680    -0.2070 C.ar  1 <1>  -0.1570 
 26 C       13.1780    -2.3540    -0.5380 C.ar  1 <1>  -0.1570 
 27 C       14.3640    -0.3390    -1.0560 C.ar  1 <1>  -0.1570 
 28 C       14.1870    -1.7010    -1.2230 C.ar  1 <1>  -0.1570 
 29 H        1.0900     1.8680     0.7090 H     1 <1>   0.3650 
 30 H        3.1260    -2.0740    -0.4100 H     1 <1>   0.0730 
 31 H        4.7460    -1.8320     0.1900 H     1 <1>   0.0730 
 32 H        4.3540    -1.4420    -1.4790 H     1 <1>   0.0730 
 33 H        6.4710    -0.0270    -0.4320 H     1 <1>   0.4450 
 34 H        6.7020     4.7100     0.4780 H     1 <1>   0.0730 
 35 H        5.0940     4.8190     1.1110 H     1 <1>   0.0730 
 36 H        8.0460     3.5140     1.5750 H     1 <1>   0.0730 
 37 H        9.1680     3.8040     0.2620 H     1 <1>   0.0730 
 38 H        9.2240     2.1320    -1.6740 H     1 <1>   0.0730 
 39 H        8.0840     0.8220    -1.6960 H     1 <1>   0.0730 
 40 H        5.5130     5.8920    -1.1890 H     1 <1>   0.0730 
 41 H        4.1410     4.8100    -1.1090 H     1 <1>   0.0730 
 42 H        9.2130     1.5340     2.2650 H     1 <1>   0.0730 
 43 H       10.3410     2.8490     2.1710 H     1 <1>   0.0730 
 44 H       10.3320     0.0570    -1.0560 H     1 <1>   0.0730 
 45 H        9.2040    -0.2210     0.2340 H     1 <1>   0.0730 
 46 H        5.5260     4.4670    -2.9420 H     1 <1>   0.3950 
 47 H       11.1690     2.0730     0.0200 H     1 <1>   0.0730 
 48 H       11.0630    -0.1720     2.0450 H     1 <1>   0.0730 
 49 H       12.2030     1.1330     2.0360 H     1 <1>   0.0730 
 50 H       11.5670    -2.1640     0.8390 H     1 <1>   0.1430 
 51 H       13.6790     1.4260    -0.0830 H     1 <1>   0.1430 
 52 H       13.0420    -3.4130    -0.6640 H     1 <1>   0.1430 
 53 H       15.1510     0.1690    -1.5860 H     1 <1>   0.1430 
 54 H       14.8340    -2.2520    -1.8820 H     1 <1>   0.1430 
@<TRIPOS>BOND
  1   1   2  2   
  2   2   3  am  
  3   2   4  am  
  4   3   5  1   
  5   3   6  1   
  6   4   7  am  
  7   4  29  1   
  8   5   8  1   
  9   5   9  2   
 10   6  30  1   
 11   6  31  1   
 12   6  32  1   
 13   7   9  1   
 14   7  10  2   
 15   8  11  ar  
 16   8  33  1   
 17   9  12  1   
 18  11  12  ar  
 19  11  13  ar  
 20  12  14  1   
 21  13  15  1   
 22  13  16  1   
 23  14  17  1   
 24  14  34  1   
 25  14  35  1   
 26  15  18  1   
 27  15  36  1   
 28  15  37  1   
 29  16  19  1   
 30  16  38  1   
 31  16  39  1   
 32  17  20  1   
 33  17  40  1   
 34  17  41  1   
 35  18  21  1   
 36  18  42  1   
 37  18  43  1   
 38  19  21  1   
 39  19  44  1   
 40  19  45  1   
 41  20  46  1   
 42  21  22  1   
 43  21  47  1   
 44  22  23  1   
 45  22  48  1   
 46  22  49  1   
 47  23  24  ar  
 48  23  25  ar  
 49  24  26  ar  
 50  24  50  1   
 51  25  27  ar  
 52  25  51  1   
 53  26  28  ar  
 54  26  52  1   
 55  27  28  ar  
 56  27  53  1   
 57  28  54  1   
@<TRIPOS>SUBSTRUCTURE
  1 ****  13 GROUP 4 **** **** 0

# MOE 2024.06 (io_trps.svl 2023.06)
