@<TRIPOS>MOLECULE
N,N-Diethyl-2-oxo-2-[1-(2-o-tolyloxy-ethyl)-1H-indol-3-yl]-acetamide
54 56 1 0 0 
SMALL
USER_CHARGES


@<TRIPOS>ATOM
  1 O       -0.6050     0.1330     1.9300 O.2   1 <1>  -0.5700 
  2 C        0.0370     0.9210     1.2510 C.2   1 <1>   0.6300 
  3 N       -0.6020     1.5180     0.1660 N.am  1 <1>  -0.6600 
  4 C        1.4440     1.1740     1.5700 C.2   1 <1>   0.6560 
  5 C        0.0960     2.4430    -0.7710 C.3   1 <1>   0.1400 
  6 C       -2.0050     1.1680    -0.1990 C.3   1 <1>   0.1400 
  7 O        1.7540     1.9200     2.4880 O.2   1 <1>  -0.5700 
  8 C        2.4920     0.5930     0.7670 C.2   1 <1>  -0.0860 
  9 C        0.2470     3.8270    -0.1430 C.3   1 <1>  -0.2400 
 10 C       -2.9590     2.2570     0.2840 C.3   1 <1>  -0.2400 
 11 C        2.3800    -0.4470    -0.2050 C.ar  1 <1>   0.0000 
 12 C        3.8150     0.9500     0.7720 C.2   1 <1>  -0.3020 
 13 C        3.6500    -0.6310    -0.7480 C.ar  1 <1>  -0.1520 
 14 C        1.3310    -1.2560    -0.6650 C.ar  1 <1>  -0.1500 
 15 N        4.5210     0.2310    -0.1280 N.pl3 1 <1>   0.0480 
 16 C        3.8820    -1.5760    -1.7520 C.ar  1 <1>  -0.1500 
 17 C        1.5600    -2.1880    -1.6510 C.ar  1 <1>  -0.1500 
 18 C        5.9740     0.3180    -0.3610 C.3   1 <1>   0.0960 
 19 C        2.8350    -2.3470    -2.1980 C.ar  1 <1>  -0.1500 
 20 C        6.6770    -0.8170     0.3770 C.3   1 <1>   0.1200 
 21 O        8.0560    -0.7260     0.1050 O.3   1 <1>  -0.3630 
 22 C        8.9440    -1.6180     0.6200 C.ar  1 <1>   0.0830 
 23 C       10.2870    -1.4540     0.2900 C.ar  1 <1>  -0.1430 
 24 C        8.5630    -2.6700     1.4520 C.ar  1 <1>  -0.1500 
 25 C       11.2290    -2.3390     0.7910 C.ar  1 <1>  -0.1500 
 26 C       10.7310    -0.3140    -0.6150 C.3   1 <1>  -0.0970 
 27 C        9.5120    -3.5460     1.9460 C.ar  1 <1>  -0.1500 
 28 C       10.8450    -3.3820     1.6160 C.ar  1 <1>  -0.1500 
 29 H       -0.4670     2.5270    -1.6850 H     1 <1>   0.0800 
 30 H        1.0650     2.0470    -1.0270 H     1 <1>   0.0800 
 31 H       -2.2850     0.2300     0.2510 H     1 <1>   0.0800 
 32 H       -2.0870     1.0490    -1.2660 H     1 <1>   0.0800 
 33 H       -0.7130     4.2340     0.1160 H     1 <1>   0.0800 
 34 H        0.7160     4.4910    -0.8470 H     1 <1>   0.0800 
 35 H        0.8610     3.7900     0.7380 H     1 <1>   0.0800 
 36 H       -2.8400     2.4070     1.3420 H     1 <1>   0.0800 
 37 H       -3.9730     1.9560     0.0940 H     1 <1>   0.0800 
 38 H       -2.7770     3.1790    -0.2360 H     1 <1>   0.0800 
 39 H        4.2720     1.6990     1.3960 H     1 <1>   0.1500 
 40 H        0.3450    -1.1620    -0.2510 H     1 <1>   0.1500 
 41 H        4.8660    -1.6980    -2.1680 H     1 <1>   0.1500 
 42 H        0.7560    -2.8080    -2.0080 H     1 <1>   0.1500 
 43 H        6.3290     1.2640     0.0030 H     1 <1>   0.0800 
 44 H        6.1620     0.2470    -1.4160 H     1 <1>   0.0800 
 45 H        2.9890    -3.0810    -2.9700 H     1 <1>   0.1500 
 46 H        6.3260    -1.7720     0.0270 H     1 <1>   0.0800 
 47 H        6.5330    -0.7240     1.4390 H     1 <1>   0.0800 
 48 H        7.5380    -2.8260     1.7270 H     1 <1>   0.1500 
 49 H       12.2690    -2.2220     0.5430 H     1 <1>   0.1500 
 50 H       10.2400    -0.3950    -1.5690 H     1 <1>   0.0800 
 51 H       11.7930    -0.3330    -0.7730 H     1 <1>   0.0800 
 52 H       10.4660     0.6280    -0.1690 H     1 <1>   0.0800 
 53 H        9.2150    -4.3580     2.5870 H     1 <1>   0.1500 
 54 H       11.5840    -4.0630     2.0000 H     1 <1>   0.1500 
@<TRIPOS>BOND
  1   1   2  2   
  2   2   3  am  
  3   2   4  1   
  4   3   5  1   
  5   3   6  1   
  6   4   7  2   
  7   4   8  1   
  8   5   9  1   
  9   5  29  1   
 10   5  30  1   
 11   6  10  1   
 12   6  31  1   
 13   6  32  1   
 14   8  11  1   
 15   8  12  2   
 16   9  33  1   
 17   9  34  1   
 18   9  35  1   
 19  10  36  1   
 20  10  37  1   
 21  10  38  1   
 22  11  13  ar  
 23  11  14  ar  
 24  12  15  1   
 25  12  39  1   
 26  13  15  1   
 27  13  16  ar  
 28  14  17  ar  
 29  14  40  1   
 30  15  18  1   
 31  16  19  ar  
 32  16  41  1   
 33  17  19  ar  
 34  17  42  1   
 35  18  20  1   
 36  18  43  1   
 37  18  44  1   
 38  19  45  1   
 39  20  21  1   
 40  20  46  1   
 41  20  47  1   
 42  21  22  1   
 43  22  23  ar  
 44  22  24  ar  
 45  23  25  ar  
 46  23  26  1   
 47  24  27  ar  
 48  24  48  1   
 49  25  28  ar  
 50  25  49  1   
 51  26  50  1   
 52  26  51  1   
 53  26  52  1   
 54  27  28  ar  
 55  27  53  1   
 56  28  54  1   
@<TRIPOS>SUBSTRUCTURE
  1 ****  15 GROUP 4 **** **** 0

# MOE 2024.06 (io_trps.svl 2023.06)
