@<TRIPOS>MOLECULE
3-(2,6-Dimethyl-3-oxo-2,3-dihydro-benzo[1,4]oxazin-4-yl)-propionic acid
32 33 1 0 0 
SMALL
USER_CHARGES


@<TRIPOS>ATOM
  1 O       -0.6400     0.1490     0.1730 O.2   1 <1>  -0.5700 
  2 C       -1.6620    -0.4870     0.0200 C.2   1 <1>   0.5690 
  3 N       -2.9100     0.0210     0.2920 N.am  1 <1>  -0.4770 
  4 C       -1.5750    -1.9170    -0.5460 C.3   1 <1>   0.2610 
  5 C       -4.0530    -0.8120     0.1880 C.ar  1 <1>   0.1170 
  6 C       -3.0540     1.4340     0.7540 C.3   1 <1>   0.1400 
  7 O       -2.6430    -2.7430    -0.1000 O.3   1 <1>  -0.3630 
  8 C       -0.2760    -2.6570    -0.1970 C.3   1 <1>  -0.2400 
  9 C       -3.8800    -2.1910     0.0060 C.ar  1 <1>   0.0820 
 10 C       -5.3590    -0.3300     0.2680 C.ar  1 <1>  -0.1500 
 11 C       -3.4130     2.3420    -0.4190 C.3   1 <1>  -0.2660 
 12 C       -4.9670    -3.0430    -0.0680 C.ar  1 <1>  -0.1500 
 13 C       -6.4510    -1.1790     0.1840 C.ar  1 <1>  -0.1440 
 14 C       -4.1500     3.5380     0.1060 C.2   1 <1>   0.9060 
 15 C       -6.2520    -2.5390     0.0200 C.ar  1 <1>  -0.1500 
 16 C       -7.8570    -0.6140     0.2770 C.3   1 <1>  -0.0960 
 17 O       -5.3180     3.3790     0.4730 O.co2 1 <1>  -0.9000 
 18 O       -3.5630     4.6190     0.1740 O.co2 1 <1>  -0.9000 
 19 H       -1.6650    -1.8460    -1.6150 H     1 <1>   0.0800 
 20 H       -2.1420     1.7820     1.2090 H     1 <1>   0.0800 
 21 H       -3.8190     1.4790     1.5110 H     1 <1>   0.0800 
 22 H       -0.1730    -2.7300     0.8700 H     1 <1>   0.0800 
 23 H        0.5670    -2.1140    -0.5840 H     1 <1>   0.0800 
 24 H       -0.2810    -3.6400    -0.6300 H     1 <1>   0.0800 
 25 H       -5.5420     0.7230     0.3960 H     1 <1>   0.1500 
 26 H       -4.0610     1.8470    -1.1160 H     1 <1>   0.0800 
 27 H       -2.5260     2.6680    -0.9250 H     1 <1>   0.0800 
 28 H       -4.8030    -4.0970    -0.1960 H     1 <1>   0.1500 
 29 H       -7.0940    -3.2060    -0.0390 H     1 <1>   0.1500 
 30 H       -7.8530     0.4460     0.0860 H     1 <1>   0.0800 
 31 H       -8.2530    -0.7830     1.2620 H     1 <1>   0.0800 
 32 H       -8.4970    -1.0860    -0.4460 H     1 <1>   0.0800 
@<TRIPOS>BOND
  1   1   2  2   
  2   2   3  am  
  3   2   4  1   
  4   3   5  1   
  5   3   6  1   
  6   4   7  1   
  7   4   8  1   
  8   4  19  1   
  9   5   9  ar  
 10   5  10  ar  
 11   6  11  1   
 12   6  20  1   
 13   6  21  1   
 14   7   9  1   
 15   8  22  1   
 16   8  23  1   
 17   8  24  1   
 18   9  12  ar  
 19  10  13  ar  
 20  10  25  1   
 21  11  14  1   
 22  11  26  1   
 23  11  27  1   
 24  12  15  ar  
 25  12  28  1   
 26  13  15  ar  
 27  13  16  1   
 28  14  17  ar  
 29  14  18  ar  
 30  15  29  1   
 31  16  30  1   
 32  16  31  1   
 33  16  32  1   
@<TRIPOS>SUBSTRUCTURE
  1 ****   5 GROUP 4 **** **** 0

# MOE 2024.06 (io_trps.svl 2023.06)
