@<TRIPOS>MOLECULE
C-(1-Propyl-piperidin-4-yl)-methylamine
33 33 1 0 0 
SMALL
USER_CHARGES


@<TRIPOS>ATOM
  1 N       -0.1200    -0.0700    -0.1560 N.4   1 <1>  -0.9590 
  2 C       -0.1600     1.3960     0.1060 C.3   1 <1>   0.3430 
  3 C       -1.2090    -0.7960     0.5620 C.3   1 <1>   0.3430 
  4 C        1.2260    -0.6120     0.1960 C.3   1 <1>   0.3430 
  5 C       -1.5110     1.9790    -0.3360 C.3   1 <1>  -0.1600 
  6 C       -2.5730    -0.2530     0.1200 C.3   1 <1>  -0.1600 
  7 C        1.4330    -1.9900    -0.4360 C.3   1 <1>  -0.1600 
  8 C       -2.7060     1.2680     0.3370 C.3   1 <1>  -0.0800 
  9 C        2.8550    -2.5000    -0.1790 C.3   1 <1>  -0.2400 
 10 C       -4.0790     1.7510    -0.1840 C.3   1 <1>   0.3430 
 11 N       -4.3240     3.1840     0.1320 N.4   1 <1>  -0.8530 
 12 H       -0.2420    -0.2210    -1.1670 H     1 <1>   0.4500 
 13 H        0.6370     1.8860    -0.4320 H     1 <1>   0.0800 
 14 H       -0.0130     1.5790     1.1590 H     1 <1>   0.0800 
 15 H       -1.0920    -0.6690     1.6260 H     1 <1>   0.0800 
 16 H       -1.1590    -1.8510     0.3430 H     1 <1>   0.0800 
 17 H        1.3360    -0.6790     1.2670 H     1 <1>   0.0800 
 18 H        1.9910     0.0500    -0.1770 H     1 <1>   0.0800 
 19 H       -1.5830     1.9010    -1.4080 H     1 <1>   0.0800 
 20 H       -1.5120     3.0250    -0.0870 H     1 <1>   0.0800 
 21 H       -3.3350    -0.7670     0.6830 H     1 <1>   0.0800 
 22 H       -2.7220    -0.5010    -0.9170 H     1 <1>   0.0800 
 23 H        1.2800    -1.9330    -1.5000 H     1 <1>   0.0800 
 24 H        0.7420    -2.7040    -0.0240 H     1 <1>   0.0800 
 25 H       -2.6650     1.4470     1.4000 H     1 <1>   0.0800 
 26 H        3.5860    -1.8320    -0.6030 H     1 <1>   0.0800 
 27 H        2.9870    -3.4690    -0.6310 H     1 <1>   0.0800 
 28 H        3.0450    -2.5950     0.8770 H     1 <1>   0.0800 
 29 H       -4.8550     1.1520     0.2670 H     1 <1>   0.0800 
 30 H       -4.1290     1.6020    -1.2520 H     1 <1>   0.0800 
 31 H       -4.3010     3.3620     1.1440 H     1 <1>   0.4500 
 32 H       -5.2560     3.4710    -0.1980 H     1 <1>   0.4500 
 33 H       -3.6440     3.8040    -0.3210 H     1 <1>   0.4500 
@<TRIPOS>BOND
  1   1   2  1   
  2   1   3  1   
  3   1   4  1   
  4   1  12  1   
  5   2   5  1   
  6   2  13  1   
  7   2  14  1   
  8   3   6  1   
  9   3  15  1   
 10   3  16  1   
 11   4   7  1   
 12   4  17  1   
 13   4  18  1   
 14   5   8  1   
 15   5  19  1   
 16   5  20  1   
 17   6   8  1   
 18   6  21  1   
 19   6  22  1   
 20   7   9  1   
 21   7  23  1   
 22   7  24  1   
 23   8  10  1   
 24   8  25  1   
 25   9  26  1   
 26   9  27  1   
 27   9  28  1   
 28  10  11  1   
 29  10  29  1   
 30  10  30  1   
 31  11  31  1   
 32  11  32  1   
 33  11  33  1   
@<TRIPOS>SUBSTRUCTURE
  1 ****   1 GROUP 4 **** **** 0

# MOE 2024.06 (io_trps.svl 2023.06)
