@<TRIPOS>MOLECULE
[4-(Morpholine-4-carbonyl)-piperazin-1-yl]-piperidin-1-yl-methanone
48 50 1 0 0 
SMALL
USER_CHARGES


@<TRIPOS>ATOM
  1 O        0.5730    -0.5380    -0.2710 O.2   1 <1>  -0.5700 
  2 C        1.1590    -1.6010    -0.1580 C.2   1 <1>   0.6900 
  3 N        0.5020    -2.6920     0.3490 N.am  1 <1>  -0.6600 
  4 N        2.4710    -1.6960    -0.5400 N.am  1 <1>  -0.6600 
  5 C        0.6690    -4.0470    -0.2530 C.3   1 <1>   0.1400 
  6 C       -0.7870    -2.5380     1.0840 C.3   1 <1>   0.1400 
  7 C        3.0800    -0.6570    -1.4220 C.3   1 <1>   0.1400 
  8 C        3.4730    -2.4050     0.3140 C.3   1 <1>   0.1400 
  9 C       -0.5920    -4.4490    -1.0360 C.3   1 <1>   0.1200 
 10 C       -1.9620    -3.0180     0.2180 C.3   1 <1>   0.1200 
 11 C        3.9000     0.3490    -0.5980 C.3   1 <1>   0.1400 
 12 C        4.2930    -1.3970     1.1350 C.3   1 <1>   0.1400 
 13 O       -1.7350    -4.3240    -0.2380 O.3   1 <1>  -0.5600 
 14 N        4.9020    -0.3610     0.2510 N.am  1 <1>  -0.6600 
 15 C        6.1960    -0.5020    -0.1780 C.2   1 <1>   0.6900 
 16 O        6.7060    -1.6110    -0.1750 O.2   1 <1>  -0.5700 
 17 N        6.9070     0.5830    -0.6270 N.am  1 <1>  -0.6600 
 18 C        6.7270     1.9450    -0.0540 C.3   1 <1>   0.1400 
 19 C        8.1360     0.4090    -1.4460 C.3   1 <1>   0.1400 
 20 C        7.9580     2.3300     0.7740 C.3   1 <1>  -0.1600 
 21 C        9.3720     0.7790    -0.6190 C.3   1 <1>  -0.1600 
 22 C        9.2560     2.1920    -0.0330 C.3   1 <1>  -0.1600 
 23 H        0.8470    -4.7630     0.5300 H     1 <1>   0.0800 
 24 H        1.5130    -4.0620    -0.9190 H     1 <1>   0.0800 
 25 H       -0.9410    -1.5100     1.3630 H     1 <1>   0.0800 
 26 H       -0.7510    -3.1220     1.9870 H     1 <1>   0.0800 
 27 H        2.3120    -0.1360    -1.9660 H     1 <1>   0.0800 
 28 H        3.7240    -1.1370    -2.1380 H     1 <1>   0.0800 
 29 H        4.1380    -2.9730    -0.3130 H     1 <1>   0.0800 
 30 H        2.9830    -3.0840     0.9870 H     1 <1>   0.0800 
 31 H       -0.5230    -5.4750    -1.3520 H     1 <1>   0.0800 
 32 H       -0.7090    -3.8250    -1.9060 H     1 <1>   0.0800 
 33 H       -2.0910    -2.3700    -0.6320 H     1 <1>   0.0800 
 34 H       -2.8710    -3.0230     0.7920 H     1 <1>   0.0800 
 35 H        3.2370     0.9170     0.0300 H     1 <1>   0.0800 
 36 H        4.3920     1.0290    -1.2690 H     1 <1>   0.0800 
 37 H        5.0650    -1.9170     1.6760 H     1 <1>   0.0800 
 38 H        3.6530    -0.9160     1.8530 H     1 <1>   0.0800 
 39 H        5.8550     1.9790     0.5770 H     1 <1>   0.0800 
 40 H        6.5910     2.6470    -0.8580 H     1 <1>   0.0800 
 41 H        8.0700     1.0470    -2.3110 H     1 <1>   0.0800 
 42 H        8.2180    -0.6080    -1.7900 H     1 <1>   0.0800 
 43 H        8.0020     1.6910     1.6390 H     1 <1>   0.0800 
 44 H        7.8520     3.3430     1.1200 H     1 <1>   0.0800 
 45 H       10.2470     0.7120    -1.2400 H     1 <1>   0.0800 
 46 H        9.4780     0.0610     0.1760 H     1 <1>   0.0800 
 47 H       10.1020     2.3930     0.6010 H     1 <1>   0.0800 
 48 H        9.2590     2.9130    -0.8330 H     1 <1>   0.0800 
@<TRIPOS>BOND
  1   1   2  2   
  2   2   3  am  
  3   2   4  am  
  4   3   5  1   
  5   3   6  1   
  6   4   7  1   
  7   4   8  1   
  8   5   9  1   
  9   5  23  1   
 10   5  24  1   
 11   6  10  1   
 12   6  25  1   
 13   6  26  1   
 14   7  11  1   
 15   7  27  1   
 16   7  28  1   
 17   8  12  1   
 18   8  29  1   
 19   8  30  1   
 20   9  13  1   
 21   9  31  1   
 22   9  32  1   
 23  10  13  1   
 24  10  33  1   
 25  10  34  1   
 26  11  14  1   
 27  11  35  1   
 28  11  36  1   
 29  12  14  1   
 30  12  37  1   
 31  12  38  1   
 32  14  15  am  
 33  15  16  2   
 34  15  17  am  
 35  17  18  1   
 36  17  19  1   
 37  18  20  1   
 38  18  39  1   
 39  18  40  1   
 40  19  21  1   
 41  19  41  1   
 42  19  42  1   
 43  20  22  1   
 44  20  43  1   
 45  20  44  1   
 46  21  22  1   
 47  21  45  1   
 48  21  46  1   
 49  22  47  1   
 50  22  48  1   
@<TRIPOS>SUBSTRUCTURE
  1 ****   4 GROUP 4 **** **** 0

# MOE 2024.06 (io_trps.svl 2023.06)
