@<TRIPOS>MOLECULE
N-[3-(3,4-Dimethoxy-phenyl)-[1,2,4]oxadiazol-5-ylmethyl]-propionamide
38 39 1 0 0 
SMALL
USER_CHARGES


@<TRIPOS>ATOM
  1 O       -1.6850    -0.4590    -1.8380 O.2   1 <1>  -0.5700 
  2 C       -2.3420    -0.5620    -0.8350 C.2   1 <1>   0.5690 
  3 N       -3.6840    -0.6770    -0.9430 N.am  1 <1>  -0.7300 
  4 C       -1.6700    -0.5610     0.5350 C.3   1 <1>  -0.0990 
  5 C       -4.7020    -0.8250     0.1290 C.3   1 <1>   0.3200 
  6 C       -0.1320    -0.5950     0.4920 C.3   1 <1>  -0.2400 
  7 C       -5.1550    -2.2690     0.2830 C.2   1 <1>   0.2980 
  8 O       -4.3060    -3.1400     0.7600 O.3   1 <1>  -0.0190 
  9 N       -6.3040    -2.7270    -0.0030 N.2   1 <1>  -0.5650 
 10 N       -4.9730    -4.2510     0.7810 N.2   1 <1>  -0.4100 
 11 C       -6.1530    -4.0150     0.3270 C.2   1 <1>   0.4620 
 12 C       -7.2170    -4.9940     0.1760 C.ar  1 <1>   0.0540 
 13 C       -7.0410    -6.3220     0.5620 C.ar  1 <1>  -0.1500 
 14 C       -8.4580    -4.6530    -0.3620 C.ar  1 <1>  -0.1500 
 15 C       -8.0370    -7.2720     0.4250 C.ar  1 <1>   0.0820 
 16 C       -9.4730    -5.5830    -0.4990 C.ar  1 <1>  -0.1500 
 17 O       -7.7020    -8.5260     0.8390 O.3   1 <1>  -0.3630 
 18 C       -9.2850    -6.9040    -0.1010 C.ar  1 <1>   0.0820 
 19 C       -8.1500    -9.6580     0.1270 C.3   1 <1>   0.0400 
 20 O      -10.2850    -7.8270    -0.1970 O.3   1 <1>  -0.3630 
 21 C      -11.6050    -7.4700    -0.5420 C.3   1 <1>   0.0400 
 22 H       -4.0350    -0.7450    -1.9010 H     1 <1>   0.3700 
 23 H       -2.0110    -1.4200     1.0830 H     1 <1>   0.0800 
 24 H       -1.9800     0.3220     1.0620 H     1 <1>   0.0800 
 25 H       -5.5550    -0.2180    -0.1180 H     1 <1>   0.0800 
 26 H       -4.3110    -0.4790     1.0680 H     1 <1>   0.0800 
 27 H        0.2040    -1.4780    -0.0240 H     1 <1>   0.0800 
 28 H        0.2710    -0.6010     1.4890 H     1 <1>   0.0800 
 29 H        0.2440     0.2680    -0.0290 H     1 <1>   0.0800 
 30 H       -6.1010    -6.6310     0.9810 H     1 <1>   0.1500 
 31 H       -8.6350    -3.6400    -0.6780 H     1 <1>   0.1500 
 32 H      -10.4030    -5.2530    -0.9180 H     1 <1>   0.1500 
 33 H       -7.4820   -10.4730     0.3400 H     1 <1>   0.0800 
 34 H       -8.1420    -9.4390    -0.9260 H     1 <1>   0.0800 
 35 H       -9.1420    -9.9060     0.4580 H     1 <1>   0.0800 
 36 H      -12.2170    -8.3510    -0.4740 H     1 <1>   0.0800 
 37 H      -11.6150    -7.0970    -1.5510 H     1 <1>   0.0800 
 38 H      -11.9580    -6.7260     0.1500 H     1 <1>   0.0800 
@<TRIPOS>BOND
  1   1   2  2   
  2   2   3  am  
  3   2   4  1   
  4   3   5  1   
  5   3  22  1   
  6   4   6  1   
  7   4  23  1   
  8   4  24  1   
  9   5   7  1   
 10   5  25  1   
 11   5  26  1   
 12   6  27  1   
 13   6  28  1   
 14   6  29  1   
 15   7   8  1   
 16   7   9  2   
 17   8  10  1   
 18   9  11  1   
 19  10  11  2   
 20  11  12  1   
 21  12  13  ar  
 22  12  14  ar  
 23  13  15  ar  
 24  13  30  1   
 25  14  16  ar  
 26  14  31  1   
 27  15  17  1   
 28  15  18  ar  
 29  16  18  ar  
 30  16  32  1   
 31  17  19  1   
 32  18  20  1   
 33  19  33  1   
 34  19  34  1   
 35  19  35  1   
 36  20  21  1   
 37  21  36  1   
 38  21  37  1   
 39  21  38  1   
@<TRIPOS>SUBSTRUCTURE
  1 ****  11 GROUP 4 **** **** 0

# MOE 2024.06 (io_trps.svl 2023.06)
