@<TRIPOS>MOLECULE
3-Methyl-7-[2-(pyrimidin-2-ylsulfanyl)-ethyl]-8-pyrrolidin-1-yl-3,7-dihydro-puri
46 49 1 0 0 
SMALL
USER_CHARGES


@<TRIPOS>ATOM
  1 S        0.6320    -0.5690     0.9450 S.3   1 <1>  -0.3380 
  2 C        1.7050     0.0810    -0.3260 C.ar  1 <1>   0.7170 
  3 C       -0.5960    -1.6080     0.0360 C.3   1 <1>   0.0610 
  4 N        1.4150    -0.2880    -1.5640 N.ar  1 <1>  -0.6250 
  5 N        2.6820     0.8490     0.1190 N.ar  1 <1>  -0.6250 
  6 C       -1.2650    -2.5400     1.0460 C.3   1 <1>   0.3470 
  7 C        2.2220     0.2090    -2.4760 C.ar  1 <1>   0.1520 
  8 C        3.4680     1.3240    -0.8210 C.ar  1 <1>   0.1520 
  9 N       -1.5430    -3.8650     0.4200 N.pl3 1 <1>  -0.7680 
 10 C        3.2770     1.0300    -2.1510 C.ar  1 <1>  -0.1580 
 11 C       -0.7570    -4.9460     0.2570 C.cat 1 <1>   1.0680 
 12 C       -2.7910    -4.1620    -0.1640 C.2   1 <1>   0.2700 
 13 N       -1.4580    -5.8970    -0.3660 N.pl3 1 <1>  -0.7040 
 14 N        0.5370    -5.1320     0.6100 N.pl3 1 <1>  -0.5970 
 15 C       -4.0240    -3.4560    -0.3610 C.2   1 <1>   0.6990 
 16 C       -2.7030    -5.4270    -0.6320 C.2   1 <1>   0.4200 
 17 C        1.4360    -4.1520     1.2780 C.3   1 <1>   0.1590 
 18 C        1.3120    -6.3570     0.2750 C.3   1 <1>   0.1590 
 19 O       -4.2110    -2.3110    -0.0020 O.2   1 <1>  -0.5750 
 20 N       -5.0340    -4.1210    -0.9960 N.am  1 <1>  -0.4960 
 21 N       -3.7370    -6.0890    -1.2770 N.am  1 <1>  -0.4420 
 22 C        2.7650    -4.8700     1.4720 C.3   1 <1>  -0.1680 
 23 C        2.7740    -5.9600     0.4130 C.3   1 <1>  -0.1680 
 24 C       -4.9290    -5.4010    -1.4560 C.2   1 <1>   0.6860 
 25 C       -3.5730    -7.4880    -1.7690 C.3   1 <1>   0.0510 
 26 O       -5.8830    -5.8940    -2.0100 O.2   1 <1>  -0.5750 
 27 H       -0.0490    -2.1640    -0.7030 H     1 <1>   0.0710 
 28 H       -1.3000    -0.9440    -0.4320 H     1 <1>   0.0710 
 29 H       -2.1770    -2.0880     1.3970 H     1 <1>   0.0710 
 30 H       -0.6380    -2.6700     1.9080 H     1 <1>   0.0710 
 31 H        2.0390    -0.0440    -3.5080 H     1 <1>   0.1420 
 32 H        4.2830     1.9620    -0.5220 H     1 <1>   0.1420 
 33 H        3.9270     1.4290    -2.9070 H     1 <1>   0.1420 
 34 H       -1.0930    -6.8140    -0.6010 H     1 <1>   0.4440 
 35 H        1.0470    -3.8430     2.2330 H     1 <1>   0.0710 
 36 H        1.5830    -3.2990     0.6380 H     1 <1>   0.0710 
 37 H        1.1090    -6.7020    -0.7250 H     1 <1>   0.0710 
 38 H        1.0780    -7.1320     0.9860 H     1 <1>   0.0710 
 39 H       -5.9200    -3.6420    -1.1450 H     1 <1>   0.3630 
 40 H        2.7920    -5.3100     2.4540 H     1 <1>   0.0710 
 41 H        3.6000    -4.1970     1.3730 H     1 <1>   0.0710 
 42 H        3.1260    -5.5610    -0.5230 H     1 <1>   0.0710 
 43 H        3.3950    -6.7950     0.6900 H     1 <1>   0.0710 
 44 H       -2.8470    -7.5120    -2.5630 H     1 <1>   0.0710 
 45 H       -4.5040    -7.8730    -2.1490 H     1 <1>   0.0710 
 46 H       -3.2490    -8.1250    -0.9650 H     1 <1>   0.0710 
@<TRIPOS>BOND
  1   1   2  1   
  2   1   3  1   
  3   2   4  ar  
  4   2   5  ar  
  5   3   6  1   
  6   3  27  1   
  7   3  28  1   
  8   4   7  ar  
  9   5   8  ar  
 10   6   9  1   
 11   6  29  1   
 12   6  30  1   
 13   7  10  ar  
 14   7  31  1   
 15   8  10  ar  
 16   8  32  1   
 17   9  11  ar  
 18   9  12  1   
 19  10  33  1   
 20  11  13  ar  
 21  11  14  ar  
 22  12  15  1   
 23  12  16  2   
 24  13  16  1   
 25  13  34  1   
 26  14  17  1   
 27  14  18  1   
 28  15  19  2   
 29  15  20  am  
 30  16  21  1   
 31  17  22  1   
 32  17  35  1   
 33  17  36  1   
 34  18  23  1   
 35  18  37  1   
 36  18  38  1   
 37  20  24  am  
 38  20  39  1   
 39  21  24  am  
 40  21  25  1   
 41  22  23  1   
 42  22  40  1   
 43  22  41  1   
 44  23  42  1   
 45  23  43  1   
 46  24  26  2   
 47  25  44  1   
 48  25  45  1   
 49  25  46  1   
@<TRIPOS>SUBSTRUCTURE
  1 ****   9 GROUP 4 **** **** 0

# MOE 2024.06 (io_trps.svl 2023.06)
