@<TRIPOS>MOLECULE
1-(4-Methyl-piperazin-1-yl)-2-(5-phenoxymethyl-[1,3,4]oxadiazol-2-ylsulfanyl)-et
45 47 1 0 0 
SMALL
USER_CHARGES


@<TRIPOS>ATOM
  1 S        0.3630     1.4770     1.0560 S.3   1 <1>  -0.2860 
  2 C       -1.1610     0.6310     1.4510 C.2   1 <1>   0.5340 
  3 C        1.7070     0.3630     1.6960 C.3   1 <1>   0.1310 
  4 O       -2.2720     1.0990     0.9980 O.3   1 <1>  -0.2800 
  5 N       -1.2840    -0.4370     2.1410 N.2   1 <1>  -0.3380 
  6 C        2.3070    -0.4390     0.5440 C.2   1 <1>   0.5690 
  7 C       -3.1370     0.2360     1.4370 C.2   1 <1>   0.2980 
  8 N       -2.5920    -0.7020     2.1250 N.2   1 <1>  -0.3380 
  9 O        3.3530    -0.0430     0.0900 O.2   1 <1>  -0.5700 
 10 N        1.7080    -1.5650     0.0200 N.am  1 <1>  -0.6600 
 11 C       -4.6140     0.4070     1.1230 C.3   1 <1>   0.3000 
 12 C        2.0950    -2.0490    -1.3450 C.3   1 <1>   0.1400 
 13 C        0.6320    -2.3610     0.6910 C.3   1 <1>   0.1400 
 14 O       -4.8280     0.2420    -0.2650 O.3   1 <1>  -0.3620 
 15 C        2.3580    -3.5640    -1.3600 C.3   1 <1>   0.3430 
 16 C        0.8910    -3.8790     0.6070 C.3   1 <1>   0.3430 
 17 C       -6.0680     0.3700    -0.8010 C.ar  1 <1>   0.0820 
 18 N        1.1970    -4.3360    -0.7940 N.4   1 <1>  -0.9590 
 19 C       -7.2210     0.5890    -0.0500 C.ar  1 <1>  -0.1500 
 20 C       -6.1610     0.2730    -2.1800 C.ar  1 <1>  -0.1500 
 21 C        1.4550    -5.8070    -0.8360 C.3   1 <1>   0.2630 
 22 C       -8.4460     0.7090    -0.6840 C.ar  1 <1>  -0.1500 
 23 C       -7.3870     0.3930    -2.8110 C.ar  1 <1>  -0.1500 
 24 C       -8.5300     0.6110    -2.0630 C.ar  1 <1>  -0.1500 
 25 H        1.3040    -0.2570     2.4720 H     1 <1>   0.0800 
 26 H        2.4580     1.0080     2.1140 H     1 <1>   0.0800 
 27 H       -4.9370     1.3930     1.4040 H     1 <1>   0.0800 
 28 H       -5.1860    -0.3370     1.6450 H     1 <1>   0.0800 
 29 H        2.9800    -1.5430    -1.6920 H     1 <1>   0.0800 
 30 H        1.3040    -1.8130    -2.0370 H     1 <1>   0.0800 
 31 H       -0.3170    -2.1320     0.2370 H     1 <1>   0.0800 
 32 H        0.5750    -2.1060     1.7320 H     1 <1>   0.0800 
 33 H        3.2460    -3.7600    -0.7810 H     1 <1>   0.0800 
 34 H        2.5490    -3.8760    -2.3740 H     1 <1>   0.0800 
 35 H        0.0260    -4.4010     0.9830 H     1 <1>   0.0800 
 36 H        1.7220    -4.1160     1.2500 H     1 <1>   0.0800 
 37 H        0.3710    -4.1260    -1.3750 H     1 <1>   0.4500 
 38 H       -7.1950     0.6690     1.0190 H     1 <1>   0.1500 
 39 H       -5.2700     0.1050    -2.7570 H     1 <1>   0.1500 
 40 H        2.3160    -6.0550    -0.2360 H     1 <1>   0.0800 
 41 H        1.6390    -6.1260    -1.8500 H     1 <1>   0.0800 
 42 H        0.6030    -6.3490    -0.4570 H     1 <1>   0.0800 
 43 H       -9.3390     0.8770    -0.1060 H     1 <1>   0.1500 
 44 H       -7.4510     0.3160    -3.8830 H     1 <1>   0.1500 
 45 H       -9.4840     0.7040    -2.5530 H     1 <1>   0.1500 
@<TRIPOS>BOND
  1   1   2  1   
  2   1   3  1   
  3   2   4  1   
  4   2   5  2   
  5   3   6  1   
  6   3  25  1   
  7   3  26  1   
  8   4   7  1   
  9   5   8  1   
 10   6   9  2   
 11   6  10  am  
 12   7   8  2   
 13   7  11  1   
 14  10  12  1   
 15  10  13  1   
 16  11  14  1   
 17  11  27  1   
 18  11  28  1   
 19  12  15  1   
 20  12  29  1   
 21  12  30  1   
 22  13  16  1   
 23  13  31  1   
 24  13  32  1   
 25  14  17  1   
 26  15  18  1   
 27  15  33  1   
 28  15  34  1   
 29  16  18  1   
 30  16  35  1   
 31  16  36  1   
 32  17  19  ar  
 33  17  20  ar  
 34  18  21  1   
 35  18  37  1   
 36  19  22  ar  
 37  19  38  1   
 38  20  23  ar  
 39  20  39  1   
 40  21  40  1   
 41  21  41  1   
 42  21  42  1   
 43  22  24  ar  
 44  22  43  1   
 45  23  24  ar  
 46  23  44  1   
 47  24  45  1   
@<TRIPOS>SUBSTRUCTURE
  1 ****   2 GROUP 4 **** **** 0

# MOE 2024.06 (io_trps.svl 2023.06)
