@<TRIPOS>MOLECULE
1-(2,4-Dimethyl-phenyl)-5-oxo-pyrrolidine-3-carboxylic acid (3-methoxy-phenyl)-a
47 49 1 0 0 
SMALL
USER_CHARGES


@<TRIPOS>ATOM
  1 O        0.3180    -0.0610     0.7140 O.2   1 <1>  -0.5700 
  2 C        1.4730    -0.4070     0.7370 C.2   1 <1>   0.5690 
  3 N        1.9450    -1.6830     0.8180 N.am  1 <1>  -0.4770 
  4 C        2.6040     0.5800     0.6620 C.3   1 <1>  -0.0990 
  5 C        1.2190    -2.8820     0.8880 C.ar  1 <1>   0.1170 
  6 C        3.4160    -1.7090     0.7950 C.3   1 <1>   0.1400 
  7 C        3.8150    -0.3080     0.3160 C.3   1 <1>  -0.0190 
  8 C        0.4710    -3.3630    -0.1870 C.ar  1 <1>  -0.1440 
  9 C        1.2660    -3.6260     2.0610 C.ar  1 <1>  -0.1500 
 10 C        5.1570     0.1400     0.8880 C.2   1 <1>   0.5690 
 11 C       -0.2050    -4.5670    -0.0680 C.ar  1 <1>  -0.1500 
 12 C        0.3770    -2.5910    -1.4970 C.3   1 <1>  -0.0970 
 13 C        0.5900    -4.8260     2.1700 C.ar  1 <1>  -0.1500 
 14 O        5.2170     1.0870     1.6280 O.2   1 <1>  -0.5700 
 15 N        6.2960    -0.5340     0.5800 N.am  1 <1>  -0.5470 
 16 C       -0.1490    -5.3060     1.1030 C.ar  1 <1>  -0.1430 
 17 C        6.4670    -1.6650    -0.2200 C.ar  1 <1>   0.1170 
 18 C       -0.8980    -6.6210     1.2120 C.3   1 <1>  -0.0970 
 19 C        6.8100    -2.8770     0.3580 C.ar  1 <1>  -0.1500 
 20 C        6.2860    -1.6000    -1.5960 C.ar  1 <1>  -0.1500 
 21 C        6.9540    -4.0170    -0.4130 C.ar  1 <1>   0.0820 
 22 C        6.4290    -2.7330    -2.3760 C.ar  1 <1>  -0.1500 
 23 O        7.2800    -5.1580     0.2440 O.3   1 <1>  -0.3630 
 24 C        6.7600    -3.9430    -1.7900 C.ar  1 <1>  -0.1500 
 25 C        7.4390    -6.3790    -0.4430 C.3   1 <1>   0.0400 
 26 H        2.7020     1.0470     1.6250 H     1 <1>   0.0800 
 27 H        2.4210     1.3250    -0.0900 H     1 <1>   0.0800 
 28 H        3.7720    -2.4750     0.1270 H     1 <1>   0.0800 
 29 H        3.7800    -1.8950     1.7910 H     1 <1>   0.0800 
 30 H        3.8990    -0.3410    -0.7550 H     1 <1>   0.0800 
 31 H        1.8320    -3.2560     2.8950 H     1 <1>   0.1500 
 32 H       -0.7860    -4.9370    -0.8940 H     1 <1>   0.1500 
 33 H        1.3550    -2.2860    -1.8210 H     1 <1>   0.0800 
 34 H       -0.2330    -1.7170    -1.3570 H     1 <1>   0.0800 
 35 H       -0.0630    -3.1930    -2.2700 H     1 <1>   0.0800 
 36 H        0.6400    -5.3830     3.0890 H     1 <1>   0.1500 
 37 H        7.1190    -0.1910     1.0810 H     1 <1>   0.3700 
 38 H       -1.9230    -6.4320     1.4750 H     1 <1>   0.0800 
 39 H       -0.4560    -7.2480     1.9660 H     1 <1>   0.0800 
 40 H       -0.8700    -7.1460     0.2750 H     1 <1>   0.0800 
 41 H        6.9620    -2.9450     1.4200 H     1 <1>   0.1500 
 42 H        6.0380    -0.6610    -2.0570 H     1 <1>   0.1500 
 43 H        6.2860    -2.6760    -3.4420 H     1 <1>   0.1500 
 44 H        6.8640    -4.8090    -2.4160 H     1 <1>   0.1500 
 45 H        7.6920    -7.1370     0.2770 H     1 <1>   0.0800 
 46 H        8.2360    -6.2760    -1.1590 H     1 <1>   0.0800 
 47 H        6.5130    -6.6320    -0.9290 H     1 <1>   0.0800 
@<TRIPOS>BOND
  1   1   2  2   
  2   2   3  am  
  3   2   4  1   
  4   3   5  1   
  5   3   6  1   
  6   4   7  1   
  7   4  26  1   
  8   4  27  1   
  9   5   8  ar  
 10   5   9  ar  
 11   6   7  1   
 12   6  28  1   
 13   6  29  1   
 14   7  10  1   
 15   7  30  1   
 16   8  11  ar  
 17   8  12  1   
 18   9  13  ar  
 19   9  31  1   
 20  10  14  2   
 21  10  15  am  
 22  11  16  ar  
 23  11  32  1   
 24  12  33  1   
 25  12  34  1   
 26  12  35  1   
 27  13  16  ar  
 28  13  36  1   
 29  15  17  1   
 30  15  37  1   
 31  16  18  1   
 32  17  19  ar  
 33  17  20  ar  
 34  18  38  1   
 35  18  39  1   
 36  18  40  1   
 37  19  21  ar  
 38  19  41  1   
 39  20  22  ar  
 40  20  42  1   
 41  21  23  1   
 42  21  24  ar  
 43  22  24  ar  
 44  22  43  1   
 45  23  25  1   
 46  24  44  1   
 47  25  45  1   
 48  25  46  1   
 49  25  47  1   
@<TRIPOS>SUBSTRUCTURE
  1 ****   6 GROUP 4 **** **** 0

# MOE 2024.06 (io_trps.svl 2023.06)
