@<TRIPOS>MOLECULE
(3,4-Dimethoxy-phenyl)-[4-(2,4,6-trimethyl-benzenesulfonyl)-piperazin-1-yl]-meth
58 60 1 0 0 
SMALL
USER_CHARGES


@<TRIPOS>ATOM
  1 S       -0.2260    -0.0860    -1.5480 S.o2  1 <1>   1.4470 
  2 O        0.0870    -1.0430    -2.5880 O.2   1 <1>  -0.6500 
  3 O       -0.9870     1.0820    -1.9360 O.2   1 <1>  -0.6500 
  4 N       -1.2280    -0.9000    -0.4480 N.am  1 <1>  -0.8490 
  5 C        1.2760     0.2960    -0.5550 C.ar  1 <1>  -0.0090 
  6 C       -1.6770    -0.0230     0.6500 C.3   1 <1>   0.1960 
  7 C       -2.3940    -1.4840    -1.1320 C.3   1 <1>   0.1960 
  8 C        2.0890    -0.7420    -0.0750 C.ar  1 <1>  -0.1440 
  9 C        1.6520     1.6090    -0.2250 C.ar  1 <1>  -0.1430 
 10 C       -2.5220    -0.7950     1.6750 C.3   1 <1>   0.1400 
 11 C       -3.2950    -2.2800    -0.1710 C.3   1 <1>   0.1400 
 12 C        3.2080    -0.4740     0.6990 C.ar  1 <1>  -0.1500 
 13 C        1.8080    -2.2130    -0.3720 C.3   1 <1>  -0.0960 
 14 C        2.7740     1.8530     0.5520 C.ar  1 <1>  -0.1500 
 15 C        0.8810     2.8420    -0.6860 C.3   1 <1>  -0.0960 
 16 N       -3.6890    -1.4500     1.0100 N.am  1 <1>  -0.6600 
 17 C        3.5560     0.8190     1.0200 C.ar  1 <1>  -0.1430 
 18 C       -4.9890    -1.0840     1.2940 C.2   1 <1>   0.5440 
 19 C        4.7850     1.1010     1.8660 C.3   1 <1>  -0.0970 
 20 O       -5.1800    -0.0770     1.9500 O.2   1 <1>  -0.5700 
 21 C       -6.1270    -1.8490     0.8210 C.ar  1 <1>   0.0860 
 22 C       -6.1670    -3.2390     0.9100 C.ar  1 <1>  -0.1500 
 23 C       -7.2340    -1.2150     0.2620 C.ar  1 <1>  -0.1500 
 24 C       -7.2400    -3.9770     0.4460 C.ar  1 <1>   0.0830 
 25 C       -8.3170    -1.9320    -0.2120 C.ar  1 <1>  -0.1500 
 26 O       -7.1180    -5.3250     0.6010 O.3   1 <1>  -0.3630 
 27 C       -8.3360    -3.3230    -0.1410 C.ar  1 <1>   0.0830 
 28 C       -8.2430    -6.1180     0.9150 C.3   1 <1>   0.0400 
 29 O       -9.3760    -4.0470    -0.6370 O.3   1 <1>  -0.3630 
 30 C      -10.4820    -3.4490    -1.2780 C.3   1 <1>   0.0400 
 31 H       -2.2630     0.7940     0.2620 H     1 <1>   0.0800 
 32 H       -0.8220     0.3910     1.1570 H     1 <1>   0.0800 
 33 H       -2.0580    -2.1480    -1.9110 H     1 <1>   0.0800 
 34 H       -2.9750    -0.7030    -1.5950 H     1 <1>   0.0800 
 35 H       -2.8520    -0.1190     2.4450 H     1 <1>   0.0800 
 36 H       -1.9130    -1.5490     2.1410 H     1 <1>   0.0800 
 37 H       -2.7640    -3.1510     0.1710 H     1 <1>   0.0800 
 38 H       -4.1620    -2.6110    -0.7130 H     1 <1>   0.0800 
 39 H        3.8230    -1.2810     1.0570 H     1 <1>   0.1500 
 40 H        0.8200    -2.4890    -0.0530 H     1 <1>   0.0800 
 41 H        2.5020    -2.8540     0.1410 H     1 <1>   0.0800 
 42 H        1.9050    -2.4050    -1.4250 H     1 <1>   0.0800 
 43 H        3.0530     2.8630     0.7970 H     1 <1>   0.1500 
 44 H       -0.1160     2.8340    -0.2840 H     1 <1>   0.0800 
 45 H        0.8320     2.8710    -1.7600 H     1 <1>   0.0800 
 46 H        1.3560     3.7500    -0.3600 H     1 <1>   0.0800 
 47 H        4.9590     0.2950     2.5570 H     1 <1>   0.0800 
 48 H        4.6560     2.0070     2.4300 H     1 <1>   0.0800 
 49 H        5.6470     1.2060     1.2320 H     1 <1>   0.0800 
 50 H       -5.3410    -3.7590     1.3600 H     1 <1>   0.1500 
 51 H       -7.2360    -0.1390     0.2040 H     1 <1>   0.1500 
 52 H       -9.1360    -1.3830    -0.6360 H     1 <1>   0.1500 
 53 H       -7.8950    -7.0270     1.3700 H     1 <1>   0.0800 
 54 H       -8.7720    -6.3450     0.0080 H     1 <1>   0.0800 
 55 H       -8.8740    -5.5800     1.6000 H     1 <1>   0.0800 
 56 H      -11.1480    -4.2320    -1.5930 H     1 <1>   0.0800 
 57 H      -10.1350    -2.9010    -2.1360 H     1 <1>   0.0800 
 58 H      -10.9830    -2.8020    -0.5810 H     1 <1>   0.0800 
@<TRIPOS>BOND
  1   1   2  2   
  2   1   3  2   
  3   1   4  am  
  4   1   5  1   
  5   4   6  1   
  6   4   7  1   
  7   5   8  ar  
  8   5   9  ar  
  9   6  10  1   
 10   6  31  1   
 11   6  32  1   
 12   7  11  1   
 13   7  33  1   
 14   7  34  1   
 15   8  12  ar  
 16   8  13  1   
 17   9  14  ar  
 18   9  15  1   
 19  10  16  1   
 20  10  35  1   
 21  10  36  1   
 22  11  16  1   
 23  11  37  1   
 24  11  38  1   
 25  12  17  ar  
 26  12  39  1   
 27  13  40  1   
 28  13  41  1   
 29  13  42  1   
 30  14  17  ar  
 31  14  43  1   
 32  15  44  1   
 33  15  45  1   
 34  15  46  1   
 35  16  18  am  
 36  17  19  1   
 37  18  20  2   
 38  18  21  1   
 39  19  47  1   
 40  19  48  1   
 41  19  49  1   
 42  21  22  ar  
 43  21  23  ar  
 44  22  24  ar  
 45  22  50  1   
 46  23  25  ar  
 47  23  51  1   
 48  24  26  1   
 49  24  27  ar  
 50  25  27  ar  
 51  25  52  1   
 52  26  28  1   
 53  27  29  1   
 54  28  53  1   
 55  28  54  1   
 56  28  55  1   
 57  29  30  1   
 58  30  56  1   
 59  30  57  1   
 60  30  58  1   
@<TRIPOS>SUBSTRUCTURE
  1 ****  11 GROUP 4 **** **** 0

# MOE 2024.06 (io_trps.svl 2023.06)
