@<TRIPOS>MOLECULE
6-Methyl-10-oxo-2-[(tetrahydro-furan-2-ylmethyl)-amino]-10H-1,9,10a-triaza-anthr
49 52 1 0 0 
SMALL
USER_CHARGES


@<TRIPOS>ATOM
  1 O       -0.4250    -0.8820     1.6270 O.2   1 <1>  -0.5700 
  2 C       -0.0690    -1.8060     0.9320 C.2   1 <1>   0.8650 
  3 N       -1.0490    -2.6770     0.4200 N.pl3 1 <1>  -0.5760 
  4 C        1.3130    -2.0040     0.6310 C.ar  1 <1>   0.0860 
  5 C       -0.6850    -3.7070    -0.3800 C.cat 1 <1>   0.7390 
  6 C       -2.3830    -2.4990     0.7170 C.2   1 <1>   0.1910 
  7 C        1.6150    -3.0790    -0.1950 C.ar  1 <1>   0.6590 
  8 C        2.3720    -1.2260     1.0780 C.ar  1 <1>  -0.1500 
  9 N        0.6150    -3.8700    -0.6620 N.pl3 1 <1>  -0.6530 
 10 C       -1.6570    -4.5760    -0.8940 C.2   1 <1>  -0.1800 
 11 C       -3.3500    -3.3350     0.2270 C.2   1 <1>  -0.1380 
 12 N        2.8140    -3.4290    -0.5880 N.ar  1 <1>  -0.6200 
 13 C        3.6570    -1.5570     0.6880 C.ar  1 <1>   0.0860 
 14 C       -2.9820    -4.4020    -0.6000 C.2   1 <1>  -0.1500 
 15 C       -4.8220    -3.1400     0.5540 C.3   1 <1>  -0.1020 
 16 C        3.8200    -2.6970    -0.1340 C.ar  1 <1>   0.4100 
 17 C        4.7590    -0.7480     1.1330 C.2   1 <1>   0.5440 
 18 N        5.0200    -3.1760    -0.5520 N.pl3 1 <1>  -0.8690 
 19 O        5.0680    -0.7450     2.3050 O.2   1 <1>  -0.5700 
 20 N        5.4790     0.0670     0.3150 N.am  1 <1>  -0.7300 
 21 C        6.2330    -3.3020     0.3030 C.3   1 <1>   0.2090 
 22 C        5.4210     0.1800    -1.1650 C.3   1 <1>   0.0600 
 23 C        7.1670    -4.3900    -0.2570 C.3   1 <1>   0.2000 
 24 O        6.4410    -5.5200    -0.6320 O.3   1 <1>  -0.5600 
 25 C        8.1940    -4.9120     0.7360 C.3   1 <1>  -0.1600 
 26 C        7.2670    -6.6430    -0.6530 C.3   1 <1>   0.1200 
 27 C        8.4830    -6.3080     0.2100 C.3   1 <1>  -0.1600 
 28 H       -2.6630    -1.6730     1.3570 H     1 <1>   0.1500 
 29 H        2.2050    -0.3750     1.7230 H     1 <1>   0.1500 
 30 H        0.9420    -4.6360    -1.2530 H     1 <1>   0.4500 
 31 H       -1.3500    -5.3880    -1.5270 H     1 <1>   0.1500 
 32 H       -3.7390    -5.0650    -0.9910 H     1 <1>   0.1500 
 33 H       -5.2090    -4.0110     1.0530 H     1 <1>   0.0800 
 34 H       -5.3850    -2.9840    -0.3500 H     1 <1>   0.0800 
 35 H       -4.9710    -2.2890     1.1950 H     1 <1>   0.0800 
 36 H        4.9500    -4.0330    -1.1220 H     1 <1>   0.4000 
 37 H        6.2050     0.6170     0.7840 H     1 <1>   0.3700 
 38 H        5.9390    -3.5590     1.3060 H     1 <1>   0.0800 
 39 H        6.7650    -2.3670     0.3360 H     1 <1>   0.0800 
 40 H        4.6230    -0.4200    -1.5660 H     1 <1>   0.0800 
 41 H        6.3510    -0.1580    -1.5890 H     1 <1>   0.0800 
 42 H        5.2600     1.2070    -1.4450 H     1 <1>   0.0800 
 43 H        7.6630    -4.0230    -1.1390 H     1 <1>   0.0800 
 44 H        7.7600    -4.9730     1.7190 H     1 <1>   0.0800 
 45 H        9.0720    -4.2920     0.7710 H     1 <1>   0.0800 
 46 H        7.5500    -6.8370    -1.6730 H     1 <1>   0.0800 
 47 H        6.7130    -7.4770    -0.2590 H     1 <1>   0.0800 
 48 H        8.6070    -7.0200     1.0070 H     1 <1>   0.0800 
 49 H        9.3680    -6.3120    -0.4020 H     1 <1>   0.0800 
@<TRIPOS>BOND
  1   1   2  2   
  2   2   3  1   
  3   2   4  1   
  4   3   5  ar  
  5   3   6  1   
  6   4   7  ar  
  7   4   8  ar  
  8   5   9  ar  
  9   5  10  1   
 10   6  11  2   
 11   6  28  1   
 12   7   9  1   
 13   7  12  ar  
 14   8  13  ar  
 15   8  29  1   
 16   9  30  1   
 17  10  14  2   
 18  10  31  1   
 19  11  14  1   
 20  11  15  1   
 21  12  16  ar  
 22  13  16  ar  
 23  13  17  1   
 24  14  32  1   
 25  15  33  1   
 26  15  34  1   
 27  15  35  1   
 28  16  18  1   
 29  17  19  2   
 30  17  20  am  
 31  18  21  1   
 32  18  36  1   
 33  20  22  1   
 34  20  37  1   
 35  21  23  1   
 36  21  38  1   
 37  21  39  1   
 38  22  40  1   
 39  22  41  1   
 40  22  42  1   
 41  23  24  1   
 42  23  25  1   
 43  23  43  1   
 44  24  26  1   
 45  25  27  1   
 46  25  44  1   
 47  25  45  1   
 48  26  27  1   
 49  26  46  1   
 50  26  47  1   
 51  27  48  1   
 52  27  49  1   
@<TRIPOS>SUBSTRUCTURE
  1 ****  12 GROUP 4 **** **** 0

# MOE 2024.06 (io_trps.svl 2023.06)
