@<TRIPOS>MOLECULE
N-(4-Chloro-phenyl)-3,4-dimethoxy-N-(2-oxo-2-pyrrolidin-1-yl-ethyl)-benzenesulfo
52 54 1 0 0 
SMALL
USER_CHARGES


@<TRIPOS>ATOM
  1 CL       2.8570     0.0720    -3.2730 Cl    1 <1>  -0.1770 
  2 C        3.5990    -1.0390    -2.1490 C.ar  1 <1>   0.1770 
  3 C        4.6440    -1.8380    -2.5750 C.ar  1 <1>  -0.1500 
  4 C        3.1310    -1.1040    -0.8490 C.ar  1 <1>  -0.1500 
  5 C        5.2310    -2.7150    -1.6800 C.ar  1 <1>  -0.1500 
  6 C        3.7250    -1.9840     0.0390 C.ar  1 <1>  -0.1500 
  7 C        4.7800    -2.7950    -0.3640 C.ar  1 <1>   0.1990 
  8 N        5.3600    -3.6660     0.5460 N.am  1 <1>  -0.6930 
  9 S        5.2130    -5.3780     0.3210 S.o2  1 <1>   1.4470 
 10 C        6.5690    -3.2060     1.2970 C.3   1 <1>   0.2570 
 11 O        5.7090    -5.9960     1.5290 O.2   1 <1>  -0.6500 
 12 O        5.7770    -5.6950    -0.9710 O.2   1 <1>  -0.6500 
 13 C        3.4100    -5.5470     0.2670 C.ar  1 <1>  -0.0090 
 14 C        7.8160    -3.0210     0.4230 C.2   1 <1>   0.5690 
 15 C        2.6550    -5.5400     1.4310 C.ar  1 <1>  -0.1500 
 16 C        2.7300    -5.6390    -0.9400 C.ar  1 <1>  -0.1500 
 17 O        8.5320    -3.9790     0.2460 O.2   1 <1>  -0.5700 
 18 N        8.1190    -1.8020    -0.1300 N.am  1 <1>  -0.6600 
 19 C        1.2730    -5.6190     1.4150 C.ar  1 <1>   0.0830 
 20 C        1.3490    -5.7120    -0.9860 C.ar  1 <1>  -0.1500 
 21 C        7.3840    -0.5280     0.0480 C.3   1 <1>   0.1400 
 22 C        9.2490    -1.6330    -1.0690 C.3   1 <1>   0.1400 
 23 O        0.6870    -5.6040     2.6440 O.3   1 <1>  -0.3620 
 24 C        0.5980    -5.6940     0.1860 C.ar  1 <1>   0.0830 
 25 C        8.2250     0.5150    -0.6800 C.3   1 <1>  -0.1600 
 26 C        9.0090    -0.2780    -1.7220 C.3   1 <1>  -0.1600 
 27 C       -0.5130    -6.3020     2.8940 C.3   1 <1>   0.0400 
 28 O       -0.7650    -5.7260     0.1550 O.3   1 <1>  -0.3630 
 29 C       -1.4940    -5.6520    -1.0510 C.3   1 <1>   0.0400 
 30 H        4.9910    -1.7730    -3.5910 H     1 <1>   0.1500 
 31 H        2.3130    -0.4760    -0.5430 H     1 <1>   0.1500 
 32 H        6.0500    -3.3390    -1.9970 H     1 <1>   0.1500 
 33 H        3.3680    -2.0520     1.0520 H     1 <1>   0.1500 
 34 H        6.8100    -3.9130     2.0700 H     1 <1>   0.0800 
 35 H        6.3400    -2.2790     1.7850 H     1 <1>   0.0800 
 36 H        3.1530    -5.4710     2.3830 H     1 <1>   0.1500 
 37 H        3.2910    -5.6460    -1.8610 H     1 <1>   0.1500 
 38 H        0.8830    -5.7800    -1.9500 H     1 <1>   0.1500 
 39 H        7.2790    -0.2810     1.0910 H     1 <1>   0.0800 
 40 H        6.4150    -0.6010    -0.4120 H     1 <1>   0.0800 
 41 H        9.2710    -2.4300    -1.7930 H     1 <1>   0.0800 
 42 H       10.1700    -1.6300    -0.5100 H     1 <1>   0.0800 
 43 H        8.9050     0.9680     0.0200 H     1 <1>   0.0800 
 44 H        7.6160     1.2830    -1.1230 H     1 <1>   0.0800 
 45 H        8.4090    -0.4180    -2.6040 H     1 <1>   0.0800 
 46 H        9.9320     0.2020    -1.9970 H     1 <1>   0.0800 
 47 H       -0.5950    -6.4600     3.9540 H     1 <1>   0.0800 
 48 H       -0.4840    -7.2480     2.3820 H     1 <1>   0.0800 
 49 H       -1.3390    -5.7060     2.5510 H     1 <1>   0.0800 
 50 H       -2.5410    -5.6330    -0.8060 H     1 <1>   0.0800 
 51 H       -1.2750    -6.5190    -1.6470 H     1 <1>   0.0800 
 52 H       -1.2260    -4.7470    -1.5680 H     1 <1>   0.0800 
@<TRIPOS>BOND
  1   1   2  1   
  2   2   3  ar  
  3   2   4  ar  
  4   3   5  ar  
  5   3  30  1   
  6   4   6  ar  
  7   4  31  1   
  8   5   7  ar  
  9   5  32  1   
 10   6   7  ar  
 11   6  33  1   
 12   7   8  1   
 13   8   9  am  
 14   8  10  1   
 15   9  11  2   
 16   9  12  2   
 17   9  13  1   
 18  10  14  1   
 19  10  34  1   
 20  10  35  1   
 21  13  15  ar  
 22  13  16  ar  
 23  14  17  2   
 24  14  18  am  
 25  15  19  ar  
 26  15  36  1   
 27  16  20  ar  
 28  16  37  1   
 29  18  21  1   
 30  18  22  1   
 31  19  23  1   
 32  19  24  ar  
 33  20  24  ar  
 34  20  38  1   
 35  21  25  1   
 36  21  39  1   
 37  21  40  1   
 38  22  26  1   
 39  22  41  1   
 40  22  42  1   
 41  23  27  1   
 42  24  28  1   
 43  25  26  1   
 44  25  43  1   
 45  25  44  1   
 46  26  45  1   
 47  26  46  1   
 48  27  47  1   
 49  27  48  1   
 50  27  49  1   
 51  28  29  1   
 52  29  50  1   
 53  29  51  1   
 54  29  52  1   
@<TRIPOS>SUBSTRUCTURE
  1 ****   7 GROUP 4 **** **** 0

# MOE 2024.06 (io_trps.svl 2023.06)
