@<TRIPOS>MOLECULE
4-Methoxymethyl-6-methyl-1-[2-(4-methyl-piperidin-1-yl)-2-oxo-ethyl]-2-oxo-1,2-d
46 47 1 0 0 
SMALL
USER_CHARGES


@<TRIPOS>ATOM
  1 O        2.9590    -2.0740    -2.6540 O.2   1 <1>  -0.5700 
  2 C        2.2150    -2.1240    -1.6790 C.2   1 <1>   0.6160 
  3 N        2.7560    -2.0000    -0.4020 N.am  1 <1>  -0.4690 
  4 C        0.8060    -2.3050    -1.8320 C.2   1 <1>   0.0790 
  5 C        1.9370    -2.1490     0.7100 C.2   1 <1>  -0.0290 
  6 C        4.2310    -1.6730    -0.2670 C.3   1 <1>   0.2010 
  7 C        0.2960    -2.3460    -3.1660 C.1   1 <1>   0.4920 
  8 C        0.0080    -2.4210    -0.7270 C.2   1 <1>  -0.1380 
  9 C        0.6010    -2.3480     0.5540 C.2   1 <1>  -0.1500 
 10 C        2.5200    -2.0890     2.1160 C.3   1 <1>  -0.1020 
 11 C        4.5320    -0.3480     0.4430 C.2   1 <1>   0.5690 
 12 N       -0.1830    -2.4020    -4.2000 N.1   1 <1>  -0.5570 
 13 C       -1.5030    -2.6040    -0.7950 C.3   1 <1>   0.2580 
 14 O        5.1930    -0.4170     1.4560 O.2   1 <1>  -0.5700 
 15 N        4.0720     0.8620    -0.0230 N.am  1 <1>  -0.6600 
 16 O       -2.0840    -1.3730    -0.5210 O.3   1 <1>  -0.5600 
 17 C        3.4250     1.0860    -1.3420 C.3   1 <1>   0.1400 
 18 C        4.0410     2.0640     0.8510 C.3   1 <1>   0.1400 
 19 C       -3.4700    -1.3570    -0.6350 C.3   1 <1>   0.0400 
 20 C        1.9510     1.4410    -1.1240 C.3   1 <1>  -0.1600 
 21 C        2.5790     2.4540     1.1050 C.3   1 <1>  -0.1600 
 22 C        1.8040     2.6670    -0.2070 C.3   1 <1>  -0.0800 
 23 C        0.3240     2.9450     0.0790 C.3   1 <1>  -0.2400 
 24 H        4.7160    -1.6420    -1.2230 H     1 <1>   0.0800 
 25 H        4.7010    -2.4640     0.2860 H     1 <1>   0.0800 
 26 H       -0.0470    -2.4450     1.4090 H     1 <1>   0.1500 
 27 H        2.7870    -1.0790     2.3660 H     1 <1>   0.0800 
 28 H        3.3880    -2.7170     2.2000 H     1 <1>   0.0800 
 29 H        1.8010    -2.4250     2.8400 H     1 <1>   0.0800 
 30 H       -1.8330    -3.3140    -0.0560 H     1 <1>   0.0800 
 31 H       -1.8280    -2.9300    -1.7690 H     1 <1>   0.0800 
 32 H        3.5200     0.2260    -1.9750 H     1 <1>   0.0800 
 33 H        3.9220     1.9030    -1.8380 H     1 <1>   0.0800 
 34 H        4.5610     2.8700     0.3640 H     1 <1>   0.0800 
 35 H        4.5310     1.8680     1.7900 H     1 <1>   0.0800 
 36 H       -3.8150    -0.3670    -0.3910 H     1 <1>   0.0800 
 37 H       -3.8950    -2.0680     0.0540 H     1 <1>   0.0800 
 38 H       -3.7480    -1.5960    -1.6480 H     1 <1>   0.0800 
 39 H        1.4490     0.5970    -0.6860 H     1 <1>   0.0800 
 40 H        1.4920     1.6400    -2.0750 H     1 <1>   0.0800 
 41 H        2.5530     3.3530     1.6930 H     1 <1>   0.0800 
 42 H        2.1150     1.6720     1.6820 H     1 <1>   0.0800 
 43 H        2.2200     3.5230    -0.7120 H     1 <1>   0.0800 
 44 H       -0.1290     2.1060     0.5780 H     1 <1>   0.0800 
 45 H       -0.2070     3.1230    -0.8390 H     1 <1>   0.0800 
 46 H        0.2210     3.8140     0.7040 H     1 <1>   0.0800 
@<TRIPOS>BOND
  1   1   2  2   
  2   2   3  am  
  3   2   4  1   
  4   3   5  1   
  5   3   6  1   
  6   4   7  1   
  7   4   8  2   
  8   5   9  2   
  9   5  10  1   
 10   6  11  1   
 11   6  24  1   
 12   6  25  1   
 13   7  12  3   
 14   8   9  1   
 15   8  13  1   
 16   9  26  1   
 17  10  27  1   
 18  10  28  1   
 19  10  29  1   
 20  11  14  2   
 21  11  15  am  
 22  13  16  1   
 23  13  30  1   
 24  13  31  1   
 25  15  17  1   
 26  15  18  1   
 27  16  19  1   
 28  17  20  1   
 29  17  32  1   
 30  17  33  1   
 31  18  21  1   
 32  18  34  1   
 33  18  35  1   
 34  19  36  1   
 35  19  37  1   
 36  19  38  1   
 37  20  22  1   
 38  20  39  1   
 39  20  40  1   
 40  21  22  1   
 41  21  41  1   
 42  21  42  1   
 43  22  23  1   
 44  22  43  1   
 45  23  44  1   
 46  23  45  1   
 47  23  46  1   
@<TRIPOS>SUBSTRUCTURE
  1 ****   3 GROUP 4 **** **** 0

# MOE 2024.06 (io_trps.svl 2023.06)
