@<TRIPOS>MOLECULE
N-(4-Chloro-phenyl)-N-(1-methyl-2-morpholin-4-yl-2-oxo-ethyl)-methanesulfonamide
41 42 1 0 0 
SMALL
USER_CHARGES


@<TRIPOS>ATOM
  1 CL       0.6660    -0.4130     2.7410 Cl    1 <1>  -0.1770 
  2 C        2.0240    -1.1430     1.9190 C.ar  1 <1>   0.1770 
  3 C        3.3060    -0.9090     2.3820 C.ar  1 <1>  -0.1500 
  4 C        1.7970    -1.9470     0.8180 C.ar  1 <1>  -0.1500 
  5 C        4.3770    -1.4930     1.7290 C.ar  1 <1>  -0.1500 
  6 C        2.8760    -2.5260     0.1720 C.ar  1 <1>  -0.1500 
  7 C        4.1760    -2.3080     0.6180 C.ar  1 <1>   0.1990 
  8 N        5.2380    -2.9210    -0.0420 N.am  1 <1>  -0.6930 
  9 S        6.1450    -4.1430     0.7770 S.o2  1 <1>   1.3330 
 10 C        6.0450    -2.1260    -1.0270 C.3   1 <1>   0.3370 
 11 O        6.7860    -3.5370     1.9160 O.2   1 <1>  -0.6500 
 12 O        6.9330    -4.8140    -0.2290 O.2   1 <1>  -0.6500 
 13 C        4.8790    -5.2680     1.3250 C.3   1 <1>  -0.1350 
 14 C        7.0750    -1.1730    -0.3580 C.2   1 <1>   0.5690 
 15 C        5.1100    -1.3830    -1.9960 C.3   1 <1>  -0.2400 
 16 O        6.6550    -0.1240     0.0850 O.2   1 <1>  -0.5700 
 17 N        8.4190    -1.4700    -0.2610 N.am  1 <1>  -0.6600 
 18 C        9.1490    -2.6300    -0.8680 C.3   1 <1>   0.1400 
 19 C        9.3160    -0.6520     0.6140 C.3   1 <1>   0.1400 
 20 C        9.9180    -3.4170     0.2080 C.3   1 <1>   0.1200 
 21 C       10.0610    -1.5530     1.6120 C.3   1 <1>   0.1200 
 22 O       10.7550    -2.5620     0.9340 O.3   1 <1>  -0.5600 
 23 H        3.4610    -0.2770     3.2380 H     1 <1>   0.1500 
 24 H        0.7910    -2.1120     0.4760 H     1 <1>   0.1500 
 25 H        5.3790    -1.3120     2.0800 H     1 <1>   0.1500 
 26 H        2.7170    -3.1520    -0.6880 H     1 <1>   0.1500 
 27 H        6.5790    -2.8230    -1.6400 H     1 <1>   0.0800 
 28 H        4.3110    -5.6240     0.4880 H     1 <1>   0.0800 
 29 H        4.2170    -4.7780     2.0120 H     1 <1>   0.0800 
 30 H        5.3250    -6.1080     1.8210 H     1 <1>   0.0800 
 31 H        4.5480    -0.6250    -1.4800 H     1 <1>   0.0800 
 32 H        4.4380    -2.0740    -2.4710 H     1 <1>   0.0800 
 33 H        5.6950    -0.8980    -2.7560 H     1 <1>   0.0800 
 34 H        9.8560    -2.2560    -1.5870 H     1 <1>   0.0800 
 35 H        8.4920    -3.2990    -1.3860 H     1 <1>   0.0800 
 36 H        8.7530     0.0820     1.1640 H     1 <1>   0.0800 
 37 H       10.0310    -0.1300     0.0030 H     1 <1>   0.0800 
 38 H       10.5340    -4.1690    -0.2520 H     1 <1>   0.0800 
 39 H        9.2400    -3.8990     0.8900 H     1 <1>   0.0800 
 40 H        9.3670    -2.0090     2.2980 H     1 <1>   0.0800 
 41 H       10.7770    -0.9790     2.1710 H     1 <1>   0.0800 
@<TRIPOS>BOND
  1   1   2  1   
  2   2   3  ar  
  3   2   4  ar  
  4   3   5  ar  
  5   3  23  1   
  6   4   6  ar  
  7   4  24  1   
  8   5   7  ar  
  9   5  25  1   
 10   6   7  ar  
 11   6  26  1   
 12   7   8  1   
 13   8   9  am  
 14   8  10  1   
 15   9  11  2   
 16   9  12  2   
 17   9  13  1   
 18  10  14  1   
 19  10  15  1   
 20  10  27  1   
 21  13  28  1   
 22  13  29  1   
 23  13  30  1   
 24  14  16  2   
 25  14  17  am  
 26  15  31  1   
 27  15  32  1   
 28  15  33  1   
 29  17  18  1   
 30  17  19  1   
 31  18  20  1   
 32  18  34  1   
 33  18  35  1   
 34  19  21  1   
 35  19  36  1   
 36  19  37  1   
 37  20  22  1   
 38  20  38  1   
 39  20  39  1   
 40  21  22  1   
 41  21  40  1   
 42  21  41  1   
@<TRIPOS>SUBSTRUCTURE
  1 ****   8 GROUP 4 **** **** 0

# MOE 2024.06 (io_trps.svl 2023.06)
