@<TRIPOS>MOLECULE
1-(2,5-Dimethoxy-benzenesulfonyl)-piperidine-4-carboxylic acid (3,4-dimethyl-phe
58 60 1 0 0 
SMALL
USER_CHARGES


@<TRIPOS>ATOM
  1 S       -0.1580    -0.5710    -1.3600 S.o2  1 <1>   1.4470 
  2 O       -0.0070    -1.9150    -1.8790 O.2   1 <1>  -0.6500 
  3 O       -0.4980     0.4720    -2.3050 O.2   1 <1>  -0.6500 
  4 N        1.3470    -0.1490    -0.6950 N.am  1 <1>  -0.8490 
  5 C       -1.2890    -0.6500     0.0570 C.ar  1 <1>  -0.0090 
  6 C        1.3580     1.2290    -0.1930 C.3   1 <1>   0.1960 
  7 C        2.4200    -0.3840    -1.6650 C.3   1 <1>   0.1960 
  8 C       -1.9970     0.4590     0.5150 C.ar  1 <1>   0.0830 
  9 C       -1.4580    -1.8510     0.7390 C.ar  1 <1>  -0.1500 
 10 C        2.6960     1.5520     0.4770 C.3   1 <1>  -0.1600 
 11 C        3.7890    -0.1070    -1.0390 C.3   1 <1>  -0.1600 
 12 O       -1.8510     1.6630    -0.0760 O.3   1 <1>  -0.3620 
 13 C       -2.8470     0.3690     1.6080 C.ar  1 <1>  -0.1500 
 14 C       -2.3120    -1.9540     1.8330 C.ar  1 <1>   0.0830 
 15 C        3.8700     1.3240    -0.4870 C.3   1 <1>  -0.0190 
 16 C       -2.8980     2.0740    -0.9270 C.3   1 <1>   0.0400 
 17 C       -3.0050    -0.8360     2.2620 C.ar  1 <1>  -0.1500 
 18 O       -2.5160    -3.1030     2.5270 O.3   1 <1>  -0.3630 
 19 C        5.2160     1.6020     0.1840 C.2   1 <1>   0.5690 
 20 C       -1.8540    -4.2980     2.1730 C.3   1 <1>   0.0400 
 21 O        5.5590     0.9070     1.1080 O.2   1 <1>  -0.5700 
 22 N        5.9670     2.6330    -0.3140 N.am  1 <1>  -0.5470 
 23 C        7.2150     3.1510     0.0710 C.ar  1 <1>   0.1170 
 24 C        7.8910     3.9750    -0.8200 C.ar  1 <1>  -0.1500 
 25 C        7.8050     2.8970     1.3030 C.ar  1 <1>  -0.1500 
 26 C        9.1210     4.5330    -0.5080 C.ar  1 <1>  -0.1430 
 27 C        9.0320     3.4470     1.6250 C.ar  1 <1>  -0.1500 
 28 C        9.6990     4.2660     0.7280 C.ar  1 <1>  -0.1430 
 29 C        9.8130     5.4260    -1.5290 C.3   1 <1>  -0.0970 
 30 C       11.0480     4.8510     1.1230 C.3   1 <1>  -0.0970 
 31 H        0.5800     1.3550     0.5400 H     1 <1>   0.0800 
 32 H        1.1730     1.9190    -1.0010 H     1 <1>   0.0800 
 33 H        2.2730     0.2440    -2.5300 H     1 <1>   0.0800 
 34 H        2.3970    -1.4110    -1.9910 H     1 <1>   0.0800 
 35 H       -0.9060    -2.7060     0.3950 H     1 <1>   0.1500 
 36 H        2.8090     0.9250     1.3450 H     1 <1>   0.0800 
 37 H        2.6900     2.5740     0.8100 H     1 <1>   0.0800 
 38 H        4.5560    -0.2580    -1.7780 H     1 <1>   0.0800 
 39 H        3.9560    -0.8170    -0.2460 H     1 <1>   0.0800 
 40 H       -3.3750     1.2420     1.9480 H     1 <1>   0.1500 
 41 H        3.7560     2.0030    -1.3130 H     1 <1>   0.0800 
 42 H       -2.6260     3.0190    -1.3620 H     1 <1>   0.0800 
 43 H       -3.8020     2.1770    -0.3530 H     1 <1>   0.0800 
 44 H       -3.0260     1.3400    -1.7040 H     1 <1>   0.0800 
 45 H       -3.6620    -0.9190     3.1100 H     1 <1>   0.1500 
 46 H       -2.1690    -5.0680     2.8530 H     1 <1>   0.0800 
 47 H       -0.7920    -4.1480     2.2570 H     1 <1>   0.0800 
 48 H       -2.1280    -4.5650     1.1670 H     1 <1>   0.0800 
 49 H        5.5700     3.0950    -1.1270 H     1 <1>   0.3700 
 50 H        7.4480     4.1800    -1.7760 H     1 <1>   0.1500 
 51 H        7.3130     2.2710     2.0230 H     1 <1>   0.1500 
 52 H        9.4630     3.2290     2.5860 H     1 <1>   0.1500 
 53 H        9.2240     5.5230    -2.4220 H     1 <1>   0.0800 
 54 H       10.7660     5.0080    -1.7970 H     1 <1>   0.0800 
 55 H        9.9640     6.4070    -1.1160 H     1 <1>   0.0800 
 56 H       11.8060     4.5260     0.4340 H     1 <1>   0.0800 
 57 H       11.3310     4.5340     2.1100 H     1 <1>   0.0800 
 58 H       11.0010     5.9250     1.1140 H     1 <1>   0.0800 
@<TRIPOS>BOND
  1   1   2  2   
  2   1   3  2   
  3   1   4  am  
  4   1   5  1   
  5   4   6  1   
  6   4   7  1   
  7   5   8  ar  
  8   5   9  ar  
  9   6  10  1   
 10   6  31  1   
 11   6  32  1   
 12   7  11  1   
 13   7  33  1   
 14   7  34  1   
 15   8  12  1   
 16   8  13  ar  
 17   9  14  ar  
 18   9  35  1   
 19  10  15  1   
 20  10  36  1   
 21  10  37  1   
 22  11  15  1   
 23  11  38  1   
 24  11  39  1   
 25  12  16  1   
 26  13  17  ar  
 27  13  40  1   
 28  14  17  ar  
 29  14  18  1   
 30  15  19  1   
 31  15  41  1   
 32  16  42  1   
 33  16  43  1   
 34  16  44  1   
 35  17  45  1   
 36  18  20  1   
 37  19  21  2   
 38  19  22  am  
 39  20  46  1   
 40  20  47  1   
 41  20  48  1   
 42  22  23  1   
 43  22  49  1   
 44  23  24  ar  
 45  23  25  ar  
 46  24  26  ar  
 47  24  50  1   
 48  25  27  ar  
 49  25  51  1   
 50  26  28  ar  
 51  26  29  1   
 52  27  28  ar  
 53  27  52  1   
 54  28  30  1   
 55  29  53  1   
 56  29  54  1   
 57  29  55  1   
 58  30  56  1   
 59  30  57  1   
 60  30  58  1   
@<TRIPOS>SUBSTRUCTURE
  1 ****  10 GROUP 4 **** **** 0

# MOE 2024.06 (io_trps.svl 2023.06)
