@<TRIPOS>MOLECULE
8-(3-Methoxy-propyl)-1,3,7-trimethyl-1H,8H-imidazo[2,1-f]purine-2,4-dione
42 44 1 0 0 
SMALL
USER_CHARGES


@<TRIPOS>ATOM
  1 O        1.4790    -0.4850    -0.6030 O.2   1 <1>  -0.5750 
  2 C        2.3360     0.3420    -0.3690 C.2   1 <1>   0.6860 
  3 N        1.9750     1.6510    -0.0570 N.am  1 <1>  -0.4270 
  4 N        3.6770    -0.0170    -0.4210 N.am  1 <1>  -0.4430 
  5 C        2.9360     2.6340     0.1500 C.2   1 <1>   0.6990 
  6 C        0.5230     2.0050     0.0150 C.3   1 <1>   0.0510 
  7 C        4.6230     0.9650    -0.2170 C.2   1 <1>   0.4190 
  8 C        4.0870    -1.4210    -0.7200 C.3   1 <1>   0.0510 
  9 O        2.6170     3.7860     0.3950 O.2   1 <1>  -0.5750 
 10 C        4.3060     2.2520     0.0650 C.2   1 <1>   0.2690 
 11 N        5.9780     0.8390    -0.2530 N.pl3 1 <1>  -0.7040 
 12 N        5.5260     2.9340     0.2160 N.pl3 1 <1>  -0.6340 
 13 C        6.4850     2.0390     0.0170 C.cat 1 <1>   1.0690 
 14 C        6.1510     4.1300     0.5050 C.2   1 <1>   0.2210 
 15 N        7.7030     2.5760     0.1560 N.pl3 1 <1>  -0.5730 
 16 C        7.4850     3.9110     0.4680 C.2   1 <1>   0.1560 
 17 C        9.0020     1.8750    -0.0260 C.3   1 <1>   0.1590 
 18 C        8.6170     4.8910     0.7120 C.3   1 <1>  -0.1110 
 19 C        9.1850     0.7580     1.0130 C.3   1 <1>  -0.1690 
 20 C        9.2440    -0.6410     0.3890 C.3   1 <1>   0.1110 
 21 O        8.0790    -0.8750    -0.3390 O.3   1 <1>  -0.5660 
 22 C        8.0830    -2.1150    -0.9780 C.3   1 <1>   0.0300 
 23 H        0.1530     2.2060    -0.9750 H     1 <1>   0.0710 
 24 H        0.3680     2.8740     0.6310 H     1 <1>   0.0710 
 25 H       -0.0390     1.1890     0.4370 H     1 <1>   0.0710 
 26 H        3.2970    -2.1080    -0.4680 H     1 <1>   0.0710 
 27 H        4.9570    -1.6860    -0.1460 H     1 <1>   0.0710 
 28 H        4.3070    -1.5170    -1.7690 H     1 <1>   0.0710 
 29 H        6.5850     0.0130    -0.3700 H     1 <1>   0.4440 
 30 H        5.6000     5.0350     0.7130 H     1 <1>   0.1410 
 31 H        9.8090     2.5810     0.0720 H     1 <1>   0.0710 
 32 H        9.0500     1.4720    -1.0250 H     1 <1>   0.0710 
 33 H        9.2320     4.9760    -0.1660 H     1 <1>   0.0710 
 34 H        9.2250     4.5570     1.5340 H     1 <1>   0.0710 
 35 H        8.2260     5.8640     0.9500 H     1 <1>   0.0710 
 36 H        8.4200     0.7860     1.7690 H     1 <1>   0.0710 
 37 H       10.1220     0.9200     1.5150 H     1 <1>   0.0710 
 38 H        9.3290    -1.3910     1.1580 H     1 <1>   0.0710 
 39 H       10.0880    -0.7160    -0.2770 H     1 <1>   0.0710 
 40 H        7.1640    -2.2220    -1.5270 H     1 <1>   0.0710 
 41 H        8.1580    -2.8970    -0.2410 H     1 <1>   0.0710 
 42 H        8.9150    -2.1640    -1.6600 H     1 <1>   0.0710 
@<TRIPOS>BOND
  1   1   2  2   
  2   2   3  am  
  3   2   4  am  
  4   3   5  am  
  5   3   6  1   
  6   4   7  1   
  7   4   8  1   
  8   5   9  2   
  9   5  10  1   
 10   6  23  1   
 11   6  24  1   
 12   6  25  1   
 13   7  10  2   
 14   7  11  1   
 15   8  26  1   
 16   8  27  1   
 17   8  28  1   
 18  10  12  1   
 19  11  13  ar  
 20  11  29  1   
 21  12  13  ar  
 22  12  14  1   
 23  13  15  ar  
 24  14  16  2   
 25  14  30  1   
 26  15  16  1   
 27  15  17  1   
 28  16  18  1   
 29  17  19  1   
 30  17  31  1   
 31  17  32  1   
 32  18  33  1   
 33  18  34  1   
 34  18  35  1   
 35  19  20  1   
 36  19  36  1   
 37  19  37  1   
 38  20  21  1   
 39  20  38  1   
 40  20  39  1   
 41  21  22  1   
 42  22  40  1   
 43  22  41  1   
 44  22  42  1   
@<TRIPOS>SUBSTRUCTURE
  1 ****  11 GROUP 4 **** **** 0

# MOE 2024.06 (io_trps.svl 2023.06)
