@<TRIPOS>MOLECULE
8-(2-Methoxy-phenyl)-1,7-dimethyl-3-(1-methyl-2-oxo-propyl)-1H,8H-imidazo[2,1-f]
51 54 1 0 0 
SMALL
USER_CHARGES


@<TRIPOS>ATOM
  1 O        0.5370     0.4620    -0.6550 O.2   1 <1>  -0.5750 
  2 C        1.5760     1.0900    -0.6640 C.2   1 <1>   0.6860 
  3 N        1.5580     2.4840    -0.6090 N.am  1 <1>  -0.4260 
  4 N        2.7840     0.4060    -0.7300 N.am  1 <1>  -0.4410 
  5 C        2.7370     3.2110    -0.6680 C.2   1 <1>   0.6990 
  6 C        0.3240     3.1770    -0.1030 C.3   1 <1>   0.2750 
  7 C        3.9510     1.1390    -0.7020 C.2   1 <1>   0.4210 
  8 C        2.8070    -1.0870    -0.7570 C.3   1 <1>   0.0520 
  9 O        2.7240     4.4300    -0.7200 O.2   1 <1>  -0.5750 
 10 C        3.9680     2.4930    -0.6780 C.2   1 <1>   0.2710 
 11 C       -0.0520     2.6210     1.2820 C.2   1 <1>   0.4430 
 12 C       -0.7760     3.1690    -1.1810 C.3   1 <1>  -0.2470 
 13 N        5.2330     0.6730    -0.6820 N.pl3 1 <1>  -0.7040 
 14 N        5.3180     2.8700    -0.6460 N.pl3 1 <1>  -0.6330 
 15 O        0.8010     2.4370     2.1020 O.2   1 <1>  -0.5750 
 16 C       -1.5010     2.3140     1.6040 C.3   1 <1>  -0.1860 
 17 C        6.0250     1.7480    -0.6350 C.cat 1 <1>   1.0690 
 18 C        6.2180     3.9090    -0.5240 C.2   1 <1>   0.2220 
 19 N        7.3420     1.9830    -0.5580 N.pl3 1 <1>  -0.5550 
 20 C        7.4550     3.3670    -0.4650 C.2   1 <1>   0.1580 
 21 C        8.3460     0.9900    -0.4680 C.ar  1 <1>   0.3050 
 22 C        8.7920     4.0650    -0.3000 C.3   1 <1>  -0.1090 
 23 C        8.3010    -0.0050     0.5180 C.ar  1 <1>   0.0750 
 24 C        9.3880     0.9870    -1.3850 C.ar  1 <1>  -0.1570 
 25 O        7.2490    -0.0020     1.3890 O.3   1 <1>  -0.3680 
 26 C        9.3080    -0.9640     0.5780 C.ar  1 <1>  -0.1570 
 27 C       10.3830     0.0300    -1.3220 C.ar  1 <1>  -0.1570 
 28 C        7.3050    -0.7280     2.6010 C.3   1 <1>   0.0320 
 29 C       10.3430    -0.9420    -0.3400 C.ar  1 <1>  -0.1570 
 30 H        0.5500     4.2140     0.0730 H     1 <1>   0.0720 
 31 H        1.9320    -1.4650    -1.2580 H     1 <1>   0.0720 
 32 H        2.8170    -1.4660     0.2500 H     1 <1>   0.0720 
 33 H        3.6730    -1.4440    -1.2850 H     1 <1>   0.0720 
 34 H       -1.1520     2.1780    -1.3600 H     1 <1>   0.0720 
 35 H       -0.3910     3.5710    -2.1010 H     1 <1>   0.0720 
 36 H       -1.5980     3.7880    -0.8700 H     1 <1>   0.0720 
 37 H        5.5790    -0.2760    -0.5480 H     1 <1>   0.4450 
 38 H       -1.8640     1.5370     0.9560 H     1 <1>   0.0720 
 39 H       -2.1050     3.1940     1.4890 H     1 <1>   0.0720 
 40 H       -1.5810     1.9720     2.6210 H     1 <1>   0.0720 
 41 H        5.9070     4.9420    -0.4780 H     1 <1>   0.1430 
 42 H        9.3120     3.6710     0.5550 H     1 <1>   0.0720 
 43 H        8.6480     5.1210    -0.1540 H     1 <1>   0.0720 
 44 H        9.4020     3.9240    -1.1740 H     1 <1>   0.0720 
 45 H        9.4260     1.7330    -2.1580 H     1 <1>   0.1430 
 46 H        9.3080    -1.7390     1.3230 H     1 <1>   0.1430 
 47 H       11.1910     0.0370    -2.0360 H     1 <1>   0.1430 
 48 H        6.4420    -0.4720     3.1890 H     1 <1>   0.0720 
 49 H        8.2000    -0.4550     3.1340 H     1 <1>   0.0720 
 50 H        7.2970    -1.7820     2.3840 H     1 <1>   0.0720 
 51 H       11.1210    -1.6870    -0.2910 H     1 <1>   0.1430 
@<TRIPOS>BOND
  1   1   2  2   
  2   2   3  am  
  3   2   4  am  
  4   3   5  am  
  5   3   6  1   
  6   4   7  1   
  7   4   8  1   
  8   5   9  2   
  9   5  10  1   
 10   6  11  1   
 11   6  12  1   
 12   6  30  1   
 13   7  10  2   
 14   7  13  1   
 15   8  31  1   
 16   8  32  1   
 17   8  33  1   
 18  10  14  1   
 19  11  15  2   
 20  11  16  1   
 21  12  34  1   
 22  12  35  1   
 23  12  36  1   
 24  13  17  ar  
 25  13  37  1   
 26  14  17  ar  
 27  14  18  1   
 28  16  38  1   
 29  16  39  1   
 30  16  40  1   
 31  17  19  ar  
 32  18  20  2   
 33  18  41  1   
 34  19  20  1   
 35  19  21  1   
 36  20  22  1   
 37  21  23  ar  
 38  21  24  ar  
 39  22  42  1   
 40  22  43  1   
 41  22  44  1   
 42  23  25  1   
 43  23  26  ar  
 44  24  27  ar  
 45  24  45  1   
 46  25  28  1   
 47  26  29  ar  
 48  26  46  1   
 49  27  29  ar  
 50  27  47  1   
 51  28  48  1   
 52  28  49  1   
 53  28  50  1   
 54  29  51  1   
@<TRIPOS>SUBSTRUCTURE
  1 ****   7 GROUP 4 **** **** 0

# MOE 2024.06 (io_trps.svl 2023.06)
