@<TRIPOS>MOLECULE
2,7-Dimethyl-5-(4-morpholin-4-yl-phenyl)-5,6-dihydro-pyrazolo[1,5-c]quinazoline
51 55 1 0 0 
SMALL
USER_CHARGES


@<TRIPOS>ATOM
  1 O        0.7960     0.4400    -0.2000 O.3   1 <1>  -0.5600 
  2 C        0.8980     1.6720    -0.8600 C.3   1 <1>   0.1200 
  3 C        1.9760    -0.3150    -0.2470 C.3   1 <1>   0.1200 
  4 C        2.0060     2.5410    -0.2380 C.3   1 <1>   0.2090 
  5 C        3.1420     0.4440     0.4120 C.3   1 <1>   0.2090 
  6 N        3.3000     1.8010    -0.1890 N.pl3 1 <1>  -0.8380 
  7 C        4.3990     2.5440     0.2230 C.ar  1 <1>   0.1000 
  8 C        4.5720     2.9240     1.5480 C.ar  1 <1>  -0.1500 
  9 C        5.3500     2.9320    -0.7090 C.ar  1 <1>  -0.1500 
 10 C        5.6700     3.6710     1.9330 C.ar  1 <1>  -0.1500 
 11 C        6.4500     3.6800    -0.3300 C.ar  1 <1>  -0.1500 
 12 C        6.6230     4.0550     0.9980 C.ar  1 <1>  -0.1430 
 13 C        7.8410     4.8700     1.4320 C.3   1 <1>   0.6880 
 14 N        7.8020     6.2650     0.8810 N.pl3 1 <1>   0.3140 
 15 N        9.0700     4.1150     1.0200 N.pl3 1 <1>  -0.8690 
 16 N        6.9350     7.2300     1.2790 N.2   1 <1>  -0.7070 
 17 C        8.6750     6.7210    -0.0500 C.2   1 <1>  -0.2050 
 18 C        9.8710     4.5680    -0.0360 C.ar  1 <1>   0.1000 
 19 C        7.2630     8.2680     0.5770 C.2   1 <1>   0.1080 
 20 C        9.7000     5.8570    -0.5770 C.ar  1 <1>   0.0530 
 21 C        8.3330     8.0180    -0.2670 C.2   1 <1>  -0.1500 
 22 C       10.8510     3.7250    -0.5650 C.ar  1 <1>  -0.1430 
 23 C        6.5320     9.5840     0.7000 C.3   1 <1>  -0.0590 
 24 C       10.5210     6.2660    -1.6210 C.ar  1 <1>  -0.1500 
 25 C       11.6510     4.1590    -1.6080 C.ar  1 <1>  -0.1500 
 26 C       11.0640     2.3240    -0.0060 C.3   1 <1>  -0.0970 
 27 C       11.4890     5.4280    -2.1350 C.ar  1 <1>  -0.1500 
 28 H       -0.0520     2.1690    -0.7780 H     1 <1>   0.0800 
 29 H        1.1070     1.4900    -1.8990 H     1 <1>   0.0800 
 30 H        2.2070    -0.5300    -1.2760 H     1 <1>   0.0800 
 31 H        1.7960    -1.2400     0.2690 H     1 <1>   0.0800 
 32 H        1.7150     2.8290     0.7570 H     1 <1>   0.0800 
 33 H        2.1320     3.4360    -0.8230 H     1 <1>   0.0800 
 34 H        4.0540    -0.1100     0.2800 H     1 <1>   0.0800 
 35 H        2.9510     0.5330     1.4670 H     1 <1>   0.0800 
 36 H        3.8360     2.6370     2.2750 H     1 <1>   0.1500 
 37 H        5.2140     2.6420    -1.7340 H     1 <1>   0.1500 
 38 H        5.7740     3.9560     2.9660 H     1 <1>   0.1500 
 39 H        7.1720     3.9730    -1.0740 H     1 <1>   0.1500 
 40 H        7.8420     4.9590     2.5030 H     1 <1>   0.0800 
 41 H        8.8540     3.1170     0.9760 H     1 <1>   0.4000 
 42 H        8.7870     8.7210    -0.9390 H     1 <1>   0.1500 
 43 H        5.4970     9.4420     0.4510 H     1 <1>   0.0800 
 44 H        6.9580    10.3150     0.0380 H     1 <1>   0.0800 
 45 H        6.6030     9.9390     1.7110 H     1 <1>   0.0800 
 46 H       10.3970     7.2490    -2.0360 H     1 <1>   0.1500 
 47 H       12.4090     3.5160    -2.0180 H     1 <1>   0.1500 
 48 H       10.1960     1.7180    -0.1950 H     1 <1>   0.0800 
 49 H       11.2330     2.3750     1.0550 H     1 <1>   0.0800 
 50 H       11.9150     1.8510    -0.4600 H     1 <1>   0.0800 
 51 H       12.1170     5.7580    -2.9440 H     1 <1>   0.1500 
@<TRIPOS>BOND
  1   1   2  1   
  2   1   3  1   
  3   2   4  1   
  4   2  28  1   
  5   2  29  1   
  6   3   5  1   
  7   3  30  1   
  8   3  31  1   
  9   4   6  1   
 10   4  32  1   
 11   4  33  1   
 12   5   6  1   
 13   5  34  1   
 14   5  35  1   
 15   6   7  1   
 16   7   8  ar  
 17   7   9  ar  
 18   8  10  ar  
 19   8  36  1   
 20   9  11  ar  
 21   9  37  1   
 22  10  12  ar  
 23  10  38  1   
 24  11  12  ar  
 25  11  39  1   
 26  12  13  1   
 27  13  14  1   
 28  13  15  1   
 29  13  40  1   
 30  14  16  1   
 31  14  17  1   
 32  15  18  1   
 33  15  41  1   
 34  16  19  2   
 35  17  20  1   
 36  17  21  2   
 37  18  20  ar  
 38  18  22  ar  
 39  19  21  1   
 40  19  23  1   
 41  20  24  ar  
 42  21  42  1   
 43  22  25  ar  
 44  22  26  1   
 45  23  43  1   
 46  23  44  1   
 47  23  45  1   
 48  24  27  ar  
 49  24  46  1   
 50  25  27  ar  
 51  25  47  1   
 52  26  48  1   
 53  26  49  1   
 54  26  50  1   
 55  27  51  1   
@<TRIPOS>SUBSTRUCTURE
  1 ****  11 GROUP 4 **** **** 0

# MOE 2024.06 (io_trps.svl 2023.06)
