@<TRIPOS>MOLECULE
3-(3,4-Dimethoxy-phenyl)-5-ethyl-2-methyl-4H-pyrazolo[1,5-a]pyrimidin-7-one
42 44 1 0 0 
SMALL
USER_CHARGES


@<TRIPOS>ATOM
  1 O       -0.3390     0.4390     0.6880 O.2   1 <1>  -0.5700 
  2 C        0.0850     1.5630     0.4510 C.2   1 <1>   0.5650 
  3 N       -0.7520     2.7100     0.3960 N.pl3 1 <1>   0.5610 
  4 C        1.4760     1.7700     0.2130 C.2   1 <1>  -0.1360 
  5 N       -2.1100     2.8370     0.5760 N.2   1 <1>  -0.7070 
  6 C       -0.2120     3.9400     0.1290 C.2   1 <1>  -0.0680 
  7 C        2.0010     2.9970    -0.0580 C.2   1 <1>  -0.0380 
  8 C       -2.3580     4.0960     0.4250 C.2   1 <1>   0.1080 
  9 N        1.1610     4.0850    -0.1030 N.pl3 1 <1>  -0.5840 
 10 C       -1.2180     4.8560     0.1370 C.2   1 <1>  -0.0540 
 11 C        3.4720     3.2980    -0.3250 C.3   1 <1>  -0.0220 
 12 C       -3.7590     4.6500     0.5660 C.3   1 <1>  -0.0590 
 13 C       -1.1220     6.2750    -0.0920 C.ar  1 <1>   0.0540 
 14 C        4.3960     2.0760    -0.2660 C.3   1 <1>  -0.2400 
 15 C       -0.2690     7.0610     0.6760 C.ar  1 <1>  -0.1500 
 16 C       -1.8650     6.8970    -1.0930 C.ar  1 <1>  -0.1500 
 17 C       -0.1530     8.4220     0.4610 C.ar  1 <1>   0.0820 
 18 C       -1.7750     8.2610    -1.3060 C.ar  1 <1>  -0.1500 
 19 O        0.7330     9.0990     1.2340 O.3   1 <1>  -0.3630 
 20 C       -0.9360     9.0350    -0.5240 C.ar  1 <1>   0.0820 
 21 C        1.8020     9.7390     0.5700 C.3   1 <1>   0.0400 
 22 O       -0.9210    10.3710    -0.7550 O.3   1 <1>  -0.3630 
 23 C       -1.4560    11.1810     0.2690 C.3   1 <1>   0.0400 
 24 H        2.0770     0.8830     0.2630 H     1 <1>   0.1500 
 25 H        1.5210     5.0240    -0.3260 H     1 <1>   0.4000 
 26 H        3.8110     4.0200     0.3990 H     1 <1>   0.0800 
 27 H        3.5590     3.7480    -1.2990 H     1 <1>   0.0800 
 28 H       -4.3380     4.0120     1.2080 H     1 <1>   0.0800 
 29 H       -4.2310     4.6910    -0.3980 H     1 <1>   0.0800 
 30 H       -3.7300     5.6360     0.9920 H     1 <1>   0.0800 
 31 H        4.3600     1.6240     0.7090 H     1 <1>   0.0800 
 32 H        5.4100     2.3750    -0.4640 H     1 <1>   0.0800 
 33 H        4.1060     1.3490    -1.0050 H     1 <1>   0.0800 
 34 H        0.3150     6.6030     1.4540 H     1 <1>   0.1500 
 35 H       -2.5170     6.3030    -1.7090 H     1 <1>   0.1500 
 36 H       -2.3570     8.7330    -2.0770 H     1 <1>   0.1500 
 37 H        2.5020    10.0780     1.3110 H     1 <1>   0.0800 
 38 H        1.4270    10.5780     0.0120 H     1 <1>   0.0800 
 39 H        2.2750     9.0330    -0.0900 H     1 <1>   0.0800 
 40 H       -1.4410    12.2020    -0.0680 H     1 <1>   0.0800 
 41 H       -0.8570    11.0790     1.1560 H     1 <1>   0.0800 
 42 H       -2.4670    10.8710     0.4640 H     1 <1>   0.0800 
@<TRIPOS>BOND
  1   1   2  2   
  2   2   3  1   
  3   2   4  1   
  4   3   5  1   
  5   3   6  1   
  6   4   7  2   
  7   4  24  1   
  8   5   8  2   
  9   6   9  1   
 10   6  10  2   
 11   7   9  1   
 12   7  11  1   
 13   8  10  1   
 14   8  12  1   
 15   9  25  1   
 16  10  13  1   
 17  11  14  1   
 18  11  26  1   
 19  11  27  1   
 20  12  28  1   
 21  12  29  1   
 22  12  30  1   
 23  13  15  ar  
 24  13  16  ar  
 25  14  31  1   
 26  14  32  1   
 27  14  33  1   
 28  15  17  ar  
 29  15  34  1   
 30  16  18  ar  
 31  16  35  1   
 32  17  19  1   
 33  17  20  ar  
 34  18  20  ar  
 35  18  36  1   
 36  19  21  1   
 37  20  22  1   
 38  21  37  1   
 39  21  38  1   
 40  21  39  1   
 41  22  23  1   
 42  23  40  1   
 43  23  41  1   
 44  23  42  1   
@<TRIPOS>SUBSTRUCTURE
  1 ****  10 GROUP 4 **** **** 0

# MOE 2024.06 (io_trps.svl 2023.06)
