@<TRIPOS>MOLECULE
8-(3,4-Dihydro-1H-isoquinolin-2-yl)-3-methyl-7-[3-(pyrimidin-2-ylsulfanyl)-propy
56 60 1 0 0 
SMALL
USER_CHARGES


@<TRIPOS>ATOM
  1 S       -1.6790     1.4330    -1.7230 S.3   1 <1>  -0.3370 
  2 C       -0.9690     2.7080    -0.6890 C.ar  1 <1>   0.7180 
  3 C       -2.5360     0.2700    -0.5740 C.3   1 <1>   0.0630 
  4 N       -0.3230     3.6540    -1.3480 N.ar  1 <1>  -0.6240 
  5 N       -1.1570     2.5710     0.6170 N.ar  1 <1>  -0.6240 
  6 C       -1.4840    -0.6900    -0.0110 C.3   1 <1>  -0.1670 
  7 C        0.1940     4.5930    -0.5880 C.ar  1 <1>   0.1530 
  8 C       -0.6270     3.5310     1.3430 C.ar  1 <1>   0.1530 
  9 C       -2.0620    -1.7600     0.9210 C.3   1 <1>   0.3490 
 10 C        0.0670     4.5760     0.7810 C.ar  1 <1>  -0.1570 
 11 N       -2.9190    -2.7340     0.1830 N.pl3 1 <1>  -0.7670 
 12 C       -2.6170    -3.9370    -0.3420 C.cat 1 <1>   1.0690 
 13 C       -4.3270    -2.6140     0.1620 C.2   1 <1>   0.2710 
 14 N       -3.7490    -4.5490    -0.7040 N.pl3 1 <1>  -0.7030 
 15 N       -1.4100    -4.5200    -0.5090 N.pl3 1 <1>  -0.5960 
 16 C       -5.2850    -1.6420     0.6090 C.2   1 <1>   0.7000 
 17 C       -4.8000    -3.7450    -0.4060 C.2   1 <1>   0.4210 
 18 C       -1.2820    -6.0150    -0.4840 C.3   1 <1>   0.3050 
 19 C       -0.1290    -3.7530    -0.7290 C.3   1 <1>   0.1610 
 20 O       -4.9880    -0.6060     1.1700 O.2   1 <1>  -0.5740 
 21 N       -6.6060    -1.9160     0.4010 N.am  1 <1>  -0.4950 
 22 N       -6.1460    -4.0090    -0.6160 N.am  1 <1>  -0.4410 
 23 C       -0.0370    -6.4240     0.2790 C.ar  1 <1>  -0.1500 
 24 C        1.0930    -4.6380    -1.0140 C.3   1 <1>  -0.0240 
 25 C       -7.0620    -3.0600    -0.1850 C.2   1 <1>   0.6870 
 26 C       -6.6030    -5.2730    -1.2660 C.3   1 <1>   0.0530 
 27 C        1.1430    -5.7550     0.0090 C.ar  1 <1>  -0.1500 
 28 C       -0.0540    -7.4420     1.2210 C.ar  1 <1>  -0.1570 
 29 O       -8.2540    -3.2120    -0.3050 O.2   1 <1>  -0.5740 
 30 C        2.3090    -6.1010     0.6710 C.ar  1 <1>  -0.1570 
 31 C        1.1110    -7.7860     1.8850 C.ar  1 <1>  -0.1570 
 32 C        2.2900    -7.1170     1.6100 C.ar  1 <1>  -0.1570 
 33 H       -3.2740    -0.2430    -1.1620 H     1 <1>   0.0730 
 34 H       -3.0180     0.8530     0.1910 H     1 <1>   0.0730 
 35 H       -0.7730    -0.1150     0.5540 H     1 <1>   0.0730 
 36 H       -0.9540    -1.1410    -0.8260 H     1 <1>   0.0730 
 37 H        0.7300     5.3920    -1.0710 H     1 <1>   0.1430 
 38 H       -0.7500     3.4820     2.4120 H     1 <1>   0.1430 
 39 H       -2.6340    -1.2790     1.6970 H     1 <1>   0.0730 
 40 H       -1.2630    -2.2840     1.4160 H     1 <1>   0.0730 
 41 H        0.4940     5.3520     1.3880 H     1 <1>   0.1430 
 42 H       -3.8010    -5.4500    -1.1680 H     1 <1>   0.4450 
 43 H       -1.2070    -6.3860    -1.4930 H     1 <1>   0.0730 
 44 H       -2.1400    -6.4650    -0.0150 H     1 <1>   0.0730 
 45 H        0.1020    -3.1900     0.1560 H     1 <1>   0.0730 
 46 H       -0.2560    -3.0720    -1.5520 H     1 <1>   0.0730 
 47 H       -7.3010    -1.2390     0.7100 H     1 <1>   0.3650 
 48 H        1.9870    -4.0420    -0.9640 H     1 <1>   0.0730 
 49 H        1.0300    -5.0530    -2.0050 H     1 <1>   0.0730 
 50 H       -6.0510    -5.4420    -2.1730 H     1 <1>   0.0730 
 51 H       -7.6490    -5.2180    -1.5170 H     1 <1>   0.0730 
 52 H       -6.4580    -6.1010    -0.5940 H     1 <1>   0.0730 
 53 H       -0.9600    -7.9770     1.4450 H     1 <1>   0.1430 
 54 H        3.2320    -5.5880     0.4640 H     1 <1>   0.1430 
 55 H        1.1020    -8.5760     2.6160 H     1 <1>   0.1430 
 56 H        3.1950    -7.3880     2.1270 H     1 <1>   0.1430 
@<TRIPOS>BOND
  1   1   2  1   
  2   1   3  1   
  3   2   4  ar  
  4   2   5  ar  
  5   3   6  1   
  6   3  33  1   
  7   3  34  1   
  8   4   7  ar  
  9   5   8  ar  
 10   6   9  1   
 11   6  35  1   
 12   6  36  1   
 13   7  10  ar  
 14   7  37  1   
 15   8  10  ar  
 16   8  38  1   
 17   9  11  1   
 18   9  39  1   
 19   9  40  1   
 20  10  41  1   
 21  11  12  ar  
 22  11  13  1   
 23  12  14  ar  
 24  12  15  ar  
 25  13  16  1   
 26  13  17  2   
 27  14  17  1   
 28  14  42  1   
 29  15  18  1   
 30  15  19  1   
 31  16  20  2   
 32  16  21  am  
 33  17  22  1   
 34  18  23  1   
 35  18  43  1   
 36  18  44  1   
 37  19  24  1   
 38  19  45  1   
 39  19  46  1   
 40  21  25  am  
 41  21  47  1   
 42  22  25  am  
 43  22  26  1   
 44  23  27  ar  
 45  23  28  ar  
 46  24  27  1   
 47  24  48  1   
 48  24  49  1   
 49  25  29  2   
 50  26  50  1   
 51  26  51  1   
 52  26  52  1   
 53  27  30  ar  
 54  28  31  ar  
 55  28  53  1   
 56  30  32  ar  
 57  30  54  1   
 58  31  32  ar  
 59  31  55  1   
 60  32  56  1   
@<TRIPOS>SUBSTRUCTURE
  1 ****  11 GROUP 4 **** **** 0

# MOE 2024.06 (io_trps.svl 2023.06)
