@<TRIPOS>MOLECULE
N-(4-Fluoro-phenyl)-2-[4-(piperidine-1-carbonyl)-piperazin-1-yl]-acetamide
50 52 1 0 0 
SMALL
USER_CHARGES


@<TRIPOS>ATOM
  1 F        0.7640     0.2900    -0.3640 F     1 <1>  -0.1900 
  2 C        1.1980     1.5160    -0.2350 C.ar  1 <1>   0.1900 
  3 C        0.3490     2.5620    -0.5400 C.ar  1 <1>  -0.1500 
  4 C        2.4920     1.7230     0.2020 C.ar  1 <1>  -0.1500 
  5 C        0.8160     3.8570    -0.4010 C.ar  1 <1>  -0.1500 
  6 C        2.9440     3.0250     0.3350 C.ar  1 <1>  -0.1500 
  7 C        2.1180     4.1060     0.0350 C.ar  1 <1>   0.1170 
  8 N        2.6370     5.3990     0.1920 N.am  1 <1>  -0.5470 
  9 C        2.2000     6.6380    -0.1820 C.2   1 <1>   0.5690 
 10 O        1.1720     6.8540    -0.7770 O.2   1 <1>  -0.5700 
 11 C        3.1070     7.8130     0.1910 C.3   1 <1>   0.1710 
 12 N        4.5320     7.4210     0.4180 N.3   1 <1>  -0.8100 
 13 C        5.2570     8.4760     1.1590 C.3   1 <1>   0.1100 
 14 C        5.2170     7.1510    -0.8720 C.3   1 <1>   0.1100 
 15 C        6.7210     8.0810     1.4220 C.3   1 <1>   0.1400 
 16 C        6.6830     6.7300    -0.6680 C.3   1 <1>   0.1400 
 17 N        7.4110     7.7400     0.1470 N.am  1 <1>  -0.6600 
 18 C        8.7540     7.9440    -0.0340 C.2   1 <1>   0.6900 
 19 O        9.4190     7.0810    -0.5820 O.2   1 <1>  -0.5700 
 20 N        9.3530     9.1030     0.3940 N.am  1 <1>  -0.6600 
 21 C        8.7020    10.4300     0.2270 C.3   1 <1>   0.1400 
 22 C       10.8200     9.1530     0.6350 C.3   1 <1>   0.1400 
 23 C        9.3850    11.2120    -0.9000 C.3   1 <1>  -0.1600 
 24 C       11.5110     9.9240    -0.4950 C.3   1 <1>  -0.1600 
 25 C       10.9010    11.3190    -0.6830 C.3   1 <1>  -0.1600 
 26 H       -0.6530     2.3640    -0.8770 H     1 <1>   0.1500 
 27 H        3.1240     0.8840     0.4310 H     1 <1>   0.1500 
 28 H        0.1580     4.6750    -0.6340 H     1 <1>   0.1500 
 29 H        3.9490     3.2020     0.6750 H     1 <1>   0.1500 
 30 H        3.5660     5.4640     0.6210 H     1 <1>   0.3700 
 31 H        2.7070     8.2390     1.0940 H     1 <1>   0.0800 
 32 H        3.0460     8.5610    -0.5800 H     1 <1>   0.0800 
 33 H        4.7720     8.6460     2.1050 H     1 <1>   0.0800 
 34 H        5.2380     9.3970     0.6010 H     1 <1>   0.0800 
 35 H        5.1970     8.0330    -1.4900 H     1 <1>   0.0800 
 36 H        4.7070     6.3660    -1.4030 H     1 <1>   0.0800 
 37 H        6.7420     7.2210     2.0690 H     1 <1>   0.0800 
 38 H        7.2310     8.8820     1.9240 H     1 <1>   0.0800 
 39 H        7.1620     6.6250    -1.6260 H     1 <1>   0.0800 
 40 H        6.7220     5.7790    -0.1690 H     1 <1>   0.0800 
 41 H        8.7790    10.9750     1.1520 H     1 <1>   0.0800 
 42 H        7.6600    10.3090    -0.0120 H     1 <1>   0.0800 
 43 H       11.2220     8.1560     0.6960 H     1 <1>   0.0800 
 44 H       11.0010     9.6420     1.5760 H     1 <1>   0.0800 
 45 H        8.9580    12.1960    -0.9610 H     1 <1>   0.0800 
 46 H        9.1900    10.7100    -1.8330 H     1 <1>   0.0800 
 47 H       11.4130     9.3560    -1.4040 H     1 <1>   0.0800 
 48 H       12.5600    10.0110    -0.2750 H     1 <1>   0.0800 
 49 H       11.0970    11.9160     0.1910 H     1 <1>   0.0800 
 50 H       11.3560    11.8040    -1.5290 H     1 <1>   0.0800 
@<TRIPOS>BOND
  1   1   2  1   
  2   2   3  ar  
  3   2   4  ar  
  4   3   5  ar  
  5   3  26  1   
  6   4   6  ar  
  7   4  27  1   
  8   5   7  ar  
  9   5  28  1   
 10   6   7  ar  
 11   6  29  1   
 12   7   8  1   
 13   8   9  am  
 14   8  30  1   
 15   9  10  2   
 16   9  11  1   
 17  11  12  1   
 18  11  31  1   
 19  11  32  1   
 20  12  13  1   
 21  12  14  1   
 22  13  15  1   
 23  13  33  1   
 24  13  34  1   
 25  14  16  1   
 26  14  35  1   
 27  14  36  1   
 28  15  17  1   
 29  15  37  1   
 30  15  38  1   
 31  16  17  1   
 32  16  39  1   
 33  16  40  1   
 34  17  18  am  
 35  18  19  2   
 36  18  20  am  
 37  20  21  1   
 38  20  22  1   
 39  21  23  1   
 40  21  41  1   
 41  21  42  1   
 42  22  24  1   
 43  22  43  1   
 44  22  44  1   
 45  23  25  1   
 46  23  45  1   
 47  23  46  1   
 48  24  25  1   
 49  24  47  1   
 50  24  48  1   
 51  25  49  1   
 52  25  50  1   
@<TRIPOS>SUBSTRUCTURE
  1 ****  14 GROUP 4 **** **** 0

# MOE 2024.06 (io_trps.svl 2023.06)
