@<TRIPOS>MOLECULE
N-[1-(3-p-Tolyl-[1,2,4]oxadiazol-5-yl)-ethyl]-propionamide
36 37 1 0 0 
SMALL
USER_CHARGES


@<TRIPOS>ATOM
  1 O       -1.6580    -0.2930    -2.2800 O.2   1 <1>  -0.5700 
  2 C       -2.2040    -0.3670    -1.2100 C.2   1 <1>   0.5690 
  3 N       -3.5480    -0.4830    -1.1710 N.am  1 <1>  -0.7300 
  4 C       -1.3880    -0.3290     0.0790 C.3   1 <1>  -0.0990 
  5 C       -4.4430    -0.6260    -0.0040 C.3   1 <1>   0.4000 
  6 C        0.1360    -0.3030    -0.1300 C.3   1 <1>  -0.2400 
  7 C       -4.8330    -2.0930     0.2050 C.2   1 <1>   0.2980 
  8 C       -5.6460     0.2890    -0.2370 C.3   1 <1>  -0.2400 
  9 O       -3.9220    -2.8950     0.6890 O.3   1 <1>  -0.0190 
 10 N       -5.9580    -2.6380    -0.0370 N.2   1 <1>  -0.5650 
 11 N       -4.5140    -4.0440     0.7640 N.2   1 <1>  -0.4100 
 12 C       -5.7160    -3.9010     0.3310 C.2   1 <1>   0.4620 
 13 C       -6.7170    -4.9510     0.2390 C.ar  1 <1>   0.0540 
 14 C       -8.0050    -4.7020    -0.2390 C.ar  1 <1>  -0.1500 
 15 C       -6.4300    -6.2610     0.6270 C.ar  1 <1>  -0.1500 
 16 C       -8.9540    -5.7040    -0.3260 C.ar  1 <1>  -0.1500 
 17 C       -7.3750    -7.2670     0.5420 C.ar  1 <1>  -0.1500 
 18 C       -8.6450    -6.9950     0.0640 C.ar  1 <1>  -0.1440 
 19 C       -9.6850    -8.0970    -0.0290 C.3   1 <1>  -0.0970 
 20 H       -4.0060    -0.5730    -2.0790 H     1 <1>   0.3700 
 21 H       -1.6340    -1.1960     0.6630 H     1 <1>   0.0800 
 22 H       -1.6730     0.5460     0.6330 H     1 <1>   0.0800 
 23 H       -3.9350    -0.2910     0.8840 H     1 <1>   0.0800 
 24 H        0.4510    -1.1770    -0.6730 H     1 <1>   0.0800 
 25 H        0.6450    -0.2820     0.8170 H     1 <1>   0.0800 
 26 H        0.4190     0.5690    -0.6950 H     1 <1>   0.0800 
 27 H       -6.1850    -0.0140    -1.1170 H     1 <1>   0.0800 
 28 H       -5.3230     1.3090    -0.3470 H     1 <1>   0.0800 
 29 H       -6.3130     0.2310     0.6040 H     1 <1>   0.0800 
 30 H       -8.2690    -3.7060    -0.5490 H     1 <1>   0.1500 
 31 H       -5.4490    -6.4970     1.0010 H     1 <1>   0.1500 
 32 H       -9.9370    -5.4730    -0.6980 H     1 <1>   0.1500 
 33 H       -7.1170    -8.2650     0.8520 H     1 <1>   0.1500 
 34 H      -10.2430    -8.1470     0.8890 H     1 <1>   0.0800 
 35 H       -9.2120    -9.0470    -0.2010 H     1 <1>   0.0800 
 36 H      -10.3640    -7.9050    -0.8400 H     1 <1>   0.0800 
@<TRIPOS>BOND
  1   1   2  2   
  2   2   3  am  
  3   2   4  1   
  4   3   5  1   
  5   3  20  1   
  6   4   6  1   
  7   4  21  1   
  8   4  22  1   
  9   5   7  1   
 10   5   8  1   
 11   5  23  1   
 12   6  24  1   
 13   6  25  1   
 14   6  26  1   
 15   7   9  1   
 16   7  10  2   
 17   8  27  1   
 18   8  28  1   
 19   8  29  1   
 20   9  11  1   
 21  10  12  1   
 22  11  12  2   
 23  12  13  1   
 24  13  14  ar  
 25  13  15  ar  
 26  14  16  ar  
 27  14  30  1   
 28  15  17  ar  
 29  15  31  1   
 30  16  18  ar  
 31  16  32  1   
 32  17  18  ar  
 33  17  33  1   
 34  18  19  1   
 35  19  34  1   
 36  19  35  1   
 37  19  36  1   
@<TRIPOS>SUBSTRUCTURE
  1 ****  12 GROUP 4 **** **** 0

# MOE 2024.06 (io_trps.svl 2023.06)
