@<TRIPOS>MOLECULE
NONAME
55 58 1 0 0 
SMALL
USER_CHARGES


@<TRIPOS>ATOM
  1 S       -0.2980    -0.0330     1.0440 S.3   1 <1>  -0.3710 
  2 C       -0.2520     1.3300    -0.0770 C.2   1 <1>   0.6510 
  3 C       -1.9070    -0.6070     0.3920 C.3   1 <1>   0.7350 
  4 N       -1.2410     1.3850    -0.8620 N.2   1 <1>  -0.5120 
  5 N        0.7930     2.2310    -0.0460 N.am  1 <1>  -0.4900 
  6 N       -2.2060     0.3620    -0.7110 N.am  1 <1>  -0.2980 
  7 C       -1.8550    -2.1110     0.0530 C.2   1 <1>   0.5690 
  8 C       -2.9050    -0.6120     1.5360 C.ar  1 <1>  -0.1440 
  9 C        1.9250     2.4100     0.6760 C.2   1 <1>   0.5690 
 10 C       -3.3230     0.2740    -1.5240 C.2   1 <1>   0.5690 
 11 O       -1.2330    -2.6380    -0.8450 O.2   1 <1>  -0.5700 
 12 N       -2.6610    -2.8080     0.9180 N.am  1 <1>  -0.4770 
 13 C       -3.2880    -1.9170     1.7980 C.ar  1 <1>   0.1170 
 14 C       -3.4180     0.4480     2.2620 C.ar  1 <1>  -0.1500 
 15 O        2.6180     3.3630     0.4340 O.2   1 <1>  -0.5700 
 16 C        2.3720     1.4750     1.7760 C.3   1 <1>  -0.1790 
 17 O       -3.4920     1.0110    -2.4650 O.2   1 <1>  -0.5700 
 18 C       -4.4200    -0.7490    -1.3000 C.3   1 <1>  -0.1790 
 19 C       -2.6850    -4.2940     1.0130 C.3   1 <1>   0.1400 
 20 C       -4.1960    -2.1780     2.8160 C.ar  1 <1>  -0.1500 
 21 C       -4.3260     0.1840     3.2740 C.ar  1 <1>  -0.1500 
 22 C       -3.2210    -4.9270    -0.2890 C.3   1 <1>   0.3430 
 23 C       -4.7100    -1.1210     3.5500 C.ar  1 <1>  -0.1500 
 24 N       -2.3650    -6.0430    -0.8140 N.4   1 <1>  -0.9590 
 25 C       -1.0530    -5.5320    -1.3270 C.3   1 <1>   0.3430 
 26 C       -3.0900    -6.7910    -1.8840 C.3   1 <1>   0.3430 
 27 C       -0.1720    -6.7060    -1.7590 C.3   1 <1>  -0.1600 
 28 C       -2.2610    -7.9990    -2.3240 C.3   1 <1>  -0.1600 
 29 C       -0.8670    -7.5800    -2.8100 C.3   1 <1>  -0.1600 
 30 H        0.6750     2.9590    -0.7460 H     1 <1>   0.3700 
 31 H       -3.1200     1.4630     2.0500 H     1 <1>   0.1500 
 32 H        1.6460     1.4600     2.5670 H     1 <1>   0.0800 
 33 H        3.3070     1.8170     2.1820 H     1 <1>   0.0800 
 34 H        2.5140     0.4850     1.3860 H     1 <1>   0.0800 
 35 H       -4.0540    -1.7410    -1.4730 H     1 <1>   0.0800 
 36 H       -5.2170    -0.5670    -1.9990 H     1 <1>   0.0800 
 37 H       -4.8310    -0.6580    -0.3130 H     1 <1>   0.0800 
 38 H       -3.3080    -4.5950     1.8350 H     1 <1>   0.0800 
 39 H       -1.6850    -4.6330     1.2150 H     1 <1>   0.0800 
 40 H       -4.5090    -3.1790     3.0440 H     1 <1>   0.1500 
 41 H       -4.7350     0.9960     3.8530 H     1 <1>   0.1500 
 42 H       -3.2940    -4.1610    -1.0440 H     1 <1>   0.0800 
 43 H       -4.2150    -5.2980    -0.0990 H     1 <1>   0.0800 
 44 H       -5.4150    -1.3090     4.3420 H     1 <1>   0.1500 
 45 H       -2.1620    -6.7150    -0.0630 H     1 <1>   0.4500 
 46 H       -0.5440    -4.9660    -0.5640 H     1 <1>   0.0800 
 47 H       -1.2180    -4.8750    -2.1670 H     1 <1>   0.0800 
 48 H       -3.2590    -6.1450    -2.7310 H     1 <1>   0.0800 
 49 H       -4.0470    -7.1290    -1.5180 H     1 <1>   0.0800 
 50 H        0.0850    -7.2970    -0.8980 H     1 <1>   0.0800 
 51 H        0.7460    -6.3200    -2.1690 H     1 <1>   0.0800 
 52 H       -2.7750    -8.5070    -3.1220 H     1 <1>   0.0800 
 53 H       -2.1730    -8.6930    -1.5070 H     1 <1>   0.0800 
 54 H       -0.2700    -8.4550    -3.0130 H     1 <1>   0.0800 
 55 H       -0.9590    -7.0270    -3.7310 H     1 <1>   0.0800 
@<TRIPOS>BOND
  1   1   2  1   
  2   1   3  1   
  3   2   4  2   
  4   2   5  1   
  5   3   6  1   
  6   3   7  1   
  7   3   8  1   
  8   4   6  1   
  9   5   9  am  
 10   5  30  1   
 11   6  10  am  
 12   7  11  2   
 13   7  12  am  
 14   8  13  ar  
 15   8  14  ar  
 16   9  15  2   
 17   9  16  1   
 18  10  17  2   
 19  10  18  1   
 20  12  13  1   
 21  12  19  1   
 22  13  20  ar  
 23  14  21  ar  
 24  14  31  1   
 25  16  32  1   
 26  16  33  1   
 27  16  34  1   
 28  18  35  1   
 29  18  36  1   
 30  18  37  1   
 31  19  22  1   
 32  19  38  1   
 33  19  39  1   
 34  20  23  ar  
 35  20  40  1   
 36  21  23  ar  
 37  21  41  1   
 38  22  24  1   
 39  22  42  1   
 40  22  43  1   
 41  23  44  1   
 42  24  25  1   
 43  24  26  1   
 44  24  45  1   
 45  25  27  1   
 46  25  46  1   
 47  25  47  1   
 48  26  28  1   
 49  26  48  1   
 50  26  49  1   
 51  27  29  1   
 52  27  50  1   
 53  27  51  1   
 54  28  29  1   
 55  28  52  1   
 56  28  53  1   
 57  29  54  1   
 58  29  55  1   
@<TRIPOS>SUBSTRUCTURE
  1 ****   7 GROUP 4 **** **** 0

# MOE 2024.06 (io_trps.svl 2023.06)
