@<TRIPOS>MOLECULE
7-(2-Hydroxy-propyl)-8-(2-hydroxy-propylamino)-3-methyl-3,7-dihydro-purine-2,6-d
41 42 1 0 0 
SMALL
USER_CHARGES


@<TRIPOS>ATOM
  1 O        0.6840     0.8340     1.0800 O.2   1 <1>  -0.5760 
  2 C        1.7590     1.1990     0.6640 C.2   1 <1>   0.6850 
  3 N        2.8570     0.3530     0.6060 N.am  1 <1>  -0.4430 
  4 N        1.8870     2.4920     0.2430 N.am  1 <1>  -0.4970 
  5 C        4.0480     0.8770     0.1250 C.2   1 <1>   0.4190 
  6 C        2.7620    -1.0670     1.0530 C.3   1 <1>   0.0500 
  7 C        3.0510     3.0240    -0.2330 C.2   1 <1>   0.6980 
  8 N        5.2470     0.2450    -0.0040 N.pl3 1 <1>  -0.7050 
  9 C        4.1890     2.1550    -0.2980 C.2   1 <1>   0.2680 
 10 O        3.0760     4.1920    -0.5640 O.2   1 <1>  -0.5760 
 11 C        6.1180     1.1180    -0.5000 C.cat 1 <1>   1.0680 
 12 N        5.5270     2.2910    -0.7070 N.pl3 1 <1>  -0.7690 
 13 N        7.3930     0.8580    -0.7390 N.pl3 1 <1>  -0.7190 
 14 C        6.1160     3.5450    -1.2680 C.3   1 <1>   0.3460 
 15 C        8.2380    -0.3160    -0.4230 C.3   1 <1>   0.1580 
 16 C        6.4930     4.5700    -0.1760 C.3   1 <1>   0.1910 
 17 C        9.6530     0.1740    -0.0400 C.3   1 <1>   0.1910 
 18 O        7.2460     5.5570    -0.7760 O.3   1 <1>  -0.6850 
 19 C        7.3460     4.0080     0.9650 C.3   1 <1>  -0.2490 
 20 O        9.9310     1.3510    -0.7250 O.3   1 <1>  -0.6850 
 21 C       10.7410    -0.8320    -0.3990 C.3   1 <1>  -0.2490 
 22 H        1.0640     3.0880     0.3010 H     1 <1>   0.3620 
 23 H        1.7400    -1.3360     1.2600 H     1 <1>   0.0700 
 24 H        3.3390    -1.2060     1.9500 H     1 <1>   0.0700 
 25 H        3.1310    -1.7210     0.2820 H     1 <1>   0.0700 
 26 H        5.4600    -0.7210     0.2200 H     1 <1>   0.4430 
 27 H        8.0080     1.6220    -1.0550 H     1 <1>   0.4430 
 28 H        5.4100     4.0000    -1.9420 H     1 <1>   0.0700 
 29 H        7.0000     3.3020    -1.8330 H     1 <1>   0.0700 
 30 H        8.3040    -0.9420    -1.2980 H     1 <1>   0.0700 
 31 H        7.8200    -0.8970     0.3800 H     1 <1>   0.0700 
 32 H        5.6010     5.0340     0.2110 H     1 <1>   0.0700 
 33 H        9.6910     0.3930     1.0140 H     1 <1>   0.0700 
 34 H        7.4710     6.2580    -0.1300 H     1 <1>   0.3920 
 35 H        8.2440     3.5570     0.5820 H     1 <1>   0.0700 
 36 H        6.7950     3.2700     1.5180 H     1 <1>   0.0700 
 37 H        7.6120     4.7940     1.6500 H     1 <1>   0.0700 
 38 H       10.8790     1.5780    -0.6170 H     1 <1>   0.3920 
 39 H       10.7550    -1.0190    -1.4590 H     1 <1>   0.0700 
 40 H       10.5610    -1.7640     0.1060 H     1 <1>   0.0700 
 41 H       11.7050    -0.4700    -0.0890 H     1 <1>   0.0700 
@<TRIPOS>BOND
  1   1   2  2   
  2   2   3  am  
  3   2   4  am  
  4   3   5  1   
  5   3   6  1   
  6   4   7  am  
  7   4  22  1   
  8   5   8  1   
  9   5   9  2   
 10   6  23  1   
 11   6  24  1   
 12   6  25  1   
 13   7   9  1   
 14   7  10  2   
 15   8  11  ar  
 16   8  26  1   
 17   9  12  1   
 18  11  12  ar  
 19  11  13  ar  
 20  12  14  1   
 21  13  15  1   
 22  13  27  1   
 23  14  16  1   
 24  14  28  1   
 25  14  29  1   
 26  15  17  1   
 27  15  30  1   
 28  15  31  1   
 29  16  18  1   
 30  16  19  1   
 31  16  32  1   
 32  17  20  1   
 33  17  21  1   
 34  17  33  1   
 35  18  34  1   
 36  19  35  1   
 37  19  36  1   
 38  19  37  1   
 39  20  38  1   
 40  21  39  1   
 41  21  40  1   
 42  21  41  1   
@<TRIPOS>SUBSTRUCTURE
  1 ****  12 GROUP 4 **** **** 0

# MOE 2024.06 (io_trps.svl 2023.06)
