@<TRIPOS>MOLECULE
N-(2-Hydroxy-phenyl)-2-(4-methyl-5-morpholin-4-ylmethyl-4H-[1,2,4]triazol-3-ylsu
46 48 1 0 0 
SMALL
USER_CHARGES


@<TRIPOS>ATOM
  1 S       -0.0690    -0.6000     1.4750 S.3   1 <1>  -0.2860 
  2 C       -1.0820    -0.1490     0.0670 C.2   1 <1>   0.2420 
  3 C        1.5300     0.2570     1.0840 C.3   1 <1>   0.1310 
  4 N       -0.6070     0.0180    -1.1170 N.2   1 <1>  -0.3380 
  5 N       -2.3790     0.1280     0.1710 N.pl3 1 <1>   0.0480 
  6 C        1.3490     1.7620     1.2200 C.2   1 <1>   0.5690 
  7 N       -1.6280     0.4610    -1.8530 N.2   1 <1>  -0.3380 
  8 C       -2.6590     0.5400    -1.0740 C.2   1 <1>   0.0060 
  9 C       -3.2300     0.1180     1.3780 C.3   1 <1>   0.0160 
 10 O        1.8490     2.3060     2.1750 O.2   1 <1>  -0.5700 
 11 N        0.6390     2.4320     0.2590 N.am  1 <1>  -0.5470 
 12 C       -4.0100     1.0930    -1.5020 C.3   1 <1>   0.2900 
 13 C        0.2580     3.7810     0.1350 C.ar  1 <1>   0.1170 
 14 N       -4.4290     2.2150    -0.6340 N.3   1 <1>  -0.8100 
 15 C       -0.1250     4.2630    -1.1210 C.ar  1 <1>   0.0830 
 16 C        0.2120     4.6590     1.2120 C.ar  1 <1>  -0.1500 
 17 C       -5.7510     2.7280    -1.0400 C.3   1 <1>   0.1100 
 18 C       -3.4410     3.3210    -0.6750 C.3   1 <1>   0.1100 
 19 O       -0.1040     3.4370    -2.1890 O.3   1 <1>  -0.5320 
 20 C       -0.5350     5.5740    -1.2940 C.ar  1 <1>  -0.1500 
 21 C       -0.1970     5.9720     1.0430 C.ar  1 <1>  -0.1500 
 22 C       -6.1550     3.9500    -0.1950 C.3   1 <1>   0.1200 
 23 C       -3.9160     4.5320     0.1460 C.3   1 <1>   0.1200 
 24 C       -0.5710     6.4310    -0.2080 C.ar  1 <1>  -0.1500 
 25 O       -5.1810     4.9500    -0.2850 O.3   1 <1>  -0.5600 
 26 H        1.8150    -0.0150     0.0850 H     1 <1>   0.0800 
 27 H        2.2590    -0.0990     1.7870 H     1 <1>   0.0800 
 28 H       -2.9150    -0.6680     2.0390 H     1 <1>   0.0800 
 29 H       -4.2550    -0.0420     1.0960 H     1 <1>   0.0800 
 30 H       -3.1440     1.0660     1.8750 H     1 <1>   0.0800 
 31 H        0.3280     1.8690    -0.5470 H     1 <1>   0.3700 
 32 H       -4.7410     0.3060    -1.4490 H     1 <1>   0.0800 
 33 H       -3.9450     1.4260    -2.5240 H     1 <1>   0.0800 
 34 H        0.4940     4.3220     2.1920 H     1 <1>   0.1500 
 35 H       -6.4900     1.9560    -0.9150 H     1 <1>   0.0800 
 36 H       -5.7350     3.0170    -2.0770 H     1 <1>   0.0800 
 37 H       -3.2720     3.6330    -1.6910 H     1 <1>   0.0800 
 38 H       -2.5010     2.9890    -0.2710 H     1 <1>   0.0800 
 39 H       -0.3710     3.8650    -3.0210 H     1 <1>   0.4500 
 40 H       -0.8250     5.9340    -2.2640 H     1 <1>   0.1500 
 41 H       -0.2230     6.6360     1.8900 H     1 <1>   0.1500 
 42 H       -6.2710     3.6740     0.8390 H     1 <1>   0.0800 
 43 H       -7.0810     4.3630    -0.5520 H     1 <1>   0.0800 
 44 H       -3.2360     5.3550     0.0230 H     1 <1>   0.0800 
 45 H       -3.9710     4.2810     1.1900 H     1 <1>   0.0800 
 46 H       -0.8870     7.4520    -0.3340 H     1 <1>   0.1500 
@<TRIPOS>BOND
  1   1   2  1   
  2   1   3  1   
  3   2   4  2   
  4   2   5  1   
  5   3   6  1   
  6   3  26  1   
  7   3  27  1   
  8   4   7  1   
  9   5   8  1   
 10   5   9  1   
 11   6  10  2   
 12   6  11  am  
 13   7   8  2   
 14   8  12  1   
 15   9  28  1   
 16   9  29  1   
 17   9  30  1   
 18  11  13  1   
 19  11  31  1   
 20  12  14  1   
 21  12  32  1   
 22  12  33  1   
 23  13  15  ar  
 24  13  16  ar  
 25  14  17  1   
 26  14  18  1   
 27  15  19  1   
 28  15  20  ar  
 29  16  21  ar  
 30  16  34  1   
 31  17  22  1   
 32  17  35  1   
 33  17  36  1   
 34  18  23  1   
 35  18  37  1   
 36  18  38  1   
 37  19  39  1   
 38  20  24  ar  
 39  20  40  1   
 40  21  24  ar  
 41  21  41  1   
 42  22  25  1   
 43  22  42  1   
 44  22  43  1   
 45  23  25  1   
 46  23  44  1   
 47  23  45  1   
 48  24  46  1   
@<TRIPOS>SUBSTRUCTURE
  1 ****  18 GROUP 4 **** **** 0

# MOE 2024.06 (io_trps.svl 2023.06)
