@<TRIPOS>MOLECULE
4-(4-Chloro-phenyl)-2-oxo-6-piperidin-1-ylmethyl-1,2,3,4-tetrahydro-pyrimidine-5
48 50 1 0 0 
SMALL
USER_CHARGES


@<TRIPOS>ATOM
  1 CL      -0.7850     0.2120    -1.8110 Cl    1 <1>  -0.1770 
  2 C       -2.0980    -0.6770    -1.0840 C.ar  1 <1>   0.1770 
  3 C       -2.3830    -0.4950     0.2550 C.ar  1 <1>  -0.1500 
  4 C       -2.8360    -1.5500    -1.8590 C.ar  1 <1>  -0.1500 
  5 C       -3.4270    -1.2020     0.8280 C.ar  1 <1>  -0.1500 
  6 C       -3.8800    -2.2540    -1.2810 C.ar  1 <1>  -0.1500 
  7 C       -4.1840    -2.0870     0.0680 C.ar  1 <1>  -0.1430 
  8 C       -5.3370    -2.8500     0.7210 C.3   1 <1>   0.5020 
  9 N       -5.1790    -4.2840     0.4160 N.am  1 <1>  -0.7300 
 10 C       -6.6890    -2.3070     0.2370 C.2   1 <1>  -0.1240 
 11 C       -5.9160    -4.9330    -0.4950 C.2   1 <1>   0.6900 
 12 C       -7.4420    -3.0540    -0.6250 C.2   1 <1>  -0.0290 
 13 C       -6.9850    -1.0240     0.8010 C.2   1 <1>   0.7060 
 14 O       -5.6180    -6.0360    -0.8790 O.2   1 <1>  -0.5700 
 15 N       -7.0110    -4.3190    -1.0050 N.am  1 <1>  -0.5390 
 16 C       -8.7880    -2.6390    -1.2230 C.3   1 <1>   0.4810 
 17 O       -6.3790    -0.5530     1.7400 O.2   1 <1>  -0.5700 
 18 O       -8.0140    -0.3280     0.3030 O.3   1 <1>  -0.4300 
 19 N       -9.8750    -3.3800    -0.5250 N.4   1 <1>  -0.9590 
 20 C       -8.3210     0.9740     0.7760 C.3   1 <1>   0.0400 
 21 C      -11.1460    -3.3440    -1.3040 C.3   1 <1>   0.3430 
 22 C      -10.0650    -2.8780     0.8690 C.3   1 <1>   0.3430 
 23 C      -12.1930    -4.2250    -0.6220 C.3   1 <1>  -0.1600 
 24 C      -11.0930    -3.7470     1.5950 C.3   1 <1>  -0.1600 
 25 C      -12.4240    -3.8080     0.8360 C.3   1 <1>  -0.1600 
 26 H       -1.7950     0.1920     0.8370 H     1 <1>   0.1500 
 27 H       -2.5930    -1.6760    -2.8990 H     1 <1>   0.1500 
 28 H       -3.6470    -1.0490     1.8720 H     1 <1>   0.1500 
 29 H       -4.4470    -2.9340    -1.8920 H     1 <1>   0.1500 
 30 H       -5.2730    -2.7470     1.7920 H     1 <1>   0.0800 
 31 H       -4.2740    -4.6950     0.6460 H     1 <1>   0.3700 
 32 H       -7.4460    -4.8880    -1.7350 H     1 <1>   0.3700 
 33 H       -8.7870    -2.8910    -2.2710 H     1 <1>   0.0800 
 34 H       -8.9550    -1.5800    -1.1480 H     1 <1>   0.0800 
 35 H       -9.5750    -4.3610    -0.4460 H     1 <1>   0.4500 
 36 H       -9.1640     1.3540     0.2260 H     1 <1>   0.0800 
 37 H       -7.4670     1.6120     0.6230 H     1 <1>   0.0800 
 38 H       -8.5560     0.9230     1.8260 H     1 <1>   0.0800 
 39 H      -10.9790    -3.7000    -2.3080 H     1 <1>   0.0800 
 40 H      -11.5120    -2.3310    -1.3590 H     1 <1>   0.0800 
 41 H      -10.4080    -1.8560     0.8470 H     1 <1>   0.0800 
 42 H       -9.1310    -2.9100     1.4080 H     1 <1>   0.0800 
 43 H      -11.8790    -5.2540    -0.6640 H     1 <1>   0.0800 
 44 H      -13.1210    -4.1520    -1.1630 H     1 <1>   0.0800 
 45 H      -11.2620    -3.3440     2.5790 H     1 <1>   0.0800 
 46 H      -10.6950    -4.7400     1.7210 H     1 <1>   0.0800 
 47 H      -13.0880    -4.5090     1.3170 H     1 <1>   0.0800 
 48 H      -12.8980    -2.8410     0.8630 H     1 <1>   0.0800 
@<TRIPOS>BOND
  1   1   2  1   
  2   2   3  ar  
  3   2   4  ar  
  4   3   5  ar  
  5   3  26  1   
  6   4   6  ar  
  7   4  27  1   
  8   5   7  ar  
  9   5  28  1   
 10   6   7  ar  
 11   6  29  1   
 12   7   8  1   
 13   8   9  1   
 14   8  10  1   
 15   8  30  1   
 16   9  11  am  
 17   9  31  1   
 18  10  12  2   
 19  10  13  1   
 20  11  14  2   
 21  11  15  am  
 22  12  15  1   
 23  12  16  1   
 24  13  17  2   
 25  13  18  1   
 26  15  32  1   
 27  16  19  1   
 28  16  33  1   
 29  16  34  1   
 30  18  20  1   
 31  19  21  1   
 32  19  22  1   
 33  19  35  1   
 34  20  36  1   
 35  20  37  1   
 36  20  38  1   
 37  21  23  1   
 38  21  39  1   
 39  21  40  1   
 40  22  24  1   
 41  22  41  1   
 42  22  42  1   
 43  23  25  1   
 44  23  43  1   
 45  23  44  1   
 46  24  25  1   
 47  24  45  1   
 48  24  46  1   
 49  25  47  1   
 50  25  48  1   
@<TRIPOS>SUBSTRUCTURE
  1 ****  10 GROUP 4 **** **** 0

# MOE 2024.06 (io_trps.svl 2023.06)
