@<TRIPOS>MOLECULE
N-[2-(4-Methanesulfonyl-piperazin-1-yl)-phenyl]-2-o-tolyloxy-acetamide
53 55 1 0 0 
SMALL
USER_CHARGES


@<TRIPOS>ATOM
  1 S        0.0610    -0.2700    -0.1550 S.o2  1 <1>   1.3330 
  2 O        1.0120    -0.5200    -1.2130 O.2   1 <1>  -0.6500 
  3 O       -1.3460    -0.5210    -0.3680 O.2   1 <1>  -0.6500 
  4 N        0.2310     1.3410     0.3350 N.am  1 <1>  -0.8490 
  5 C        0.6030    -1.1700     1.2820 C.3   1 <1>  -0.1350 
  6 C        0.4610     2.2350    -0.8180 C.3   1 <1>   0.1960 
  7 C       -0.9340     1.8310     1.1010 C.3   1 <1>   0.1960 
  8 C        0.7120     3.6920    -0.3910 C.3   1 <1>   0.2090 
  9 C       -0.7750     3.2900     1.5840 C.3   1 <1>   0.2090 
 10 N       -0.3720     4.2280     0.4900 N.pl3 1 <1>  -0.8380 
 11 C       -1.3360     5.0590    -0.1130 C.ar  1 <1>   0.1000 
 12 C       -1.0920     6.4350    -0.2530 C.ar  1 <1>   0.1170 
 13 C       -2.5330     4.5390    -0.5910 C.ar  1 <1>  -0.1500 
 14 N        0.1350     6.9230     0.2300 N.am  1 <1>  -0.5470 
 15 C       -2.0520     7.2460    -0.8440 C.ar  1 <1>  -0.1500 
 16 C       -3.4810     5.3560    -1.1820 C.ar  1 <1>  -0.1500 
 17 C        0.8350     8.0770     0.0230 C.2   1 <1>   0.5690 
 18 C       -3.2410     6.7120    -1.3070 C.ar  1 <1>  -0.1500 
 19 O        0.4260     8.9970    -0.6440 O.2   1 <1>  -0.5700 
 20 C        2.2210     8.2160     0.6450 C.3   1 <1>   0.1810 
 21 O        2.7770     6.9680     1.0460 O.3   1 <1>  -0.3630 
 22 C        3.2700     6.0640     0.1560 C.ar  1 <1>   0.0820 
 23 C        3.9020     4.9360     0.6730 C.ar  1 <1>  -0.1440 
 24 C        3.1560     6.2160    -1.2250 C.ar  1 <1>  -0.1500 
 25 C        4.4040     3.9740    -0.1890 C.ar  1 <1>  -0.1500 
 26 C        4.0380     4.7430     2.1770 C.3   1 <1>  -0.0970 
 27 C        3.6590     5.2490    -2.0760 C.ar  1 <1>  -0.1500 
 28 C        4.2820     4.1270    -1.5590 C.ar  1 <1>  -0.1500 
 29 H        1.6120    -0.9010     1.5230 H     1 <1>   0.0800 
 30 H        0.5640    -2.2240     1.0880 H     1 <1>   0.0800 
 31 H       -0.0270    -0.9500     2.1210 H     1 <1>   0.0800 
 32 H       -0.3850     2.2030    -1.4840 H     1 <1>   0.0800 
 33 H        1.3260     1.9030    -1.3680 H     1 <1>   0.0800 
 34 H       -1.0870     1.2040     1.9610 H     1 <1>   0.0800 
 35 H       -1.8210     1.7640     0.4950 H     1 <1>   0.0800 
 36 H        0.8100     4.3100    -1.2660 H     1 <1>   0.0800 
 37 H        1.6420     3.7300     0.1450 H     1 <1>   0.0800 
 38 H       -0.0250     3.3200     2.3530 H     1 <1>   0.0800 
 39 H       -1.7010     3.6250     2.0190 H     1 <1>   0.0800 
 40 H       -2.7290     3.4890    -0.5100 H     1 <1>   0.1500 
 41 H        0.6430     6.1820     0.7270 H     1 <1>   0.3700 
 42 H       -1.8790     8.3010    -0.9450 H     1 <1>   0.1500 
 43 H       -4.4030     4.9360    -1.5460 H     1 <1>   0.1500 
 44 H       -3.9750     7.3530    -1.7640 H     1 <1>   0.1500 
 45 H        2.1440     8.8280     1.5240 H     1 <1>   0.0800 
 46 H        2.8970     8.6880    -0.0430 H     1 <1>   0.0800 
 47 H        2.6790     7.0720    -1.6630 H     1 <1>   0.1500 
 48 H        4.8940     3.0980     0.1990 H     1 <1>   0.1500 
 49 H        3.0630     4.6970     2.6280 H     1 <1>   0.0800 
 50 H        4.5770     5.5710     2.6020 H     1 <1>   0.0800 
 51 H        4.5660     3.8360     2.4070 H     1 <1>   0.0800 
 52 H        3.5670     5.3690    -3.1410 H     1 <1>   0.1500 
 53 H        4.6740     3.3750    -2.2210 H     1 <1>   0.1500 
@<TRIPOS>BOND
  1   1   2  2   
  2   1   3  2   
  3   1   4  am  
  4   1   5  1   
  5   4   6  1   
  6   4   7  1   
  7   5  29  1   
  8   5  30  1   
  9   5  31  1   
 10   6   8  1   
 11   6  32  1   
 12   6  33  1   
 13   7   9  1   
 14   7  34  1   
 15   7  35  1   
 16   8  10  1   
 17   8  36  1   
 18   8  37  1   
 19   9  10  1   
 20   9  38  1   
 21   9  39  1   
 22  10  11  1   
 23  11  12  ar  
 24  11  13  ar  
 25  12  14  1   
 26  12  15  ar  
 27  13  16  ar  
 28  13  40  1   
 29  14  17  am  
 30  14  41  1   
 31  15  18  ar  
 32  15  42  1   
 33  16  18  ar  
 34  16  43  1   
 35  17  19  2   
 36  17  20  1   
 37  18  44  1   
 38  20  21  1   
 39  20  45  1   
 40  20  46  1   
 41  21  22  1   
 42  22  23  ar  
 43  22  24  ar  
 44  23  25  ar  
 45  23  26  1   
 46  24  27  ar  
 47  24  47  1   
 48  25  28  ar  
 49  25  48  1   
 50  26  49  1   
 51  26  50  1   
 52  26  51  1   
 53  27  28  ar  
 54  27  52  1   
 55  28  53  1   
@<TRIPOS>SUBSTRUCTURE
  1 ****   8 GROUP 4 **** **** 0

# MOE 2024.06 (io_trps.svl 2023.06)
