@<TRIPOS>MOLECULE
1-(2-Cyano-ethyl)-3-p-tolyl-1H-pyrazole-4-carboxylic acid dimethylamide
39 40 1 0 0 
SMALL
USER_CHARGES


@<TRIPOS>ATOM
  1 O        0.8600     0.0070    -2.2140 O.2   1 <1>  -0.5700 
  2 C        1.6350    -0.2960    -1.3270 C.2   1 <1>   0.7160 
  3 N        2.3670     0.6980    -0.7020 N.am  1 <1>  -0.6600 
  4 C        1.7810    -1.6770    -0.9470 C.2   1 <1>  -0.0860 
  5 C        3.1750     0.4730     0.5280 C.3   1 <1>   0.0600 
  6 C        2.3460     2.1090    -1.1810 C.3   1 <1>   0.0600 
  7 C        0.7730    -2.5190    -0.4450 C.2   1 <1>   0.2350 
  8 C        2.8840    -2.4720    -0.9990 C.2   1 <1>  -0.3020 
  9 N        1.2380    -3.7250    -0.2260 N.2   1 <1>  -0.7070 
 10 C       -0.6010    -2.1490    -0.1730 C.ar  1 <1>   0.0540 
 11 N        2.5280    -3.6880    -0.5710 N.pl3 1 <1>   0.3140 
 12 C       -1.6410    -3.0210    -0.4890 C.ar  1 <1>  -0.1500 
 13 C       -0.9460    -0.9350     0.4210 C.ar  1 <1>  -0.1500 
 14 C        3.3910    -4.8780    -0.4730 C.3   1 <1>   0.0960 
 15 C       -2.9610    -2.6980    -0.2340 C.ar  1 <1>  -0.1500 
 16 C       -2.2640    -0.6060     0.6780 C.ar  1 <1>  -0.1500 
 17 C        3.2200    -5.5570     0.8890 C.3   1 <1>   0.0400 
 18 C       -3.2820    -1.4860     0.3520 C.ar  1 <1>  -0.1430 
 19 C        4.1760    -6.6860     1.0080 C.1   1 <1>   0.3570 
 20 C       -4.7290    -1.1240     0.6290 C.3   1 <1>  -0.0970 
 21 N        4.9290    -7.5350     1.0700 N.1   1 <1>  -0.5570 
 22 H        2.9050    -0.4530     1.0050 H     1 <1>   0.0800 
 23 H        3.0040     1.2730     1.2280 H     1 <1>   0.0800 
 24 H        4.2200     0.4470     0.2740 H     1 <1>   0.0800 
 25 H        1.8960     2.1780    -2.1570 H     1 <1>   0.0800 
 26 H        3.3510     2.4890    -1.2450 H     1 <1>   0.0800 
 27 H        1.7790     2.7160    -0.4970 H     1 <1>   0.0800 
 28 H        3.8740    -2.2210    -1.3310 H     1 <1>   0.1500 
 29 H       -1.4000    -3.9660    -0.9420 H     1 <1>   0.1500 
 30 H       -0.1740    -0.2380     0.6900 H     1 <1>   0.1500 
 31 H        4.4130    -4.5740    -0.6120 H     1 <1>   0.0800 
 32 H        3.1190    -5.5560    -1.2610 H     1 <1>   0.0800 
 33 H       -3.7380    -3.3950    -0.4960 H     1 <1>   0.1500 
 34 H       -2.4950     0.3420     1.1310 H     1 <1>   0.1500 
 35 H        2.2210    -5.9410     0.9920 H     1 <1>   0.0800 
 36 H        3.4120    -4.8570     1.6810 H     1 <1>   0.0800 
 37 H       -5.3080    -2.0100     0.8170 H     1 <1>   0.0800 
 38 H       -5.1430    -0.6120    -0.2200 H     1 <1>   0.0800 
 39 H       -4.7990    -0.4840     1.4900 H     1 <1>   0.0800 
@<TRIPOS>BOND
  1   1   2  2   
  2   2   3  am  
  3   2   4  1   
  4   3   5  1   
  5   3   6  1   
  6   4   7  1   
  7   4   8  2   
  8   5  22  1   
  9   5  23  1   
 10   5  24  1   
 11   6  25  1   
 12   6  26  1   
 13   6  27  1   
 14   7   9  2   
 15   7  10  1   
 16   8  11  1   
 17   8  28  1   
 18   9  11  1   
 19  10  12  ar  
 20  10  13  ar  
 21  11  14  1   
 22  12  15  ar  
 23  12  29  1   
 24  13  16  ar  
 25  13  30  1   
 26  14  17  1   
 27  14  31  1   
 28  14  32  1   
 29  15  18  ar  
 30  15  33  1   
 31  16  18  ar  
 32  16  34  1   
 33  17  19  1   
 34  17  35  1   
 35  17  36  1   
 36  18  20  1   
 37  19  21  3   
 38  20  37  1   
 39  20  38  1   
 40  20  39  1   
@<TRIPOS>SUBSTRUCTURE
  1 ****   7 GROUP 4 **** **** 0

# MOE 2024.06 (io_trps.svl 2023.06)
