@<TRIPOS>MOLECULE
N-{2-[2-(Cyclohexanecarbonyl-amino)-ethyl]-1-methyl-1H-benzoimidazol-5-yl}-4-met
62 65 1 0 0 
SMALL
USER_CHARGES


@<TRIPOS>ATOM
  1 O        0.0370    -0.0480    -0.1640 O.2   1 <1>  -0.5700 
  2 C        0.2140     1.1540    -0.1630 C.2   1 <1>   0.5440 
  3 N        1.4700     1.6770    -0.3720 N.am  1 <1>  -0.5470 
  4 C       -0.9020     2.0530     0.0510 C.ar  1 <1>   0.0860 
  5 C        2.7270     1.0700    -0.5590 C.ar  1 <1>   0.1170 
  6 C       -2.1700     1.7490    -0.4460 C.ar  1 <1>  -0.1500 
  7 C       -0.7640     3.2530     0.7560 C.ar  1 <1>  -0.1500 
  8 C        3.8610     1.7960    -0.2520 C.ar  1 <1>  -0.1500 
  9 C        2.8720    -0.2360    -1.0640 C.ar  1 <1>  -0.1500 
 10 C       -3.2410     2.6040    -0.2680 C.ar  1 <1>  -0.1500 
 11 C       -1.8300     4.1150     0.9390 C.ar  1 <1>  -0.1500 
 12 C        5.1200     1.2340    -0.4370 C.ar  1 <1>   0.2270 
 13 C        4.1130    -0.8020    -1.2490 C.ar  1 <1>  -0.1500 
 14 C       -3.0820     3.7950     0.4220 C.ar  1 <1>   0.0830 
 15 N        6.3440     1.7750    -0.1900 N.2   1 <1>  -0.5650 
 16 C        5.2450    -0.0500    -0.9300 C.ar  1 <1>  -0.1520 
 17 O       -4.1750     4.5790     0.5520 O.3   1 <1>  -0.3630 
 18 C        7.1730     0.8480    -0.5250 C.2   1 <1>   0.0060 
 19 N        6.5830    -0.2920    -0.9880 N.pl3 1 <1>   0.0480 
 20 C       -4.1380     5.8000     1.2560 C.3   1 <1>   0.0400 
 21 C        8.6770     1.0000    -0.4010 C.3   1 <1>   0.0200 
 22 C        7.2240    -1.5500    -1.4280 C.3   1 <1>   0.0160 
 23 C        9.1700     0.2790     0.8550 C.3   1 <1>   0.1400 
 24 N       10.6060    -0.0630     0.7230 N.am  1 <1>  -0.7300 
 25 C       11.0620    -1.1600     0.0620 C.2   1 <1>   0.5690 
 26 O       10.3020    -1.9100    -0.5060 O.2   1 <1>  -0.5700 
 27 C       12.5670    -1.4270     0.0290 C.3   1 <1>  -0.0190 
 28 C       13.1240    -1.3000    -1.4020 C.3   1 <1>  -0.1600 
 29 C       12.9080    -2.8070     0.6230 C.3   1 <1>  -0.1600 
 30 C       14.6340    -1.5760    -1.4470 C.3   1 <1>  -0.1600 
 31 C       14.4180    -3.0830     0.5790 C.3   1 <1>  -0.1600 
 32 C       14.9630    -2.9490    -0.8480 C.3   1 <1>  -0.1600 
 33 H        1.5020     2.6940    -0.3770 H     1 <1>   0.3700 
 34 H       -2.3100     0.8240    -0.9800 H     1 <1>   0.1500 
 35 H        0.1910     3.5130     1.1790 H     1 <1>   0.1500 
 36 H        3.8090     2.7940     0.1340 H     1 <1>   0.1500 
 37 H        1.9960    -0.8040    -1.3150 H     1 <1>   0.1500 
 38 H       -4.2100     2.3540    -0.6600 H     1 <1>   0.1500 
 39 H       -1.6750     5.0250     1.4860 H     1 <1>   0.1500 
 40 H        4.2110    -1.8020    -1.6320 H     1 <1>   0.1500 
 41 H       -5.1220     6.2320     1.2260 H     1 <1>   0.0800 
 42 H       -3.4360     6.4590     0.7760 H     1 <1>   0.0800 
 43 H       -3.8540     5.6070     2.2750 H     1 <1>   0.0800 
 44 H        8.9270     2.0440    -0.3360 H     1 <1>   0.0800 
 45 H        9.1440     0.5950    -1.2800 H     1 <1>   0.0800 
 46 H        6.5420    -2.1110    -2.0380 H     1 <1>   0.0800 
 47 H        7.4970    -2.1310    -0.5660 H     1 <1>   0.0800 
 48 H        8.1060    -1.3300    -2.0000 H     1 <1>   0.0800 
 49 H        8.6130    -0.6330     0.9910 H     1 <1>   0.0800 
 50 H        9.0100     0.8960     1.7230 H     1 <1>   0.0800 
 51 H       11.2660     0.5760     1.1690 H     1 <1>   0.3700 
 52 H       13.0490    -0.6820     0.6360 H     1 <1>   0.0800 
 53 H       12.9270    -0.3120    -1.7810 H     1 <1>   0.0800 
 54 H       12.6170    -2.0030    -2.0420 H     1 <1>   0.0800 
 55 H       12.3930    -3.5710     0.0640 H     1 <1>   0.0800 
 56 H       12.5620    -2.8580     1.6410 H     1 <1>   0.0800 
 57 H       15.1550    -0.8120    -0.8950 H     1 <1>   0.0800 
 58 H       14.9770    -1.5370    -2.4660 H     1 <1>   0.0800 
 59 H       14.6130    -4.0750     0.9470 H     1 <1>   0.0800 
 60 H       14.9290    -2.3870     1.2230 H     1 <1>   0.0800 
 61 H       16.0300    -3.0930    -0.8420 H     1 <1>   0.0800 
 62 H       14.5320    -3.7190    -1.4660 H     1 <1>   0.0800 
@<TRIPOS>BOND
  1   1   2  2   
  2   2   3  am  
  3   2   4  1   
  4   3   5  1   
  5   3  33  1   
  6   4   6  ar  
  7   4   7  ar  
  8   5   8  ar  
  9   5   9  ar  
 10   6  10  ar  
 11   6  34  1   
 12   7  11  ar  
 13   7  35  1   
 14   8  12  ar  
 15   8  36  1   
 16   9  13  ar  
 17   9  37  1   
 18  10  14  ar  
 19  10  38  1   
 20  11  14  ar  
 21  11  39  1   
 22  12  15  1   
 23  12  16  ar  
 24  13  16  ar  
 25  13  40  1   
 26  14  17  1   
 27  15  18  2   
 28  16  19  1   
 29  17  20  1   
 30  18  19  1   
 31  18  21  1   
 32  19  22  1   
 33  20  41  1   
 34  20  42  1   
 35  20  43  1   
 36  21  23  1   
 37  21  44  1   
 38  21  45  1   
 39  22  46  1   
 40  22  47  1   
 41  22  48  1   
 42  23  24  1   
 43  23  49  1   
 44  23  50  1   
 45  24  25  am  
 46  24  51  1   
 47  25  26  2   
 48  25  27  1   
 49  27  28  1   
 50  27  29  1   
 51  27  52  1   
 52  28  30  1   
 53  28  53  1   
 54  28  54  1   
 55  29  31  1   
 56  29  55  1   
 57  29  56  1   
 58  30  32  1   
 59  30  57  1   
 60  30  58  1   
 61  31  32  1   
 62  31  59  1   
 63  31  60  1   
 64  32  61  1   
 65  32  62  1   
@<TRIPOS>SUBSTRUCTURE
  1 ****  12 GROUP 4 **** **** 0

# MOE 2024.06 (io_trps.svl 2023.06)
