@<TRIPOS>MOLECULE
1-Allyl-1,2,3,4-tetrahydro-quinoline-6-carbaldehyde
30 31 1 0 0 
SMALL
USER_CHARGES


@<TRIPOS>ATOM
  1 O        0.2440     0.0310    -0.9770 O.2   1 <1>  -0.5700 
  2 C        1.2930    -0.5420    -0.8100 C.2   1 <1>   0.4240 
  3 C        2.5560     0.0860    -0.5350 C.ar  1 <1>   0.0860 
  4 C        2.6770     1.4730    -0.4220 C.ar  1 <1>  -0.1500 
  5 C        3.7160    -0.6700    -0.3630 C.ar  1 <1>  -0.1500 
  6 C        3.8890     2.0850    -0.1620 C.ar  1 <1>  -0.1440 
  7 C        4.9300    -0.0680    -0.1040 C.ar  1 <1>  -0.1500 
  8 C        5.0470     1.3160    -0.0120 C.ar  1 <1>   0.1000 
  9 C        3.9360     3.6020    -0.0250 C.3   1 <1>  -0.0160 
 10 N        6.2850     1.9060     0.2250 N.pl3 1 <1>  -0.8380 
 11 C        5.3620     4.1430    -0.1670 C.3   1 <1>  -0.1600 
 12 C        6.3290     3.3180     0.6800 C.3   1 <1>   0.2090 
 13 C        7.4760     1.4410    -0.5320 C.3   1 <1>   0.3470 
 14 C        8.4200     0.7470     0.4290 C.2   1 <1>  -0.2880 
 15 C        8.9160    -0.4860     0.2850 C.2   1 <1>  -0.3000 
 16 H        1.2890    -1.6150    -0.8720 H     1 <1>   0.0600 
 17 H        1.7900     2.0710    -0.5400 H     1 <1>   0.1500 
 18 H        3.6660    -1.7420    -0.4290 H     1 <1>   0.1500 
 19 H        5.8070    -0.6710     0.0430 H     1 <1>   0.1500 
 20 H        3.5540     3.8620     0.9460 H     1 <1>   0.0800 
 21 H        3.3040     4.0580    -0.7660 H     1 <1>   0.0800 
 22 H        5.3940     5.1720     0.1420 H     1 <1>   0.0800 
 23 H        5.6700     4.0900    -1.1960 H     1 <1>   0.0800 
 24 H        7.3270     3.7120     0.5980 H     1 <1>   0.0800 
 25 H        6.0360     3.3560     1.7160 H     1 <1>   0.0800 
 26 H        7.9700     2.2790    -0.9930 H     1 <1>   0.0800 
 27 H        7.1770     0.7650    -1.3150 H     1 <1>   0.0800 
 28 H        8.6540     1.3700     1.2750 H     1 <1>   0.1500 
 29 H        9.5830    -0.9490     0.9920 H     1 <1>   0.1500 
 30 H        8.6980    -1.1360    -0.5450 H     1 <1>   0.1500 
@<TRIPOS>BOND
  1   1   2  2   
  2   2   3  1   
  3   2  16  1   
  4   3   4  ar  
  5   3   5  ar  
  6   4   6  ar  
  7   4  17  1   
  8   5   7  ar  
  9   5  18  1   
 10   6   8  ar  
 11   6   9  1   
 12   7   8  ar  
 13   7  19  1   
 14   8  10  1   
 15   9  11  1   
 16   9  20  1   
 17   9  21  1   
 18  10  12  1   
 19  10  13  1   
 20  11  12  1   
 21  11  22  1   
 22  11  23  1   
 23  12  24  1   
 24  12  25  1   
 25  13  14  1   
 26  13  26  1   
 27  13  27  1   
 28  14  15  2   
 29  14  28  1   
 30  15  29  1   
 31  15  30  1   
@<TRIPOS>SUBSTRUCTURE
  1 ****   8 GROUP 4 **** **** 0

# MOE 2024.06 (io_trps.svl 2023.06)
