@<TRIPOS>MOLECULE
1-(1-p-Tolyl-ethyl)-1H-[1,2,3]triazole-4-carboxylic acid (tetrahydro-furan-2-ylm
45 47 1 0 0 
SMALL
USER_CHARGES


@<TRIPOS>ATOM
  1 O        0.2730     2.2880     1.7720 O.2   1 <1>  -0.5700 
  2 C        0.4390     1.7940     0.6710 C.2   1 <1>   0.7160 
  3 N       -0.6400     1.6700    -0.1590 N.am  1 <1>  -0.7300 
  4 C        1.7500     1.3570     0.2330 C.2   1 <1>   0.1410 
  5 C       -2.0270     2.1200     0.1420 C.3   1 <1>   0.1400 
  6 N        1.9770     0.8010    -0.9780 N.2   1 <1>  -0.2270 
  7 C        2.9350     1.4110     0.8840 C.2   1 <1>  -0.3020 
  8 C       -2.1540     3.6490     0.0820 C.3   1 <1>   0.2000 
  9 N        3.2270     0.5250    -1.0780 N.2   1 <1>  -0.4180 
 10 N        3.8390     0.8920     0.0590 N.pl3 1 <1>   0.3140 
 11 O       -3.4960     4.0020     0.1540 O.3   1 <1>  -0.5600 
 12 C       -1.6790     4.2880    -1.2180 C.3   1 <1>  -0.1600 
 13 C        5.3000     0.7350     0.3320 C.3   1 <1>   0.3190 
 14 C       -3.6700     5.2960    -0.3240 C.3   1 <1>   0.1200 
 15 C       -2.5430     5.5350    -1.3260 C.3   1 <1>  -0.1600 
 16 C        6.0010     2.0910     0.2950 C.ar  1 <1>  -0.1430 
 17 C        5.9850    -0.2480    -0.6320 C.3   1 <1>  -0.2400 
 18 C        6.8190     2.4800     1.3460 C.ar  1 <1>  -0.1500 
 19 C        5.8370     2.9510    -0.7820 C.ar  1 <1>  -0.1500 
 20 C        7.4610     3.7060     1.3200 C.ar  1 <1>  -0.1500 
 21 C        6.4790     4.1760    -0.8070 C.ar  1 <1>  -0.1500 
 22 C        7.2950     4.5600     0.2430 C.ar  1 <1>  -0.1430 
 23 C        7.9980     5.9060     0.2150 C.3   1 <1>  -0.0970 
 24 H       -0.4670     1.2850    -1.0900 H     1 <1>   0.3700 
 25 H       -2.2990     1.7880     1.1300 H     1 <1>   0.0800 
 26 H       -2.7010     1.6770    -0.5690 H     1 <1>   0.0800 
 27 H        3.1530     1.7930     1.8640 H     1 <1>   0.1500 
 28 H       -1.6570     4.0950     0.9280 H     1 <1>   0.0800 
 29 H       -1.8770     3.6270    -2.0430 H     1 <1>   0.0800 
 30 H       -0.6270     4.5120    -1.1850 H     1 <1>   0.0800 
 31 H        5.3830     0.3330     1.3250 H     1 <1>   0.0800 
 32 H       -3.6010     5.9730     0.5110 H     1 <1>   0.0800 
 33 H       -4.6440     5.3660    -0.7780 H     1 <1>   0.0800 
 34 H       -2.9300     5.6610    -2.3210 H     1 <1>   0.0800 
 35 H       -1.9920     6.4160    -1.0480 H     1 <1>   0.0800 
 36 H        5.9330     0.1170    -1.6420 H     1 <1>   0.0800 
 37 H        5.5130    -1.2130    -0.5790 H     1 <1>   0.0800 
 38 H        7.0200    -0.3560    -0.3640 H     1 <1>   0.0800 
 39 H        6.9670     1.8340     2.1940 H     1 <1>   0.1500 
 40 H        5.2060     2.6720    -1.6110 H     1 <1>   0.1500 
 41 H        8.0910     3.9940     2.1430 H     1 <1>   0.1500 
 42 H        6.3380     4.8300    -1.6500 H     1 <1>   0.1500 
 43 H        8.2080     6.1990    -0.7980 H     1 <1>   0.0800 
 44 H        8.9270     5.8560     0.7530 H     1 <1>   0.0800 
 45 H        7.3720     6.6520     0.6710 H     1 <1>   0.0800 
@<TRIPOS>BOND
  1   1   2  2   
  2   2   3  am  
  3   2   4  1   
  4   3   5  1   
  5   3  24  1   
  6   4   6  1   
  7   4   7  2   
  8   5   8  1   
  9   5  25  1   
 10   5  26  1   
 11   6   9  2   
 12   7  10  1   
 13   7  27  1   
 14   8  11  1   
 15   8  12  1   
 16   8  28  1   
 17   9  10  1   
 18  10  13  1   
 19  11  14  1   
 20  12  15  1   
 21  12  29  1   
 22  12  30  1   
 23  13  16  1   
 24  13  17  1   
 25  13  31  1   
 26  14  15  1   
 27  14  32  1   
 28  14  33  1   
 29  15  34  1   
 30  15  35  1   
 31  16  18  ar  
 32  16  19  ar  
 33  17  36  1   
 34  17  37  1   
 35  17  38  1   
 36  18  20  ar  
 37  18  39  1   
 38  19  21  ar  
 39  19  40  1   
 40  20  22  ar  
 41  20  41  1   
 42  21  22  ar  
 43  21  42  1   
 44  22  23  1   
 45  23  43  1   
 46  23  44  1   
 47  23  45  1   
@<TRIPOS>SUBSTRUCTURE
  1 ****   4 GROUP 4 **** **** 0

# MOE 2024.06 (io_trps.svl 2023.06)
