@<TRIPOS>MOLECULE
N-(2-Hydroxy-6-methoxy-quinolin-3-ylmethyl)-N-isopropyl-butyramide
47 48 1 0 0 
SMALL
USER_CHARGES


@<TRIPOS>ATOM
  1 O       -2.9000     1.1460     2.6600 O.2   1 <1>  -0.5700 
  2 C       -2.7020     0.4340     1.7030 C.2   1 <1>   0.5690 
  3 N       -3.7210     0.0460     0.8650 N.am  1 <1>  -0.6600 
  4 C       -1.2610     0.0000     1.4690 C.3   1 <1>  -0.0990 
  5 C       -3.4730    -0.3820    -0.5460 C.3   1 <1>   0.2200 
  6 C       -5.1290     0.1840     1.3720 C.3   1 <1>   0.2780 
  7 C       -0.4250     1.0920     0.7790 C.3   1 <1>  -0.1600 
  8 C       -4.3770     0.3610    -1.5310 C.3   1 <1>  -0.2400 
  9 C       -3.5880    -1.8980    -0.7030 C.3   1 <1>  -0.2400 
 10 C       -5.9260    -1.1100     1.3060 C.2   1 <1>  -0.1240 
 11 C        1.0120     0.6210     0.5320 C.3   1 <1>  -0.2400 
 12 C       -5.5030    -2.2060     2.1290 C.2   1 <1>   0.6160 
 13 C       -7.0170    -1.2360     0.5060 C.2   1 <1>  -0.1780 
 14 O       -4.5640    -2.1740     2.9040 O.2   1 <1>  -0.5700 
 15 N       -6.2070    -3.3690     2.0510 N.am  1 <1>  -0.5470 
 16 C       -7.7510    -2.4630     0.4450 C.ar  1 <1>   0.0280 
 17 C       -7.3210    -3.5400     1.2360 C.ar  1 <1>   0.1170 
 18 C       -8.8710    -2.6360    -0.3680 C.ar  1 <1>  -0.1500 
 19 C       -8.0090    -4.7490     1.1960 C.ar  1 <1>  -0.1500 
 20 C       -9.5510    -3.8360    -0.4050 C.ar  1 <1>   0.0820 
 21 C       -9.1140    -4.9020     0.3850 C.ar  1 <1>  -0.1500 
 22 O      -10.6290    -3.9030    -1.2300 O.3   1 <1>  -0.3630 
 23 C      -11.3950    -5.0840    -1.3370 C.3   1 <1>   0.0400 
 24 H       -1.2360    -0.9120     0.9050 H     1 <1>   0.0800 
 25 H       -0.8300    -0.2150     2.4300 H     1 <1>   0.0800 
 26 H       -2.4650    -0.1140    -0.8080 H     1 <1>   0.0800 
 27 H       -5.6260     0.9530     0.8090 H     1 <1>   0.0800 
 28 H       -5.1270     0.5050     2.3990 H     1 <1>   0.0800 
 29 H       -0.4110     1.9690     1.4040 H     1 <1>   0.0800 
 30 H       -0.8770     1.3660    -0.1580 H     1 <1>   0.0800 
 31 H       -5.4000     0.0560    -1.4310 H     1 <1>   0.0800 
 32 H       -4.0650     0.1440    -2.5360 H     1 <1>   0.0800 
 33 H       -4.2970     1.4220    -1.3760 H     1 <1>   0.0800 
 34 H       -4.6110    -2.2210    -0.6910 H     1 <1>   0.0800 
 35 H       -3.0500    -2.3980     0.0830 H     1 <1>   0.0800 
 36 H       -3.1650    -2.1950    -1.6450 H     1 <1>   0.0800 
 37 H        1.4890     0.3680     1.4630 H     1 <1>   0.0800 
 38 H        1.5790     1.4040     0.0600 H     1 <1>   0.0800 
 39 H        1.0220    -0.2430    -0.1090 H     1 <1>   0.0800 
 40 H       -7.3680    -0.4280    -0.1100 H     1 <1>   0.1500 
 41 H       -5.8710    -4.1150     2.6560 H     1 <1>   0.3700 
 42 H       -9.2170    -1.8240    -0.9800 H     1 <1>   0.1500 
 43 H       -7.6720    -5.5680     1.8050 H     1 <1>   0.1500 
 44 H       -9.6240    -5.8460     0.3740 H     1 <1>   0.1500 
 45 H      -12.1890    -4.9030    -2.0390 H     1 <1>   0.0800 
 46 H      -11.8070    -5.3220    -0.3730 H     1 <1>   0.0800 
 47 H      -10.7640    -5.8780    -1.6960 H     1 <1>   0.0800 
@<TRIPOS>BOND
  1   1   2  2   
  2   2   3  am  
  3   2   4  1   
  4   3   5  1   
  5   3   6  1   
  6   4   7  1   
  7   4  24  1   
  8   4  25  1   
  9   5   8  1   
 10   5   9  1   
 11   5  26  1   
 12   6  10  1   
 13   6  27  1   
 14   6  28  1   
 15   7  11  1   
 16   7  29  1   
 17   7  30  1   
 18   8  31  1   
 19   8  32  1   
 20   8  33  1   
 21   9  34  1   
 22   9  35  1   
 23   9  36  1   
 24  10  12  1   
 25  10  13  2   
 26  11  37  1   
 27  11  38  1   
 28  11  39  1   
 29  12  14  2   
 30  12  15  am  
 31  13  16  1   
 32  13  40  1   
 33  15  17  1   
 34  15  41  1   
 35  16  17  ar  
 36  16  18  ar  
 37  17  19  ar  
 38  18  20  ar  
 39  18  42  1   
 40  19  21  ar  
 41  19  43  1   
 42  20  21  ar  
 43  20  22  1   
 44  21  44  1   
 45  22  23  1   
 46  23  45  1   
 47  23  46  1   
 48  23  47  1   
@<TRIPOS>SUBSTRUCTURE
  1 ****  10 GROUP 4 **** **** 0

# MOE 2024.06 (io_trps.svl 2023.06)
