@<TRIPOS>MOLECULE
2-[4-(4-Fluoro-benzenesulfonyl)-piperazin-1-yl]-N-(4-methoxy-phenyl)-acetamide
50 52 1 0 0 
SMALL
USER_CHARGES


@<TRIPOS>ATOM
  1 S       -0.1260     0.1340    -1.3090 S.o2  1 <1>   1.4470 
  2 O        0.1990     1.4470    -1.8180 O.2   1 <1>  -0.6500 
  3 O       -0.3490    -0.9560    -2.2350 O.2   1 <1>  -0.6500 
  4 N       -1.5450     0.2980    -0.3980 N.am  1 <1>  -0.8490 
  5 C        1.1060    -0.3440    -0.0620 C.ar  1 <1>  -0.0090 
  6 C       -2.5790     1.0250    -1.1540 C.3   1 <1>   0.1960 
  7 C       -2.0800    -1.0010     0.0470 C.3   1 <1>   0.1960 
  8 C        1.8540    -1.5130    -0.2000 C.ar  1 <1>  -0.1500 
  9 C        1.3230     0.4530     1.0600 C.ar  1 <1>  -0.1500 
 10 C       -3.8690     1.1990    -0.3290 C.3   1 <1>   0.1100 
 11 C       -3.3610    -0.8240     0.8840 C.3   1 <1>   0.1100 
 12 C        2.7890    -1.8830     0.7540 C.ar  1 <1>  -0.1500 
 13 C        2.2530     0.1000     2.0240 C.ar  1 <1>  -0.1500 
 14 N       -4.4070    -0.1010     0.1230 N.3   1 <1>  -0.8100 
 15 C        2.9710    -1.0660     1.8520 C.ar  1 <1>   0.1900 
 16 C       -5.6380     0.0880     0.9510 C.3   1 <1>   0.1710 
 17 F        3.8490    -1.4080     2.7550 F     1 <1>  -0.1900 
 18 C       -6.4470    -1.1960     1.1480 C.2   1 <1>   0.5690 
 19 O       -7.1470    -1.3040     2.1260 O.2   1 <1>  -0.5700 
 20 N       -6.3050    -2.1510     0.1830 N.am  1 <1>  -0.5470 
 21 C       -6.8360    -3.4400     0.0140 C.ar  1 <1>   0.1170 
 22 C       -7.8470    -3.9620     0.8150 C.ar  1 <1>  -0.1500 
 23 C       -6.3280    -4.2330    -1.0080 C.ar  1 <1>  -0.1500 
 24 C       -8.3330    -5.2410     0.6080 C.ar  1 <1>  -0.1500 
 25 C       -6.8100    -5.5120    -1.2200 C.ar  1 <1>  -0.1500 
 26 C       -7.8130    -6.0270    -0.4160 C.ar  1 <1>   0.0830 
 27 O       -8.2290    -7.2920    -0.6890 O.3   1 <1>  -0.3630 
 28 C       -9.2390    -7.9030     0.0810 C.3   1 <1>   0.0400 
 29 H       -2.8090     0.4960    -2.0640 H     1 <1>   0.0800 
 30 H       -2.2100     2.0010    -1.4210 H     1 <1>   0.0800 
 31 H       -1.3430    -1.5090     0.6450 H     1 <1>   0.0800 
 32 H       -2.3070    -1.6230    -0.8030 H     1 <1>   0.0800 
 33 H        1.7050    -2.1390    -1.0640 H     1 <1>   0.1500 
 34 H        0.7540     1.3610     1.1760 H     1 <1>   0.1500 
 35 H       -4.6040     1.6980    -0.9380 H     1 <1>   0.0800 
 36 H       -3.6560     1.8270     0.5200 H     1 <1>   0.0800 
 37 H       -3.1170    -0.2830     1.7830 H     1 <1>   0.0800 
 38 H       -3.7240    -1.7960     1.1700 H     1 <1>   0.0800 
 39 H        3.3670    -2.7840     0.6500 H     1 <1>   0.1500 
 40 H        2.4230     0.7150     2.8900 H     1 <1>   0.1500 
 41 H       -6.2870     0.7950     0.4660 H     1 <1>   0.0800 
 42 H       -5.3770     0.4870     1.9150 H     1 <1>   0.0800 
 43 H       -5.6120    -1.8610    -0.5140 H     1 <1>   0.3700 
 44 H       -8.2630    -3.3710     1.6090 H     1 <1>   0.1500 
 45 H       -5.5500    -3.8530    -1.6440 H     1 <1>   0.1500 
 46 H       -9.1120    -5.6030     1.2510 H     1 <1>   0.1500 
 47 H       -6.4130    -6.1220    -2.0120 H     1 <1>   0.1500 
 48 H       -9.4020    -8.8930    -0.3060 H     1 <1>   0.0800 
 49 H      -10.1420    -7.3240    -0.0040 H     1 <1>   0.0800 
 50 H       -8.9110    -7.9610     1.1040 H     1 <1>   0.0800 
@<TRIPOS>BOND
  1   1   2  2   
  2   1   3  2   
  3   1   4  am  
  4   1   5  1   
  5   4   6  1   
  6   4   7  1   
  7   5   8  ar  
  8   5   9  ar  
  9   6  10  1   
 10   6  29  1   
 11   6  30  1   
 12   7  11  1   
 13   7  31  1   
 14   7  32  1   
 15   8  12  ar  
 16   8  33  1   
 17   9  13  ar  
 18   9  34  1   
 19  10  14  1   
 20  10  35  1   
 21  10  36  1   
 22  11  14  1   
 23  11  37  1   
 24  11  38  1   
 25  12  15  ar  
 26  12  39  1   
 27  13  15  ar  
 28  13  40  1   
 29  14  16  1   
 30  15  17  1   
 31  16  18  1   
 32  16  41  1   
 33  16  42  1   
 34  18  19  2   
 35  18  20  am  
 36  20  21  1   
 37  20  43  1   
 38  21  22  ar  
 39  21  23  ar  
 40  22  24  ar  
 41  22  44  1   
 42  23  25  ar  
 43  23  45  1   
 44  24  26  ar  
 45  24  46  1   
 46  25  26  ar  
 47  25  47  1   
 48  26  27  1   
 49  27  28  1   
 50  28  48  1   
 51  28  49  1   
 52  28  50  1   
@<TRIPOS>SUBSTRUCTURE
  1 ****  11 GROUP 4 **** **** 0

# MOE 2024.06 (io_trps.svl 2023.06)
