@<TRIPOS>MOLECULE
3-tert-Butyl-1H-pyrazole-4-carbaldehyde
23 23 1 0 0 
SMALL
USER_CHARGES


@<TRIPOS>ATOM
  1 O       -0.6850    -0.1200     2.0400 O.2   1 <1>  -0.5700 
  2 C       -1.7210    -0.3500     1.4660 C.2   1 <1>   0.5960 
  3 C       -2.1090    -1.6370     0.9680 C.2   1 <1>  -0.0860 
  4 C       -3.2200    -2.0890     0.3040 C.2   1 <1>  -0.3320 
  5 C       -1.3150    -2.7810     1.0950 C.2   1 <1>   0.1390 
  6 N       -3.0280    -3.4040     0.0890 N.pl3 1 <1>   0.3000 
  7 C       -4.4780    -1.3460    -0.1500 C.3   1 <1>   0.1800 
  8 N       -1.8540    -3.8350     0.5750 N.2   1 <1>  -0.7070 
  9 C       -5.4580    -2.2910    -0.8650 C.3   1 <1>  -0.2400 
 10 C       -4.0900    -0.2330    -1.1290 C.3   1 <1>  -0.2400 
 11 C       -5.1910    -0.7530     1.0700 C.3   1 <1>  -0.2400 
 12 H       -2.4000     0.4670     1.3200 H     1 <1>   0.0600 
 13 H       -0.3500    -2.7830     1.5780 H     1 <1>   0.1500 
 14 H       -3.6800    -4.0390    -0.3880 H     1 <1>   0.2700 
 15 H       -5.0050    -2.7200    -1.7410 H     1 <1>   0.0800 
 16 H       -6.3360    -1.7530    -1.1770 H     1 <1>   0.0800 
 17 H       -5.7730    -3.0830    -0.2080 H     1 <1>   0.0800 
 18 H       -3.5610    -0.6470    -1.9690 H     1 <1>   0.0800 
 19 H       -3.4570     0.4960    -0.6610 H     1 <1>   0.0800 
 20 H       -4.9660     0.2720    -1.4930 H     1 <1>   0.0800 
 21 H       -5.4340    -1.5320     1.7710 H     1 <1>   0.0800 
 22 H       -6.1020    -0.2640     0.7740 H     1 <1>   0.0800 
 23 H       -4.5750    -0.0320     1.5710 H     1 <1>   0.0800 
@<TRIPOS>BOND
  1   1   2  2   
  2   2   3  1   
  3   2  12  1   
  4   3   4  2   
  5   3   5  1   
  6   4   6  1   
  7   4   7  1   
  8   5   8  2   
  9   5  13  1   
 10   6   8  1   
 11   6  14  1   
 12   7   9  1   
 13   7  10  1   
 14   7  11  1   
 15   9  15  1   
 16   9  16  1   
 17   9  17  1   
 18  10  18  1   
 19  10  19  1   
 20  10  20  1   
 21  11  21  1   
 22  11  22  1   
 23  11  23  1   
@<TRIPOS>SUBSTRUCTURE
  1 ****   4 GROUP 4 **** **** 0

# MOE 2024.06 (io_trps.svl 2023.06)
