@<TRIPOS>MOLECULE
(6-Chloro-5,7-dimethyl-[1,2,4]triazolo[1,5-a]pyrimidin-2-yl)-(4-ethoxy-benzyl)-a
42 44 1 0 0 
SMALL
USER_CHARGES


@<TRIPOS>ATOM
  1 CL      -2.1370    -0.6920    -2.9410 Cl    1 <1>  -0.1400 
  2 C       -3.2240    -1.0190    -1.6030 C.2   1 <1>   0.1540 
  3 C       -3.2400    -2.3150    -1.0300 C.2   1 <1>   0.3750 
  4 C       -4.0510    -0.0500    -1.1090 C.2   1 <1>   0.2410 
  5 N       -4.0160    -2.6430    -0.0350 N.2   1 <1>  -0.6120 
  6 C       -2.3230    -3.3960    -1.5740 C.3   1 <1>  -0.1790 
  7 N       -4.8570    -0.4200    -0.0640 N.pl3 1 <1>  -0.3220 
  8 C       -4.1480     1.3840    -1.6130 C.3   1 <1>  -0.1020 
  9 C       -4.8090    -1.6690     0.4180 C.cat 1 <1>   0.9620 
 10 N       -5.7710     0.3010     0.6520 N.2   1 <1>  -0.2600 
 11 N       -5.6660    -1.7570     1.4040 N.pl3 1 <1>  -0.7000 
 12 C       -6.2270    -0.5500     1.5200 C.2   1 <1>   0.7490 
 13 N       -7.1590    -0.3480     2.4870 N.pl3 1 <1>  -0.8650 
 14 C       -8.0420     0.8380     2.4470 C.3   1 <1>   0.3530 
 15 C       -9.2750     0.4610     1.6490 C.ar  1 <1>  -0.1430 
 16 C       -9.3710     0.7880     0.3030 C.ar  1 <1>  -0.1500 
 17 C      -10.3170    -0.2240     2.2570 C.ar  1 <1>  -0.1500 
 18 C      -10.4910     0.4330    -0.4280 C.ar  1 <1>  -0.1500 
 19 C      -11.4360    -0.5810     1.5270 C.ar  1 <1>  -0.1500 
 20 C      -11.5330    -0.2570     0.1840 C.ar  1 <1>   0.0820 
 21 O      -12.6650    -0.6430    -0.4540 O.3   1 <1>  -0.3620 
 22 C      -12.9020    -0.3060    -1.8010 C.3   1 <1>   0.1200 
 23 C      -14.2690    -0.8590    -2.1920 C.3   1 <1>  -0.2400 
 24 H       -1.2950    -3.0940    -1.4800 H     1 <1>   0.0800 
 25 H       -2.5400    -3.5790    -2.6110 H     1 <1>   0.0800 
 26 H       -2.4550    -4.3160    -1.0330 H     1 <1>   0.0800 
 27 H       -5.1480     1.5860    -1.9510 H     1 <1>   0.0800 
 28 H       -3.4740     1.5690    -2.4300 H     1 <1>   0.0800 
 29 H       -3.9090     2.0680    -0.8190 H     1 <1>   0.0800 
 30 H       -5.8170    -2.5730     1.9800 H     1 <1>   0.4500 
 31 H       -7.6910    -1.1770     2.7560 H     1 <1>   0.4000 
 32 H       -7.5420     1.6810     2.0000 H     1 <1>   0.0800 
 33 H       -8.3230     1.1120     3.4510 H     1 <1>   0.0800 
 34 H       -8.5750     1.3230    -0.1850 H     1 <1>   0.1500 
 35 H      -10.2700    -0.4830     3.3010 H     1 <1>   0.1500 
 36 H      -10.5380     0.7010    -1.4670 H     1 <1>   0.1500 
 37 H      -12.2470    -1.1120     1.9930 H     1 <1>   0.1500 
 38 H      -12.1280    -0.7470    -2.4050 H     1 <1>   0.0800 
 39 H      -12.8850     0.7660    -1.8930 H     1 <1>   0.0800 
 40 H      -14.2800    -1.9290    -2.0810 H     1 <1>   0.0800 
 41 H      -14.4810    -0.6180    -3.2180 H     1 <1>   0.0800 
 42 H      -15.0340    -0.4260    -1.5720 H     1 <1>   0.0800 
@<TRIPOS>BOND
  1   1   2  1   
  2   2   3  1   
  3   2   4  2   
  4   3   5  2   
  5   3   6  1   
  6   4   7  1   
  7   4   8  1   
  8   5   9  1   
  9   6  24  1   
 10   6  25  1   
 11   6  26  1   
 12   7   9  ar  
 13   7  10  1   
 14   8  27  1   
 15   8  28  1   
 16   8  29  1   
 17   9  11  ar  
 18  10  12  2   
 19  11  12  1   
 20  11  30  1   
 21  12  13  1   
 22  13  14  1   
 23  13  31  1   
 24  14  15  1   
 25  14  32  1   
 26  14  33  1   
 27  15  16  ar  
 28  15  17  ar  
 29  16  18  ar  
 30  16  34  1   
 31  17  19  ar  
 32  17  35  1   
 33  18  20  ar  
 34  18  36  1   
 35  19  20  ar  
 36  19  37  1   
 37  20  21  1   
 38  21  22  1   
 39  22  23  1   
 40  22  38  1   
 41  22  39  1   
 42  23  40  1   
 43  23  41  1   
 44  23  42  1   
@<TRIPOS>SUBSTRUCTURE
  1 ****  12 GROUP 4 **** **** 0

# MOE 2024.06 (io_trps.svl 2023.06)
