@<TRIPOS>MOLECULE
1-(4,6-Dimethyl-pyrimidin-2-yl)-6-(3,4,5-trimethoxy-phenyl)-1,5,6,7-tetrahydro-i
54 57 1 0 0 
SMALL
USER_CHARGES


@<TRIPOS>ATOM
  1 O       -0.1360    -0.0290     1.8960 O.2   1 <1>  -0.5700 
  2 C       -0.3410    -1.1390     1.4780 C.2   1 <1>   0.5950 
  3 C       -1.6000    -1.5960     0.9780 C.2   1 <1>  -0.0860 
  4 C        0.7870    -2.1610     1.4790 C.3   1 <1>  -0.0990 
  5 C       -1.8280    -2.8220     0.4480 C.2   1 <1>  -0.3320 
  6 C       -2.8420    -0.9680     0.9060 C.2   1 <1>   0.1390 
  7 C        0.6420    -3.1970     0.3380 C.3   1 <1>   0.0640 
  8 N       -3.1370    -2.9210     0.0900 N.pl3 1 <1>   0.5930 
  9 C       -0.7440    -3.8780     0.3050 C.3   1 <1>   0.0200 
 10 N       -3.7530    -1.7270     0.3890 N.2   1 <1>  -0.7070 
 11 C        1.7510    -4.2430     0.3830 C.ar  1 <1>  -0.1440 
 12 C       -3.7720    -4.0640    -0.5130 C.ar  1 <1>   0.5970 
 13 C        2.5970    -4.4010    -0.7040 C.ar  1 <1>  -0.1500 
 14 C        1.9340    -5.0550     1.4940 C.ar  1 <1>  -0.1500 
 15 N       -4.6240    -4.7710     0.2400 N.ar  1 <1>  -0.6200 
 16 N       -3.4320    -4.3560    -1.7760 N.ar  1 <1>  -0.6200 
 17 C        3.6020    -5.3520    -0.6890 C.ar  1 <1>   0.0830 
 18 C        2.9340    -6.0130     1.5310 C.ar  1 <1>   0.0830 
 19 C       -5.1880    -5.8100    -0.3230 C.ar  1 <1>   0.1670 
 20 C       -4.0070    -5.4020    -2.3160 C.ar  1 <1>   0.1670 
 21 O        4.3850    -5.4320    -1.7950 O.3   1 <1>  -0.3630 
 22 C        3.7660    -6.1890     0.4190 C.ar  1 <1>   0.0830 
 23 O        3.0120    -6.7350     2.6830 O.3   1 <1>  -0.3630 
 24 C       -4.9070    -6.1700    -1.6180 C.ar  1 <1>  -0.1500 
 25 C       -6.1660    -6.6000     0.5220 C.3   1 <1>  -0.0970 
 26 C       -3.6350    -5.7280    -3.7460 C.3   1 <1>  -0.0970 
 27 C        5.7540    -5.1340    -1.6300 C.3   1 <1>   0.0400 
 28 O        4.7020    -7.1770     0.3950 O.3   1 <1>  -0.3630 
 29 C        4.2750    -7.0700     3.2180 C.3   1 <1>   0.0400 
 30 C        4.3460    -8.3180    -0.3530 C.3   1 <1>   0.0400 
 31 H        0.7810    -2.6520     2.4330 H     1 <1>   0.0800 
 32 H        1.7250    -1.6460     1.3770 H     1 <1>   0.0800 
 33 H       -3.0190     0.0410     1.2450 H     1 <1>   0.1500 
 34 H        0.7340    -2.6490    -0.5850 H     1 <1>   0.0800 
 35 H       -0.8510    -4.4080    -0.6260 H     1 <1>   0.0800 
 36 H       -0.8360    -4.5890     1.1080 H     1 <1>   0.0800 
 37 H        2.4880    -3.7890    -1.5810 H     1 <1>   0.1500 
 38 H        1.2980    -4.9600     2.3560 H     1 <1>   0.1500 
 39 H       -5.3760    -7.0230    -2.0700 H     1 <1>   0.1500 
 40 H       -5.6660    -6.9730     1.3970 H     1 <1>   0.0800 
 41 H       -6.5720    -7.4280    -0.0280 H     1 <1>   0.0800 
 42 H       -6.9710    -5.9580     0.8310 H     1 <1>   0.0800 
 43 H       -2.5790    -5.9180    -3.8090 H     1 <1>   0.0800 
 44 H       -3.8750    -4.8930    -4.3790 H     1 <1>   0.0800 
 45 H       -4.1660    -6.5930    -4.0980 H     1 <1>   0.0800 
 46 H        5.8460    -4.2000    -1.1050 H     1 <1>   0.0800 
 47 H        6.2000    -5.0550    -2.6050 H     1 <1>   0.0800 
 48 H        6.2280    -5.9240    -1.0760 H     1 <1>   0.0800 
 49 H        4.1560    -7.2480     4.2710 H     1 <1>   0.0800 
 50 H        4.9560    -6.2530     3.0560 H     1 <1>   0.0800 
 51 H        4.6320    -7.9620     2.7380 H     1 <1>   0.0800 
 52 H        5.1440    -9.0330    -0.2760 H     1 <1>   0.0800 
 53 H        4.2030    -8.0340    -1.3810 H     1 <1>   0.0800 
 54 H        3.4390    -8.7290     0.0530 H     1 <1>   0.0800 
@<TRIPOS>BOND
  1   1   2  2   
  2   2   3  1   
  3   2   4  1   
  4   3   5  2   
  5   3   6  1   
  6   4   7  1   
  7   4  31  1   
  8   4  32  1   
  9   5   8  1   
 10   5   9  1   
 11   6  10  2   
 12   6  33  1   
 13   7   9  1   
 14   7  11  1   
 15   7  34  1   
 16   8  10  1   
 17   8  12  1   
 18   9  35  1   
 19   9  36  1   
 20  11  13  ar  
 21  11  14  ar  
 22  12  15  ar  
 23  12  16  ar  
 24  13  17  ar  
 25  13  37  1   
 26  14  18  ar  
 27  14  38  1   
 28  15  19  ar  
 29  16  20  ar  
 30  17  21  1   
 31  17  22  ar  
 32  18  22  ar  
 33  18  23  1   
 34  19  24  ar  
 35  19  25  1   
 36  20  24  ar  
 37  20  26  1   
 38  21  27  1   
 39  22  28  1   
 40  23  29  1   
 41  24  39  1   
 42  25  40  1   
 43  25  41  1   
 44  25  42  1   
 45  26  43  1   
 46  26  44  1   
 47  26  45  1   
 48  27  46  1   
 49  27  47  1   
 50  27  48  1   
 51  28  30  1   
 52  29  49  1   
 53  29  50  1   
 54  29  51  1   
 55  30  52  1   
 56  30  53  1   
 57  30  54  1   
@<TRIPOS>SUBSTRUCTURE
  1 ****   9 GROUP 4 **** **** 0

# MOE 2024.06 (io_trps.svl 2023.06)
