@<TRIPOS>MOLECULE
1-(3-Chloro-4-ethoxy-benzenesulfonyl)-piperidine-4-carboxylic acid (2-methoxy-et
51 52 1 0 0 
SMALL
USER_CHARGES


@<TRIPOS>ATOM
  1 CL      -0.3020     0.5710     1.5780 Cl    1 <1>  -0.1770 
  2 C        0.2100     1.9490     0.6260 C.ar  1 <1>   0.1770 
  3 C        0.1370     1.9780    -0.7690 C.ar  1 <1>   0.0820 
  4 C        0.7270     3.0220     1.3300 C.ar  1 <1>  -0.1500 
  5 O       -0.3560     0.9930    -1.5620 O.3   1 <1>  -0.3630 
  6 C        0.6150     3.1000    -1.4270 C.ar  1 <1>  -0.1500 
  7 C        1.2000     4.1530     0.6730 C.ar  1 <1>  -0.0090 
  8 C       -1.5110     0.2700    -1.1990 C.3   1 <1>   0.1200 
  9 C        1.1330     4.1690    -0.7160 C.ar  1 <1>  -0.1500 
 10 S        1.8750     5.5620     1.5950 S.o2  1 <1>   1.4470 
 11 C       -2.1960    -0.1970    -2.4800 C.3   1 <1>  -0.2400 
 12 O        2.2650     5.1430     2.9250 O.2   1 <1>  -0.6500 
 13 O        0.9850     6.6920     1.4420 O.2   1 <1>  -0.6500 
 14 N        3.3080     5.9230     0.7610 N.am  1 <1>  -0.8490 
 15 C        4.3510     4.9200     0.9980 C.3   1 <1>   0.1960 
 16 C        3.7820     7.2750     1.0680 C.3   1 <1>   0.1960 
 17 C        5.5620     5.1940     0.1040 C.3   1 <1>  -0.1600 
 18 C        4.9840     7.6310     0.1890 C.3   1 <1>  -0.1600 
 19 C        6.1210     6.6070     0.3410 C.3   1 <1>  -0.0190 
 20 C        7.2870     6.9290    -0.5920 C.2   1 <1>   0.5690 
 21 O        7.1630     6.7640    -1.7810 O.2   1 <1>  -0.5700 
 22 N        8.4440     7.3950    -0.0550 N.am  1 <1>  -0.7300 
 23 C        9.6300     7.8180    -0.8470 C.3   1 <1>   0.1400 
 24 C       10.4050     6.6020    -1.3550 C.3   1 <1>   0.1200 
 25 O       11.6190     7.0420    -1.8790 O.3   1 <1>  -0.5600 
 26 C       12.3790     6.0320    -2.4590 C.3   1 <1>   0.0400 
 27 H        0.7660     2.9730     2.4040 H     1 <1>   0.1500 
 28 H        0.5740     3.1320    -2.5020 H     1 <1>   0.1500 
 29 H       -2.1620     0.9130    -0.6320 H     1 <1>   0.0800 
 30 H       -1.2100    -0.5750    -0.6060 H     1 <1>   0.0800 
 31 H        1.4940     5.0350    -1.2480 H     1 <1>   0.1500 
 32 H       -2.4780     0.6510    -3.0780 H     1 <1>   0.0800 
 33 H       -3.0810    -0.7550    -2.2360 H     1 <1>   0.0800 
 34 H       -1.5350    -0.8310    -3.0430 H     1 <1>   0.0800 
 35 H        3.9690     3.9370     0.7740 H     1 <1>   0.0800 
 36 H        4.6500     4.9350     2.0340 H     1 <1>   0.0800 
 37 H        4.0480     7.3410     2.1110 H     1 <1>   0.0800 
 38 H        2.9970     7.9890     0.8770 H     1 <1>   0.0800 
 39 H        5.2640     5.0850    -0.9250 H     1 <1>   0.0800 
 40 H        6.3270     4.4640     0.3020 H     1 <1>   0.0800 
 41 H        5.3400     8.6110     0.4510 H     1 <1>   0.0800 
 42 H        4.6620     7.6650    -0.8380 H     1 <1>   0.0800 
 43 H        6.4790     6.6550     1.3540 H     1 <1>   0.0800 
 44 H        8.5270     7.5170     0.9550 H     1 <1>   0.3700 
 45 H       10.2710     8.4210    -0.2290 H     1 <1>   0.0800 
 46 H        9.3050     8.4050    -1.6900 H     1 <1>   0.0800 
 47 H        9.8460     6.1080    -2.1320 H     1 <1>   0.0800 
 48 H       10.6110     5.9220    -0.5480 H     1 <1>   0.0800 
 49 H       13.2920     6.4680    -2.8250 H     1 <1>   0.0800 
 50 H       11.8300     5.6000    -3.2770 H     1 <1>   0.0800 
 51 H       12.6050     5.2860    -1.7170 H     1 <1>   0.0800 
@<TRIPOS>BOND
  1   1   2  1   
  2   2   3  ar  
  3   2   4  ar  
  4   3   5  1   
  5   3   6  ar  
  6   4   7  ar  
  7   4  27  1   
  8   5   8  1   
  9   6   9  ar  
 10   6  28  1   
 11   7   9  ar  
 12   7  10  1   
 13   8  11  1   
 14   8  29  1   
 15   8  30  1   
 16   9  31  1   
 17  10  12  2   
 18  10  13  2   
 19  10  14  am  
 20  11  32  1   
 21  11  33  1   
 22  11  34  1   
 23  14  15  1   
 24  14  16  1   
 25  15  17  1   
 26  15  35  1   
 27  15  36  1   
 28  16  18  1   
 29  16  37  1   
 30  16  38  1   
 31  17  19  1   
 32  17  39  1   
 33  17  40  1   
 34  18  19  1   
 35  18  41  1   
 36  18  42  1   
 37  19  20  1   
 38  19  43  1   
 39  20  21  2   
 40  20  22  am  
 41  22  23  1   
 42  22  44  1   
 43  23  24  1   
 44  23  45  1   
 45  23  46  1   
 46  24  25  1   
 47  24  47  1   
 48  24  48  1   
 49  25  26  1   
 50  26  49  1   
 51  26  50  1   
 52  26  51  1   
@<TRIPOS>SUBSTRUCTURE
  1 ****  15 GROUP 4 **** **** 0

# MOE 2024.06 (io_trps.svl 2023.06)
