@<TRIPOS>MOLECULE
1-[4-(2-Hydroxy-3-imidazol-1-yl-propoxy)-3-methoxy-phenyl]-ethanone
39 40 1 0 0 
SMALL
USER_CHARGES


@<TRIPOS>ATOM
  1 O       -0.4310    -0.6350     0.8320 O.2   1 <1>  -0.5700 
  2 C       -1.1450    -1.3780     0.2100 C.2   1 <1>   0.4230 
  3 C       -2.5870    -1.2510     0.1840 C.ar  1 <1>   0.0860 
  4 C       -0.4550    -2.4830    -0.5670 C.3   1 <1>  -0.1790 
  5 C       -3.4220    -2.1480    -0.4900 C.ar  1 <1>  -0.1500 
  6 C       -3.2130    -0.1940     0.8520 C.ar  1 <1>  -0.1500 
  7 C       -4.7950    -1.9990    -0.4950 C.ar  1 <1>   0.0830 
  8 C       -4.5850    -0.0260     0.8460 C.ar  1 <1>  -0.1500 
  9 O       -5.5240    -2.9170    -1.1730 O.3   1 <1>  -0.3630 
 10 C       -5.3980    -0.9230     0.1620 C.ar  1 <1>   0.0830 
 11 C       -6.2310    -3.8530    -0.3910 C.3   1 <1>   0.0400 
 12 O       -6.7480    -0.7910     0.0960 O.3   1 <1>  -0.3630 
 13 C       -7.4050     0.3720     0.5570 C.3   1 <1>   0.1200 
 14 C       -8.8790     0.3060     0.1500 C.3   1 <1>   0.2000 
 15 O       -9.5280     1.3880     0.7330 O.3   1 <1>  -0.6800 
 16 C       -9.5490    -1.0020     0.5960 C.3   1 <1>   0.0960 
 17 N      -10.9900    -0.9890     0.2830 N.pl3 1 <1>   0.0480 
 18 C      -12.0130    -0.6670     1.1060 C.2   1 <1>   0.0360 
 19 C      -11.5730    -1.2400    -0.9040 C.2   1 <1>  -0.3020 
 20 N      -13.1740    -0.6930     0.5370 N.2   1 <1>  -0.5650 
 21 C      -12.9000    -1.0570    -0.7300 C.2   1 <1>   0.0770 
 22 H       -0.7530    -3.4420    -0.1860 H     1 <1>   0.0800 
 23 H        0.6110    -2.3910    -0.4640 H     1 <1>   0.0800 
 24 H       -0.7040    -2.4120    -1.6100 H     1 <1>   0.0800 
 25 H       -3.0110    -2.9830    -1.0260 H     1 <1>   0.1500 
 26 H       -2.6000     0.5130     1.3880 H     1 <1>   0.1500 
 27 H       -4.9980     0.8100     1.3790 H     1 <1>   0.1500 
 28 H       -6.7300    -4.5360    -1.0550 H     1 <1>   0.0800 
 29 H       -6.9530    -3.3360     0.2140 H     1 <1>   0.0800 
 30 H       -5.5330    -4.3850     0.2300 H     1 <1>   0.0800 
 31 H       -6.9390     1.2300     0.1050 H     1 <1>   0.0800 
 32 H       -7.3100     0.4090     1.6270 H     1 <1>   0.0800 
 33 H       -8.9530     0.4150    -0.9190 H     1 <1>   0.0800 
 34 H      -10.4620     1.4280     0.4320 H     1 <1>   0.4000 
 35 H       -9.4170    -1.1400     1.6540 H     1 <1>   0.0800 
 36 H       -9.0980    -1.8340     0.0880 H     1 <1>   0.0800 
 37 H      -11.8540    -0.4090     2.1390 H     1 <1>   0.1500 
 38 H      -11.0310    -1.5270    -1.7860 H     1 <1>   0.1500 
 39 H      -13.6850    -1.1690    -1.4590 H     1 <1>   0.1500 
@<TRIPOS>BOND
  1   1   2  2   
  2   2   3  1   
  3   2   4  1   
  4   3   5  ar  
  5   3   6  ar  
  6   4  22  1   
  7   4  23  1   
  8   4  24  1   
  9   5   7  ar  
 10   5  25  1   
 11   6   8  ar  
 12   6  26  1   
 13   7   9  1   
 14   7  10  ar  
 15   8  10  ar  
 16   8  27  1   
 17   9  11  1   
 18  10  12  1   
 19  11  28  1   
 20  11  29  1   
 21  11  30  1   
 22  12  13  1   
 23  13  14  1   
 24  13  31  1   
 25  13  32  1   
 26  14  15  1   
 27  14  16  1   
 28  14  33  1   
 29  15  34  1   
 30  16  17  1   
 31  16  35  1   
 32  16  36  1   
 33  17  18  1   
 34  17  19  1   
 35  18  20  2   
 36  18  37  1   
 37  19  21  2   
 38  19  38  1   
 39  20  21  1   
 40  21  39  1   
@<TRIPOS>SUBSTRUCTURE
  1 ****  12 GROUP 4 **** **** 0

# MOE 2024.06 (io_trps.svl 2023.06)
