@<TRIPOS>MOLECULE
N-(2-Ethyl-2H-tetrazol-5-yl)-2-(2-isopropyl-5-methyl-phenoxy)-acetamide
43 44 1 0 0 
SMALL
USER_CHARGES


@<TRIPOS>ATOM
  1 O       -1.0410    -3.8950    -2.4420 O.2   1 <1>  -0.5700 
  2 C       -0.3780    -3.2360    -1.6800 C.2   1 <1>   0.5690 
  3 N       -0.8790    -2.2440    -0.8990 N.am  1 <1>  -0.4930 
  4 C        1.1120    -3.5360    -1.5890 C.3   1 <1>   0.1810 
  5 C       -2.1650    -1.7520    -0.7570 C.2   1 <1>   0.5790 
  6 O        1.7490    -2.6760    -0.6530 O.3   1 <1>  -0.3630 
  7 N       -3.2420    -2.1940    -1.4020 N.2   1 <1>  -0.2270 
  8 N       -2.3860    -0.7890     0.0530 N.2   1 <1>  -0.7070 
  9 C        3.0800    -2.7560    -0.3870 C.ar  1 <1>   0.0830 
 10 N       -4.2130    -1.4790    -0.9850 N.2   1 <1>  -0.4180 
 11 N       -3.6890    -0.6390    -0.1100 N.pl3 1 <1>   0.5800 
 12 C        3.6170    -1.8800     0.5580 C.ar  1 <1>  -0.1440 
 13 C        3.9070    -3.6800    -1.0270 C.ar  1 <1>  -0.1500 
 14 C       -4.4800     0.3750     0.6160 C.3   1 <1>   0.0960 
 15 C        4.9750    -1.9540     0.8390 C.ar  1 <1>  -0.1500 
 16 C        2.7540    -0.8440     1.2910 C.3   1 <1>   0.0630 
 17 C        5.2580    -3.7400    -0.7370 C.ar  1 <1>  -0.1430 
 18 C       -4.8820    -0.1130     2.0160 C.3   1 <1>  -0.2400 
 19 C        5.7880    -2.8730     0.2010 C.ar  1 <1>  -0.1500 
 20 C        3.2310     0.5810     0.9880 C.3   1 <1>  -0.2400 
 21 C        2.7500    -1.1040     2.8020 C.3   1 <1>  -0.2400 
 22 C        6.1560    -4.7470    -1.4340 C.3   1 <1>  -0.0970 
 23 H       -0.2100    -1.7650    -0.3030 H     1 <1>   0.3700 
 24 H        1.5630    -3.3870    -2.5520 H     1 <1>   0.0800 
 25 H        1.2500    -4.5520    -1.2680 H     1 <1>   0.0800 
 26 H        3.5180    -4.3640    -1.7550 H     1 <1>   0.1500 
 27 H       -5.3580     0.5950     0.0360 H     1 <1>   0.0800 
 28 H       -3.8870     1.2680     0.6920 H     1 <1>   0.0800 
 29 H        5.4140    -1.2930     1.5640 H     1 <1>   0.1500 
 30 H        1.7350    -0.9100     0.9590 H     1 <1>   0.0800 
 31 H       -5.4830    -1.0030     1.9420 H     1 <1>   0.0800 
 32 H       -5.4550     0.6460     2.5180 H     1 <1>   0.0800 
 33 H       -4.0050    -0.3240     2.6030 H     1 <1>   0.0800 
 34 H        6.8360    -2.9080     0.4400 H     1 <1>   0.1500 
 35 H        4.2240     0.7450     1.3630 H     1 <1>   0.0800 
 36 H        2.5700     1.2980     1.4410 H     1 <1>   0.0800 
 37 H        3.2340     0.7440    -0.0750 H     1 <1>   0.0800 
 38 H        3.7340    -0.9810     3.2170 H     1 <1>   0.0800 
 39 H        2.4200    -2.1090     2.9960 H     1 <1>   0.0800 
 40 H        2.0810    -0.4230     3.2950 H     1 <1>   0.0800 
 41 H        5.7590    -5.0070    -2.3990 H     1 <1>   0.0800 
 42 H        6.2340    -5.6380    -0.8380 H     1 <1>   0.0800 
 43 H        7.1400    -4.3360    -1.5740 H     1 <1>   0.0800 
@<TRIPOS>BOND
  1   1   2  2   
  2   2   3  am  
  3   2   4  1   
  4   3   5  1   
  5   3  23  1   
  6   4   6  1   
  7   4  24  1   
  8   4  25  1   
  9   5   7  1   
 10   5   8  2   
 11   6   9  1   
 12   7  10  2   
 13   8  11  1   
 14   9  12  ar  
 15   9  13  ar  
 16  10  11  1   
 17  11  14  1   
 18  12  15  ar  
 19  12  16  1   
 20  13  17  ar  
 21  13  26  1   
 22  14  18  1   
 23  14  27  1   
 24  14  28  1   
 25  15  19  ar  
 26  15  29  1   
 27  16  20  1   
 28  16  21  1   
 29  16  30  1   
 30  17  19  ar  
 31  17  22  1   
 32  18  31  1   
 33  18  32  1   
 34  18  33  1   
 35  19  34  1   
 36  20  35  1   
 37  20  36  1   
 38  20  37  1   
 39  21  38  1   
 40  21  39  1   
 41  21  40  1   
 42  22  41  1   
 43  22  42  1   
 44  22  43  1   
@<TRIPOS>SUBSTRUCTURE
  1 ****   6 GROUP 4 **** **** 0

# MOE 2024.06 (io_trps.svl 2023.06)
