@<TRIPOS>MOLECULE
8-Amino-7-(2-hydroxy-3-p-tolyloxy-propyl)-3-methyl-3,7-dihydro-purine-2,6-dione
45 47 1 0 0 
SMALL
USER_CHARGES


@<TRIPOS>ATOM
  1 O        1.0080     0.3320     0.4240 O.2   1 <1>  -0.5750 
  2 C        2.0370     0.9590     0.3310 C.2   1 <1>   0.6850 
  3 N        3.2730     0.3410     0.1980 N.am  1 <1>  -0.4430 
  4 N        1.9720     2.3220     0.3610 N.am  1 <1>  -0.4960 
  5 C        4.3930     1.1550     0.1020 C.2   1 <1>   0.4190 
  6 C        3.3910    -1.1460     0.1580 C.3   1 <1>   0.0510 
  7 C        3.0640     3.1370     0.2720 C.2   1 <1>   0.6990 
  8 N        5.6940     0.7720    -0.0280 N.pl3 1 <1>  -0.7040 
  9 C        4.3440     2.5070     0.1290 C.2   1 <1>   0.2690 
 10 O        2.9120     4.3400     0.3260 O.2   1 <1>  -0.5750 
 11 C        6.4360     1.8690    -0.0800 C.cat 1 <1>   1.0680 
 12 N        5.6730     2.9550    -0.0010 N.pl3 1 <1>  -0.7680 
 13 N        7.7460     1.8610    -0.1730 N.pl3 1 <1>  -0.8400 
 14 C        6.0450     4.3930    -0.2110 C.3   1 <1>   0.3470 
 15 C        6.3190     5.1560     1.1020 C.3   1 <1>   0.1920 
 16 O        6.6700     6.4610     0.7840 O.3   1 <1>  -0.6850 
 17 C        7.4330     4.5280     1.9610 C.3   1 <1>   0.1110 
 18 O        8.5610     4.1830     1.1630 O.3   1 <1>  -0.3690 
 19 C        9.3970     5.1270     0.6640 C.ar  1 <1>   0.0730 
 20 C        9.6510     6.3310     1.3110 C.ar  1 <1>  -0.1590 
 21 C       10.0000     4.8660    -0.5570 C.ar  1 <1>  -0.1590 
 22 C       10.4760     7.2710     0.7200 C.ar  1 <1>  -0.1590 
 23 C       10.8250     5.8090    -1.1410 C.ar  1 <1>  -0.1590 
 24 C       11.0640     7.0170    -0.5080 C.ar  1 <1>  -0.1520 
 25 C       11.9660     8.0560    -1.1490 C.3   1 <1>  -0.1050 
 26 H        1.0520     2.7450     0.4630 H     1 <1>   0.3630 
 27 H        2.4180    -1.6100     0.1810 H     1 <1>   0.0710 
 28 H        3.9490    -1.4920     1.0100 H     1 <1>   0.0710 
 29 H        3.8870    -1.4510    -0.7470 H     1 <1>   0.0710 
 30 H        6.0350    -0.1840    -0.0730 H     1 <1>   0.4440 
 31 H        8.2780     2.7200     0.0190 H     1 <1>   0.4440 
 32 H        8.3160     1.0190    -0.2160 H     1 <1>   0.4440 
 33 H        5.2440     4.8910    -0.7320 H     1 <1>   0.0710 
 34 H        6.9180     4.4450    -0.8380 H     1 <1>   0.0710 
 35 H        5.4080     5.2190     1.6730 H     1 <1>   0.0710 
 36 H        7.6250     6.5280     0.5530 H     1 <1>   0.3930 
 37 H        7.0710     3.6140     2.3960 H     1 <1>   0.0710 
 38 H        7.7260     5.1740     2.7670 H     1 <1>   0.0710 
 39 H        9.2270     6.5580     2.2710 H     1 <1>   0.1410 
 40 H        9.8340     3.9350    -1.0630 H     1 <1>   0.1410 
 41 H       10.6630     8.2050     1.2220 H     1 <1>   0.1410 
 42 H       11.2860     5.6030    -2.0920 H     1 <1>   0.1410 
 43 H       11.3740     8.7550    -1.7120 H     1 <1>   0.0710 
 44 H       12.6730     7.5880    -1.8100 H     1 <1>   0.0710 
 45 H       12.5130     8.5930    -0.3950 H     1 <1>   0.0710 
@<TRIPOS>BOND
  1   1   2  2   
  2   2   3  am  
  3   2   4  am  
  4   3   5  1   
  5   3   6  1   
  6   4   7  am  
  7   4  26  1   
  8   5   8  1   
  9   5   9  2   
 10   6  27  1   
 11   6  28  1   
 12   6  29  1   
 13   7   9  1   
 14   7  10  2   
 15   8  11  ar  
 16   8  30  1   
 17   9  12  1   
 18  11  12  ar  
 19  11  13  ar  
 20  12  14  1   
 21  13  31  1   
 22  13  32  1   
 23  14  15  1   
 24  14  33  1   
 25  14  34  1   
 26  15  16  1   
 27  15  17  1   
 28  15  35  1   
 29  16  36  1   
 30  17  18  1   
 31  17  37  1   
 32  17  38  1   
 33  18  19  1   
 34  19  20  ar  
 35  19  21  ar  
 36  20  22  ar  
 37  20  39  1   
 38  21  23  ar  
 39  21  40  1   
 40  22  24  ar  
 41  22  41  1   
 42  23  24  ar  
 43  23  42  1   
 44  24  25  1   
 45  25  43  1   
 46  25  44  1   
 47  25  45  1   
@<TRIPOS>SUBSTRUCTURE
  1 ****  14 GROUP 4 **** **** 0

# MOE 2024.06 (io_trps.svl 2023.06)
