@<TRIPOS>MOLECULE
Morpholine-4-sulfonic acid pyridin-2-ylamide
29 30 1 0 0 
SMALL
USER_CHARGES


@<TRIPOS>ATOM
  1 S       -0.3590     0.2750     1.0000 S.o2  1 <1>   1.6260 
  2 O       -1.0400     1.5220     1.2740 O.2   1 <1>  -0.6500 
  3 O        0.1710    -0.4810     2.1160 O.2   1 <1>  -0.6500 
  4 N        0.9320     0.6360    -0.0370 N.am  1 <1>  -0.8490 
  5 N       -1.3430    -0.6310    -0.0040 N.2   1 <1>  -0.6380 
  6 C        1.5990     1.9020     0.2830 C.3   1 <1>   0.1960 
  7 C        1.9040    -0.4550    -0.2430 C.3   1 <1>   0.1960 
  8 C       -1.2220    -1.8880    -0.1660 C.2   1 <1>   0.4860 
  9 C        2.6370     2.2890    -0.7960 C.3   1 <1>   0.1200 
 10 C        3.3090     0.0260    -0.6700 C.3   1 <1>   0.1200 
 11 N       -2.1010    -2.4060    -1.0910 N.pl3 1 <1>  -0.5500 
 12 C       -0.3380    -2.8640     0.4230 C.2   1 <1>  -0.1360 
 13 O        3.2350     1.1890    -1.4370 O.3   1 <1>  -0.5600 
 14 C       -2.1440    -3.7340    -1.4680 C.2   1 <1>  -0.0500 
 15 C       -0.3650    -4.1760     0.0700 C.2   1 <1>  -0.1500 
 16 C       -1.2910    -4.6230    -0.9060 C.2   1 <1>  -0.1500 
 17 H        2.0860     1.8200     1.2400 H     1 <1>   0.0800 
 18 H        0.8770     2.6990     0.3530 H     1 <1>   0.0800 
 19 H        1.5190    -1.1140    -1.0020 H     1 <1>   0.0800 
 20 H        2.0270    -1.0310     0.6570 H     1 <1>   0.0800 
 21 H        3.4170     2.8870    -0.3590 H     1 <1>   0.0800 
 22 H        2.1560     2.8710    -1.5620 H     1 <1>   0.0800 
 23 H        3.7990    -0.7300    -1.2570 H     1 <1>   0.0800 
 24 H        3.9150     0.2320     0.1940 H     1 <1>   0.0800 
 25 H       -2.7280    -1.7100    -1.4980 H     1 <1>   0.4000 
 26 H        0.3630    -2.5590     1.1680 H     1 <1>   0.1500 
 27 H       -2.8710    -4.0190    -2.2120 H     1 <1>   0.1500 
 28 H        0.2970    -4.9010     0.5140 H     1 <1>   0.1500 
 29 H       -1.2960    -5.6650    -1.1750 H     1 <1>   0.1500 
@<TRIPOS>BOND
  1   1   2  2   
  2   1   3  2   
  3   1   4  am  
  4   1   5  1   
  5   4   6  1   
  6   4   7  1   
  7   5   8  2   
  8   6   9  1   
  9   6  17  1   
 10   6  18  1   
 11   7  10  1   
 12   7  19  1   
 13   7  20  1   
 14   8  11  1   
 15   8  12  1   
 16   9  13  1   
 17   9  21  1   
 18   9  22  1   
 19  10  13  1   
 20  10  23  1   
 21  10  24  1   
 22  11  14  1   
 23  11  25  1   
 24  12  15  2   
 25  12  26  1   
 26  14  16  2   
 27  14  27  1   
 28  15  16  1   
 29  15  28  1   
 30  16  29  1   
@<TRIPOS>SUBSTRUCTURE
  1 ****   5 GROUP 4 **** **** 0

# MOE 2024.06 (io_trps.svl 2023.06)
