@<TRIPOS>MOLECULE
1-[5-Methyl-3-(toluene-4-sulfonyl)-imidazolidin-1-yl]-ethanone
37 38 1 0 0 
SMALL
USER_CHARGES


@<TRIPOS>ATOM
  1 S        0.8150    -0.7310    -0.8240 S.o2  1 <1>   1.4470 
  2 O        1.2260     0.1610    -1.8890 O.2   1 <1>  -0.6500 
  3 O        1.1040    -2.1450    -0.9140 O.2   1 <1>  -0.6500 
  4 N        1.5080    -0.1740     0.6150 N.am  1 <1>  -0.8490 
  5 C       -0.9600    -0.5160    -0.5110 C.ar  1 <1>  -0.0090 
  6 C        2.9070    -0.5530     0.6680 C.3   1 <1>   0.4960 
  7 C        1.4850     1.2830     0.7380 C.3   1 <1>   0.1960 
  8 C       -1.7660     0.2120    -1.3780 C.ar  1 <1>  -0.1500 
  9 C       -1.5590    -1.0760     0.6110 C.ar  1 <1>  -0.1500 
 10 N        3.6430     0.5880     0.1150 N.am  1 <1>  -0.6600 
 11 C        2.8090     1.7950     0.1660 C.3   1 <1>   0.2200 
 12 C       -3.1170     0.3820    -1.1310 C.ar  1 <1>  -0.1500 
 13 C       -2.9100    -0.9110     0.8640 C.ar  1 <1>  -0.1500 
 14 C        4.7630     0.3710    -0.6260 C.2   1 <1>   0.5690 
 15 C        3.4550     2.8500     1.0670 C.3   1 <1>  -0.2400 
 16 C       -3.6970    -0.1770    -0.0060 C.ar  1 <1>  -0.1440 
 17 O        5.3490    -0.6830    -0.5850 O.2   1 <1>  -0.5700 
 18 C        5.3180     1.4490    -1.5270 C.3   1 <1>  -0.1790 
 19 C       -5.1790     0.0050     0.2660 C.3   1 <1>  -0.0970 
 20 H        3.1150    -1.4590     0.1200 H     1 <1>   0.0800 
 21 H        3.2040    -0.6960     1.6930 H     1 <1>   0.0800 
 22 H        1.4180     1.5370     1.7810 H     1 <1>   0.0800 
 23 H        0.6420     1.7230     0.2320 H     1 <1>   0.0800 
 24 H       -1.3320     0.6520    -2.2610 H     1 <1>   0.1500 
 25 H       -0.9570    -1.6520     1.2950 H     1 <1>   0.1500 
 26 H        2.6510     2.1800    -0.8280 H     1 <1>   0.0800 
 27 H       -3.7170     0.9500    -1.8220 H     1 <1>   0.1500 
 28 H       -3.3450    -1.3580     1.7410 H     1 <1>   0.1500 
 29 H        3.6560     2.4430     2.0420 H     1 <1>   0.0800 
 30 H        2.7970     3.6930     1.1750 H     1 <1>   0.0800 
 31 H        4.3750     3.2010     0.6390 H     1 <1>   0.0800 
 32 H        5.7860     2.2130    -0.9380 H     1 <1>   0.0800 
 33 H        4.5360     1.8730    -2.1270 H     1 <1>   0.0800 
 34 H        6.0550     1.0230    -2.1820 H     1 <1>   0.0800 
 35 H       -5.5230     0.9430    -0.1320 H     1 <1>   0.0800 
 36 H       -5.3730    -0.0060     1.3230 H     1 <1>   0.0800 
 37 H       -5.7340    -0.7920    -0.1960 H     1 <1>   0.0800 
@<TRIPOS>BOND
  1   1   2  2   
  2   1   3  2   
  3   1   4  am  
  4   1   5  1   
  5   4   6  1   
  6   4   7  1   
  7   5   8  ar  
  8   5   9  ar  
  9   6  10  1   
 10   6  20  1   
 11   6  21  1   
 12   7  11  1   
 13   7  22  1   
 14   7  23  1   
 15   8  12  ar  
 16   8  24  1   
 17   9  13  ar  
 18   9  25  1   
 19  10  11  1   
 20  10  14  am  
 21  11  15  1   
 22  11  26  1   
 23  12  16  ar  
 24  12  27  1   
 25  13  16  ar  
 26  13  28  1   
 27  14  17  2   
 28  14  18  1   
 29  15  29  1   
 30  15  30  1   
 31  15  31  1   
 32  16  19  1   
 33  18  32  1   
 34  18  33  1   
 35  18  34  1   
 36  19  35  1   
 37  19  36  1   
 38  19  37  1   
@<TRIPOS>SUBSTRUCTURE
  1 ****   1 GROUP 4 **** **** 0

# MOE 2024.06 (io_trps.svl 2023.06)
