@<TRIPOS>MOLECULE
3-Chloro-N-[2-(4-isobutyryl-piperazin-1-yl)-phenyl]-4-methoxy-benzamide
55 57 1 0 0 
SMALL
USER_CHARGES


@<TRIPOS>ATOM
  1 CL      -0.0830     0.4190    -0.3820 Cl    1 <1>  -0.1770 
  2 C        1.3680    -0.3590     0.2230 C.ar  1 <1>   0.1770 
  3 C        1.3670    -1.5330     0.9900 C.ar  1 <1>   0.0830 
  4 C        2.5530     0.2660    -0.1100 C.ar  1 <1>  -0.1500 
  5 O        0.2990    -2.2670     1.3980 O.3   1 <1>  -0.3630 
  6 C        2.5930    -2.0340     1.4000 C.ar  1 <1>  -0.1500 
  7 C        3.7900    -0.2380     0.2920 C.ar  1 <1>   0.0860 
  8 C       -1.0480    -1.9380     1.1510 C.3   1 <1>   0.0400 
  9 C        3.7760    -1.4030     1.0640 C.ar  1 <1>  -0.1500 
 10 C        5.0240     0.4290    -0.0840 C.2   1 <1>   0.5440 
 11 O        5.0200     1.6090    -0.3710 O.2   1 <1>  -0.5700 
 12 N        6.1910    -0.2890    -0.1300 N.am  1 <1>  -0.5470 
 13 C        7.5360     0.0110    -0.3880 C.ar  1 <1>   0.1170 
 14 C        8.4240    -1.0750    -0.3620 C.ar  1 <1>   0.1000 
 15 C        8.0190     1.2850    -0.6560 C.ar  1 <1>  -0.1500 
 16 N        7.9410    -2.3690    -0.0890 N.pl3 1 <1>  -0.8380 
 17 C        9.7720    -0.8520    -0.6080 C.ar  1 <1>  -0.1500 
 18 C        9.3660     1.4910    -0.8990 C.ar  1 <1>  -0.1500 
 19 C        7.8580    -3.3280    -1.2380 C.3   1 <1>   0.2090 
 20 C        8.3010    -2.9820     1.2330 C.3   1 <1>   0.2090 
 21 C       10.2430     0.4220    -0.8750 C.ar  1 <1>  -0.1500 
 22 C        9.0340    -4.3230    -1.2820 C.3   1 <1>   0.1400 
 23 C        9.4710    -3.9740     1.1320 C.3   1 <1>   0.1400 
 24 N        9.2340    -4.9760     0.0480 N.am  1 <1>  -0.6600 
 25 C        9.0280    -6.3030     0.3440 C.2   1 <1>   0.5690 
 26 O        8.9620    -6.6750     1.4940 O.2   1 <1>  -0.5700 
 27 C        8.8560    -7.3520    -0.7690 C.3   1 <1>  -0.0190 
 28 C        7.3830    -7.4760    -1.1930 C.3   1 <1>  -0.2400 
 29 C        9.3890    -8.7400    -0.3640 C.3   1 <1>  -0.2400 
 30 H        2.5210     1.1670    -0.6980 H     1 <1>   0.1500 
 31 H        2.6110    -2.9310     1.9940 H     1 <1>   0.1500 
 32 H       -1.6640    -2.6840     1.6200 H     1 <1>   0.0800 
 33 H       -1.2220    -1.9430     0.0900 H     1 <1>   0.0800 
 34 H       -1.2590    -0.9740     1.5790 H     1 <1>   0.0800 
 35 H        4.7010    -1.8240     1.4180 H     1 <1>   0.1500 
 36 H        6.1130    -1.2970     0.0300 H     1 <1>   0.3700 
 37 H        7.3490     2.1240    -0.6770 H     1 <1>   0.1500 
 38 H       10.4580    -1.6760    -0.5910 H     1 <1>   0.1500 
 39 H        9.7270     2.4840    -1.1060 H     1 <1>   0.1500 
 40 H        7.8270    -2.7750    -2.1610 H     1 <1>   0.0800 
 41 H        6.9380    -3.8800    -1.1590 H     1 <1>   0.0800 
 42 H        7.4430    -3.5010     1.6230 H     1 <1>   0.0800 
 43 H        8.5570    -2.2030     1.9310 H     1 <1>   0.0800 
 44 H       11.2910     0.5820    -1.0640 H     1 <1>   0.1500 
 45 H        9.9310    -3.7950    -1.5520 H     1 <1>   0.0800 
 46 H        8.8400    -5.0450    -2.0510 H     1 <1>   0.0800 
 47 H        9.6000    -4.4620     2.0830 H     1 <1>   0.0800 
 48 H       10.3780    -3.4360     0.9240 H     1 <1>   0.0800 
 49 H        9.4390    -7.0430    -1.6160 H     1 <1>   0.0800 
 50 H        6.7890    -7.8170    -0.3630 H     1 <1>   0.0800 
 51 H        7.2810    -8.1800    -2.0010 H     1 <1>   0.0800 
 52 H        6.9990    -6.5260    -1.5160 H     1 <1>   0.0800 
 53 H        8.8270    -9.1320     0.4660 H     1 <1>   0.0800 
 54 H       10.4200    -8.6660    -0.0680 H     1 <1>   0.0800 
 55 H        9.3160    -9.4290    -1.1870 H     1 <1>   0.0800 
@<TRIPOS>BOND
  1   1   2  1   
  2   2   3  ar  
  3   2   4  ar  
  4   3   5  1   
  5   3   6  ar  
  6   4   7  ar  
  7   4  30  1   
  8   5   8  1   
  9   6   9  ar  
 10   6  31  1   
 11   7   9  ar  
 12   7  10  1   
 13   8  32  1   
 14   8  33  1   
 15   8  34  1   
 16   9  35  1   
 17  10  11  2   
 18  10  12  am  
 19  12  13  1   
 20  12  36  1   
 21  13  14  ar  
 22  13  15  ar  
 23  14  16  1   
 24  14  17  ar  
 25  15  18  ar  
 26  15  37  1   
 27  16  19  1   
 28  16  20  1   
 29  17  21  ar  
 30  17  38  1   
 31  18  21  ar  
 32  18  39  1   
 33  19  22  1   
 34  19  40  1   
 35  19  41  1   
 36  20  23  1   
 37  20  42  1   
 38  20  43  1   
 39  21  44  1   
 40  22  24  1   
 41  22  45  1   
 42  22  46  1   
 43  23  24  1   
 44  23  47  1   
 45  23  48  1   
 46  24  25  am  
 47  25  26  2   
 48  25  27  1   
 49  27  28  1   
 50  27  29  1   
 51  27  49  1   
 52  28  50  1   
 53  28  51  1   
 54  28  52  1   
 55  29  53  1   
 56  29  54  1   
 57  29  55  1   
@<TRIPOS>SUBSTRUCTURE
  1 ****  16 GROUP 4 **** **** 0

# MOE 2024.06 (io_trps.svl 2023.06)
