@<TRIPOS>MOLECULE
2-[Methyl-(naphthalene-2-sulfonyl)-amino]-N-(tetrahydro-furan-2-ylmethyl)-acetam
47 49 1 0 0 
SMALL
USER_CHARGES


@<TRIPOS>ATOM
  1 S        0.2540    -1.5020    -0.9870 S.o2  1 <1>   1.4470 
  2 O        1.3600    -2.4360    -0.9450 O.2   1 <1>  -0.6500 
  3 O       -0.7270    -1.6630    -2.0380 O.2   1 <1>  -0.6500 
  4 N       -0.5680    -1.6550     0.4970 N.am  1 <1>  -0.8490 
  5 C        0.8660     0.2090    -1.0510 C.ar  1 <1>  -0.0090 
  6 C        0.2880    -2.1610     1.6060 C.3   1 <1>   0.2570 
  7 C       -1.7900    -2.4590     0.3930 C.3   1 <1>   0.1160 
  8 C        0.6270     1.1380    -0.0670 C.ar  1 <1>  -0.1500 
  9 C        1.6200     0.6210    -2.1640 C.ar  1 <1>  -0.1500 
 10 C        1.4510    -1.2520     2.0330 C.2   1 <1>   0.5690 
 11 C        1.1280     2.4530    -0.1260 C.ar  1 <1>   0.0000 
 12 C        2.1080     1.8950    -2.2650 C.ar  1 <1>  -0.1500 
 13 O        1.2790    -0.4830     2.9500 O.2   1 <1>  -0.5700 
 14 N        2.6430    -1.3280     1.3850 N.am  1 <1>  -0.7300 
 15 C        1.8820     2.8430    -1.2510 C.ar  1 <1>   0.0000 
 16 C        0.9140     3.3900     0.9050 C.ar  1 <1>  -0.1500 
 17 C        3.8250    -0.4700     1.6460 C.3   1 <1>   0.1400 
 18 C        2.3850     4.1590    -1.3090 C.ar  1 <1>  -0.1500 
 19 C        1.4170     4.6590     0.8250 C.ar  1 <1>  -0.1500 
 20 C        4.2190     0.3020     0.3810 C.3   1 <1>   0.2000 
 21 C        2.1590     5.0490    -0.2950 C.ar  1 <1>  -0.1500 
 22 O        4.4090    -0.5760    -0.6850 O.3   1 <1>  -0.5600 
 23 C        5.5280     1.0660     0.4830 C.3   1 <1>  -0.1600 
 24 C        5.2630    -0.0210    -1.6360 C.3   1 <1>   0.1200 
 25 C        5.9450     1.1740    -0.9720 C.3   1 <1>  -0.1600 
 26 H        0.6850    -3.1280     1.3490 H     1 <1>   0.0800 
 27 H       -0.3250    -2.2940     2.4800 H     1 <1>   0.0800 
 28 H       -2.4720    -2.0060    -0.3080 H     1 <1>   0.0800 
 29 H       -2.2860    -2.5140     1.3470 H     1 <1>   0.0800 
 30 H       -1.5570    -3.4550     0.0540 H     1 <1>   0.0800 
 31 H        0.0420     0.8740     0.7970 H     1 <1>   0.1500 
 32 H        1.8100    -0.0980    -2.9430 H     1 <1>   0.1500 
 33 H        2.6790     2.1910    -3.1270 H     1 <1>   0.1500 
 34 H        2.7210    -1.8780     0.5140 H     1 <1>   0.3700 
 35 H        0.3450     3.0820     1.7650 H     1 <1>   0.1500 
 36 H        4.6470    -1.0900     1.9590 H     1 <1>   0.0800 
 37 H        3.6090     0.2270     2.4370 H     1 <1>   0.0800 
 38 H        2.9540     4.4530    -2.1730 H     1 <1>   0.1500 
 39 H        1.2490     5.3700     1.6160 H     1 <1>   0.1500 
 40 H        3.4310     0.9790     0.1090 H     1 <1>   0.0800 
 41 H        2.5440     6.0520    -0.3430 H     1 <1>   0.1500 
 42 H        6.2480     0.4890     1.0360 H     1 <1>   0.0800 
 43 H        5.3970     2.0260     0.9510 H     1 <1>   0.0800 
 44 H        4.6780     0.2780    -2.4880 H     1 <1>   0.0800 
 45 H        5.9730    -0.7770    -1.9230 H     1 <1>   0.0800 
 46 H        7.0130     1.1430    -1.0950 H     1 <1>   0.0800 
 47 H        5.5650     2.0830    -1.4050 H     1 <1>   0.0800 
@<TRIPOS>BOND
  1   1   2  2   
  2   1   3  2   
  3   1   4  am  
  4   1   5  1   
  5   4   6  1   
  6   4   7  1   
  7   5   8  ar  
  8   5   9  ar  
  9   6  10  1   
 10   6  26  1   
 11   6  27  1   
 12   7  28  1   
 13   7  29  1   
 14   7  30  1   
 15   8  11  ar  
 16   8  31  1   
 17   9  12  ar  
 18   9  32  1   
 19  10  13  2   
 20  10  14  am  
 21  11  15  ar  
 22  11  16  ar  
 23  12  15  ar  
 24  12  33  1   
 25  14  17  1   
 26  14  34  1   
 27  15  18  ar  
 28  16  19  ar  
 29  16  35  1   
 30  17  20  1   
 31  17  36  1   
 32  17  37  1   
 33  18  21  ar  
 34  18  38  1   
 35  19  21  ar  
 36  19  39  1   
 37  20  22  1   
 38  20  23  1   
 39  20  40  1   
 40  21  41  1   
 41  22  24  1   
 42  23  25  1   
 43  23  42  1   
 44  23  43  1   
 45  24  25  1   
 46  24  44  1   
 47  24  45  1   
 48  25  46  1   
 49  25  47  1   
@<TRIPOS>SUBSTRUCTURE
  1 ****   8 GROUP 4 **** **** 0

# MOE 2024.06 (io_trps.svl 2023.06)
