@<TRIPOS>MOLECULE
1-(2,5-Dimethoxy-benzenesulfonyl)-piperidine-4-carboxylic acid allylamide
49 50 1 0 0 
SMALL
USER_CHARGES


@<TRIPOS>ATOM
  1 S       -0.0660    -0.1860     1.4300 S.o2  1 <1>   1.4470 
  2 O        0.1130    -1.4230     2.1620 O.2   1 <1>  -0.6500 
  3 O       -0.3690     1.0030     2.2000 O.2   1 <1>  -0.6500 
  4 N        1.4040     0.1110     0.6340 N.am  1 <1>  -0.8490 
  5 C       -1.2600    -0.5010     0.1000 C.ar  1 <1>  -0.0090 
  6 C        2.5250     0.0360     1.5760 C.3   1 <1>   0.1960 
  7 C        1.3900     1.3880    -0.0880 C.3   1 <1>   0.1960 
  8 C       -1.9990     0.5150    -0.5030 C.ar  1 <1>   0.0820 
  9 C       -1.4480    -1.7990    -0.3640 C.ar  1 <1>  -0.1500 
 10 C        3.8610     0.1890     0.8430 C.3   1 <1>  -0.1600 
 11 C        2.6910     1.5810    -0.8720 C.3   1 <1>  -0.1600 
 12 O       -1.8370     1.8010    -0.1280 O.3   1 <1>  -0.3620 
 13 C       -2.8970     0.2430    -1.5250 C.ar  1 <1>  -0.1500 
 14 C       -2.3500    -2.0840    -1.3840 C.ar  1 <1>   0.0820 
 15 C        3.9160     1.5040     0.0510 C.3   1 <1>  -0.0190 
 16 C       -2.8460     2.3450     0.6940 C.3   1 <1>   0.0400 
 17 C       -3.0730    -1.0550    -1.9610 C.ar  1 <1>  -0.1500 
 18 O       -2.5750    -3.3330    -1.8670 O.3   1 <1>  -0.3630 
 19 C        5.2230     1.6420    -0.7300 C.2   1 <1>   0.5690 
 20 C       -1.8870    -4.4510    -1.3490 C.3   1 <1>   0.0400 
 21 O        5.5200     0.8120    -1.5550 O.2   1 <1>  -0.5700 
 22 N        6.0240     2.7070    -0.4770 N.am  1 <1>  -0.7300 
 23 C        7.3120     2.9540    -1.1370 C.3   1 <1>   0.2780 
 24 C        8.2140     3.6200    -0.1210 C.2   1 <1>  -0.2880 
 25 C        8.6960     4.8650    -0.2090 C.2   1 <1>  -0.3000 
 26 H        2.5190    -0.9190     2.0740 H     1 <1>   0.0800 
 27 H        2.4220     0.8040     2.3250 H     1 <1>   0.0800 
 28 H        1.2520     2.2030     0.6040 H     1 <1>   0.0800 
 29 H        0.5740     1.4010    -0.7890 H     1 <1>   0.0800 
 30 H       -0.8720    -2.5840     0.0910 H     1 <1>   0.1500 
 31 H        3.9860    -0.6470     0.1750 H     1 <1>   0.0800 
 32 H        4.6640     0.1600     1.5570 H     1 <1>   0.0800 
 33 H        2.6690     2.5340    -1.3690 H     1 <1>   0.0800 
 34 H        2.7550     0.8180    -1.6300 H     1 <1>   0.0800 
 35 H       -3.4480     1.0460    -1.9800 H     1 <1>   0.1500 
 36 H        3.8570     2.3170     0.7520 H     1 <1>   0.0800 
 37 H       -2.5640     3.3500     0.9510 H     1 <1>   0.0800 
 38 H       -2.9270     1.7510     1.5880 H     1 <1>   0.0800 
 39 H       -3.7780     2.3480     0.1570 H     1 <1>   0.0800 
 40 H       -3.7670    -1.2800    -2.7510 H     1 <1>   0.1500 
 41 H       -2.2250    -5.3250    -1.8770 H     1 <1>   0.0800 
 42 H       -2.1120    -4.5470    -0.3020 H     1 <1>   0.0800 
 43 H       -0.8310    -4.3160    -1.5070 H     1 <1>   0.0800 
 44 H        5.7650     3.4120     0.2110 H     1 <1>   0.3700 
 45 H        7.1600     3.5970    -1.9870 H     1 <1>   0.0800 
 46 H        7.7460     2.0280    -1.4760 H     1 <1>   0.0800 
 47 H        8.4400     2.9690     0.7060 H     1 <1>   0.1500 
 48 H        9.3400     5.3120     0.5300 H     1 <1>   0.1500 
 49 H        8.4930     5.5410    -1.0220 H     1 <1>   0.1500 
@<TRIPOS>BOND
  1   1   2  2   
  2   1   3  2   
  3   1   4  am  
  4   1   5  1   
  5   4   6  1   
  6   4   7  1   
  7   5   8  ar  
  8   5   9  ar  
  9   6  10  1   
 10   6  26  1   
 11   6  27  1   
 12   7  11  1   
 13   7  28  1   
 14   7  29  1   
 15   8  12  1   
 16   8  13  ar  
 17   9  14  ar  
 18   9  30  1   
 19  10  15  1   
 20  10  31  1   
 21  10  32  1   
 22  11  15  1   
 23  11  33  1   
 24  11  34  1   
 25  12  16  1   
 26  13  17  ar  
 27  13  35  1   
 28  14  17  ar  
 29  14  18  1   
 30  15  19  1   
 31  15  36  1   
 32  16  37  1   
 33  16  38  1   
 34  16  39  1   
 35  17  40  1   
 36  18  20  1   
 37  19  21  2   
 38  19  22  am  
 39  20  41  1   
 40  20  42  1   
 41  20  43  1   
 42  22  23  1   
 43  22  44  1   
 44  23  24  1   
 45  23  45  1   
 46  23  46  1   
 47  24  25  2   
 48  24  47  1   
 49  25  48  1   
 50  25  49  1   
@<TRIPOS>SUBSTRUCTURE
  1 ****   7 GROUP 4 **** **** 0

# MOE 2024.06 (io_trps.svl 2023.06)
