@<TRIPOS>MOLECULE
5-Chloro-2-ethoxy-N-(3-morpholin-4-yl-propyl)-benzenesulfonamide
47 48 1 0 0 
SMALL
USER_CHARGES


@<TRIPOS>ATOM
  1 CL       0.9230     0.1810     1.5240 Cl    1 <1>  -0.1770 
  2 C        0.8350     1.8960     1.2120 C.ar  1 <1>   0.1770 
  3 C        1.4150     2.4060     0.0660 C.ar  1 <1>  -0.1500 
  4 C        0.1890     2.7150     2.1170 C.ar  1 <1>  -0.1500 
  5 C        1.3570     3.7680    -0.2110 C.ar  1 <1>  -0.0090 
  6 C        0.1260     4.0720     1.8610 C.ar  1 <1>  -0.1500 
  7 S        2.1220     4.4370    -1.7100 S.o2  1 <1>   1.4470 
  8 C        0.7020     4.5890     0.7060 C.ar  1 <1>   0.0830 
  9 O        2.6660     3.3630    -2.5040 O.2   1 <1>  -0.6500 
 10 O        1.3020     5.4350    -2.3630 O.2   1 <1>  -0.6500 
 11 N        3.5120     5.2140    -1.1750 N.am  1 <1>  -0.9140 
 12 O        0.6320     5.9180     0.4900 O.3   1 <1>  -0.3630 
 13 C        3.4290     6.6590    -1.1750 C.3   1 <1>   0.1960 
 14 C       -0.6320     6.4320     0.1350 C.3   1 <1>   0.1200 
 15 C        4.6790     7.2120    -0.4970 C.3   1 <1>  -0.1600 
 16 C       -0.4550     7.8940    -0.2600 C.3   1 <1>  -0.2400 
 17 C        4.5550     8.7250    -0.3290 C.3   1 <1>   0.3430 
 18 N        5.6840     9.2570     0.4850 N.4   1 <1>  -0.9590 
 19 C        5.4050    10.6720     0.9200 C.3   1 <1>   0.3430 
 20 C        7.0080     9.1900    -0.2340 C.3   1 <1>   0.3430 
 21 C        6.6000    11.2830     1.6760 C.3   1 <1>   0.1200 
 22 C        8.1300     9.8700     0.5730 C.3   1 <1>   0.1200 
 23 O        7.7620    11.1770     0.9070 O.3   1 <1>  -0.5600 
 24 H        1.9130     1.7330    -0.6120 H     1 <1>   0.1500 
 25 H       -0.2520     2.2940     3.0030 H     1 <1>   0.1500 
 26 H       -0.3640     4.7300     2.5570 H     1 <1>   0.1500 
 27 H        4.2040     4.9040    -1.8580 H     1 <1>   0.4200 
 28 H        2.5560     6.9680    -0.6250 H     1 <1>   0.0800 
 29 H        3.3420     7.0240    -2.1870 H     1 <1>   0.0800 
 30 H       -1.2940     6.3380     0.9790 H     1 <1>   0.0800 
 31 H       -1.0140     5.8600    -0.6940 H     1 <1>   0.0800 
 32 H        5.5360     6.9680    -1.0980 H     1 <1>   0.0800 
 33 H        4.7700     6.7510     0.4710 H     1 <1>   0.0800 
 34 H       -0.0470     8.4550     0.5610 H     1 <1>   0.0800 
 35 H       -1.4100     8.3130    -0.5210 H     1 <1>   0.0800 
 36 H        0.1920     7.9670    -1.1160 H     1 <1>   0.0800 
 37 H        3.6230     8.9410     0.1710 H     1 <1>   0.0800 
 38 H        4.5360     9.2050    -1.2950 H     1 <1>   0.0800 
 39 H        5.7650     8.6860     1.3380 H     1 <1>   0.4500 
 40 H        4.5330    10.6980     1.5550 H     1 <1>   0.0800 
 41 H        5.2040    11.2860     0.0570 H     1 <1>   0.0800 
 42 H        6.9300     9.6870    -1.1880 H     1 <1>   0.0800 
 43 H        7.2790     8.1630    -0.4170 H     1 <1>   0.0800 
 44 H        6.7610    10.7900     2.6200 H     1 <1>   0.0800 
 45 H        6.4260    12.3280     1.8620 H     1 <1>   0.0800 
 46 H        9.0300     9.9260    -0.0160 H     1 <1>   0.0800 
 47 H        8.3470     9.3280     1.4770 H     1 <1>   0.0800 
@<TRIPOS>BOND
  1   1   2  1   
  2   2   3  ar  
  3   2   4  ar  
  4   3   5  ar  
  5   3  24  1   
  6   4   6  ar  
  7   4  25  1   
  8   5   7  1   
  9   5   8  ar  
 10   6   8  ar  
 11   6  26  1   
 12   7   9  2   
 13   7  10  2   
 14   7  11  am  
 15   8  12  1   
 16  11  13  1   
 17  11  27  1   
 18  12  14  1   
 19  13  15  1   
 20  13  28  1   
 21  13  29  1   
 22  14  16  1   
 23  14  30  1   
 24  14  31  1   
 25  15  17  1   
 26  15  32  1   
 27  15  33  1   
 28  16  34  1   
 29  16  35  1   
 30  16  36  1   
 31  17  18  1   
 32  17  37  1   
 33  17  38  1   
 34  18  19  1   
 35  18  20  1   
 36  18  39  1   
 37  19  21  1   
 38  19  40  1   
 39  19  41  1   
 40  20  22  1   
 41  20  42  1   
 42  20  43  1   
 43  21  23  1   
 44  21  44  1   
 45  21  45  1   
 46  22  23  1   
 47  22  46  1   
 48  22  47  1   
@<TRIPOS>SUBSTRUCTURE
  1 ****  13 GROUP 4 **** **** 0

# MOE 2024.06 (io_trps.svl 2023.06)
