@<TRIPOS>MOLECULE
NONAME
40 42 1 0 0 
SMALL
USER_CHARGES


@<TRIPOS>ATOM
  1 O       -0.5230    -1.3130    -2.0980 O.2   1 <1>  -0.5700 
  2 C       -0.3130    -1.9110    -1.0750 C.2   1 <1>   0.4230 
  3 C       -1.2900    -2.6880    -0.3650 C.ar  1 <1>   0.0860 
  4 C        1.0710    -1.8360    -0.4740 C.3   1 <1>  -0.0990 
  5 C       -0.8830    -3.4870     0.7080 C.ar  1 <1>   0.0830 
  6 C       -2.6470    -2.6740    -0.6910 C.ar  1 <1>  -0.1500 
  7 C        1.4590    -3.1780     0.1700 C.3   1 <1>   0.2800 
  8 O        0.4220    -3.5810     1.0530 O.3   1 <1>  -0.3630 
  9 C       -1.8030    -4.2180     1.4410 C.ar  1 <1>  -0.1500 
 10 C       -3.5640    -3.4110     0.0350 C.ar  1 <1>  -0.1500 
 11 C        2.7300    -3.0350     1.0400 C.3   1 <1>  -0.1600 
 12 C        1.6150    -4.2870    -0.8970 C.3   1 <1>  -0.1600 
 13 C       -3.1430    -4.1820     1.1070 C.ar  1 <1>  -0.1500 
 14 C        3.9820    -3.6190     0.3800 C.3   1 <1>   0.1400 
 15 C        2.3970    -5.4810    -0.3510 C.3   1 <1>   0.1400 
 16 N        3.7660    -5.0560     0.0530 N.am  1 <1>  -0.6600 
 17 C        4.7970    -5.9540     0.1440 C.2   1 <1>   0.7800 
 18 O        5.9320    -5.6240     0.4320 O.2   1 <1>  -0.5700 
 19 O        4.5220    -7.2380    -0.0950 O.3   1 <1>  -0.4300 
 20 C        5.5300    -8.2190    -0.0120 C.3   1 <1>   0.1200 
 21 C        4.9010    -9.5710    -0.3360 C.3   1 <1>  -0.2400 
 22 H        1.0730    -1.0560     0.2650 H     1 <1>   0.0800 
 23 H        1.7820    -1.5720    -1.2350 H     1 <1>   0.0800 
 24 H       -2.9780    -2.0720    -1.5210 H     1 <1>   0.1500 
 25 H       -1.4630    -4.8160     2.2680 H     1 <1>   0.1500 
 26 H       -4.6080    -3.3850    -0.2300 H     1 <1>   0.1500 
 27 H        2.5910    -3.5520     1.9740 H     1 <1>   0.0800 
 28 H        2.9160    -2.0030     1.2740 H     1 <1>   0.0800 
 29 H        2.1460    -3.9060    -1.7510 H     1 <1>   0.0800 
 30 H        0.6540    -4.6180    -1.2480 H     1 <1>   0.0800 
 31 H       -3.8590    -4.7520     1.6750 H     1 <1>   0.1500 
 32 H        4.8200    -3.5160     1.0500 H     1 <1>   0.0800 
 33 H        4.2110    -3.0830    -0.5250 H     1 <1>   0.0800 
 34 H        2.4610    -6.2440    -1.1090 H     1 <1>   0.0800 
 35 H        1.8890    -5.8940     0.5040 H     1 <1>   0.0800 
 36 H        5.9330    -8.2090     0.9870 H     1 <1>   0.0800 
 37 H        6.3050    -7.9730    -0.7180 H     1 <1>   0.0800 
 38 H        4.1220    -9.7960     0.3700 H     1 <1>   0.0800 
 39 H        5.6490   -10.3410    -0.2780 H     1 <1>   0.0800 
 40 H        4.4960    -9.5620    -1.3320 H     1 <1>   0.0800 
@<TRIPOS>BOND
  1   1   2  2   
  2   2   3  1   
  3   2   4  1   
  4   3   5  ar  
  5   3   6  ar  
  6   4   7  1   
  7   4  22  1   
  8   4  23  1   
  9   5   8  1   
 10   5   9  ar  
 11   6  10  ar  
 12   6  24  1   
 13   7   8  1   
 14   7  11  1   
 15   7  12  1   
 16   9  13  ar  
 17   9  25  1   
 18  10  13  ar  
 19  10  26  1   
 20  11  14  1   
 21  11  27  1   
 22  11  28  1   
 23  12  15  1   
 24  12  29  1   
 25  12  30  1   
 26  13  31  1   
 27  14  16  1   
 28  14  32  1   
 29  14  33  1   
 30  15  16  1   
 31  15  34  1   
 32  15  35  1   
 33  16  17  am  
 34  17  18  2   
 35  17  19  1   
 36  19  20  1   
 37  20  21  1   
 38  20  36  1   
 39  20  37  1   
 40  21  38  1   
 41  21  39  1   
 42  21  40  1   
@<TRIPOS>SUBSTRUCTURE
  1 ****  12 GROUP 4 **** **** 0

# MOE 2024.06 (io_trps.svl 2023.06)
