@<TRIPOS>MOLECULE
[1-(3-Chloro-4-methoxy-benzenesulfonyl)-piperidin-4-yl]-pyrrolidin-1-yl-methanon
48 50 1 0 0 
SMALL
USER_CHARGES


@<TRIPOS>ATOM
  1 CL       2.4080    -0.4610     3.0100 Cl    1 <1>  -0.1770 
  2 C        2.4780    -0.2150     1.2780 C.ar  1 <1>   0.1770 
  3 C        1.6410    -0.9340     0.4320 C.ar  1 <1>   0.0830 
  4 C        3.3820     0.7050     0.7880 C.ar  1 <1>  -0.1500 
  5 O        0.7750    -1.8260     0.9790 O.3   1 <1>  -0.3630 
  6 C        1.7350    -0.7020    -0.9370 C.ar  1 <1>  -0.1500 
  7 C        3.4870     0.9380    -0.5780 C.ar  1 <1>  -0.0090 
  8 C       -0.1250    -2.5720     0.1900 C.3   1 <1>   0.0400 
  9 C        2.6460     0.2220    -1.4250 C.ar  1 <1>  -0.1500 
 10 S        4.6740     2.1450    -1.2290 S.o2  1 <1>   1.4470 
 11 O        4.9580     1.8590    -2.6190 O.2   1 <1>  -0.6500 
 12 O        4.2440     3.4740    -0.8520 O.2   1 <1>  -0.6500 
 13 N        6.0890     1.7970    -0.3600 N.am  1 <1>  -0.8490 
 14 C        7.0310     2.9190    -0.3920 C.3   1 <1>   0.1960 
 15 C        6.7170     0.5500    -0.8070 C.3   1 <1>   0.1960 
 16 C        8.2240     2.6360     0.5250 C.3   1 <1>  -0.1600 
 17 C        7.8930     0.1910     0.1040 C.3   1 <1>  -0.1600 
 18 C        8.9310     1.3240     0.1410 C.3   1 <1>  -0.0190 
 19 C       10.0910     0.9760     1.0810 C.2   1 <1>   0.5690 
 20 O        9.9740     1.2220     2.2600 O.2   1 <1>  -0.5700 
 21 N       11.2270     0.3870     0.5950 N.am  1 <1>  -0.6600 
 22 C       11.4940    -0.0340    -0.7990 C.3   1 <1>   0.1400 
 23 C       12.3660     0.0470     1.4760 C.3   1 <1>   0.1400 
 24 C       12.7460    -0.8990    -0.7120 C.3   1 <1>  -0.1600 
 25 C       13.4770    -0.3940     0.5290 C.3   1 <1>  -0.1600 
 26 H        4.0120     1.2440     1.4750 H     1 <1>   0.1500 
 27 H        1.1110    -1.2280    -1.6360 H     1 <1>   0.1500 
 28 H       -0.7070    -3.1940     0.8460 H     1 <1>   0.0800 
 29 H        0.4350    -3.1870    -0.4930 H     1 <1>   0.0800 
 30 H       -0.7710    -1.8950    -0.3390 H     1 <1>   0.0800 
 31 H        2.7060     0.3920    -2.4880 H     1 <1>   0.1500 
 32 H        6.5420     3.8160    -0.0460 H     1 <1>   0.0800 
 33 H        7.3650     3.0880    -1.4020 H     1 <1>   0.0800 
 34 H        7.0620     0.6560    -1.8240 H     1 <1>   0.0800 
 35 H        5.9980    -0.2510    -0.7790 H     1 <1>   0.0800 
 36 H        7.8690     2.5810     1.5400 H     1 <1>   0.0800 
 37 H        8.9210     3.4530     0.4680 H     1 <1>   0.0800 
 38 H        8.3540    -0.7140    -0.2470 H     1 <1>   0.0800 
 39 H        7.5230     0.0060     1.0980 H     1 <1>   0.0800 
 40 H        9.3230     1.4590    -0.8500 H     1 <1>   0.0800 
 41 H       11.6880     0.8390    -1.3990 H     1 <1>   0.0800 
 42 H       10.6660    -0.5860    -1.2070 H     1 <1>   0.0800 
 43 H       12.0760    -0.7610     2.1260 H     1 <1>   0.0800 
 44 H       12.6590     0.8970     2.0690 H     1 <1>   0.0800 
 45 H       13.3480    -0.8250    -1.6000 H     1 <1>   0.0800 
 46 H       12.4540    -1.9250    -0.5700 H     1 <1>   0.0800 
 47 H       14.1030    -1.1470     0.9740 H     1 <1>   0.0800 
 48 H       14.0800     0.4610     0.2780 H     1 <1>   0.0800 
@<TRIPOS>BOND
  1   1   2  1   
  2   2   3  ar  
  3   2   4  ar  
  4   3   5  1   
  5   3   6  ar  
  6   4   7  ar  
  7   4  26  1   
  8   5   8  1   
  9   6   9  ar  
 10   6  27  1   
 11   7   9  ar  
 12   7  10  1   
 13   8  28  1   
 14   8  29  1   
 15   8  30  1   
 16   9  31  1   
 17  10  11  2   
 18  10  12  2   
 19  10  13  am  
 20  13  14  1   
 21  13  15  1   
 22  14  16  1   
 23  14  32  1   
 24  14  33  1   
 25  15  17  1   
 26  15  34  1   
 27  15  35  1   
 28  16  18  1   
 29  16  36  1   
 30  16  37  1   
 31  17  18  1   
 32  17  38  1   
 33  17  39  1   
 34  18  19  1   
 35  18  40  1   
 36  19  20  2   
 37  19  21  am  
 38  21  22  1   
 39  21  23  1   
 40  22  24  1   
 41  22  41  1   
 42  22  42  1   
 43  23  25  1   
 44  23  43  1   
 45  23  44  1   
 46  24  25  1   
 47  24  45  1   
 48  24  46  1   
 49  25  47  1   
 50  25  48  1   
@<TRIPOS>SUBSTRUCTURE
  1 ****  15 GROUP 4 **** **** 0

# MOE 2024.06 (io_trps.svl 2023.06)
