@<TRIPOS>MOLECULE
NONAME
47 50 1 0 0 
SMALL
USER_CHARGES


@<TRIPOS>ATOM
  1 O       -2.8920    -1.1150     2.2230 O.2   1 <1>  -0.5700 
  2 C       -3.1870    -0.3300     1.3590 C.2   1 <1>   0.4950 
  3 C       -3.8170    -0.6770     0.1400 C.2   1 <1>  -0.1240 
  4 C       -2.8910     1.1490     1.5630 C.3   1 <1>  -0.0990 
  5 C       -4.0640     0.1790    -0.8670 C.2   1 <1>  -0.0290 
  6 C       -4.3380    -2.0710    -0.2190 C.3   1 <1>   0.4810 
  7 C       -2.5880     1.9080     0.2410 C.3   1 <1>   0.0000 
  8 N       -4.6880    -0.4380    -1.9170 N.am  1 <1>  -0.5390 
  9 C       -3.6840     1.6480    -0.8290 C.3   1 <1>  -0.0220 
 10 C       -3.2600    -3.1660    -0.1830 C.2   1 <1>  -0.1240 
 11 C       -5.5420    -2.3700     0.6810 C.ar  1 <1>  -0.1440 
 12 C       -4.8410    -1.7680    -1.6500 C.2   1 <1>   0.5690 
 13 C       -1.2180     1.4540    -0.2990 C.3   1 <1>  -0.2400 
 14 C       -2.5060     3.4150     0.5280 C.3   1 <1>  -0.2400 
 15 C       -3.4590    -4.2510     0.6280 C.2   1 <1>   0.1770 
 16 C       -2.1090    -2.9950    -1.0080 C.2   1 <1>   0.7060 
 17 C       -5.5590    -3.5290     1.4420 C.ar  1 <1>   0.0820 
 18 C       -6.6290    -1.5050     0.7630 C.ar  1 <1>  -0.1500 
 19 O       -5.2920    -2.5620    -2.4400 O.2   1 <1>  -0.5700 
 20 O       -4.5390    -4.4090     1.3990 O.3   1 <1>  -0.1590 
 21 N       -2.5970    -5.2980     0.7500 N.pl3 1 <1>  -0.9000 
 22 O       -1.1940    -3.8020    -1.0900 O.2   1 <1>  -0.5700 
 23 O       -1.9880    -1.8880    -1.7580 O.3   1 <1>  -0.4300 
 24 C       -6.6310    -3.8190     2.2710 C.ar  1 <1>  -0.1500 
 25 C       -7.7020    -1.7940     1.5900 C.ar  1 <1>  -0.1500 
 26 C       -0.8910    -1.6870    -2.6290 C.3   1 <1>   0.0400 
 27 C       -7.7040    -2.9520     2.3460 C.ar  1 <1>  -0.1500 
 28 H       -2.0600     1.2440     2.2400 H     1 <1>   0.0800 
 29 H       -3.7490     1.5840     2.0430 H     1 <1>   0.0800 
 30 H       -4.9390    -0.0500    -2.8290 H     1 <1>   0.3700 
 31 H       -4.5690     2.2150    -0.5990 H     1 <1>   0.0800 
 32 H       -3.3340     1.9610    -1.7970 H     1 <1>   0.0800 
 33 H       -1.2120     0.4010    -0.5120 H     1 <1>   0.0800 
 34 H       -0.4440     1.6490     0.4220 H     1 <1>   0.0800 
 35 H       -0.9720     1.9800    -1.2040 H     1 <1>   0.0800 
 36 H       -3.4390     3.7810     0.9190 H     1 <1>   0.0800 
 37 H       -2.2780     3.9620    -0.3700 H     1 <1>   0.0800 
 38 H       -1.7360     3.6210     1.2520 H     1 <1>   0.0800 
 39 H       -6.6580    -0.5960     0.1870 H     1 <1>   0.1500 
 40 H       -1.7070    -5.3060     0.2290 H     1 <1>   0.4000 
 41 H       -2.7500    -6.0720     1.4010 H     1 <1>   0.4000 
 42 H       -6.6180    -4.7230     2.8530 H     1 <1>   0.1500 
 43 H       -8.5380    -1.1180     1.6440 H     1 <1>   0.1500 
 44 H       -0.8710    -2.4840    -3.3530 H     1 <1>   0.0800 
 45 H        0.0180    -1.6880    -2.0520 H     1 <1>   0.0800 
 46 H       -1.0160    -0.7410    -3.1230 H     1 <1>   0.0800 
 47 H       -8.5370    -3.1780     2.9890 H     1 <1>   0.1500 
@<TRIPOS>BOND
  1   1   2  2   
  2   2   3  1   
  3   2   4  1   
  4   3   5  2   
  5   3   6  1   
  6   4   7  1   
  7   4  28  1   
  8   4  29  1   
  9   5   8  1   
 10   5   9  1   
 11   6  10  1   
 12   6  11  1   
 13   6  12  1   
 14   7   9  1   
 15   7  13  1   
 16   7  14  1   
 17   8  12  am  
 18   8  30  1   
 19   9  31  1   
 20   9  32  1   
 21  10  15  2   
 22  10  16  1   
 23  11  17  ar  
 24  11  18  ar  
 25  12  19  2   
 26  13  33  1   
 27  13  34  1   
 28  13  35  1   
 29  14  36  1   
 30  14  37  1   
 31  14  38  1   
 32  15  20  1   
 33  15  21  1   
 34  16  22  2   
 35  16  23  1   
 36  17  20  1   
 37  17  24  ar  
 38  18  25  ar  
 39  18  39  1   
 40  21  40  1   
 41  21  41  1   
 42  23  26  1   
 43  24  27  ar  
 44  24  42  1   
 45  25  27  ar  
 46  25  43  1   
 47  26  44  1   
 48  26  45  1   
 49  26  46  1   
 50  27  47  1   
@<TRIPOS>SUBSTRUCTURE
  1 ****   6 GROUP 4 **** **** 0

# MOE 2024.06 (io_trps.svl 2023.06)
