@<TRIPOS>MOLECULE
4-[3-(4-Ethoxy-3-methoxy-phenyl)-[1,2,4]oxadiazol-5-yl]-butyramide
41 42 1 0 0 
SMALL
USER_CHARGES


@<TRIPOS>ATOM
  1 O        1.4740     0.6180    -1.2550 O.2   1 <1>  -0.5700 
  2 C        1.5590     0.0040    -0.2260 C.2   1 <1>   0.5690 
  3 N        0.8730     0.3980     0.8600 N.am  1 <1>  -0.8000 
  4 C        2.4430    -1.2240    -0.1490 C.3   1 <1>  -0.0990 
  5 C        1.6230    -2.5250    -0.1650 C.3   1 <1>  -0.1600 
  6 C        2.5250    -3.7720    -0.1540 C.3   1 <1>   0.0200 
  7 C        1.7460    -5.0780    -0.1350 C.2   1 <1>   0.2980 
  8 O        2.4260    -6.1940    -0.1750 O.3   1 <1>  -0.0190 
  9 N        0.4850    -5.2140    -0.0820 N.2   1 <1>  -0.5650 
 10 N        1.5190    -7.1190    -0.1450 N.2   1 <1>  -0.4100 
 11 C        0.3690    -6.5450    -0.0910 C.2   1 <1>   0.4620 
 12 C       -0.9180    -7.2220    -0.0450 C.ar  1 <1>   0.0540 
 13 C       -1.0010    -8.6140    -0.0120 C.ar  1 <1>  -0.1500 
 14 C       -2.1190    -6.5120    -0.0330 C.ar  1 <1>  -0.1500 
 15 C       -2.2220    -9.2780     0.0320 C.ar  1 <1>   0.0830 
 16 C       -3.3430    -7.1530     0.0110 C.ar  1 <1>  -0.1500 
 17 O       -2.3150   -10.6400     0.0650 O.3   1 <1>  -0.3630 
 18 C       -3.4090    -8.5410     0.0450 C.ar  1 <1>   0.0830 
 19 C       -1.1730   -11.4660     0.0510 C.3   1 <1>   0.0400 
 20 O       -4.5900    -9.2210     0.0890 O.3   1 <1>  -0.3630 
 21 C       -5.8320    -8.5590     0.1050 C.3   1 <1>   0.1200 
 22 C       -6.9290    -9.6180     0.1560 C.3   1 <1>  -0.2400 
 23 H        0.2750     1.2230     0.7940 H     1 <1>   0.3700 
 24 H        0.8840    -0.0890     1.7550 H     1 <1>   0.3700 
 25 H        3.0360    -1.1680     0.7450 H     1 <1>   0.0800 
 26 H        3.1120    -1.2070    -0.9910 H     1 <1>   0.0800 
 27 H        1.0070    -2.5440    -1.0490 H     1 <1>   0.0800 
 28 H        0.9700    -2.5500     0.6900 H     1 <1>   0.0800 
 29 H        3.1600    -3.7490     0.7130 H     1 <1>   0.0800 
 30 H        3.1520    -3.7670    -1.0280 H     1 <1>   0.0800 
 31 H       -0.0830    -9.1690    -0.0210 H     1 <1>   0.1500 
 32 H       -2.0950    -5.4360    -0.0590 H     1 <1>   0.1500 
 33 H       -4.2320    -6.5520     0.0190 H     1 <1>   0.1500 
 34 H       -1.5020   -12.4880     0.0810 H     1 <1>   0.0800 
 35 H       -0.5750   -11.2490     0.9190 H     1 <1>   0.0800 
 36 H       -0.6220   -11.2850    -0.8550 H     1 <1>   0.0800 
 37 H       -5.9150    -7.9690    -0.7910 H     1 <1>   0.0800 
 38 H       -5.8710    -7.9290     0.9770 H     1 <1>   0.0800 
 39 H       -6.8670   -10.2530    -0.7100 H     1 <1>   0.0800 
 40 H       -7.8940    -9.1460     0.1700 H     1 <1>   0.0800 
 41 H       -6.8230   -10.2140     1.0450 H     1 <1>   0.0800 
@<TRIPOS>BOND
  1   1   2  2   
  2   2   3  am  
  3   2   4  1   
  4   3  23  1   
  5   3  24  1   
  6   4   5  1   
  7   4  25  1   
  8   4  26  1   
  9   5   6  1   
 10   5  27  1   
 11   5  28  1   
 12   6   7  1   
 13   6  29  1   
 14   6  30  1   
 15   7   8  1   
 16   7   9  2   
 17   8  10  1   
 18   9  11  1   
 19  10  11  2   
 20  11  12  1   
 21  12  13  ar  
 22  12  14  ar  
 23  13  15  ar  
 24  13  31  1   
 25  14  16  ar  
 26  14  32  1   
 27  15  17  1   
 28  15  18  ar  
 29  16  18  ar  
 30  16  33  1   
 31  17  19  1   
 32  18  20  1   
 33  19  34  1   
 34  19  35  1   
 35  19  36  1   
 36  20  21  1   
 37  21  22  1   
 38  21  37  1   
 39  21  38  1   
 40  22  39  1   
 41  22  40  1   
 42  22  41  1   
@<TRIPOS>SUBSTRUCTURE
  1 ****  12 GROUP 4 **** **** 0

# MOE 2024.06 (io_trps.svl 2023.06)
