@<TRIPOS>MOLECULE
1-(3-Chloro-4-methoxy-benzenesulfonyl)-piperidine-4-carboxylic acid (pyridin-2-y
50 52 1 0 0 
SMALL
USER_CHARGES


@<TRIPOS>ATOM
  1 CL       2.2300     0.1790     2.3480 Cl    1 <1>  -0.1770 
  2 C        2.5610    -0.5690     0.8010 C.ar  1 <1>   0.1770 
  3 C        1.8530    -1.6910     0.3810 C.ar  1 <1>   0.0820 
  4 C        3.5520    -0.0220     0.0100 C.ar  1 <1>  -0.1500 
  5 O        0.8820    -2.2560     1.1290 O.3   1 <1>  -0.3630 
  6 C        2.1680    -2.2650    -0.8380 C.ar  1 <1>  -0.1500 
  7 C        3.8740    -0.5860    -1.2210 C.ar  1 <1>  -0.0090 
  8 C       -0.3680    -1.6020     1.1490 C.3   1 <1>   0.0400 
  9 C        3.1640    -1.7130    -1.6280 C.ar  1 <1>  -0.1500 
 10 S        5.1750     0.1350    -2.2590 S.o2  1 <1>   1.4470 
 11 O        5.6350    -0.8370    -3.2280 O.2   1 <1>  -0.6500 
 12 O        4.7410     1.4380    -2.7120 O.2   1 <1>  -0.6500 
 13 N        6.4500     0.3740    -1.1660 N.am  1 <1>  -0.8490 
 14 C        7.4340     1.3230    -1.6910 C.3   1 <1>   0.1960 
 15 C        7.0800    -0.8910    -0.7700 C.3   1 <1>   0.1960 
 16 C        8.4890     1.6390    -0.6270 C.3   1 <1>  -0.1600 
 17 C        8.1080    -0.6440     0.3350 C.3   1 <1>  -0.1600 
 18 C        9.1780     0.3630    -0.1200 C.3   1 <1>  -0.0190 
 19 C       10.1850     0.6800     0.9840 C.2   1 <1>   0.5690 
 20 O        9.8020     0.9090     2.1060 O.2   1 <1>  -0.5700 
 21 N       11.5000     0.7120     0.6680 N.am  1 <1>  -0.7300 
 22 C       12.5910     1.1120     1.5830 C.3   1 <1>   0.2840 
 23 C       13.5360     2.0640     0.8570 C.ar  1 <1>   0.1670 
 24 N       14.0890     1.6170    -0.2660 N.ar  1 <1>  -0.6200 
 25 C       13.7680     3.3270     1.3840 C.ar  1 <1>  -0.1500 
 26 C       14.9070     2.4600    -0.8770 C.ar  1 <1>   0.1600 
 27 C       14.6210     4.1930     0.7340 C.ar  1 <1>  -0.1500 
 28 C       15.2020     3.7360    -0.4290 C.ar  1 <1>  -0.1500 
 29 H        4.0830     0.8490     0.3550 H     1 <1>   0.1500 
 30 H        1.6320    -3.1400    -1.1630 H     1 <1>   0.1500 
 31 H       -1.0430    -2.1890     1.7450 H     1 <1>   0.0800 
 32 H       -0.7360    -1.5250     0.1420 H     1 <1>   0.0800 
 33 H       -0.2520    -0.6250     1.5830 H     1 <1>   0.0800 
 34 H        3.3970    -2.1670    -2.5780 H     1 <1>   0.1500 
 35 H        6.9440     2.2430    -1.9670 H     1 <1>   0.0800 
 36 H        7.9020     0.9150    -2.5730 H     1 <1>   0.0800 
 37 H        7.5590    -1.3470    -1.6220 H     1 <1>   0.0800 
 38 H        6.3310    -1.5720    -0.4010 H     1 <1>   0.0800 
 39 H        8.0120     2.1440     0.1950 H     1 <1>   0.0800 
 40 H        9.2230     2.3080    -1.0400 H     1 <1>   0.0800 
 41 H        8.5770    -1.5740     0.6030 H     1 <1>   0.0800 
 42 H        7.5980    -0.2720     1.2070 H     1 <1>   0.0800 
 43 H        9.7160    -0.0770    -0.9410 H     1 <1>   0.0800 
 44 H       11.8290     0.6020    -0.2950 H     1 <1>   0.3700 
 45 H       13.1370     0.2360     1.8830 H     1 <1>   0.0800 
 46 H       12.1840     1.5790     2.4630 H     1 <1>   0.0800 
 47 H       13.2840     3.6340     2.2930 H     1 <1>   0.1500 
 48 H       15.3700     2.1160    -1.7870 H     1 <1>   0.1500 
 49 H       14.8220     5.1790     1.1150 H     1 <1>   0.1500 
 50 H       15.8790     4.3600    -0.9840 H     1 <1>   0.1500 
@<TRIPOS>BOND
  1   1   2  1   
  2   2   3  ar  
  3   2   4  ar  
  4   3   5  1   
  5   3   6  ar  
  6   4   7  ar  
  7   4  29  1   
  8   5   8  1   
  9   6   9  ar  
 10   6  30  1   
 11   7   9  ar  
 12   7  10  1   
 13   8  31  1   
 14   8  32  1   
 15   8  33  1   
 16   9  34  1   
 17  10  11  2   
 18  10  12  2   
 19  10  13  am  
 20  13  14  1   
 21  13  15  1   
 22  14  16  1   
 23  14  35  1   
 24  14  36  1   
 25  15  17  1   
 26  15  37  1   
 27  15  38  1   
 28  16  18  1   
 29  16  39  1   
 30  16  40  1   
 31  17  18  1   
 32  17  41  1   
 33  17  42  1   
 34  18  19  1   
 35  18  43  1   
 36  19  20  2   
 37  19  21  am  
 38  21  22  1   
 39  21  44  1   
 40  22  23  1   
 41  22  45  1   
 42  22  46  1   
 43  23  24  ar  
 44  23  25  ar  
 45  24  26  ar  
 46  25  27  ar  
 47  25  47  1   
 48  26  28  ar  
 49  26  48  1   
 50  27  28  ar  
 51  27  49  1   
 52  28  50  1   
@<TRIPOS>SUBSTRUCTURE
  1 ****  17 GROUP 4 **** **** 0

# MOE 2024.06 (io_trps.svl 2023.06)
