@<TRIPOS>MOLECULE
8-(3,5-Dimethyl-phenyl)-3-ethyl-1-methyl-5,6,7,8-tetrahydro-1H-1,3,4b,8,9-pentaa
50 53 1 0 0 
SMALL
USER_CHARGES


@<TRIPOS>ATOM
  1 O        1.2350     0.3730    -2.0850 O.2   1 <1>  -0.5740 
  2 C        2.0790     0.9990    -1.4770 C.2   1 <1>   0.6860 
  3 N        1.7720     2.2400    -0.9250 N.am  1 <1>  -0.4260 
  4 N        3.3580     0.4720    -1.3400 N.am  1 <1>  -0.4410 
  5 C        2.7340     2.9910    -0.2630 C.2   1 <1>   0.6990 
  6 C        0.3770     2.7620    -1.0260 C.3   1 <1>   0.1330 
  7 C        4.3070     1.2310    -0.6860 C.2   1 <1>   0.4210 
  8 C        3.6990    -0.8660    -1.9090 C.3   1 <1>   0.0520 
  9 O        2.4690     4.0840     0.2110 O.2   1 <1>  -0.5740 
 10 C        4.0510     2.4460    -0.1530 C.2   1 <1>   0.2710 
 11 C       -0.4350     2.3070     0.1860 C.3   1 <1>  -0.2470 
 12 N        5.6160     0.9250    -0.4620 N.pl3 1 <1>  -0.7040 
 13 N        5.2570     2.8840     0.4150 N.pl3 1 <1>  -0.7670 
 14 C        6.1620     1.9380     0.2070 C.cat 1 <1>   1.0690 
 15 C        5.5140     4.1520     1.1280 C.3   1 <1>   0.3480 
 16 N        7.4340     2.0270     0.6310 N.pl3 1 <1>  -0.5800 
 17 C        7.0210     4.4330     1.1000 C.3   1 <1>  -0.1670 
 18 C        8.3710     1.0220     0.3820 C.ar  1 <1>   0.3050 
 19 C        7.8580     3.1920     1.4520 C.3   1 <1>   0.1600 
 20 C        8.9400     0.8980    -0.8780 C.ar  1 <1>  -0.1570 
 21 C        8.7090     0.1150     1.3760 C.ar  1 <1>  -0.1570 
 22 C        9.8210    -0.1320    -1.1520 C.ar  1 <1>  -0.1510 
 23 C        9.5930    -0.9160     1.1140 C.ar  1 <1>  -0.1510 
 24 C       10.1420    -1.0350    -0.1520 C.ar  1 <1>  -0.1570 
 25 C       10.4470    -0.2740    -2.5290 C.3   1 <1>  -0.1040 
 26 C        9.9710    -1.9170     2.1920 C.3   1 <1>  -0.1040 
 27 H       -0.0880     2.4050    -1.9300 H     1 <1>   0.0720 
 28 H        0.3870     3.8380    -1.0740 H     1 <1>   0.0720 
 29 H        2.8130    -1.4700    -2.0140 H     1 <1>   0.0720 
 30 H        4.3810    -1.3880    -1.2610 H     1 <1>   0.0720 
 31 H        4.1470    -0.7440    -2.8800 H     1 <1>   0.0720 
 32 H       -0.4800     1.2330     0.2270 H     1 <1>   0.0720 
 33 H       -1.4390     2.6820     0.1040 H     1 <1>   0.0720 
 34 H       -0.0060     2.6880     1.0950 H     1 <1>   0.0720 
 35 H        6.1250     0.0860    -0.7320 H     1 <1>   0.4450 
 36 H        5.1700     4.0610     2.1450 H     1 <1>   0.0720 
 37 H        4.9780     4.9600     0.6570 H     1 <1>   0.0720 
 38 H        7.2470     5.2260     1.7900 H     1 <1>   0.0720 
 39 H        7.2980     4.7800     0.1200 H     1 <1>   0.0720 
 40 H        8.9010     3.3990     1.2780 H     1 <1>   0.0720 
 41 H        7.7340     2.9490     2.4950 H     1 <1>   0.0720 
 42 H        8.6970     1.6100    -1.6450 H     1 <1>   0.1430 
 43 H        8.2780     0.2140     2.3560 H     1 <1>   0.1430 
 44 H       10.8320    -1.8360    -0.3590 H     1 <1>   0.1430 
 45 H        9.8780     0.2590    -3.2690 H     1 <1>   0.0720 
 46 H       10.4890    -1.3100    -2.8140 H     1 <1>   0.0720 
 47 H       11.4480     0.1190    -2.5150 H     1 <1>   0.0720 
 48 H        9.5370    -1.6520     3.1390 H     1 <1>   0.0720 
 49 H       11.0410    -1.9460     2.3050 H     1 <1>   0.0720 
 50 H        9.6270    -2.8980     1.9180 H     1 <1>   0.0720 
@<TRIPOS>BOND
  1   1   2  2   
  2   2   3  am  
  3   2   4  am  
  4   3   5  am  
  5   3   6  1   
  6   4   7  1   
  7   4   8  1   
  8   5   9  2   
  9   5  10  1   
 10   6  11  1   
 11   6  27  1   
 12   6  28  1   
 13   7  10  2   
 14   7  12  1   
 15   8  29  1   
 16   8  30  1   
 17   8  31  1   
 18  10  13  1   
 19  11  32  1   
 20  11  33  1   
 21  11  34  1   
 22  12  14  ar  
 23  12  35  1   
 24  13  14  ar  
 25  13  15  1   
 26  14  16  ar  
 27  15  17  1   
 28  15  36  1   
 29  15  37  1   
 30  16  18  1   
 31  16  19  1   
 32  17  19  1   
 33  17  38  1   
 34  17  39  1   
 35  18  20  ar  
 36  18  21  ar  
 37  19  40  1   
 38  19  41  1   
 39  20  22  ar  
 40  20  42  1   
 41  21  23  ar  
 42  21  43  1   
 43  22  24  ar  
 44  22  25  1   
 45  23  24  ar  
 46  23  26  1   
 47  24  44  1   
 48  25  45  1   
 49  25  46  1   
 50  25  47  1   
 51  26  48  1   
 52  26  49  1   
 53  26  50  1   
@<TRIPOS>SUBSTRUCTURE
  1 ****  12 GROUP 4 **** **** 0

# MOE 2024.06 (io_trps.svl 2023.06)
