@<TRIPOS>MOLECULE
7-(2-Ethoxy-ethyl)-8-[4-(4-fluoro-phenyl)-piperazin-1-ylmethyl]-1,3-dimethyl-3,7
62 65 1 0 0 
SMALL
USER_CHARGES


@<TRIPOS>ATOM
  1 F       -0.0740     1.5860     0.4430 F     1 <1>  -0.1900 
  2 C       -0.8500     2.6400     0.4300 C.ar  1 <1>   0.1900 
  3 C       -1.8100     2.7490    -0.5580 C.ar  1 <1>  -0.1500 
  4 C       -0.6790     3.6050     1.4050 C.ar  1 <1>  -0.1500 
  5 C       -2.6270     3.8670    -0.5660 C.ar  1 <1>  -0.1500 
  6 C       -1.5040     4.7170     1.3830 C.ar  1 <1>  -0.1500 
  7 C       -2.4810     4.8590     0.4030 C.ar  1 <1>   0.1000 
  8 N       -3.2900     5.9880     0.4130 N.pl3 1 <1>  -0.8380 
  9 C       -4.7140     5.7760     0.7840 C.3   1 <1>   0.2090 
 10 C       -3.1370     6.9270    -0.7330 C.3   1 <1>   0.2090 
 11 C       -5.4020     7.1270     1.0550 C.3   1 <1>   0.1100 
 12 C       -3.8640     8.2550    -0.4440 C.3   1 <1>   0.1100 
 13 N       -5.2980     8.0600    -0.1020 N.3   1 <1>  -0.8100 
 14 C       -5.9360     9.3690     0.2030 C.3   1 <1>   0.2540 
 15 C       -7.4710     9.2860     0.1880 C.cat 1 <1>   0.6560 
 16 N       -8.1130     8.4400    -0.6100 N.pl3 1 <1>  -0.7000 
 17 N       -8.3480     9.9770     0.9130 N.pl3 1 <1>  -0.7640 
 18 C       -9.4440     8.5960    -0.4150 C.2   1 <1>   0.4260 
 19 C       -9.6240     9.5560     0.5220 C.2   1 <1>   0.2770 
 20 C       -8.0710    11.0520     1.9160 C.3   1 <1>   0.3540 
 21 N      -10.4790     7.9240    -1.0380 N.am  1 <1>  -0.4360 
 22 C      -10.9660     9.9200     0.8780 C.2   1 <1>   0.7030 
 23 C       -7.7700    12.3940     1.2320 C.3   1 <1>   0.1200 
 24 C      -11.7780     8.2710    -0.6990 C.2   1 <1>   0.6900 
 25 C      -10.2060     6.8870    -2.0760 C.3   1 <1>   0.0600 
 26 O      -11.1840    10.8080     1.6840 O.2   1 <1>  -0.5700 
 27 N      -12.0130     9.2410     0.2700 N.am  1 <1>  -0.4200 
 28 O       -6.7000    12.2350     0.3470 O.3   1 <1>  -0.5600 
 29 O      -12.7120     7.7300    -1.2540 O.2   1 <1>  -0.5700 
 30 C      -13.4280     9.5820     0.6210 C.3   1 <1>   0.0600 
 31 C       -6.3400    13.3990    -0.3210 C.3   1 <1>   0.1200 
 32 C       -5.1970    13.0480    -1.2640 C.3   1 <1>  -0.2400 
 33 H       -1.9110     1.9770    -1.2980 H     1 <1>   0.1500 
 34 H        0.0780     3.4870     2.1570 H     1 <1>   0.1500 
 35 H       -3.3810     3.9770    -1.3210 H     1 <1>   0.1500 
 36 H       -1.4010     5.4890     2.1230 H     1 <1>   0.1500 
 37 H       -4.7620     5.1620     1.6670 H     1 <1>   0.0800 
 38 H       -5.2240     5.2620    -0.0120 H     1 <1>   0.0800 
 39 H       -3.5400     6.4820    -1.6250 H     1 <1>   0.0800 
 40 H       -2.0900     7.1180    -0.8960 H     1 <1>   0.0800 
 41 H       -4.9400     7.5660     1.9230 H     1 <1>   0.0800 
 42 H       -6.4360     6.9400     1.2850 H     1 <1>   0.0800 
 43 H       -3.7830     8.8830    -1.3150 H     1 <1>   0.0800 
 44 H       -3.3550     8.7460     0.3690 H     1 <1>   0.0800 
 45 H       -5.6480    10.0830    -0.5480 H     1 <1>   0.0800 
 46 H       -5.5940     9.7370     1.1540 H     1 <1>   0.0800 
 47 H       -7.6130     7.7980    -1.2310 H     1 <1>   0.4500 
 48 H       -7.2270    10.7750     2.5230 H     1 <1>   0.0800 
 49 H       -8.9120    11.1700     2.5780 H     1 <1>   0.0800 
 50 H       -7.5040    13.1320     1.9690 H     1 <1>   0.0800 
 51 H       -8.6330    12.7310     0.6840 H     1 <1>   0.0800 
 52 H       -9.3620     6.2840    -1.7900 H     1 <1>   0.0800 
 53 H      -10.0030     7.3630    -3.0200 H     1 <1>   0.0800 
 54 H      -11.0560     6.2360    -2.1970 H     1 <1>   0.0800 
 55 H      -13.4880    10.0350     1.5960 H     1 <1>   0.0800 
 56 H      -14.0340     8.6920     0.6270 H     1 <1>   0.0800 
 57 H      -13.8260    10.2660    -0.1090 H     1 <1>   0.0800 
 58 H       -6.0240    14.1350     0.4000 H     1 <1>   0.0800 
 59 H       -7.1890    13.7660    -0.8750 H     1 <1>   0.0800 
 60 H       -4.3570    12.6720    -0.7080 H     1 <1>   0.0800 
 61 H       -4.8840    13.9290    -1.7950 H     1 <1>   0.0800 
 62 H       -5.5170    12.3150    -1.9830 H     1 <1>   0.0800 
@<TRIPOS>BOND
  1   1   2  1   
  2   2   3  ar  
  3   2   4  ar  
  4   3   5  ar  
  5   3  33  1   
  6   4   6  ar  
  7   4  34  1   
  8   5   7  ar  
  9   5  35  1   
 10   6   7  ar  
 11   6  36  1   
 12   7   8  1   
 13   8   9  1   
 14   8  10  1   
 15   9  11  1   
 16   9  37  1   
 17   9  38  1   
 18  10  12  1   
 19  10  39  1   
 20  10  40  1   
 21  11  13  1   
 22  11  41  1   
 23  11  42  1   
 24  12  13  1   
 25  12  43  1   
 26  12  44  1   
 27  13  14  1   
 28  14  15  1   
 29  14  45  1   
 30  14  46  1   
 31  15  16  ar  
 32  15  17  ar  
 33  16  18  1   
 34  16  47  1   
 35  17  19  1   
 36  17  20  1   
 37  18  19  2   
 38  18  21  1   
 39  19  22  1   
 40  20  23  1   
 41  20  48  1   
 42  20  49  1   
 43  21  24  am  
 44  21  25  1   
 45  22  26  2   
 46  22  27  am  
 47  23  28  1   
 48  23  50  1   
 49  23  51  1   
 50  24  27  am  
 51  24  29  2   
 52  25  52  1   
 53  25  53  1   
 54  25  54  1   
 55  27  30  1   
 56  28  31  1   
 57  30  55  1   
 58  30  56  1   
 59  30  57  1   
 60  31  32  1   
 61  31  58  1   
 62  31  59  1   
 63  32  60  1   
 64  32  61  1   
 65  32  62  1   
@<TRIPOS>SUBSTRUCTURE
  1 ****  13 GROUP 4 **** **** 0

# MOE 2024.06 (io_trps.svl 2023.06)
