@<TRIPOS>MOLECULE
2-(4-Fluoro-phenyl)-2-pyrrolidin-1-yl-ethylamine
34 35 1 0 0 
SMALL
USER_CHARGES


@<TRIPOS>ATOM
  1 F       -0.0920     0.5390    -0.6570 F     1 <1>  -0.1900 
  2 C       -0.0830     1.8220    -0.4280 C.ar  1 <1>   0.1900 
  3 C        0.1760     2.2700     0.8520 C.ar  1 <1>  -0.1500 
  4 C       -0.3300     2.6880    -1.4730 C.ar  1 <1>  -0.1500 
  5 C        0.1900     3.6330     1.0910 C.ar  1 <1>  -0.1500 
  6 C       -0.3140     4.0510    -1.2290 C.ar  1 <1>  -0.1500 
  7 C       -0.0500     4.5310     0.0540 C.ar  1 <1>  -0.1430 
  8 C       -0.0120     6.0270     0.3470 C.3   1 <1>   0.5670 
  9 N       -1.3740     6.5990     0.0680 N.4   1 <1>  -0.9590 
 10 C        1.1610     6.6720    -0.4710 C.3   1 <1>   0.3430 
 11 C       -1.5550     8.0560     0.3310 C.3   1 <1>   0.3430 
 12 C       -2.4440     5.9320     0.8690 C.3   1 <1>   0.3430 
 13 N        2.4550     5.8820    -0.4860 N.4   1 <1>  -0.8530 
 14 C       -3.0630     8.2420     0.4090 C.3   1 <1>  -0.1600 
 15 C       -3.6370     6.8700     0.7680 C.3   1 <1>  -0.1600 
 16 H        0.3570     1.5550     1.6390 H     1 <1>   0.1500 
 17 H       -0.5340     2.2900    -2.4540 H     1 <1>   0.1500 
 18 H        0.3870     3.9670     2.0980 H     1 <1>   0.1500 
 19 H       -0.5170     4.7090    -2.0580 H     1 <1>   0.1500 
 20 H        0.2010     6.1620     1.3950 H     1 <1>   0.0800 
 21 H       -1.6400     6.4200    -0.9090 H     1 <1>   0.4500 
 22 H        1.3540     7.6590    -0.0830 H     1 <1>   0.0800 
 23 H        0.8260     6.7770    -1.4890 H     1 <1>   0.0800 
 24 H       -1.1280     8.6700    -0.4470 H     1 <1>   0.0800 
 25 H       -1.1200     8.3200     1.2820 H     1 <1>   0.0800 
 26 H       -2.1420     5.8510     1.9020 H     1 <1>   0.0800 
 27 H       -2.6800     4.9490     0.4900 H     1 <1>   0.0800 
 28 H        2.9300     5.8510     0.4280 H     1 <1>   0.4500 
 29 H        3.1350     6.2810    -1.1510 H     1 <1>   0.4500 
 30 H        2.3030     4.9020    -0.7780 H     1 <1>   0.4500 
 31 H       -3.4440     8.5700    -0.5440 H     1 <1>   0.0800 
 32 H       -3.3150     8.9860     1.1460 H     1 <1>   0.0800 
 33 H       -4.1760     6.8940     1.7010 H     1 <1>   0.0800 
 34 H       -4.3100     6.5290     0.0000 H     1 <1>   0.0800 
@<TRIPOS>BOND
  1   1   2  1   
  2   2   3  ar  
  3   2   4  ar  
  4   3   5  ar  
  5   3  16  1   
  6   4   6  ar  
  7   4  17  1   
  8   5   7  ar  
  9   5  18  1   
 10   6   7  ar  
 11   6  19  1   
 12   7   8  1   
 13   8   9  1   
 14   8  10  1   
 15   8  20  1   
 16   9  11  1   
 17   9  12  1   
 18   9  21  1   
 19  10  13  1   
 20  10  22  1   
 21  10  23  1   
 22  11  14  1   
 23  11  24  1   
 24  11  25  1   
 25  12  15  1   
 26  12  26  1   
 27  12  27  1   
 28  13  28  1   
 29  13  29  1   
 30  13  30  1   
 31  14  15  1   
 32  14  31  1   
 33  14  32  1   
 34  15  33  1   
 35  15  34  1   
@<TRIPOS>SUBSTRUCTURE
  1 ****   7 GROUP 4 **** **** 0

# MOE 2024.06 (io_trps.svl 2023.06)
