@<TRIPOS>MOLECULE
(2,5-Dimethyl-3-phenyl-pyrazolo[1,5-a]pyrimidin-7-yl)-(3-morpholin-4-yl-propyl)-
56 59 1 0 0 
SMALL
USER_CHARGES


@<TRIPOS>ATOM
  1 O        1.7010     0.0030     1.8280 O.3   1 <1>  -0.5600 
  2 C        1.0960    -1.0900     1.1890 C.3   1 <1>   0.1200 
  3 C        2.0790     1.0350     0.9580 C.3   1 <1>   0.1200 
  4 C        2.0270    -1.6830     0.1050 C.3   1 <1>   0.3430 
  5 C        3.0890     0.5220    -0.0960 C.3   1 <1>   0.3430 
  6 N        3.3470    -0.9560     0.0670 N.4   1 <1>  -0.9590 
  7 C        4.3040    -1.5530    -0.9070 C.3   1 <1>   0.3430 
  8 C        5.7350    -1.0560    -0.6420 C.3   1 <1>  -0.1600 
  9 C        6.7630    -1.7610    -1.5470 C.3   1 <1>   0.1860 
 10 N        8.1360    -1.2540    -1.2770 N.pl3 1 <1>  -0.1460 
 11 C        9.2690    -1.9120    -0.9680 C.cat 1 <1>   0.3950 
 12 N       10.3840    -1.1260    -0.7620 N.pl3 1 <1>   0.5610 
 13 C        9.4420    -3.3020    -0.8340 C.2   1 <1>  -0.1360 
 14 N       10.4250     0.2330    -0.8350 N.2   1 <1>  -0.7070 
 15 C       11.6000    -1.6450    -0.4340 C.2   1 <1>  -0.0680 
 16 C       10.6700    -3.8380    -0.5130 C.2   1 <1>  -0.0380 
 17 C       11.6570     0.5280    -0.5550 C.2   1 <1>   0.1080 
 18 N       11.7310    -3.0260    -0.3180 N.pl3 1 <1>  -0.5840 
 19 C       12.4570    -0.5970    -0.2950 C.2   1 <1>  -0.0540 
 20 C       10.9040    -5.3290    -0.3660 C.3   1 <1>  -0.1020 
 21 C       12.1540     1.9580    -0.5120 C.3   1 <1>  -0.0590 
 22 C       13.8550    -0.6410     0.0450 C.ar  1 <1>   0.0540 
 23 C       14.2780    -1.2210     1.2380 C.ar  1 <1>  -0.1500 
 24 C       14.8230    -0.1150    -0.8070 C.ar  1 <1>  -0.1500 
 25 C       15.6190    -1.2730     1.5720 C.ar  1 <1>  -0.1500 
 26 C       16.1660    -0.1640    -0.4780 C.ar  1 <1>  -0.1500 
 27 C       16.5660    -0.7440     0.7130 C.ar  1 <1>  -0.1500 
 28 H        0.1620    -0.7670     0.7590 H     1 <1>   0.0800 
 29 H        0.8800    -1.8300     1.9410 H     1 <1>   0.0800 
 30 H        2.5210     1.8180     1.5490 H     1 <1>   0.0800 
 31 H        1.1960     1.4300     0.4850 H     1 <1>   0.0800 
 32 H        1.5360    -1.6140    -0.8520 H     1 <1>   0.0800 
 33 H        2.1820    -2.7290     0.3170 H     1 <1>   0.0800 
 34 H        4.0070     1.0750     0.0110 H     1 <1>   0.0800 
 35 H        2.6980     0.7260    -1.0800 H     1 <1>   0.0800 
 36 H        3.7010    -1.0510     1.0330 H     1 <1>   0.4500 
 37 H        4.0010    -1.3050    -1.9130 H     1 <1>   0.0800 
 38 H        4.2810    -2.6270    -0.8070 H     1 <1>   0.0800 
 39 H        5.9850    -1.2530     0.3870 H     1 <1>   0.0800 
 40 H        5.7790     0.0040    -0.8210 H     1 <1>   0.0800 
 41 H        6.5290    -1.5780    -2.5830 H     1 <1>   0.0800 
 42 H        6.7300    -2.8250    -1.3800 H     1 <1>   0.0800 
 43 H        8.2520    -0.2280    -1.3560 H     1 <1>   0.4000 
 44 H        8.6120    -3.9660    -0.9860 H     1 <1>   0.1500 
 45 H       12.6660    -3.4040    -0.0920 H     1 <1>   0.4000 
 46 H       11.6480    -5.6560    -1.0720 H     1 <1>   0.0800 
 47 H       10.0010    -5.8850    -0.5430 H     1 <1>   0.0800 
 48 H       11.2520    -5.5520     0.6270 H     1 <1>   0.0800 
 49 H       11.3420     2.6260    -0.2880 H     1 <1>   0.0800 
 50 H       12.5730     2.2270    -1.4640 H     1 <1>   0.0800 
 51 H       12.9070     2.0690     0.2470 H     1 <1>   0.0800 
 52 H       13.5460    -1.6300     1.9120 H     1 <1>   0.1500 
 53 H       14.5200     0.3310    -1.7370 H     1 <1>   0.1500 
 54 H       15.9290    -1.7230     2.4990 H     1 <1>   0.1500 
 55 H       16.9010     0.2470    -1.1480 H     1 <1>   0.1500 
 56 H       17.6110    -0.7830     0.9700 H     1 <1>   0.1500 
@<TRIPOS>BOND
  1   1   2  1   
  2   1   3  1   
  3   2   4  1   
  4   2  28  1   
  5   2  29  1   
  6   3   5  1   
  7   3  30  1   
  8   3  31  1   
  9   4   6  1   
 10   4  32  1   
 11   4  33  1   
 12   5   6  1   
 13   5  34  1   
 14   5  35  1   
 15   6   7  1   
 16   6  36  1   
 17   7   8  1   
 18   7  37  1   
 19   7  38  1   
 20   8   9  1   
 21   8  39  1   
 22   8  40  1   
 23   9  10  1   
 24   9  41  1   
 25   9  42  1   
 26  10  11  ar  
 27  10  43  1   
 28  11  12  ar  
 29  11  13  1   
 30  12  14  1   
 31  12  15  1   
 32  13  16  2   
 33  13  44  1   
 34  14  17  2   
 35  15  18  1   
 36  15  19  2   
 37  16  18  1   
 38  16  20  1   
 39  17  19  1   
 40  17  21  1   
 41  18  45  1   
 42  19  22  1   
 43  20  46  1   
 44  20  47  1   
 45  20  48  1   
 46  21  49  1   
 47  21  50  1   
 48  21  51  1   
 49  22  23  ar  
 50  22  24  ar  
 51  23  25  ar  
 52  23  52  1   
 53  24  26  ar  
 54  24  53  1   
 55  25  27  ar  
 56  25  54  1   
 57  26  27  ar  
 58  26  55  1   
 59  27  56  1   
@<TRIPOS>SUBSTRUCTURE
  1 ****  11 GROUP 4 **** **** 0

# MOE 2024.06 (io_trps.svl 2023.06)
