@<TRIPOS>MOLECULE
6-Methyl-10-oxo-2-[(tetrahydro-furan-2-ylmethyl)-amino]-10H-1,9,10a-triaza-anthr
53 56 1 0 0 
SMALL
USER_CHARGES


@<TRIPOS>ATOM
  1 O       -0.8020    -1.1520     2.1060 O.2   1 <1>  -0.5700 
  2 C       -0.3650    -1.9850     1.3470 C.2   1 <1>   0.8650 
  3 N       -1.2460    -2.9560     0.8360 N.pl3 1 <1>  -0.5760 
  4 C        1.0130    -1.9790     0.9700 C.ar  1 <1>   0.0860 
  5 C       -0.7940    -3.8860    -0.0390 C.cat 1 <1>   0.7390 
  6 C       -2.5720    -2.9790     1.2110 C.2   1 <1>   0.1910 
  7 C        1.4080    -2.9600     0.0690 C.ar  1 <1>   0.6590 
  8 C        1.9820    -1.0880     1.4120 C.ar  1 <1>  -0.1500 
  9 N        0.4980    -3.8540    -0.3950 N.pl3 1 <1>  -0.6530 
 10 C       -1.6680    -4.8520    -0.5530 C.2   1 <1>  -0.1800 
 11 C       -3.4450    -3.9140     0.7220 C.2   1 <1>  -0.1380 
 12 N        2.6200    -3.1230    -0.4000 N.ar  1 <1>  -0.6200 
 13 C        3.2770    -1.2240     0.9430 C.ar  1 <1>   0.0860 
 14 C       -2.9860    -4.8770    -0.1830 C.2   1 <1>  -0.1500 
 15 C       -4.9090    -3.9400     1.1340 C.3   1 <1>  -0.1020 
 16 C        3.5430    -2.2880     0.0500 C.ar  1 <1>   0.4100 
 17 C        4.2920    -0.3050     1.3800 C.2   1 <1>   0.5440 
 18 N        4.7740    -2.5730    -0.4470 N.pl3 1 <1>  -0.8690 
 19 O        4.6860    -0.3470     2.5260 O.2   1 <1>  -0.5700 
 20 N        4.8360     0.6540     0.5860 N.am  1 <1>  -0.7300 
 21 C        6.0220    -2.6340     0.3650 C.3   1 <1>   0.2090 
 22 C        4.6680     0.8600    -0.8600 C.3   1 <1>   0.2780 
 23 C        7.0770    -3.4920    -0.3550 C.3   1 <1>   0.2000 
 24 C        6.0420     0.8290    -1.4880 C.2   1 <1>  -0.2880 
 25 O        6.5060    -4.6640    -0.8510 O.3   1 <1>  -0.5600 
 26 C        8.2150    -3.9720     0.5330 C.3   1 <1>  -0.1600 
 27 C        6.6540     1.8650    -2.0700 C.2   1 <1>  -0.3000 
 28 C        7.4860    -5.6360    -1.0430 C.3   1 <1>   0.1200 
 29 C        8.6770    -5.2360    -0.1720 C.3   1 <1>  -0.1600 
 30 H       -2.9240    -2.2330     1.9110 H     1 <1>   0.1500 
 31 H        1.7400    -0.3030     2.1130 H     1 <1>   0.1500 
 32 H        0.8900    -4.5360    -1.0460 H     1 <1>   0.4500 
 33 H       -1.2920    -5.5810    -1.2470 H     1 <1>   0.1500 
 34 H       -3.6680    -5.6170    -0.5730 H     1 <1>   0.1500 
 35 H       -5.1450    -4.8810     1.6010 H     1 <1>   0.0800 
 36 H       -5.5390    -3.8180     0.2700 H     1 <1>   0.0800 
 37 H       -5.1330    -3.1510     1.8300 H     1 <1>   0.0800 
 38 H        4.7870    -3.3740    -1.0970 H     1 <1>   0.4000 
 39 H        5.5610     1.2320     1.0160 H     1 <1>   0.3700 
 40 H        5.8020    -3.0650     1.3260 H     1 <1>   0.0800 
 41 H        6.4200    -1.6480     0.5200 H     1 <1>   0.0800 
 42 H        4.2040     1.8180    -1.0300 H     1 <1>   0.0800 
 43 H        4.0490     0.0940    -1.2940 H     1 <1>   0.0800 
 44 H        7.4740    -2.9500    -1.1970 H     1 <1>   0.0800 
 45 H        6.4940    -0.1460    -1.4190 H     1 <1>   0.1500 
 46 H        7.8410    -4.2140     1.5130 H     1 <1>   0.0800 
 47 H        8.9950    -3.2370     0.6210 H     1 <1>   0.0800 
 48 H        7.6350     1.8110    -2.5110 H     1 <1>   0.1500 
 49 H        6.2330     2.8530    -2.1570 H     1 <1>   0.1500 
 50 H        7.7500    -5.6490    -2.0870 H     1 <1>   0.0800 
 51 H        7.0790    -6.5890    -0.7540 H     1 <1>   0.0800 
 52 H        8.9310    -6.0140     0.5260 H     1 <1>   0.0800 
 53 H        9.5280    -5.0370    -0.7990 H     1 <1>   0.0800 
@<TRIPOS>BOND
  1   1   2  2   
  2   2   3  1   
  3   2   4  1   
  4   3   5  ar  
  5   3   6  1   
  6   4   7  ar  
  7   4   8  ar  
  8   5   9  ar  
  9   5  10  1   
 10   6  11  2   
 11   6  30  1   
 12   7   9  1   
 13   7  12  ar  
 14   8  13  ar  
 15   8  31  1   
 16   9  32  1   
 17  10  14  2   
 18  10  33  1   
 19  11  14  1   
 20  11  15  1   
 21  12  16  ar  
 22  13  16  ar  
 23  13  17  1   
 24  14  34  1   
 25  15  35  1   
 26  15  36  1   
 27  15  37  1   
 28  16  18  1   
 29  17  19  2   
 30  17  20  am  
 31  18  21  1   
 32  18  38  1   
 33  20  22  1   
 34  20  39  1   
 35  21  23  1   
 36  21  40  1   
 37  21  41  1   
 38  22  24  1   
 39  22  42  1   
 40  22  43  1   
 41  23  25  1   
 42  23  26  1   
 43  23  44  1   
 44  24  27  2   
 45  24  45  1   
 46  25  28  1   
 47  26  29  1   
 48  26  46  1   
 49  26  47  1   
 50  27  48  1   
 51  27  49  1   
 52  28  29  1   
 53  28  50  1   
 54  28  51  1   
 55  29  52  1   
 56  29  53  1   
@<TRIPOS>SUBSTRUCTURE
  1 ****  12 GROUP 4 **** **** 0

# MOE 2024.06 (io_trps.svl 2023.06)
