@<TRIPOS>MOLECULE
1-(4-Methoxy-3-methyl-benzenesulfonyl)-piperidine-4-carboxylic acid (3-ethoxy-pr
57 58 1 0 0 
SMALL
USER_CHARGES


@<TRIPOS>ATOM
  1 S        0.1530    -0.1640     2.0700 S.o2  1 <1>   1.4470 
  2 O        0.5220    -1.3180     2.8610 O.2   1 <1>  -0.6500 
  3 O       -0.2190     1.0640     2.7410 O.2   1 <1>  -0.6500 
  4 N        1.4830     0.2140     1.0860 N.am  1 <1>  -0.8490 
  5 C       -1.1220    -0.6430     0.8710 C.ar  1 <1>  -0.0090 
  6 C        2.7220     0.2710     1.8650 C.3   1 <1>   0.1960 
  7 C        1.2660     1.4480     0.3240 C.3   1 <1>   0.1960 
  8 C       -2.3860    -0.0670     0.8920 C.ar  1 <1>  -0.1500 
  9 C       -0.8610    -1.6000    -0.1010 C.ar  1 <1>  -0.1500 
 10 C        3.9240     0.4630     0.9380 C.3   1 <1>  -0.1600 
 11 C        2.4150     1.6670    -0.6620 C.3   1 <1>  -0.1600 
 12 C       -3.3630    -0.4210    -0.0260 C.ar  1 <1>  -0.1430 
 13 C       -1.8220    -1.9680    -1.0250 C.ar  1 <1>  -0.1500 
 14 C        3.7690     1.7190     0.0660 C.3   1 <1>  -0.0190 
 15 C       -3.0820    -1.3780    -0.9960 C.ar  1 <1>   0.0830 
 16 C       -4.7330     0.2400     0.0350 C.3   1 <1>  -0.0970 
 17 C        4.9440     1.8680    -0.8990 C.2   1 <1>   0.5690 
 18 O       -4.0650    -1.6940    -1.8770 O.3   1 <1>  -0.3630 
 19 O        4.9950     1.1820    -1.8910 O.2   1 <1>  -0.5700 
 20 N        5.9130     2.7730    -0.6030 N.am  1 <1>  -0.7300 
 21 C       -3.8810    -2.6670    -2.8810 C.3   1 <1>   0.0400 
 22 C        7.1390     2.9890    -1.3980 C.3   1 <1>   0.1400 
 23 C        8.3450     2.9750    -0.4630 C.3   1 <1>  -0.1600 
 24 C        9.6430     3.1420    -1.2480 C.3   1 <1>   0.1200 
 25 O       10.6830     3.1700    -0.3310 O.3   1 <1>  -0.5600 
 26 C       11.9410     3.2890    -0.9040 C.3   1 <1>   0.1200 
 27 C       12.9600     3.3100     0.2290 C.3   1 <1>  -0.2400 
 28 H        2.8530    -0.6520     2.4080 H     1 <1>   0.0800 
 29 H        2.6670     1.0750     2.5810 H     1 <1>   0.0800 
 30 H        1.1920     2.2890     0.9940 H     1 <1>   0.0800 
 31 H        0.3440     1.3770    -0.2300 H     1 <1>   0.0800 
 32 H       -2.6050     0.6730     1.6430 H     1 <1>   0.1500 
 33 H        0.1130    -2.0610    -0.1320 H     1 <1>   0.1500 
 34 H        4.0180    -0.4050     0.3080 H     1 <1>   0.0800 
 35 H        4.8210     0.5370     1.5270 H     1 <1>   0.0800 
 36 H        2.2580     2.5840    -1.2000 H     1 <1>   0.0800 
 37 H        2.4140     0.8630    -1.3790 H     1 <1>   0.0800 
 38 H       -1.5700    -2.7110    -1.7570 H     1 <1>   0.1500 
 39 H        3.7600     2.5770     0.7140 H     1 <1>   0.0800 
 40 H       -4.7880     0.9530     0.8370 H     1 <1>   0.0800 
 41 H       -5.4900    -0.5090     0.1890 H     1 <1>   0.0800 
 42 H       -4.9340     0.7470    -0.8910 H     1 <1>   0.0800 
 43 H        5.8420     3.3340     0.2460 H     1 <1>   0.3700 
 44 H       -4.7940    -2.7430    -3.4430 H     1 <1>   0.0800 
 45 H       -3.6580    -3.6110    -2.4160 H     1 <1>   0.0800 
 46 H       -3.0790    -2.3550    -3.5270 H     1 <1>   0.0800 
 47 H        7.0700     3.9360    -1.9070 H     1 <1>   0.0800 
 48 H        7.2380     2.2110    -2.1380 H     1 <1>   0.0800 
 49 H        8.3790     2.0370     0.0610 H     1 <1>   0.0800 
 50 H        8.2620     3.7800     0.2450 H     1 <1>   0.0800 
 51 H        9.6440     4.0680    -1.7970 H     1 <1>   0.0800 
 52 H        9.7920     2.3120    -1.9180 H     1 <1>   0.0800 
 53 H       11.9820     4.2060    -1.4680 H     1 <1>   0.0800 
 54 H       12.1110     2.4460    -1.5520 H     1 <1>   0.0800 
 55 H       12.7730     4.1470     0.8770 H     1 <1>   0.0800 
 56 H       13.9520     3.4010    -0.1740 H     1 <1>   0.0800 
 57 H       12.8990     2.3980     0.7950 H     1 <1>   0.0800 
@<TRIPOS>BOND
  1   1   2  2   
  2   1   3  2   
  3   1   4  am  
  4   1   5  1   
  5   4   6  1   
  6   4   7  1   
  7   5   8  ar  
  8   5   9  ar  
  9   6  10  1   
 10   6  28  1   
 11   6  29  1   
 12   7  11  1   
 13   7  30  1   
 14   7  31  1   
 15   8  12  ar  
 16   8  32  1   
 17   9  13  ar  
 18   9  33  1   
 19  10  14  1   
 20  10  34  1   
 21  10  35  1   
 22  11  14  1   
 23  11  36  1   
 24  11  37  1   
 25  12  15  ar  
 26  12  16  1   
 27  13  15  ar  
 28  13  38  1   
 29  14  17  1   
 30  14  39  1   
 31  15  18  1   
 32  16  40  1   
 33  16  41  1   
 34  16  42  1   
 35  17  19  2   
 36  17  20  am  
 37  18  21  1   
 38  20  22  1   
 39  20  43  1   
 40  21  44  1   
 41  21  45  1   
 42  21  46  1   
 43  22  23  1   
 44  22  47  1   
 45  22  48  1   
 46  23  24  1   
 47  23  49  1   
 48  23  50  1   
 49  24  25  1   
 50  24  51  1   
 51  24  52  1   
 52  25  26  1   
 53  26  27  1   
 54  26  53  1   
 55  26  54  1   
 56  27  55  1   
 57  27  56  1   
 58  27  57  1   
@<TRIPOS>SUBSTRUCTURE
  1 ****  11 GROUP 4 **** **** 0

# MOE 2024.06 (io_trps.svl 2023.06)
