@<TRIPOS>MOLECULE
N-Benzo[1,3]dioxol-5-ylmethyl-2-(cyclohexyl-methanesulfonyl-amino)-acetamide
49 51 1 0 0 
SMALL
USER_CHARGES


@<TRIPOS>ATOM
  1 S        0.8350    -0.9860     1.4630 S.o2  1 <1>   1.3330 
  2 O       -0.1820    -0.7910     2.4700 O.2   1 <1>  -0.6500 
  3 O        2.0790    -1.6170     1.8490 O.2   1 <1>  -0.6500 
  4 N        0.1890    -1.8520     0.1520 N.am  1 <1>  -0.8490 
  5 C        1.1650     0.6150     0.7550 C.3   1 <1>  -0.1350 
  6 C       -1.0690    -2.5550     0.4870 C.3   1 <1>   0.2760 
  7 C        1.2170    -2.6130    -0.6250 C.3   1 <1>   0.2570 
  8 C       -1.3250    -3.8600    -0.2970 C.3   1 <1>  -0.1600 
  9 C       -2.2360    -1.5830     0.2340 C.3   1 <1>  -0.1600 
 10 C        2.3700    -1.7960    -1.2350 C.2   1 <1>   0.5690 
 11 C       -2.6670    -4.4970     0.0920 C.3   1 <1>  -0.1600 
 12 C       -3.5890    -2.2020     0.6130 C.3   1 <1>  -0.1600 
 13 O        2.2420    -1.3320    -2.3430 O.2   1 <1>  -0.5700 
 14 N        3.5160    -1.6150    -0.5310 N.am  1 <1>  -0.7300 
 15 C       -3.8270    -3.5200    -0.1320 C.3   1 <1>  -0.1600 
 16 C        4.7300    -0.9480    -1.0270 C.3   1 <1>   0.2840 
 17 C        5.9350    -1.7660    -0.6010 C.ar  1 <1>  -0.1440 
 18 C        6.6580    -1.4120     0.5340 C.ar  1 <1>  -0.1500 
 19 C        6.3160    -2.8790    -1.3520 C.ar  1 <1>  -0.1500 
 20 C        7.7490    -2.1840     0.8800 C.ar  1 <1>   0.0820 
 21 C        7.4160    -3.6450    -0.9870 C.ar  1 <1>  -0.1500 
 22 O        8.5810    -2.0280     1.9160 O.3   1 <1>  -0.3630 
 23 C        8.1170    -3.2700     0.1410 C.ar  1 <1>   0.0820 
 24 C        9.5390    -3.0820     1.8310 C.3   1 <1>   0.4000 
 25 O        9.1960    -3.8480     0.6790 O.3   1 <1>  -0.3620 
 26 H        1.8650     0.5440    -0.0520 H     1 <1>   0.0800 
 27 H        1.5680     1.2690     1.5020 H     1 <1>   0.0800 
 28 H        0.2560     1.0410     0.3800 H     1 <1>   0.0800 
 29 H       -1.0590    -2.8240     1.5310 H     1 <1>   0.0800 
 30 H        0.7510    -3.0900    -1.4650 H     1 <1>   0.0800 
 31 H        1.6350    -3.3840    -0.0010 H     1 <1>   0.0800 
 32 H       -0.5480    -4.5730    -0.0900 H     1 <1>   0.0800 
 33 H       -1.3480    -3.6520    -1.3530 H     1 <1>   0.0800 
 34 H       -2.2500    -1.3150    -0.8080 H     1 <1>   0.0800 
 35 H       -2.1040    -0.6850     0.8080 H     1 <1>   0.0800 
 36 H       -2.6400    -4.7860     1.1300 H     1 <1>   0.0800 
 37 H       -2.8290    -5.3860    -0.4930 H     1 <1>   0.0800 
 38 H       -4.3800    -1.5090     0.3810 H     1 <1>   0.0800 
 39 H       -3.6110    -2.3820     1.6750 H     1 <1>   0.0800 
 40 H        3.5440    -1.9020     0.4590 H     1 <1>   0.3700 
 41 H       -4.7470    -3.9660     0.2060 H     1 <1>   0.0800 
 42 H       -3.9260    -3.3200    -1.1860 H     1 <1>   0.0800 
 43 H        4.7870     0.0440    -0.6130 H     1 <1>   0.0800 
 44 H        4.6990    -0.8670    -2.1010 H     1 <1>   0.0800 
 45 H        6.3910    -0.5650     1.1400 H     1 <1>   0.1500 
 46 H        5.7510    -3.1520    -2.2260 H     1 <1>   0.1500 
 47 H        7.7220    -4.5040    -1.5560 H     1 <1>   0.1500 
 48 H        9.4730    -3.7000     2.7090 H     1 <1>   0.0800 
 49 H       10.5230    -2.6660     1.7090 H     1 <1>   0.0800 
@<TRIPOS>BOND
  1   1   2  2   
  2   1   3  2   
  3   1   4  am  
  4   1   5  1   
  5   4   6  1   
  6   4   7  1   
  7   5  26  1   
  8   5  27  1   
  9   5  28  1   
 10   6   8  1   
 11   6   9  1   
 12   6  29  1   
 13   7  10  1   
 14   7  30  1   
 15   7  31  1   
 16   8  11  1   
 17   8  32  1   
 18   8  33  1   
 19   9  12  1   
 20   9  34  1   
 21   9  35  1   
 22  10  13  2   
 23  10  14  am  
 24  11  15  1   
 25  11  36  1   
 26  11  37  1   
 27  12  15  1   
 28  12  38  1   
 29  12  39  1   
 30  14  16  1   
 31  14  40  1   
 32  15  41  1   
 33  15  42  1   
 34  16  17  1   
 35  16  43  1   
 36  16  44  1   
 37  17  18  ar  
 38  17  19  ar  
 39  18  20  ar  
 40  18  45  1   
 41  19  21  ar  
 42  19  46  1   
 43  20  22  1   
 44  20  23  ar  
 45  21  23  ar  
 46  21  47  1   
 47  22  24  1   
 48  23  25  1   
 49  24  25  1   
 50  24  48  1   
 51  24  49  1   
@<TRIPOS>SUBSTRUCTURE
  1 ****  14 GROUP 4 **** **** 0

# MOE 2024.06 (io_trps.svl 2023.06)
