@<TRIPOS>MOLECULE
8-(3,4-Dihydro-1H-isoquinolin-2-ylmethyl)-7-(2,5-dimethyl-benzyl)-1,3-dimethyl-3
63 67 1 0 0 
SMALL
USER_CHARGES


@<TRIPOS>ATOM
  1 O        0.6220    -1.0140    -1.1880 O.2   1 <1>  -0.5700 
  2 C        1.3470    -0.0590    -0.9960 C.2   1 <1>   0.6900 
  3 N        0.8530     1.2320    -1.1590 N.am  1 <1>  -0.4200 
  4 N        2.6630    -0.2570    -0.6080 N.am  1 <1>  -0.4360 
  5 C        1.6400     2.3420    -0.8840 C.2   1 <1>   0.7030 
  6 C       -0.5670     1.4100    -1.5970 C.3   1 <1>   0.0600 
  7 C        3.4370     0.8560    -0.3440 C.2   1 <1>   0.4260 
  8 C        3.2140    -1.6330    -0.4260 C.3   1 <1>   0.0600 
  9 O        1.1930     3.4710    -0.9960 O.2   1 <1>  -0.5700 
 10 C        2.9940     2.1290    -0.4620 C.2   1 <1>   0.2770 
 11 N        4.7230     0.9020     0.0680 N.pl3 1 <1>  -0.7000 
 12 N        4.0590     2.9670    -0.1060 N.pl3 1 <1>  -0.7640 
 13 C        5.0860     2.1710     0.2080 C.cat 1 <1>   0.6560 
 14 C        3.8970     4.4560    -0.1040 C.3   1 <1>   0.4970 
 15 C        6.5190     2.4840     0.6890 C.3   1 <1>   0.2540 
 16 C        5.2160     5.1600     0.1730 C.ar  1 <1>  -0.1430 
 17 N        7.3610     1.2530     0.7040 N.3   1 <1>  -0.8100 
 18 C        6.1100     5.4760    -0.8470 C.ar  1 <1>  -0.1430 
 19 C        5.5310     5.4780     1.4880 C.ar  1 <1>  -0.1500 
 20 C        8.3600     1.2940     1.7920 C.3   1 <1>   0.2530 
 21 C        8.0490     1.0440    -0.5840 C.3   1 <1>   0.1100 
 22 C        7.3100     6.0900    -0.5260 C.ar  1 <1>  -0.1500 
 23 C        5.8180     5.1710    -2.3110 C.3   1 <1>  -0.0970 
 24 C        6.7340     6.0860     1.8010 C.ar  1 <1>  -0.1430 
 25 C        9.2480     0.0540     1.7840 C.ar  1 <1>  -0.1430 
 26 C        8.6450    -0.3670    -0.6340 C.3   1 <1>  -0.0170 
 27 C        7.6220     6.3890     0.7870 C.ar  1 <1>  -0.1500 
 28 C        7.0760     6.4330     3.2400 C.3   1 <1>  -0.0970 
 29 C        9.3970    -0.7200     0.6390 C.ar  1 <1>  -0.1430 
 30 C        9.9320    -0.2970     2.9380 C.ar  1 <1>  -0.1500 
 31 C       10.2260    -1.8310     0.6600 C.ar  1 <1>  -0.1500 
 32 C       10.7580    -1.4070     2.9550 C.ar  1 <1>  -0.1500 
 33 C       10.9060    -2.1740     1.8140 C.ar  1 <1>  -0.1500 
 34 H       -0.8200     0.6760    -2.3440 H     1 <1>   0.0800 
 35 H       -0.7240     2.3870    -2.0210 H     1 <1>   0.0800 
 36 H       -1.2230     1.2840    -0.7530 H     1 <1>   0.0800 
 37 H        2.6490    -2.3470    -1.0020 H     1 <1>   0.0800 
 38 H        3.1610    -1.9110     0.6120 H     1 <1>   0.0800 
 39 H        4.2370    -1.6740    -0.7550 H     1 <1>   0.0800 
 40 H        5.3910     0.1510     0.2810 H     1 <1>   0.4500 
 41 H        3.1770     4.7320     0.6480 H     1 <1>   0.0800 
 42 H        3.5030     4.7790    -1.0520 H     1 <1>   0.0800 
 43 H        6.4450     2.8850     1.6850 H     1 <1>   0.0800 
 44 H        6.9800     3.2250     0.0640 H     1 <1>   0.0800 
 45 H        4.8390     5.2550     2.2820 H     1 <1>   0.1500 
 46 H        7.8520     1.3510     2.7400 H     1 <1>   0.0800 
 47 H        8.9830     2.1670     1.6870 H     1 <1>   0.0800 
 48 H        8.8400     1.7700    -0.6970 H     1 <1>   0.0800 
 49 H        7.3620     1.1630    -1.4040 H     1 <1>   0.0800 
 50 H        8.0150     6.3470    -1.2980 H     1 <1>   0.1500 
 51 H        5.0120     5.7920    -2.6630 H     1 <1>   0.0800 
 52 H        5.5510     4.1390    -2.4420 H     1 <1>   0.0800 
 53 H        6.6790     5.3710    -2.9240 H     1 <1>   0.0800 
 54 H        9.3080    -0.4380    -1.4780 H     1 <1>   0.0800 
 55 H        7.8530    -1.0790    -0.7760 H     1 <1>   0.0800 
 56 H        8.5590     6.8690     1.0140 H     1 <1>   0.1500 
 57 H        8.1260     6.2830     3.4210 H     1 <1>   0.0800 
 58 H        6.5220     5.8190     3.9260 H     1 <1>   0.0800 
 59 H        6.8380     7.4640     3.4300 H     1 <1>   0.0800 
 60 H        9.8280     0.2920     3.8320 H     1 <1>   0.1500 
 61 H       10.3440    -2.4350    -0.2220 H     1 <1>   0.1500 
 62 H       11.2860    -1.6740     3.8540 H     1 <1>   0.1500 
 63 H       11.5490    -3.0380     1.8250 H     1 <1>   0.1500 
@<TRIPOS>BOND
  1   1   2  2   
  2   2   3  am  
  3   2   4  am  
  4   3   5  am  
  5   3   6  1   
  6   4   7  1   
  7   4   8  1   
  8   5   9  2   
  9   5  10  1   
 10   6  34  1   
 11   6  35  1   
 12   6  36  1   
 13   7  10  2   
 14   7  11  1   
 15   8  37  1   
 16   8  38  1   
 17   8  39  1   
 18  10  12  1   
 19  11  13  ar  
 20  11  40  1   
 21  12  13  ar  
 22  12  14  1   
 23  13  15  1   
 24  14  16  1   
 25  14  41  1   
 26  14  42  1   
 27  15  17  1   
 28  15  43  1   
 29  15  44  1   
 30  16  18  ar  
 31  16  19  ar  
 32  17  20  1   
 33  17  21  1   
 34  18  22  ar  
 35  18  23  1   
 36  19  24  ar  
 37  19  45  1   
 38  20  25  1   
 39  20  46  1   
 40  20  47  1   
 41  21  26  1   
 42  21  48  1   
 43  21  49  1   
 44  22  27  ar  
 45  22  50  1   
 46  23  51  1   
 47  23  52  1   
 48  23  53  1   
 49  24  27  ar  
 50  24  28  1   
 51  25  29  ar  
 52  25  30  ar  
 53  26  29  1   
 54  26  54  1   
 55  26  55  1   
 56  27  56  1   
 57  28  57  1   
 58  28  58  1   
 59  28  59  1   
 60  29  31  ar  
 61  30  32  ar  
 62  30  60  1   
 63  31  33  ar  
 64  31  61  1   
 65  32  33  ar  
 66  32  62  1   
 67  33  63  1   
@<TRIPOS>SUBSTRUCTURE
  1 ****  13 GROUP 4 **** **** 0

# MOE 2024.06 (io_trps.svl 2023.06)
