@<TRIPOS>MOLECULE
8-Dimethylamino-7-(2-hydroxy-propyl)-3-methyl-3,7-dihydro-purine-2,6-dione
37 38 1 0 0 
SMALL
USER_CHARGES


@<TRIPOS>ATOM
  1 O        0.6840     0.7810     0.9890 O.2   1 <1>  -0.5770 
  2 C        1.7590     1.2010     0.6310 C.2   1 <1>   0.6840 
  3 N        2.8890     0.3980     0.5770 N.am  1 <1>  -0.4440 
  4 N        1.8580     2.5140     0.2730 N.am  1 <1>  -0.4970 
  5 C        4.0750     0.9840     0.1600 C.2   1 <1>   0.4180 
  6 C        2.8320    -1.0430     0.9590 C.3   1 <1>   0.0490 
  7 C        3.0180     3.1050    -0.1360 C.2   1 <1>   0.6980 
  8 N        5.2950     0.4000     0.0510 N.pl3 1 <1>  -0.7050 
  9 C        4.1900     2.2800    -0.2050 C.2   1 <1>   0.2680 
 10 O        3.0100     4.2890    -0.4070 O.2   1 <1>  -0.5770 
 11 C        6.1730     1.3060    -0.3870 C.cat 1 <1>   1.0680 
 12 N        5.5380     2.4790    -0.5610 N.pl3 1 <1>  -0.7690 
 13 N        7.4800     0.9930    -0.5870 N.pl3 1 <1>  -0.5980 
 14 C        6.0550     3.8480    -0.8890 C.3   1 <1>   0.3450 
 15 C        8.1250    -0.2240    -0.0040 C.3   1 <1>   0.0770 
 16 C        8.4200     1.7650    -1.4500 C.3   1 <1>   0.0770 
 17 C        6.2990     4.7220     0.3630 C.3   1 <1>   0.1900 
 18 O        7.1100     5.7720    -0.0150 O.3   1 <1>  -0.6860 
 19 C        7.0150     4.0200     1.5210 C.3   1 <1>  -0.2500 
 20 H        1.0130     3.0790     0.3270 H     1 <1>   0.3620 
 21 H        1.8180    -1.3480     1.1550 H     1 <1>   0.0690 
 22 H        3.4140    -1.2070     1.8490 H     1 <1>   0.0690 
 23 H        3.2170    -1.6510     0.1590 H     1 <1>   0.0690 
 24 H        5.5220    -0.5720     0.2310 H     1 <1>   0.4420 
 25 H        5.3450     4.3510    -1.5240 H     1 <1>   0.0690 
 26 H        6.9710     3.7850    -1.4400 H     1 <1>   0.0690 
 27 H        7.5440    -0.6290     0.8060 H     1 <1>   0.0690 
 28 H        9.0970     0.0320     0.3850 H     1 <1>   0.0690 
 29 H        8.2460    -0.9750    -0.7660 H     1 <1>   0.0690 
 30 H        7.9120     2.1280    -2.3270 H     1 <1>   0.0690 
 31 H        9.2300     1.1360    -1.7820 H     1 <1>   0.0690 
 32 H        8.8350     2.5920    -0.8990 H     1 <1>   0.0690 
 33 H        5.3640     5.1400     0.6990 H     1 <1>   0.0690 
 34 H        7.2410     6.3890     0.7340 H     1 <1>   0.3920 
 35 H        7.9510     3.6040     1.1930 H     1 <1>   0.0690 
 36 H        6.4050     3.2310     1.9180 H     1 <1>   0.0690 
 37 H        7.2010     4.7170     2.3190 H     1 <1>   0.0690 
@<TRIPOS>BOND
  1   1   2  2   
  2   2   3  am  
  3   2   4  am  
  4   3   5  1   
  5   3   6  1   
  6   4   7  am  
  7   4  20  1   
  8   5   8  1   
  9   5   9  2   
 10   6  21  1   
 11   6  22  1   
 12   6  23  1   
 13   7   9  1   
 14   7  10  2   
 15   8  11  ar  
 16   8  24  1   
 17   9  12  1   
 18  11  12  ar  
 19  11  13  ar  
 20  12  14  1   
 21  13  15  1   
 22  13  16  1   
 23  14  17  1   
 24  14  25  1   
 25  14  26  1   
 26  15  27  1   
 27  15  28  1   
 28  15  29  1   
 29  16  30  1   
 30  16  31  1   
 31  16  32  1   
 32  17  18  1   
 33  17  19  1   
 34  17  33  1   
 35  18  34  1   
 36  19  35  1   
 37  19  36  1   
 38  19  37  1   
@<TRIPOS>SUBSTRUCTURE
  1 ****   9 GROUP 4 **** **** 0

# MOE 2024.06 (io_trps.svl 2023.06)
