@<TRIPOS>MOLECULE
[1-(4-Methoxy-3-methyl-benzenesulfonyl)-piperidin-4-yl]-pyrrolidin-1-yl-methanon
51 53 1 0 0 
SMALL
USER_CHARGES


@<TRIPOS>ATOM
  1 S       -0.3210    -0.0060    -2.2860 S.o2  1 <1>   1.4470 
  2 O        0.3950    -1.0500    -2.9890 O.2   1 <1>  -0.6500 
  3 O       -1.0720     0.9670    -3.0480 O.2   1 <1>  -0.6500 
  4 N        0.8360     0.8430    -1.3800 N.am  1 <1>  -0.8490 
  5 C       -1.3940    -0.7320    -1.0160 C.ar  1 <1>  -0.0090 
  6 C        1.5580     1.8120    -2.2080 C.3   1 <1>   0.1960 
  7 C        1.7530    -0.0600    -0.6780 C.3   1 <1>   0.1960 
  8 C       -1.8270     0.0200     0.0690 C.ar  1 <1>  -0.1500 
  9 C       -1.8150    -2.0530    -1.0980 C.ar  1 <1>  -0.1500 
 10 C        2.4850     2.6650    -1.3380 C.3   1 <1>  -0.1600 
 11 C        2.6780     0.7360     0.2450 C.3   1 <1>  -0.1600 
 12 C       -2.6430    -0.5180     1.0510 C.ar  1 <1>  -0.1430 
 13 C       -2.6310    -2.6090    -0.1290 C.ar  1 <1>  -0.1500 
 14 C        3.4710     1.7920    -0.5410 C.3   1 <1>  -0.0190 
 15 C       -3.0500    -1.8440     0.9560 C.ar  1 <1>   0.0830 
 16 C       -3.0850     0.3470     2.2230 C.3   1 <1>  -0.0970 
 17 C        4.3700     2.6120     0.3920 C.2   1 <1>   0.5690 
 18 O       -3.8480    -2.3340     1.9400 O.3   1 <1>  -0.3630 
 19 O        3.8950     3.5690     0.9610 O.2   1 <1>  -0.5700 
 20 N        5.6780     2.2570     0.5860 N.am  1 <1>  -0.6600 
 21 C       -4.3360    -3.6560     1.9140 C.3   1 <1>   0.0400 
 22 C        6.3810     1.0820     0.0260 C.3   1 <1>   0.1400 
 23 C        6.5730     3.0340     1.4730 C.3   1 <1>   0.1400 
 24 C        7.6850     0.9980     0.8100 C.3   1 <1>  -0.1600 
 25 C        7.9560     2.4300     1.2610 C.3   1 <1>  -0.1600 
 26 H        0.8560     2.4650    -2.7010 H     1 <1>   0.0800 
 27 H        2.1250     1.2960    -2.9660 H     1 <1>   0.0800 
 28 H        2.3390    -0.6180    -1.3910 H     1 <1>   0.0800 
 29 H        1.1900    -0.7610    -0.0840 H     1 <1>   0.0800 
 30 H       -1.5130     1.0490     0.1380 H     1 <1>   0.1500 
 31 H       -1.4990    -2.6560    -1.9340 H     1 <1>   0.1500 
 32 H        1.8800     3.2480    -0.6650 H     1 <1>   0.0800 
 33 H        3.0310     3.3510    -1.9610 H     1 <1>   0.0800 
 34 H        3.3560     0.0630     0.7370 H     1 <1>   0.0800 
 35 H        2.0860     1.2180     1.0040 H     1 <1>   0.0800 
 36 H       -2.9280    -3.6350    -0.2360 H     1 <1>   0.1500 
 37 H        4.0910     1.2880    -1.2580 H     1 <1>   0.0800 
 38 H       -2.6660     1.3350     2.1590 H     1 <1>   0.0800 
 39 H       -2.7670    -0.1010     3.1470 H     1 <1>   0.0800 
 40 H       -4.1570     0.4280     2.2300 H     1 <1>   0.0800 
 41 H       -4.9490    -3.8030     2.7850 H     1 <1>   0.0800 
 42 H       -3.5030    -4.3370     1.9350 H     1 <1>   0.0800 
 43 H       -4.9260    -3.7930     1.0250 H     1 <1>   0.0800 
 44 H        6.5860     1.2580    -1.0170 H     1 <1>   0.0800 
 45 H        5.7980     0.1850     0.1410 H     1 <1>   0.0800 
 46 H        6.2520     2.9040     2.4930 H     1 <1>   0.0800 
 47 H        6.5490     4.0810     1.2200 H     1 <1>   0.0800 
 48 H        8.4860     0.5960     0.2150 H     1 <1>   0.0800 
 49 H        7.5370     0.3670     1.6700 H     1 <1>   0.0800 
 50 H        8.5510     2.4750     2.1560 H     1 <1>   0.0800 
 51 H        8.4570     2.9730     0.4790 H     1 <1>   0.0800 
@<TRIPOS>BOND
  1   1   2  2   
  2   1   3  2   
  3   1   4  am  
  4   1   5  1   
  5   4   6  1   
  6   4   7  1   
  7   5   8  ar  
  8   5   9  ar  
  9   6  10  1   
 10   6  26  1   
 11   6  27  1   
 12   7  11  1   
 13   7  28  1   
 14   7  29  1   
 15   8  12  ar  
 16   8  30  1   
 17   9  13  ar  
 18   9  31  1   
 19  10  14  1   
 20  10  32  1   
 21  10  33  1   
 22  11  14  1   
 23  11  34  1   
 24  11  35  1   
 25  12  15  ar  
 26  12  16  1   
 27  13  15  ar  
 28  13  36  1   
 29  14  17  1   
 30  14  37  1   
 31  15  18  1   
 32  16  38  1   
 33  16  39  1   
 34  16  40  1   
 35  17  19  2   
 36  17  20  am  
 37  18  21  1   
 38  20  22  1   
 39  20  23  1   
 40  21  41  1   
 41  21  42  1   
 42  21  43  1   
 43  22  24  1   
 44  22  44  1   
 45  22  45  1   
 46  23  25  1   
 47  23  46  1   
 48  23  47  1   
 49  24  25  1   
 50  24  48  1   
 51  24  49  1   
 52  25  50  1   
 53  25  51  1   
@<TRIPOS>SUBSTRUCTURE
  1 ****   7 GROUP 4 **** **** 0

# MOE 2024.06 (io_trps.svl 2023.06)
