@<TRIPOS>MOLECULE
2-Methyl-N-[2-(4-methyl-piperazin-1-yl)-phenyl]-benzamide
47 49 1 0 0 
SMALL
USER_CHARGES


@<TRIPOS>ATOM
  1 O        0.1890     0.5760     1.8750 O.2   1 <1>  -0.5700 
  2 C        0.3330     1.2500     0.8750 C.2   1 <1>   0.5440 
  3 N        1.5700     1.3660     0.2930 N.am  1 <1>  -0.5470 
  4 C       -0.7820     1.9940     0.3200 C.ar  1 <1>   0.0860 
  5 C        2.7950     0.7130     0.5170 C.ar  1 <1>   0.1170 
  6 C       -1.1730     1.9120    -1.0250 C.ar  1 <1>  -0.1440 
  7 C       -1.5040     2.8450     1.1570 C.ar  1 <1>  -0.1500 
  8 C        3.9730     1.3560     0.0980 C.ar  1 <1>   0.1000 
  9 C        2.8710    -0.5440     1.1010 C.ar  1 <1>  -0.1500 
 10 C       -2.2230     2.6860    -1.4940 C.ar  1 <1>  -0.1500 
 11 C       -0.4840     0.9650    -2.0030 C.3   1 <1>  -0.0970 
 12 C       -2.5530     3.6100     0.6850 C.ar  1 <1>  -0.1500 
 13 N        3.9160     2.6510    -0.4600 N.pl3 1 <1>  -0.8380 
 14 C        5.1900     0.7050     0.2740 C.ar  1 <1>  -0.1500 
 15 C        4.0910    -1.1740     1.2710 C.ar  1 <1>  -0.1500 
 16 C       -2.9100     3.5350    -0.6470 C.ar  1 <1>  -0.1500 
 17 C        3.7900     3.7700     0.5270 C.3   1 <1>   0.2090 
 18 C        4.7060     2.9520    -1.6980 C.3   1 <1>   0.2090 
 19 C        5.2510    -0.5490     0.8550 C.ar  1 <1>  -0.1500 
 20 C        5.1470     4.4540     0.7960 C.3   1 <1>   0.3430 
 21 C        6.0240     3.7050    -1.3980 C.3   1 <1>   0.3430 
 22 N        5.8380     4.8850    -0.4750 N.4   1 <1>  -0.9590 
 23 C        7.1420     5.5550    -0.1820 C.3   1 <1>   0.2630 
 24 H        1.6640     2.1070    -0.4010 H     1 <1>   0.3700 
 25 H       -1.2330     2.8990     2.1970 H     1 <1>   0.1500 
 26 H        1.9740    -1.0420     1.4220 H     1 <1>   0.1500 
 27 H       -2.5210     2.6290    -2.5270 H     1 <1>   0.1500 
 28 H        0.4450     1.3870    -2.3400 H     1 <1>   0.0800 
 29 H       -1.1060     0.7840    -2.8620 H     1 <1>   0.0800 
 30 H       -0.2880     0.0170    -1.5350 H     1 <1>   0.0800 
 31 H       -3.0930     4.2610     1.3520 H     1 <1>   0.1500 
 32 H        6.1040     1.1680    -0.0330 H     1 <1>   0.1500 
 33 H        4.1310    -2.1490     1.7260 H     1 <1>   0.1500 
 34 H       -3.7260     4.1300    -1.0220 H     1 <1>   0.1500 
 35 H        3.4000     3.3880     1.4560 H     1 <1>   0.0800 
 36 H        3.0850     4.4930     0.1560 H     1 <1>   0.0800 
 37 H        4.0990     3.5450    -2.3600 H     1 <1>   0.0800 
 38 H        4.9290     2.0320    -2.2120 H     1 <1>   0.0800 
 39 H        6.1990    -1.0430     0.9860 H     1 <1>   0.1500 
 40 H        5.7720     3.7560     1.3290 H     1 <1>   0.0800 
 41 H        4.9870     5.3070     1.4350 H     1 <1>   0.0800 
 42 H        6.4550     4.0330    -2.3290 H     1 <1>   0.0800 
 43 H        6.7120     3.0090    -0.9500 H     1 <1>   0.0800 
 44 H        5.2170     5.5550    -0.9510 H     1 <1>   0.4500 
 45 H        7.8100     4.8740     0.3210 H     1 <1>   0.0800 
 46 H        6.9880     6.4140     0.4510 H     1 <1>   0.0800 
 47 H        7.6090     5.8840    -1.0960 H     1 <1>   0.0800 
@<TRIPOS>BOND
  1   1   2  2   
  2   2   3  am  
  3   2   4  1   
  4   3   5  1   
  5   3  24  1   
  6   4   6  ar  
  7   4   7  ar  
  8   5   8  ar  
  9   5   9  ar  
 10   6  10  ar  
 11   6  11  1   
 12   7  12  ar  
 13   7  25  1   
 14   8  13  1   
 15   8  14  ar  
 16   9  15  ar  
 17   9  26  1   
 18  10  16  ar  
 19  10  27  1   
 20  11  28  1   
 21  11  29  1   
 22  11  30  1   
 23  12  16  ar  
 24  12  31  1   
 25  13  17  1   
 26  13  18  1   
 27  14  19  ar  
 28  14  32  1   
 29  15  19  ar  
 30  15  33  1   
 31  16  34  1   
 32  17  20  1   
 33  17  35  1   
 34  17  36  1   
 35  18  21  1   
 36  18  37  1   
 37  18  38  1   
 38  19  39  1   
 39  20  22  1   
 40  20  40  1   
 41  20  41  1   
 42  21  22  1   
 43  21  42  1   
 44  21  43  1   
 45  22  23  1   
 46  22  44  1   
 47  23  45  1   
 48  23  46  1   
 49  23  47  1   
@<TRIPOS>SUBSTRUCTURE
  1 ****   3 GROUP 4 **** **** 0

# MOE 2024.06 (io_trps.svl 2023.06)
