@<TRIPOS>MOLECULE
4-Ethoxy-3-methoxy-N-[4-(4-methoxy-phenyl)-tetrahydro-pyran-4-ylmethyl]-benzamid
58 60 1 0 0 
SMALL
USER_CHARGES


@<TRIPOS>ATOM
  1 O       -1.0680     0.4990     1.7500 O.2   1 <1>  -0.5700 
  2 C       -0.9340     1.5170     1.1070 C.2   1 <1>   0.5440 
  3 N       -2.0670     2.0830     0.6110 N.am  1 <1>  -0.7300 
  4 C        0.3740     2.0880     0.8730 C.ar  1 <1>   0.0860 
  5 C       -2.1910     2.9810    -0.5700 C.3   1 <1>   0.1400 
  6 C        0.6520     3.4040     1.2380 C.ar  1 <1>  -0.1500 
  7 C        1.3960     1.3510     0.2750 C.ar  1 <1>  -0.1500 
  8 C       -3.2900     4.0570    -0.3710 C.3   1 <1>   0.1430 
  9 C        1.8800     3.9820     0.9830 C.ar  1 <1>   0.0830 
 10 C        2.6290     1.9190     0.0080 C.ar  1 <1>  -0.1500 
 11 C       -4.6000     3.3320     0.0260 C.ar  1 <1>  -0.1440 
 12 C       -3.5150     4.8320    -1.6900 C.3   1 <1>  -0.1600 
 13 C       -2.8310     5.0950     0.6830 C.3   1 <1>  -0.1600 
 14 O        2.0550     5.2620     1.3910 O.3   1 <1>  -0.3630 
 15 C        2.8760     3.2420     0.3350 C.ar  1 <1>   0.0830 
 16 C       -5.2270     2.4910    -0.8910 C.ar  1 <1>  -0.1500 
 17 C       -5.1810     3.4590     1.2860 C.ar  1 <1>  -0.1500 
 18 C       -2.3380     5.7460    -2.0560 C.3   1 <1>   0.1200 
 19 C       -1.6900     5.9920     0.1850 C.3   1 <1>   0.1200 
 20 C        3.0010     5.4660     2.4190 C.3   1 <1>   0.0400 
 21 O        4.0840     3.7510     0.0040 O.3   1 <1>  -0.3630 
 22 C       -6.3920     1.8140    -0.5740 C.ar  1 <1>  -0.1500 
 23 C       -6.3450     2.7840     1.6080 C.ar  1 <1>  -0.1500 
 24 O       -2.0800     6.6100    -0.9980 O.3   1 <1>  -0.5600 
 25 C        4.1100     4.8320    -0.9000 C.3   1 <1>   0.1200 
 26 C       -6.9610     1.9590     0.6850 C.ar  1 <1>   0.0830 
 27 C        5.5660     5.1060    -1.2660 C.3   1 <1>  -0.2400 
 28 O       -8.0980     1.3340     1.0820 O.3   1 <1>  -0.3620 
 29 C       -8.7860     0.4530     0.2230 C.3   1 <1>   0.0400 
 30 H       -2.9440     1.6350     0.9000 H     1 <1>   0.3700 
 31 H       -2.4470     2.3710    -1.4190 H     1 <1>   0.0800 
 32 H       -1.2440     3.4410    -0.7820 H     1 <1>   0.0800 
 33 H       -0.1040     3.9780     1.7390 H     1 <1>   0.1500 
 34 H        1.2100     0.3220     0.0180 H     1 <1>   0.1500 
 35 H        3.4060     1.3420    -0.4600 H     1 <1>   0.1500 
 36 H       -4.3950     5.4440    -1.5930 H     1 <1>   0.0800 
 37 H       -3.6840     4.1580    -2.5080 H     1 <1>   0.0800 
 38 H       -2.5230     4.6010     1.5860 H     1 <1>   0.0800 
 39 H       -3.6540     5.7430     0.9280 H     1 <1>   0.0800 
 40 H       -4.8150     2.3450    -1.8710 H     1 <1>   0.1500 
 41 H       -4.7470     4.0780     2.0490 H     1 <1>   0.1500 
 42 H       -2.5850     6.3480    -2.9130 H     1 <1>   0.0800 
 43 H       -1.4440     5.1870    -2.2710 H     1 <1>   0.0800 
 44 H       -0.7830     5.4430     0.0020 H     1 <1>   0.0800 
 45 H       -1.4820     6.7660     0.9030 H     1 <1>   0.0800 
 46 H        2.9750     6.5030     2.6990 H     1 <1>   0.0800 
 47 H        3.9810     5.2090     2.0600 H     1 <1>   0.0800 
 48 H        2.7390     4.8490     3.2600 H     1 <1>   0.0800 
 49 H       -6.8380     1.1800    -1.3150 H     1 <1>   0.1500 
 50 H       -6.7840     2.8930     2.5830 H     1 <1>   0.1500 
 51 H        3.6690     5.6940    -0.4320 H     1 <1>   0.0800 
 52 H        3.5400     4.5600    -1.7720 H     1 <1>   0.0800 
 53 H        6.1260     5.3640    -0.3850 H     1 <1>   0.0800 
 54 H        5.6190     5.9250    -1.9590 H     1 <1>   0.0800 
 55 H        6.0000     4.2370    -1.7270 H     1 <1>   0.0800 
 56 H       -9.6430     0.0750     0.7510 H     1 <1>   0.0800 
 57 H       -8.1320    -0.3600    -0.0400 H     1 <1>   0.0800 
 58 H       -9.1030     0.9930    -0.6510 H     1 <1>   0.0800 
@<TRIPOS>BOND
  1   1   2  2   
  2   2   3  am  
  3   2   4  1   
  4   3   5  1   
  5   3  30  1   
  6   4   6  ar  
  7   4   7  ar  
  8   5   8  1   
  9   5  31  1   
 10   5  32  1   
 11   6   9  ar  
 12   6  33  1   
 13   7  10  ar  
 14   7  34  1   
 15   8  11  1   
 16   8  12  1   
 17   8  13  1   
 18   9  14  1   
 19   9  15  ar  
 20  10  15  ar  
 21  10  35  1   
 22  11  16  ar  
 23  11  17  ar  
 24  12  18  1   
 25  12  36  1   
 26  12  37  1   
 27  13  19  1   
 28  13  38  1   
 29  13  39  1   
 30  14  20  1   
 31  15  21  1   
 32  16  22  ar  
 33  16  40  1   
 34  17  23  ar  
 35  17  41  1   
 36  18  24  1   
 37  18  42  1   
 38  18  43  1   
 39  19  24  1   
 40  19  44  1   
 41  19  45  1   
 42  20  46  1   
 43  20  47  1   
 44  20  48  1   
 45  21  25  1   
 46  22  26  ar  
 47  22  49  1   
 48  23  26  ar  
 49  23  50  1   
 50  25  27  1   
 51  25  51  1   
 52  25  52  1   
 53  26  28  1   
 54  27  53  1   
 55  27  54  1   
 56  27  55  1   
 57  28  29  1   
 58  29  56  1   
 59  29  57  1   
 60  29  58  1   
@<TRIPOS>SUBSTRUCTURE
  1 ****   5 GROUP 4 **** **** 0

# MOE 2024.06 (io_trps.svl 2023.06)
