@<TRIPOS>MOLECULE
N-[2-(4-Isobutyryl-piperazin-1-yl)-phenyl]-propionamide
47 48 1 0 0 
SMALL
USER_CHARGES


@<TRIPOS>ATOM
  1 O       -1.6380     1.2480    -1.9330 O.2   1 <1>  -0.5700 
  2 C       -1.6360     1.4970    -0.7490 C.2   1 <1>   0.5690 
  3 N       -1.4140     2.7780    -0.3020 N.am  1 <1>  -0.6600 
  4 C       -1.9060     0.3430     0.2340 C.3   1 <1>  -0.0190 
  5 C       -1.6350     3.2860     1.0880 C.3   1 <1>   0.1400 
  6 C       -1.0900     3.8810    -1.2590 C.3   1 <1>   0.1400 
  7 C       -1.4060    -1.0160    -0.2910 C.3   1 <1>  -0.2400 
  8 C       -3.4030     0.2390     0.5710 C.3   1 <1>  -0.2400 
  9 C       -2.7370     4.3630     1.1250 C.3   1 <1>   0.2090 
 10 C       -2.2060     4.9370    -1.2810 C.3   1 <1>   0.2090 
 11 N       -2.5580     5.4310     0.0900 N.pl3 1 <1>  -0.8380 
 12 C       -1.9910     6.6540     0.4960 C.ar  1 <1>   0.1000 
 13 C       -2.7650     7.8240     0.4830 C.ar  1 <1>   0.1170 
 14 C       -0.6660     6.7270     0.9070 C.ar  1 <1>  -0.1500 
 15 N       -4.0950     7.6880     0.0550 N.am  1 <1>  -0.5470 
 16 C       -2.2000     9.0260     0.8860 C.ar  1 <1>  -0.1500 
 17 C       -0.1110     7.9310     1.3060 C.ar  1 <1>  -0.1500 
 18 C       -5.0980     8.5680    -0.2150 C.2   1 <1>   0.5690 
 19 C       -0.8780     9.0810     1.2960 C.ar  1 <1>  -0.1500 
 20 O       -4.9990     9.7650    -0.0960 O.2   1 <1>  -0.5700 
 21 C       -6.4190     7.9930    -0.6950 C.3   1 <1>  -0.0990 
 22 C       -6.3000     7.2280    -2.0240 C.3   1 <1>  -0.2400 
 23 H       -1.3570     0.5350     1.1370 H     1 <1>   0.0800 
 24 H       -0.7180     3.7080     1.4560 H     1 <1>   0.0800 
 25 H       -1.9150     2.4940     1.7560 H     1 <1>   0.0800 
 26 H       -0.9510     3.4970    -2.2540 H     1 <1>   0.0800 
 27 H       -0.1670     4.3470    -0.9620 H     1 <1>   0.0800 
 28 H       -1.9390    -1.2930    -1.1850 H     1 <1>   0.0800 
 29 H       -1.5490    -1.7850     0.4480 H     1 <1>   0.0800 
 30 H       -0.3590    -0.9570    -0.5280 H     1 <1>   0.0800 
 31 H       -3.9640     0.0120    -0.3190 H     1 <1>   0.0800 
 32 H       -3.7670     1.1670     0.9720 H     1 <1>   0.0800 
 33 H       -3.5740    -0.5390     1.2940 H     1 <1>   0.0800 
 34 H       -2.7590     4.8140     2.1020 H     1 <1>   0.0800 
 35 H       -3.6900     3.8890     0.9650 H     1 <1>   0.0800 
 36 H       -3.0820     4.5050    -1.7340 H     1 <1>   0.0800 
 37 H       -1.8960     5.7670    -1.8930 H     1 <1>   0.0800 
 38 H       -0.0630     5.8410     0.9130 H     1 <1>   0.1500 
 39 H       -4.2850     6.7030    -0.1390 H     1 <1>   0.3700 
 40 H       -2.7860     9.9260     0.8820 H     1 <1>   0.1500 
 41 H        0.9170     7.9730     1.6220 H     1 <1>   0.1500 
 42 H       -0.4530    10.0200     1.6050 H     1 <1>   0.1500 
 43 H       -7.1170     8.8030    -0.8170 H     1 <1>   0.0800 
 44 H       -6.8060     7.3420     0.0680 H     1 <1>   0.0800 
 45 H       -5.9040     7.8760    -2.7870 H     1 <1>   0.0800 
 46 H       -7.2690     6.8810    -2.3370 H     1 <1>   0.0800 
 47 H       -5.6480     6.3780    -1.9200 H     1 <1>   0.0800 
@<TRIPOS>BOND
  1   1   2  2   
  2   2   3  am  
  3   2   4  1   
  4   3   5  1   
  5   3   6  1   
  6   4   7  1   
  7   4   8  1   
  8   4  23  1   
  9   5   9  1   
 10   5  24  1   
 11   5  25  1   
 12   6  10  1   
 13   6  26  1   
 14   6  27  1   
 15   7  28  1   
 16   7  29  1   
 17   7  30  1   
 18   8  31  1   
 19   8  32  1   
 20   8  33  1   
 21   9  11  1   
 22   9  34  1   
 23   9  35  1   
 24  10  11  1   
 25  10  36  1   
 26  10  37  1   
 27  11  12  1   
 28  12  13  ar  
 29  12  14  ar  
 30  13  15  1   
 31  13  16  ar  
 32  14  17  ar  
 33  14  38  1   
 34  15  18  am  
 35  15  39  1   
 36  16  19  ar  
 37  16  40  1   
 38  17  19  ar  
 39  17  41  1   
 40  18  20  2   
 41  18  21  1   
 42  19  42  1   
 43  21  22  1   
 44  21  43  1   
 45  21  44  1   
 46  22  45  1   
 47  22  46  1   
 48  22  47  1   
@<TRIPOS>SUBSTRUCTURE
  1 ****  11 GROUP 4 **** **** 0

# MOE 2024.06 (io_trps.svl 2023.06)
