@<TRIPOS>MOLECULE
8-Amino-7-(2-hydroxy-propyl)-3-methyl-3,7-dihydro-purine-2,6-dione
31 32 1 0 0 
SMALL
USER_CHARGES


@<TRIPOS>ATOM
  1 O        0.8360     0.6140     1.2880 O.2   1 <1>  -0.5790 
  2 C        1.8500     1.0680     0.8120 C.2   1 <1>   0.6830 
  3 N        2.9070     0.2630     0.4080 N.am  1 <1>  -0.4460 
  4 N        1.9530     2.4230     0.6740 N.am  1 <1>  -0.5000 
  5 C        4.0280     0.8880    -0.1160 C.2   1 <1>   0.4160 
  6 C        2.8400    -1.2220     0.5390 C.3   1 <1>   0.0460 
  7 C        3.0490     3.0540     0.1620 C.2   1 <1>   0.6960 
  8 N        5.1800     0.3070    -0.5570 N.pl3 1 <1>  -0.7070 
  9 C        4.1420     2.2280    -0.2600 C.2   1 <1>   0.2650 
 10 O        3.0580     4.2670     0.0950 O.2   1 <1>  -0.5790 
 11 C        5.9890     1.2740    -0.9660 C.cat 1 <1>   1.0670 
 12 N        5.4100     2.4580    -0.8200 N.pl3 1 <1>  -0.7710 
 13 N        7.2010     1.0730    -1.4380 N.pl3 1 <1>  -0.8430 
 14 C        5.9440     3.8140    -1.1530 C.3   1 <1>   0.3430 
 15 C        6.4860     4.5780     0.0770 C.3   1 <1>   0.1870 
 16 O        7.3730     5.5270    -0.3870 O.3   1 <1>  -0.6880 
 17 C        7.2610     3.7320     1.0910 C.3   1 <1>  -0.2520 
 18 H        1.1620     2.9850     0.9830 H     1 <1>   0.3590 
 19 H        1.8540    -1.5370     0.8350 H     1 <1>   0.0660 
 20 H        3.5410    -1.5530     1.2850 H     1 <1>   0.0660 
 21 H        3.0720    -1.6850    -0.4040 H     1 <1>   0.0660 
 22 H        5.3800    -0.6890    -0.5600 H     1 <1>   0.4400 
 23 H        7.8020     1.8520    -1.7030 H     1 <1>   0.4400 
 24 H        7.6250     0.1520    -1.5360 H     1 <1>   0.4400 
 25 H        5.1660     4.4010    -1.6110 H     1 <1>   0.0660 
 26 H        6.7380     3.7090    -1.8720 H     1 <1>   0.0660 
 27 H        5.6770     5.0980     0.5640 H     1 <1>   0.0660 
 28 H        7.6800     6.0950     0.3490 H     1 <1>   0.3890 
 29 H        8.0800     3.2210     0.6180 H     1 <1>   0.0660 
 30 H        6.6140     3.0060     1.5480 H     1 <1>   0.0660 
 31 H        7.6460     4.3580     1.8770 H     1 <1>   0.0660 
@<TRIPOS>BOND
  1   1   2  2   
  2   2   3  am  
  3   2   4  am  
  4   3   5  1   
  5   3   6  1   
  6   4   7  am  
  7   4  18  1   
  8   5   8  1   
  9   5   9  2   
 10   6  19  1   
 11   6  20  1   
 12   6  21  1   
 13   7   9  1   
 14   7  10  2   
 15   8  11  ar  
 16   8  22  1   
 17   9  12  1   
 18  11  12  ar  
 19  11  13  ar  
 20  12  14  1   
 21  13  23  1   
 22  13  24  1   
 23  14  15  1   
 24  14  25  1   
 25  14  26  1   
 26  15  16  1   
 27  15  17  1   
 28  15  27  1   
 29  16  28  1   
 30  17  29  1   
 31  17  30  1   
 32  17  31  1   
@<TRIPOS>SUBSTRUCTURE
  1 ****   9 GROUP 4 **** **** 0

# MOE 2024.06 (io_trps.svl 2023.06)
