@<TRIPOS>MOLECULE
(6-Methyl-thieno[2,3-d]pyrimidin-4-ylsulfanyl)-acetic acid ethyl ester
29 30 1 0 0 
SMALL
USER_CHARGES


@<TRIPOS>ATOM
  1 S        0.0560    -0.5070     0.6200 S.3   1 <1>  -0.0800 
  2 C        1.4280     0.5380     0.9850 C.ar  1 <1>   0.2970 
  3 C       -0.8380     0.8300    -0.1130 C.2   1 <1>  -0.1400 
  4 N        2.5260     0.1240     1.5820 N.ar  1 <1>  -0.5670 
  5 C        1.1740     1.8190     0.5580 C.ar  1 <1>   0.0000 
  6 C       -0.1180     1.9640    -0.0640 C.2   1 <1>  -0.1500 
  7 C       -2.2150     0.5140    -0.6600 C.3   1 <1>  -0.0600 
  8 C        3.4160     1.0850     1.7510 C.ar  1 <1>   0.4700 
  9 C        2.2080     2.7040     0.8090 C.ar  1 <1>   0.4120 
 10 N        3.3300     2.3670     1.4030 N.ar  1 <1>  -0.6200 
 11 S        2.0250     4.4120     0.3160 S.3   1 <1>  -0.3320 
 12 C        3.6970     5.1700     0.6190 C.3   1 <1>   0.1310 
 13 C        4.7390     4.6080    -0.3340 C.2   1 <1>   0.6590 
 14 O        4.6030     4.6600    -1.5310 O.2   1 <1>  -0.5700 
 15 O        5.8240     4.0910     0.2340 O.3   1 <1>  -0.4300 
 16 C        6.8860     3.5400    -0.5130 C.3   1 <1>   0.1200 
 17 C        7.8590     4.6560    -0.8870 C.3   1 <1>  -0.2400 
 18 H       -0.4310     2.9220    -0.4420 H     1 <1>   0.1500 
 19 H       -2.1410    -0.2350    -1.4280 H     1 <1>   0.0800 
 20 H       -2.6600     1.3980    -1.0790 H     1 <1>   0.0800 
 21 H       -2.8470     0.1460     0.1270 H     1 <1>   0.0800 
 22 H        4.3340     0.7940     2.2370 H     1 <1>   0.1500 
 23 H        3.9620     4.9680     1.6390 H     1 <1>   0.0800 
 24 H        3.5930     6.2270     0.4670 H     1 <1>   0.0800 
 25 H        6.4900     3.0510    -1.3880 H     1 <1>   0.0800 
 26 H        7.3740     2.8080     0.1070 H     1 <1>   0.0800 
 27 H        7.3720     5.3780    -1.5200 H     1 <1>   0.0800 
 28 H        8.6920     4.2430    -1.4260 H     1 <1>   0.0800 
 29 H        8.2290     5.1410    -0.0020 H     1 <1>   0.0800 
@<TRIPOS>BOND
  1   1   2  1   
  2   1   3  1   
  3   2   4  ar  
  4   2   5  ar  
  5   3   6  2   
  6   3   7  1   
  7   4   8  ar  
  8   5   6  1   
  9   5   9  ar  
 10   6  18  1   
 11   7  19  1   
 12   7  20  1   
 13   7  21  1   
 14   8  10  ar  
 15   8  22  1   
 16   9  10  ar  
 17   9  11  1   
 18  11  12  1   
 19  12  13  1   
 20  12  23  1   
 21  12  24  1   
 22  13  14  2   
 23  13  15  1   
 24  15  16  1   
 25  16  17  1   
 26  16  25  1   
 27  16  26  1   
 28  17  27  1   
 29  17  28  1   
 30  17  29  1   
@<TRIPOS>SUBSTRUCTURE
  1 ****   9 GROUP 4 **** **** 0

# MOE 2024.06 (io_trps.svl 2023.06)
