@<TRIPOS>MOLECULE
3-Ethyl-8-(4-methoxy-benzyl)-1,6,7-trimethyl-1H,8H-imidazo[2,1-f]purine-2,4-dion
52 55 1 0 0 
SMALL
USER_CHARGES


@<TRIPOS>ATOM
  1 O        3.3060     0.3490    -2.8720 O.2   1 <1>  -0.5740 
  2 C        3.7220     1.0850    -2.0000 C.2   1 <1>   0.6870 
  3 N        2.8780     2.0190    -1.4040 N.am  1 <1>  -0.4250 
  4 N        5.0500     0.9950    -1.6030 N.am  1 <1>  -0.4410 
  5 C        3.3430     2.8980    -0.4330 C.2   1 <1>   0.7000 
  6 C        1.4400     2.0610    -1.8010 C.3   1 <1>   0.1330 
  7 C        5.5010     1.8770    -0.6450 C.2   1 <1>   0.4210 
  8 C        5.9740    -0.0130    -2.2090 C.3   1 <1>   0.0530 
  9 O        2.5990     3.7210     0.0760 O.2   1 <1>  -0.5740 
 10 C        4.7160     2.8090    -0.0520 C.2   1 <1>   0.2710 
 11 C        0.6270     1.1280    -0.9030 C.3   1 <1>  -0.2460 
 12 N        6.7600     1.9720    -0.1440 N.pl3 1 <1>  -0.7030 
 13 N        5.5420     3.5000     0.8560 N.pl3 1 <1>  -0.6330 
 14 C        6.7490     2.9580     0.7590 C.cat 1 <1>   1.0690 
 15 C        5.6290     4.4980     1.8050 C.2   1 <1>   0.2340 
 16 N        7.6280     3.5430     1.5890 N.pl3 1 <1>  -0.5720 
 17 C        6.9080     4.5240     2.2540 C.2   1 <1>   0.1580 
 18 C        4.4120     5.3270     2.1650 C.3   1 <1>  -0.1090 
 19 C        9.0720     3.2150     1.7680 C.3   1 <1>   0.3050 
 20 C        7.5620     5.4170     3.2950 C.3   1 <1>  -0.1090 
 21 C        9.4450     2.0960     0.8130 C.ar  1 <1>  -0.1500 
 22 C        9.8680     2.3910    -0.4760 C.ar  1 <1>  -0.1570 
 23 C        9.2740     0.7720     1.1920 C.ar  1 <1>  -0.1570 
 24 C       10.0680     1.3760    -1.3950 C.ar  1 <1>  -0.1570 
 25 C        9.4700    -0.2400     0.2720 C.ar  1 <1>  -0.1570 
 26 C        9.8490     0.0530    -1.0270 C.ar  1 <1>   0.0750 
 27 O        9.9760    -0.9930    -1.8760 O.3   1 <1>  -0.3680 
 28 C       10.6120    -0.8480    -3.1280 C.3   1 <1>   0.0320 
 29 H        1.3310     1.7610    -2.8300 H     1 <1>   0.0730 
 30 H        1.0620     3.0660    -1.7180 H     1 <1>   0.0730 
 31 H        6.5490     0.4470    -2.9930 H     1 <1>   0.0730 
 32 H        5.4170    -0.8340    -2.6270 H     1 <1>   0.0730 
 33 H        6.6420    -0.4090    -1.4640 H     1 <1>   0.0730 
 34 H        0.9750     0.1150    -1.0010 H     1 <1>   0.0730 
 35 H       -0.4060     1.1590    -1.1980 H     1 <1>   0.0730 
 36 H        0.6930     1.4390     0.1250 H     1 <1>   0.0730 
 37 H        7.6050     1.4300    -0.3630 H     1 <1>   0.4450 
 38 H        3.6310     4.6900     2.5400 H     1 <1>   0.0730 
 39 H        4.0460     5.8400     1.2940 H     1 <1>   0.0730 
 40 H        4.6490     6.0570     2.9170 H     1 <1>   0.0730 
 41 H        9.6690     4.0870     1.5670 H     1 <1>   0.0730 
 42 H        9.2500     2.9070     2.7850 H     1 <1>   0.0730 
 43 H        8.3660     5.9770     2.8520 H     1 <1>   0.0730 
 44 H        7.9540     4.8220     4.1020 H     1 <1>   0.0730 
 45 H        6.8530     6.1130     3.7040 H     1 <1>   0.0730 
 46 H       10.0320     3.4120    -0.7800 H     1 <1>   0.1430 
 47 H        8.9750     0.5180     2.1960 H     1 <1>   0.1430 
 48 H       10.3890     1.6300    -2.3890 H     1 <1>   0.1430 
 49 H        9.3320    -1.2700     0.5540 H     1 <1>   0.1430 
 50 H       10.6890    -1.8220    -3.5780 H     1 <1>   0.0730 
 51 H       11.5950    -0.4380    -2.9760 H     1 <1>   0.0730 
 52 H       10.0180    -0.2050    -3.7520 H     1 <1>   0.0730 
@<TRIPOS>BOND
  1   1   2  2   
  2   2   3  am  
  3   2   4  am  
  4   3   5  am  
  5   3   6  1   
  6   4   7  1   
  7   4   8  1   
  8   5   9  2   
  9   5  10  1   
 10   6  11  1   
 11   6  29  1   
 12   6  30  1   
 13   7  10  2   
 14   7  12  1   
 15   8  31  1   
 16   8  32  1   
 17   8  33  1   
 18  10  13  1   
 19  11  34  1   
 20  11  35  1   
 21  11  36  1   
 22  12  14  ar  
 23  12  37  1   
 24  13  14  ar  
 25  13  15  1   
 26  14  16  ar  
 27  15  17  2   
 28  15  18  1   
 29  16  17  1   
 30  16  19  1   
 31  17  20  1   
 32  18  38  1   
 33  18  39  1   
 34  18  40  1   
 35  19  21  1   
 36  19  41  1   
 37  19  42  1   
 38  20  43  1   
 39  20  44  1   
 40  20  45  1   
 41  21  22  ar  
 42  21  23  ar  
 43  22  24  ar  
 44  22  46  1   
 45  23  25  ar  
 46  23  47  1   
 47  24  26  ar  
 48  24  48  1   
 49  25  26  ar  
 50  25  49  1   
 51  26  27  1   
 52  27  28  1   
 53  28  50  1   
 54  28  51  1   
 55  28  52  1   
@<TRIPOS>SUBSTRUCTURE
  1 ****  12 GROUP 4 **** **** 0

# MOE 2024.06 (io_trps.svl 2023.06)
