@<TRIPOS>MOLECULE
8-(4-Methoxy-benzyl)-1,6,7-trimethyl-3-(2-methyl-allyl)-1H,8H-imidazo[2,1-f]puri
56 59 1 0 0 
SMALL
USER_CHARGES


@<TRIPOS>ATOM
  1 O        3.3220     1.2200     3.2590 O.2   1 <1>  -0.5740 
  2 C        3.7160     1.6020     2.1760 C.2   1 <1>   0.6870 
  3 N        2.9380     2.4560     1.4060 N.am  1 <1>  -0.4250 
  4 N        4.9560     1.1860     1.7080 N.am  1 <1>  -0.4410 
  5 C        3.4160     3.0140     0.2290 C.2   1 <1>   0.7000 
  6 C        1.5150     2.6740     1.7680 C.3   1 <1>   0.2730 
  7 C        5.3970     1.6960     0.5050 C.2   1 <1>   0.4210 
  8 C        5.7990     0.2290     2.4890 C.3   1 <1>   0.0530 
  9 O        2.7810     3.8680    -0.3680 O.2   1 <1>  -0.5740 
 10 C        4.6900     2.5780    -0.2420 C.2   1 <1>   0.2710 
 11 C        0.6430     1.7130     0.9670 C.2   1 <1>  -0.2820 
 12 N        6.5730     1.4260    -0.1190 N.pl3 1 <1>  -0.7030 
 13 N        5.4770     2.8530    -1.3770 N.pl3 1 <1>  -0.6330 
 14 C       -0.0780     2.1000    -0.0900 C.2   1 <1>  -0.3060 
 15 C        0.6410     0.2770     1.4710 C.3   1 <1>  -0.1090 
 16 C        6.5870     2.1370    -1.2520 C.cat 1 <1>   1.0690 
 17 C        5.5800     3.5430    -2.5670 C.2   1 <1>   0.2350 
 18 N        7.4170     2.3170    -2.2920 N.pl3 1 <1>  -0.5710 
 19 C        6.7700     3.2140    -3.1280 C.2   1 <1>   0.1580 
 20 C        4.4660     4.4650    -3.0210 C.3   1 <1>  -0.1090 
 21 C        8.7520     1.6880    -2.5140 C.3   1 <1>   0.3060 
 22 C        7.3980     3.6760    -4.4320 C.3   1 <1>  -0.1090 
 23 C        9.0790     0.7970    -1.3290 C.ar  1 <1>  -0.1500 
 24 C        8.6490    -0.5220    -1.3130 C.ar  1 <1>  -0.1560 
 25 C        9.7260     1.3210    -0.2190 C.ar  1 <1>  -0.1560 
 26 C        8.8140    -1.2880    -0.1740 C.ar  1 <1>  -0.1560 
 27 C        9.8940     0.5520     0.9180 C.ar  1 <1>  -0.1560 
 28 C        9.4190    -0.7550     0.9510 C.ar  1 <1>   0.0760 
 29 O        9.5010    -1.5570     2.0370 O.3   1 <1>  -0.3680 
 30 C       10.3370    -1.2310     3.1270 C.3   1 <1>   0.0330 
 31 H        1.2390     3.6900     1.5400 H     1 <1>   0.0730 
 32 H        1.3540     2.5320     2.8230 H     1 <1>   0.0730 
 33 H        6.5480     0.7710     3.0400 H     1 <1>   0.0730 
 34 H        6.2820    -0.4720     1.8300 H     1 <1>   0.0730 
 35 H        5.1960    -0.3290     3.1850 H     1 <1>   0.0730 
 36 H        7.3450     0.8070     0.1560 H     1 <1>   0.4450 
 37 H       -0.7070     1.4450    -0.6670 H     1 <1>   0.1440 
 38 H       -0.1010     3.1070    -0.4710 H     1 <1>   0.1440 
 39 H        1.6180    -0.1610     1.3820 H     1 <1>   0.0730 
 40 H       -0.0490    -0.3220     0.9030 H     1 <1>   0.0730 
 41 H        0.3430     0.2460     2.5040 H     1 <1>   0.0730 
 42 H        4.3160     5.2460    -2.2970 H     1 <1>   0.0730 
 43 H        3.5490     3.9130    -3.1210 H     1 <1>   0.0730 
 44 H        4.6980     4.9170    -3.9680 H     1 <1>   0.0730 
 45 H        9.5010     2.4550    -2.6170 H     1 <1>   0.0730 
 46 H        8.7320     1.1060    -3.4200 H     1 <1>   0.0730 
 47 H        7.5730     2.8340    -5.0790 H     1 <1>   0.0730 
 48 H        8.3340     4.1690    -4.2400 H     1 <1>   0.0730 
 49 H        6.7530     4.3660    -4.9450 H     1 <1>   0.0730 
 50 H        8.1710    -0.9600    -2.1740 H     1 <1>   0.1440 
 51 H       10.0910     2.3350    -0.2240 H     1 <1>   0.1440 
 52 H        8.4760    -2.3110    -0.1490 H     1 <1>   0.1440 
 53 H       10.3920     0.9820     1.7690 H     1 <1>   0.1440 
 54 H       10.3250    -2.0570     3.8160 H     1 <1>   0.0730 
 55 H        9.9580    -0.3480     3.6110 H     1 <1>   0.0730 
 56 H       11.3380    -1.0730     2.7650 H     1 <1>   0.0730 
@<TRIPOS>BOND
  1   1   2  2   
  2   2   3  am  
  3   2   4  am  
  4   3   5  am  
  5   3   6  1   
  6   4   7  1   
  7   4   8  1   
  8   5   9  2   
  9   5  10  1   
 10   6  11  1   
 11   6  31  1   
 12   6  32  1   
 13   7  10  2   
 14   7  12  1   
 15   8  33  1   
 16   8  34  1   
 17   8  35  1   
 18  10  13  1   
 19  11  14  2   
 20  11  15  1   
 21  12  16  ar  
 22  12  36  1   
 23  13  16  ar  
 24  13  17  1   
 25  14  37  1   
 26  14  38  1   
 27  15  39  1   
 28  15  40  1   
 29  15  41  1   
 30  16  18  ar  
 31  17  19  2   
 32  17  20  1   
 33  18  19  1   
 34  18  21  1   
 35  19  22  1   
 36  20  42  1   
 37  20  43  1   
 38  20  44  1   
 39  21  23  1   
 40  21  45  1   
 41  21  46  1   
 42  22  47  1   
 43  22  48  1   
 44  22  49  1   
 45  23  24  ar  
 46  23  25  ar  
 47  24  26  ar  
 48  24  50  1   
 49  25  27  ar  
 50  25  51  1   
 51  26  28  ar  
 52  26  52  1   
 53  27  28  ar  
 54  27  53  1   
 55  28  29  1   
 56  29  30  1   
 57  30  54  1   
 58  30  55  1   
 59  30  56  1   
@<TRIPOS>SUBSTRUCTURE
  1 ****   7 GROUP 4 **** **** 0

# MOE 2024.06 (io_trps.svl 2023.06)
