@<TRIPOS>MOLECULE
N-Ethyl-3-(3-phenyl-[1,2,4]oxadiazol-5-yl)-propionamide
33 34 1 0 0 
SMALL
USER_CHARGES


@<TRIPOS>ATOM
  1 O        0.2810    -0.4480     0.9180 O.2   1 <1>  -0.5700 
  2 C        0.7800    -1.5090     0.6470 C.2   1 <1>   0.5690 
  3 N        2.0770    -1.5560     0.2650 N.am  1 <1>  -0.7300 
  4 C       -0.0450    -2.7800     0.7400 C.3   1 <1>  -0.0990 
  5 C        2.9140    -2.7210    -0.0820 C.3   1 <1>   0.1400 
  6 C       -1.5400    -2.5120     0.9770 C.3   1 <1>   0.0200 
  7 C        3.1950    -2.6870    -1.5790 C.3   1 <1>  -0.2400 
  8 C       -2.3190    -3.8100     1.0430 C.2   1 <1>   0.2980 
  9 O       -2.1660    -4.5830     2.0860 O.3   1 <1>  -0.0190 
 10 N       -3.1210    -4.2370     0.1600 N.2   1 <1>  -0.5650 
 11 N       -2.9390    -5.5940     1.8440 N.2   1 <1>  -0.4100 
 12 C       -3.5090    -5.3940     0.7080 C.2   1 <1>   0.4620 
 13 C       -4.4580    -6.2900     0.0660 C.ar  1 <1>   0.0540 
 14 C       -4.8290    -7.4980     0.6590 C.ar  1 <1>  -0.1500 
 15 C       -5.0390    -5.9840    -1.1680 C.ar  1 <1>  -0.1500 
 16 C       -5.7290    -8.3580     0.0560 C.ar  1 <1>  -0.1500 
 17 C       -5.9400    -6.8380    -1.7770 C.ar  1 <1>  -0.1500 
 18 C       -6.2880    -8.0290    -1.1650 C.ar  1 <1>  -0.1500 
 19 H        2.5390    -0.6460     0.2050 H     1 <1>   0.3700 
 20 H        0.3430    -3.3770     1.5440 H     1 <1>   0.0800 
 21 H        0.0650    -3.3290    -0.1770 H     1 <1>   0.0800 
 22 H        2.4180    -3.6390     0.1800 H     1 <1>   0.0800 
 23 H        3.8390    -2.6690     0.4690 H     1 <1>   0.0800 
 24 H       -1.9290    -1.9100     0.1750 H     1 <1>   0.0800 
 25 H       -1.6790    -1.9730     1.8970 H     1 <1>   0.0800 
 26 H        2.2750    -2.7410    -2.1320 H     1 <1>   0.0800 
 27 H        3.8070    -3.5280    -1.8520 H     1 <1>   0.0800 
 28 H        3.7180    -1.7850    -1.8430 H     1 <1>   0.0800 
 29 H       -4.4040    -7.7700     1.6100 H     1 <1>   0.1500 
 30 H       -4.7800    -5.0620    -1.6580 H     1 <1>   0.1500 
 31 H       -5.9960    -9.2830     0.5370 H     1 <1>   0.1500 
 32 H       -6.3720    -6.5770    -2.7280 H     1 <1>   0.1500 
 33 H       -6.9890    -8.6950    -1.6370 H     1 <1>   0.1500 
@<TRIPOS>BOND
  1   1   2  2   
  2   2   3  am  
  3   2   4  1   
  4   3   5  1   
  5   3  19  1   
  6   4   6  1   
  7   4  20  1   
  8   4  21  1   
  9   5   7  1   
 10   5  22  1   
 11   5  23  1   
 12   6   8  1   
 13   6  24  1   
 14   6  25  1   
 15   7  26  1   
 16   7  27  1   
 17   7  28  1   
 18   8   9  1   
 19   8  10  2   
 20   9  11  1   
 21  10  12  1   
 22  11  12  2   
 23  12  13  1   
 24  13  14  ar  
 25  13  15  ar  
 26  14  16  ar  
 27  14  29  1   
 28  15  17  ar  
 29  15  30  1   
 30  16  18  ar  
 31  16  31  1   
 32  17  18  ar  
 33  17  32  1   
 34  18  33  1   
@<TRIPOS>SUBSTRUCTURE
  1 ****  10 GROUP 4 **** **** 0

# MOE 2024.06 (io_trps.svl 2023.06)
