@<TRIPOS>MOLECULE
Cyclohexanecarboxylic acid {1-[3-(4-tert-butyl-phenyl)-[1,2,4]oxadiazol-5-yl]-et
55 57 1 0 0 
SMALL
USER_CHARGES


@<TRIPOS>ATOM
  1 O       -1.6870     0.1680    -0.8880 O.2   1 <1>  -0.5700 
  2 C       -2.7910    -0.1810    -1.2240 C.2   1 <1>   0.5690 
  3 N       -2.9670    -0.6030    -2.4990 N.am  1 <1>  -0.7300 
  4 C       -3.9380    -0.1450    -0.2060 C.3   1 <1>  -0.0190 
  5 C       -4.1870    -1.1200    -3.1560 C.3   1 <1>   0.4000 
  6 C       -3.9950     1.1900     0.5620 C.3   1 <1>  -0.1600 
  7 C       -3.8300    -1.3200     0.7850 C.3   1 <1>  -0.1600 
  8 C       -4.6880    -2.4110    -2.5050 C.2   1 <1>   0.2980 
  9 C       -3.8720    -1.3160    -4.6390 C.3   1 <1>  -0.2400 
 10 C       -5.1570     1.2060     1.5660 C.3   1 <1>  -0.1600 
 11 C       -4.9960    -1.3170     1.7820 C.3   1 <1>  -0.1600 
 12 O       -3.9040    -3.4570    -2.4840 O.3   1 <1>  -0.0190 
 13 N       -5.8210    -2.5700    -1.9520 N.2   1 <1>  -0.5650 
 14 C       -5.0730     0.0180     2.5350 C.3   1 <1>  -0.1600 
 15 N       -4.5930    -4.3560    -1.8550 N.2   1 <1>  -0.4100 
 16 C       -5.7240    -3.8350    -1.5300 C.2   1 <1>   0.4620 
 17 C       -6.7810    -4.4970    -0.7850 C.ar  1 <1>   0.0540 
 18 C       -6.6740    -5.8320    -0.4000 C.ar  1 <1>  -0.1500 
 19 C       -7.9480    -3.8320    -0.4130 C.ar  1 <1>  -0.1500 
 20 C       -7.6720    -6.4680     0.3160 C.ar  1 <1>  -0.1500 
 21 C       -8.9470    -4.4650     0.3030 C.ar  1 <1>  -0.1500 
 22 C       -8.8340    -5.7970     0.6850 C.ar  1 <1>  -0.1440 
 23 C       -9.9760    -6.4600     1.4850 C.3   1 <1>   0.1430 
 24 C      -10.1810    -5.7060     2.8080 C.3   1 <1>  -0.2400 
 25 C      -11.2730    -6.4130     0.6640 C.3   1 <1>  -0.2400 
 26 C       -9.6970    -7.9330     1.8300 C.3   1 <1>  -0.2400 
 27 H       -2.1180    -0.6340    -3.0630 H     1 <1>   0.3700 
 28 H       -4.8690    -0.2380    -0.7290 H     1 <1>   0.0800 
 29 H       -4.9620    -0.3780    -3.0680 H     1 <1>   0.0800 
 30 H       -4.1080     2.0030    -0.1340 H     1 <1>   0.0800 
 31 H       -3.0670     1.3380     1.0900 H     1 <1>   0.0800 
 32 H       -2.8990    -1.2460     1.3220 H     1 <1>   0.0800 
 33 H       -3.8210    -2.2530     0.2500 H     1 <1>   0.0800 
 34 H       -3.0900    -2.0430    -4.7680 H     1 <1>   0.0800 
 35 H       -3.5750    -0.3830    -5.0840 H     1 <1>   0.0800 
 36 H       -4.7510    -1.6690    -5.1490 H     1 <1>   0.0800 
 37 H       -6.0910     1.1640     1.0330 H     1 <1>   0.0800 
 38 H       -5.1370     2.1260     2.1250 H     1 <1>   0.0800 
 39 H       -4.8700    -2.1220     2.4850 H     1 <1>   0.0800 
 40 H       -5.9190    -1.4860     1.2520 H     1 <1>   0.0800 
 41 H       -5.9330     0.0180     3.1820 H     1 <1>   0.0800 
 42 H       -4.1970     0.1260     3.1510 H     1 <1>   0.0800 
 43 H       -5.7900    -6.3860    -0.6650 H     1 <1>   0.1500 
 44 H       -8.0780    -2.8000    -0.6870 H     1 <1>   0.1500 
 45 H       -7.5150    -7.4980     0.5750 H     1 <1>   0.1500 
 46 H       -9.8250    -3.9000     0.5620 H     1 <1>   0.1500 
 47 H      -10.4720    -4.6870     2.6320 H     1 <1>   0.0800 
 48 H       -9.2670    -5.7030     3.3740 H     1 <1>   0.0800 
 49 H      -10.9480    -6.1740     3.3980 H     1 <1>   0.0800 
 50 H      -12.0730    -6.9040     1.1890 H     1 <1>   0.0800 
 51 H      -11.1280    -6.9090    -0.2790 H     1 <1>   0.0800 
 52 H      -11.5740    -5.4010     0.4700 H     1 <1>   0.0800 
 53 H      -10.5170    -8.3530     2.3860 H     1 <1>   0.0800 
 54 H       -8.8090    -8.0190     2.4300 H     1 <1>   0.0800 
 55 H       -9.5720    -8.5130     0.9330 H     1 <1>   0.0800 
@<TRIPOS>BOND
  1   1   2  2   
  2   2   3  am  
  3   2   4  1   
  4   3   5  1   
  5   3  27  1   
  6   4   6  1   
  7   4   7  1   
  8   4  28  1   
  9   5   8  1   
 10   5   9  1   
 11   5  29  1   
 12   6  10  1   
 13   6  30  1   
 14   6  31  1   
 15   7  11  1   
 16   7  32  1   
 17   7  33  1   
 18   8  12  1   
 19   8  13  2   
 20   9  34  1   
 21   9  35  1   
 22   9  36  1   
 23  10  14  1   
 24  10  37  1   
 25  10  38  1   
 26  11  14  1   
 27  11  39  1   
 28  11  40  1   
 29  12  15  1   
 30  13  16  1   
 31  14  41  1   
 32  14  42  1   
 33  15  16  2   
 34  16  17  1   
 35  17  18  ar  
 36  17  19  ar  
 37  18  20  ar  
 38  18  43  1   
 39  19  21  ar  
 40  19  44  1   
 41  20  22  ar  
 42  20  45  1   
 43  21  22  ar  
 44  21  46  1   
 45  22  23  1   
 46  23  24  1   
 47  23  25  1   
 48  23  26  1   
 49  24  47  1   
 50  24  48  1   
 51  24  49  1   
 52  25  50  1   
 53  25  51  1   
 54  25  52  1   
 55  26  53  1   
 56  26  54  1   
 57  26  55  1   
@<TRIPOS>SUBSTRUCTURE
  1 ****  16 GROUP 4 **** **** 0

# MOE 2024.06 (io_trps.svl 2023.06)
