@<TRIPOS>MOLECULE
Cyclohexanecarboxylic acid [1-(3-phenyl-[1,2,4]oxadiazol-5-yl)-ethyl]-amide
43 45 1 0 0 
SMALL
USER_CHARGES


@<TRIPOS>ATOM
  1 O       -1.3360    -0.7200     1.6110 O.2   1 <1>  -0.5700 
  2 C       -2.2520    -0.3560     0.9190 C.2   1 <1>   0.5690 
  3 N       -2.8850    -1.3130     0.1970 N.am  1 <1>  -0.7300 
  4 C       -2.5530     1.1520     0.9090 C.3   1 <1>  -0.0190 
  5 C       -4.1870    -1.3730    -0.5010 C.3   1 <1>   0.4000 
  6 C       -4.0330     1.5860     0.8850 C.3   1 <1>  -0.1600 
  7 C       -1.7660     1.8730    -0.2030 C.3   1 <1>  -0.1600 
  8 C       -4.7790    -2.7810    -0.4140 C.2   1 <1>   0.2980 
  9 C       -3.9870    -0.9520    -1.9570 C.3   1 <1>  -0.2400 
 10 C       -4.1600     3.1080     1.0370 C.3   1 <1>  -0.1600 
 11 C       -1.9110     3.3990    -0.0970 C.3   1 <1>  -0.1600 
 12 O       -4.0690    -3.7890    -0.8490 O.3   1 <1>  -0.0190 
 13 N       -5.9230    -3.0830     0.0500 N.2   1 <1>  -0.5650 
 14 C       -3.3840     3.8290    -0.0730 C.3   1 <1>  -0.1600 
 15 N       -4.8240    -4.8200    -0.6430 N.2   1 <1>  -0.4100 
 16 C       -5.9210    -4.4110    -0.1100 C.2   1 <1>   0.4620 
 17 C       -7.0400    -5.2530     0.2820 C.ar  1 <1>   0.0540 
 18 C       -8.1880    -4.7220     0.8740 C.ar  1 <1>  -0.1500 
 19 C       -7.0110    -6.6350     0.0800 C.ar  1 <1>  -0.1500 
 20 C       -9.2510    -5.5250     1.2460 C.ar  1 <1>  -0.1500 
 21 C       -8.0710    -7.4450     0.4490 C.ar  1 <1>  -0.1500 
 22 C       -9.1950    -6.8900     1.0330 C.ar  1 <1>  -0.1500 
 23 H       -2.4600    -2.2360     0.3130 H     1 <1>   0.3700 
 24 H       -2.1560     1.5150     1.8420 H     1 <1>   0.0800 
 25 H       -4.8890    -0.7190    -0.0210 H     1 <1>   0.0800 
 26 H       -4.5700     1.0970     1.6800 H     1 <1>   0.0800 
 27 H       -4.4810     1.3250    -0.0530 H     1 <1>   0.0800 
 28 H       -2.1120     1.5470    -1.1660 H     1 <1>   0.0800 
 29 H       -0.7230     1.6130    -0.1260 H     1 <1>   0.0800 
 30 H       -3.2690    -1.5900    -2.4390 H     1 <1>   0.0800 
 31 H       -3.6530     0.0660    -2.0140 H     1 <1>   0.0800 
 32 H       -4.9210    -1.0280    -2.4860 H     1 <1>   0.0800 
 33 H       -3.7770     3.4090     1.9980 H     1 <1>   0.0800 
 34 H       -5.1970     3.3910     0.9920 H     1 <1>   0.0800 
 35 H       -1.4110     3.8670    -0.9280 H     1 <1>   0.0800 
 36 H       -1.4300     3.7370     0.8050 H     1 <1>   0.0800 
 37 H       -3.4440     4.8930     0.0790 H     1 <1>   0.0800 
 38 H       -3.8340     3.6090    -1.0260 H     1 <1>   0.0800 
 39 H       -8.2500    -3.6620     1.0480 H     1 <1>   0.1500 
 40 H       -6.1450    -7.0840    -0.3730 H     1 <1>   0.1500 
 41 H      -10.1230    -5.0880     1.7000 H     1 <1>   0.1500 
 42 H       -8.0210    -8.5070     0.2810 H     1 <1>   0.1500 
 43 H      -10.0210    -7.5180     1.3210 H     1 <1>   0.1500 
@<TRIPOS>BOND
  1   1   2  2   
  2   2   3  am  
  3   2   4  1   
  4   3   5  1   
  5   3  23  1   
  6   4   6  1   
  7   4   7  1   
  8   4  24  1   
  9   5   8  1   
 10   5   9  1   
 11   5  25  1   
 12   6  10  1   
 13   6  26  1   
 14   6  27  1   
 15   7  11  1   
 16   7  28  1   
 17   7  29  1   
 18   8  12  1   
 19   8  13  2   
 20   9  30  1   
 21   9  31  1   
 22   9  32  1   
 23  10  14  1   
 24  10  33  1   
 25  10  34  1   
 26  11  14  1   
 27  11  35  1   
 28  11  36  1   
 29  12  15  1   
 30  13  16  1   
 31  14  37  1   
 32  14  38  1   
 33  15  16  2   
 34  16  17  1   
 35  17  18  ar  
 36  17  19  ar  
 37  18  20  ar  
 38  18  39  1   
 39  19  21  ar  
 40  19  40  1   
 41  20  22  ar  
 42  20  41  1   
 43  21  22  ar  
 44  21  42  1   
 45  22  43  1   
@<TRIPOS>SUBSTRUCTURE
  1 ****   8 GROUP 4 **** **** 0

# MOE 2024.06 (io_trps.svl 2023.06)
