@<TRIPOS>MOLECULE
8-(3-Chloro-4-methoxy-phenyl)-3-(3-hydroxy-propyl)-1,7-dimethyl-1H,8H-imidazo[2,
50 53 1 0 0 
SMALL
USER_CHARGES


@<TRIPOS>ATOM
  1 CL      -1.3940    -1.4130    -2.7750 Cl    1 <1>  -0.1840 
  2 C       -2.2670    -1.3340    -1.2610 C.ar  1 <1>   0.1700 
  3 C       -1.8740    -2.1100    -0.1760 C.ar  1 <1>   0.0750 
  4 C       -3.3500    -0.4820    -1.1880 C.ar  1 <1>  -0.1570 
  5 O       -0.7990    -2.9290    -0.3250 O.3   1 <1>  -0.3680 
  6 C       -2.6010    -2.0120     1.0090 C.ar  1 <1>  -0.1570 
  7 C       -4.0730    -0.3950    -0.0090 C.ar  1 <1>   0.3050 
  8 C       -0.3000    -3.7030     0.7440 C.3   1 <1>   0.0320 
  9 C       -3.6900    -1.1590     1.0850 C.ar  1 <1>  -0.1570 
 10 N       -5.1890     0.4540     0.0740 N.pl3 1 <1>  -0.5550 
 11 C       -6.4520     0.1560    -0.2590 C.cat 1 <1>   1.0690 
 12 C       -5.2280     1.7770     0.5010 C.2   1 <1>   0.1580 
 13 N       -7.1080    -0.9080    -0.7360 N.pl3 1 <1>  -0.7040 
 14 N       -7.2670     1.1840    -0.0720 N.pl3 1 <1>  -0.6330 
 15 C       -6.5000     2.2250     0.4130 C.2   1 <1>   0.2220 
 16 C       -3.9790     2.5020     0.9690 C.3   1 <1>  -0.1100 
 17 C       -8.4170    -0.5290    -0.8540 C.2   1 <1>   0.4200 
 18 C       -8.5480     0.7600    -0.4550 C.2   1 <1>   0.2700 
 19 N       -9.4820    -1.2860    -1.3030 N.am  1 <1>  -0.4420 
 20 C       -9.8270     1.3870    -0.5000 C.2   1 <1>   0.6990 
 21 C      -10.7350    -0.6850    -1.3680 C.2   1 <1>   0.6860 
 22 C       -9.2970    -2.7050    -1.7320 C.3   1 <1>   0.0520 
 23 O       -9.9690     2.5460    -0.1500 O.2   1 <1>  -0.5750 
 24 N      -10.9010     0.6350    -0.9590 N.am  1 <1>  -0.4260 
 25 O      -11.6840    -1.3180    -1.7830 O.2   1 <1>  -0.5750 
 26 C      -12.2630     1.2480    -0.9990 C.3   1 <1>   0.1330 
 27 C      -13.0080     0.9570     0.3060 C.3   1 <1>  -0.1670 
 28 C      -14.4050     1.5730     0.2740 C.3   1 <1>   0.1120 
 29 O      -15.0220     1.3030     1.4780 O.3   1 <1>  -0.6840 
 30 H       -3.6160     0.1060    -2.0460 H     1 <1>   0.1430 
 31 H       -2.3300    -2.5900     1.8750 H     1 <1>   0.1430 
 32 H        0.5600    -4.2430     0.3900 H     1 <1>   0.0720 
 33 H       -1.0590    -4.3960     1.0610 H     1 <1>   0.0720 
 34 H       -0.0120    -3.0480     1.5470 H     1 <1>   0.0720 
 35 H       -4.2400    -1.0870     2.0070 H     1 <1>   0.1430 
 36 H       -6.6850    -1.8050    -0.9650 H     1 <1>   0.4450 
 37 H       -6.9190     3.1920     0.6530 H     1 <1>   0.1430 
 38 H       -3.5510     1.9970     1.8170 H     1 <1>   0.0720 
 39 H       -4.2140     3.5120     1.2550 H     1 <1>   0.0720 
 40 H       -3.2490     2.5310     0.1790 H     1 <1>   0.0720 
 41 H       -8.5650    -3.1940    -1.1140 H     1 <1>   0.0720 
 42 H       -8.9780    -2.7340    -2.7600 H     1 <1>   0.0720 
 43 H      -10.2220    -3.2500    -1.6450 H     1 <1>   0.0720 
 44 H      -12.8180     0.8500    -1.8330 H     1 <1>   0.0720 
 45 H      -12.1860     2.3130    -1.1450 H     1 <1>   0.0720 
 46 H      -12.4620     1.3820     1.1300 H     1 <1>   0.0720 
 47 H      -13.0950    -0.1070     0.4360 H     1 <1>   0.0720 
 48 H      -15.0050     1.1540    -0.5170 H     1 <1>   0.0720 
 49 H      -14.3560     2.6430     0.1610 H     1 <1>   0.0720 
 50 H      -15.1250     0.3400     1.6030 H     1 <1>   0.3940 
@<TRIPOS>BOND
  1   1   2  1   
  2   2   3  ar  
  3   2   4  ar  
  4   3   5  1   
  5   3   6  ar  
  6   4   7  ar  
  7   4  30  1   
  8   5   8  1   
  9   6   9  ar  
 10   6  31  1   
 11   7   9  ar  
 12   7  10  1   
 13   8  32  1   
 14   8  33  1   
 15   8  34  1   
 16   9  35  1   
 17  10  11  ar  
 18  10  12  1   
 19  11  13  ar  
 20  11  14  ar  
 21  12  15  2   
 22  12  16  1   
 23  13  17  1   
 24  13  36  1   
 25  14  15  1   
 26  14  18  1   
 27  15  37  1   
 28  16  38  1   
 29  16  39  1   
 30  16  40  1   
 31  17  18  2   
 32  17  19  1   
 33  18  20  1   
 34  19  21  am  
 35  19  22  1   
 36  20  23  2   
 37  20  24  am  
 38  21  24  am  
 39  21  25  2   
 40  22  41  1   
 41  22  42  1   
 42  22  43  1   
 43  24  26  1   
 44  26  27  1   
 45  26  44  1   
 46  26  45  1   
 47  27  28  1   
 48  27  46  1   
 49  27  47  1   
 50  28  29  1   
 51  28  48  1   
 52  28  49  1   
 53  29  50  1   
@<TRIPOS>SUBSTRUCTURE
  1 ****  11 GROUP 4 **** **** 0

# MOE 2024.06 (io_trps.svl 2023.06)
