@<TRIPOS>MOLECULE
Pentanoic acid [1-(3-o-tolyl-[1,2,4]oxadiazol-5-yl)-ethyl]-amide
42 43 1 0 0 
SMALL
USER_CHARGES


@<TRIPOS>ATOM
  1 O       -1.1170    -0.4790    -2.0630 O.2   1 <1>  -0.5700 
  2 C       -2.2920    -0.6110    -1.8370 C.2   1 <1>   0.5690 
  3 N       -3.1060    -0.9890    -2.8470 N.am  1 <1>  -0.7300 
  4 C       -2.8320    -0.3730    -0.4310 C.3   1 <1>  -0.0990 
  5 C       -4.5490    -1.3050    -2.8030 C.3   1 <1>   0.4000 
  6 C       -1.9690     0.5810     0.4140 C.3   1 <1>  -0.1600 
  7 C       -4.8480    -2.4810    -1.8700 C.2   1 <1>   0.2980 
  8 C       -5.0130    -1.5820    -4.2320 C.3   1 <1>  -0.2400 
  9 C       -2.5790     0.8030     1.8040 C.3   1 <1>  -0.1600 
 10 O       -4.3030    -3.6430    -2.1200 O.3   1 <1>  -0.0190 
 11 N       -5.5890    -2.4390    -0.8380 N.2   1 <1>  -0.5650 
 12 C       -1.7130     1.7500     2.6390 C.3   1 <1>  -0.2400 
 13 N       -4.7270    -4.4040    -1.1620 N.2   1 <1>  -0.4100 
 14 C       -5.4870    -3.6990    -0.4020 C.2   1 <1>   0.4620 
 15 C       -6.1350    -4.1780     0.8060 C.ar  1 <1>   0.0540 
 16 C       -7.4890    -3.9630     1.1050 C.ar  1 <1>  -0.1440 
 17 C       -5.3750    -4.8960     1.7300 C.ar  1 <1>  -0.1500 
 18 C       -8.0280    -4.4400     2.2900 C.ar  1 <1>  -0.1500 
 19 C       -8.4090    -3.2160     0.1460 C.3   1 <1>  -0.0970 
 20 C       -5.9170    -5.3730     2.9070 C.ar  1 <1>  -0.1500 
 21 C       -7.2490    -5.1420     3.1910 C.ar  1 <1>  -0.1500 
 22 H       -2.6380    -1.1760    -3.7340 H     1 <1>   0.3700 
 23 H       -2.8940    -1.3240     0.0650 H     1 <1>   0.0800 
 24 H       -3.8220     0.0360    -0.4960 H     1 <1>   0.0800 
 25 H       -5.0770    -0.4430    -2.4330 H     1 <1>   0.0800 
 26 H       -1.8780     1.5240    -0.0980 H     1 <1>   0.0800 
 27 H       -0.9800     0.1650     0.5180 H     1 <1>   0.0800 
 28 H       -4.4970    -2.4320    -4.6410 H     1 <1>   0.0800 
 29 H       -4.8390    -0.7210    -4.8530 H     1 <1>   0.0800 
 30 H       -6.0670    -1.7930    -4.2330 H     1 <1>   0.0800 
 31 H       -2.6660    -0.1410     2.3160 H     1 <1>   0.0800 
 32 H       -3.5660     1.2210     1.7050 H     1 <1>   0.0800 
 33 H       -0.7260     1.3400     2.7680 H     1 <1>   0.0800 
 34 H       -2.1540     1.8930     3.6090 H     1 <1>   0.0800 
 35 H       -1.6290     2.7070     2.1550 H     1 <1>   0.0800 
 36 H       -4.3360    -5.0820     1.5170 H     1 <1>   0.1500 
 37 H       -9.0650    -4.2710     2.5210 H     1 <1>   0.1500 
 38 H       -8.1850    -2.1650     0.1690 H     1 <1>   0.0800 
 39 H       -9.4410    -3.3500     0.4160 H     1 <1>   0.0800 
 40 H       -8.2770    -3.5800    -0.8570 H     1 <1>   0.0800 
 41 H       -5.3050    -5.9220     3.6020 H     1 <1>   0.1500 
 42 H       -7.6780    -5.5080     4.1070 H     1 <1>   0.1500 
@<TRIPOS>BOND
  1   1   2  2   
  2   2   3  am  
  3   2   4  1   
  4   3   5  1   
  5   3  22  1   
  6   4   6  1   
  7   4  23  1   
  8   4  24  1   
  9   5   7  1   
 10   5   8  1   
 11   5  25  1   
 12   6   9  1   
 13   6  26  1   
 14   6  27  1   
 15   7  10  1   
 16   7  11  2   
 17   8  28  1   
 18   8  29  1   
 19   8  30  1   
 20   9  12  1   
 21   9  31  1   
 22   9  32  1   
 23  10  13  1   
 24  11  14  1   
 25  12  33  1   
 26  12  34  1   
 27  12  35  1   
 28  13  14  2   
 29  14  15  1   
 30  15  16  ar  
 31  15  17  ar  
 32  16  18  ar  
 33  16  19  1   
 34  17  20  ar  
 35  17  36  1   
 36  18  21  ar  
 37  18  37  1   
 38  19  38  1   
 39  19  39  1   
 40  19  40  1   
 41  20  21  ar  
 42  20  41  1   
 43  21  42  1   
@<TRIPOS>SUBSTRUCTURE
  1 ****  11 GROUP 4 **** **** 0

# MOE 2024.06 (io_trps.svl 2023.06)
