@<TRIPOS>MOLECULE
3-[3-(3-Ethoxy-4-methoxy-phenyl)-[1,2,4]oxadiazol-5-yl]-1-morpholin-4-yl-propan-
49 51 1 0 0 
SMALL
USER_CHARGES


@<TRIPOS>ATOM
  1 O        0.2990    -0.7890    -1.1810 O.2   1 <1>  -0.5700 
  2 C        0.6370    -1.6530    -0.4070 C.2   1 <1>   0.5690 
  3 N        1.6630    -1.4590     0.4820 N.am  1 <1>  -0.6600 
  4 C       -0.1070    -2.9790    -0.4410 C.3   1 <1>  -0.0990 
  5 C        2.3770    -0.1480     0.5700 C.3   1 <1>   0.1400 
  6 C        2.2080    -2.4780     1.4310 C.3   1 <1>   0.1400 
  7 C       -1.3360    -2.9670    -1.3650 C.3   1 <1>   0.0200 
  8 C        3.9000    -0.3530     0.5210 C.3   1 <1>   0.1200 
  9 C        3.7420    -2.5480     1.3320 C.3   1 <1>   0.1200 
 10 C       -2.0420    -4.3070    -1.3510 C.2   1 <1>   0.2980 
 11 O        4.3070    -1.2780     1.4900 O.3   1 <1>  -0.5600 
 12 O       -1.4550    -5.3340    -1.9080 O.3   1 <1>  -0.0190 
 13 N       -3.1750    -4.5420    -0.8340 N.2   1 <1>  -0.5650 
 14 N       -2.2880    -6.3100    -1.7260 N.2   1 <1>  -0.4100 
 15 C       -3.3090    -5.8470    -1.0950 C.2   1 <1>   0.4620 
 16 C       -4.4780    -6.6130    -0.6960 C.ar  1 <1>   0.0540 
 17 C       -5.5390    -6.0310    -0.0030 C.ar  1 <1>  -0.1500 
 18 C       -4.5900    -7.9710    -0.9930 C.ar  1 <1>  -0.1500 
 19 C       -6.6580    -6.7490     0.3790 C.ar  1 <1>   0.0820 
 20 C       -5.6950    -8.7120    -0.6140 C.ar  1 <1>  -0.1500 
 21 O       -7.6090    -6.0290     1.0380 O.3   1 <1>  -0.3630 
 22 C       -6.7430    -8.1190     0.0850 C.ar  1 <1>   0.0820 
 23 C       -8.9780    -6.2800     0.8180 C.3   1 <1>   0.1200 
 24 O       -7.8250    -8.8400     0.4970 O.3   1 <1>  -0.3630 
 25 C       -9.7520    -5.0150     1.1750 C.3   1 <1>  -0.2400 
 26 C       -7.8730   -10.2460     0.3930 C.3   1 <1>   0.0400 
 27 H       -0.4320    -3.2160     0.5550 H     1 <1>   0.0800 
 28 H        0.5750    -3.7400    -0.7720 H     1 <1>   0.0800 
 29 H        2.1150     0.3360     1.4940 H     1 <1>   0.0800 
 30 H        2.0840     0.5020    -0.2360 H     1 <1>   0.0800 
 31 H        1.8040    -3.4530     1.2320 H     1 <1>   0.0800 
 32 H        1.9350    -2.2040     2.4360 H     1 <1>   0.0800 
 33 H       -1.0400    -2.7390    -2.3740 H     1 <1>   0.0800 
 34 H       -2.0240    -2.2060    -1.0400 H     1 <1>   0.0800 
 35 H        4.4060     0.5760     0.7200 H     1 <1>   0.0800 
 36 H        4.2020    -0.7100    -0.4480 H     1 <1>   0.0800 
 37 H        4.0440    -2.9430     0.3780 H     1 <1>   0.0800 
 38 H        4.1360    -3.1790     2.1080 H     1 <1>   0.0800 
 39 H       -5.4980    -4.9870     0.2480 H     1 <1>   0.1500 
 40 H       -3.7950    -8.4580    -1.5320 H     1 <1>   0.1500 
 41 H       -5.7150    -9.7530    -0.8730 H     1 <1>   0.1500 
 42 H       -9.2780    -7.0980     1.4480 H     1 <1>   0.0800 
 43 H       -9.1200    -6.5370    -0.2180 H     1 <1>   0.0800 
 44 H       -9.5890    -4.7630     2.2080 H     1 <1>   0.0800 
 45 H      -10.8030    -5.1760     1.0210 H     1 <1>   0.0800 
 46 H       -9.4330    -4.1990     0.5510 H     1 <1>   0.0800 
 47 H       -8.7850   -10.5830     0.8530 H     1 <1>   0.0800 
 48 H       -7.0280   -10.6640     0.9100 H     1 <1>   0.0800 
 49 H       -7.8670   -10.5210    -0.6470 H     1 <1>   0.0800 
@<TRIPOS>BOND
  1   1   2  2   
  2   2   3  am  
  3   2   4  1   
  4   3   5  1   
  5   3   6  1   
  6   4   7  1   
  7   4  27  1   
  8   4  28  1   
  9   5   8  1   
 10   5  29  1   
 11   5  30  1   
 12   6   9  1   
 13   6  31  1   
 14   6  32  1   
 15   7  10  1   
 16   7  33  1   
 17   7  34  1   
 18   8  11  1   
 19   8  35  1   
 20   8  36  1   
 21   9  11  1   
 22   9  37  1   
 23   9  38  1   
 24  10  12  1   
 25  10  13  2   
 26  12  14  1   
 27  13  15  1   
 28  14  15  2   
 29  15  16  1   
 30  16  17  ar  
 31  16  18  ar  
 32  17  19  ar  
 33  17  39  1   
 34  18  20  ar  
 35  18  40  1   
 36  19  21  1   
 37  19  22  ar  
 38  20  22  ar  
 39  20  41  1   
 40  21  23  1   
 41  22  24  1   
 42  23  25  1   
 43  23  42  1   
 44  23  43  1   
 45  24  26  1   
 46  25  44  1   
 47  25  45  1   
 48  25  46  1   
 49  26  47  1   
 50  26  48  1   
 51  26  49  1   
@<TRIPOS>SUBSTRUCTURE
  1 ****  13 GROUP 4 **** **** 0

# MOE 2024.06 (io_trps.svl 2023.06)
