@<TRIPOS>MOLECULE
2-Allyl-8,8-dimethyl-3-propyl-8,9-dihydro-2H,6H-7-oxa-11-thia-2,4,10-triaza-benz
49 52 1 0 0 
SMALL
USER_CHARGES


@<TRIPOS>ATOM
  1 S        0.1320    -1.5350     0.7720 S.3   1 <1>  -0.0800 
  2 C       -1.1480    -0.3230     0.6220 C.ar  1 <1>   0.2970 
  3 C        1.3660    -0.3700     0.2630 C.2   1 <1>  -0.0450 
  4 N       -2.4130    -0.6030     0.8850 N.ar  1 <1>  -0.5670 
  5 C       -0.6110     0.8880     0.2050 C.ar  1 <1>   0.0000 
  6 C        2.7470    -0.6010     0.1110 C.2   1 <1>   0.7150 
  7 C        0.8110     0.8340     0.0090 C.2   1 <1>   0.1250 
  8 C       -3.2250     0.4280     0.7160 C.ar  1 <1>   0.1660 
  9 C       -1.4900     1.9450     0.0390 C.ar  1 <1>  -0.1500 
 10 O        3.2580    -1.6940     0.3250 O.2   1 <1>  -0.5700 
 11 N        3.4960     0.4800    -0.3210 N.am  1 <1>  -0.4200 
 12 N        1.5880     1.8850    -0.3950 N.2   1 <1>  -0.5750 
 13 C       -2.8240     1.7000     0.3010 C.ar  1 <1>  -0.1430 
 14 C       -4.6880     0.1760     1.0170 C.3   1 <1>  -0.0170 
 15 C        2.8580     1.7010    -0.5340 C.2   1 <1>   0.4490 
 16 C        4.9470     0.2450    -0.5730 C.3   1 <1>   0.2780 
 17 C       -3.8410     2.8190     0.1160 C.3   1 <1>   0.2640 
 18 C       -5.6070     1.2220     0.3680 C.3   1 <1>   0.2800 
 19 C        3.6470     2.9440    -0.9490 C.3   1 <1>  -0.0990 
 20 C        5.7710     0.7190     0.6110 C.2   1 <1>  -0.2880 
 21 O       -5.0980     2.4910     0.6380 O.3   1 <1>  -0.5600 
 22 C       -5.7530     1.0250    -1.1500 C.3   1 <1>  -0.2400 
 23 C       -6.9930     1.1900     1.0130 C.3   1 <1>  -0.2400 
 24 C        3.8190     3.9260     0.2230 C.3   1 <1>  -0.1600 
 25 C        6.4010    -0.0870     1.4720 C.2   1 <1>  -0.3000 
 26 C        4.6680     5.1360    -0.1800 C.3   1 <1>  -0.2400 
 27 H       -1.1250     2.9040    -0.2830 H     1 <1>   0.1500 
 28 H       -4.8150     0.1940     2.0830 H     1 <1>   0.0800 
 29 H       -4.9630    -0.8050     0.6740 H     1 <1>   0.0800 
 30 H        5.2600     0.7380    -1.4740 H     1 <1>   0.0800 
 31 H        5.1330    -0.8030    -0.7310 H     1 <1>   0.0800 
 32 H       -3.9590     3.0490    -0.9280 H     1 <1>   0.0800 
 33 H       -3.5080     3.7070     0.6240 H     1 <1>   0.0800 
 34 H        3.0930     3.4400    -1.7270 H     1 <1>   0.0800 
 35 H        4.6050     2.7080    -1.3630 H     1 <1>   0.0800 
 36 H        5.8070     1.7890     0.7010 H     1 <1>   0.1500 
 37 H       -6.3100     1.8380    -1.5790 H     1 <1>   0.0800 
 38 H       -4.7970     0.9510    -1.6340 H     1 <1>   0.0800 
 39 H       -6.2840     0.1110    -1.3490 H     1 <1>   0.0800 
 40 H       -6.9190     1.3840     2.0680 H     1 <1>   0.0800 
 41 H       -7.4500     0.2270     0.8730 H     1 <1>   0.0800 
 42 H       -7.6270     1.9360     0.5680 H     1 <1>   0.0800 
 43 H        4.2780     3.4300     1.0590 H     1 <1>   0.0800 
 44 H        2.8480     4.2670     0.5440 H     1 <1>   0.0800 
 45 H        6.3830    -1.1630     1.4190 H     1 <1>   0.1500 
 46 H        6.9850     0.2620     2.3070 H     1 <1>   0.1500 
 47 H        5.6550     4.8260    -0.4760 H     1 <1>   0.0800 
 48 H        4.7590     5.8130     0.6510 H     1 <1>   0.0800 
 49 H        4.2100     5.6630    -0.9990 H     1 <1>   0.0800 
@<TRIPOS>BOND
  1   1   2  1   
  2   1   3  1   
  3   2   4  ar  
  4   2   5  ar  
  5   3   6  1   
  6   3   7  2   
  7   4   8  ar  
  8   5   7  1   
  9   5   9  ar  
 10   6  10  2   
 11   6  11  am  
 12   7  12  1   
 13   8  13  ar  
 14   8  14  1   
 15   9  13  ar  
 16   9  27  1   
 17  11  15  1   
 18  11  16  1   
 19  12  15  2   
 20  13  17  1   
 21  14  18  1   
 22  14  28  1   
 23  14  29  1   
 24  15  19  1   
 25  16  20  1   
 26  16  30  1   
 27  16  31  1   
 28  17  21  1   
 29  17  32  1   
 30  17  33  1   
 31  18  21  1   
 32  18  22  1   
 33  18  23  1   
 34  19  24  1   
 35  19  34  1   
 36  19  35  1   
 37  20  25  2   
 38  20  36  1   
 39  22  37  1   
 40  22  38  1   
 41  22  39  1   
 42  23  40  1   
 43  23  41  1   
 44  23  42  1   
 45  24  26  1   
 46  24  43  1   
 47  24  44  1   
 48  25  45  1   
 49  25  46  1   
 50  26  47  1   
 51  26  48  1   
 52  26  49  1   
@<TRIPOS>SUBSTRUCTURE
  1 ****   5 GROUP 4 **** **** 0

# MOE 2024.06 (io_trps.svl 2023.06)
