@<TRIPOS>MOLECULE
N-(3-Methoxy-propyl)-3-(3-m-tolyl-[1,2,4]oxadiazol-5-yl)-propionamide
43 44 1 0 0 
SMALL
USER_CHARGES


@<TRIPOS>ATOM
  1 O       -0.3040     0.0430     0.0940 O.2   1 <1>  -0.5700 
  2 C        0.3620    -0.9400    -0.1130 C.2   1 <1>   0.5690 
  3 N        1.6790    -0.8700    -0.4330 N.am  1 <1>  -0.7300 
  4 C       -0.2960    -2.2980    -0.0240 C.3   1 <1>  -0.0990 
  5 C        2.4580     0.3820    -0.5230 C.3   1 <1>   0.1400 
  6 C       -1.4560    -2.4130    -1.0220 C.3   1 <1>   0.0200 
  7 C        3.7980     0.1870     0.1810 C.3   1 <1>  -0.1600 
  8 C       -2.0740    -3.7960    -0.9860 C.2   1 <1>   0.2980 
  9 C        4.6200     1.4730     0.1500 C.3   1 <1>   0.1200 
 10 O       -1.3830    -4.8040    -1.4500 O.3   1 <1>  -0.0190 
 11 N       -3.2230    -4.0840    -0.5370 N.2   1 <1>  -0.5650 
 12 O        5.8380     1.2050     0.7570 O.3   1 <1>  -0.5600 
 13 N       -2.1610    -5.8250    -1.2770 N.2   1 <1>  -0.4100 
 14 C       -3.2520    -5.4060    -0.7390 C.2   1 <1>   0.4620 
 15 C        6.6900     2.3020     0.8250 C.3   1 <1>   0.0400 
 16 C       -4.3940    -6.2320    -0.3790 C.ar  1 <1>   0.0540 
 17 C       -5.5370    -5.6880     0.2110 C.ar  1 <1>  -0.1500 
 18 C       -4.3920    -7.6080    -0.6110 C.ar  1 <1>  -0.1500 
 19 C       -6.6260    -6.4710     0.5570 C.ar  1 <1>  -0.1440 
 20 C       -5.4730    -8.4000    -0.2720 C.ar  1 <1>  -0.1500 
 21 C       -6.5910    -7.8320     0.3120 C.ar  1 <1>  -0.1500 
 22 C       -7.8550    -5.8510     1.1970 C.3   1 <1>  -0.0970 
 23 H        2.2110    -1.7260    -0.5970 H     1 <1>   0.3700 
 24 H       -0.6700    -2.4290     0.9750 H     1 <1>   0.0800 
 25 H        0.4300    -3.0670    -0.2150 H     1 <1>   0.0800 
 26 H        1.9110     1.1860    -0.0590 H     1 <1>   0.0800 
 27 H        2.6140     0.6280    -1.5600 H     1 <1>   0.0800 
 28 H       -1.1070    -2.2120    -2.0190 H     1 <1>   0.0800 
 29 H       -2.2110    -1.6850    -0.7810 H     1 <1>   0.0800 
 30 H        4.3530    -0.5920    -0.3100 H     1 <1>   0.0800 
 31 H        3.6250    -0.0870     1.2070 H     1 <1>   0.0800 
 32 H        4.1230     2.2560     0.6980 H     1 <1>   0.0800 
 33 H        4.8030     1.7870    -0.8640 H     1 <1>   0.0800 
 34 H        7.5990     1.9890     1.3080 H     1 <1>   0.0800 
 35 H        6.2220     3.0800     1.4030 H     1 <1>   0.0800 
 36 H        6.9080     2.6460    -0.1710 H     1 <1>   0.0800 
 37 H       -5.5690    -4.6300     0.4010 H     1 <1>   0.1500 
 38 H       -3.5300    -8.0660    -1.0650 H     1 <1>   0.1500 
 39 H       -5.4460    -9.4590    -0.4620 H     1 <1>   0.1500 
 40 H       -7.4300    -8.4530     0.5730 H     1 <1>   0.1500 
 41 H       -7.6470    -4.8520     1.5370 H     1 <1>   0.0800 
 42 H       -8.1680    -6.4390     2.0410 H     1 <1>   0.0800 
 43 H       -8.6570    -5.8120     0.4820 H     1 <1>   0.0800 
@<TRIPOS>BOND
  1   1   2  2   
  2   2   3  am  
  3   2   4  1   
  4   3   5  1   
  5   3  23  1   
  6   4   6  1   
  7   4  24  1   
  8   4  25  1   
  9   5   7  1   
 10   5  26  1   
 11   5  27  1   
 12   6   8  1   
 13   6  28  1   
 14   6  29  1   
 15   7   9  1   
 16   7  30  1   
 17   7  31  1   
 18   8  10  1   
 19   8  11  2   
 20   9  12  1   
 21   9  32  1   
 22   9  33  1   
 23  10  13  1   
 24  11  14  1   
 25  12  15  1   
 26  13  14  2   
 27  14  16  1   
 28  15  34  1   
 29  15  35  1   
 30  15  36  1   
 31  16  17  ar  
 32  16  18  ar  
 33  17  19  ar  
 34  17  37  1   
 35  18  20  ar  
 36  18  38  1   
 37  19  21  ar  
 38  19  22  1   
 39  20  21  ar  
 40  20  39  1   
 41  21  40  1   
 42  22  41  1   
 43  22  42  1   
 44  22  43  1   
@<TRIPOS>SUBSTRUCTURE
  1 ****   8 GROUP 4 **** **** 0

# MOE 2024.06 (io_trps.svl 2023.06)
