@<TRIPOS>MOLECULE
N-(4-Bromo-3-methyl-phenyl)-N-(2-morpholin-4-yl-2-oxo-ethyl)-methanesulfonamide
41 42 1 0 0 
SMALL
USER_CHARGES


@<TRIPOS>ATOM
  1 BR      -0.1270    -1.4890    -1.8750 Br    1 <1>  -0.1110 
  2 C        1.5650    -1.7620    -0.9840 C.ar  1 <1>   0.1110 
  3 C        2.5740    -2.4760    -1.6140 C.ar  1 <1>  -0.1440 
  4 C        1.7160    -1.2230     0.2800 C.ar  1 <1>  -0.1500 
  5 C        3.7680    -2.6450    -0.9310 C.ar  1 <1>  -0.1500 
  6 C        2.3980    -3.0520    -3.0100 C.3   1 <1>  -0.0960 
  7 C        2.9160    -1.4070     0.9420 C.ar  1 <1>  -0.1500 
  8 C        3.9500    -2.1230     0.3470 C.ar  1 <1>   0.1990 
  9 N        5.1390    -2.3080     1.0430 N.am  1 <1>  -0.6930 
 10 S        5.6660    -3.8910     1.4890 S.o2  1 <1>   1.3330 
 11 C        6.2230    -1.3030     0.8030 C.3   1 <1>   0.2570 
 12 O        5.9140    -4.6380     0.2820 O.2   1 <1>  -0.6500 
 13 O        6.7160    -3.7060     2.4620 O.2   1 <1>  -0.6500 
 14 C        4.2410    -4.5500     2.3280 C.3   1 <1>  -0.1350 
 15 C        6.9360    -1.4420    -0.5530 C.2   1 <1>   0.5690 
 16 O        6.4560    -0.8290    -1.4800 O.2   1 <1>  -0.5700 
 17 N        8.0730    -2.1990    -0.7280 N.am  1 <1>  -0.6600 
 18 C        8.6080    -2.4770    -2.0960 C.3   1 <1>   0.1400 
 19 C        8.8440    -2.9110     0.3370 C.3   1 <1>   0.1400 
 20 C       10.1300    -2.2740    -2.1400 C.3   1 <1>   0.1200 
 21 C       10.3580    -2.7080     0.1540 C.3   1 <1>   0.1200 
 22 O       10.7590    -3.0330    -1.1470 O.3   1 <1>  -0.5600 
 23 H        0.9100    -0.6720     0.7310 H     1 <1>   0.1500 
 24 H        4.5800    -3.1820    -1.3910 H     1 <1>   0.1500 
 25 H        2.2000    -2.2600    -3.7110 H     1 <1>   0.0800 
 26 H        1.5750    -3.7440    -3.0230 H     1 <1>   0.0800 
 27 H        3.2850    -3.5700    -3.3260 H     1 <1>   0.0800 
 28 H        3.0600    -0.9960     1.9250 H     1 <1>   0.1500 
 29 H        6.9340    -1.3370     1.6050 H     1 <1>   0.0800 
 30 H        5.7800    -0.3240     0.8270 H     1 <1>   0.0800 
 31 H        3.9750    -3.9220     3.1550 H     1 <1>   0.0800 
 32 H        4.4550    -5.5340     2.6960 H     1 <1>   0.0800 
 33 H        3.4080    -4.6100     1.6550 H     1 <1>   0.0800 
 34 H        8.1470    -1.8350    -2.8250 H     1 <1>   0.0800 
 35 H        8.3790    -3.4940    -2.3610 H     1 <1>   0.0800 
 36 H        8.6220    -3.9640     0.2910 H     1 <1>   0.0800 
 37 H        8.5780    -2.5560     1.3140 H     1 <1>   0.0800 
 38 H       10.3770    -1.2370    -1.9940 H     1 <1>   0.0800 
 39 H       10.5180    -2.5920    -3.0910 H     1 <1>   0.0800 
 40 H       10.9000    -3.3430     0.8320 H     1 <1>   0.0800 
 41 H       10.6280    -1.6850     0.3500 H     1 <1>   0.0800 
@<TRIPOS>BOND
  1   1   2  1   
  2   2   3  ar  
  3   2   4  ar  
  4   3   5  ar  
  5   3   6  1   
  6   4   7  ar  
  7   4  23  1   
  8   5   8  ar  
  9   5  24  1   
 10   6  25  1   
 11   6  26  1   
 12   6  27  1   
 13   7   8  ar  
 14   7  28  1   
 15   8   9  1   
 16   9  10  am  
 17   9  11  1   
 18  10  12  2   
 19  10  13  2   
 20  10  14  1   
 21  11  15  1   
 22  11  29  1   
 23  11  30  1   
 24  14  31  1   
 25  14  32  1   
 26  14  33  1   
 27  15  16  2   
 28  15  17  am  
 29  17  18  1   
 30  17  19  1   
 31  18  20  1   
 32  18  34  1   
 33  18  35  1   
 34  19  21  1   
 35  19  36  1   
 36  19  37  1   
 37  20  22  1   
 38  20  38  1   
 39  20  39  1   
 40  21  22  1   
 41  21  40  1   
 42  21  41  1   
@<TRIPOS>SUBSTRUCTURE
  1 ****   9 GROUP 4 **** **** 0

# MOE 2024.06 (io_trps.svl 2023.06)
