@<TRIPOS>MOLECULE
N-(3-Chloro-4-fluoro-phenyl)-N-(2-oxo-2-piperidin-1-yl-ethyl)-methanesulfonamide
40 41 1 0 0 
SMALL
USER_CHARGES


@<TRIPOS>ATOM
  1 CL       4.5350    -2.6190     3.1470 Cl    1 <1>  -0.1770 
  2 C        4.2720    -1.1050     2.3120 C.ar  1 <1>   0.1770 
  3 C        3.4710    -0.1180     2.8620 C.ar  1 <1>   0.1900 
  4 C        4.8770    -0.8980     1.0880 C.ar  1 <1>  -0.1500 
  5 F        2.8930    -0.3130     4.0220 F     1 <1>  -0.1900 
  6 C        3.2630     1.0820     2.2110 C.ar  1 <1>  -0.1500 
  7 C        4.6830     0.3020     0.4060 C.ar  1 <1>   0.1990 
  8 C        3.8740     1.2820     0.9840 C.ar  1 <1>  -0.1500 
  9 N        5.2850     0.5530    -0.8280 N.am  1 <1>  -0.6930 
 10 S        5.2890    -0.5690    -2.1450 S.o2  1 <1>   1.3330 
 11 C        6.2440     1.7030    -0.9560 C.3   1 <1>   0.2570 
 12 O        6.0160    -1.7350    -1.7080 O.2   1 <1>  -0.6500 
 13 O        5.7230     0.1700    -3.3050 O.2   1 <1>  -0.6500 
 14 C        3.5610    -0.9480    -2.3370 C.3   1 <1>  -0.1350 
 15 C        6.9340     2.1160     0.3510 C.2   1 <1>   0.5690 
 16 O        6.6060     3.1800     0.8260 O.2   1 <1>  -0.5700 
 17 N        7.8730     1.3110     0.9560 N.am  1 <1>  -0.6600 
 18 C        8.5220     1.7080     2.2370 C.3   1 <1>   0.1400 
 19 C        8.3180    -0.0190     0.4440 C.3   1 <1>   0.1400 
 20 C       10.0440     1.7260     2.0620 C.3   1 <1>  -0.1600 
 21 C        9.8370    -0.0160     0.2500 C.3   1 <1>  -0.1600 
 22 C       10.5710     0.3830     1.5380 C.3   1 <1>  -0.1600 
 23 H        5.5060    -1.6690     0.6840 H     1 <1>   0.1500 
 24 H        2.6440     1.8400     2.6570 H     1 <1>   0.1500 
 25 H        3.7310     2.2150     0.4670 H     1 <1>   0.1500 
 26 H        5.7110     2.5520    -1.3440 H     1 <1>   0.0800 
 27 H        7.0170     1.4630    -1.6640 H     1 <1>   0.0800 
 28 H        3.0060    -0.0510    -2.5310 H     1 <1>   0.0800 
 29 H        3.1790    -1.4080    -1.4480 H     1 <1>   0.0800 
 30 H        3.4230    -1.6220    -3.1590 H     1 <1>   0.0800 
 31 H        8.2490     1.0000     3.0010 H     1 <1>   0.0800 
 32 H        8.1850     2.6810     2.5520 H     1 <1>   0.0800 
 33 H        7.8450    -0.2630    -0.4890 H     1 <1>   0.0800 
 34 H        8.0450    -0.7760     1.1590 H     1 <1>   0.0800 
 35 H       10.5070     1.9530     3.0060 H     1 <1>   0.0800 
 36 H       10.3020     2.5130     1.3740 H     1 <1>   0.0800 
 37 H       10.0860     0.6720    -0.5390 H     1 <1>   0.0800 
 38 H       10.1560    -0.9960    -0.0590 H     1 <1>   0.0800 
 39 H       10.4170    -0.3760     2.2850 H     1 <1>   0.0800 
 40 H       11.6280     0.4550     1.3480 H     1 <1>   0.0800 
@<TRIPOS>BOND
  1   1   2  1   
  2   2   3  ar  
  3   2   4  ar  
  4   3   5  1   
  5   3   6  ar  
  6   4   7  ar  
  7   4  23  1   
  8   6   8  ar  
  9   6  24  1   
 10   7   8  ar  
 11   7   9  1   
 12   8  25  1   
 13   9  10  am  
 14   9  11  1   
 15  10  12  2   
 16  10  13  2   
 17  10  14  1   
 18  11  15  1   
 19  11  26  1   
 20  11  27  1   
 21  14  28  1   
 22  14  29  1   
 23  14  30  1   
 24  15  16  2   
 25  15  17  am  
 26  17  18  1   
 27  17  19  1   
 28  18  20  1   
 29  18  31  1   
 30  18  32  1   
 31  19  21  1   
 32  19  33  1   
 33  19  34  1   
 34  20  22  1   
 35  20  35  1   
 36  20  36  1   
 37  21  22  1   
 38  21  37  1   
 39  21  38  1   
 40  22  39  1   
 41  22  40  1   
@<TRIPOS>SUBSTRUCTURE
  1 ****   7 GROUP 4 **** **** 0

# MOE 2024.06 (io_trps.svl 2023.06)
