@<TRIPOS>MOLECULE
N-(5-Chloro-2-methoxy-phenyl)-2-(4-oxo-5,6,7,8-tetrahydro-4H-benzo[4,5]thieno[2,
45 48 1 0 0 
SMALL
USER_CHARGES


@<TRIPOS>ATOM
  1 CL       3.9450    -3.9070     1.0970 Cl    1 <1>  -0.1770 
  2 C        2.2830    -3.6540     0.6260 C.ar  1 <1>   0.1770 
  3 C        1.4240    -4.7330     0.5660 C.ar  1 <1>  -0.1500 
  4 C        1.8580    -2.3750     0.3180 C.ar  1 <1>  -0.1500 
  5 C        0.1020    -4.5390     0.1900 C.ar  1 <1>   0.1170 
  6 C        0.5400    -2.1690    -0.0560 C.ar  1 <1>  -0.1500 
  7 N       -0.8120    -5.5990     0.1120 N.am  1 <1>  -0.5470 
  8 C       -0.3400    -3.2460    -0.1170 C.ar  1 <1>   0.0830 
  9 C       -1.0230    -6.6270     0.9850 C.2   1 <1>   0.5690 
 10 O       -1.6520    -3.0940    -0.4610 O.3   1 <1>  -0.3630 
 11 O       -0.2180    -6.9700     1.8170 O.2   1 <1>  -0.5700 
 12 C       -2.3650    -7.3470     0.9390 C.3   1 <1>   0.2010 
 13 C       -2.3200    -1.8820    -0.1800 C.3   1 <1>   0.0400 
 14 N       -3.5030    -6.3920     1.1160 N.am  1 <1>  -0.4200 
 15 C       -3.9480    -5.6460     0.0450 C.2   1 <1>   0.7160 
 16 C       -4.0200    -6.1640     2.3690 C.2   1 <1>   0.4500 
 17 O       -3.4510    -5.8300    -1.0590 O.2   1 <1>  -0.5700 
 18 C       -4.9480    -4.6670     0.3020 C.2   1 <1>  -0.0860 
 19 N       -4.9300    -5.2970     2.6460 N.2   1 <1>  -0.5760 
 20 C       -5.3720    -4.5650     1.5910 C.2   1 <1>   0.1660 
 21 C       -5.6020    -3.7290    -0.5730 C.2   1 <1>  -0.1810 
 22 S       -6.5960    -3.3210     1.7640 S.3   1 <1>  -0.0800 
 23 C       -6.5080    -2.9560     0.0470 C.2   1 <1>  -0.1400 
 24 C       -5.3260    -3.5950    -2.0630 C.3   1 <1>   0.0210 
 25 C       -7.3850    -1.8830    -0.5580 C.3   1 <1>   0.0200 
 26 C       -5.9100    -2.2770    -2.6120 C.3   1 <1>  -0.1600 
 27 C       -7.3370    -2.0020    -2.0930 C.3   1 <1>  -0.1600 
 28 H        1.7830    -5.7160     0.8110 H     1 <1>   0.1500 
 29 H        2.5530    -1.5560     0.3710 H     1 <1>   0.1500 
 30 H        0.2180    -1.1750    -0.3010 H     1 <1>   0.1500 
 31 H       -1.5930    -5.3990    -0.5300 H     1 <1>   0.3700 
 32 H       -2.3890    -8.0850     1.7210 H     1 <1>   0.0800 
 33 H       -2.4580    -7.8600    -0.0010 H     1 <1>   0.0800 
 34 H       -3.3750    -2.0410    -0.3110 H     1 <1>   0.0800 
 35 H       -1.9790    -1.1260    -0.8640 H     1 <1>   0.0800 
 36 H       -2.1200    -1.5990     0.8390 H     1 <1>   0.0800 
 37 H       -3.6200    -6.7640     3.1690 H     1 <1>   0.0600 
 38 H       -5.7690    -4.4330    -2.5720 H     1 <1>   0.0800 
 39 H       -4.2660    -3.6140    -2.2460 H     1 <1>   0.0800 
 40 H       -7.0200    -0.9190    -0.2480 H     1 <1>   0.0800 
 41 H       -8.3970    -1.9940    -0.2130 H     1 <1>   0.0800 
 42 H       -5.9140    -2.3130    -3.6880 H     1 <1>   0.0800 
 43 H       -5.2710    -1.4650    -2.3140 H     1 <1>   0.0800 
 44 H       -7.7210    -1.0980    -2.5340 H     1 <1>   0.0800 
 45 H       -7.9760    -2.8130    -2.3970 H     1 <1>   0.0800 
@<TRIPOS>BOND
  1   1   2  1   
  2   2   3  ar  
  3   2   4  ar  
  4   3   5  ar  
  5   3  28  1   
  6   4   6  ar  
  7   4  29  1   
  8   5   7  1   
  9   5   8  ar  
 10   6   8  ar  
 11   6  30  1   
 12   7   9  am  
 13   7  31  1   
 14   8  10  1   
 15   9  11  2   
 16   9  12  1   
 17  10  13  1   
 18  12  14  1   
 19  12  32  1   
 20  12  33  1   
 21  13  34  1   
 22  13  35  1   
 23  13  36  1   
 24  14  15  am  
 25  14  16  1   
 26  15  17  2   
 27  15  18  1   
 28  16  19  2   
 29  16  37  1   
 30  18  20  2   
 31  18  21  1   
 32  19  20  1   
 33  20  22  1   
 34  21  23  2   
 35  21  24  1   
 36  22  23  1   
 37  23  25  1   
 38  24  26  1   
 39  24  38  1   
 40  24  39  1   
 41  25  27  1   
 42  25  40  1   
 43  25  41  1   
 44  26  27  1   
 45  26  42  1   
 46  26  43  1   
 47  27  44  1   
 48  27  45  1   
@<TRIPOS>SUBSTRUCTURE
  1 ****  10 GROUP 4 **** **** 0

# MOE 2024.06 (io_trps.svl 2023.06)
