@<TRIPOS>MOLECULE
2-Oxo-2,5,6,7,8,9-hexahydro-1H-cyclohepta[b]pyridine-3-carboxylic acid
27 28 1 0 0 
SMALL
USER_CHARGES


@<TRIPOS>ATOM
  1 O       -0.4790     0.1630     0.5590 O.2   1 <1>  -0.5700 
  2 C       -1.4390     0.8860     0.3330 C.2   1 <1>   0.6160 
  3 N       -2.6170     0.2470     0.0620 N.am  1 <1>  -0.5390 
  4 C       -1.4350     2.3040     0.2920 C.2   1 <1>  -0.2360 
  5 C       -3.7750     0.9010    -0.2800 C.2   1 <1>  -0.0290 
  6 C       -0.2170     2.9740     0.6150 C.2   1 <1>   1.0500 
  7 C       -2.5840     2.9690    -0.0570 C.2   1 <1>  -0.1500 
  8 C       -3.7760     2.2630    -0.3490 C.2   1 <1>  -0.1380 
  9 C       -4.9950     0.0390    -0.5580 C.3   1 <1>  -0.0220 
 10 O        0.1860     3.0390     1.7900 O.co2 1 <1>  -0.9000 
 11 O        0.3860     3.6170    -0.2640 O.co2 1 <1>  -0.9000 
 12 C       -5.0170     3.0620    -0.7190 C.3   1 <1>  -0.0220 
 13 C       -6.1200     0.3010     0.4530 C.3   1 <1>  -0.1600 
 14 C       -6.1360     2.8880     0.3170 C.3   1 <1>  -0.1600 
 15 C       -6.9270     1.5780     0.1680 C.3   1 <1>  -0.1600 
 16 H       -2.5510    -0.7650     0.1280 H     1 <1>   0.3700 
 17 H       -2.5740     4.0440    -0.1050 H     1 <1>   0.1500 
 18 H       -4.7150    -0.9970    -0.4990 H     1 <1>   0.0800 
 19 H       -5.3440     0.2190    -1.5600 H     1 <1>   0.0800 
 20 H       -5.3600     2.7710    -1.6950 H     1 <1>   0.0800 
 21 H       -4.7600     4.1060    -0.7720 H     1 <1>   0.0800 
 22 H       -5.7040     0.3450     1.4460 H     1 <1>   0.0800 
 23 H       -6.7980    -0.5330     0.4240 H     1 <1>   0.0800 
 24 H       -6.8250     3.7060     0.2040 H     1 <1>   0.0800 
 25 H       -5.7180     2.9550     1.3080 H     1 <1>   0.0800 
 26 H       -7.7520     1.6100     0.8580 H     1 <1>   0.0800 
 27 H       -7.3460     1.5240    -0.8230 H     1 <1>   0.0800 
@<TRIPOS>BOND
  1   1   2  2   
  2   2   3  am  
  3   2   4  1   
  4   3   5  1   
  5   3  16  1   
  6   4   6  1   
  7   4   7  2   
  8   5   8  2   
  9   5   9  1   
 10   6  10  ar  
 11   6  11  ar  
 12   7   8  1   
 13   7  17  1   
 14   8  12  1   
 15   9  13  1   
 16   9  18  1   
 17   9  19  1   
 18  12  14  1   
 19  12  20  1   
 20  12  21  1   
 21  13  15  1   
 22  13  22  1   
 23  13  23  1   
 24  14  15  1   
 25  14  24  1   
 26  14  25  1   
 27  15  26  1   
 28  15  27  1   
@<TRIPOS>SUBSTRUCTURE
  1 ****   8 GROUP 4 **** **** 0

# MOE 2024.06 (io_trps.svl 2023.06)
