@<TRIPOS>MOLECULE
3-Fluoro-N-[2-(4-isobutyryl-piperazin-1-yl)-phenyl]-benzamide
51 53 1 0 0 
SMALL
USER_CHARGES


@<TRIPOS>ATOM
  1 F        0.3240     0.2190     0.2330 F     1 <1>  -0.1900 
  2 C        1.4890    -0.2320     0.6130 C.ar  1 <1>   0.1900 
  3 C        2.6280     0.3680     0.1180 C.ar  1 <1>  -0.1500 
  4 C        1.5320    -1.2920     1.4950 C.ar  1 <1>  -0.1500 
  5 C        3.8860    -0.0970     0.5030 C.ar  1 <1>   0.0860 
  6 C        2.7710    -1.7610     1.8940 C.ar  1 <1>  -0.1500 
  7 C        5.0940     0.5170    -0.0200 C.2   1 <1>   0.5440 
  8 C        3.9250    -1.1690     1.4060 C.ar  1 <1>  -0.1500 
  9 O        5.0770     1.6700    -0.4030 O.2   1 <1>  -0.5700 
 10 N        6.2470    -0.2200    -0.0950 N.am  1 <1>  -0.5470 
 11 C        7.5720     0.0430    -0.4750 C.ar  1 <1>   0.1170 
 12 C        8.4480    -1.0520    -0.4550 C.ar  1 <1>   0.1000 
 13 C        8.0460     1.2930    -0.8510 C.ar  1 <1>  -0.1500 
 14 N        7.9740    -2.3230    -0.0730 N.pl3 1 <1>  -0.8380 
 15 C        9.7750    -0.8630    -0.8170 C.ar  1 <1>  -0.1500 
 16 C        9.3720     1.4650    -1.2090 C.ar  1 <1>  -0.1500 
 17 C        8.4400    -2.8700     1.2440 C.3   1 <1>   0.2090 
 18 C        7.7950    -3.3410    -1.1580 C.3   1 <1>   0.2090 
 19 C       10.2370     0.3860    -1.1930 C.ar  1 <1>  -0.1500 
 20 C        9.5980    -3.8720     1.1020 C.3   1 <1>   0.1400 
 21 C        8.9640    -4.3400    -1.2500 C.3   1 <1>   0.1400 
 22 N        9.2800    -4.9250     0.0890 N.am  1 <1>  -0.6600 
 23 C        9.1230    -6.2390     0.4620 C.2   1 <1>   0.5690 
 24 O        9.1610    -6.5590     1.6280 O.2   1 <1>  -0.5700 
 25 C        8.8780    -7.3430    -0.5840 C.3   1 <1>  -0.0190 
 26 C        7.3770    -7.5060    -0.8780 C.3   1 <1>  -0.2400 
 27 C        9.4660    -8.7020    -0.1620 C.3   1 <1>  -0.2400 
 28 H        2.5440     1.1940    -0.5660 H     1 <1>   0.1500 
 29 H        0.6200    -1.7330     1.8580 H     1 <1>   0.1500 
 30 H        2.8350    -2.5840     2.5870 H     1 <1>   0.1500 
 31 H        4.8750    -1.5450     1.7430 H     1 <1>   0.1500 
 32 H        6.1690    -1.2130     0.1360 H     1 <1>   0.3700 
 33 H        7.3860     2.1400    -0.8670 H     1 <1>   0.1500 
 34 H       10.4520    -1.6940    -0.8070 H     1 <1>   0.1500 
 35 H        9.7260     2.4400    -1.5000 H     1 <1>   0.1500 
 36 H        7.6160    -3.3660     1.7270 H     1 <1>   0.0800 
 37 H        8.7510    -2.0590     1.8800 H     1 <1>   0.0800 
 38 H        7.6830    -2.8370    -2.1030 H     1 <1>   0.0800 
 39 H        6.8860    -3.8860    -0.9710 H     1 <1>   0.0800 
 40 H       11.2680     0.5200    -1.4710 H     1 <1>   0.1500 
 41 H        9.8000    -4.3120     2.0620 H     1 <1>   0.0800 
 42 H       10.4860    -3.3480     0.7990 H     1 <1>   0.0800 
 43 H        9.8340    -3.8290    -1.6240 H     1 <1>   0.0800 
 44 H        8.7060    -5.1000    -1.9610 H     1 <1>   0.0800 
 45 H        9.3820    -7.0660    -1.4900 H     1 <1>   0.0800 
 46 H        6.8600    -7.8170     0.0140 H     1 <1>   0.0800 
 47 H        7.2210    -8.2480    -1.6420 H     1 <1>   0.0800 
 48 H        6.9510    -6.5770    -1.2090 H     1 <1>   0.0800 
 49 H        8.9810    -9.0630     0.7290 H     1 <1>   0.0800 
 50 H       10.5170    -8.6000     0.0430 H     1 <1>   0.0800 
 51 H        9.3380    -9.4300    -0.9440 H     1 <1>   0.0800 
@<TRIPOS>BOND
  1   1   2  1   
  2   2   3  ar  
  3   2   4  ar  
  4   3   5  ar  
  5   3  28  1   
  6   4   6  ar  
  7   4  29  1   
  8   5   7  1   
  9   5   8  ar  
 10   6   8  ar  
 11   6  30  1   
 12   7   9  2   
 13   7  10  am  
 14   8  31  1   
 15  10  11  1   
 16  10  32  1   
 17  11  12  ar  
 18  11  13  ar  
 19  12  14  1   
 20  12  15  ar  
 21  13  16  ar  
 22  13  33  1   
 23  14  17  1   
 24  14  18  1   
 25  15  19  ar  
 26  15  34  1   
 27  16  19  ar  
 28  16  35  1   
 29  17  20  1   
 30  17  36  1   
 31  17  37  1   
 32  18  21  1   
 33  18  38  1   
 34  18  39  1   
 35  19  40  1   
 36  20  22  1   
 37  20  41  1   
 38  20  42  1   
 39  21  22  1   
 40  21  43  1   
 41  21  44  1   
 42  22  23  am  
 43  23  24  2   
 44  23  25  1   
 45  25  26  1   
 46  25  27  1   
 47  25  45  1   
 48  26  46  1   
 49  26  47  1   
 50  26  48  1   
 51  27  49  1   
 52  27  50  1   
 53  27  51  1   
@<TRIPOS>SUBSTRUCTURE
  1 ****  14 GROUP 4 **** **** 0

# MOE 2024.06 (io_trps.svl 2023.06)
