@<TRIPOS>MOLECULE
4-Fluoro-N-(4-methoxy-phenyl)-N-(2-oxo-2-piperidin-1-yl-ethyl)-benzenesulfonamid
51 53 1 0 0 
SMALL
USER_CHARGES


@<TRIPOS>ATOM
  1 S        0.4300    -0.3990     0.0090 S.o2  1 <1>   1.4470 
  2 O        1.4210    -1.1350     0.7540 O.2   1 <1>  -0.6500 
  3 O        0.6400    -0.0810    -1.3860 O.2   1 <1>  -0.6500 
  4 N        0.1750     1.1110     0.8250 N.am  1 <1>  -0.6930 
  5 C       -1.1790    -1.2080     0.2410 C.ar  1 <1>  -0.0090 
  6 C       -0.9200     1.9210     0.5340 C.ar  1 <1>   0.1990 
  7 C        1.0810     1.4640     1.9690 C.3   1 <1>   0.2570 
  8 C       -2.2290    -0.9830    -0.6480 C.ar  1 <1>  -0.1500 
  9 C       -1.4080    -2.0430     1.3350 C.ar  1 <1>  -0.1500 
 10 C       -1.1150     2.4370    -0.7430 C.ar  1 <1>  -0.1500 
 11 C       -1.8540     2.2210     1.5200 C.ar  1 <1>  -0.1500 
 12 C        2.5960     1.3670     1.7190 C.2   1 <1>   0.5690 
 13 C       -3.4700    -1.5690    -0.4600 C.ar  1 <1>  -0.1500 
 14 C       -2.6410    -2.6390     1.5390 C.ar  1 <1>  -0.1500 
 15 C       -2.2110     3.2290    -1.0340 C.ar  1 <1>  -0.1500 
 16 C       -2.9510     3.0130     1.2350 C.ar  1 <1>  -0.1500 
 17 O        3.2500     0.8850     2.6170 O.2   1 <1>  -0.5700 
 18 N        3.1940     1.8170     0.5640 N.am  1 <1>  -0.6600 
 19 C       -3.6530    -2.3890     0.6340 C.ar  1 <1>   0.1900 
 20 C       -3.1400     3.5210    -0.0390 C.ar  1 <1>   0.0830 
 21 C        4.5730     1.3790     0.2050 C.3   1 <1>   0.1400 
 22 C        2.5390     2.6720    -0.4660 C.3   1 <1>   0.1400 
 23 F       -4.8180    -2.9450     0.8200 F     1 <1>  -0.1900 
 24 O       -4.2460     4.2880    -0.2330 O.3   1 <1>  -0.3620 
 25 C        5.4560     2.5970    -0.0850 C.3   1 <1>  -0.1600 
 26 C        3.4140     3.8910    -0.7780 C.3   1 <1>  -0.1600 
 27 C       -4.5310     4.8440    -1.4980 C.3   1 <1>   0.0400 
 28 C        4.8400     3.4880    -1.1710 C.3   1 <1>  -0.1600 
 29 H        0.8480     0.8130     2.7920 H     1 <1>   0.0800 
 30 H        0.8740     2.4700     2.2850 H     1 <1>   0.0800 
 31 H       -2.0730    -0.3380    -1.4970 H     1 <1>   0.1500 
 32 H       -0.6080    -2.2290     2.0340 H     1 <1>   0.1500 
 33 H       -0.4010     2.2180    -1.5170 H     1 <1>   0.1500 
 34 H       -1.7280     1.8260     2.5110 H     1 <1>   0.1500 
 35 H       -4.2800    -1.3940    -1.1460 H     1 <1>   0.1500 
 36 H       -2.8180    -3.2850     2.3810 H     1 <1>   0.1500 
 37 H       -2.3250     3.6070    -2.0320 H     1 <1>   0.1500 
 38 H       -3.6740     3.2410     1.9990 H     1 <1>   0.1500 
 39 H        4.5200     0.7510    -0.6670 H     1 <1>   0.0800 
 40 H        5.0090     0.8000     1.0020 H     1 <1>   0.0800 
 41 H        1.5860     3.0240    -0.1190 H     1 <1>   0.0800 
 42 H        2.3850     2.0890    -1.3580 H     1 <1>   0.0800 
 43 H        6.4280     2.2620    -0.3980 H     1 <1>   0.0800 
 44 H        5.5790     3.1580     0.8250 H     1 <1>   0.0800 
 45 H        3.4450     4.5260     0.0910 H     1 <1>   0.0800 
 46 H        2.9650     4.4540    -1.5770 H     1 <1>   0.0800 
 47 H       -5.4460     5.4020    -1.4180 H     1 <1>   0.0800 
 48 H       -4.6510     4.0470    -2.2110 H     1 <1>   0.0800 
 49 H       -3.7270     5.5000    -1.7810 H     1 <1>   0.0800 
 50 H        4.8160     2.9500    -2.1030 H     1 <1>   0.0800 
 51 H        5.4450     4.3680    -1.3070 H     1 <1>   0.0800 
@<TRIPOS>BOND
  1   1   2  2   
  2   1   3  2   
  3   1   4  am  
  4   1   5  1   
  5   4   6  1   
  6   4   7  1   
  7   5   8  ar  
  8   5   9  ar  
  9   6  10  ar  
 10   6  11  ar  
 11   7  12  1   
 12   7  29  1   
 13   7  30  1   
 14   8  13  ar  
 15   8  31  1   
 16   9  14  ar  
 17   9  32  1   
 18  10  15  ar  
 19  10  33  1   
 20  11  16  ar  
 21  11  34  1   
 22  12  17  2   
 23  12  18  am  
 24  13  19  ar  
 25  13  35  1   
 26  14  19  ar  
 27  14  36  1   
 28  15  20  ar  
 29  15  37  1   
 30  16  20  ar  
 31  16  38  1   
 32  18  21  1   
 33  18  22  1   
 34  19  23  1   
 35  20  24  1   
 36  21  25  1   
 37  21  39  1   
 38  21  40  1   
 39  22  26  1   
 40  22  41  1   
 41  22  42  1   
 42  24  27  1   
 43  25  28  1   
 44  25  43  1   
 45  25  44  1   
 46  26  28  1   
 47  26  45  1   
 48  26  46  1   
 49  27  47  1   
 50  27  48  1   
 51  27  49  1   
 52  28  50  1   
 53  28  51  1   
@<TRIPOS>SUBSTRUCTURE
  1 ****   4 GROUP 4 **** **** 0

# MOE 2024.06 (io_trps.svl 2023.06)
