@<TRIPOS>MOLECULE
[4-(3-Bromo-benzoyl)-piperazin-1-yl]-morpholin-4-yl-methanone
43 45 1 0 0 
SMALL
USER_CHARGES


@<TRIPOS>ATOM
  1 BR      -1.0840     0.2720    -1.8170 Br    1 <1>  -0.1110 
  2 C       -1.2540     1.8830    -0.7800 C.ar  1 <1>   0.1110 
  3 C       -0.3830     2.9250    -1.0260 C.ar  1 <1>  -0.1500 
  4 C       -2.2420     1.9520     0.1820 C.ar  1 <1>  -0.1500 
  5 C       -0.4790     4.0990    -0.2800 C.ar  1 <1>   0.0860 
  6 C       -2.3570     3.1170     0.9200 C.ar  1 <1>  -0.1500 
  7 C        0.4250     5.2130    -0.4970 C.2   1 <1>   0.5440 
  8 C       -1.4870     4.1710     0.6860 C.ar  1 <1>  -0.1500 
  9 O       -0.0270     6.3400    -0.5740 O.2   1 <1>  -0.5700 
 10 N        1.7880     5.0370    -0.6070 N.am  1 <1>  -0.6600 
 11 C        2.5340     3.8980     0.0150 C.3   1 <1>   0.1400 
 12 C        2.6850     6.1330    -1.0880 C.3   1 <1>   0.1400 
 13 C        3.4430     4.4020     1.1480 C.3   1 <1>   0.1400 
 14 C        3.5890     6.6370     0.0470 C.3   1 <1>   0.1400 
 15 N        4.3310     5.5040     0.6750 N.am  1 <1>  -0.6600 
 16 C        5.6130     5.2230     0.2840 C.2   1 <1>   0.6900 
 17 O        5.8950     4.0950    -0.0830 O.2   1 <1>  -0.5700 
 18 N        6.5730     6.2000     0.2840 N.am  1 <1>  -0.6600 
 19 C        7.8720     6.0010    -0.4170 C.3   1 <1>   0.1400 
 20 C        6.6120     7.3020     1.2860 C.3   1 <1>   0.1400 
 21 C        8.4110     7.3430    -0.9420 C.3   1 <1>   0.1200 
 22 C        7.2090     8.5730     0.6610 C.3   1 <1>   0.1200 
 23 O        8.4540     8.3010     0.0790 O.3   1 <1>  -0.5600 
 24 H        0.3660     2.8320    -1.7920 H     1 <1>   0.1500 
 25 H       -2.9040     1.1200     0.3450 H     1 <1>   0.1500 
 26 H       -3.1220     3.2060     1.6730 H     1 <1>   0.1500 
 27 H       -1.5850     5.0790     1.2570 H     1 <1>   0.1500 
 28 H        3.1400     3.4180    -0.7340 H     1 <1>   0.0800 
 29 H        1.8570     3.1670     0.4170 H     1 <1>   0.0800 
 30 H        2.1070     6.9530    -1.4780 H     1 <1>   0.0800 
 31 H        3.2990     5.7570    -1.8880 H     1 <1>   0.0800 
 32 H        4.0390     3.5850     1.5190 H     1 <1>   0.0800 
 33 H        2.8370     4.7620     1.9600 H     1 <1>   0.0800 
 34 H        2.9850     7.1260     0.7920 H     1 <1>   0.0800 
 35 H        4.2790     7.3580    -0.3530 H     1 <1>   0.0800 
 36 H        7.7460     5.3190    -1.2390 H     1 <1>   0.0800 
 37 H        8.5820     5.5720     0.2680 H     1 <1>   0.0800 
 38 H        7.2260     6.9980     2.1160 H     1 <1>   0.0800 
 39 H        5.6280     7.5110     1.6640 H     1 <1>   0.0800 
 40 H        7.7880     7.7130    -1.7360 H     1 <1>   0.0800 
 41 H        9.4110     7.2180    -1.3170 H     1 <1>   0.0800 
 42 H        7.3580     9.3240     1.4160 H     1 <1>   0.0800 
 43 H        6.5540     8.9680    -0.0960 H     1 <1>   0.0800 
@<TRIPOS>BOND
  1   1   2  1   
  2   2   3  ar  
  3   2   4  ar  
  4   3   5  ar  
  5   3  24  1   
  6   4   6  ar  
  7   4  25  1   
  8   5   7  1   
  9   5   8  ar  
 10   6   8  ar  
 11   6  26  1   
 12   7   9  2   
 13   7  10  am  
 14   8  27  1   
 15  10  11  1   
 16  10  12  1   
 17  11  13  1   
 18  11  28  1   
 19  11  29  1   
 20  12  14  1   
 21  12  30  1   
 22  12  31  1   
 23  13  15  1   
 24  13  32  1   
 25  13  33  1   
 26  14  15  1   
 27  14  34  1   
 28  14  35  1   
 29  15  16  am  
 30  16  17  2   
 31  16  18  am  
 32  18  19  1   
 33  18  20  1   
 34  19  21  1   
 35  19  36  1   
 36  19  37  1   
 37  20  22  1   
 38  20  38  1   
 39  20  39  1   
 40  21  23  1   
 41  21  40  1   
 42  21  41  1   
 43  22  23  1   
 44  22  42  1   
 45  22  43  1   
@<TRIPOS>SUBSTRUCTURE
  1 ****  11 GROUP 4 **** **** 0

# MOE 2024.06 (io_trps.svl 2023.06)
