@<TRIPOS>MOLECULE
NONAME
49 53 1 0 0 
SMALL
USER_CHARGES


@<TRIPOS>ATOM
  1 O        0.9150     1.3460    -0.9300 O.2   1 <1>  -0.5700 
  2 C        0.6210     2.2300    -0.1690 C.2   1 <1>   0.5690 
  3 N        1.4770     3.0320     0.5480 N.am  1 <1>  -0.4200 
  4 C       -0.7750     2.6270     0.2200 C.3   1 <1>  -0.0190 
  5 C        0.7960     4.0890     1.1060 C.2   1 <1>   0.5690 
  6 C        2.9280     2.7920     0.6920 C.3   1 <1>   0.1400 
  7 C       -2.1930     2.4090    -0.3710 C.3   1 <1>   0.1530 
  8 C       -0.5550     4.1330     0.4470 C.3   1 <1>  -0.0190 
  9 O        1.2100     4.8840     1.9090 O.2   1 <1>  -0.5700 
 10 C        3.6910     3.4630    -0.4510 C.3   1 <1>  -0.0170 
 11 C       -3.0290     2.6420     0.8970 C.2   1 <1>  -0.2880 
 12 C       -2.5700     3.5820    -1.3310 C.3   1 <1>  -0.1950 
 13 C       -1.9160     4.8140     0.7740 C.3   1 <1>   0.1530 
 14 C        5.1730     3.1530    -0.3340 C.ar  1 <1>  -0.1440 
 15 C       -2.8500     3.8310     1.4950 C.2   1 <1>  -0.2880 
 16 C       -2.5340     4.9460    -0.6560 C.3   1 <1>  -0.1950 
 17 C       -3.8210     4.4020    -1.2210 C.3   1 <1>  -0.2000 
 18 C        5.9970     3.9540     0.4370 C.ar  1 <1>  -0.1500 
 19 C        5.7150     2.0630    -0.9920 C.ar  1 <1>  -0.1500 
 20 C        7.3500     3.6860     0.5590 C.ar  1 <1>   0.0830 
 21 C        7.0630     1.7730    -0.8750 C.ar  1 <1>  -0.1500 
 22 O        8.0420     4.5640     1.3400 O.3   1 <1>  -0.3620 
 23 C        7.8990     2.5700    -0.0950 C.ar  1 <1>   0.0830 
 24 C        9.3690     4.9210     1.0220 C.3   1 <1>   0.0400 
 25 O        9.2240     2.2740     0.0570 O.3   1 <1>  -0.3630 
 26 C        9.7770     1.0640    -0.4100 C.3   1 <1>   0.0400 
 27 H       -0.8220     2.1500     1.1880 H     1 <1>   0.0800 
 28 H        3.1140     1.7320     0.6780 H     1 <1>   0.0800 
 29 H        3.2660     3.1840     1.6360 H     1 <1>   0.0800 
 30 H       -2.3420     1.4290    -0.7890 H     1 <1>   0.0800 
 31 H       -0.2610     4.5670    -0.4960 H     1 <1>   0.0800 
 32 H        3.5420     4.5280    -0.4100 H     1 <1>   0.0800 
 33 H        3.3220     3.1020    -1.3950 H     1 <1>   0.0800 
 34 H       -3.6700     1.8380     1.2180 H     1 <1>   0.1500 
 35 H       -2.1020     3.4970    -2.2970 H     1 <1>   0.1000 
 36 H       -1.8170     5.7650     1.2690 H     1 <1>   0.0800 
 37 H       -3.3170     4.1800     2.4000 H     1 <1>   0.1500 
 38 H       -2.1130     5.7740    -1.2020 H     1 <1>   0.1000 
 39 H       -4.6130     4.1160    -0.5500 H     1 <1>   0.1000 
 40 H       -4.2130     4.8500    -2.1170 H     1 <1>   0.1000 
 41 H        5.5960     4.8060     0.9570 H     1 <1>   0.1500 
 42 H        5.0880     1.4310    -1.5980 H     1 <1>   0.1500 
 43 H        7.4380     0.9180    -1.4020 H     1 <1>   0.1500 
 44 H        9.5820     5.8650     1.4880 H     1 <1>   0.0800 
 45 H        9.4650     5.0050    -0.0460 H     1 <1>   0.0800 
 46 H       10.0320     4.1670     1.4070 H     1 <1>   0.0800 
 47 H       10.8070     1.0270    -0.1020 H     1 <1>   0.0800 
 48 H        9.7180     1.0430    -1.4840 H     1 <1>   0.0800 
 49 H        9.2370     0.2420     0.0240 H     1 <1>   0.0800 
@<TRIPOS>BOND
  1   1   2  2   
  2   2   3  am  
  3   2   4  1   
  4   3   5  am  
  5   3   6  1   
  6   4   7  1   
  7   4   8  1   
  8   4  27  1   
  9   5   8  1   
 10   5   9  2   
 11   6  10  1   
 12   6  28  1   
 13   6  29  1   
 14   7  11  1   
 15   7  12  1   
 16   7  30  1   
 17   8  13  1   
 18   8  31  1   
 19  10  14  1   
 20  10  32  1   
 21  10  33  1   
 22  11  15  2   
 23  11  34  1   
 24  12  16  1   
 25  12  17  1   
 26  12  35  1   
 27  13  15  1   
 28  13  16  1   
 29  13  36  1   
 30  14  18  ar  
 31  14  19  ar  
 32  15  37  1   
 33  16  17  1   
 34  16  38  1   
 35  17  39  1   
 36  17  40  1   
 37  18  20  ar  
 38  18  41  1   
 39  19  21  ar  
 40  19  42  1   
 41  20  22  1   
 42  20  23  ar  
 43  21  23  ar  
 44  21  43  1   
 45  22  24  1   
 46  23  25  1   
 47  24  44  1   
 48  24  45  1   
 49  24  46  1   
 50  25  26  1   
 51  26  47  1   
 52  26  48  1   
 53  26  49  1   
@<TRIPOS>SUBSTRUCTURE
  1 ****   6 GROUP 4 **** **** 0

# MOE 2024.06 (io_trps.svl 2023.06)
