@<TRIPOS>MOLECULE
N-(3-Acetyl-phenyl)-N-[2-(4-methyl-piperazin-1-yl)-2-oxo-ethyl]-methanesulfonami
48 49 1 0 0 
SMALL
USER_CHARGES


@<TRIPOS>ATOM
  1 S        0.6980     0.9480    -1.3560 S.o2  1 <1>   1.3330 
  2 O        1.7600     0.1650    -0.7760 O.2   1 <1>  -0.6500 
  3 O        1.0200     1.9000    -2.3930 O.2   1 <1>  -0.6500 
  4 N       -0.0300     1.8820    -0.0950 N.am  1 <1>  -0.6930 
  5 C       -0.5950    -0.1530    -1.8960 C.3   1 <1>  -0.1350 
  6 C       -1.3860     2.1680    -0.1430 C.ar  1 <1>   0.1990 
  7 C        0.8250     2.9620     0.4950 C.3   1 <1>   0.2570 
  8 C       -2.2460     1.6060     0.7860 C.ar  1 <1>  -0.1500 
  9 C       -1.9040     3.0150    -1.1140 C.ar  1 <1>  -0.1500 
 10 C        2.0960     2.4870     1.2170 C.2   1 <1>   0.5690 
 11 C       -3.6190     1.8540     0.7790 C.ar  1 <1>   0.0860 
 12 C       -3.2580     3.2850    -1.1490 C.ar  1 <1>  -0.1500 
 13 O        1.9990     2.2630     2.4010 O.2   1 <1>  -0.5700 
 14 N        3.3130     2.3400     0.5830 N.am  1 <1>  -0.6600 
 15 C       -4.4770     1.2290     1.7680 C.2   1 <1>   0.4230 
 16 C       -4.1020     2.7110    -0.2160 C.ar  1 <1>  -0.1500 
 17 C        3.6140     2.7490    -0.8290 C.3   1 <1>   0.1400 
 18 C        4.3300     1.4220     1.1910 C.3   1 <1>   0.1400 
 19 O       -4.1100     0.3290     2.4760 O.2   1 <1>  -0.5700 
 20 C       -5.9070     1.6980     1.9510 C.3   1 <1>  -0.1790 
 21 C        5.0640     3.2450    -0.9830 C.3   1 <1>   0.3430 
 22 C        5.7640     1.9420     0.9980 C.3   1 <1>   0.3430 
 23 N        6.0570     2.2520    -0.4450 N.4   1 <1>  -0.9590 
 24 C        7.4610     2.7300    -0.6240 C.3   1 <1>   0.2630 
 25 H       -0.2260    -0.8040    -2.6640 H     1 <1>   0.0800 
 26 H       -1.4250     0.4010    -2.2890 H     1 <1>   0.0800 
 27 H       -0.9360    -0.7530    -1.0740 H     1 <1>   0.0800 
 28 H        0.2380     3.4950     1.2220 H     1 <1>   0.0800 
 29 H        1.0770     3.6660    -0.2740 H     1 <1>   0.0800 
 30 H       -1.8340     0.9550     1.5380 H     1 <1>   0.1500 
 31 H       -1.2470     3.4590    -1.8420 H     1 <1>   0.1500 
 32 H       -3.6550     3.9420    -1.9050 H     1 <1>   0.1500 
 33 H       -5.1520     2.9370    -0.2730 H     1 <1>   0.1500 
 34 H        2.9500     3.5300    -1.1510 H     1 <1>   0.0800 
 35 H        3.4720     1.9060    -1.4820 H     1 <1>   0.0800 
 36 H        4.2300     0.4490     0.7390 H     1 <1>   0.0800 
 37 H        4.1500     1.3020     2.2460 H     1 <1>   0.0800 
 38 H       -5.9370     2.7670     2.0570 H     1 <1>   0.0800 
 39 H       -6.3240     1.2560     2.8380 H     1 <1>   0.0800 
 40 H       -6.5020     1.3980     1.1080 H     1 <1>   0.0800 
 41 H        5.1640     4.1800    -0.4560 H     1 <1>   0.0800 
 42 H        5.2600     3.4310    -2.0260 H     1 <1>   0.0800 
 43 H        6.4550     1.2000     1.3630 H     1 <1>   0.0800 
 44 H        5.8860     2.8300     1.5950 H     1 <1>   0.0800 
 45 H        5.9290     1.3760    -0.9750 H     1 <1>   0.4500 
 46 H        7.6180     3.6450    -0.0760 H     1 <1>   0.0800 
 47 H        7.6640     2.9130    -1.6670 H     1 <1>   0.0800 
 48 H        8.1570     1.9890    -0.2650 H     1 <1>   0.0800 
@<TRIPOS>BOND
  1   1   2  2   
  2   1   3  2   
  3   1   4  am  
  4   1   5  1   
  5   4   6  1   
  6   4   7  1   
  7   5  25  1   
  8   5  26  1   
  9   5  27  1   
 10   6   8  ar  
 11   6   9  ar  
 12   7  10  1   
 13   7  28  1   
 14   7  29  1   
 15   8  11  ar  
 16   8  30  1   
 17   9  12  ar  
 18   9  31  1   
 19  10  13  2   
 20  10  14  am  
 21  11  15  1   
 22  11  16  ar  
 23  12  16  ar  
 24  12  32  1   
 25  14  17  1   
 26  14  18  1   
 27  15  19  2   
 28  15  20  1   
 29  16  33  1   
 30  17  21  1   
 31  17  34  1   
 32  17  35  1   
 33  18  22  1   
 34  18  36  1   
 35  18  37  1   
 36  20  38  1   
 37  20  39  1   
 38  20  40  1   
 39  21  23  1   
 40  21  41  1   
 41  21  42  1   
 42  22  23  1   
 43  22  43  1   
 44  22  44  1   
 45  23  24  1   
 46  23  45  1   
 47  24  46  1   
 48  24  47  1   
 49  24  48  1   
@<TRIPOS>SUBSTRUCTURE
  1 ****   4 GROUP 4 **** **** 0

# MOE 2024.06 (io_trps.svl 2023.06)
