@<TRIPOS>MOLECULE
8-Amino-7-(2-hydroxy-3-p-tolyloxy-propyl)-1,3-dimethyl-3,7-dihydro-purine-2,6-di
48 50 1 0 0 
SMALL
USER_CHARGES


@<TRIPOS>ATOM
  1 O        6.6800     0.4480     1.8960 O.2   1 <1>  -0.5750 
  2 C        6.2740     1.2930     1.1230 C.2   1 <1>   0.6860 
  3 N        5.4130     2.2900     1.5720 N.am  1 <1>  -0.4260 
  4 N        6.6650     1.2580    -0.2090 N.am  1 <1>  -0.4420 
  5 C        4.9930     3.3080     0.7270 C.2   1 <1>   0.6990 
  6 C        5.0090     2.3010     3.0120 C.3   1 <1>   0.0520 
  7 C        6.2300     2.2730    -1.0390 C.2   1 <1>   0.4200 
  8 C        7.6120     0.2150    -0.6980 C.3   1 <1>   0.0520 
  9 O        4.3010     4.2230     1.1490 O.2   1 <1>  -0.5750 
 10 C        5.4060     3.2660    -0.6440 C.2   1 <1>   0.2700 
 11 N        6.5460     2.4660    -2.3500 N.pl3 1 <1>  -0.7040 
 12 N        5.1920     4.0800    -1.7760 N.pl3 1 <1>  -0.7680 
 13 C        5.9460     3.5780    -2.7460 C.cat 1 <1>   1.0690 
 14 C        4.3080     5.2900    -1.8100 C.3   1 <1>   0.3480 
 15 N        6.0960     4.1080    -3.9350 N.pl3 1 <1>  -0.8400 
 16 C        5.0560     6.6390    -1.9320 C.3   1 <1>   0.1920 
 17 O        5.6270     6.7550    -3.2050 O.3   1 <1>  -0.6840 
 18 C        6.1250     6.8370    -0.8380 C.3   1 <1>   0.1120 
 19 O        7.3240     6.1570    -1.1850 O.3   1 <1>  -0.3690 
 20 C        7.9390     5.2580    -0.3770 C.ar  1 <1>   0.0740 
 21 C        7.6790     5.1110     0.9820 C.ar  1 <1>  -0.1580 
 22 C        8.8680     4.4270    -0.9830 C.ar  1 <1>  -0.1580 
 23 C        8.2990     4.1030     1.6980 C.ar  1 <1>  -0.1580 
 24 C        9.4890     3.4240    -0.2620 C.ar  1 <1>  -0.1580 
 25 C        9.1940     3.2470     1.0800 C.ar  1 <1>  -0.1510 
 26 C        9.8590     2.1430     1.8820 C.3   1 <1>  -0.1050 
 27 H        5.7870     2.7570     3.5990 H     1 <1>   0.0720 
 28 H        4.8550     1.2940     3.3620 H     1 <1>   0.0720 
 29 H        4.0940     2.8490     3.1520 H     1 <1>   0.0720 
 30 H        7.5880    -0.6510    -0.0580 H     1 <1>   0.0720 
 31 H        8.6130     0.6110    -0.7020 H     1 <1>   0.0720 
 32 H        7.3440    -0.0980    -1.6910 H     1 <1>   0.0720 
 33 H        7.1990     1.9130    -2.8930 H     1 <1>   0.4440 
 34 H        3.7080     5.3180    -0.9180 H     1 <1>   0.0720 
 35 H        3.6210     5.2030    -2.6350 H     1 <1>   0.0720 
 36 H        5.8180     5.0950    -4.0430 H     1 <1>   0.4440 
 37 H        6.7160     3.7540    -4.6570 H     1 <1>   0.4440 
 38 H        4.3290     7.4280    -1.8410 H     1 <1>   0.0720 
 39 H        6.2350     7.5280    -3.2190 H     1 <1>   0.3940 
 40 H        5.7370     6.4850     0.0970 H     1 <1>   0.0720 
 41 H        6.3660     7.8800    -0.7340 H     1 <1>   0.0720 
 42 H        7.0120     5.7660     1.5090 H     1 <1>   0.1420 
 43 H        9.1060     4.5720    -2.0200 H     1 <1>   0.1420 
 44 H        8.0900     3.9880     2.7490 H     1 <1>   0.1420 
 45 H       10.2110     2.7870    -0.7430 H     1 <1>   0.1420 
 46 H        9.1450     1.6720     2.5320 H     1 <1>   0.0720 
 47 H       10.6510     2.5560     2.4810 H     1 <1>   0.0720 
 48 H       10.2730     1.3930     1.2340 H     1 <1>   0.0720 
@<TRIPOS>BOND
  1   1   2  2   
  2   2   3  am  
  3   2   4  am  
  4   3   5  am  
  5   3   6  1   
  6   4   7  1   
  7   4   8  1   
  8   5   9  2   
  9   5  10  1   
 10   6  27  1   
 11   6  28  1   
 12   6  29  1   
 13   7  10  2   
 14   7  11  1   
 15   8  30  1   
 16   8  31  1   
 17   8  32  1   
 18  10  12  1   
 19  11  13  ar  
 20  11  33  1   
 21  12  13  ar  
 22  12  14  1   
 23  13  15  ar  
 24  14  16  1   
 25  14  34  1   
 26  14  35  1   
 27  15  36  1   
 28  15  37  1   
 29  16  17  1   
 30  16  18  1   
 31  16  38  1   
 32  17  39  1   
 33  18  19  1   
 34  18  40  1   
 35  18  41  1   
 36  19  20  1   
 37  20  21  ar  
 38  20  22  ar  
 39  21  23  ar  
 40  21  42  1   
 41  22  24  ar  
 42  22  43  1   
 43  23  25  ar  
 44  23  44  1   
 45  24  25  ar  
 46  24  45  1   
 47  25  26  1   
 48  26  46  1   
 49  26  47  1   
 50  26  48  1   
@<TRIPOS>SUBSTRUCTURE
  1 ****  10 GROUP 4 **** **** 0

# MOE 2024.06 (io_trps.svl 2023.06)
