@<TRIPOS>MOLECULE
3-[2-(4-tert-Butyl-2,6-dimethyl-phenyl)-2-oxo-ethyl]-3-hydroxy-1,3-dihydro-indol
51 53 1 0 0 
SMALL
USER_CHARGES


@<TRIPOS>ATOM
  1 O       -0.3840    -0.6570    -1.6530 O.2   1 <1>  -0.5700 
  2 C       -1.3430    -0.0920    -1.1800 C.2   1 <1>   0.5690 
  3 N       -2.2270    -0.6730    -0.3310 N.am  1 <1>  -0.5470 
  4 C       -1.7690     1.3750    -1.4420 C.3   1 <1>   0.4850 
  5 C       -3.1930     0.2350     0.0740 C.ar  1 <1>   0.1170 
  6 O       -2.2300     1.5630    -2.7450 O.3   1 <1>  -0.6800 
  7 C       -2.9960     1.4590    -0.5380 C.ar  1 <1>  -0.1430 
  8 C       -0.6840     2.4270    -1.1850 C.3   1 <1>  -0.0990 
  9 C       -4.2450     0.0440     0.9550 C.ar  1 <1>  -0.1500 
 10 C       -3.8540     2.5160    -0.2920 C.ar  1 <1>  -0.1500 
 11 C        0.0630     2.2640     0.1260 C.2   1 <1>   0.4230 
 12 C       -5.1040     1.1010     1.2070 C.ar  1 <1>  -0.1500 
 13 C       -4.9110     2.3290     0.5870 C.ar  1 <1>  -0.1500 
 14 O       -0.4650     1.7060     1.0520 O.2   1 <1>  -0.5700 
 15 C        1.3820     2.8480     0.2040 C.ar  1 <1>   0.0860 
 16 C        2.5120     2.1600    -0.2520 C.ar  1 <1>  -0.1430 
 17 C        1.5640     4.1340     0.7240 C.ar  1 <1>  -0.1430 
 18 C        3.7590     2.7580    -0.2130 C.ar  1 <1>  -0.1500 
 19 C        2.4010     0.7390    -0.7920 C.3   1 <1>  -0.0970 
 20 C        2.8210     4.7120     0.7550 C.ar  1 <1>  -0.1500 
 21 C        0.3790     4.9220     1.2740 C.3   1 <1>  -0.0970 
 22 C        3.9440     4.0420     0.2830 C.ar  1 <1>  -0.1430 
 23 C        5.3620     4.6560     0.2940 C.3   1 <1>   0.1440 
 24 C        5.9060     4.7190    -1.1410 C.3   1 <1>  -0.2400 
 25 C        5.4030     6.0830     0.8660 C.3   1 <1>  -0.2400 
 26 C        6.2910     3.7860     1.1550 C.3   1 <1>  -0.2400 
 27 H       -2.0640    -1.5950     0.0700 H     1 <1>   0.3700 
 28 H       -2.9790     0.9550    -2.8920 H     1 <1>   0.4000 
 29 H       -1.1320     3.4010    -1.2010 H     1 <1>   0.0800 
 30 H        0.0320     2.3710    -1.9840 H     1 <1>   0.0800 
 31 H       -4.3860    -0.9080     1.4310 H     1 <1>   0.1500 
 32 H       -3.7060     3.4660    -0.7740 H     1 <1>   0.1500 
 33 H       -5.9270     0.9720     1.8900 H     1 <1>   0.1500 
 34 H       -5.5870     3.1420     0.7910 H     1 <1>   0.1500 
 35 H        4.6060     2.2070    -0.5770 H     1 <1>   0.1500 
 36 H        1.9510     0.7450    -1.7680 H     1 <1>   0.0800 
 37 H        1.8030     0.1330    -0.1350 H     1 <1>   0.0800 
 38 H        3.3690     0.2790    -0.8710 H     1 <1>   0.0800 
 39 H        2.9080     5.7020     1.1580 H     1 <1>   0.1500 
 40 H       -0.1480     4.3350     2.0060 H     1 <1>   0.0800 
 41 H       -0.2980     5.1790     0.4800 H     1 <1>   0.0800 
 42 H        0.7040     5.8300     1.7490 H     1 <1>   0.0800 
 43 H        5.2430     5.2970    -1.7600 H     1 <1>   0.0800 
 44 H        5.9930     3.7370    -1.5680 H     1 <1>   0.0800 
 45 H        6.8790     5.1770    -1.1600 H     1 <1>   0.0800 
 46 H        5.0610     6.0910     1.8860 H     1 <1>   0.0800 
 47 H        4.7850     6.7420     0.2830 H     1 <1>   0.0800 
 48 H        6.4070     6.4680     0.8500 H     1 <1>   0.0800 
 49 H        7.2750     4.2170     1.2070 H     1 <1>   0.0800 
 50 H        5.8980     3.7060     2.1530 H     1 <1>   0.0800 
 51 H        6.3830     2.7960     0.7490 H     1 <1>   0.0800 
@<TRIPOS>BOND
  1   1   2  2   
  2   2   3  am  
  3   2   4  1   
  4   3   5  1   
  5   3  27  1   
  6   4   6  1   
  7   4   7  1   
  8   4   8  1   
  9   5   7  ar  
 10   5   9  ar  
 11   6  28  1   
 12   7  10  ar  
 13   8  11  1   
 14   8  29  1   
 15   8  30  1   
 16   9  12  ar  
 17   9  31  1   
 18  10  13  ar  
 19  10  32  1   
 20  11  14  2   
 21  11  15  1   
 22  12  13  ar  
 23  12  33  1   
 24  13  34  1   
 25  15  16  ar  
 26  15  17  ar  
 27  16  18  ar  
 28  16  19  1   
 29  17  20  ar  
 30  17  21  1   
 31  18  22  ar  
 32  18  35  1   
 33  19  36  1   
 34  19  37  1   
 35  19  38  1   
 36  20  22  ar  
 37  20  39  1   
 38  21  40  1   
 39  21  41  1   
 40  21  42  1   
 41  22  23  1   
 42  23  24  1   
 43  23  25  1   
 44  23  26  1   
 45  24  43  1   
 46  24  44  1   
 47  24  45  1   
 48  25  46  1   
 49  25  47  1   
 50  25  48  1   
 51  26  49  1   
 52  26  50  1   
 53  26  51  1   
@<TRIPOS>SUBSTRUCTURE
  1 ****  11 GROUP 4 **** **** 0

# MOE 2024.06 (io_trps.svl 2023.06)
