@<TRIPOS>MOLECULE
4-(2-Methoxy-phenyl)-2-oxo-6-piperidin-1-ylmethyl-1,2,3,4-tetrahydro-pyrimidine-
55 57 1 0 0 
SMALL
USER_CHARGES


@<TRIPOS>ATOM
  1 O        0.4770     1.0540     2.0950 O.2   1 <1>  -0.5700 
  2 C        0.1580     2.1210     1.6280 C.2   1 <1>   0.6900 
  3 N       -0.7610     2.1660     0.6340 N.am  1 <1>  -0.5390 
  4 N        0.7030     3.2650     2.0650 N.am  1 <1>  -0.7300 
  5 C       -1.1160     3.3280    -0.0390 C.2   1 <1>  -0.0290 
  6 C        0.5780     4.5470     1.3470 C.3   1 <1>   0.5020 
  7 C       -0.5340     4.5180     0.2880 C.2   1 <1>  -0.1240 
  8 C       -2.1670     3.1470    -1.1340 C.3   1 <1>   0.4810 
  9 C        1.9500     4.9160     0.7830 C.ar  1 <1>  -0.1440 
 10 C       -0.8530     5.8040    -0.2560 C.2   1 <1>   0.7060 
 11 N       -3.5020     2.9530    -0.5040 N.4   1 <1>  -0.9590 
 12 C        2.5270     4.2400    -0.2920 C.ar  1 <1>   0.0830 
 13 C        2.6490     5.9640     1.3690 C.ar  1 <1>  -0.1500 
 14 O       -1.7600     5.9680    -1.0500 O.2   1 <1>  -0.5700 
 15 O       -0.1770     6.8760     0.1610 O.3   1 <1>  -0.4300 
 16 C       -4.4650     2.3370    -1.4590 C.3   1 <1>   0.3430 
 17 C       -4.0160     4.2460     0.0380 C.3   1 <1>   0.3430 
 18 O        1.8580     3.2100    -0.8640 O.3   1 <1>  -0.3620 
 19 C        3.7760     4.6260    -0.7680 C.ar  1 <1>  -0.1500 
 20 C        3.8940     6.3400     0.8960 C.ar  1 <1>  -0.1500 
 21 C       -0.3970     8.1620    -0.3730 C.3   1 <1>   0.1200 
 22 C       -5.7870     2.0530    -0.7430 C.3   1 <1>  -0.1600 
 23 C       -5.3310     4.0080     0.7820 C.3   1 <1>  -0.1600 
 24 C        2.5750     2.0560    -1.2490 C.3   1 <1>   0.0400 
 25 C        4.4570     5.6710    -0.1740 C.ar  1 <1>  -0.1500 
 26 C        0.6040     9.1120     0.2740 C.3   1 <1>  -0.2400 
 27 C       -6.3730     3.3220    -0.1110 C.3   1 <1>  -0.1600 
 28 H       -1.0430     1.2270     0.3490 H     1 <1>   0.3700 
 29 H        1.5350     3.1670     2.6450 H     1 <1>   0.3700 
 30 H        0.3040     5.2830     2.0840 H     1 <1>   0.0800 
 31 H       -1.9040     2.2800    -1.7160 H     1 <1>   0.0800 
 32 H       -2.1900     3.9900    -1.8030 H     1 <1>   0.0800 
 33 H       -3.3730     2.3210     0.2940 H     1 <1>   0.4500 
 34 H        2.2310     6.5040     2.2010 H     1 <1>   0.1500 
 35 H       -4.0650     1.4160    -1.8500 H     1 <1>   0.0800 
 36 H       -4.6420     3.0100    -2.2830 H     1 <1>   0.0800 
 37 H       -4.1750     4.9440    -0.7690 H     1 <1>   0.0800 
 38 H       -3.2960     4.6770     0.7150 H     1 <1>   0.0800 
 39 H        4.2240     4.1250    -1.6060 H     1 <1>   0.1500 
 40 H        4.4240     7.1540     1.3600 H     1 <1>   0.1500 
 41 H       -1.4090     8.4580    -0.1570 H     1 <1>   0.0800 
 42 H       -0.2490     8.1200    -1.4400 H     1 <1>   0.0800 
 43 H       -5.6320     1.3030     0.0130 H     1 <1>   0.0800 
 44 H       -6.4920     1.6530    -1.4520 H     1 <1>   0.0800 
 45 H       -5.7190     4.9530     1.1200 H     1 <1>   0.0800 
 46 H       -5.1430     3.4080     1.6560 H     1 <1>   0.0800 
 47 H        3.1130     2.2600    -2.1580 H     1 <1>   0.0800 
 48 H        1.8710     1.2610    -1.4130 H     1 <1>   0.0800 
 49 H        3.2520     1.7840    -0.4570 H     1 <1>   0.0800 
 50 H        5.4240     5.9660    -0.5450 H     1 <1>   0.1500 
 51 H        0.4550     9.1450     1.3380 H     1 <1>   0.0800 
 52 H        0.4700    10.1040    -0.1200 H     1 <1>   0.0800 
 53 H        1.6090     8.7940     0.0600 H     1 <1>   0.0800 
 54 H       -7.2470     3.0730     0.4700 H     1 <1>   0.0800 
 55 H       -6.6810     4.0020    -0.8880 H     1 <1>   0.0800 
@<TRIPOS>BOND
  1   1   2  2   
  2   2   3  am  
  3   2   4  am  
  4   3   5  1   
  5   3  28  1   
  6   4   6  1   
  7   4  29  1   
  8   5   7  2   
  9   5   8  1   
 10   6   7  1   
 11   6   9  1   
 12   6  30  1   
 13   7  10  1   
 14   8  11  1   
 15   8  31  1   
 16   8  32  1   
 17   9  12  ar  
 18   9  13  ar  
 19  10  14  2   
 20  10  15  1   
 21  11  16  1   
 22  11  17  1   
 23  11  33  1   
 24  12  18  1   
 25  12  19  ar  
 26  13  20  ar  
 27  13  34  1   
 28  15  21  1   
 29  16  22  1   
 30  16  35  1   
 31  16  36  1   
 32  17  23  1   
 33  17  37  1   
 34  17  38  1   
 35  18  24  1   
 36  19  25  ar  
 37  19  39  1   
 38  20  25  ar  
 39  20  40  1   
 40  21  26  1   
 41  21  41  1   
 42  21  42  1   
 43  22  27  1   
 44  22  43  1   
 45  22  44  1   
 46  23  27  1   
 47  23  45  1   
 48  23  46  1   
 49  24  47  1   
 50  24  48  1   
 51  24  49  1   
 52  25  50  1   
 53  26  51  1   
 54  26  52  1   
 55  26  53  1   
 56  27  54  1   
 57  27  55  1   
@<TRIPOS>SUBSTRUCTURE
  1 ****   7 GROUP 4 **** **** 0

# MOE 2024.06 (io_trps.svl 2023.06)
