@<TRIPOS>MOLECULE
2,6-Dimethoxy-N-(2-propyl-2H-tetrazol-5-yl)-benzamide
38 39 1 0 0 
SMALL
USER_CHARGES


@<TRIPOS>ATOM
  1 O        0.0060    -1.0490    -1.8600 O.2   1 <1>  -0.5700 
  2 C       -0.1240    -1.6350    -0.8020 C.2   1 <1>   0.5440 
  3 N       -1.3530    -1.7160    -0.2110 N.am  1 <1>  -0.4930 
  4 C        0.9990    -2.2890    -0.1700 C.ar  1 <1>   0.0860 
  5 C       -2.5660    -1.1400    -0.5460 C.2   1 <1>   0.5790 
  6 C        2.1370    -1.5640     0.2110 C.ar  1 <1>   0.0830 
  7 C        0.9780    -3.6690     0.0810 C.ar  1 <1>   0.0830 
  8 N       -2.7400    -0.0940    -1.3530 N.2   1 <1>  -0.2270 
  9 N       -3.6430    -1.6030    -0.0370 N.2   1 <1>  -0.7070 
 10 O        2.1230    -0.2210     0.0280 O.3   1 <1>  -0.3630 
 11 C        3.2310    -2.2100     0.7790 C.ar  1 <1>  -0.1500 
 12 O       -0.1450    -4.3550    -0.2480 O.3   1 <1>  -0.3630 
 13 C        2.0790    -4.3010     0.6520 C.ar  1 <1>  -0.1500 
 14 N       -3.9960     0.1260    -1.3720 N.2   1 <1>  -0.4180 
 15 N       -4.5290    -0.7870    -0.5800 N.pl3 1 <1>   0.5800 
 16 C        3.2780     0.5800     0.1320 C.3   1 <1>   0.0400 
 17 C        3.2020    -3.5740     0.9940 C.ar  1 <1>  -0.1500 
 18 C       -0.2130    -5.7650    -0.2320 C.3   1 <1>   0.0400 
 19 C       -5.9780    -0.8900    -0.3250 C.3   1 <1>   0.0960 
 20 C       -6.3780    -0.1290     0.9500 C.3   1 <1>  -0.1600 
 21 C       -7.8850    -0.2320     1.2130 C.3   1 <1>  -0.2400 
 22 H       -1.4590    -2.4440     0.4860 H     1 <1>   0.3700 
 23 H        4.1110    -1.6670     1.0660 H     1 <1>   0.1500 
 24 H        2.0820    -5.3580     0.8420 H     1 <1>   0.1500 
 25 H        3.0160     1.5780    -0.1690 H     1 <1>   0.0800 
 26 H        4.0340     0.1880    -0.5250 H     1 <1>   0.0800 
 27 H        3.6130     0.5810     1.1540 H     1 <1>   0.0800 
 28 H        4.0520    -4.0680     1.4330 H     1 <1>   0.1500 
 29 H       -1.1750    -6.0570    -0.6140 H     1 <1>   0.0800 
 30 H       -0.1030    -6.1100     0.7810 H     1 <1>   0.0800 
 31 H        0.5650    -6.1600    -0.8620 H     1 <1>   0.0800 
 32 H       -6.2260    -1.9310    -0.2290 H     1 <1>   0.0800 
 33 H       -6.4980    -0.4890    -1.1750 H     1 <1>   0.0800 
 34 H       -6.1080     0.9090     0.8450 H     1 <1>   0.0800 
 35 H       -5.8430    -0.5360     1.7910 H     1 <1>   0.0800 
 36 H       -8.4430     0.1890     0.3940 H     1 <1>   0.0800 
 37 H       -8.1380     0.3080     2.1090 H     1 <1>   0.0800 
 38 H       -8.1770    -1.2600     1.3420 H     1 <1>   0.0800 
@<TRIPOS>BOND
  1   1   2  2   
  2   2   3  am  
  3   2   4  1   
  4   3   5  1   
  5   3  22  1   
  6   4   6  ar  
  7   4   7  ar  
  8   5   8  1   
  9   5   9  2   
 10   6  10  1   
 11   6  11  ar  
 12   7  12  1   
 13   7  13  ar  
 14   8  14  2   
 15   9  15  1   
 16  10  16  1   
 17  11  17  ar  
 18  11  23  1   
 19  12  18  1   
 20  13  17  ar  
 21  13  24  1   
 22  14  15  1   
 23  15  19  1   
 24  16  25  1   
 25  16  26  1   
 26  16  27  1   
 27  17  28  1   
 28  18  29  1   
 29  18  30  1   
 30  18  31  1   
 31  19  20  1   
 32  19  32  1   
 33  19  33  1   
 34  20  21  1   
 35  20  34  1   
 36  20  35  1   
 37  21  36  1   
 38  21  37  1   
 39  21  38  1   
@<TRIPOS>SUBSTRUCTURE
  1 ****   3 GROUP 4 **** **** 0

# MOE 2024.06 (io_trps.svl 2023.06)
