@<TRIPOS>MOLECULE
N*1*-(2,2-Dimethyl-5-morpholin-4-yl-1,4-dihydro-2H-3-oxa-7-thia-6,9,11-triaza-be
56 60 1 0 0 
SMALL
USER_CHARGES


@<TRIPOS>ATOM
  1 S       -0.5550    -0.4260    -0.4850 S.3   1 <1>  -0.0800 
  2 C       -2.0390     0.4920    -0.2180 C.ar  1 <1>   0.2970 
  3 C        0.4190     1.0540    -0.5160 C.ar  1 <1>   0.0400 
  4 N       -3.1820    -0.1430    -0.0910 N.ar  1 <1>  -0.5670 
  5 C       -1.7780     1.8560    -0.1700 C.ar  1 <1>   0.0000 
  6 C        1.7880     1.1910    -0.6730 C.ar  1 <1>   0.4100 
  7 C       -0.3720     2.1590    -0.3290 C.ar  1 <1>   0.2560 
  8 C       -4.2140     0.6640     0.1170 C.ar  1 <1>   0.4100 
  9 C       -2.8840     2.6810     0.0290 C.ar  1 <1>  -0.1430 
 10 N        2.3370     2.3790    -0.6270 N.ar  1 <1>  -0.6200 
 11 N        2.6930     0.1790    -0.8650 N.pl3 1 <1>  -0.8690 
 12 N        0.1870     3.3670    -0.2940 N.ar  1 <1>  -0.5660 
 13 N       -5.4370     0.0510     0.2800 N.pl3 1 <1>  -0.8380 
 14 C       -4.1080     2.0630     0.1840 C.ar  1 <1>  -0.1430 
 15 C       -2.7890     4.1990     0.0980 C.3   1 <1>  -0.0170 
 16 C        1.5000     3.3970    -0.4430 C.ar  1 <1>   0.4700 
 17 C        2.4880    -0.8650    -1.9200 C.3   1 <1>   0.2090 
 18 C       -5.9110    -0.8900    -0.7810 C.3   1 <1>   0.2090 
 19 C       -5.7860    -0.4130     1.6560 C.3   1 <1>   0.2090 
 20 C       -5.3740     2.8840     0.4100 C.3   1 <1>   0.2630 
 21 C       -4.1560     4.8850    -0.0850 C.3   1 <1>   0.2800 
 22 C        2.6050    -2.2750    -1.3040 C.3   1 <1>   0.3430 
 23 C       -5.5860    -2.3560    -0.4360 C.3   1 <1>   0.1200 
 24 C       -5.4460    -1.9020     1.8520 C.3   1 <1>   0.1200 
 25 O       -5.1010     4.2290     0.7030 O.3   1 <1>  -0.5600 
 26 C       -4.1090     6.3200     0.4400 C.3   1 <1>  -0.2400 
 27 C       -4.6190     4.9000    -1.5510 C.3   1 <1>  -0.2400 
 28 N        2.1300    -2.2420     0.1070 N.4   1 <1>  -0.8530 
 29 O       -6.0310    -2.6860     0.8500 O.3   1 <1>  -0.5600 
 30 H        3.6280     0.6120    -0.9280 H     1 <1>   0.4000 
 31 H       -2.1220     4.5660    -0.6610 H     1 <1>   0.0800 
 32 H       -2.3760     4.4690     1.0520 H     1 <1>   0.0800 
 33 H        1.9540     4.3740    -0.4100 H     1 <1>   0.1500 
 34 H        3.2240    -0.7470    -2.6980 H     1 <1>   0.0800 
 35 H        1.5200    -0.7480    -2.3780 H     1 <1>   0.0800 
 36 H       -5.4510    -0.6360    -1.7200 H     1 <1>   0.0800 
 37 H       -6.9750    -0.7830    -0.8950 H     1 <1>   0.0800 
 38 H       -6.8390    -0.2660     1.8230 H     1 <1>   0.0800 
 39 H       -5.2490     0.1710     2.3830 H     1 <1>   0.0800 
 40 H       -5.9270     2.4890     1.2430 H     1 <1>   0.0800 
 41 H       -6.0050     2.8430    -0.4600 H     1 <1>   0.0800 
 42 H        3.6440    -2.5630    -1.3220 H     1 <1>   0.0800 
 43 H        2.0490    -2.9920    -1.8870 H     1 <1>   0.0800 
 44 H       -4.5250    -2.5240    -0.4860 H     1 <1>   0.0800 
 45 H       -6.0720    -3.0160    -1.1320 H     1 <1>   0.0800 
 46 H       -5.8210    -2.2460     2.7990 H     1 <1>   0.0800 
 47 H       -4.3810    -2.0480     1.8260 H     1 <1>   0.0800 
 48 H       -3.8460     6.3270     1.4820 H     1 <1>   0.0800 
 49 H       -5.0690     6.7900     0.3210 H     1 <1>   0.0800 
 50 H       -3.3780     6.8930    -0.1010 H     1 <1>   0.0800 
 51 H       -4.5810     3.9180    -1.9860 H     1 <1>   0.0800 
 52 H       -3.9720     5.5340    -2.1300 H     1 <1>   0.0800 
 53 H       -5.6200     5.2850    -1.6210 H     1 <1>   0.0800 
 54 H        2.3980    -1.3040     0.4570 H     1 <1>   0.4500 
 55 H        2.5480    -2.9630     0.7020 H     1 <1>   0.4500 
 56 H        1.1070    -2.2870     0.1670 H     1 <1>   0.4500 
@<TRIPOS>BOND
  1   1   2  1   
  2   1   3  1   
  3   2   4  ar  
  4   2   5  ar  
  5   3   6  ar  
  6   3   7  ar  
  7   4   8  ar  
  8   5   7  1   
  9   5   9  ar  
 10   6  10  ar  
 11   6  11  1   
 12   7  12  ar  
 13   8  13  1   
 14   8  14  ar  
 15   9  14  ar  
 16   9  15  1   
 17  10  16  ar  
 18  11  17  1   
 19  11  30  1   
 20  12  16  ar  
 21  13  18  1   
 22  13  19  1   
 23  14  20  1   
 24  15  21  1   
 25  15  31  1   
 26  15  32  1   
 27  16  33  1   
 28  17  22  1   
 29  17  34  1   
 30  17  35  1   
 31  18  23  1   
 32  18  36  1   
 33  18  37  1   
 34  19  24  1   
 35  19  38  1   
 36  19  39  1   
 37  20  25  1   
 38  20  40  1   
 39  20  41  1   
 40  21  25  1   
 41  21  26  1   
 42  21  27  1   
 43  22  28  1   
 44  22  42  1   
 45  22  43  1   
 46  23  29  1   
 47  23  44  1   
 48  23  45  1   
 49  24  29  1   
 50  24  46  1   
 51  24  47  1   
 52  26  48  1   
 53  26  49  1   
 54  26  50  1   
 55  27  51  1   
 56  27  52  1   
 57  27  53  1   
 58  28  54  1   
 59  28  55  1   
 60  28  56  1   
@<TRIPOS>SUBSTRUCTURE
  1 ****   2 GROUP 4 **** **** 0

# MOE 2024.06 (io_trps.svl 2023.06)
