@<TRIPOS>MOLECULE
(6-Methyl-2,4-dioxo-1,3-diaza-spiro[4.5]dec-3-yl)-acetic acid
32 33 1 0 0 
SMALL
USER_CHARGES


@<TRIPOS>ATOM
  1 O       -1.3570    -0.9460    -2.3460 O.2   1 <1>  -0.5700 
  2 C       -2.0260    -0.8480    -1.3390 C.2   1 <1>   0.6900 
  3 N       -1.7720    -1.4850    -0.1560 N.am  1 <1>  -0.4200 
  4 N       -3.1270    -0.0710    -1.2770 N.am  1 <1>  -0.7300 
  5 C       -2.7580    -1.1720     0.7320 C.2   1 <1>   0.5690 
  6 C       -1.0950    -2.8190    -0.1180 C.3   1 <1>   0.0340 
  7 C       -3.7840    -0.2670     0.0330 C.3   1 <1>   0.3610 
  8 O       -2.8070    -1.5070     1.8970 O.2   1 <1>  -0.5700 
  9 C       -1.9970    -3.9770    -0.5410 C.2   1 <1>   0.9060 
 10 C       -3.9890     1.0950     0.7540 C.3   1 <1>  -0.0800 
 11 C       -5.1270    -0.9910    -0.1840 C.3   1 <1>  -0.1600 
 12 O       -1.5070    -5.1110    -0.5640 O.co2 1 <1>  -0.9000 
 13 O       -3.1820    -3.7680    -0.8410 O.co2 1 <1>  -0.9000 
 14 C       -5.0460     1.9620     0.0410 C.3   1 <1>  -0.1600 
 15 C       -2.6910     1.9050     0.9380 C.3   1 <1>  -0.2400 
 16 C       -6.1790    -0.1120    -0.8800 C.3   1 <1>  -0.1600 
 17 C       -6.3740     1.2110    -0.1310 C.3   1 <1>  -0.1600 
 18 H       -3.7030    -0.0050    -2.1100 H     1 <1>   0.3700 
 19 H       -0.7560    -3.0170     0.8800 H     1 <1>   0.0800 
 20 H       -0.2460    -2.8070    -0.7740 H     1 <1>   0.0800 
 21 H       -4.3650     0.8710     1.7380 H     1 <1>   0.0800 
 22 H       -5.5050    -1.2920     0.7770 H     1 <1>   0.0800 
 23 H       -4.9640    -1.8920    -0.7510 H     1 <1>   0.0800 
 24 H       -4.6770     2.2550    -0.9270 H     1 <1>   0.0800 
 25 H       -5.2220     2.8590     0.6100 H     1 <1>   0.0800 
 26 H       -2.2650     2.1680    -0.0150 H     1 <1>   0.0800 
 27 H       -1.9640     1.3370     1.4920 H     1 <1>   0.0800 
 28 H       -2.8900     2.8100     1.4830 H     1 <1>   0.0800 
 29 H       -7.1130    -0.6450    -0.9250 H     1 <1>   0.0800 
 30 H       -5.8700     0.0890    -1.8920 H     1 <1>   0.0800 
 31 H       -7.0700     1.8300    -0.6700 H     1 <1>   0.0800 
 32 H       -6.7970     1.0100     0.8390 H     1 <1>   0.0800 
@<TRIPOS>BOND
  1   1   2  2   
  2   2   3  am  
  3   2   4  am  
  4   3   5  am  
  5   3   6  1   
  6   4   7  1   
  7   4  18  1   
  8   5   7  1   
  9   5   8  2   
 10   6   9  1   
 11   6  19  1   
 12   6  20  1   
 13   7  10  1   
 14   7  11  1   
 15   9  12  ar  
 16   9  13  ar  
 17  10  14  1   
 18  10  15  1   
 19  10  21  1   
 20  11  16  1   
 21  11  22  1   
 22  11  23  1   
 23  14  17  1   
 24  14  24  1   
 25  14  25  1   
 26  15  26  1   
 27  15  27  1   
 28  15  28  1   
 29  16  17  1   
 30  16  29  1   
 31  16  30  1   
 32  17  31  1   
 33  17  32  1   
@<TRIPOS>SUBSTRUCTURE
  1 ****   7 GROUP 4 **** **** 0

# MOE 2024.06 (io_trps.svl 2023.06)
