@<TRIPOS>MOLECULE
1-(4-Methoxy-3-methyl-benzenesulfonyl)-piperidine-4-carboxylic acid (2-chloro-ph
51 53 1 0 0 
SMALL
USER_CHARGES


@<TRIPOS>ATOM
  1 CL      -0.7460     1.8780     1.5030 Cl    1 <1>  -0.1770 
  2 C       -0.9090     2.5960    -0.0880 C.ar  1 <1>   0.1770 
  3 C       -2.1090     2.4450    -0.7830 C.ar  1 <1>   0.1170 
  4 C        0.1650     3.2920    -0.6080 C.ar  1 <1>  -0.1500 
  5 N       -3.1580     1.7180    -0.1840 N.am  1 <1>  -0.5470 
  6 C       -2.1910     3.0270    -2.0460 C.ar  1 <1>  -0.1500 
  7 C        0.0570     3.8640    -1.8640 C.ar  1 <1>  -0.1500 
  8 C       -4.4690     1.5310    -0.5270 C.2   1 <1>   0.5690 
  9 C       -1.1220     3.7290    -2.5790 C.ar  1 <1>  -0.1500 
 10 O       -4.9790     2.0230    -1.5030 O.2   1 <1>  -0.5700 
 11 C       -5.3190     0.6630     0.4020 C.3   1 <1>  -0.0190 
 12 C       -6.2680    -0.2740    -0.3660 C.3   1 <1>  -0.1600 
 13 C       -6.1390     1.5290     1.3720 C.3   1 <1>  -0.1600 
 14 C       -7.1450    -1.0780     0.5950 C.3   1 <1>   0.1960 
 15 C       -7.0360     0.6720     2.2700 C.3   1 <1>   0.1960 
 16 N       -7.9120    -0.1720     1.4550 N.am  1 <1>  -0.8490 
 17 S       -9.0330    -1.0070     2.4170 S.o2  1 <1>   1.4470 
 18 O       -8.3250    -2.1410     2.9750 O.2   1 <1>  -0.6500 
 19 O       -9.6320    -0.0420     3.3130 O.2   1 <1>  -0.6500 
 20 C      -10.2760    -1.5730     1.2230 C.ar  1 <1>  -0.0090 
 21 C      -10.7590    -0.7220     0.2360 C.ar  1 <1>  -0.1500 
 22 C      -10.7810    -2.8670     1.2670 C.ar  1 <1>  -0.1500 
 23 C      -11.7040    -1.1380    -0.6880 C.ar  1 <1>  -0.1430 
 24 C      -11.7260    -3.3000     0.3550 C.ar  1 <1>  -0.1500 
 25 C      -12.1940    -2.4380    -0.6320 C.ar  1 <1>   0.0830 
 26 C      -12.1960    -0.1680    -1.7530 C.3   1 <1>  -0.0970 
 27 O      -13.1190    -2.8070    -1.5560 O.3   1 <1>  -0.3620 
 28 C      -13.6970    -4.0930    -1.5590 C.3   1 <1>   0.0400 
 29 H        1.0720     3.3850    -0.0390 H     1 <1>   0.1500 
 30 H       -2.8820     1.2860     0.6990 H     1 <1>   0.3700 
 31 H       -3.0890     2.9390    -2.6290 H     1 <1>   0.1500 
 32 H        0.8840     4.4110    -2.2840 H     1 <1>   0.1500 
 33 H       -1.2100     4.1710    -3.5560 H     1 <1>   0.1500 
 34 H       -4.6560     0.0470     0.9830 H     1 <1>   0.0800 
 35 H       -5.6960    -0.9470    -0.9790 H     1 <1>   0.0800 
 36 H       -6.9060     0.2990    -1.0170 H     1 <1>   0.0800 
 37 H       -6.7600     2.2090     0.8130 H     1 <1>   0.0800 
 38 H       -5.4810     2.1170     1.9860 H     1 <1>   0.0800 
 39 H       -6.5310    -1.7290     1.1970 H     1 <1>   0.0800 
 40 H       -7.8190    -1.6910     0.0180 H     1 <1>   0.0800 
 41 H       -7.6310     1.3290     2.8830 H     1 <1>   0.0800 
 42 H       -6.4380     0.0560     2.9210 H     1 <1>   0.0800 
 43 H      -10.3800     0.2860     0.1970 H     1 <1>   0.1500 
 44 H      -10.4270    -3.5440     2.0270 H     1 <1>   0.1500 
 45 H      -12.0840    -4.3090     0.4300 H     1 <1>   0.1500 
 46 H      -11.7050     0.7840    -1.6710 H     1 <1>   0.0800 
 47 H      -13.2560    -0.0190    -1.6450 H     1 <1>   0.0800 
 48 H      -12.0030    -0.5720    -2.7300 H     1 <1>   0.0800 
 49 H      -14.4020    -4.1390    -2.3690 H     1 <1>   0.0800 
 50 H      -14.2040    -4.2500    -0.6240 H     1 <1>   0.0800 
 51 H      -12.9220    -4.8230    -1.7080 H     1 <1>   0.0800 
@<TRIPOS>BOND
  1   1   2  1   
  2   2   3  ar  
  3   2   4  ar  
  4   3   5  1   
  5   3   6  ar  
  6   4   7  ar  
  7   4  29  1   
  8   5   8  am  
  9   5  30  1   
 10   6   9  ar  
 11   6  31  1   
 12   7   9  ar  
 13   7  32  1   
 14   8  10  2   
 15   8  11  1   
 16   9  33  1   
 17  11  12  1   
 18  11  13  1   
 19  11  34  1   
 20  12  14  1   
 21  12  35  1   
 22  12  36  1   
 23  13  15  1   
 24  13  37  1   
 25  13  38  1   
 26  14  16  1   
 27  14  39  1   
 28  14  40  1   
 29  15  16  1   
 30  15  41  1   
 31  15  42  1   
 32  16  17  am  
 33  17  18  2   
 34  17  19  2   
 35  17  20  1   
 36  20  21  ar  
 37  20  22  ar  
 38  21  23  ar  
 39  21  43  1   
 40  22  24  ar  
 41  22  44  1   
 42  23  25  ar  
 43  23  26  1   
 44  24  25  ar  
 45  24  45  1   
 46  25  27  1   
 47  26  46  1   
 48  26  47  1   
 49  26  48  1   
 50  27  28  1   
 51  28  49  1   
 52  28  50  1   
 53  28  51  1   
@<TRIPOS>SUBSTRUCTURE
  1 ****  12 GROUP 4 **** **** 0

# MOE 2024.06 (io_trps.svl 2023.06)
