@<TRIPOS>MOLECULE
3-[3-(4-Methoxy-phenyl)-[1,2,4]oxadiazol-5-yl]-N,N-dimethyl-propionamide
37 38 1 0 0 
SMALL
USER_CHARGES


@<TRIPOS>ATOM
  1 O        0.2850    -0.4950    -0.7490 O.2   1 <1>  -0.5700 
  2 C        0.7180    -1.5030    -0.2410 C.2   1 <1>   0.5690 
  3 N        1.9040    -1.5120     0.4540 N.am  1 <1>  -0.6600 
  4 C       -0.0890    -2.7830    -0.3910 C.3   1 <1>  -0.0990 
  5 C        2.5410    -2.7210     1.0480 C.3   1 <1>   0.0600 
  6 C        2.6760    -0.2560     0.6790 C.3   1 <1>   0.0600 
  7 C       -1.4960    -2.5530    -0.9660 C.3   1 <1>   0.0200 
  8 C       -2.2600    -3.8570    -1.0660 C.2   1 <1>   0.2980 
  9 O       -1.9030    -4.7270    -1.9740 O.3   1 <1>  -0.0190 
 10 N       -3.2340    -4.2040    -0.3320 N.2   1 <1>  -0.5650 
 11 N       -2.7210    -5.7170    -1.8010 N.2   1 <1>  -0.4100 
 12 C       -3.5130    -5.4120    -0.8330 C.2   1 <1>   0.4620 
 13 C       -4.5840    -6.2490    -0.3180 C.ar  1 <1>   0.0540 
 14 C       -5.3990    -5.8330     0.7380 C.ar  1 <1>  -0.1500 
 15 C       -4.8440    -7.5100    -0.8600 C.ar  1 <1>  -0.1500 
 16 C       -6.4160    -6.6330     1.2260 C.ar  1 <1>  -0.1500 
 17 C       -5.8600    -8.3160    -0.3790 C.ar  1 <1>  -0.1500 
 18 C       -6.6570    -7.8790     0.6740 C.ar  1 <1>   0.0820 
 19 O       -7.6710    -8.6020     1.2070 O.3   1 <1>  -0.3630 
 20 C       -7.9970    -9.8840     0.7180 C.3   1 <1>   0.0400 
 21 H       -0.1880    -3.2430     0.5750 H     1 <1>   0.0800 
 22 H        0.4520    -3.4490    -1.0360 H     1 <1>   0.0800 
 23 H        2.1410    -3.6250     0.6270 H     1 <1>   0.0800 
 24 H        2.3790    -2.7280     2.1120 H     1 <1>   0.0800 
 25 H        3.6000    -2.7050     0.8570 H     1 <1>   0.0800 
 26 H        2.1360     0.6010     0.3130 H     1 <1>   0.0800 
 27 H        3.6180    -0.3120     0.1630 H     1 <1>   0.0800 
 28 H        2.8540    -0.1210     1.7310 H     1 <1>   0.0800 
 29 H       -1.4310    -2.1090    -1.9430 H     1 <1>   0.0800 
 30 H       -2.0390    -1.8770    -0.3290 H     1 <1>   0.0800 
 31 H       -5.2340    -4.8680     1.1850 H     1 <1>   0.1500 
 32 H       -4.2380    -7.8640    -1.6760 H     1 <1>   0.1500 
 33 H       -7.0320    -6.2950     2.0390 H     1 <1>   0.1500 
 34 H       -6.0150    -9.2760    -0.8330 H     1 <1>   0.1500 
 35 H       -8.8260   -10.2590     1.2900 H     1 <1>   0.0800 
 36 H       -7.1460   -10.5310     0.8390 H     1 <1>   0.0800 
 37 H       -8.2750    -9.8010    -0.3180 H     1 <1>   0.0800 
@<TRIPOS>BOND
  1   1   2  2   
  2   2   3  am  
  3   2   4  1   
  4   3   5  1   
  5   3   6  1   
  6   4   7  1   
  7   4  21  1   
  8   4  22  1   
  9   5  23  1   
 10   5  24  1   
 11   5  25  1   
 12   6  26  1   
 13   6  27  1   
 14   6  28  1   
 15   7   8  1   
 16   7  29  1   
 17   7  30  1   
 18   8   9  1   
 19   8  10  2   
 20   9  11  1   
 21  10  12  1   
 22  11  12  2   
 23  12  13  1   
 24  13  14  ar  
 25  13  15  ar  
 26  14  16  ar  
 27  14  31  1   
 28  15  17  ar  
 29  15  32  1   
 30  16  18  ar  
 31  16  33  1   
 32  17  18  ar  
 33  17  34  1   
 34  18  19  1   
 35  19  20  1   
 36  20  35  1   
 37  20  36  1   
 38  20  37  1   
@<TRIPOS>SUBSTRUCTURE
  1 ****  10 GROUP 4 **** **** 0

# MOE 2024.06 (io_trps.svl 2023.06)
