@<TRIPOS>MOLECULE
N-Isopropyl-4-(3-m-tolyl-[1,2,4]oxadiazol-5-yl)-butyramide
42 43 1 0 0 
SMALL
USER_CHARGES


@<TRIPOS>ATOM
  1 O       -0.4800    -1.6040    -0.5320 O.2   1 <1>  -0.5700 
  2 C       -1.6070    -1.9970    -0.3710 C.2   1 <1>   0.5690 
  3 N       -2.0960    -2.9800    -1.1630 N.am  1 <1>  -0.7300 
  4 C       -2.4470    -1.3730     0.7290 C.3   1 <1>  -0.0990 
  5 C       -3.4480    -3.5520    -1.2050 C.3   1 <1>   0.2200 
  6 C       -3.2980    -0.1970     0.2110 C.3   1 <1>  -0.1600 
  7 C       -3.4420    -4.8760    -0.4510 C.3   1 <1>  -0.2400 
  8 C       -3.8370    -3.7470    -2.6660 C.3   1 <1>  -0.2400 
  9 C       -4.3110     0.3050     1.2570 C.3   1 <1>   0.0200 
 10 C       -5.3810    -0.7210     1.6050 C.2   1 <1>   0.2980 
 11 O       -5.9750    -0.6360     2.7670 O.3   1 <1>  -0.0190 
 12 N       -5.7650    -1.6830     0.8720 N.2   1 <1>  -0.5650 
 13 N       -6.7920    -1.6420     2.7800 N.2   1 <1>  -0.4100 
 14 C       -6.6690    -2.2670     1.6620 C.2   1 <1>   0.4620 
 15 C       -7.3760    -3.4740     1.2670 C.ar  1 <1>   0.0540 
 16 C       -7.2840    -3.9850    -0.0300 C.ar  1 <1>  -0.1500 
 17 C       -8.1680    -4.1780     2.1740 C.ar  1 <1>  -0.1500 
 18 C       -7.9380    -5.1450    -0.4090 C.ar  1 <1>  -0.1430 
 19 C       -8.8260    -5.3380     1.8080 C.ar  1 <1>  -0.1500 
 20 C       -8.7100    -5.8230     0.5180 C.ar  1 <1>  -0.1500 
 21 C       -7.8090    -5.6720    -1.8260 C.3   1 <1>  -0.0970 
 22 H       -1.4400    -3.3590    -1.8450 H     1 <1>   0.3700 
 23 H       -1.7850    -1.0220     1.5000 H     1 <1>   0.0800 
 24 H       -3.0630    -2.1370     1.1640 H     1 <1>   0.0800 
 25 H       -4.1490    -2.8780    -0.7440 H     1 <1>   0.0800 
 26 H       -3.8270    -0.4960    -0.6780 H     1 <1>   0.0800 
 27 H       -2.6400     0.6090    -0.0640 H     1 <1>   0.0800 
 28 H       -2.7530    -5.5680    -0.9000 H     1 <1>   0.0800 
 29 H       -4.4260    -5.3100    -0.4660 H     1 <1>   0.0800 
 30 H       -3.1650    -4.7140     0.5750 H     1 <1>   0.0800 
 31 H       -3.1590    -4.4240    -3.1540 H     1 <1>   0.0800 
 32 H       -3.8280    -2.8010    -3.1770 H     1 <1>   0.0800 
 33 H       -4.8300    -4.1530    -2.7270 H     1 <1>   0.0800 
 34 H       -4.8030     1.1850     0.8830 H     1 <1>   0.0800 
 35 H       -3.7860     0.5790     2.1550 H     1 <1>   0.0800 
 36 H       -6.6880    -3.4600    -0.7540 H     1 <1>   0.1500 
 37 H       -8.2680    -3.8140     3.1820 H     1 <1>   0.1500 
 38 H       -9.4290    -5.8650     2.5270 H     1 <1>   0.1500 
 39 H       -9.2230    -6.7270     0.2410 H     1 <1>   0.1500 
 40 H       -7.6020    -4.8700    -2.5110 H     1 <1>   0.0800 
 41 H       -8.7220    -6.1500    -2.1320 H     1 <1>   0.0800 
 42 H       -7.0080    -6.3890    -1.8770 H     1 <1>   0.0800 
@<TRIPOS>BOND
  1   1   2  2   
  2   2   3  am  
  3   2   4  1   
  4   3   5  1   
  5   3  22  1   
  6   4   6  1   
  7   4  23  1   
  8   4  24  1   
  9   5   7  1   
 10   5   8  1   
 11   5  25  1   
 12   6   9  1   
 13   6  26  1   
 14   6  27  1   
 15   7  28  1   
 16   7  29  1   
 17   7  30  1   
 18   8  31  1   
 19   8  32  1   
 20   8  33  1   
 21   9  10  1   
 22   9  34  1   
 23   9  35  1   
 24  10  11  1   
 25  10  12  2   
 26  11  13  1   
 27  12  14  1   
 28  13  14  2   
 29  14  15  1   
 30  15  16  ar  
 31  15  17  ar  
 32  16  18  ar  
 33  16  36  1   
 34  17  19  ar  
 35  17  37  1   
 36  18  20  ar  
 37  18  21  1   
 38  19  20  ar  
 39  19  38  1   
 40  20  39  1   
 41  21  40  1   
 42  21  41  1   
 43  21  42  1   
@<TRIPOS>SUBSTRUCTURE
  1 ****  12 GROUP 4 **** **** 0

# MOE 2024.06 (io_trps.svl 2023.06)
