@<TRIPOS>MOLECULE
1-(3,5-Dimethyl-phenyl)-5-oxo-pyrrolidine-3-carboxylic acid (tetrahydro-furan-2-
47 49 1 0 0 
SMALL
USER_CHARGES


@<TRIPOS>ATOM
  1 O       -0.6970    -0.3300     0.0080 O.2   1 <1>  -0.5700 
  2 C        0.4660    -0.2800     0.3230 C.2   1 <1>   0.5690 
  3 N        1.3960    -1.2740     0.2100 N.am  1 <1>  -0.4770 
  4 C        1.0660     0.9680     0.9080 C.3   1 <1>  -0.0990 
  5 C        1.1930    -2.6110    -0.1860 C.ar  1 <1>   0.1170 
  6 C        2.6970    -0.8220     0.7470 C.3   1 <1>   0.1400 
  7 C        2.5750     0.7080     0.8060 C.3   1 <1>  -0.0190 
  8 C        2.1380    -3.2830    -0.9570 C.ar  1 <1>  -0.1500 
  9 C        0.0450    -3.3000     0.1910 C.ar  1 <1>  -0.1500 
 10 C        3.3790     1.3600     1.9250 C.2   1 <1>   0.5690 
 11 C        1.9540    -4.6030    -1.3290 C.ar  1 <1>  -0.1440 
 12 C       -0.1560    -4.6180    -0.1780 C.ar  1 <1>  -0.1440 
 13 O        3.7910     0.6870     2.8340 O.2   1 <1>  -0.5700 
 14 N        3.6450     2.6870     1.9240 N.am  1 <1>  -0.7300 
 15 C        0.8040    -5.2670    -0.9360 C.ar  1 <1>  -0.1500 
 16 C        2.9910    -5.3280    -2.1680 C.3   1 <1>  -0.0970 
 17 C       -1.4170    -5.3510     0.2430 C.3   1 <1>  -0.0970 
 18 C        3.2900     3.7350     0.9250 C.3   1 <1>   0.1400 
 19 C        4.5420     4.3200     0.2580 C.3   1 <1>   0.2000 
 20 O        4.1510     5.2150    -0.7270 O.3   1 <1>  -0.5600 
 21 C        5.4110     3.3120    -0.4840 C.3   1 <1>  -0.1600 
 22 C        5.1760     5.3970    -1.6530 C.3   1 <1>   0.1200 
 23 C        6.0730     4.1640    -1.5520 C.3   1 <1>  -0.1600 
 24 H        0.7510     1.0530     1.9320 H     1 <1>   0.0800 
 25 H        0.7620     1.8360     0.3530 H     1 <1>   0.0800 
 26 H        3.5150    -1.1180     0.1150 H     1 <1>   0.0800 
 27 H        2.8260    -1.2510     1.7270 H     1 <1>   0.0800 
 28 H        2.9290     1.0840    -0.1360 H     1 <1>   0.0800 
 29 H        3.0220    -2.7660    -1.2750 H     1 <1>   0.1500 
 30 H       -0.6960    -2.7920     0.7800 H     1 <1>   0.1500 
 31 H        4.1750     3.0150     2.7360 H     1 <1>   0.3700 
 32 H        0.6540    -6.2930    -1.2240 H     1 <1>   0.1500 
 33 H        3.9030    -4.7620    -2.2240 H     1 <1>   0.0800 
 34 H        2.6140    -5.4760    -3.1640 H     1 <1>   0.0800 
 35 H        3.2110    -6.2870    -1.7330 H     1 <1>   0.0800 
 36 H       -2.1900    -4.6530     0.5100 H     1 <1>   0.0800 
 37 H       -1.2080    -5.9780     1.0910 H     1 <1>   0.0800 
 38 H       -1.7770    -5.9630    -0.5640 H     1 <1>   0.0800 
 39 H        2.7590     4.5270     1.4240 H     1 <1>   0.0800 
 40 H        2.6490     3.3280     0.1640 H     1 <1>   0.0800 
 41 H        5.1280     4.8700     0.9750 H     1 <1>   0.0800 
 42 H        4.7910     2.5630    -0.9430 H     1 <1>   0.0800 
 43 H        6.1200     2.8370     0.1700 H     1 <1>   0.0800 
 44 H        5.7110     6.2950    -1.3950 H     1 <1>   0.0800 
 45 H        4.7350     5.4980    -2.6300 H     1 <1>   0.0800 
 46 H        6.1380     3.6480    -2.4940 H     1 <1>   0.0800 
 47 H        7.0610     4.4650    -1.2490 H     1 <1>   0.0800 
@<TRIPOS>BOND
  1   1   2  2   
  2   2   3  am  
  3   2   4  1   
  4   3   5  1   
  5   3   6  1   
  6   4   7  1   
  7   4  24  1   
  8   4  25  1   
  9   5   8  ar  
 10   5   9  ar  
 11   6   7  1   
 12   6  26  1   
 13   6  27  1   
 14   7  10  1   
 15   7  28  1   
 16   8  11  ar  
 17   8  29  1   
 18   9  12  ar  
 19   9  30  1   
 20  10  13  2   
 21  10  14  am  
 22  11  15  ar  
 23  11  16  1   
 24  12  15  ar  
 25  12  17  1   
 26  14  18  1   
 27  14  31  1   
 28  15  32  1   
 29  16  33  1   
 30  16  34  1   
 31  16  35  1   
 32  17  36  1   
 33  17  37  1   
 34  17  38  1   
 35  18  19  1   
 36  18  39  1   
 37  18  40  1   
 38  19  20  1   
 39  19  21  1   
 40  19  41  1   
 41  20  22  1   
 42  21  23  1   
 43  21  42  1   
 44  21  43  1   
 45  22  23  1   
 46  22  44  1   
 47  22  45  1   
 48  23  46  1   
 49  23  47  1   
@<TRIPOS>SUBSTRUCTURE
  1 ****   6 GROUP 4 **** **** 0

# MOE 2024.06 (io_trps.svl 2023.06)
