@<TRIPOS>MOLECULE
4-Dimethylamino-piperidine-4-carboxylic acid
29 29 1 0 0 
SMALL
USER_CHARGES


@<TRIPOS>ATOM
  1 O       -1.1850     0.2680    -1.1630 O.co2 1 <1>  -0.9000 
  2 C       -2.3510    -0.1310    -1.2050 C.2   1 <1>   0.9060 
  3 O       -3.0100    -0.1720    -2.2470 O.co2 1 <1>  -0.9000 
  4 C       -3.0090    -0.6600     0.1180 C.3   1 <1>   0.3970 
  5 N       -3.7390     0.4370     0.9030 N.4   1 <1>  -0.9590 
  6 C       -3.9940    -1.8030    -0.2230 C.3   1 <1>  -0.1600 
  7 C       -1.9190    -1.3040     1.0080 C.3   1 <1>  -0.1600 
  8 C       -4.8190     1.0580     0.0600 C.3   1 <1>   0.2630 
  9 C       -2.7900     1.5470     1.2650 C.3   1 <1>   0.2630 
 10 C       -3.2750    -2.8860    -1.0360 C.3   1 <1>   0.3430 
 11 C       -1.1660    -2.3780     0.2150 C.3   1 <1>   0.3430 
 12 N       -2.1170    -3.4230    -0.2640 N.4   1 <1>  -0.9060 
 13 H       -4.1520     0.0470     1.7580 H     1 <1>   0.4500 
 14 H       -4.7930    -1.4390    -0.8430 H     1 <1>   0.0800 
 15 H       -4.4230    -2.2320     0.6640 H     1 <1>   0.0800 
 16 H       -2.3400    -1.7310     1.9000 H     1 <1>   0.0800 
 17 H       -1.1870    -0.5710     1.2970 H     1 <1>   0.0800 
 18 H       -4.4100     1.4080    -0.8760 H     1 <1>   0.0800 
 19 H       -5.2630     1.8950     0.5740 H     1 <1>   0.0800 
 20 H       -5.5950     0.3430    -0.1560 H     1 <1>   0.0800 
 21 H       -2.2920     1.9180     0.3810 H     1 <1>   0.0800 
 22 H       -2.0390     1.1990     1.9540 H     1 <1>   0.0800 
 23 H       -3.3220     2.3620     1.7260 H     1 <1>   0.0800 
 24 H       -2.9280    -2.4640    -1.9700 H     1 <1>   0.0800 
 25 H       -3.9640    -3.6810    -1.2740 H     1 <1>   0.0800 
 26 H       -0.4070    -2.8250     0.8370 H     1 <1>   0.0800 
 27 H       -0.6700    -1.9210    -0.6300 H     1 <1>   0.0800 
 28 H       -1.5980    -4.0660    -0.8780 H     1 <1>   0.4500 
 29 H       -2.4520    -3.9840     0.5280 H     1 <1>   0.4500 
@<TRIPOS>BOND
  1   1   2  ar  
  2   2   3  ar  
  3   2   4  1   
  4   4   5  1   
  5   4   6  1   
  6   4   7  1   
  7   5   8  1   
  8   5   9  1   
  9   5  13  1   
 10   6  10  1   
 11   6  14  1   
 12   6  15  1   
 13   7  11  1   
 14   7  16  1   
 15   7  17  1   
 16   8  18  1   
 17   8  19  1   
 18   8  20  1   
 19   9  21  1   
 20   9  22  1   
 21   9  23  1   
 22  10  12  1   
 23  10  24  1   
 24  10  25  1   
 25  11  12  1   
 26  11  26  1   
 27  11  27  1   
 28  12  28  1   
 29  12  29  1   
@<TRIPOS>SUBSTRUCTURE
  1 ****   4 GROUP 4 **** **** 0

# MOE 2024.06 (io_trps.svl 2023.06)
