@<TRIPOS>MOLECULE
1-[3-(2-Chloro-phenyl)-5-methyl-isoxazole-4-carbonyl]-piperidine-2-carboxylic ac
40 42 1 0 0 
SMALL
USER_CHARGES


@<TRIPOS>ATOM
  1 CL       0.3580     0.1700     0.8480 Cl    1 <1>  -0.1770 
  2 C        1.7900     0.8400     0.1010 C.ar  1 <1>   0.1770 
  3 C        2.7900     0.0030    -0.3950 C.ar  1 <1>   0.0540 
  4 C        1.8910     2.2190     0.0450 C.ar  1 <1>  -0.1500 
  5 C        2.7170    -1.4390    -0.3170 C.2   1 <1>   0.2350 
  6 C        3.9030     0.6210    -0.9600 C.ar  1 <1>  -0.1500 
  7 C        3.0160     2.8030    -0.5100 C.ar  1 <1>  -0.1500 
  8 N        1.7920    -2.1840    -0.8280 N.2   1 <1>  -0.4100 
  9 C        3.6520    -2.2450     0.3180 C.2   1 <1>  -0.0860 
 10 C        4.0250     1.9970    -1.0090 C.ar  1 <1>  -0.1500 
 11 O        2.0290    -3.4470    -0.5590 O.3   1 <1>  -0.0190 
 12 C        3.1400    -3.4750     0.1330 C.2   1 <1>  -0.0400 
 13 C        4.8380    -1.7880     0.9870 C.2   1 <1>   0.7160 
 14 C        3.6670    -4.8130     0.6110 C.3   1 <1>  -0.0600 
 15 O        4.7450    -1.3600     2.1220 O.2   1 <1>  -0.5700 
 16 N        6.0620    -1.8480     0.3660 N.am  1 <1>  -0.6600 
 17 C        7.2010    -0.9320     0.7820 C.3   1 <1>   0.1140 
 18 C        6.2770    -2.5640    -0.9280 C.3   1 <1>   0.1400 
 19 C        7.4430     0.3050    -0.1300 C.2   1 <1>   0.9060 
 20 C        8.4850    -1.7750     0.9740 C.3   1 <1>  -0.1600 
 21 C        7.7570    -2.9190    -1.1540 C.3   1 <1>  -0.1600 
 22 O        7.1490     0.2840    -1.3380 O.co2 1 <1>  -0.9000 
 23 O        7.9570     1.3120     0.3740 O.co2 1 <1>  -0.9000 
 24 C        8.5160    -3.0870     0.1670 C.3   1 <1>  -0.1600 
 25 H        1.0980     2.8270     0.4400 H     1 <1>   0.1500 
 26 H        4.7020     0.0230    -1.3640 H     1 <1>   0.1500 
 27 H        3.1170     3.8730    -0.5510 H     1 <1>   0.1500 
 28 H        4.9210     2.4260    -1.4310 H     1 <1>   0.1500 
 29 H        4.5770    -4.6810     1.1680 H     1 <1>   0.0800 
 30 H        3.8610    -5.4510    -0.2320 H     1 <1>   0.0800 
 31 H        2.9370    -5.2830     1.2450 H     1 <1>   0.0800 
 32 H        6.9630    -0.5050     1.7390 H     1 <1>   0.0800 
 33 H        5.9310    -1.9480    -1.7410 H     1 <1>   0.0800 
 34 H        5.7040    -3.4730    -0.9260 H     1 <1>   0.0800 
 35 H        8.5960    -2.0010     2.0190 H     1 <1>   0.0800 
 36 H        9.3290    -1.1660     0.6980 H     1 <1>   0.0800 
 37 H        8.2150    -2.1280    -1.7240 H     1 <1>   0.0800 
 38 H        7.8230    -3.8150    -1.7430 H     1 <1>   0.0800 
 39 H        8.0450    -3.8660     0.7420 H     1 <1>   0.0800 
 40 H        9.5350    -3.3760    -0.0190 H     1 <1>   0.0800 
@<TRIPOS>BOND
  1   1   2  1   
  2   2   3  ar  
  3   2   4  ar  
  4   3   5  1   
  5   3   6  ar  
  6   4   7  ar  
  7   4  25  1   
  8   5   8  2   
  9   5   9  1   
 10   6  10  ar  
 11   6  26  1   
 12   7  10  ar  
 13   7  27  1   
 14   8  11  1   
 15   9  12  2   
 16   9  13  1   
 17  10  28  1   
 18  11  12  1   
 19  12  14  1   
 20  13  15  2   
 21  13  16  am  
 22  14  29  1   
 23  14  30  1   
 24  14  31  1   
 25  16  17  1   
 26  16  18  1   
 27  17  19  1   
 28  17  20  1   
 29  17  32  1   
 30  18  21  1   
 31  18  33  1   
 32  18  34  1   
 33  19  22  ar  
 34  19  23  ar  
 35  20  24  1   
 36  20  35  1   
 37  20  36  1   
 38  21  24  1   
 39  21  37  1   
 40  21  38  1   
 41  24  39  1   
 42  24  40  1   
@<TRIPOS>SUBSTRUCTURE
  1 ****  13 GROUP 4 **** **** 0

# MOE 2024.06 (io_trps.svl 2023.06)
