@<TRIPOS>MOLECULE
N-Cyclopentyl-2-(3-furan-2-ylmethyl-6-methyl-4-oxo-3,4-dihydro-thieno[2,3-d]pyri
48 51 1 0 0 
SMALL
USER_CHARGES


@<TRIPOS>ATOM
  1 S        0.1950    -0.2880    -0.9280 S.3   1 <1>  -0.0800 
  2 C        1.7780     0.4090    -1.2020 C.2   1 <1>   0.1660 
  3 C       -0.1660     0.9140     0.3090 C.2   1 <1>  -0.1400 
  4 N        2.6460    -0.0920    -2.1070 N.2   1 <1>  -0.5760 
  5 C        1.9870     1.4780    -0.3910 C.2   1 <1>  -0.0860 
  6 C        0.8700     1.7590     0.4660 C.2   1 <1>  -0.1500 
  7 C       -1.5200     0.8270     0.9810 C.3   1 <1>  -0.0600 
  8 C        3.7810     0.5200    -2.1480 C.2   1 <1>   0.6510 
  9 C        3.2430     2.1340    -0.5020 C.2   1 <1>   0.7160 
 10 S        4.9560    -0.0740    -3.3480 S.3   1 <1>  -0.3710 
 11 N        4.1600     1.5940    -1.3760 N.am  1 <1>  -0.4200 
 12 O        3.5020     3.1450     0.1360 O.2   1 <1>  -0.5700 
 13 C        4.6630    -1.9080    -3.4240 C.3   1 <1>   0.1310 
 14 C        5.5860     1.9950    -1.2560 C.3   1 <1>   0.3200 
 15 C        5.4780    -2.5940    -2.3330 C.2   1 <1>   0.5690 
 16 C        6.3200     0.9740    -0.4020 C.2   1 <1>  -0.0400 
 17 O        6.6460    -2.8070    -2.5430 O.2   1 <1>  -0.5700 
 18 N        4.9510    -2.9720    -1.1440 N.am  1 <1>  -0.7300 
 19 O        6.0620     0.9200     0.8910 O.3   1 <1>  -0.2800 
 20 C        7.2360     0.0390    -0.7370 C.2   1 <1>  -0.1500 
 21 C        3.5810    -2.8670    -0.6100 C.3   1 <1>   0.2200 
 22 C        6.8020    -0.0400     1.4080 C.2   1 <1>  -0.0100 
 23 C        7.5520    -0.6280     0.4530 C.2   1 <1>  -0.1500 
 24 C        3.5980    -1.9430     0.6010 C.3   1 <1>  -0.1600 
 25 C        3.1920    -4.2130    -0.0110 C.3   1 <1>  -0.1600 
 26 C        4.1140    -2.7930     1.7650 C.3   1 <1>  -0.1600 
 27 C        3.8270    -4.2510     1.3850 C.3   1 <1>  -0.1600 
 28 H        0.9130     2.5860     1.1550 H     1 <1>   0.1500 
 29 H       -2.3000     0.9310     0.2480 H     1 <1>   0.0800 
 30 H       -1.6230     1.6100     1.7110 H     1 <1>   0.0800 
 31 H       -1.6270    -0.1230     1.4720 H     1 <1>   0.0800 
 32 H        5.0060    -2.2340    -4.3880 H     1 <1>   0.0800 
 33 H        3.6120    -2.0990    -3.3360 H     1 <1>   0.0800 
 34 H        5.6770     2.9650    -0.7990 H     1 <1>   0.0800 
 35 H        6.0390     2.0600    -2.2280 H     1 <1>   0.0800 
 36 H        5.6170    -3.3660    -0.4790 H     1 <1>   0.3700 
 37 H        7.6560    -0.1930    -1.7020 H     1 <1>   0.1500 
 38 H        2.8830    -2.5510    -1.3640 H     1 <1>   0.0800 
 39 H        6.7310    -0.2380     2.4630 H     1 <1>   0.1500 
 40 H        8.2520    -1.4400     0.5410 H     1 <1>   0.1500 
 41 H        2.5880    -1.6390     0.8130 H     1 <1>   0.0800 
 42 H        4.1940    -1.0640     0.4350 H     1 <1>   0.0800 
 43 H        3.4970    -5.0390    -0.6290 H     1 <1>   0.0800 
 44 H        2.1220    -4.2390     0.0940 H     1 <1>   0.0800 
 45 H        3.6280    -2.5200     2.6860 H     1 <1>   0.0800 
 46 H        5.1750    -2.6500     1.8760 H     1 <1>   0.0800 
 47 H        4.7490    -4.8070     1.3560 H     1 <1>   0.0800 
 48 H        3.1630    -4.7180     2.0930 H     1 <1>   0.0800 
@<TRIPOS>BOND
  1   1   2  1   
  2   1   3  1   
  3   2   4  1   
  4   2   5  2   
  5   3   6  2   
  6   3   7  1   
  7   4   8  2   
  8   5   6  1   
  9   5   9  1   
 10   6  28  1   
 11   7  29  1   
 12   7  30  1   
 13   7  31  1   
 14   8  10  1   
 15   8  11  1   
 16   9  11  am  
 17   9  12  2   
 18  10  13  1   
 19  11  14  1   
 20  13  15  1   
 21  13  32  1   
 22  13  33  1   
 23  14  16  1   
 24  14  34  1   
 25  14  35  1   
 26  15  17  2   
 27  15  18  am  
 28  16  19  1   
 29  16  20  2   
 30  18  21  1   
 31  18  36  1   
 32  19  22  1   
 33  20  23  1   
 34  20  37  1   
 35  21  24  1   
 36  21  25  1   
 37  21  38  1   
 38  22  23  2   
 39  22  39  1   
 40  23  40  1   
 41  24  26  1   
 42  24  41  1   
 43  24  42  1   
 44  25  27  1   
 45  25  43  1   
 46  25  44  1   
 47  26  27  1   
 48  26  45  1   
 49  26  46  1   
 50  27  47  1   
 51  27  48  1   
@<TRIPOS>SUBSTRUCTURE
  1 ****   8 GROUP 4 **** **** 0

# MOE 2024.06 (io_trps.svl 2023.06)
