@<TRIPOS>MOLECULE
N-(2-Methoxy-ethyl)-3-(3-m-tolyl-[1,2,4]oxadiazol-5-yl)-propionamide
40 41 1 0 0 
SMALL
USER_CHARGES


@<TRIPOS>ATOM
  1 O        0.2800    -0.4870    -0.4130 O.2   1 <1>  -0.5700 
  2 C        0.7730    -1.4540     0.1110 C.2   1 <1>   0.5690 
  3 N        2.0080    -1.4220     0.6690 N.am  1 <1>  -0.7300 
  4 C       -0.0140    -2.7430     0.1490 C.3   1 <1>  -0.0990 
  5 C        2.8630    -0.2090     0.7450 C.3   1 <1>   0.1400 
  6 C       -1.3190    -2.5630     0.9340 C.3   1 <1>   0.0200 
  7 C        3.4800     0.1040    -0.6180 C.3   1 <1>   0.1200 
  8 C       -2.0760    -3.8700     1.0400 C.2   1 <1>   0.2980 
  9 O        4.4320     1.1060    -0.4480 O.3   1 <1>  -0.5600 
 10 O       -1.5870    -4.8190     1.7940 O.3   1 <1>  -0.0190 
 11 N       -3.1630    -4.1480     0.4500 N.2   1 <1>  -0.5650 
 12 C        5.0050     1.5430    -1.6380 C.3   1 <1>   0.0400 
 13 N       -2.4380    -5.7880     1.6720 N.2   1 <1>  -0.4100 
 14 C       -3.3740    -5.3970     0.8800 C.2   1 <1>   0.4620 
 15 C       -4.5290    -6.1840     0.4770 C.ar  1 <1>   0.0540 
 16 C       -5.4930    -5.6780    -0.3990 C.ar  1 <1>  -0.1500 
 17 C       -4.7200    -7.4820     0.9510 C.ar  1 <1>  -0.1500 
 18 C       -6.5930    -6.4240    -0.7870 C.ar  1 <1>  -0.1440 
 19 C       -5.8150    -8.2360     0.5720 C.ar  1 <1>  -0.1500 
 20 C       -6.7520    -7.7080    -0.2960 C.ar  1 <1>  -0.1500 
 21 C       -7.6250    -5.8470    -1.7390 C.3   1 <1>  -0.0970 
 22 H        2.4090    -2.2670     1.0790 H     1 <1>   0.3700 
 23 H        0.5790    -3.5190     0.5980 H     1 <1>   0.0800 
 24 H       -0.2410    -3.0340    -0.8600 H     1 <1>   0.0800 
 25 H        3.6450    -0.3710     1.4660 H     1 <1>   0.0800 
 26 H        2.2650     0.6300     1.0600 H     1 <1>   0.0800 
 27 H       -1.9400    -1.8360     0.4380 H     1 <1>   0.0800 
 28 H       -1.1090    -2.2000     1.9240 H     1 <1>   0.0800 
 29 H        2.7200     0.4530    -1.2950 H     1 <1>   0.0800 
 30 H        3.9710    -0.7660    -1.0180 H     1 <1>   0.0800 
 31 H        5.7250     2.3060    -1.4020 H     1 <1>   0.0800 
 32 H        4.2370     1.9530    -2.2720 H     1 <1>   0.0800 
 33 H        5.4960     0.7170    -2.1220 H     1 <1>   0.0800 
 34 H       -5.3730    -4.6800    -0.7800 H     1 <1>   0.1500 
 35 H       -4.0010    -7.9090     1.6280 H     1 <1>   0.1500 
 36 H       -5.9400    -9.2350     0.9530 H     1 <1>   0.1500 
 37 H       -7.6030    -8.2990    -0.5870 H     1 <1>   0.1500 
 38 H       -7.2570    -4.9500    -2.2050 H     1 <1>   0.0800 
 39 H       -8.5250    -5.6120    -1.2010 H     1 <1>   0.0800 
 40 H       -7.8550    -6.5600    -2.5100 H     1 <1>   0.0800 
@<TRIPOS>BOND
  1   1   2  2   
  2   2   3  am  
  3   2   4  1   
  4   3   5  1   
  5   3  22  1   
  6   4   6  1   
  7   4  23  1   
  8   4  24  1   
  9   5   7  1   
 10   5  25  1   
 11   5  26  1   
 12   6   8  1   
 13   6  27  1   
 14   6  28  1   
 15   7   9  1   
 16   7  29  1   
 17   7  30  1   
 18   8  10  1   
 19   8  11  2   
 20   9  12  1   
 21  10  13  1   
 22  11  14  1   
 23  12  31  1   
 24  12  32  1   
 25  12  33  1   
 26  13  14  2   
 27  14  15  1   
 28  15  16  ar  
 29  15  17  ar  
 30  16  18  ar  
 31  16  34  1   
 32  17  19  ar  
 33  17  35  1   
 34  18  20  ar  
 35  18  21  1   
 36  19  20  ar  
 37  19  36  1   
 38  20  37  1   
 39  21  38  1   
 40  21  39  1   
 41  21  40  1   
@<TRIPOS>SUBSTRUCTURE
  1 ****   8 GROUP 4 **** **** 0

# MOE 2024.06 (io_trps.svl 2023.06)
