@<TRIPOS>MOLECULE
7-(2-Chloro-6-fluoro-benzyl)-1,3-dimethyl-8-(2-methyl-piperidin-1-ylmethyl)-3,7-
56 59 1 0 0 
SMALL
USER_CHARGES


@<TRIPOS>ATOM
  1 CL       0.5250     1.2520     2.3120 Cl    1 <1>  -0.1770 
  2 C       -0.1540     2.1330     0.9650 C.ar  1 <1>   0.1770 
  3 C       -1.5040     2.0250     0.6660 C.ar  1 <1>  -0.1440 
  4 C        0.7000     2.9220     0.2130 C.ar  1 <1>  -0.1500 
  5 C       -1.9590     2.7510    -0.4260 C.ar  1 <1>   0.1900 
  6 C       -2.4560     1.1690     1.4850 C.3   1 <1>   0.4980 
  7 C        0.2120     3.6320    -0.8720 C.ar  1 <1>  -0.1500 
  8 F       -3.2200     2.6850    -0.7570 F     1 <1>  -0.1900 
  9 C       -1.1320     3.5470    -1.1960 C.ar  1 <1>  -0.1500 
 10 N       -2.8980     0.0010     0.6700 N.pl3 1 <1>  -0.7640 
 11 C       -4.2020    -0.1740     0.1820 C.2   1 <1>   0.2770 
 12 C       -2.1710    -1.0070     0.1990 C.cat 1 <1>   0.6560 
 13 C       -5.4510     0.5240     0.3190 C.2   1 <1>   0.7030 
 14 C       -4.1800    -1.2930    -0.5820 C.2   1 <1>   0.4260 
 15 N       -2.9240    -1.7950    -0.5540 N.pl3 1 <1>  -0.7000 
 16 C       -0.6780    -1.3100     0.4090 C.3   1 <1>   0.2540 
 17 O       -5.5660     1.4740     1.0740 O.2   1 <1>  -0.5700 
 18 N       -6.5420     0.0710    -0.4110 N.am  1 <1>  -0.4200 
 19 N       -5.2770    -1.7930    -1.2560 N.am  1 <1>  -0.4360 
 20 N       -0.3280    -2.6730    -0.0950 N.3   1 <1>  -0.8100 
 21 C       -6.4660    -1.0840    -1.1810 C.2   1 <1>   0.6900 
 22 C       -7.8420     0.8110    -0.3420 C.3   1 <1>   0.0600 
 23 C       -5.1680    -3.0360    -2.0760 C.3   1 <1>   0.0600 
 24 C       -0.2300    -3.6930     0.9780 C.3   1 <1>   0.1900 
 25 C        0.9240    -2.6080    -0.8780 C.3   1 <1>   0.1100 
 26 O       -7.4430    -1.4750    -1.7880 O.2   1 <1>  -0.5700 
 27 C        0.0470    -5.0730     0.3590 C.3   1 <1>  -0.1600 
 28 C       -1.5240    -3.7810     1.7970 C.3   1 <1>  -0.2400 
 29 C        1.2080    -3.9510    -1.5510 C.3   1 <1>  -0.1600 
 30 C        1.3050    -5.0700    -0.5140 C.3   1 <1>  -0.1600 
 31 H        1.7430     2.9820     0.4760 H     1 <1>   0.1500 
 32 H       -3.2990     1.7690     1.7790 H     1 <1>   0.0800 
 33 H       -1.9960     0.8160     2.3900 H     1 <1>   0.0800 
 34 H        0.8720     4.2500    -1.4590 H     1 <1>   0.1500 
 35 H       -1.5330     4.0930    -2.0330 H     1 <1>   0.1500 
 36 H       -2.5210    -2.6320    -0.9910 H     1 <1>   0.4500 
 37 H       -0.4230    -1.2190     1.4500 H     1 <1>   0.0800 
 38 H       -0.1240    -0.5620    -0.1300 H     1 <1>   0.0800 
 39 H       -7.6840     1.8420    -0.0740 H     1 <1>   0.0800 
 40 H       -8.4800     0.3510     0.3920 H     1 <1>   0.0800 
 41 H       -8.3370     0.7850    -1.2980 H     1 <1>   0.0800 
 42 H       -4.7100    -2.8060    -3.0220 H     1 <1>   0.0800 
 43 H       -6.1410    -3.4590    -2.2590 H     1 <1>   0.0800 
 44 H       -4.5760    -3.7710    -1.5610 H     1 <1>   0.0800 
 45 H        0.5860    -3.4410     1.6370 H     1 <1>   0.0800 
 46 H        1.7480    -2.3460    -0.2340 H     1 <1>   0.0800 
 47 H        0.8390    -1.8570    -1.6450 H     1 <1>   0.0800 
 48 H       -0.7970    -5.3720    -0.2370 H     1 <1>   0.0800 
 49 H        0.1690    -5.8020     1.1410 H     1 <1>   0.0800 
 50 H       -2.3640    -3.9920     1.1610 H     1 <1>   0.0800 
 51 H       -1.7040    -2.8850     2.3590 H     1 <1>   0.0800 
 52 H       -1.4410    -4.5830     2.5080 H     1 <1>   0.0800 
 53 H        2.1310    -3.8890    -2.1000 H     1 <1>   0.0800 
 54 H        0.4220    -4.1680    -2.2540 H     1 <1>   0.0800 
 55 H        1.4140    -6.0210    -1.0060 H     1 <1>   0.0800 
 56 H        2.1720    -4.9130     0.1050 H     1 <1>   0.0800 
@<TRIPOS>BOND
  1   1   2  1   
  2   2   3  ar  
  3   2   4  ar  
  4   3   5  ar  
  5   3   6  1   
  6   4   7  ar  
  7   4  31  1   
  8   5   8  1   
  9   5   9  ar  
 10   6  10  1   
 11   6  32  1   
 12   6  33  1   
 13   7   9  ar  
 14   7  34  1   
 15   9  35  1   
 16  10  11  1   
 17  10  12  ar  
 18  11  13  1   
 19  11  14  2   
 20  12  15  ar  
 21  12  16  1   
 22  13  17  2   
 23  13  18  am  
 24  14  15  1   
 25  14  19  1   
 26  15  36  1   
 27  16  20  1   
 28  16  37  1   
 29  16  38  1   
 30  18  21  am  
 31  18  22  1   
 32  19  21  am  
 33  19  23  1   
 34  20  24  1   
 35  20  25  1   
 36  21  26  2   
 37  22  39  1   
 38  22  40  1   
 39  22  41  1   
 40  23  42  1   
 41  23  43  1   
 42  23  44  1   
 43  24  27  1   
 44  24  28  1   
 45  24  45  1   
 46  25  29  1   
 47  25  46  1   
 48  25  47  1   
 49  27  30  1   
 50  27  48  1   
 51  27  49  1   
 52  28  50  1   
 53  28  51  1   
 54  28  52  1   
 55  29  30  1   
 56  29  53  1   
 57  29  54  1   
 58  30  55  1   
 59  30  56  1   
@<TRIPOS>SUBSTRUCTURE
  1 ****  12 GROUP 4 **** **** 0

# MOE 2024.06 (io_trps.svl 2023.06)
