@<TRIPOS>MOLECULE
4-[4-(2,4,6-Trimethyl-benzenesulfonyl)-piperazine-1-sulfonyl]-morpholine
54 56 1 0 0 
SMALL
USER_CHARGES


@<TRIPOS>ATOM
  1 S        0.2950     0.7790     1.3890 S.o2  1 <1>   1.5760 
  2 O       -0.1170     2.1620     1.3040 O.2   1 <1>  -0.6500 
  3 O        0.6180     0.1660     2.6580 O.2   1 <1>  -0.6500 
  4 N       -0.8830    -0.1650     0.6360 N.am  1 <1>  -0.8490 
  5 N        1.5930     0.5370     0.3270 N.am  1 <1>  -0.8490 
  6 C       -0.5660    -1.5970     0.6090 C.3   1 <1>   0.1960 
  7 C       -1.2620     0.3150    -0.6980 C.3   1 <1>   0.1960 
  8 C        2.7330    -0.1420     0.9680 C.3   1 <1>   0.1960 
  9 C        2.0460     1.7880    -0.3090 C.3   1 <1>   0.1960 
 10 C       -1.7140    -2.4010    -0.0280 C.3   1 <1>   0.1200 
 11 C       -2.3850    -0.5520    -1.2950 C.3   1 <1>   0.1200 
 12 C        3.8850    -0.3830    -0.0250 C.3   1 <1>   0.1960 
 13 C        3.2090     1.5490    -1.2910 C.3   1 <1>   0.1960 
 14 O       -2.0160    -1.9030    -1.3020 O.3   1 <1>  -0.5600 
 15 N        4.3420     0.8760    -0.6360 N.am  1 <1>  -0.8490 
 16 S        5.6240     0.6390    -1.7210 S.o2  1 <1>   1.4470 
 17 O        5.1390    -0.3890    -2.6180 O.2   1 <1>  -0.6500 
 18 O        5.9160     1.9380    -2.2890 O.2   1 <1>  -0.6500 
 19 C        7.0110     0.0860    -0.6470 C.ar  1 <1>  -0.0090 
 20 C        7.4240     0.8670     0.4440 C.ar  1 <1>  -0.1430 
 21 C        7.6960    -1.1200    -0.8670 C.ar  1 <1>  -0.1430 
 22 C        8.4400     0.4390     1.2850 C.ar  1 <1>  -0.1500 
 23 C        6.8020     2.2220     0.7770 C.3   1 <1>  -0.0970 
 24 C        8.7080    -1.5290    -0.0120 C.ar  1 <1>  -0.1500 
 25 C        7.3960    -2.0500    -2.0380 C.3   1 <1>  -0.0970 
 26 C        9.0850    -0.7590     1.0670 C.ar  1 <1>  -0.1430 
 27 C       10.1930    -1.2180     1.9970 C.3   1 <1>  -0.0970 
 28 H       -0.4050    -1.9500     1.6130 H     1 <1>   0.0800 
 29 H        0.3330    -1.7690     0.0420 H     1 <1>   0.0800 
 30 H       -0.4130     0.2860    -1.3600 H     1 <1>   0.0800 
 31 H       -1.6030     1.3340    -0.6300 H     1 <1>   0.0800 
 32 H        2.4120    -1.0910     1.3610 H     1 <1>   0.0800 
 33 H        3.0980     0.4500     1.7910 H     1 <1>   0.0800 
 34 H        2.3650     2.4880     0.4450 H     1 <1>   0.0800 
 35 H        1.2280     2.2340    -0.8490 H     1 <1>   0.0800 
 36 H       -2.5970    -2.3420     0.5840 H     1 <1>   0.0800 
 37 H       -1.4340    -3.4330    -0.1360 H     1 <1>   0.0800 
 38 H       -2.5840    -0.2590    -2.3100 H     1 <1>   0.0800 
 39 H       -3.2880    -0.4440    -0.7190 H     1 <1>   0.0800 
 40 H        3.5470    -1.0670    -0.7870 H     1 <1>   0.0800 
 41 H        4.7020    -0.8470     0.5000 H     1 <1>   0.0800 
 42 H        3.5320     2.5000    -1.6790 H     1 <1>   0.0800 
 43 H        2.8570     0.9560    -2.1190 H     1 <1>   0.0800 
 44 H        8.7390     1.0440     2.1220 H     1 <1>   0.1500 
 45 H        5.8120     2.0940     1.1750 H     1 <1>   0.0800 
 46 H        6.7570     2.8500    -0.0930 H     1 <1>   0.0800 
 47 H        7.3860     2.7450     1.5130 H     1 <1>   0.0800 
 48 H        9.2180    -2.4610    -0.1860 H     1 <1>   0.1500 
 49 H        6.4230    -2.4930    -1.9250 H     1 <1>   0.0800 
 50 H        8.1150    -2.8470    -2.1020 H     1 <1>   0.0800 
 51 H        7.4350    -1.5090    -2.9670 H     1 <1>   0.0800 
 52 H       10.7360    -0.3730     2.3800 H     1 <1>   0.0800 
 53 H       10.8850    -1.8550     1.4760 H     1 <1>   0.0800 
 54 H        9.7730    -1.7640     2.8220 H     1 <1>   0.0800 
@<TRIPOS>BOND
  1   1   2  2   
  2   1   3  2   
  3   1   4  am  
  4   1   5  am  
  5   4   6  1   
  6   4   7  1   
  7   5   8  1   
  8   5   9  1   
  9   6  10  1   
 10   6  28  1   
 11   6  29  1   
 12   7  11  1   
 13   7  30  1   
 14   7  31  1   
 15   8  12  1   
 16   8  32  1   
 17   8  33  1   
 18   9  13  1   
 19   9  34  1   
 20   9  35  1   
 21  10  14  1   
 22  10  36  1   
 23  10  37  1   
 24  11  14  1   
 25  11  38  1   
 26  11  39  1   
 27  12  15  1   
 28  12  40  1   
 29  12  41  1   
 30  13  15  1   
 31  13  42  1   
 32  13  43  1   
 33  15  16  am  
 34  16  17  2   
 35  16  18  2   
 36  16  19  1   
 37  19  20  ar  
 38  19  21  ar  
 39  20  22  ar  
 40  20  23  1   
 41  21  24  ar  
 42  21  25  1   
 43  22  26  ar  
 44  22  44  1   
 45  23  45  1   
 46  23  46  1   
 47  23  47  1   
 48  24  26  ar  
 49  24  48  1   
 50  25  49  1   
 51  25  50  1   
 52  25  51  1   
 53  26  27  1   
 54  27  52  1   
 55  27  53  1   
 56  27  54  1   
@<TRIPOS>SUBSTRUCTURE
  1 ****  12 GROUP 4 **** **** 0

# MOE 2024.06 (io_trps.svl 2023.06)
