@<TRIPOS>MOLECULE
1-Benzo[1,3]dioxol-5-ylmethyl-4-(4-methoxy-2,5-dimethyl-benzenesulfonyl)-piperaz
56 59 1 0 0 
SMALL
USER_CHARGES


@<TRIPOS>ATOM
  1 S       -0.7010     0.3210     1.6360 S.o2  1 <1>   1.4470 
  2 O       -1.0850     1.3250     2.6020 O.2   1 <1>  -0.6500 
  3 O       -0.7240    -1.0720     2.0280 O.2   1 <1>  -0.6500 
  4 N       -1.8680     0.4050     0.4030 N.am  1 <1>  -0.8490 
  5 C        0.8570     0.7440     0.7940 C.ar  1 <1>  -0.0090 
  6 C       -1.6570    -0.6290    -0.6310 C.3   1 <1>   0.1960 
  7 C       -3.2230     0.3490     0.9880 C.3   1 <1>   0.1960 
  8 C        1.1410     2.0170     0.2920 C.ar  1 <1>  -0.1440 
  9 C        1.8100    -0.2530     0.6090 C.ar  1 <1>  -0.1500 
 10 C       -2.7580    -0.6060    -1.7180 C.3   1 <1>   0.3430 
 11 C       -4.3320     0.3710    -0.0850 C.3   1 <1>   0.3430 
 12 C        2.3330     2.2560    -0.3740 C.ar  1 <1>  -0.1500 
 13 C        0.1700     3.1810     0.4630 C.3   1 <1>  -0.0970 
 14 C        3.0020    -0.0230    -0.0560 C.ar  1 <1>  -0.1440 
 15 N       -4.1450    -0.6960    -1.1370 N.4   1 <1>  -0.9590 
 16 C        3.2690     1.2440    -0.5570 C.ar  1 <1>   0.0820 
 17 C        4.0090    -1.1520    -0.2270 C.3   1 <1>  -0.0970 
 18 C       -4.4420    -2.0630    -0.6100 C.3   1 <1>   0.4860 
 19 O        4.4480     1.4320    -1.2050 O.3   1 <1>  -0.3630 
 20 C       -5.8770    -2.1020    -0.1260 C.ar  1 <1>  -0.1430 
 21 C        4.8460     2.6980    -1.6810 C.3   1 <1>   0.0400 
 22 C       -6.9240    -2.0530    -1.0440 C.ar  1 <1>  -0.1500 
 23 C       -6.1510    -2.1810     1.2420 C.ar  1 <1>  -0.1500 
 24 C       -8.2160    -2.0680    -0.5590 C.ar  1 <1>   0.0820 
 25 C       -7.4600    -2.1980     1.7060 C.ar  1 <1>  -0.1500 
 26 O       -9.3570    -2.0210    -1.2520 O.3   1 <1>  -0.3620 
 27 C       -8.4780    -2.1370     0.7770 C.ar  1 <1>   0.0820 
 28 C      -10.4170    -2.0830    -0.2970 C.3   1 <1>   0.4000 
 29 O       -9.7970    -2.1380     0.9870 O.3   1 <1>  -0.3620 
 30 H       -1.6280    -1.6080    -0.1830 H     1 <1>   0.0800 
 31 H       -0.7050    -0.4640    -1.1080 H     1 <1>   0.0800 
 32 H       -3.3660     1.1990     1.6350 H     1 <1>   0.0800 
 33 H       -3.3250    -0.5350     1.5950 H     1 <1>   0.0800 
 34 H        1.6170    -1.2380     1.0000 H     1 <1>   0.1500 
 35 H       -2.5930    -1.4150    -2.4100 H     1 <1>   0.0800 
 36 H       -2.6600     0.3170    -2.2670 H     1 <1>   0.0800 
 37 H       -4.3160     1.3410    -0.5550 H     1 <1>   0.0800 
 38 H       -5.2920     0.2610     0.3920 H     1 <1>   0.0800 
 39 H        2.5290     3.2430    -0.7480 H     1 <1>   0.1500 
 40 H        0.5170     4.0570    -0.0550 H     1 <1>   0.0800 
 41 H       -0.8000     2.9300     0.0750 H     1 <1>   0.0800 
 42 H        0.0750     3.4310     1.5050 H     1 <1>   0.0800 
 43 H       -4.8360    -0.5170    -1.8770 H     1 <1>   0.4500 
 44 H        3.6600    -2.0630     0.2230 H     1 <1>   0.0800 
 45 H        4.9410    -0.8780     0.2340 H     1 <1>   0.0800 
 46 H        4.1840    -1.3290    -1.2730 H     1 <1>   0.0800 
 47 H       -3.7760    -2.3050     0.2030 H     1 <1>   0.0800 
 48 H       -4.3100    -2.7980    -1.3880 H     1 <1>   0.0800 
 49 H        5.8190     2.5960    -2.1250 H     1 <1>   0.0800 
 50 H        4.8930     3.3830    -0.8520 H     1 <1>   0.0800 
 51 H        4.1400     3.0320    -2.4200 H     1 <1>   0.0800 
 52 H       -6.7710    -2.0080    -2.1080 H     1 <1>   0.1500 
 53 H       -5.3530    -2.2360     1.9640 H     1 <1>   0.1500 
 54 H       -7.6920    -2.2600     2.7560 H     1 <1>   0.1500 
 55 H      -10.9960    -2.9750    -0.4570 H     1 <1>   0.0800 
 56 H      -11.0230    -1.1970    -0.3690 H     1 <1>   0.0800 
@<TRIPOS>BOND
  1   1   2  2   
  2   1   3  2   
  3   1   4  am  
  4   1   5  1   
  5   4   6  1   
  6   4   7  1   
  7   5   8  ar  
  8   5   9  ar  
  9   6  10  1   
 10   6  30  1   
 11   6  31  1   
 12   7  11  1   
 13   7  32  1   
 14   7  33  1   
 15   8  12  ar  
 16   8  13  1   
 17   9  14  ar  
 18   9  34  1   
 19  10  15  1   
 20  10  35  1   
 21  10  36  1   
 22  11  15  1   
 23  11  37  1   
 24  11  38  1   
 25  12  16  ar  
 26  12  39  1   
 27  13  40  1   
 28  13  41  1   
 29  13  42  1   
 30  14  16  ar  
 31  14  17  1   
 32  15  18  1   
 33  15  43  1   
 34  16  19  1   
 35  17  44  1   
 36  17  45  1   
 37  17  46  1   
 38  18  20  1   
 39  18  47  1   
 40  18  48  1   
 41  19  21  1   
 42  20  22  ar  
 43  20  23  ar  
 44  21  49  1   
 45  21  50  1   
 46  21  51  1   
 47  22  24  ar  
 48  22  52  1   
 49  23  25  ar  
 50  23  53  1   
 51  24  26  1   
 52  24  27  ar  
 53  25  27  ar  
 54  25  54  1   
 55  26  28  1   
 56  27  29  1   
 57  28  29  1   
 58  28  55  1   
 59  28  56  1   
@<TRIPOS>SUBSTRUCTURE
  1 ****   4 GROUP 4 **** **** 0

# MOE 2024.06 (io_trps.svl 2023.06)
