@<TRIPOS>MOLECULE
4-Chloro-N-(2-cyclohex-1-enyl-ethyl)-3-(morpholine-4-sulfonyl)-benzamide
52 54 1 0 0 
SMALL
USER_CHARGES


@<TRIPOS>ATOM
  1 CL       0.3690     0.9170    -1.7000 Cl    1 <1>  -0.1770 
  2 C        1.7270    -0.0130    -1.1240 C.ar  1 <1>   0.1770 
  3 C        1.7030    -1.4010    -1.0530 C.ar  1 <1>  -0.0090 
  4 C        2.8330     0.7130    -0.7210 C.ar  1 <1>  -0.1500 
  5 S        0.2770    -2.4060    -1.5470 S.o2  1 <1>   1.4470 
  6 C        2.8340    -2.0240    -0.5390 C.ar  1 <1>  -0.1500 
  7 C        3.9440     0.0600    -0.2230 C.ar  1 <1>  -0.1500 
  8 O        0.7680    -3.7240    -1.8850 O.2   1 <1>  -0.6500 
  9 O       -0.5900    -1.7440    -2.4950 O.2   1 <1>  -0.6500 
 10 N       -0.5920    -2.5760    -0.1010 N.am  1 <1>  -0.8490 
 11 C        3.9700    -1.3300    -0.1200 C.ar  1 <1>   0.0860 
 12 C       -1.3920    -1.3860     0.2370 C.3   1 <1>   0.1960 
 13 C       -1.4700    -3.7560    -0.1340 C.3   1 <1>   0.1960 
 14 C        5.1210    -2.0400     0.4100 C.2   1 <1>   0.5440 
 15 C       -2.1740    -1.5960     1.5470 C.3   1 <1>   0.1200 
 16 C       -2.2560    -3.9060     1.1810 C.3   1 <1>   0.1200 
 17 O        4.9720    -3.0760     1.0260 O.2   1 <1>  -0.5700 
 18 N        6.3870    -1.5660     0.2130 N.am  1 <1>  -0.7300 
 19 O       -2.9760    -2.7390     1.4630 O.3   1 <1>  -0.5600 
 20 C        7.6220    -2.2160     0.7180 C.3   1 <1>   0.1400 
 21 C        8.2640    -3.0500    -0.3930 C.3   1 <1>  -0.0220 
 22 C        9.5670    -3.6870     0.0720 C.2   1 <1>  -0.2760 
 23 C       10.7670    -3.2420    -0.3140 C.2   1 <1>  -0.2880 
 24 C        9.3940    -4.8900     0.9980 C.3   1 <1>  -0.0220 
 25 C       12.0890    -3.8700     0.0970 C.3   1 <1>  -0.0220 
 26 C       10.7100    -5.2690     1.6930 C.3   1 <1>  -0.1600 
 27 C       11.8820    -5.2650     0.7030 C.3   1 <1>  -0.1600 
 28 H        2.8170     1.7870    -0.7930 H     1 <1>   0.1500 
 29 H        2.8420    -3.1000    -0.4530 H     1 <1>   0.1500 
 30 H        4.7940     0.6350     0.1010 H     1 <1>   0.1500 
 31 H       -2.0920    -1.1670    -0.5530 H     1 <1>   0.0800 
 32 H       -0.7460    -0.5350     0.3580 H     1 <1>   0.0800 
 33 H       -0.8800    -4.6450    -0.2820 H     1 <1>   0.0800 
 34 H       -2.1640    -3.6770    -0.9560 H     1 <1>   0.0800 
 35 H       -2.8180    -0.7560     1.7350 H     1 <1>   0.0800 
 36 H       -1.4980    -1.7090     2.3760 H     1 <1>   0.0800 
 37 H       -1.5850    -4.1040     1.9990 H     1 <1>   0.0800 
 38 H       -2.9600    -4.7150     1.1050 H     1 <1>   0.0800 
 39 H        6.5360    -0.7790    -0.4190 H     1 <1>   0.3700 
 40 H        7.3820    -2.8440     1.5580 H     1 <1>   0.0800 
 41 H        8.3140    -1.4620     1.0520 H     1 <1>   0.0800 
 42 H        8.4660    -2.4100    -1.2330 H     1 <1>   0.0800 
 43 H        7.5800    -3.8180    -0.7110 H     1 <1>   0.0800 
 44 H       10.8970    -2.3880    -0.9570 H     1 <1>   0.1500 
 45 H        9.0430    -5.7230     0.4140 H     1 <1>   0.0800 
 46 H        8.6570    -4.6860     1.7540 H     1 <1>   0.0800 
 47 H       12.5690    -3.2270     0.8150 H     1 <1>   0.0800 
 48 H       12.7320    -3.9520    -0.7610 H     1 <1>   0.0800 
 49 H       10.6120    -6.2400     2.1440 H     1 <1>   0.0800 
 50 H       10.9110    -4.5570     2.4750 H     1 <1>   0.0800 
 51 H       12.7850    -5.5810     1.1960 H     1 <1>   0.0800 
 52 H       11.6730    -5.9630    -0.0890 H     1 <1>   0.0800 
@<TRIPOS>BOND
  1   1   2  1   
  2   2   3  ar  
  3   2   4  ar  
  4   3   5  1   
  5   3   6  ar  
  6   4   7  ar  
  7   4  28  1   
  8   5   8  2   
  9   5   9  2   
 10   5  10  am  
 11   6  11  ar  
 12   6  29  1   
 13   7  11  ar  
 14   7  30  1   
 15  10  12  1   
 16  10  13  1   
 17  11  14  1   
 18  12  15  1   
 19  12  31  1   
 20  12  32  1   
 21  13  16  1   
 22  13  33  1   
 23  13  34  1   
 24  14  17  2   
 25  14  18  am  
 26  15  19  1   
 27  15  35  1   
 28  15  36  1   
 29  16  19  1   
 30  16  37  1   
 31  16  38  1   
 32  18  20  1   
 33  18  39  1   
 34  20  21  1   
 35  20  40  1   
 36  20  41  1   
 37  21  22  1   
 38  21  42  1   
 39  21  43  1   
 40  22  23  2   
 41  22  24  1   
 42  23  25  1   
 43  23  44  1   
 44  24  26  1   
 45  24  45  1   
 46  24  46  1   
 47  25  27  1   
 48  25  47  1   
 49  25  48  1   
 50  26  27  1   
 51  26  49  1   
 52  26  50  1   
 53  27  51  1   
 54  27  52  1   
@<TRIPOS>SUBSTRUCTURE
  1 ****  11 GROUP 4 **** **** 0

# MOE 2024.06 (io_trps.svl 2023.06)
