@<TRIPOS>MOLECULE
N-Isopropyl-4-(3-p-tolyl-[1,2,4]oxadiazol-5-yl)-butyramide
42 43 1 0 0 
SMALL
USER_CHARGES


@<TRIPOS>ATOM
  1 O       -0.0570    -1.8790    -0.4580 O.2   1 <1>  -0.5700 
  2 C       -1.1890    -2.2180    -0.2300 C.2   1 <1>   0.5690 
  3 N       -1.6450    -3.4060    -0.6950 N.am  1 <1>  -0.7300 
  4 C       -2.0830    -1.2910     0.5730 C.3   1 <1>  -0.0990 
  5 C       -2.9760    -4.0160    -0.5640 C.3   1 <1>   0.2200 
  6 C       -2.9950    -0.4470    -0.3420 C.3   1 <1>  -0.1600 
  7 C       -2.8270    -5.3390     0.1780 C.3   1 <1>  -0.2400 
  8 C       -3.5510    -4.2250    -1.9600 C.3   1 <1>  -0.2400 
  9 C       -4.2460     0.0830     0.3770 C.3   1 <1>   0.0200 
 10 C       -5.1550    -1.0600     0.7930 C.2   1 <1>   0.2980 
 11 O       -5.2460    -1.3710     2.0590 O.3   1 <1>  -0.0190 
 12 N       -5.8230    -1.7930     0.0030 N.2   1 <1>  -0.5650 
 13 N       -6.0240    -2.4060     2.0740 N.2   1 <1>  -0.4100 
 14 C       -6.3680    -2.6610     0.8600 C.2   1 <1>   0.4620 
 15 C       -7.2070    -3.7660     0.4260 C.ar  1 <1>   0.0540 
 16 C       -7.5480    -3.9470    -0.9150 C.ar  1 <1>  -0.1500 
 17 C       -7.6990    -4.7020     1.3370 C.ar  1 <1>  -0.1500 
 18 C       -8.3330    -5.0090    -1.3270 C.ar  1 <1>  -0.1500 
 19 C       -8.4840    -5.7660     0.9300 C.ar  1 <1>  -0.1500 
 20 C       -8.8040    -5.9280    -0.4060 C.ar  1 <1>  -0.1430 
 21 C       -9.6670    -7.0930    -0.8550 C.3   1 <1>  -0.0970 
 22 H       -0.9670    -3.9550    -1.2240 H     1 <1>   0.3700 
 23 H       -1.4630    -0.6360     1.1590 H     1 <1>   0.0800 
 24 H       -2.6490    -1.8860     1.2630 H     1 <1>   0.0800 
 25 H       -3.6340    -3.3740    -0.0070 H     1 <1>   0.0800 
 26 H       -3.3160    -1.0450    -1.1790 H     1 <1>   0.0800 
 27 H       -2.4260     0.3760    -0.7390 H     1 <1>   0.0800 
 28 H       -2.1870    -6.0120    -0.3650 H     1 <1>   0.0800 
 29 H       -3.7910    -5.8010     0.2950 H     1 <1>   0.0800 
 30 H       -2.4160    -5.1670     1.1560 H     1 <1>   0.0800 
 31 H       -2.9230    -4.8760    -2.5400 H     1 <1>   0.0800 
 32 H       -3.6470    -3.2790    -2.4630 H     1 <1>   0.0800 
 33 H       -4.5300    -4.6650    -1.8870 H     1 <1>   0.0800 
 34 H       -4.7940     0.7230    -0.2910 H     1 <1>   0.0800 
 35 H       -3.9660     0.6620     1.2390 H     1 <1>   0.0800 
 36 H       -7.1940    -3.2450    -1.6500 H     1 <1>   0.1500 
 37 H       -7.4630    -4.5970     2.3810 H     1 <1>   0.1500 
 38 H       -8.5770    -5.1160    -2.3700 H     1 <1>   0.1500 
 39 H       -8.8460    -6.4680     1.6610 H     1 <1>   0.1500 
 40 H       -9.4060    -7.3900    -1.8550 H     1 <1>   0.0800 
 41 H      -10.7030    -6.8060    -0.8370 H     1 <1>   0.0800 
 42 H       -9.5290    -7.9370    -0.2040 H     1 <1>   0.0800 
@<TRIPOS>BOND
  1   1   2  2   
  2   2   3  am  
  3   2   4  1   
  4   3   5  1   
  5   3  22  1   
  6   4   6  1   
  7   4  23  1   
  8   4  24  1   
  9   5   7  1   
 10   5   8  1   
 11   5  25  1   
 12   6   9  1   
 13   6  26  1   
 14   6  27  1   
 15   7  28  1   
 16   7  29  1   
 17   7  30  1   
 18   8  31  1   
 19   8  32  1   
 20   8  33  1   
 21   9  10  1   
 22   9  34  1   
 23   9  35  1   
 24  10  11  1   
 25  10  12  2   
 26  11  13  1   
 27  12  14  1   
 28  13  14  2   
 29  14  15  1   
 30  15  16  ar  
 31  15  17  ar  
 32  16  18  ar  
 33  16  36  1   
 34  17  19  ar  
 35  17  37  1   
 36  18  20  ar  
 37  18  38  1   
 38  19  20  ar  
 39  19  39  1   
 40  20  21  1   
 41  21  40  1   
 42  21  41  1   
 43  21  42  1   
@<TRIPOS>SUBSTRUCTURE
  1 ****  14 GROUP 4 **** **** 0

# MOE 2024.06 (io_trps.svl 2023.06)
