@<TRIPOS>MOLECULE
N-[5-Chloro-2-(4-propionyl-piperazin-1-yl)-phenyl]-2-(4-methoxy-phenoxy)-acetami
56 58 1 0 0 
SMALL
USER_CHARGES


@<TRIPOS>ATOM
  1 CL      -0.4800     0.6600    -1.4820 Cl    1 <1>  -0.1770 
  2 C       -1.4170     2.0630    -1.0280 C.ar  1 <1>   0.1770 
  3 C       -2.7350     1.9050    -0.6480 C.ar  1 <1>  -0.1500 
  4 C       -0.8190     3.3090    -1.0580 C.ar  1 <1>  -0.1500 
  5 C       -3.4790     3.0180    -0.2850 C.ar  1 <1>   0.1170 
  6 C       -1.5600     4.4220    -0.6980 C.ar  1 <1>  -0.1500 
  7 N       -4.8220     2.9620     0.1190 N.am  1 <1>  -0.5470 
  8 C       -2.8880     4.2920    -0.3070 C.ar  1 <1>   0.1000 
  9 C       -5.7750     1.9880     0.1400 C.2   1 <1>   0.5690 
 10 N       -3.6520     5.4160     0.0570 N.pl3 1 <1>  -0.8380 
 11 O       -5.5690     0.8440    -0.1890 O.2   1 <1>  -0.5700 
 12 C       -7.1680     2.3670     0.6210 C.3   1 <1>   0.1810 
 13 C       -3.0690     6.3880     1.0340 C.3   1 <1>   0.2090 
 14 C       -4.3960     6.0930    -1.0460 C.3   1 <1>   0.2090 
 15 O       -7.4810     3.7130     0.2760 O.3   1 <1>  -0.3630 
 16 C       -4.1660     7.2970     1.6130 C.3   1 <1>   0.1400 
 17 C       -5.5040     7.0000    -0.4790 C.3   1 <1>   0.1400 
 18 C       -8.7180     4.2120     0.5330 C.ar  1 <1>   0.0830 
 19 N       -4.9510     7.9670     0.5240 N.am  1 <1>  -0.6600 
 20 C       -9.1030     5.3380    -0.1790 C.ar  1 <1>  -0.1500 
 21 C       -9.5950     3.6550     1.4590 C.ar  1 <1>  -0.1500 
 22 C       -5.0680     9.3330     0.4730 C.2   1 <1>   0.5690 
 23 C      -10.3460     5.9100     0.0250 C.ar  1 <1>  -0.1500 
 24 C      -10.8380     4.2270     1.6610 C.ar  1 <1>  -0.1500 
 25 O       -4.4910    10.0410     1.2650 O.2   1 <1>  -0.5700 
 26 C       -5.9340     9.9890    -0.6010 C.3   1 <1>  -0.0990 
 27 C      -11.2230     5.3530     0.9520 C.ar  1 <1>   0.0830 
 28 C       -6.1280    11.5080    -0.4400 C.3   1 <1>  -0.2400 
 29 O      -12.4610     5.8470     1.2170 O.3   1 <1>  -0.3620 
 30 C      -12.9530     6.9850     0.5450 C.3   1 <1>   0.0400 
 31 H       -3.1650     0.9210    -0.6360 H     1 <1>   0.1500 
 32 H        0.2080     3.4010    -1.3610 H     1 <1>   0.1500 
 33 H       -1.1060     5.3950    -0.7260 H     1 <1>   0.1500 
 34 H       -5.1400     3.8980     0.3910 H     1 <1>   0.3700 
 35 H       -7.2050     2.2680     1.6890 H     1 <1>   0.0800 
 36 H       -7.8950     1.7210     0.1630 H     1 <1>   0.0800 
 37 H       -2.3300     6.9990     0.5450 H     1 <1>   0.0800 
 38 H       -2.5890     5.8500     1.8320 H     1 <1>   0.0800 
 39 H       -4.8340     5.3520    -1.6920 H     1 <1>   0.0800 
 40 H       -3.7120     6.6850    -1.6300 H     1 <1>   0.0800 
 41 H       -3.7100     8.0260     2.2600 H     1 <1>   0.0800 
 42 H       -4.8340     6.7030     2.2110 H     1 <1>   0.0800 
 43 H       -6.2420     6.3840     0.0040 H     1 <1>   0.0800 
 44 H       -5.9810     7.5120    -1.2930 H     1 <1>   0.0800 
 45 H       -8.4280     5.7600    -0.8990 H     1 <1>   0.1500 
 46 H       -9.3340     2.7870     2.0340 H     1 <1>   0.1500 
 47 H      -10.6150     6.7810    -0.5420 H     1 <1>   0.1500 
 48 H      -11.5230     3.8040     2.3750 H     1 <1>   0.1500 
 49 H       -6.9020     9.5230    -0.5840 H     1 <1>   0.0800 
 50 H       -5.4820     9.8010    -1.5570 H     1 <1>   0.0800 
 51 H       -6.5870    11.7230     0.5090 H     1 <1>   0.0800 
 52 H       -6.7560    11.8910    -1.2250 H     1 <1>   0.0800 
 53 H       -5.1770    12.0100    -0.4810 H     1 <1>   0.0800 
 54 H      -13.9420     7.1880     0.9160 H     1 <1>   0.0800 
 55 H      -12.9950     6.7780    -0.5090 H     1 <1>   0.0800 
 56 H      -12.3080     7.8200     0.7510 H     1 <1>   0.0800 
@<TRIPOS>BOND
  1   1   2  1   
  2   2   3  ar  
  3   2   4  ar  
  4   3   5  ar  
  5   3  31  1   
  6   4   6  ar  
  7   4  32  1   
  8   5   7  1   
  9   5   8  ar  
 10   6   8  ar  
 11   6  33  1   
 12   7   9  am  
 13   7  34  1   
 14   8  10  1   
 15   9  11  2   
 16   9  12  1   
 17  10  13  1   
 18  10  14  1   
 19  12  15  1   
 20  12  35  1   
 21  12  36  1   
 22  13  16  1   
 23  13  37  1   
 24  13  38  1   
 25  14  17  1   
 26  14  39  1   
 27  14  40  1   
 28  15  18  1   
 29  16  19  1   
 30  16  41  1   
 31  16  42  1   
 32  17  19  1   
 33  17  43  1   
 34  17  44  1   
 35  18  20  ar  
 36  18  21  ar  
 37  19  22  am  
 38  20  23  ar  
 39  20  45  1   
 40  21  24  ar  
 41  21  46  1   
 42  22  25  2   
 43  22  26  1   
 44  23  27  ar  
 45  23  47  1   
 46  24  27  ar  
 47  24  48  1   
 48  26  28  1   
 49  26  49  1   
 50  26  50  1   
 51  27  29  1   
 52  28  51  1   
 53  28  52  1   
 54  28  53  1   
 55  29  30  1   
 56  30  54  1   
 57  30  55  1   
 58  30  56  1   
@<TRIPOS>SUBSTRUCTURE
  1 ****  17 GROUP 4 **** **** 0

# MOE 2024.06 (io_trps.svl 2023.06)
