@<TRIPOS>MOLECULE
2-[8-(3,5-Dimethyl-phenyl)-1,6,7-trimethyl-2,4-dioxo-1,2,4,8-tetrahydro-imidazo[
52 55 1 0 0 
SMALL
USER_CHARGES


@<TRIPOS>ATOM
  1 O        0.8720     0.1540    -1.2860 O.2   1 <1>  -0.5740 
  2 C        1.8470     0.8490    -1.0860 C.2   1 <1>   0.6860 
  3 N        1.6900     2.2150    -0.9000 N.am  1 <1>  -0.4260 
  4 N        3.1110     0.2770    -1.0330 N.am  1 <1>  -0.4410 
  5 C        2.7820     3.0470    -0.7140 C.2   1 <1>   0.6990 
  6 C        0.3710     2.6920    -0.3740 C.3   1 <1>   0.1940 
  7 C        4.1800     1.0960    -0.7290 C.2   1 <1>   0.4210 
  8 C        3.2850    -1.1950    -1.2090 C.3   1 <1>   0.0520 
  9 O        2.6330     4.2580    -0.6810 O.2   1 <1>  -0.5740 
 10 C        4.0650     2.4390    -0.5740 C.2   1 <1>   0.2710 
 11 C        0.2840     2.4800     1.1410 C.2   1 <1>   0.5640 
 12 N        5.4800     0.7290    -0.5360 N.pl3 1 <1>  -0.7040 
 13 N        5.3540     2.9130    -0.2800 N.pl3 1 <1>  -0.6330 
 14 O        1.2910     2.2690     1.7760 O.2   1 <1>  -0.5740 
 15 N       -0.9070     2.5230     1.7710 N.am  1 <1>  -0.8030 
 16 C        6.1470     1.8530    -0.2600 C.cat 1 <1>   1.0690 
 17 C        6.1410     4.0010     0.0400 C.2   1 <1>   0.2340 
 18 N        7.4080     2.1700     0.0380 N.pl3 1 <1>  -0.5550 
 19 C        7.4010     3.5440     0.2330 C.2   1 <1>   0.1580 
 20 C        5.5410     5.3900     0.1210 C.3   1 <1>  -0.1090 
 21 C        8.4720     1.2650     0.1460 C.ar  1 <1>   0.3050 
 22 C        8.6770     4.2820     0.6020 C.3   1 <1>  -0.1090 
 23 C        9.2410     0.9590    -0.9660 C.ar  1 <1>  -0.1570 
 24 C        8.7390     0.6480     1.3580 C.ar  1 <1>  -0.1570 
 25 C       10.2630     0.0310    -0.8750 C.ar  1 <1>  -0.1510 
 26 C        9.7580    -0.2820     1.4600 C.ar  1 <1>  -0.1510 
 27 C       10.5130    -0.5870     0.3390 C.ar  1 <1>  -0.1570 
 28 C       11.1120    -0.3160    -2.0850 C.3   1 <1>  -0.1040 
 29 C       10.0640    -0.9690     2.7790 C.3   1 <1>  -0.1040 
 30 H       -0.4310     2.1620    -0.8540 H     1 <1>   0.0720 
 31 H        0.2440     3.7380    -0.5880 H     1 <1>   0.0720 
 32 H        2.4960    -1.5960    -1.8230 H     1 <1>   0.0720 
 33 H        3.2520    -1.6800    -0.2490 H     1 <1>   0.0720 
 34 H        4.2230    -1.4100    -1.6890 H     1 <1>   0.0720 
 35 H        5.8960    -0.2010    -0.5510 H     1 <1>   0.4450 
 36 H       -0.9400     2.3680     2.7810 H     1 <1>   0.3640 
 37 H       -1.8090     2.6660     1.3140 H     1 <1>   0.3640 
 38 H        5.1140     5.6630    -0.8280 H     1 <1>   0.0720 
 39 H        6.2870     6.1180     0.3840 H     1 <1>   0.0720 
 40 H        4.7640     5.4110     0.8640 H     1 <1>   0.0720 
 41 H        9.0670     3.9020     1.5300 H     1 <1>   0.0720 
 42 H        8.4960     5.3350     0.7140 H     1 <1>   0.0720 
 43 H        9.4180     4.1420    -0.1650 H     1 <1>   0.0720 
 44 H        9.0400     1.4470    -1.9020 H     1 <1>   0.1430 
 45 H        8.1510     0.8950     2.2230 H     1 <1>   0.1430 
 46 H       11.3070    -1.3110     0.4140 H     1 <1>   0.1430 
 47 H       10.9490     0.3820    -2.8870 H     1 <1>   0.0720 
 48 H       10.8690    -1.3040    -2.4330 H     1 <1>   0.0720 
 49 H       12.1550    -0.2910    -1.8220 H     1 <1>   0.0720 
 50 H        9.4320    -0.5990     3.5670 H     1 <1>   0.0720 
 51 H       11.0880    -0.7930     3.0540 H     1 <1>   0.0720 
 52 H        9.9100    -2.0290     2.6850 H     1 <1>   0.0720 
@<TRIPOS>BOND
  1   1   2  2   
  2   2   3  am  
  3   2   4  am  
  4   3   5  am  
  5   3   6  1   
  6   4   7  1   
  7   4   8  1   
  8   5   9  2   
  9   5  10  1   
 10   6  11  1   
 11   6  30  1   
 12   6  31  1   
 13   7  10  2   
 14   7  12  1   
 15   8  32  1   
 16   8  33  1   
 17   8  34  1   
 18  10  13  1   
 19  11  14  2   
 20  11  15  am  
 21  12  16  ar  
 22  12  35  1   
 23  13  16  ar  
 24  13  17  1   
 25  15  36  1   
 26  15  37  1   
 27  16  18  ar  
 28  17  19  2   
 29  17  20  1   
 30  18  19  1   
 31  18  21  1   
 32  19  22  1   
 33  20  38  1   
 34  20  39  1   
 35  20  40  1   
 36  21  23  ar  
 37  21  24  ar  
 38  22  41  1   
 39  22  42  1   
 40  22  43  1   
 41  23  25  ar  
 42  23  44  1   
 43  24  26  ar  
 44  24  45  1   
 45  25  27  ar  
 46  25  28  1   
 47  26  27  ar  
 48  26  29  1   
 49  27  46  1   
 50  28  47  1   
 51  28  48  1   
 52  28  49  1   
 53  29  50  1   
 54  29  51  1   
 55  29  52  1   
@<TRIPOS>SUBSTRUCTURE
  1 ****  16 GROUP 4 **** **** 0

# MOE 2024.06 (io_trps.svl 2023.06)
