@<TRIPOS>MOLECULE
3-(4-Chloro-benzyl)-1-(4,6-dimethyl-pyrimidin-2-yl)-pyrrolidine-2,5-dione
39 41 1 0 0 
SMALL
USER_CHARGES


@<TRIPOS>ATOM
  1 CL       0.6400     0.2720    -0.5010 Cl    1 <1>  -0.1770 
  2 C        1.9200    -0.8460    -0.1100 C.ar  1 <1>   0.1770 
  3 C        3.0210    -0.9350    -0.9410 C.ar  1 <1>  -0.1500 
  4 C        1.8150    -1.6270     1.0250 C.ar  1 <1>  -0.1500 
  5 C        4.0350    -1.8250    -0.6290 C.ar  1 <1>  -0.1500 
  6 C        2.8330    -2.5150     1.3320 C.ar  1 <1>  -0.1500 
  7 C        3.9440    -2.6210     0.5060 C.ar  1 <1>  -0.1430 
  8 C        5.0550    -3.6030     0.8520 C.3   1 <1>  -0.0160 
  9 C        4.6370    -5.0550     0.5600 C.3   1 <1>  -0.0190 
 10 C        5.7460    -6.0400     0.8800 C.2   1 <1>   0.5690 
 11 C        4.3420    -5.3300    -0.9280 C.3   1 <1>  -0.0990 
 12 O        6.2710    -6.0870     1.9620 O.2   1 <1>  -0.5700 
 13 N        6.0290    -6.8170    -0.1950 N.am  1 <1>  -0.2370 
 14 C        5.2590    -6.4830    -1.2610 C.2   1 <1>   0.5690 
 15 C        7.0000    -7.7830    -0.2160 C.ar  1 <1>   0.7370 
 16 O        5.2660    -6.9970    -2.3480 O.2   1 <1>  -0.5700 
 17 N        6.6260    -9.0090     0.1360 N.ar  1 <1>  -0.6200 
 18 N        8.2170    -7.3910    -0.5850 N.ar  1 <1>  -0.6200 
 19 C        7.5630    -9.9230     0.1110 C.ar  1 <1>   0.1670 
 20 C        9.1370    -8.3230    -0.6010 C.ar  1 <1>   0.1670 
 21 C        8.8540    -9.6240    -0.2560 C.ar  1 <1>  -0.1500 
 22 C        7.1620   -11.3280     0.5060 C.3   1 <1>  -0.0970 
 23 C       10.5300    -7.9040    -1.0190 C.3   1 <1>  -0.0970 
 24 H        3.0790    -0.3130    -1.8160 H     1 <1>   0.1500 
 25 H        0.9500    -1.5360     1.6570 H     1 <1>   0.1500 
 26 H        4.8940    -1.8900    -1.2740 H     1 <1>   0.1500 
 27 H        2.7550    -3.1210     2.2180 H     1 <1>   0.1500 
 28 H        5.2930    -3.5050     1.8970 H     1 <1>   0.0800 
 29 H        5.9470    -3.3610     0.3000 H     1 <1>   0.0800 
 30 H        3.7800    -5.3140     1.1570 H     1 <1>   0.0800 
 31 H        4.5840    -4.4960    -1.5600 H     1 <1>   0.0800 
 32 H        3.3170    -5.6150    -1.0800 H     1 <1>   0.0800 
 33 H        9.6150   -10.3800    -0.2730 H     1 <1>   0.1500 
 34 H        6.3910   -11.6810    -0.1540 H     1 <1>   0.0800 
 35 H        6.7810   -11.3240     1.5110 H     1 <1>   0.0800 
 36 H        7.9990   -12.0000     0.4540 H     1 <1>   0.0800 
 37 H       10.8930    -7.1460    -0.3490 H     1 <1>   0.0800 
 38 H       10.5000    -7.5000    -2.0140 H     1 <1>   0.0800 
 39 H       11.2080    -8.7380    -1.0010 H     1 <1>   0.0800 
@<TRIPOS>BOND
  1   1   2  1   
  2   2   3  ar  
  3   2   4  ar  
  4   3   5  ar  
  5   3  24  1   
  6   4   6  ar  
  7   4  25  1   
  8   5   7  ar  
  9   5  26  1   
 10   6   7  ar  
 11   6  27  1   
 12   7   8  1   
 13   8   9  1   
 14   8  28  1   
 15   8  29  1   
 16   9  10  1   
 17   9  11  1   
 18   9  30  1   
 19  10  12  2   
 20  10  13  am  
 21  11  14  1   
 22  11  31  1   
 23  11  32  1   
 24  13  14  am  
 25  13  15  1   
 26  14  16  2   
 27  15  17  ar  
 28  15  18  ar  
 29  17  19  ar  
 30  18  20  ar  
 31  19  21  ar  
 32  19  22  1   
 33  20  21  ar  
 34  20  23  1   
 35  21  33  1   
 36  22  34  1   
 37  22  35  1   
 38  22  36  1   
 39  23  37  1   
 40  23  38  1   
 41  23  39  1   
@<TRIPOS>SUBSTRUCTURE
  1 ****  10 GROUP 4 **** **** 0

# MOE 2024.06 (io_trps.svl 2023.06)
