@<TRIPOS>MOLECULE
N-(3,4-Dimethoxy-phenyl)-N-[2-(4-ethyl-piperazin-1-yl)-2-oxo-ethyl]-benzenesulfo
61 63 1 0 0 
SMALL
USER_CHARGES


@<TRIPOS>ATOM
  1 S        0.6070    -0.1750    -0.6650 S.o2  1 <1>   1.4470 
  2 O        1.0120     0.4460    -1.9080 O.2   1 <1>  -0.6500 
  3 O        1.5690    -0.9480     0.0850 O.2   1 <1>  -0.6500 
  4 N        0.1140     1.1380     0.3600 N.am  1 <1>  -0.6930 
  5 C       -0.9340    -1.1130    -0.8480 C.ar  1 <1>  -0.0090 
  6 C       -1.0140     1.8960     0.0480 C.ar  1 <1>   0.1990 
  7 C        0.6890     1.1970     1.7450 C.3   1 <1>   0.2570 
  8 C       -1.2420    -2.1620     0.0110 C.ar  1 <1>  -0.1500 
  9 C       -1.8650    -0.7800    -1.8260 C.ar  1 <1>  -0.1500 
 10 C       -2.1250     1.8830     0.8820 C.ar  1 <1>  -0.1500 
 11 C       -1.0610     2.6590    -1.1140 C.ar  1 <1>  -0.1500 
 12 C        2.2240     1.2700     1.8480 C.2   1 <1>   0.5690 
 13 C       -2.4350    -2.8560    -0.1010 C.ar  1 <1>  -0.1500 
 14 C       -3.0600    -1.4680    -1.9450 C.ar  1 <1>  -0.1500 
 15 C       -3.2570     2.6120     0.5700 C.ar  1 <1>   0.0830 
 16 C       -2.1830     3.4050    -1.4290 C.ar  1 <1>  -0.1500 
 17 O        2.7230     0.8190     2.8510 O.2   1 <1>  -0.5700 
 18 N        3.0250     1.8210     0.8710 N.am  1 <1>  -0.6600 
 19 C       -3.3460    -2.5080    -1.0810 C.ar  1 <1>  -0.1500 
 20 O       -4.3120     2.5160     1.4150 O.3   1 <1>  -0.3630 
 21 C       -3.2810     3.3990    -0.5860 C.ar  1 <1>   0.0830 
 22 C        2.5800     2.8220    -0.1460 C.3   1 <1>   0.1400 
 23 C        4.4280     1.3320     0.7070 C.3   1 <1>   0.1400 
 24 C       -5.4540     1.8610     0.9080 C.3   1 <1>   0.0400 
 25 O       -4.3450     4.1680    -0.9370 O.3   1 <1>  -0.3630 
 26 C        3.6070     3.9600    -0.2990 C.3   1 <1>   0.3430 
 27 C        5.4160     2.5000     0.5530 C.3   1 <1>   0.3430 
 28 C       -4.6410     5.2490    -0.0790 C.3   1 <1>   0.0400 
 29 N        4.9990     3.4440    -0.5480 N.4   1 <1>  -0.9590 
 30 C        5.9550     4.5680    -0.7210 C.3   1 <1>   0.3430 
 31 C        7.2450     4.0540    -1.3490 C.3   1 <1>  -0.2400 
 32 H        0.3710     0.3200     2.2810 H     1 <1>   0.0800 
 33 H        0.2900     2.0510     2.2600 H     1 <1>   0.0800 
 34 H       -0.5400    -2.4430     0.7790 H     1 <1>   0.1500 
 35 H       -1.6550     0.0290    -2.5050 H     1 <1>   0.1500 
 36 H       -2.1280     1.2880     1.7760 H     1 <1>   0.1500 
 37 H       -0.2190     2.6710    -1.7810 H     1 <1>   0.1500 
 38 H       -2.6530    -3.6670     0.5730 H     1 <1>   0.1500 
 39 H       -3.7660    -1.1930    -2.7110 H     1 <1>   0.1500 
 40 H       -2.2180     3.9940    -2.3280 H     1 <1>   0.1500 
 41 H       -4.2740    -3.0470    -1.1720 H     1 <1>   0.1500 
 42 H        1.6370     3.2500     0.1440 H     1 <1>   0.0800 
 43 H        2.4480     2.3320    -1.0950 H     1 <1>   0.0800 
 44 H        4.4770     0.6970    -0.1600 H     1 <1>   0.0800 
 45 H        4.7230     0.7360     1.5540 H     1 <1>   0.0800 
 46 H       -6.1730     1.7740     1.7020 H     1 <1>   0.0800 
 47 H       -5.1690     0.8850     0.5580 H     1 <1>   0.0800 
 48 H       -5.8690     2.4400     0.1020 H     1 <1>   0.0800 
 49 H        3.5970     4.5490     0.6030 H     1 <1>   0.0800 
 50 H        3.3020     4.5970    -1.1130 H     1 <1>   0.0800 
 51 H        6.3940     2.1000     0.3470 H     1 <1>   0.0800 
 52 H        5.4650     3.0300     1.4900 H     1 <1>   0.0800 
 53 H       -5.4210     5.8330    -0.5320 H     1 <1>   0.0800 
 54 H       -3.7560     5.8470     0.0450 H     1 <1>   0.0800 
 55 H       -4.9720     4.8710     0.8710 H     1 <1>   0.0800 
 56 H        4.9770     2.9050    -1.4250 H     1 <1>   0.4500 
 57 H        6.1630     5.0320     0.2310 H     1 <1>   0.0800 
 58 H        5.5260     5.3130    -1.3720 H     1 <1>   0.0800 
 59 H        7.7630     3.3780    -0.6940 H     1 <1>   0.0800 
 60 H        7.8990     4.8870    -1.5380 H     1 <1>   0.0800 
 61 H        7.0480     3.5700    -2.2900 H     1 <1>   0.0800 
@<TRIPOS>BOND
  1   1   2  2   
  2   1   3  2   
  3   1   4  am  
  4   1   5  1   
  5   4   6  1   
  6   4   7  1   
  7   5   8  ar  
  8   5   9  ar  
  9   6  10  ar  
 10   6  11  ar  
 11   7  12  1   
 12   7  32  1   
 13   7  33  1   
 14   8  13  ar  
 15   8  34  1   
 16   9  14  ar  
 17   9  35  1   
 18  10  15  ar  
 19  10  36  1   
 20  11  16  ar  
 21  11  37  1   
 22  12  17  2   
 23  12  18  am  
 24  13  19  ar  
 25  13  38  1   
 26  14  19  ar  
 27  14  39  1   
 28  15  20  1   
 29  15  21  ar  
 30  16  21  ar  
 31  16  40  1   
 32  18  22  1   
 33  18  23  1   
 34  19  41  1   
 35  20  24  1   
 36  21  25  1   
 37  22  26  1   
 38  22  42  1   
 39  22  43  1   
 40  23  27  1   
 41  23  44  1   
 42  23  45  1   
 43  24  46  1   
 44  24  47  1   
 45  24  48  1   
 46  25  28  1   
 47  26  29  1   
 48  26  49  1   
 49  26  50  1   
 50  27  29  1   
 51  27  51  1   
 52  27  52  1   
 53  28  53  1   
 54  28  54  1   
 55  28  55  1   
 56  29  30  1   
 57  29  56  1   
 58  30  31  1   
 59  30  57  1   
 60  30  58  1   
 61  31  59  1   
 62  31  60  1   
 63  31  61  1   
@<TRIPOS>SUBSTRUCTURE
  1 ****   4 GROUP 4 **** **** 0

# MOE 2024.06 (io_trps.svl 2023.06)
