@<TRIPOS>MOLECULE
2-Methyl-2-piperidin-1-yl-propylamine
33 33 1 0 0 
SMALL
USER_CHARGES


@<TRIPOS>ATOM
  1 N        0.0580    -0.1210    -0.1280 N.4   1 <1>  -0.9590 
  2 C       -1.3200     0.5030    -0.1280 C.3   1 <1>   0.5030 
  3 C        0.1420    -1.4640     0.5480 C.3   1 <1>   0.3430 
  4 C        1.1490     0.7630     0.4250 C.3   1 <1>   0.3430 
  5 C       -2.4020    -0.4640    -0.7510 C.3   1 <1>   0.3430 
  6 C       -1.7200     0.8660     1.3120 C.3   1 <1>  -0.2400 
  7 C       -1.2620     1.7840    -0.9750 C.3   1 <1>  -0.2400 
  8 C        1.4830    -2.1270     0.2300 C.3   1 <1>  -0.1600 
  9 C        2.5200     0.1620     0.1090 C.3   1 <1>  -0.1600 
 10 N       -3.8190     0.0610    -0.8450 N.4   1 <1>  -0.8530 
 11 C        2.6620    -1.2550     0.6720 C.3   1 <1>  -0.1600 
 12 H        0.3440    -0.2750    -1.1040 H     1 <1>   0.4500 
 13 H       -0.6480    -2.1140     0.2110 H     1 <1>   0.0800 
 14 H        0.0510    -1.3440     1.6160 H     1 <1>   0.0800 
 15 H        1.0420     0.8610     1.4930 H     1 <1>   0.0800 
 16 H        1.1050     1.7470    -0.0100 H     1 <1>   0.0800 
 17 H       -2.4210    -1.3650    -0.1610 H     1 <1>   0.0800 
 18 H       -2.0750    -0.7300    -1.7430 H     1 <1>   0.0800 
 19 H       -1.7930    -0.0080     1.9350 H     1 <1>   0.0800 
 20 H       -2.6750     1.3600     1.3300 H     1 <1>   0.0800 
 21 H       -1.0190     1.5490     1.7580 H     1 <1>   0.0800 
 22 H       -0.9070     1.5760    -1.9700 H     1 <1>   0.0800 
 23 H       -0.6290     2.5320    -0.5310 H     1 <1>   0.0800 
 24 H       -2.2330     2.2380    -1.0580 H     1 <1>   0.0800 
 25 H        1.5500    -2.3300    -0.8250 H     1 <1>   0.0800 
 26 H        1.5370    -3.0740     0.7410 H     1 <1>   0.0800 
 27 H        3.2840     0.7880     0.5370 H     1 <1>   0.0800 
 28 H        2.6760     0.1540    -0.9560 H     1 <1>   0.0800 
 29 H       -4.2190     0.2980     0.0740 H     1 <1>   0.4500 
 30 H       -4.4470    -0.6450    -1.2580 H     1 <1>   0.4500 
 31 H       -3.8950     0.8950    -1.4430 H     1 <1>   0.4500 
 32 H        3.5890    -1.6930     0.3370 H     1 <1>   0.0800 
 33 H        2.6950    -1.2130     1.7490 H     1 <1>   0.0800 
@<TRIPOS>BOND
  1   1   2  1   
  2   1   3  1   
  3   1   4  1   
  4   1  12  1   
  5   2   5  1   
  6   2   6  1   
  7   2   7  1   
  8   3   8  1   
  9   3  13  1   
 10   3  14  1   
 11   4   9  1   
 12   4  15  1   
 13   4  16  1   
 14   5  10  1   
 15   5  17  1   
 16   5  18  1   
 17   6  19  1   
 18   6  20  1   
 19   6  21  1   
 20   7  22  1   
 21   7  23  1   
 22   7  24  1   
 23   8  11  1   
 24   8  25  1   
 25   8  26  1   
 26   9  11  1   
 27   9  27  1   
 28   9  28  1   
 29  10  29  1   
 30  10  30  1   
 31  10  31  1   
 32  11  32  1   
 33  11  33  1   
@<TRIPOS>SUBSTRUCTURE
  1 ****   1 GROUP 4 **** **** 0

# MOE 2024.06 (io_trps.svl 2023.06)
