@<TRIPOS>MOLECULE
1-(4-Ethoxy-3-methyl-benzenesulfonyl)-piperidine-3-carboxylic acid (pyridin-4-yl
56 58 1 0 0 
SMALL
USER_CHARGES


@<TRIPOS>ATOM
  1 S        0.1630    -1.2260     2.0390 S.o2  1 <1>   1.4470 
  2 O       -0.5250    -2.0980     2.9650 O.2   1 <1>  -0.6500 
  3 O        1.3450    -0.5160     2.4850 O.2   1 <1>  -0.6500 
  4 N        0.6500    -2.1870     0.7290 N.am  1 <1>  -0.8490 
  5 C       -1.0230    -0.0720     1.2960 C.ar  1 <1>  -0.0090 
  6 C        1.4950    -1.4660    -0.2500 C.3   1 <1>   0.1960 
  7 C        1.1810    -3.4840     1.1790 C.3   1 <1>   0.1960 
  8 C       -2.0370    -0.5270     0.4630 C.ar  1 <1>  -0.1500 
  9 C       -0.9520     1.2940     1.5440 C.ar  1 <1>  -0.1500 
 10 C        2.9840    -1.7940    -0.0760 C.3   1 <1>  -0.0190 
 11 C        2.0180    -4.1590     0.0860 C.3   1 <1>  -0.1600 
 12 C       -2.9500     0.3400    -0.1170 C.ar  1 <1>  -0.1430 
 13 C       -1.8540     2.1750     0.9760 C.ar  1 <1>  -0.1500 
 14 C        3.8290    -0.9270    -0.9950 C.2   1 <1>   0.5690 
 15 C        3.2340    -3.3010    -0.3130 C.3   1 <1>  -0.1600 
 16 C       -2.8600     1.7040     0.1380 C.ar  1 <1>   0.0820 
 17 C       -4.0400    -0.2080    -1.0260 C.3   1 <1>  -0.0960 
 18 O        3.4850    -0.7590    -2.1400 O.2   1 <1>  -0.5700 
 19 N        4.9560    -0.3600    -0.5040 N.am  1 <1>  -0.7300 
 20 O       -3.7740     2.5180    -0.4510 O.3   1 <1>  -0.3630 
 21 C        5.8820     0.4650    -1.2930 C.3   1 <1>   0.2840 
 22 C       -3.7670     3.9130    -0.2550 C.3   1 <1>   0.1200 
 23 C        7.2610     0.3380    -0.6760 C.ar  1 <1>  -0.1440 
 24 C       -4.9180     4.5080    -1.0590 C.3   1 <1>  -0.2400 
 25 C        7.7140     1.2140     0.2900 C.ar  1 <1>  -0.1500 
 26 C        8.1310    -0.6690    -1.0450 C.ar  1 <1>  -0.1500 
 27 C        8.9810     1.0460     0.8240 C.ar  1 <1>   0.1600 
 28 C        9.3780    -0.7480    -0.4480 C.ar  1 <1>   0.1600 
 29 N        9.8230     0.0860     0.4780 N.ar  1 <1>  -0.6200 
 30 H        1.3420    -0.4020    -0.1730 H     1 <1>   0.0800 
 31 H        1.1930    -1.7580    -1.2420 H     1 <1>   0.0800 
 32 H        0.3590    -4.1220     1.4610 H     1 <1>   0.0800 
 33 H        1.8000    -3.3410     2.0510 H     1 <1>   0.0800 
 34 H       -2.1050    -1.5840     0.2690 H     1 <1>   0.1500 
 35 H       -0.1780     1.6720     2.1910 H     1 <1>   0.1500 
 36 H        3.2510    -1.5510     0.9370 H     1 <1>   0.0800 
 37 H        1.3860    -4.3210    -0.7700 H     1 <1>   0.0800 
 38 H        2.3510    -5.1230     0.4280 H     1 <1>   0.0800 
 39 H       -1.7560     3.2210     1.1980 H     1 <1>   0.1500 
 40 H        4.0980    -3.6010     0.2540 H     1 <1>   0.0800 
 41 H        3.4490    -3.4790    -1.3540 H     1 <1>   0.0800 
 42 H       -3.9710    -1.2760    -1.1210 H     1 <1>   0.0800 
 43 H       -3.9510     0.2310    -2.0040 H     1 <1>   0.0800 
 44 H       -5.0060     0.0410    -0.6250 H     1 <1>   0.0800 
 45 H        5.2500    -0.5250     0.4600 H     1 <1>   0.3700 
 46 H        5.5540     1.4900    -1.2740 H     1 <1>   0.0800 
 47 H        5.8940     0.1300    -2.3170 H     1 <1>   0.0800 
 48 H       -2.8230     4.3000    -0.5980 H     1 <1>   0.0800 
 49 H       -3.8940     4.1090     0.7960 H     1 <1>   0.0800 
 50 H       -4.7900     4.2920    -2.1040 H     1 <1>   0.0800 
 51 H       -4.9400     5.5750    -0.9290 H     1 <1>   0.0800 
 52 H       -5.8540     4.1020    -0.7200 H     1 <1>   0.0800 
 53 H        7.0970     2.0240     0.6330 H     1 <1>   0.1500 
 54 H        7.8490    -1.3920    -1.7890 H     1 <1>   0.1500 
 55 H        9.3200     1.7380     1.5770 H     1 <1>   0.1500 
 56 H       10.0450    -1.5380    -0.7480 H     1 <1>   0.1500 
@<TRIPOS>BOND
  1   1   2  2   
  2   1   3  2   
  3   1   4  am  
  4   1   5  1   
  5   4   6  1   
  6   4   7  1   
  7   5   8  ar  
  8   5   9  ar  
  9   6  10  1   
 10   6  30  1   
 11   6  31  1   
 12   7  11  1   
 13   7  32  1   
 14   7  33  1   
 15   8  12  ar  
 16   8  34  1   
 17   9  13  ar  
 18   9  35  1   
 19  10  14  1   
 20  10  15  1   
 21  10  36  1   
 22  11  15  1   
 23  11  37  1   
 24  11  38  1   
 25  12  16  ar  
 26  12  17  1   
 27  13  16  ar  
 28  13  39  1   
 29  14  18  2   
 30  14  19  am  
 31  15  40  1   
 32  15  41  1   
 33  16  20  1   
 34  17  42  1   
 35  17  43  1   
 36  17  44  1   
 37  19  21  1   
 38  19  45  1   
 39  20  22  1   
 40  21  23  1   
 41  21  46  1   
 42  21  47  1   
 43  22  24  1   
 44  22  48  1   
 45  22  49  1   
 46  23  25  ar  
 47  23  26  ar  
 48  24  50  1   
 49  24  51  1   
 50  24  52  1   
 51  25  27  ar  
 52  25  53  1   
 53  26  28  ar  
 54  26  54  1   
 55  27  29  ar  
 56  27  55  1   
 57  28  29  ar  
 58  28  56  1   
@<TRIPOS>SUBSTRUCTURE
  1 ****   6 GROUP 4 **** **** 0

# MOE 2024.06 (io_trps.svl 2023.06)
