@<TRIPOS>MOLECULE
1-(2,5-Dimethoxy-benzenesulfonyl)-piperidine-4-carboxylic acid ethylamide
48 49 1 0 0 
SMALL
USER_CHARGES


@<TRIPOS>ATOM
  1 S       -0.2800    -0.1180     1.5940 S.o2  1 <1>   1.4470 
  2 O       -0.0500    -1.2680     2.4450 O.2   1 <1>  -0.6500 
  3 O       -0.6590     1.1210     2.2410 O.2   1 <1>  -0.6500 
  4 N        1.1850     0.1780     0.7900 N.am  1 <1>  -0.8490 
  5 C       -1.4330    -0.6250     0.2870 C.ar  1 <1>  -0.0090 
  6 C        2.2930     0.2530     1.7470 C.3   1 <1>   0.1960 
  7 C        1.1170     1.3760    -0.0540 C.3   1 <1>   0.1960 
  8 C       -2.2150     0.2870    -0.4200 C.ar  1 <1>   0.0830 
  9 C       -1.5450    -1.9690    -0.0510 C.ar  1 <1>  -0.1500 
 10 C        3.6300     0.4040     1.0180 C.3   1 <1>  -0.1600 
 11 C        2.4180     1.5610    -0.8380 C.3   1 <1>  -0.1600 
 12 O       -2.1280     1.6100    -0.1710 O.3   1 <1>  -0.3620 
 13 C       -3.0790    -0.1310    -1.4220 C.ar  1 <1>  -0.1500 
 14 C       -2.4130    -2.4000    -1.0490 C.ar  1 <1>   0.0830 
 15 C        3.6300     1.6380     0.1030 C.3   1 <1>  -0.0190 
 16 C       -3.1780     2.1760     0.5830 C.3   1 <1>   0.0400 
 17 C       -3.1800    -1.4720    -1.7310 C.ar  1 <1>  -0.1500 
 18 O       -2.5640    -3.7000    -1.4110 O.3   1 <1>  -0.3630 
 19 C        4.9410     1.7710    -0.6700 C.2   1 <1>   0.5690 
 20 C       -1.8260    -4.7240    -0.7790 C.3   1 <1>   0.0400 
 21 O        5.2830     0.8910    -1.4230 O.2   1 <1>  -0.5700 
 22 N        5.6920     2.8890    -0.4850 N.am  1 <1>  -0.7300 
 23 C        6.9870     3.1560    -1.1410 C.3   1 <1>   0.1400 
 24 C        7.9810     3.6170    -0.0830 C.3   1 <1>  -0.2400 
 25 H        2.3270    -0.6500     2.3350 H     1 <1>   0.0800 
 26 H        2.1390     1.0830     2.4170 H     1 <1>   0.0800 
 27 H        0.9260     2.2460     0.5540 H     1 <1>   0.0800 
 28 H        0.3130     1.2780    -0.7610 H     1 <1>   0.0800 
 29 H       -0.9360    -2.6740     0.4850 H     1 <1>   0.1500 
 30 H        3.8090    -0.4840     0.4350 H     1 <1>   0.0800 
 31 H        4.4230     0.4860     1.7390 H     1 <1>   0.0800 
 32 H        2.3570     2.4590    -1.4260 H     1 <1>   0.0800 
 33 H        2.5350     0.7330    -1.5170 H     1 <1>   0.0800 
 34 H       -3.6650     0.5940    -1.9590 H     1 <1>   0.1500 
 35 H        3.5150     2.5100     0.7220 H     1 <1>   0.0800 
 36 H       -2.9540     3.2150     0.7450 H     1 <1>   0.0800 
 37 H       -3.2420     1.6660     1.5290 H     1 <1>   0.0800 
 38 H       -4.0990     2.0760     0.0380 H     1 <1>   0.0800 
 39 H       -3.8480    -1.8090    -2.5040 H     1 <1>   0.1500 
 40 H       -2.1090    -5.6620    -1.2230 H     1 <1>   0.0800 
 41 H       -2.0640    -4.7310     0.2700 H     1 <1>   0.0800 
 42 H       -0.7770    -4.5480    -0.9360 H     1 <1>   0.0800 
 43 H        5.3680     3.6190     0.1490 H     1 <1>   0.3700 
 44 H        6.8580     3.9180    -1.8910 H     1 <1>   0.0800 
 45 H        7.3500     2.2620    -1.6230 H     1 <1>   0.0800 
 46 H        7.6440     4.5240     0.3850 H     1 <1>   0.0800 
 47 H        8.9340     3.8060    -0.5440 H     1 <1>   0.0800 
 48 H        8.1120     2.8520     0.6620 H     1 <1>   0.0800 
@<TRIPOS>BOND
  1   1   2  2   
  2   1   3  2   
  3   1   4  am  
  4   1   5  1   
  5   4   6  1   
  6   4   7  1   
  7   5   8  ar  
  8   5   9  ar  
  9   6  10  1   
 10   6  25  1   
 11   6  26  1   
 12   7  11  1   
 13   7  27  1   
 14   7  28  1   
 15   8  12  1   
 16   8  13  ar  
 17   9  14  ar  
 18   9  29  1   
 19  10  15  1   
 20  10  30  1   
 21  10  31  1   
 22  11  15  1   
 23  11  32  1   
 24  11  33  1   
 25  12  16  1   
 26  13  17  ar  
 27  13  34  1   
 28  14  17  ar  
 29  14  18  1   
 30  15  19  1   
 31  15  35  1   
 32  16  36  1   
 33  16  37  1   
 34  16  38  1   
 35  17  39  1   
 36  18  20  1   
 37  19  21  2   
 38  19  22  am  
 39  20  40  1   
 40  20  41  1   
 41  20  42  1   
 42  22  23  1   
 43  22  43  1   
 44  23  24  1   
 45  23  44  1   
 46  23  45  1   
 47  24  46  1   
 48  24  47  1   
 49  24  48  1   
@<TRIPOS>SUBSTRUCTURE
  1 ****   4 GROUP 4 **** **** 0

# MOE 2024.06 (io_trps.svl 2023.06)
