@<TRIPOS>MOLECULE
1-(4,6-Dimethyl-pyrimidin-2-yl)-3-(4-methyl-benzyl)-pyrrolidine-2,5-dione
42 44 1 0 0 
SMALL
USER_CHARGES


@<TRIPOS>ATOM
  1 O       -1.5200    -1.3180     1.8210 O.2   1 <1>  -0.5700 
  2 C       -2.0710    -1.2850     0.7510 C.2   1 <1>   0.5690 
  3 N       -1.7980    -2.0610    -0.3280 N.am  1 <1>  -0.2370 
  4 C       -3.2080    -0.3260     0.4520 C.3   1 <1>  -0.0190 
  5 C       -0.8160    -3.0160    -0.3630 C.ar  1 <1>   0.7370 
  6 C       -2.6000    -1.7500    -1.3760 C.2   1 <1>   0.5690 
  7 C       -3.5290    -0.6120    -1.0280 C.3   1 <1>  -0.0990 
  8 C       -2.8180     1.1370     0.7300 C.3   1 <1>  -0.0160 
  9 N        0.3870    -2.6140    -0.7630 N.ar  1 <1>  -0.6200 
 10 N       -1.1680    -4.2440     0.0080 N.ar  1 <1>  -0.6200 
 11 O       -2.6100    -2.2740    -2.4590 O.2   1 <1>  -0.5700 
 12 C       -3.9550     2.0880     0.3900 C.ar  1 <1>  -0.1430 
 13 C        1.3180    -3.5350    -0.7930 C.ar  1 <1>   0.1670 
 14 C       -0.2200    -5.1470    -0.0310 C.ar  1 <1>   0.1670 
 15 C       -3.8990     2.8820    -0.7460 C.ar  1 <1>  -0.1500 
 16 C       -5.0640     2.1710     1.2170 C.ar  1 <1>  -0.1500 
 17 C        1.0580    -4.8360    -0.4310 C.ar  1 <1>  -0.1500 
 18 C        2.6960    -3.1030    -1.2460 C.3   1 <1>  -0.0970 
 19 C       -0.5950    -6.5530     0.3850 C.3   1 <1>  -0.0970 
 20 C       -4.9410     3.7400    -1.0520 C.ar  1 <1>  -0.1500 
 21 C       -6.1050     3.0300     0.9100 C.ar  1 <1>  -0.1500 
 22 C       -6.0490     3.8190    -0.2260 C.ar  1 <1>  -0.1430 
 23 C       -7.1910     4.7610    -0.5650 C.3   1 <1>  -0.0970 
 24 H       -4.0460    -0.6010     1.0670 H     1 <1>   0.0800 
 25 H       -3.3140     0.2240    -1.6680 H     1 <1>   0.0800 
 26 H       -4.5530    -0.9120    -1.1580 H     1 <1>   0.0800 
 27 H       -1.9380     1.3950     0.1660 H     1 <1>   0.0800 
 28 H       -2.5700     1.2470     1.7720 H     1 <1>   0.0800 
 29 H       -3.0450     2.8390    -1.3990 H     1 <1>   0.1500 
 30 H       -5.1230     1.5690     2.1070 H     1 <1>   0.1500 
 31 H        1.8280    -5.5830    -0.4590 H     1 <1>   0.1500 
 32 H        2.6390    -2.7080    -2.2440 H     1 <1>   0.0800 
 33 H        3.3830    -3.9280    -1.2370 H     1 <1>   0.0800 
 34 H        3.0650    -2.3350    -0.5910 H     1 <1>   0.0800 
 35 H       -0.9530    -6.5440     1.3980 H     1 <1>   0.0800 
 36 H        0.2480    -7.2150     0.3190 H     1 <1>   0.0800 
 37 H       -1.3770    -6.9200    -0.2540 H     1 <1>   0.0800 
 38 H       -4.8840     4.3480    -1.9380 H     1 <1>   0.1500 
 39 H       -6.9600     3.0820     1.5610 H     1 <1>   0.1500 
 40 H       -6.8220     5.6310    -1.0770 H     1 <1>   0.0800 
 41 H       -7.6920     5.0840     0.3310 H     1 <1>   0.0800 
 42 H       -7.9010     4.2590    -1.1970 H     1 <1>   0.0800 
@<TRIPOS>BOND
  1   1   2  2   
  2   2   3  am  
  3   2   4  1   
  4   3   5  1   
  5   3   6  am  
  6   4   7  1   
  7   4   8  1   
  8   4  24  1   
  9   5   9  ar  
 10   5  10  ar  
 11   6   7  1   
 12   6  11  2   
 13   7  25  1   
 14   7  26  1   
 15   8  12  1   
 16   8  27  1   
 17   8  28  1   
 18   9  13  ar  
 19  10  14  ar  
 20  12  15  ar  
 21  12  16  ar  
 22  13  17  ar  
 23  13  18  1   
 24  14  17  ar  
 25  14  19  1   
 26  15  20  ar  
 27  15  29  1   
 28  16  21  ar  
 29  16  30  1   
 30  17  31  1   
 31  18  32  1   
 32  18  33  1   
 33  18  34  1   
 34  19  35  1   
 35  19  36  1   
 36  19  37  1   
 37  20  22  ar  
 38  20  38  1   
 39  21  22  ar  
 40  21  39  1   
 41  22  23  1   
 42  23  40  1   
 43  23  41  1   
 44  23  42  1   
@<TRIPOS>SUBSTRUCTURE
  1 ****   2 GROUP 4 **** **** 0

# MOE 2024.06 (io_trps.svl 2023.06)
