@<TRIPOS>MOLECULE
1-Cyclohexyloxy-3-piperidin-1-yl-propan-2-ol
45 46 1 0 0 
SMALL
USER_CHARGES


@<TRIPOS>ATOM
  1 O       -1.3280    -0.4230    -0.2120 O.3   1 <1>  -0.5600 
  2 C       -2.6380    -0.0950    -0.5560 C.3   1 <1>   0.2000 
  3 C       -0.5740     0.6170     0.3300 C.3   1 <1>   0.1200 
  4 C       -3.5410    -0.2650     0.6750 C.3   1 <1>  -0.1600 
  5 C       -3.0590    -1.0380    -1.6870 C.3   1 <1>  -0.1600 
  6 C        0.7930     0.0470     0.7180 C.3   1 <1>   0.2000 
  7 C       -5.0200    -0.0690     0.3080 C.3   1 <1>  -0.1600 
  8 C       -4.5350    -0.8390    -2.0580 C.3   1 <1>  -0.1600 
  9 O        1.6490     1.0960     1.0520 O.3   1 <1>  -0.6800 
 10 C        1.3650    -0.8050    -0.4470 C.3   1 <1>   0.3430 
 11 C       -5.4410    -1.0070    -0.8310 C.3   1 <1>  -0.1600 
 12 N        2.8000    -1.2630    -0.3200 N.4   1 <1>  -0.9590 
 13 C        3.0840    -1.8840     1.0050 C.3   1 <1>   0.3430 
 14 C        3.7540    -0.1520    -0.6110 C.3   1 <1>   0.3430 
 15 C        4.4940    -2.4780     1.0000 C.3   1 <1>  -0.1600 
 16 C        5.1800    -0.7060    -0.6610 C.3   1 <1>  -0.1600 
 17 C        5.5520    -1.4260     0.6420 C.3   1 <1>  -0.1600 
 18 H       -2.6730     0.9220    -0.9130 H     1 <1>   0.0800 
 19 H       -1.0810     1.0070     1.1950 H     1 <1>   0.0800 
 20 H       -0.4690     1.3820    -0.4210 H     1 <1>   0.0800 
 21 H       -3.2760     0.4500     1.4320 H     1 <1>   0.0800 
 22 H       -3.4100    -1.2550     1.0750 H     1 <1>   0.0800 
 23 H       -2.9130    -2.0570    -1.3710 H     1 <1>   0.0800 
 24 H       -2.4470    -0.8560    -2.5520 H     1 <1>   0.0800 
 25 H        0.6710    -0.5680     1.5930 H     1 <1>   0.0800 
 26 H       -5.1810     0.9520     0.0050 H     1 <1>   0.0800 
 27 H       -5.6330    -0.2560     1.1720 H     1 <1>   0.0800 
 28 H       -4.8170    -1.5530    -2.8130 H     1 <1>   0.0800 
 29 H       -4.6720     0.1460    -2.4700 H     1 <1>   0.0800 
 30 H        1.2750     1.6360     1.7810 H     1 <1>   0.4000 
 31 H        1.2530    -0.2400    -1.3570 H     1 <1>   0.0800 
 32 H        0.7300    -1.6700    -0.5470 H     1 <1>   0.0800 
 33 H       -6.4620    -0.8060    -1.1060 H     1 <1>   0.0800 
 34 H       -5.3890    -2.0270    -0.4880 H     1 <1>   0.0800 
 35 H        2.9640    -1.9820    -1.0340 H     1 <1>   0.4500 
 36 H        2.3660    -2.6610     1.2120 H     1 <1>   0.0800 
 37 H        3.0120    -1.1350     1.7770 H     1 <1>   0.0800 
 38 H        3.6930     0.5980     0.1600 H     1 <1>   0.0800 
 39 H        3.5100     0.3100    -1.5530 H     1 <1>   0.0800 
 40 H        4.5360    -3.2950     0.3000 H     1 <1>   0.0800 
 41 H        4.7090    -2.8800     1.9750 H     1 <1>   0.0800 
 42 H        5.8650     0.1070    -0.8260 H     1 <1>   0.0800 
 43 H        5.2740    -1.3800    -1.4950 H     1 <1>   0.0800 
 44 H        6.5170    -1.8940     0.5400 H     1 <1>   0.0800 
 45 H        5.6220    -0.7040     1.4400 H     1 <1>   0.0800 
@<TRIPOS>BOND
  1   1   2  1   
  2   1   3  1   
  3   2   4  1   
  4   2   5  1   
  5   2  18  1   
  6   3   6  1   
  7   3  19  1   
  8   3  20  1   
  9   4   7  1   
 10   4  21  1   
 11   4  22  1   
 12   5   8  1   
 13   5  23  1   
 14   5  24  1   
 15   6   9  1   
 16   6  10  1   
 17   6  25  1   
 18   7  11  1   
 19   7  26  1   
 20   7  27  1   
 21   8  11  1   
 22   8  28  1   
 23   8  29  1   
 24   9  30  1   
 25  10  12  1   
 26  10  31  1   
 27  10  32  1   
 28  11  33  1   
 29  11  34  1   
 30  12  13  1   
 31  12  14  1   
 32  12  35  1   
 33  13  15  1   
 34  13  36  1   
 35  13  37  1   
 36  14  16  1   
 37  14  38  1   
 38  14  39  1   
 39  15  17  1   
 40  15  40  1   
 41  15  41  1   
 42  16  17  1   
 43  16  42  1   
 44  16  43  1   
 45  17  44  1   
 46  17  45  1   
@<TRIPOS>SUBSTRUCTURE
  1 ****   6 GROUP 4 **** **** 0

# MOE 2024.06 (io_trps.svl 2023.06)
