@<TRIPOS>MOLECULE
N-(3-Acetyl-phenyl)-N-[2-(4-ethyl-piperazin-1-yl)-2-oxo-ethyl]-methanesulfonamid
51 52 1 0 0 
SMALL
USER_CHARGES


@<TRIPOS>ATOM
  1 S        1.0210    -0.1360    -0.9530 S.o2  1 <1>   1.3330 
  2 O        1.8050    -1.0030    -0.1120 O.2   1 <1>  -0.6500 
  3 O        1.6570     0.6040    -2.0180 O.2   1 <1>  -0.6500 
  4 N        0.2480     1.0270     0.0790 N.am  1 <1>  -0.6930 
  5 C       -0.3560    -1.0710    -1.5840 C.3   1 <1>  -0.1350 
  6 C       -0.8040     1.8430    -0.3410 C.ar  1 <1>   0.1990 
  7 C        0.6990     1.0570     1.5160 C.3   1 <1>   0.2570 
  8 C       -1.9550     1.9590     0.4290 C.ar  1 <1>  -0.1500 
  9 C       -0.7410     2.5590    -1.5320 C.ar  1 <1>  -0.1500 
 10 C        2.2120     1.2250     1.7500 C.2   1 <1>   0.5690 
 11 C       -3.0330     2.7660     0.0670 C.ar  1 <1>   0.0860 
 12 C       -1.7910     3.3640    -1.9270 C.ar  1 <1>  -0.1500 
 13 O        2.6770     0.7190     2.7440 O.2   1 <1>  -0.5700 
 14 N        3.0280     1.9240     0.8910 N.am  1 <1>  -0.6600 
 15 C       -4.1980     2.8460     0.9270 C.2   1 <1>   0.4230 
 16 C       -2.9200     3.4680    -1.1370 C.ar  1 <1>  -0.1500 
 17 C        2.5780     3.0260    -0.0120 C.3   1 <1>   0.1400 
 18 C        4.4580     1.5190     0.7400 C.3   1 <1>   0.1400 
 19 O       -4.2540     2.2980     1.9960 O.2   1 <1>  -0.5700 
 20 C       -5.4200     3.6410     0.5050 C.3   1 <1>  -0.1790 
 21 C        3.5530     4.2170     0.0390 C.3   1 <1>   0.3430 
 22 C        5.3920     2.7390     0.7830 C.3   1 <1>   0.3430 
 23 N        4.9760     3.7970    -0.2090 N.4   1 <1>  -0.9590 
 24 C        5.8840     4.9720    -0.2000 C.3   1 <1>   0.3430 
 25 C        7.2200     4.5950    -0.8280 C.3   1 <1>  -0.2400 
 26 H       -0.0040    -1.8510    -2.2310 H     1 <1>   0.0800 
 27 H       -1.0170    -0.4360    -2.1410 H     1 <1>   0.0800 
 28 H       -0.9020    -1.5170    -0.7760 H     1 <1>   0.0800 
 29 H        0.4010     0.1350     1.9830 H     1 <1>   0.0800 
 30 H        0.2050     1.8560     2.0360 H     1 <1>   0.0800 
 31 H       -2.0280     1.3970     1.3430 H     1 <1>   0.1500 
 32 H        0.1290     2.4970    -2.1590 H     1 <1>   0.1500 
 33 H       -1.7300     3.9120    -2.8530 H     1 <1>   0.1500 
 34 H       -3.7180     4.1070    -1.4720 H     1 <1>   0.1500 
 35 H        1.5990     3.3640     0.2790 H     1 <1>   0.0800 
 36 H        2.5200     2.6630    -1.0220 H     1 <1>   0.0800 
 37 H        4.5770     1.0010    -0.1960 H     1 <1>   0.0800 
 38 H        4.7400     0.8330     1.5220 H     1 <1>   0.0800 
 39 H       -5.1720     4.6830     0.4240 H     1 <1>   0.0800 
 40 H       -6.1970     3.5320     1.2400 H     1 <1>   0.0800 
 41 H       -5.7890     3.2800    -0.4370 H     1 <1>   0.0800 
 42 H        3.4770     4.6780     1.0100 H     1 <1>   0.0800 
 43 H        3.2520     4.9450    -0.6970 H     1 <1>   0.0800 
 44 H        6.3970     2.4110     0.5760 H     1 <1>   0.0800 
 45 H        5.3750     3.1460     1.7800 H     1 <1>   0.0800 
 46 H        5.0120     3.3700    -1.1450 H     1 <1>   0.4500 
 47 H        6.0320     5.3220     0.8100 H     1 <1>   0.0800 
 48 H        5.4450     5.7740    -0.7730 H     1 <1>   0.0800 
 49 H        7.7440     3.8650    -0.2370 H     1 <1>   0.0800 
 50 H        7.8410     5.4720    -0.8840 H     1 <1>   0.0800 
 51 H        7.0830     4.2240    -1.8280 H     1 <1>   0.0800 
@<TRIPOS>BOND
  1   1   2  2   
  2   1   3  2   
  3   1   4  am  
  4   1   5  1   
  5   4   6  1   
  6   4   7  1   
  7   5  26  1   
  8   5  27  1   
  9   5  28  1   
 10   6   8  ar  
 11   6   9  ar  
 12   7  10  1   
 13   7  29  1   
 14   7  30  1   
 15   8  11  ar  
 16   8  31  1   
 17   9  12  ar  
 18   9  32  1   
 19  10  13  2   
 20  10  14  am  
 21  11  15  1   
 22  11  16  ar  
 23  12  16  ar  
 24  12  33  1   
 25  14  17  1   
 26  14  18  1   
 27  15  19  2   
 28  15  20  1   
 29  16  34  1   
 30  17  21  1   
 31  17  35  1   
 32  17  36  1   
 33  18  22  1   
 34  18  37  1   
 35  18  38  1   
 36  20  39  1   
 37  20  40  1   
 38  20  41  1   
 39  21  23  1   
 40  21  42  1   
 41  21  43  1   
 42  22  23  1   
 43  22  44  1   
 44  22  45  1   
 45  23  24  1   
 46  23  46  1   
 47  24  25  1   
 48  24  47  1   
 49  24  48  1   
 50  25  49  1   
 51  25  50  1   
 52  25  51  1   
@<TRIPOS>SUBSTRUCTURE
  1 ****   4 GROUP 4 **** **** 0

# MOE 2024.06 (io_trps.svl 2023.06)
