@<TRIPOS>MOLECULE
8-(4-Ethyl-piperazin-1-yl)-1,3-dimethyl-7-(2-oxo-2-phenyl-ethyl)-3,7-dihydro-pur
58 61 1 0 0 
SMALL
USER_CHARGES


@<TRIPOS>ATOM
  1 O        1.1390     1.2730    -0.8830 O.2   1 <1>  -0.5740 
  2 C        2.2000     1.7570    -0.5460 C.2   1 <1>   0.6870 
  3 N        2.2340     3.0010     0.0720 N.am  1 <1>  -0.4250 
  4 N        3.3790     1.0600    -0.7720 N.am  1 <1>  -0.4410 
  5 C        3.4250     3.5390     0.5360 C.2   1 <1>   0.7000 
  6 C        0.9490     3.7430     0.2720 C.3   1 <1>   0.0530 
  7 C        4.5570     1.6090    -0.3050 C.2   1 <1>   0.4210 
  8 C        3.3520    -0.2600    -1.4720 C.3   1 <1>   0.0530 
  9 O        3.4460     4.6200     1.1010 O.2   1 <1>  -0.5740 
 10 C        4.6340     2.7940     0.3350 C.2   1 <1>   0.2710 
 11 N        5.8080     1.0850    -0.3960 N.pl3 1 <1>  -0.7030 
 12 N        5.9990     2.9930     0.6490 N.pl3 1 <1>  -0.7670 
 13 C        6.6670     1.9220     0.1870 C.cat 1 <1>   1.0690 
 14 C        6.5510     4.3520     1.0120 C.3   1 <1>   0.4100 
 15 N        7.9940     1.6510     0.2690 N.pl3 1 <1>  -0.5960 
 16 C        7.2260     5.0390    -0.1840 C.2   1 <1>   0.4180 
 17 C        8.8730     2.1480     1.3820 C.3   1 <1>   0.1610 
 18 C        8.7530     1.1540    -0.9320 C.3   1 <1>   0.1610 
 19 O        8.1540     4.4350    -0.6700 O.2   1 <1>  -0.5740 
 20 C        6.7740     6.3220    -0.6950 C.ar  1 <1>   0.0790 
 21 C       10.0270     1.1770     1.7130 C.3   1 <1>   0.3380 
 22 C        9.9230     0.2140    -0.5670 C.3   1 <1>   0.3380 
 23 C        5.6030     6.9720    -0.2840 C.ar  1 <1>  -0.1560 
 24 C        7.5370     6.9730    -1.6700 C.ar  1 <1>  -0.1560 
 25 N       10.8120     0.7990     0.4920 N.4   1 <1>  -0.9610 
 26 C        5.2260     8.1930    -0.8120 C.ar  1 <1>  -0.1560 
 27 C        7.1650     8.1930    -2.2020 C.ar  1 <1>  -0.1560 
 28 C       11.9260    -0.1190     0.8560 C.3   1 <1>   0.3380 
 29 C        6.0060     8.8080    -1.7720 C.ar  1 <1>  -0.1560 
 30 C       12.9330    -0.1750    -0.2860 C.3   1 <1>  -0.2460 
 31 H        0.3020     3.6030    -0.5780 H     1 <1>   0.0730 
 32 H        1.1240     4.7990     0.3880 H     1 <1>   0.0730 
 33 H        0.4510     3.3720     1.1510 H     1 <1>   0.0730 
 34 H        2.4950    -0.3230    -2.1220 H     1 <1>   0.0730 
 35 H        3.2880    -1.0540    -0.7480 H     1 <1>   0.0730 
 36 H        4.2320    -0.3890    -2.0750 H     1 <1>   0.0730 
 37 H        6.0330     0.1790    -0.7930 H     1 <1>   0.4450 
 38 H        7.2870     4.2420     1.7850 H     1 <1>   0.0730 
 39 H        5.7840     4.9650     1.4360 H     1 <1>   0.0730 
 40 H        8.2850     2.2910     2.2730 H     1 <1>   0.0730 
 41 H        9.2990     3.0970     1.1080 H     1 <1>   0.0730 
 42 H        9.1510     2.0050    -1.4610 H     1 <1>   0.0730 
 43 H        8.0950     0.6410    -1.6120 H     1 <1>   0.0730 
 44 H        9.6190     0.2890     2.1680 H     1 <1>   0.0730 
 45 H       10.6820     1.6410     2.4340 H     1 <1>   0.0730 
 46 H       10.5000     0.0160    -1.4560 H     1 <1>   0.0730 
 47 H        9.5240    -0.7260    -0.2210 H     1 <1>   0.0730 
 48 H        4.9470     6.5540     0.4540 H     1 <1>   0.1440 
 49 H        8.4470     6.5200    -2.0260 H     1 <1>   0.1440 
 50 H       11.2500     1.6520     0.1120 H     1 <1>   0.4450 
 51 H        4.3210     8.6720    -0.4770 H     1 <1>   0.1440 
 52 H        7.7760     8.6670    -2.9510 H     1 <1>   0.1440 
 53 H       11.5470    -1.1070     1.0670 H     1 <1>   0.0730 
 54 H       12.4250     0.2470     1.7390 H     1 <1>   0.0730 
 55 H        5.7130     9.7590    -2.1830 H     1 <1>   0.1440 
 56 H       12.5150    -0.6290    -1.1650 H     1 <1>   0.0730 
 57 H       13.7720    -0.7760     0.0190 H     1 <1>   0.0730 
 58 H       13.3030     0.8080    -0.5220 H     1 <1>   0.0730 
@<TRIPOS>BOND
  1   1   2  2   
  2   2   3  am  
  3   2   4  am  
  4   3   5  am  
  5   3   6  1   
  6   4   7  1   
  7   4   8  1   
  8   5   9  2   
  9   5  10  1   
 10   6  31  1   
 11   6  32  1   
 12   6  33  1   
 13   7  10  2   
 14   7  11  1   
 15   8  34  1   
 16   8  35  1   
 17   8  36  1   
 18  10  12  1   
 19  11  13  ar  
 20  11  37  1   
 21  12  13  ar  
 22  12  14  1   
 23  13  15  ar  
 24  14  16  1   
 25  14  38  1   
 26  14  39  1   
 27  15  17  1   
 28  15  18  1   
 29  16  19  2   
 30  16  20  1   
 31  17  21  1   
 32  17  40  1   
 33  17  41  1   
 34  18  22  1   
 35  18  42  1   
 36  18  43  1   
 37  20  23  ar  
 38  20  24  ar  
 39  21  25  1   
 40  21  44  1   
 41  21  45  1   
 42  22  25  1   
 43  22  46  1   
 44  22  47  1   
 45  23  26  ar  
 46  23  48  1   
 47  24  27  ar  
 48  24  49  1   
 49  25  28  1   
 50  25  50  1   
 51  26  29  ar  
 52  26  51  1   
 53  27  29  ar  
 54  27  52  1   
 55  28  30  1   
 56  28  53  1   
 57  28  54  1   
 58  29  55  1   
 59  30  56  1   
 60  30  57  1   
 61  30  58  1   
@<TRIPOS>SUBSTRUCTURE
  1 ****  12 GROUP 4 **** **** 0

# MOE 2024.06 (io_trps.svl 2023.06)
