@<TRIPOS>MOLECULE
3-tert-Butyl-6-(2-ethoxy-phenyl)-[1,2,4]triazolo[3,4-b][1,3,4]thiadiazole
39 41 1 0 0 
SMALL
USER_CHARGES


@<TRIPOS>ATOM
  1 S       -0.5200     0.2180     1.3640 S.3   1 <1>  -0.1970 
  2 C        0.4010     1.6950     1.2200 C.2   1 <1>   0.2420 
  3 C       -1.7320     0.8990     0.2440 C.2   1 <1>   0.5050 
  4 N        1.4990     2.1480     1.7060 N.2   1 <1>  -0.3380 
  5 N       -0.2330     2.5110     0.3990 N.pl3 1 <1>   0.5050 
  6 N       -1.4280     2.0760    -0.1740 N.2   1 <1>  -0.6520 
  7 C       -2.8700     0.0670    -0.0630 C.ar  1 <1>   0.0860 
  8 N        1.6150     3.3780     1.1720 N.2   1 <1>  -0.3380 
  9 C        0.5820     3.5830     0.4020 C.2   1 <1>   0.0060 
 10 C       -4.1820     0.5480     0.0420 C.ar  1 <1>   0.0830 
 11 C       -2.6890    -1.2540    -0.4800 C.ar  1 <1>  -0.1500 
 12 C        0.2920     4.8560    -0.4060 C.3   1 <1>   0.1800 
 13 O       -4.3490     1.8210     0.4780 O.3   1 <1>  -0.3630 
 14 C       -5.2610    -0.2730    -0.2770 C.ar  1 <1>  -0.1500 
 15 C       -3.7620    -2.0650    -0.7930 C.ar  1 <1>  -0.1500 
 16 C        1.3940     5.9070    -0.1840 C.3   1 <1>  -0.2400 
 17 C        0.2380     4.5280    -1.9060 C.3   1 <1>  -0.2400 
 18 C       -1.0480     5.4660     0.0340 C.3   1 <1>  -0.2400 
 19 C       -5.6000     2.4680     0.4880 C.3   1 <1>   0.1200 
 20 C       -5.0510    -1.5740    -0.6940 C.ar  1 <1>  -0.1500 
 21 C       -5.3740     3.9100     0.9300 C.3   1 <1>  -0.2400 
 22 H       -1.6920    -1.6500    -0.5670 H     1 <1>   0.1500 
 23 H       -6.2730     0.0800    -0.2040 H     1 <1>   0.1500 
 24 H       -3.5990    -3.0800    -1.1150 H     1 <1>   0.1500 
 25 H        2.3480     5.5160    -0.4900 H     1 <1>   0.0800 
 26 H        1.4560     6.1670     0.8580 H     1 <1>   0.0800 
 27 H        1.1930     6.8000    -0.7480 H     1 <1>   0.0800 
 28 H        1.1630     4.0770    -2.2190 H     1 <1>   0.0800 
 29 H        0.0800     5.4210    -2.4830 H     1 <1>   0.0800 
 30 H       -0.5640     3.8440    -2.1200 H     1 <1>   0.0800 
 31 H       -1.0300     5.6740     1.0890 H     1 <1>   0.0800 
 32 H       -1.8610     4.7920    -0.1650 H     1 <1>   0.0800 
 33 H       -1.2370     6.3840    -0.4930 H     1 <1>   0.0800 
 34 H       -6.2470     1.9540     1.1780 H     1 <1>   0.0800 
 35 H       -6.0100     2.4350    -0.5070 H     1 <1>   0.0800 
 36 H       -5.8880    -2.2050    -0.9390 H     1 <1>   0.1500 
 37 H       -4.9500     3.9320     1.9180 H     1 <1>   0.0800 
 38 H       -6.3100     4.4380     0.9460 H     1 <1>   0.0800 
 39 H       -4.7110     4.4060     0.2440 H     1 <1>   0.0800 
@<TRIPOS>BOND
  1   1   2  1   
  2   1   3  1   
  3   2   4  2   
  4   2   5  1   
  5   3   6  2   
  6   3   7  1   
  7   4   8  1   
  8   5   6  1   
  9   5   9  1   
 10   7  10  ar  
 11   7  11  ar  
 12   8   9  2   
 13   9  12  1   
 14  10  13  1   
 15  10  14  ar  
 16  11  15  ar  
 17  11  22  1   
 18  12  16  1   
 19  12  17  1   
 20  12  18  1   
 21  13  19  1   
 22  14  20  ar  
 23  14  23  1   
 24  15  20  ar  
 25  15  24  1   
 26  16  25  1   
 27  16  26  1   
 28  16  27  1   
 29  17  28  1   
 30  17  29  1   
 31  17  30  1   
 32  18  31  1   
 33  18  32  1   
 34  18  33  1   
 35  19  21  1   
 36  19  34  1   
 37  19  35  1   
 38  20  36  1   
 39  21  37  1   
 40  21  38  1   
 41  21  39  1   
@<TRIPOS>SUBSTRUCTURE
  1 ****   6 GROUP 4 **** **** 0

# MOE 2024.06 (io_trps.svl 2023.06)
