@<TRIPOS>MOLECULE
6-Furan-2-yl-4-(3-methanesulfonylamino-phenyl)-2-oxo-cyclohex-3-enecarboxylic ac
49 51 1 0 0 
SMALL
USER_CHARGES


@<TRIPOS>ATOM
  1 S        1.3680    -0.5160     1.4440 S.o2  1 <1>   1.3330 
  2 O        0.2200     0.0990     2.0580 O.2   1 <1>  -0.6500 
  3 O        2.6230    -0.6440     2.1410 O.2   1 <1>  -0.6500 
  4 N        0.8230    -2.0880     1.0310 N.am  1 <1>  -0.7570 
  5 C        1.6280     0.2230    -0.1540 C.3   1 <1>  -0.1350 
  6 C        1.5210    -3.1990     0.5710 C.ar  1 <1>   0.1990 
  7 C        2.8860    -3.1920     0.3100 C.ar  1 <1>  -0.1500 
  8 C        0.8130    -4.3750     0.3550 C.ar  1 <1>  -0.1500 
  9 C        3.5560    -4.3150    -0.1690 C.ar  1 <1>   0.0280 
 10 C        1.4510    -5.5060    -0.1160 C.ar  1 <1>  -0.1500 
 11 C        4.9720    -4.2700    -0.4430 C.2   1 <1>  -0.1670 
 12 C        2.8080    -5.4730    -0.3780 C.ar  1 <1>  -0.1500 
 13 C        5.6100    -3.2310    -1.0280 C.2   1 <1>  -0.1360 
 14 C        5.7920    -5.4970    -0.0560 C.3   1 <1>  -0.0220 
 15 C        7.0040    -3.1690    -1.3310 C.2   1 <1>   0.4950 
 16 C        7.2520    -5.1340     0.2760 C.3   1 <1>   0.1000 
 17 O        7.4630    -2.2910    -2.0150 O.2   1 <1>  -0.5700 
 18 C        7.9070    -4.2800    -0.8330 C.3   1 <1>   0.0420 
 19 C        8.0710    -6.3930     0.5490 C.2   1 <1>  -0.0400 
 20 C        9.1890    -3.6480    -0.3440 C.2   1 <1>   0.6590 
 21 O        9.2790    -6.2540     1.0580 O.3   1 <1>  -0.2800 
 22 C        7.7940    -7.7060     0.3690 C.2   1 <1>  -0.1500 
 23 O        9.2160    -2.9460     0.6360 O.2   1 <1>  -0.5700 
 24 O       10.2800    -3.9300    -1.0490 O.3   1 <1>  -0.4300 
 25 C        9.7980    -7.4540     1.2100 C.2   1 <1>  -0.0100 
 26 C        8.9300    -8.4010     0.8020 C.2   1 <1>  -0.1500 
 27 C       11.5590    -3.4570    -0.6920 C.3   1 <1>   0.1200 
 28 C       12.1730    -4.4210     0.3200 C.3   1 <1>  -0.2400 
 29 H       -0.1320    -2.2120     1.3540 H     1 <1>   0.4200 
 30 H        1.9420     1.2420    -0.0390 H     1 <1>   0.0800 
 31 H        0.7200     0.2040    -0.7230 H     1 <1>   0.0800 
 32 H        2.3850    -0.3110    -0.6930 H     1 <1>   0.0800 
 33 H        3.4560    -2.3030     0.4920 H     1 <1>   0.1500 
 34 H       -0.2420    -4.4060     0.5530 H     1 <1>   0.1500 
 35 H        0.8910    -6.4100    -0.2820 H     1 <1>   0.1500 
 36 H        3.2850    -6.3600    -0.7550 H     1 <1>   0.1500 
 37 H        5.0670    -2.3560    -1.3340 H     1 <1>   0.1500 
 38 H        5.7630    -6.1990    -0.8700 H     1 <1>   0.0800 
 39 H        5.3570    -5.9650     0.8110 H     1 <1>   0.0800 
 40 H        7.2310    -4.5550     1.1850 H     1 <1>   0.0800 
 41 H        8.1340    -4.9110    -1.6710 H     1 <1>   0.0800 
 42 H        6.9070    -8.1730    -0.0200 H     1 <1>   0.1500 
 43 H       10.7910    -7.5420     1.6170 H     1 <1>   0.1500 
 44 H        9.0520    -9.4700     0.7970 H     1 <1>   0.1500 
 45 H       11.4700    -2.4620    -0.2880 H     1 <1>   0.0800 
 46 H       12.1550    -3.4200    -1.5880 H     1 <1>   0.0800 
 47 H       11.5830    -4.4410     1.2200 H     1 <1>   0.0800 
 48 H       13.1660    -4.0980     0.5730 H     1 <1>   0.0800 
 49 H       12.2280    -5.4110    -0.0960 H     1 <1>   0.0800 
@<TRIPOS>BOND
  1   1   2  2   
  2   1   3  2   
  3   1   4  am  
  4   1   5  1   
  5   4   6  1   
  6   4  29  1   
  7   5  30  1   
  8   5  31  1   
  9   5  32  1   
 10   6   7  ar  
 11   6   8  ar  
 12   7   9  ar  
 13   7  33  1   
 14   8  10  ar  
 15   8  34  1   
 16   9  11  1   
 17   9  12  ar  
 18  10  12  ar  
 19  10  35  1   
 20  11  13  2   
 21  11  14  1   
 22  12  36  1   
 23  13  15  1   
 24  13  37  1   
 25  14  16  1   
 26  14  38  1   
 27  14  39  1   
 28  15  17  2   
 29  15  18  1   
 30  16  18  1   
 31  16  19  1   
 32  16  40  1   
 33  18  20  1   
 34  18  41  1   
 35  19  21  1   
 36  19  22  2   
 37  20  23  2   
 38  20  24  1   
 39  21  25  1   
 40  22  26  1   
 41  22  42  1   
 42  24  27  1   
 43  25  26  2   
 44  25  43  1   
 45  26  44  1   
 46  27  28  1   
 47  27  45  1   
 48  27  46  1   
 49  28  47  1   
 50  28  48  1   
 51  28  49  1   
@<TRIPOS>SUBSTRUCTURE
  1 ****  11 GROUP 4 **** **** 0

# MOE 2024.06 (io_trps.svl 2023.06)
