@<TRIPOS>MOLECULE
4-[3-(4-Methoxy-phenyl)-[1,2,4]oxadiazol-5-yl]-N-(tetrahydro-furan-2-ylmethyl)-b
48 50 1 0 0 
SMALL
USER_CHARGES


@<TRIPOS>ATOM
  1 O       -0.7880    -0.7220    -1.8280 O.2   1 <1>  -0.5700 
  2 C       -1.3080    -1.5210    -1.0870 C.2   1 <1>   0.5690 
  3 N       -0.6050    -2.4990    -0.4700 N.am  1 <1>  -0.7300 
  4 C       -2.7960    -1.4210    -0.8260 C.3   1 <1>  -0.0990 
  5 C        0.8420    -2.7640    -0.6380 C.3   1 <1>   0.1400 
  6 C       -3.0920    -0.5430     0.4040 C.3   1 <1>  -0.1600 
  7 C        1.0880    -4.2720    -0.7890 C.3   1 <1>   0.2000 
  8 C       -4.5990    -0.3390     0.6350 C.3   1 <1>   0.0200 
  9 O        0.4450    -4.9720     0.2320 O.3   1 <1>  -0.5600 
 10 C        2.5470    -4.6860    -0.6700 C.3   1 <1>  -0.1600 
 11 C       -5.3350    -1.6430     0.8790 C.2   1 <1>   0.2980 
 12 C        1.0490    -6.2120     0.4280 C.3   1 <1>   0.1200 
 13 C        2.4440    -6.1230    -0.1890 C.3   1 <1>  -0.1600 
 14 O       -5.0750    -2.3210     1.9660 O.3   1 <1>  -0.0190 
 15 N       -6.2000    -2.1580     0.1090 N.2   1 <1>  -0.5650 
 16 N       -5.8440    -3.3610     1.8800 N.2   1 <1>  -0.4100 
 17 C       -6.5120    -3.2690     0.7840 C.2   1 <1>   0.4620 
 18 C       -7.4920    -4.2310     0.3050 C.ar  1 <1>   0.0540 
 19 C       -8.1570    -4.0600    -0.9120 C.ar  1 <1>  -0.1500 
 20 C       -7.8120    -5.3710     1.0470 C.ar  1 <1>  -0.1500 
 21 C       -9.0880    -4.9770    -1.3620 C.ar  1 <1>  -0.1500 
 22 C       -8.7420    -6.2940     0.6040 C.ar  1 <1>  -0.1500 
 23 C       -9.3900    -6.1010    -0.6120 C.ar  1 <1>   0.0820 
 24 O      -10.3120    -6.9510    -1.1220 O.3   1 <1>  -0.3620 
 25 C      -10.6900    -8.1240    -0.4360 C.3   1 <1>   0.0400 
 26 H       -1.0700    -3.1980     0.1180 H     1 <1>   0.3700 
 27 H       -3.1930    -2.4100    -0.6890 H     1 <1>   0.0800 
 28 H       -3.2620    -0.9960    -1.6970 H     1 <1>   0.0800 
 29 H        1.3650    -2.3980     0.2270 H     1 <1>   0.0800 
 30 H        1.2160    -2.2440    -1.5030 H     1 <1>   0.0800 
 31 H       -2.6290     0.4190     0.2630 H     1 <1>   0.0800 
 32 H       -2.6510    -0.9920     1.2780 H     1 <1>   0.0800 
 33 H        0.6810    -4.6180    -1.7240 H     1 <1>   0.0800 
 34 H       -5.0300     0.1490    -0.2210 H     1 <1>   0.0800 
 35 H       -4.7470     0.3020     1.4860 H     1 <1>   0.0800 
 36 H        3.0400    -4.0830     0.0720 H     1 <1>   0.0800 
 37 H        3.0680    -4.5970    -1.6070 H     1 <1>   0.0800 
 38 H        0.4500    -6.9620    -0.0600 H     1 <1>   0.0800 
 39 H        1.0890    -6.4030     1.4860 H     1 <1>   0.0800 
 40 H        3.2080    -6.3630     0.5300 H     1 <1>   0.0800 
 41 H        2.5130    -6.8090    -1.0150 H     1 <1>   0.0800 
 42 H       -7.9410    -3.1960    -1.5150 H     1 <1>   0.1500 
 43 H       -7.3210    -5.5370     1.9900 H     1 <1>   0.1500 
 44 H       -9.5900    -4.8280    -2.3020 H     1 <1>   0.1500 
 45 H       -8.9490    -7.1520     1.2140 H     1 <1>   0.1500 
 46 H      -11.4280    -8.6340    -1.0290 H     1 <1>   0.0800 
 47 H      -11.1100    -7.8510     0.5150 H     1 <1>   0.0800 
 48 H       -9.8240    -8.7500    -0.3120 H     1 <1>   0.0800 
@<TRIPOS>BOND
  1   1   2  2   
  2   2   3  am  
  3   2   4  1   
  4   3   5  1   
  5   3  26  1   
  6   4   6  1   
  7   4  27  1   
  8   4  28  1   
  9   5   7  1   
 10   5  29  1   
 11   5  30  1   
 12   6   8  1   
 13   6  31  1   
 14   6  32  1   
 15   7   9  1   
 16   7  10  1   
 17   7  33  1   
 18   8  11  1   
 19   8  34  1   
 20   8  35  1   
 21   9  12  1   
 22  10  13  1   
 23  10  36  1   
 24  10  37  1   
 25  11  14  1   
 26  11  15  2   
 27  12  13  1   
 28  12  38  1   
 29  12  39  1   
 30  13  40  1   
 31  13  41  1   
 32  14  16  1   
 33  15  17  1   
 34  16  17  2   
 35  17  18  1   
 36  18  19  ar  
 37  18  20  ar  
 38  19  21  ar  
 39  19  42  1   
 40  20  22  ar  
 41  20  43  1   
 42  21  23  ar  
 43  21  44  1   
 44  22  23  ar  
 45  22  45  1   
 46  23  24  1   
 47  24  25  1   
 48  25  46  1   
 49  25  47  1   
 50  25  48  1   
@<TRIPOS>SUBSTRUCTURE
  1 ****  17 GROUP 4 **** **** 0

# MOE 2024.06 (io_trps.svl 2023.06)
