@<TRIPOS>MOLECULE
N-(5-Cyclohexylcarbamoylmethylsulfanyl-4-methyl-4H-[1,2,4]triazol-3-ylmethyl)-2-
52 54 1 0 0 
SMALL
USER_CHARGES


@<TRIPOS>ATOM
  1 S       -1.3350    -0.3840    -3.2030 S.3   1 <1>  -0.2860 
  2 C       -1.2970     0.4800    -1.6270 C.2   1 <1>   0.2420 
  3 C       -0.3470    -1.9320    -2.9120 C.3   1 <1>   0.1310 
  4 N       -0.4630     0.2220    -0.6830 N.2   1 <1>  -0.3380 
  5 N       -2.1630     1.4470    -1.3230 N.pl3 1 <1>   0.0480 
  6 C       -1.2580    -3.1520    -2.9550 C.2   1 <1>   0.5690 
  7 N       -0.7800     1.0450     0.3190 N.2   1 <1>  -0.3380 
  8 C       -1.7820     1.7620    -0.0720 C.2   1 <1>   0.0060 
  9 C       -3.2560     1.9960    -2.1550 C.3   1 <1>   0.0160 
 10 O       -1.2010    -3.8770    -3.9160 O.2   1 <1>  -0.5700 
 11 N       -2.1210    -3.4560    -1.9530 N.am  1 <1>  -0.7300 
 12 C       -2.4420     2.8140     0.8040 C.3   1 <1>   0.3200 
 13 C       -2.3500    -2.7660    -0.6740 C.3   1 <1>   0.2200 
 14 N       -2.5380     4.1000     0.0810 N.am  1 <1>  -0.7300 
 15 C       -2.3080    -3.7880     0.4640 C.3   1 <1>  -0.1600 
 16 C       -3.7070    -2.0540    -0.7230 C.3   1 <1>  -0.1600 
 17 C       -3.6690     4.7620    -0.2750 C.2   1 <1>   0.5440 
 18 C       -2.6170    -3.1180     1.8120 C.3   1 <1>  -0.1600 
 19 C       -4.0190    -1.3750     0.6180 C.3   1 <1>  -0.1600 
 20 O       -3.5810     5.4380    -1.2760 O.2   1 <1>  -0.5700 
 21 C       -4.9390     4.6260     0.4100 C.ar  1 <1>   0.0860 
 22 C       -3.9660    -2.3860     1.7720 C.3   1 <1>  -0.1600 
 23 C       -5.0750     4.6440     1.7990 C.ar  1 <1>   0.1900 
 24 C       -6.1210     4.4730    -0.3190 C.ar  1 <1>  -0.1500 
 25 F       -4.0200     4.8090     2.5500 F     1 <1>  -0.1900 
 26 C       -6.2880     4.4960     2.4440 C.ar  1 <1>  -0.1500 
 27 C       -7.3470     4.3230     0.3060 C.ar  1 <1>  -0.1500 
 28 C       -7.4350     4.3310     1.6890 C.ar  1 <1>  -0.1500 
 29 H        0.1550    -1.8570    -1.9670 H     1 <1>   0.0800 
 30 H        0.3800    -1.9880    -3.7000 H     1 <1>   0.0800 
 31 H       -4.1260     2.1570    -1.5470 H     1 <1>   0.0800 
 32 H       -3.5040     1.3090    -2.9430 H     1 <1>   0.0800 
 33 H       -2.9410     2.9310    -2.5850 H     1 <1>   0.0800 
 34 H       -2.6970    -4.2840    -2.1090 H     1 <1>   0.3700 
 35 H       -1.8560     2.9550     1.6960 H     1 <1>   0.0800 
 36 H       -3.4190     2.4690     1.0940 H     1 <1>   0.0800 
 37 H       -1.5750    -2.0430    -0.5020 H     1 <1>   0.0800 
 38 H       -1.6900     4.3670    -0.4250 H     1 <1>   0.3700 
 39 H       -1.3300    -4.2350     0.5070 H     1 <1>   0.0800 
 40 H       -3.0320    -4.5630     0.2830 H     1 <1>   0.0800 
 41 H       -4.4790    -2.7700    -0.9430 H     1 <1>   0.0800 
 42 H       -3.6980    -1.3160    -1.5040 H     1 <1>   0.0800 
 43 H       -1.8370    -2.4110     2.0430 H     1 <1>   0.0800 
 44 H       -2.6300    -3.8600     2.5910 H     1 <1>   0.0800 
 45 H       -4.9940    -0.9220     0.5790 H     1 <1>   0.0800 
 46 H       -3.2960    -0.5980     0.8000 H     1 <1>   0.0800 
 47 H       -4.1240    -1.8750     2.7070 H     1 <1>   0.0800 
 48 H       -4.7580    -3.1060     1.6530 H     1 <1>   0.0800 
 49 H       -6.0710     4.4770    -1.3950 H     1 <1>   0.1500 
 50 H       -6.3340     4.5140     3.5190 H     1 <1>   0.1500 
 51 H       -8.2410     4.2050    -0.2840 H     1 <1>   0.1500 
 52 H       -8.3910     4.2150     2.1710 H     1 <1>   0.1500 
@<TRIPOS>BOND
  1   1   2  1   
  2   1   3  1   
  3   2   4  2   
  4   2   5  1   
  5   3   6  1   
  6   3  29  1   
  7   3  30  1   
  8   4   7  1   
  9   5   8  1   
 10   5   9  1   
 11   6  10  2   
 12   6  11  am  
 13   7   8  2   
 14   8  12  1   
 15   9  31  1   
 16   9  32  1   
 17   9  33  1   
 18  11  13  1   
 19  11  34  1   
 20  12  14  1   
 21  12  35  1   
 22  12  36  1   
 23  13  15  1   
 24  13  16  1   
 25  13  37  1   
 26  14  17  am  
 27  14  38  1   
 28  15  18  1   
 29  15  39  1   
 30  15  40  1   
 31  16  19  1   
 32  16  41  1   
 33  16  42  1   
 34  17  20  2   
 35  17  21  1   
 36  18  22  1   
 37  18  43  1   
 38  18  44  1   
 39  19  22  1   
 40  19  45  1   
 41  19  46  1   
 42  21  23  ar  
 43  21  24  ar  
 44  22  47  1   
 45  22  48  1   
 46  23  25  1   
 47  23  26  ar  
 48  24  27  ar  
 49  24  49  1   
 50  26  28  ar  
 51  26  50  1   
 52  27  28  ar  
 53  27  51  1   
 54  28  52  1   
@<TRIPOS>SUBSTRUCTURE
  1 ****   5 GROUP 4 **** **** 0

# MOE 2024.06 (io_trps.svl 2023.06)
