@<TRIPOS>MOLECULE
1-[3-(3,4-Dimethoxy-phenyl)-[1,2,4]oxadiazol-5-ylmethyl]-2,6-dimethyl-piperidine
50 52 1 0 0 
SMALL
USER_CHARGES


@<TRIPOS>ATOM
  1 O       -0.4250     0.9340     1.6960 O.3   1 <1>  -0.0190 
  2 N       -1.6920     0.6680     1.7160 N.2   1 <1>  -0.4100 
  3 C        0.0260     0.2270     0.6980 C.2   1 <1>   0.2980 
  4 C       -1.9490    -0.1530     0.7610 C.2   1 <1>   0.4620 
  5 N       -0.8410    -0.4620     0.0730 N.2   1 <1>  -0.5650 
  6 C        1.5180     0.2950     0.3910 C.3   1 <1>   0.5230 
  7 C       -3.2550    -0.7040     0.4400 C.ar  1 <1>   0.0540 
  8 N        1.9570    -0.8240    -0.5200 N.4   1 <1>  -0.9590 
  9 C       -4.3520    -0.4920     1.2750 C.ar  1 <1>  -0.1500 
 10 C       -3.4750    -1.4650    -0.7080 C.ar  1 <1>  -0.1500 
 11 C        1.9330    -2.1280     0.2050 C.3   1 <1>   0.4230 
 12 C        3.2510    -0.5800    -1.2060 C.3   1 <1>   0.4230 
 13 C       -5.6060    -1.0030     0.9960 C.ar  1 <1>   0.0830 
 14 C       -4.7180    -1.9950    -1.0030 C.ar  1 <1>  -0.1500 
 15 C        3.3360    -2.5810     0.6590 C.3   1 <1>  -0.1600 
 16 C        1.2980    -3.1620    -0.7170 C.3   1 <1>  -0.2400 
 17 C        4.3840    -0.4290    -0.1750 C.3   1 <1>  -0.1600 
 18 C        3.1510     0.6190    -2.1440 C.3   1 <1>  -0.2400 
 19 O       -6.5690    -0.6950     1.9090 O.3   1 <1>  -0.3620 
 20 C       -5.8020    -1.7820    -0.1550 C.ar  1 <1>   0.0830 
 21 C        4.2630    -1.4070     1.0110 C.3   1 <1>  -0.1600 
 22 C       -7.8900    -0.4240     1.4950 C.3   1 <1>   0.0400 
 23 O       -7.0260    -2.3250    -0.4110 O.3   1 <1>  -0.3630 
 24 C       -7.2380    -3.2470    -1.4580 C.3   1 <1>   0.0400 
 25 H        2.0710     0.2530     1.3130 H     1 <1>   0.0800 
 26 H        1.7140     1.2470    -0.0710 H     1 <1>   0.0800 
 27 H        1.2160    -0.8920    -1.2310 H     1 <1>   0.4500 
 28 H       -4.2330     0.0910     2.1710 H     1 <1>   0.1500 
 29 H       -2.6620    -1.6480    -1.3870 H     1 <1>   0.1500 
 30 H        1.3060    -2.0340     1.0780 H     1 <1>   0.0800 
 31 H        3.4720    -1.4490    -1.8080 H     1 <1>   0.0800 
 32 H       -4.8210    -2.5730    -1.9010 H     1 <1>   0.1500 
 33 H        3.8020    -3.1650    -0.1170 H     1 <1>   0.0800 
 34 H        3.2330    -3.2300     1.5110 H     1 <1>   0.0800 
 35 H        1.8700    -3.2890    -1.6190 H     1 <1>   0.0800 
 36 H        0.2910    -2.8800    -0.9670 H     1 <1>   0.0800 
 37 H        1.2530    -4.1120    -0.2130 H     1 <1>   0.0800 
 38 H        4.4350     0.5800     0.1940 H     1 <1>   0.0800 
 39 H        5.3140    -0.6160    -0.6860 H     1 <1>   0.0800 
 40 H        3.0390     1.5460    -1.6120 H     1 <1>   0.0800 
 41 H        2.3340     0.4950    -2.8330 H     1 <1>   0.0800 
 42 H        4.0550     0.6880    -2.7230 H     1 <1>   0.0800 
 43 H        5.2390    -1.7760     1.2820 H     1 <1>   0.0800 
 44 H        3.8690    -0.8910     1.8700 H     1 <1>   0.0800 
 45 H       -8.3660     0.1630     2.2580 H     1 <1>   0.0800 
 46 H       -8.4140    -1.3550     1.3750 H     1 <1>   0.0800 
 47 H       -7.8660     0.1220     0.5690 H     1 <1>   0.0800 
 48 H       -8.2590    -3.5770    -1.4100 H     1 <1>   0.0800 
 49 H       -6.5770    -4.0860    -1.3250 H     1 <1>   0.0800 
 50 H       -7.0580    -2.7570    -2.3980 H     1 <1>   0.0800 
@<TRIPOS>BOND
  1   1   2  1   
  2   1   3  1   
  3   2   4  2   
  4   3   5  2   
  5   3   6  1   
  6   4   5  1   
  7   4   7  1   
  8   6   8  1   
  9   6  25  1   
 10   6  26  1   
 11   7   9  ar  
 12   7  10  ar  
 13   8  11  1   
 14   8  12  1   
 15   8  27  1   
 16   9  13  ar  
 17   9  28  1   
 18  10  14  ar  
 19  10  29  1   
 20  11  15  1   
 21  11  16  1   
 22  11  30  1   
 23  12  17  1   
 24  12  18  1   
 25  12  31  1   
 26  13  19  1   
 27  13  20  ar  
 28  14  20  ar  
 29  14  32  1   
 30  15  21  1   
 31  15  33  1   
 32  15  34  1   
 33  16  35  1   
 34  16  36  1   
 35  16  37  1   
 36  17  21  1   
 37  17  38  1   
 38  17  39  1   
 39  18  40  1   
 40  18  41  1   
 41  18  42  1   
 42  19  22  1   
 43  20  23  1   
 44  21  43  1   
 45  21  44  1   
 46  22  45  1   
 47  22  46  1   
 48  22  47  1   
 49  23  24  1   
 50  24  48  1   
 51  24  49  1   
 52  24  50  1   
@<TRIPOS>SUBSTRUCTURE
  1 ****   5 GROUP 4 **** **** 0

# MOE 2024.06 (io_trps.svl 2023.06)
