@<TRIPOS>MOLECULE
1-(2-Cyano-ethyl)-3-(3,4-dimethyl-phenyl)-1H-pyrazole-4-carboxylic acid diethyla
48 49 1 0 0 
SMALL
USER_CHARGES


@<TRIPOS>ATOM
  1 O        1.1710    -0.8040    -1.7670 O.2   1 <1>  -0.5700 
  2 C        1.3540    -1.2870    -0.6650 C.2   1 <1>   0.7160 
  3 N        2.2630    -0.6960     0.1930 N.am  1 <1>  -0.6600 
  4 C        0.6270    -2.4670    -0.2800 C.2   1 <1>  -0.0860 
  5 C        2.3420    -1.0460     1.6380 C.3   1 <1>   0.1400 
  6 C        3.0550     0.4880    -0.2380 C.3   1 <1>   0.1400 
  7 C       -0.7560    -2.5580    -0.0390 C.2   1 <1>   0.2350 
  8 C        1.0840    -3.7310    -0.0760 C.2   1 <1>  -0.3020 
  9 C        3.6160    -1.8370     1.9200 C.3   1 <1>  -0.2400 
 10 C        4.2590     0.0370    -1.0630 C.3   1 <1>  -0.2400 
 11 N       -1.0960    -3.7840     0.2760 N.2   1 <1>  -0.7070 
 12 C       -1.7130    -1.4710    -0.1100 C.ar  1 <1>   0.0540 
 13 N        0.0360    -4.4940     0.2500 N.pl3 1 <1>   0.3140 
 14 C       -1.4360    -0.1950     0.3800 C.ar  1 <1>  -0.1500 
 15 C       -2.9700    -1.6770    -0.6710 C.ar  1 <1>  -0.1500 
 16 C        0.0420    -5.9400     0.5250 C.3   1 <1>   0.0960 
 17 C       -2.3570     0.8380     0.3050 C.ar  1 <1>  -0.1430 
 18 C       -3.8990    -0.6580    -0.7500 C.ar  1 <1>  -0.1500 
 19 C       -0.8860    -6.6650    -0.4530 C.3   1 <1>   0.0400 
 20 C       -3.6030     0.6060    -0.2660 C.ar  1 <1>  -0.1430 
 21 C       -1.9770     2.2070     0.8510 C.3   1 <1>  -0.0970 
 22 C       -0.8080    -8.1300    -0.2270 C.1   1 <1>   0.3570 
 23 C       -4.6490     1.7060    -0.3740 C.3   1 <1>  -0.0970 
 24 N       -0.7180    -9.2460    -0.0360 N.1   1 <1>  -0.5570 
 25 H        1.4870    -1.6300     1.9320 H     1 <1>   0.0800 
 26 H        2.3320    -0.1450     2.2280 H     1 <1>   0.0800 
 27 H        3.3880     1.0450     0.6200 H     1 <1>   0.0800 
 28 H        2.4340     1.1370    -0.8340 H     1 <1>   0.0800 
 29 H        2.0900    -4.1000    -0.1610 H     1 <1>   0.1500 
 30 H        3.6660    -2.7040     1.2880 H     1 <1>   0.0800 
 31 H        3.6200    -2.1600     2.9450 H     1 <1>   0.0800 
 32 H        4.4840    -1.2240     1.7580 H     1 <1>   0.0800 
 33 H        4.8950    -0.6110    -0.4900 H     1 <1>   0.0800 
 34 H        4.8290     0.8950    -1.3670 H     1 <1>   0.0800 
 35 H        3.9280    -0.4780    -1.9470 H     1 <1>   0.0800 
 36 H       -0.4810    -0.0110     0.8310 H     1 <1>   0.1500 
 37 H       -3.2130    -2.6540    -1.0470 H     1 <1>   0.1500 
 38 H       -0.2910    -6.0920     1.5350 H     1 <1>   0.0800 
 39 H        1.0480    -6.3060     0.4290 H     1 <1>   0.0800 
 40 H       -4.8580    -0.8570    -1.1930 H     1 <1>   0.1500 
 41 H       -0.5940    -6.4550    -1.4660 H     1 <1>   0.0800 
 42 H       -1.9020    -6.3460    -0.3060 H     1 <1>   0.0800 
 43 H       -0.9760     2.2030     1.2440 H     1 <1>   0.0800 
 44 H       -2.6490     2.4860     1.6420 H     1 <1>   0.0800 
 45 H       -2.0280     2.9410     0.0680 H     1 <1>   0.0800 
 46 H       -4.2690     2.5170    -0.9690 H     1 <1>   0.0800 
 47 H       -4.9000     2.0720     0.6040 H     1 <1>   0.0800 
 48 H       -5.5470     1.3390    -0.8380 H     1 <1>   0.0800 
@<TRIPOS>BOND
  1   1   2  2   
  2   2   3  am  
  3   2   4  1   
  4   3   5  1   
  5   3   6  1   
  6   4   7  1   
  7   4   8  2   
  8   5   9  1   
  9   5  25  1   
 10   5  26  1   
 11   6  10  1   
 12   6  27  1   
 13   6  28  1   
 14   7  11  2   
 15   7  12  1   
 16   8  13  1   
 17   8  29  1   
 18   9  30  1   
 19   9  31  1   
 20   9  32  1   
 21  10  33  1   
 22  10  34  1   
 23  10  35  1   
 24  11  13  1   
 25  12  14  ar  
 26  12  15  ar  
 27  13  16  1   
 28  14  17  ar  
 29  14  36  1   
 30  15  18  ar  
 31  15  37  1   
 32  16  19  1   
 33  16  38  1   
 34  16  39  1   
 35  17  20  ar  
 36  17  21  1   
 37  18  20  ar  
 38  18  40  1   
 39  19  22  1   
 40  19  41  1   
 41  19  42  1   
 42  20  23  1   
 43  21  43  1   
 44  21  44  1   
 45  21  45  1   
 46  22  24  3   
 47  23  46  1   
 48  23  47  1   
 49  23  48  1   
@<TRIPOS>SUBSTRUCTURE
  1 ****   7 GROUP 4 **** **** 0

# MOE 2024.06 (io_trps.svl 2023.06)
