@<TRIPOS>MOLECULE
2-Methyl-2-tetrazol-1-yl-propionic acid
18 18 1 0 0 
SMALL
USER_CHARGES


@<TRIPOS>ATOM
  1 O       -1.3160     0.1470     1.6780 O.co2 1 <1>  -0.9000 
  2 C       -1.4210    -1.0300     1.3060 C.2   1 <1>   0.9060 
  3 O       -0.7750    -1.9290     1.8590 O.co2 1 <1>  -0.9000 
  4 C       -2.4070    -1.3700     0.1720 C.3   1 <1>   0.1500 
  5 N       -3.7830    -1.2800     0.7450 N.pl3 1 <1>   0.3140 
  6 C       -2.1730    -2.7950    -0.3960 C.3   1 <1>  -0.2400 
  7 C       -2.2820    -0.3640    -0.9990 C.3   1 <1>  -0.2400 
  8 N       -4.8730    -1.6590     0.0890 N.2   1 <1>  -0.4180 
  9 C       -4.1930    -0.8210     1.9180 C.2   1 <1>   0.0360 
 10 N       -5.8720    -1.4320     0.8650 N.2   1 <1>   0.0000 
 11 N       -5.4660    -0.9070     2.0150 N.2   1 <1>  -0.3380 
 12 H       -1.1630    -2.8790    -0.7550 H     1 <1>   0.0800 
 13 H       -2.8470    -3.0080    -1.2050 H     1 <1>   0.0800 
 14 H       -2.3080    -3.5250     0.3820 H     1 <1>   0.0800 
 15 H       -1.2820    -0.3890    -1.3940 H     1 <1>   0.0800 
 16 H       -2.4750     0.6350    -0.6490 H     1 <1>   0.0800 
 17 H       -2.9730    -0.6020    -1.7870 H     1 <1>   0.0800 
 18 H       -3.5310    -0.4300     2.6710 H     1 <1>   0.1500 
@<TRIPOS>BOND
  1   1   2  ar  
  2   2   3  ar  
  3   2   4  1   
  4   4   5  1   
  5   4   6  1   
  6   4   7  1   
  7   5   8  1   
  8   5   9  1   
  9   6  12  1   
 10   6  13  1   
 11   6  14  1   
 12   7  15  1   
 13   7  16  1   
 14   7  17  1   
 15   8  10  2   
 16   9  11  2   
 17   9  18  1   
 18  10  11  1   
@<TRIPOS>SUBSTRUCTURE
  1 ****   5 GROUP 4 **** **** 0

# MOE 2024.06 (io_trps.svl 2023.06)
