@<TRIPOS>MOLECULE
7-(2-Hydroxy-propyl)-3-methyl-8-[(pyridin-3-ylmethyl)-amino]-3,7-dihydro-purine-
43 45 1 0 0 
SMALL
USER_CHARGES


@<TRIPOS>ATOM
  1 O        3.0310     1.0230     3.0500 O.2   1 <1>  -0.5760 
  2 C        3.6380     1.3630     2.0620 C.2   1 <1>   0.6850 
  3 N        4.9270     0.9270     1.7950 N.am  1 <1>  -0.4430 
  4 N        3.0250     2.2060     1.1790 N.am  1 <1>  -0.4960 
  5 C        5.5200     1.3610     0.6210 C.2   1 <1>   0.4190 
  6 C        5.6640     0.0360     2.7390 C.3   1 <1>   0.0500 
  7 C        3.6040     2.6520     0.0240 C.2   1 <1>   0.6980 
  8 N        6.7570     1.0560     0.1630 N.pl3 1 <1>  -0.7050 
  9 C        4.9310     2.1910    -0.2690 C.2   1 <1>   0.2690 
 10 O        2.9800     3.4100    -0.6910 O.2   1 <1>  -0.5760 
 11 C        6.9610     1.6980    -0.9820 C.cat 1 <1>   1.0680 
 12 N        5.8650     2.3870    -1.3080 N.pl3 1 <1>  -0.7680 
 13 N        8.0830     1.6920    -1.7020 N.pl3 1 <1>  -0.7190 
 14 C        5.5730     3.1600    -2.5600 C.3   1 <1>   0.3470 
 15 C        9.3860     0.9950    -1.5280 C.3   1 <1>   0.3030 
 16 C        6.3770     4.4770    -2.6920 C.3   1 <1>   0.1910 
 17 C        9.3000    -0.0340    -0.4210 C.ar  1 <1>  -0.1530 
 18 O        7.7330     4.2030    -2.8180 O.3   1 <1>  -0.6850 
 19 C        6.2150     5.4180    -1.4990 C.3   1 <1>  -0.2480 
 20 C        9.5980     0.3240     0.8850 C.ar  1 <1>   0.1510 
 21 C        8.8520    -1.3150    -0.6810 C.ar  1 <1>  -0.1590 
 22 N        9.4070    -0.4560     1.9320 N.ar  1 <1>  -0.6250 
 23 C        8.7050    -2.1560     0.4000 C.ar  1 <1>  -0.1590 
 24 C        8.9890    -1.6850     1.6690 C.ar  1 <1>   0.1510 
 25 H        2.0830     2.5160     1.4070 H     1 <1>   0.3630 
 26 H        5.1380    -0.0480     3.6740 H     1 <1>   0.0700 
 27 H        6.6430     0.4360     2.9370 H     1 <1>   0.0700 
 28 H        5.7620    -0.9460     2.3110 H     1 <1>   0.0700 
 29 H        7.4450     0.4360     0.6030 H     1 <1>   0.4430 
 30 H        8.1140     2.4510    -2.4000 H     1 <1>   0.4430 
 31 H        4.5260     3.4020    -2.5970 H     1 <1>   0.0700 
 32 H        5.7770     2.5420    -3.4170 H     1 <1>   0.0700 
 33 H       10.1510     1.7190    -1.2990 H     1 <1>   0.0700 
 34 H        9.6550     0.5100    -2.4520 H     1 <1>   0.0700 
 35 H        6.0670     4.9820    -3.5920 H     1 <1>   0.0700 
 36 H        8.2170     5.0490    -2.9540 H     1 <1>   0.3930 
 37 H        6.6010     4.9760    -0.5970 H     1 <1>   0.0700 
 38 H        5.1720     5.6380    -1.3480 H     1 <1>   0.0700 
 39 H        6.7230     6.3480    -1.6830 H     1 <1>   0.0700 
 40 H        9.9800     1.3120     1.0900 H     1 <1>   0.1410 
 41 H        8.6220    -1.6530    -1.6790 H     1 <1>   0.1410 
 42 H        8.3740    -3.1710     0.2640 H     1 <1>   0.1410 
 43 H        8.8680    -2.3500     2.5090 H     1 <1>   0.1410 
@<TRIPOS>BOND
  1   1   2  2   
  2   2   3  am  
  3   2   4  am  
  4   3   5  1   
  5   3   6  1   
  6   4   7  am  
  7   4  25  1   
  8   5   8  1   
  9   5   9  2   
 10   6  26  1   
 11   6  27  1   
 12   6  28  1   
 13   7   9  1   
 14   7  10  2   
 15   8  11  ar  
 16   8  29  1   
 17   9  12  1   
 18  11  12  ar  
 19  11  13  ar  
 20  12  14  1   
 21  13  15  1   
 22  13  30  1   
 23  14  16  1   
 24  14  31  1   
 25  14  32  1   
 26  15  17  1   
 27  15  33  1   
 28  15  34  1   
 29  16  18  1   
 30  16  19  1   
 31  16  35  1   
 32  17  20  ar  
 33  17  21  ar  
 34  18  36  1   
 35  19  37  1   
 36  19  38  1   
 37  19  39  1   
 38  20  22  ar  
 39  20  40  1   
 40  21  23  ar  
 41  21  41  1   
 42  22  24  ar  
 43  23  24  ar  
 44  23  42  1   
 45  24  43  1   
@<TRIPOS>SUBSTRUCTURE
  1 ****   8 GROUP 4 **** **** 0

# MOE 2024.06 (io_trps.svl 2023.06)
