@<TRIPOS>MOLECULE
7-(2-Hydroxy-propyl)-3-methyl-8-(4-methyl-piperazin-1-yl)-3,7-dihydro-purine-2,6
47 49 1 0 0 
SMALL
USER_CHARGES


@<TRIPOS>ATOM
  1 O        0.8940     0.5020     1.2600 O.2   1 <1>  -0.5750 
  2 C        1.9210     1.0120     0.8810 C.2   1 <1>   0.6860 
  3 N        3.1460     0.3670     0.9720 N.am  1 <1>  -0.4420 
  4 N        1.8660     2.2600     0.3350 N.am  1 <1>  -0.4960 
  5 C        4.2620     1.0380     0.4950 C.2   1 <1>   0.4200 
  6 C        3.2460    -0.9990     1.5650 C.3   1 <1>   0.0510 
  7 C        2.9530     2.9240    -0.1550 C.2   1 <1>   0.6990 
  8 N        5.5370     0.5720     0.4290 N.pl3 1 <1>  -0.7040 
  9 C        4.2340     2.2890    -0.0180 C.2   1 <1>   0.2700 
 10 O        2.7800     3.9880    -0.7140 O.2   1 <1>  -0.5750 
 11 C        6.3090     1.5260    -0.0910 C.cat 1 <1>   1.0680 
 12 N        5.5680     2.6120    -0.3540 N.pl3 1 <1>  -0.7680 
 13 N        7.6200     1.3110    -0.3600 N.pl3 1 <1>  -0.5970 
 14 C        5.9310     3.8970    -1.0490 C.3   1 <1>   0.3470 
 15 C        8.6950     2.2680     0.0660 C.3   1 <1>   0.1600 
 16 C        8.0530     0.1900    -1.2640 C.3   1 <1>   0.1600 
 17 C        6.2320     5.1030    -0.1160 C.3   1 <1>   0.1920 
 18 C       10.0470     1.5950     0.3900 C.3   1 <1>   0.3360 
 19 C        9.4090    -0.4370    -0.8670 C.3   1 <1>   0.3360 
 20 O        7.2870     4.8110     0.7260 O.3   1 <1>  -0.6840 
 21 C        5.0810     5.5500     0.7850 C.3   1 <1>  -0.2480 
 22 N       10.4660     0.6020    -0.6530 N.4   1 <1>  -0.9610 
 23 C       11.7670    -0.0350    -0.2750 C.3   1 <1>   0.2560 
 24 H        0.9480     2.6930     0.2510 H     1 <1>   0.3630 
 25 H        2.3480    -1.2450     2.1090 H     1 <1>   0.0710 
 26 H        4.0730    -1.0470     2.2510 H     1 <1>   0.0710 
 27 H        3.3800    -1.7270     0.7840 H     1 <1>   0.0710 
 28 H        5.8500    -0.3350     0.7580 H     1 <1>   0.4440 
 29 H        5.1270     4.1770    -1.7080 H     1 <1>   0.0710 
 30 H        6.7920     3.7330    -1.6740 H     1 <1>   0.0710 
 31 H        8.3820     2.7590     0.9680 H     1 <1>   0.0710 
 32 H        8.8410     3.0140    -0.6960 H     1 <1>   0.0710 
 33 H        8.1370     0.5710    -2.2670 H     1 <1>   0.0710 
 34 H        7.3050    -0.5850    -1.2820 H     1 <1>   0.0710 
 35 H        6.5340     5.9380    -0.7260 H     1 <1>   0.0710 
 36 H        9.9620     1.0950     1.3410 H     1 <1>   0.0710 
 37 H       10.8020     2.3570     0.4930 H     1 <1>   0.0710 
 38 H        9.7230    -1.1190    -1.6410 H     1 <1>   0.0710 
 39 H        9.2800    -1.0080     0.0380 H     1 <1>   0.0710 
 40 H        7.4190     5.5650     1.3420 H     1 <1>   0.3940 
 41 H        4.7610     4.7560     1.4350 H     1 <1>   0.0710 
 42 H        4.2480     5.8650     0.1830 H     1 <1>   0.0710 
 43 H        5.3790     6.3940     1.3820 H     1 <1>   0.0710 
 44 H       10.6180     1.1080    -1.5400 H     1 <1>   0.4440 
 45 H       11.6660    -0.5750     0.6520 H     1 <1>   0.0710 
 46 H       12.5300     0.7170    -0.1540 H     1 <1>   0.0710 
 47 H       12.0840    -0.7220    -1.0430 H     1 <1>   0.0710 
@<TRIPOS>BOND
  1   1   2  2   
  2   2   3  am  
  3   2   4  am  
  4   3   5  1   
  5   3   6  1   
  6   4   7  am  
  7   4  24  1   
  8   5   8  1   
  9   5   9  2   
 10   6  25  1   
 11   6  26  1   
 12   6  27  1   
 13   7   9  1   
 14   7  10  2   
 15   8  11  ar  
 16   8  28  1   
 17   9  12  1   
 18  11  12  ar  
 19  11  13  ar  
 20  12  14  1   
 21  13  15  1   
 22  13  16  1   
 23  14  17  1   
 24  14  29  1   
 25  14  30  1   
 26  15  18  1   
 27  15  31  1   
 28  15  32  1   
 29  16  19  1   
 30  16  33  1   
 31  16  34  1   
 32  17  20  1   
 33  17  21  1   
 34  17  35  1   
 35  18  22  1   
 36  18  36  1   
 37  18  37  1   
 38  19  22  1   
 39  19  38  1   
 40  19  39  1   
 41  20  40  1   
 42  21  41  1   
 43  21  42  1   
 44  21  43  1   
 45  22  23  1   
 46  22  44  1   
 47  23  45  1   
 48  23  46  1   
 49  23  47  1   
@<TRIPOS>SUBSTRUCTURE
  1 ****  11 GROUP 4 **** **** 0

# MOE 2024.06 (io_trps.svl 2023.06)
