@<TRIPOS>MOLECULE
N-(4-{1-[3-(4-tert-Butyl-phenyl)-[1,2,4]oxadiazol-5-yl]-ethylsulfamoyl}-phenyl)-
57 59 1 0 0 
SMALL
USER_CHARGES


@<TRIPOS>ATOM
  1 S        0.0550    -1.2700    -0.0900 S.o2  1 <1>   1.4470 
  2 O        1.3050    -1.9310    -0.3760 O.2   1 <1>  -0.6500 
  3 O       -1.1430    -1.6980    -0.7690 O.2   1 <1>  -0.6500 
  4 N       -0.1400    -1.5370     1.5550 N.am  1 <1>  -0.9140 
  5 C        0.2710     0.5270    -0.2300 C.ar  1 <1>  -0.0090 
  6 C       -1.5040    -1.5650     2.0840 C.3   1 <1>   0.4560 
  7 C       -0.5180     1.2860    -1.0880 C.ar  1 <1>  -0.1500 
  8 C        1.2410     1.1930     0.5100 C.ar  1 <1>  -0.1500 
  9 C       -2.3490    -2.7620     1.6130 C.2   1 <1>   0.2980 
 10 C       -2.1840    -0.2040     1.8930 C.3   1 <1>  -0.2400 
 11 C       -0.3490     2.6550    -1.1990 C.ar  1 <1>  -0.1500 
 12 C        1.4130     2.5620     0.4040 C.ar  1 <1>  -0.1500 
 13 O       -1.7670    -3.9330     1.5780 O.3   1 <1>  -0.0190 
 14 N       -3.5740    -2.7570     1.2700 N.2   1 <1>  -0.5650 
 15 C        0.6170     3.3130    -0.4490 C.ar  1 <1>   0.1170 
 16 N       -2.6940    -4.7370     1.1670 N.2   1 <1>  -0.4100 
 17 C       -3.7610    -4.0470     0.9700 C.2   1 <1>   0.4620 
 18 N        0.8200     4.6920    -0.5510 N.am  1 <1>  -0.5470 
 19 C       -5.0310    -4.5660     0.4890 C.ar  1 <1>   0.0540 
 20 C       -0.0510     5.7340    -0.5120 C.2   1 <1>   0.5690 
 21 C       -5.1930    -5.9140     0.1770 C.ar  1 <1>  -0.1500 
 22 C       -6.1450    -3.7470     0.3150 C.ar  1 <1>  -0.1500 
 23 O        0.3510     6.8560    -0.6750 O.2   1 <1>  -0.5700 
 24 C       -1.5210     5.5170    -0.2430 C.3   1 <1>  -0.1790 
 25 C       -6.3980    -6.4130    -0.2820 C.ar  1 <1>  -0.1500 
 26 C       -7.3520    -4.2430    -0.1430 C.ar  1 <1>  -0.1500 
 27 C       -7.5060    -5.5910    -0.4540 C.ar  1 <1>  -0.1430 
 28 C       -8.8300    -6.1940    -0.9720 C.3   1 <1>   0.1430 
 29 C       -9.9560    -5.1550    -1.1070 C.3   1 <1>  -0.2400 
 30 C       -9.3150    -7.2800     0.0000 C.3   1 <1>  -0.2400 
 31 C       -8.6020    -6.8140    -2.3590 C.3   1 <1>  -0.2400 
 32 H        0.2430    -2.4750     1.6690 H     1 <1>   0.4200 
 33 H       -1.4030    -1.7000     3.1470 H     1 <1>   0.0800 
 34 H       -1.2740     0.7960    -1.6810 H     1 <1>   0.1500 
 35 H        1.8710     0.6280     1.1770 H     1 <1>   0.1500 
 36 H       -2.4560    -0.0480     0.8650 H     1 <1>   0.0800 
 37 H       -1.5420     0.5900     2.2290 H     1 <1>   0.0800 
 38 H       -3.0880    -0.1770     2.4730 H     1 <1>   0.0800 
 39 H       -0.9630     3.2120    -1.8830 H     1 <1>   0.1500 
 40 H        2.1710     3.0520     0.9900 H     1 <1>   0.1500 
 41 H        1.7880     5.0060    -0.6380 H     1 <1>   0.3700 
 42 H       -4.3610    -6.5850     0.2930 H     1 <1>   0.1500 
 43 H       -6.0670    -2.6980     0.5410 H     1 <1>   0.1500 
 44 H       -1.6600     4.7260     0.4690 H     1 <1>   0.0800 
 45 H       -2.0250     5.2740    -1.1590 H     1 <1>   0.0800 
 46 H       -1.9480     6.4190     0.1570 H     1 <1>   0.0800 
 47 H       -6.4620    -7.4620    -0.5070 H     1 <1>   0.1500 
 48 H       -8.1640    -3.5490    -0.2510 H     1 <1>   0.1500 
 49 H      -10.1730    -4.7080    -0.1530 H     1 <1>   0.0800 
 50 H      -10.8560    -5.6170    -1.4700 H     1 <1>   0.0800 
 51 H       -9.6750    -4.3820    -1.8000 H     1 <1>   0.0800 
 52 H       -9.4430    -6.8620     0.9830 H     1 <1>   0.0800 
 53 H       -8.6080    -8.0860     0.0660 H     1 <1>   0.0800 
 54 H      -10.2560    -7.6880    -0.3240 H     1 <1>   0.0800 
 55 H       -8.2260    -6.0670    -3.0360 H     1 <1>   0.0800 
 56 H       -9.5210    -7.2050    -2.7560 H     1 <1>   0.0800 
 57 H       -7.8900    -7.6160    -2.3130 H     1 <1>   0.0800 
@<TRIPOS>BOND
  1   1   2  2   
  2   1   3  2   
  3   1   4  am  
  4   1   5  1   
  5   4   6  1   
  6   4  32  1   
  7   5   7  ar  
  8   5   8  ar  
  9   6   9  1   
 10   6  10  1   
 11   6  33  1   
 12   7  11  ar  
 13   7  34  1   
 14   8  12  ar  
 15   8  35  1   
 16   9  13  1   
 17   9  14  2   
 18  10  36  1   
 19  10  37  1   
 20  10  38  1   
 21  11  15  ar  
 22  11  39  1   
 23  12  15  ar  
 24  12  40  1   
 25  13  16  1   
 26  14  17  1   
 27  15  18  1   
 28  16  17  2   
 29  17  19  1   
 30  18  20  am  
 31  18  41  1   
 32  19  21  ar  
 33  19  22  ar  
 34  20  23  2   
 35  20  24  1   
 36  21  25  ar  
 37  21  42  1   
 38  22  26  ar  
 39  22  43  1   
 40  24  44  1   
 41  24  45  1   
 42  24  46  1   
 43  25  27  ar  
 44  25  47  1   
 45  26  27  ar  
 46  26  48  1   
 47  27  28  1   
 48  28  29  1   
 49  28  30  1   
 50  28  31  1   
 51  29  49  1   
 52  29  50  1   
 53  29  51  1   
 54  30  52  1   
 55  30  53  1   
 56  30  54  1   
 57  31  55  1   
 58  31  56  1   
 59  31  57  1   
@<TRIPOS>SUBSTRUCTURE
  1 ****  14 GROUP 4 **** **** 0

# MOE 2024.06 (io_trps.svl 2023.06)
