@<TRIPOS>MOLECULE
8-Ethylamino-7-(2-hydroxy-3-p-tolyloxy-propyl)-3-methyl-3,7-dihydro-purine-2,6-d
51 53 1 0 0 
SMALL
USER_CHARGES


@<TRIPOS>ATOM
  1 O        1.4970     1.5540     2.5440 O.2   1 <1>  -0.5750 
  2 C        2.3900     1.7570     1.7560 C.2   1 <1>   0.6860 
  3 N        3.2490     0.7520     1.3320 N.am  1 <1>  -0.4420 
  4 N        2.5540     3.0230     1.2730 N.am  1 <1>  -0.4950 
  5 C        4.2530     1.0980     0.4390 C.2   1 <1>   0.4200 
  6 C        3.1020    -0.6470     1.8300 C.3   1 <1>   0.0520 
  7 C        3.5320     3.3780     0.3900 C.2   1 <1>   0.6990 
  8 N        5.2080     0.2900    -0.0990 N.pl3 1 <1>  -0.7040 
  9 C        4.4330     2.3500    -0.0420 C.2   1 <1>   0.2700 
 10 O        3.6020     4.5300     0.0130 O.2   1 <1>  -0.5750 
 11 C        5.9680     1.0260    -0.9040 C.cat 1 <1>   1.0690 
 12 N        5.5470     2.2900    -0.9020 N.pl3 1 <1>  -0.7670 
 13 N        7.0080     0.5710    -1.5980 N.pl3 1 <1>  -0.7180 
 14 C        6.0830     3.4740    -1.6490 C.3   1 <1>   0.3480 
 15 C        7.5780    -0.7920    -1.6220 C.3   1 <1>   0.1600 
 16 C        6.8440     4.4770    -0.7580 C.3   1 <1>   0.1930 
 17 C        8.9930    -0.7260    -1.0630 C.3   1 <1>  -0.2470 
 18 O        7.5400     5.3200    -1.6090 O.3   1 <1>  -0.6840 
 19 C        7.8360     3.8280     0.2280 C.3   1 <1>   0.1120 
 20 O        8.2820     4.7740     1.1800 O.3   1 <1>  -0.3680 
 21 C        9.1440     5.7640     0.8490 C.ar  1 <1>   0.0750 
 22 C        8.9340     7.0070     1.4210 C.ar  1 <1>  -0.1570 
 23 C       10.2000     5.5850    -0.0380 C.ar  1 <1>  -0.1570 
 24 C        9.7560     8.0720     1.0960 C.ar  1 <1>  -0.1570 
 25 C       11.0180     6.6530    -0.3610 C.ar  1 <1>  -0.1570 
 26 C       10.8000     7.9000     0.2010 C.ar  1 <1>  -0.1510 
 27 C       11.6980     9.0690    -0.1590 C.3   1 <1>  -0.1040 
 28 H        1.9050     3.7370     1.6000 H     1 <1>   0.3640 
 29 H        2.1920    -0.7580     2.3970 H     1 <1>   0.0720 
 30 H        3.9310    -0.8960     2.4690 H     1 <1>   0.0720 
 31 H        3.0660    -1.3320     1.0020 H     1 <1>   0.0720 
 32 H        5.3330    -0.7020     0.0740 H     1 <1>   0.4450 
 33 H        7.5170     1.2330    -2.1840 H     1 <1>   0.4450 
 34 H        5.2650     3.9920    -2.1220 H     1 <1>   0.0720 
 35 H        6.7450     3.1350    -2.4260 H     1 <1>   0.0720 
 36 H        7.6030    -1.1560    -2.6370 H     1 <1>   0.0720 
 37 H        6.9850    -1.4720    -1.0340 H     1 <1>   0.0720 
 38 H        6.1360     5.0770    -0.2130 H     1 <1>   0.0720 
 39 H        9.6140    -0.0850    -1.6650 H     1 <1>   0.0720 
 40 H        9.4290    -1.7100    -1.0720 H     1 <1>   0.0720 
 41 H        8.9900    -0.3730    -0.0470 H     1 <1>   0.0720 
 42 H        8.0690     5.9630    -1.0770 H     1 <1>   0.3940 
 43 H        8.6760     3.3880    -0.2760 H     1 <1>   0.0720 
 44 H        7.3450     3.0610     0.7960 H     1 <1>   0.0720 
 45 H        8.1260     7.1400     2.1170 H     1 <1>   0.1430 
 46 H       10.4020     4.6270    -0.4770 H     1 <1>   0.1430 
 47 H        9.5800     9.0350     1.5430 H     1 <1>   0.1430 
 48 H       11.8300     6.5100    -1.0520 H     1 <1>   0.1430 
 49 H       11.3100     9.5720    -1.0270 H     1 <1>   0.0720 
 50 H       12.6940     8.7250    -0.3730 H     1 <1>   0.0720 
 51 H       11.7500     9.7690     0.6550 H     1 <1>   0.0720 
@<TRIPOS>BOND
  1   1   2  2   
  2   2   3  am  
  3   2   4  am  
  4   3   5  1   
  5   3   6  1   
  6   4   7  am  
  7   4  28  1   
  8   5   8  1   
  9   5   9  2   
 10   6  29  1   
 11   6  30  1   
 12   6  31  1   
 13   7   9  1   
 14   7  10  2   
 15   8  11  ar  
 16   8  32  1   
 17   9  12  1   
 18  11  12  ar  
 19  11  13  ar  
 20  12  14  1   
 21  13  15  1   
 22  13  33  1   
 23  14  16  1   
 24  14  34  1   
 25  14  35  1   
 26  15  17  1   
 27  15  36  1   
 28  15  37  1   
 29  16  18  1   
 30  16  19  1   
 31  16  38  1   
 32  17  39  1   
 33  17  40  1   
 34  17  41  1   
 35  18  42  1   
 36  19  20  1   
 37  19  43  1   
 38  19  44  1   
 39  20  21  1   
 40  21  22  ar  
 41  21  23  ar  
 42  22  24  ar  
 43  22  45  1   
 44  23  25  ar  
 45  23  46  1   
 46  24  26  ar  
 47  24  47  1   
 48  25  26  ar  
 49  25  48  1   
 50  26  27  1   
 51  27  49  1   
 52  27  50  1   
 53  27  51  1   
@<TRIPOS>SUBSTRUCTURE
  1 ****  19 GROUP 4 **** **** 0

# MOE 2024.06 (io_trps.svl 2023.06)
