@<TRIPOS>MOLECULE
1-(3-Methyl-benzyl)-piperidine-4-carboxylic acid isopropylamide
47 48 1 0 0 
SMALL
USER_CHARGES


@<TRIPOS>ATOM
  1 O        1.2130    -1.4970    -1.7050 O.2   1 <1>  -0.5700 
  2 C        1.5470    -1.2300    -0.5770 C.2   1 <1>   0.5690 
  3 N        1.7780     0.0420    -0.1650 N.am  1 <1>  -0.7300 
  4 C        1.7150    -2.3760     0.4180 C.3   1 <1>  -0.0190 
  5 C        1.6560     1.2340    -1.0140 C.3   1 <1>   0.2200 
  6 C        2.8510    -3.3170    -0.0280 C.3   1 <1>  -0.1600 
  7 C        0.3970    -3.1610     0.5700 C.3   1 <1>  -0.1600 
  8 C        3.0180     1.9160    -1.0750 C.3   1 <1>  -0.2400 
  9 C        0.6030     2.1500    -0.4000 C.3   1 <1>  -0.2400 
 10 C        2.9580    -4.5580     0.8530 C.3   1 <1>   0.3430 
 11 C        0.5580    -4.4050     1.4390 C.3   1 <1>   0.3430 
 12 N        1.6410    -5.2580     0.8830 N.4   1 <1>  -0.9590 
 13 C        1.7250    -6.5700     1.5820 C.3   1 <1>   0.4860 
 14 C        2.6950    -7.4580     0.8290 C.ar  1 <1>  -0.1440 
 15 C        2.3540    -7.9700    -0.4150 C.ar  1 <1>  -0.1500 
 16 C        3.9350    -7.7560     1.3750 C.ar  1 <1>  -0.1500 
 17 C        3.2470    -8.7610    -1.1180 C.ar  1 <1>  -0.1440 
 18 C        4.8270    -8.5490     0.6770 C.ar  1 <1>  -0.1500 
 19 C        4.4850    -9.0480    -0.5660 C.ar  1 <1>  -0.1500 
 20 C        2.8730    -9.3200    -2.4800 C.3   1 <1>  -0.0970 
 21 H        2.0620     0.2430     0.7920 H     1 <1>   0.3700 
 22 H        1.9740    -1.9600     1.3750 H     1 <1>   0.0800 
 23 H        1.3500     0.9500    -2.0090 H     1 <1>   0.0800 
 24 H        3.7860    -2.7840    -0.0020 H     1 <1>   0.0800 
 25 H        2.6930    -3.6260    -1.0480 H     1 <1>   0.0800 
 26 H        0.0320    -3.4570    -0.4000 H     1 <1>   0.0800 
 27 H       -0.3500    -2.5190     1.0040 H     1 <1>   0.0800 
 28 H        3.3440     2.2150    -0.0960 H     1 <1>   0.0800 
 29 H        2.9580     2.7900    -1.6980 H     1 <1>   0.0800 
 30 H        3.7420     1.2480    -1.5070 H     1 <1>   0.0800 
 31 H        0.8870     2.4530     0.5910 H     1 <1>   0.0800 
 32 H       -0.3450     1.6450    -0.3640 H     1 <1>   0.0800 
 33 H        0.4900     3.0290    -1.0070 H     1 <1>   0.0800 
 34 H        3.2470    -4.2740     1.8520 H     1 <1>   0.0800 
 35 H        3.7180    -5.2120     0.4520 H     1 <1>   0.0800 
 36 H       -0.3730    -4.9500     1.4570 H     1 <1>   0.0800 
 37 H        0.8020    -4.1140     2.4480 H     1 <1>   0.0800 
 38 H        1.4120    -5.4710    -0.0970 H     1 <1>   0.4500 
 39 H        0.7580    -7.0440     1.6030 H     1 <1>   0.0800 
 40 H        2.0620    -6.4330     2.5960 H     1 <1>   0.0800 
 41 H        1.3910    -7.7660    -0.8490 H     1 <1>   0.1500 
 42 H        4.2230    -7.3820     2.3430 H     1 <1>   0.1500 
 43 H        5.7900    -8.7840     1.0980 H     1 <1>   0.1500 
 44 H        5.1860    -9.6650    -1.1010 H     1 <1>   0.1500 
 45 H        2.2180    -8.6460    -3.0010 H     1 <1>   0.0800 
 46 H        2.3750   -10.2660    -2.3610 H     1 <1>   0.0800 
 47 H        3.7530    -9.4680    -3.0810 H     1 <1>   0.0800 
@<TRIPOS>BOND
  1   1   2  2   
  2   2   3  am  
  3   2   4  1   
  4   3   5  1   
  5   3  21  1   
  6   4   6  1   
  7   4   7  1   
  8   4  22  1   
  9   5   8  1   
 10   5   9  1   
 11   5  23  1   
 12   6  10  1   
 13   6  24  1   
 14   6  25  1   
 15   7  11  1   
 16   7  26  1   
 17   7  27  1   
 18   8  28  1   
 19   8  29  1   
 20   8  30  1   
 21   9  31  1   
 22   9  32  1   
 23   9  33  1   
 24  10  12  1   
 25  10  34  1   
 26  10  35  1   
 27  11  12  1   
 28  11  36  1   
 29  11  37  1   
 30  12  13  1   
 31  12  38  1   
 32  13  14  1   
 33  13  39  1   
 34  13  40  1   
 35  14  15  ar  
 36  14  16  ar  
 37  15  17  ar  
 38  15  41  1   
 39  16  18  ar  
 40  16  42  1   
 41  17  19  ar  
 42  17  20  1   
 43  18  19  ar  
 44  18  43  1   
 45  19  44  1   
 46  20  45  1   
 47  20  46  1   
 48  20  47  1   
@<TRIPOS>SUBSTRUCTURE
  1 ****   6 GROUP 4 **** **** 0

# MOE 2024.06 (io_trps.svl 2023.06)
