@<TRIPOS>MOLECULE
N-Benzo[1,3]dioxol-5-ylmethyl-4-morpholin-4-ylmethyl-benzamide
49 52 1 0 0 
SMALL
USER_CHARGES


@<TRIPOS>ATOM
  1 O       -0.0490    -0.1620    -0.2990 O.2   1 <1>  -0.5700 
  2 C        0.0220     1.0040     0.0340 C.2   1 <1>   0.5440 
  3 N        1.2370     1.6160    -0.0220 N.am  1 <1>  -0.7300 
  4 C       -1.1600     1.7180     0.4880 C.ar  1 <1>   0.0860 
  5 C        2.4740     0.9720    -0.4910 C.3   1 <1>   0.2840 
  6 C       -2.2190     1.0350     1.0860 C.ar  1 <1>  -0.1500 
  7 C       -1.2960     3.1000     0.3490 C.ar  1 <1>  -0.1500 
  8 C        3.5030     2.0610    -0.7260 C.ar  1 <1>  -0.1440 
  9 C       -3.3540     1.6900     1.5240 C.ar  1 <1>  -0.1500 
 10 C       -2.4280     3.7650     0.7840 C.ar  1 <1>  -0.1500 
 11 C        4.3460     2.4560     0.3100 C.ar  1 <1>  -0.1500 
 12 C        3.5990     2.6740    -1.9760 C.ar  1 <1>  -0.1500 
 13 C       -3.4700     3.0630     1.3720 C.ar  1 <1>  -0.1430 
 14 C        5.2630     3.4560     0.0580 C.ar  1 <1>   0.0830 
 15 C        4.5300     3.6790    -2.2090 C.ar  1 <1>  -0.1500 
 16 C       -4.7270     3.7790     1.8340 C.3   1 <1>   0.4860 
 17 O        6.1600     3.9880     0.8960 O.3   1 <1>  -0.3630 
 18 C        5.3530     4.0510    -1.1660 C.ar  1 <1>   0.0830 
 19 N       -5.5350     4.1540     0.6430 N.4   1 <1>  -0.9590 
 20 C        6.8710     4.9790     0.1560 C.3   1 <1>   0.4000 
 21 O        6.3110     4.9840    -1.1560 O.3   1 <1>  -0.3620 
 22 C       -6.7410     4.9860     0.9730 C.3   1 <1>   0.3430 
 23 C       -5.9090     2.9890    -0.2300 C.3   1 <1>   0.3430 
 24 C       -7.5870     5.2850    -0.2870 C.3   1 <1>   0.1200 
 25 C       -6.6980     3.4560    -1.4770 C.3   1 <1>   0.1200 
 26 O       -6.9380     4.8390    -1.4460 O.3   1 <1>  -0.5600 
 27 H        1.3700     2.5650     0.3280 H     1 <1>   0.3700 
 28 H        2.2800     0.4280    -1.4010 H     1 <1>   0.0800 
 29 H        2.8210     0.2770     0.2540 H     1 <1>   0.0800 
 30 H       -2.1380    -0.0340     1.2050 H     1 <1>   0.1500 
 31 H       -0.5040     3.6630    -0.1150 H     1 <1>   0.1500 
 32 H       -4.1380     1.1130     1.9850 H     1 <1>   0.1500 
 33 H       -2.4810     4.8340     0.6590 H     1 <1>   0.1500 
 34 H        4.2980     2.0060     1.2850 H     1 <1>   0.1500 
 35 H        2.9440     2.3690    -2.7740 H     1 <1>   0.1500 
 36 H        4.6160     4.1600    -3.1670 H     1 <1>   0.1500 
 37 H       -4.4510     4.6610     2.3890 H     1 <1>   0.0800 
 38 H       -5.2970     3.1330     2.4820 H     1 <1>   0.0800 
 39 H       -4.9500     4.7440     0.0330 H     1 <1>   0.4500 
 40 H        7.9120     4.7130     0.1030 H     1 <1>   0.0800 
 41 H        6.7290     5.9420     0.6130 H     1 <1>   0.0800 
 42 H       -6.4330     5.9190     1.4150 H     1 <1>   0.0800 
 43 H       -7.3600     4.4750     1.6920 H     1 <1>   0.0800 
 44 H       -6.5130     2.2900     0.3250 H     1 <1>   0.0800 
 45 H       -5.0240     2.4660    -0.5540 H     1 <1>   0.0800 
 46 H       -7.7470     6.3450    -0.3850 H     1 <1>   0.0800 
 47 H       -8.5490     4.8050    -0.2250 H     1 <1>   0.0800 
 48 H       -7.6410     2.9430    -1.5450 H     1 <1>   0.0800 
 49 H       -6.1350     3.2430    -2.3700 H     1 <1>   0.0800 
@<TRIPOS>BOND
  1   1   2  2   
  2   2   3  am  
  3   2   4  1   
  4   3   5  1   
  5   3  27  1   
  6   4   6  ar  
  7   4   7  ar  
  8   5   8  1   
  9   5  28  1   
 10   5  29  1   
 11   6   9  ar  
 12   6  30  1   
 13   7  10  ar  
 14   7  31  1   
 15   8  11  ar  
 16   8  12  ar  
 17   9  13  ar  
 18   9  32  1   
 19  10  13  ar  
 20  10  33  1   
 21  11  14  ar  
 22  11  34  1   
 23  12  15  ar  
 24  12  35  1   
 25  13  16  1   
 26  14  17  1   
 27  14  18  ar  
 28  15  18  ar  
 29  15  36  1   
 30  16  19  1   
 31  16  37  1   
 32  16  38  1   
 33  17  20  1   
 34  18  21  1   
 35  19  22  1   
 36  19  23  1   
 37  19  39  1   
 38  20  21  1   
 39  20  40  1   
 40  20  41  1   
 41  22  24  1   
 42  22  42  1   
 43  22  43  1   
 44  23  25  1   
 45  23  44  1   
 46  23  45  1   
 47  24  26  1   
 48  24  46  1   
 49  24  47  1   
 50  25  26  1   
 51  25  48  1   
 52  25  49  1   
@<TRIPOS>SUBSTRUCTURE
  1 ****   7 GROUP 4 **** **** 0

# MOE 2024.06 (io_trps.svl 2023.06)
