@<TRIPOS>MOLECULE
N-Cyclohexyl-2-(2-phenylmethanesulfonyl-benzoimidazol-1-yl)-acetamide
54 57 1 0 0 
SMALL
USER_CHARGES


@<TRIPOS>ATOM
  1 S       -0.1740    -0.4100     0.6700 S.o2  1 <1>   1.2570 
  2 O        0.3420     0.8630     1.1290 O.2   1 <1>  -0.6500 
  3 O       -0.0900    -1.5240     1.5950 O.2   1 <1>  -0.6500 
  4 C       -1.9060    -0.2060     0.1060 C.2   1 <1>   0.1240 
  5 C        0.6130    -0.8210    -0.8950 C.3   1 <1>   0.0890 
  6 N       -2.3230     0.7500    -0.6680 N.2   1 <1>  -0.5650 
  7 N       -2.9100    -1.0860     0.4290 N.pl3 1 <1>   0.0480 
  8 C        2.0590    -1.3010    -0.7990 C.ar  1 <1>  -0.1440 
  9 C       -3.6440     0.5160    -0.8590 C.ar  1 <1>   0.2270 
 10 C       -4.0330    -0.6240    -0.1880 C.ar  1 <1>  -0.1520 
 11 C       -2.8500    -2.3530     1.2070 C.3   1 <1>   0.1570 
 12 C        2.4250    -2.5020    -1.3870 C.ar  1 <1>  -0.1500 
 13 C        3.0220    -0.5470    -0.1430 C.ar  1 <1>  -0.1500 
 14 C       -4.5670     1.2470    -1.6040 C.ar  1 <1>  -0.1500 
 15 C       -5.3580    -1.0700    -0.2500 C.ar  1 <1>  -0.1500 
 16 C       -2.0040    -3.4190     0.5240 C.2   1 <1>   0.5690 
 17 C        3.7320    -2.9520    -1.3110 C.ar  1 <1>  -0.1500 
 18 C        4.3290    -0.9960    -0.0660 C.ar  1 <1>  -0.1500 
 19 C       -5.8740     0.8150    -1.6650 C.ar  1 <1>  -0.1500 
 20 C       -6.2670    -0.3450    -0.9880 C.ar  1 <1>  -0.1500 
 21 O       -1.6400    -3.2430    -0.6150 O.2   1 <1>  -0.5700 
 22 N       -1.6590    -4.5220     1.2480 N.am  1 <1>  -0.7300 
 23 C        4.6850    -2.1990    -0.6490 C.ar  1 <1>  -0.1500 
 24 C       -0.6360    -5.5370     0.9080 C.3   1 <1>   0.2200 
 25 C        0.7480    -4.8820     0.8360 C.3   1 <1>  -0.1600 
 26 C       -0.9830    -6.2900    -0.3840 C.3   1 <1>  -0.1600 
 27 C        1.8330    -5.9080     0.4810 C.3   1 <1>  -0.1600 
 28 C        0.1040    -7.3210    -0.7250 C.3   1 <1>  -0.1600 
 29 C        1.4860    -6.6570    -0.8130 C.3   1 <1>  -0.1600 
 30 H        0.5870     0.0420    -1.5310 H     1 <1>   0.0800 
 31 H        0.0370    -1.5810    -1.3830 H     1 <1>   0.0800 
 32 H       -3.8430    -2.7370     1.3340 H     1 <1>   0.0800 
 33 H       -2.4460    -2.1420     2.1780 H     1 <1>   0.0800 
 34 H        1.6950    -3.1000    -1.9070 H     1 <1>   0.1500 
 35 H        2.7660     0.3940     0.3160 H     1 <1>   0.1500 
 36 H       -4.2350     2.1320    -2.1130 H     1 <1>   0.1500 
 37 H       -5.6670    -1.9610     0.2650 H     1 <1>   0.1500 
 38 H        4.0060    -3.8870    -1.7670 H     1 <1>   0.1500 
 39 H        5.0680    -0.4070     0.4490 H     1 <1>   0.1500 
 40 H       -6.6020     1.3660    -2.2360 H     1 <1>   0.1500 
 41 H       -7.2930    -0.6640    -1.0530 H     1 <1>   0.1500 
 42 H       -1.9350    -4.5660     2.2290 H     1 <1>   0.3700 
 43 H        5.7010    -2.5470    -0.5880 H     1 <1>   0.1500 
 44 H       -0.6150    -6.2590     1.7070 H     1 <1>   0.0800 
 45 H        0.9840    -4.4220     1.7790 H     1 <1>   0.0800 
 46 H        0.7390    -4.1150     0.0850 H     1 <1>   0.0800 
 47 H       -1.0620    -5.5990    -1.2040 H     1 <1>   0.0800 
 48 H       -1.9280    -6.7890    -0.2680 H     1 <1>   0.0800 
 49 H        1.9350    -6.6140     1.2870 H     1 <1>   0.0800 
 50 H        2.7770    -5.4030     0.3650 H     1 <1>   0.0800 
 51 H       -0.1300    -7.7910    -1.6650 H     1 <1>   0.0800 
 52 H        0.1230    -8.0870     0.0310 H     1 <1>   0.0800 
 53 H        2.2340    -7.4070    -1.0070 H     1 <1>   0.0800 
 54 H        1.4950    -5.9640    -1.6370 H     1 <1>   0.0800 
@<TRIPOS>BOND
  1   1   2  2   
  2   1   3  2   
  3   1   4  1   
  4   1   5  1   
  5   4   6  2   
  6   4   7  1   
  7   5   8  1   
  8   5  30  1   
  9   5  31  1   
 10   6   9  1   
 11   7  10  1   
 12   7  11  1   
 13   8  12  ar  
 14   8  13  ar  
 15   9  10  ar  
 16   9  14  ar  
 17  10  15  ar  
 18  11  16  1   
 19  11  32  1   
 20  11  33  1   
 21  12  17  ar  
 22  12  34  1   
 23  13  18  ar  
 24  13  35  1   
 25  14  19  ar  
 26  14  36  1   
 27  15  20  ar  
 28  15  37  1   
 29  16  21  2   
 30  16  22  am  
 31  17  23  ar  
 32  17  38  1   
 33  18  23  ar  
 34  18  39  1   
 35  19  20  ar  
 36  19  40  1   
 37  20  41  1   
 38  22  24  1   
 39  22  42  1   
 40  23  43  1   
 41  24  25  1   
 42  24  26  1   
 43  24  44  1   
 44  25  27  1   
 45  25  45  1   
 46  25  46  1   
 47  26  28  1   
 48  26  47  1   
 49  26  48  1   
 50  27  29  1   
 51  27  49  1   
 52  27  50  1   
 53  28  29  1   
 54  28  51  1   
 55  28  52  1   
 56  29  53  1   
 57  29  54  1   
@<TRIPOS>SUBSTRUCTURE
  1 ****  21 GROUP 4 **** **** 0

# MOE 2024.06 (io_trps.svl 2023.06)
