@<TRIPOS>MOLECULE
4-Chloro-N-(1-methyl-2-pyrrolidin-1-ylmethyl-1H-benzoimidazol-5-yl)-benzenesulfo
49 52 1 0 0 
SMALL
USER_CHARGES


@<TRIPOS>ATOM
  1 CL       1.9580    -0.4770     1.8430 Cl    1 <1>  -0.1770 
  2 C        2.9990     0.5570     0.9010 C.ar  1 <1>   0.1770 
  3 C        2.6660     1.8870     0.7340 C.ar  1 <1>  -0.1500 
  4 C        4.1440     0.0340     0.3340 C.ar  1 <1>  -0.1500 
  5 C        3.4990     2.7040    -0.0130 C.ar  1 <1>  -0.1500 
  6 C        4.9680     0.8610    -0.4110 C.ar  1 <1>  -0.1500 
  7 C        4.6610     2.2070    -0.5990 C.ar  1 <1>  -0.0090 
  8 S        5.7690     3.2890    -1.5430 S.o2  1 <1>   1.4470 
  9 O        5.0510     4.4270    -2.0640 O.2   1 <1>  -0.6500 
 10 O        6.6600     2.5320    -2.3890 O.2   1 <1>  -0.6500 
 11 N        6.7570     3.9640    -0.3180 N.am  1 <1>  -0.7570 
 12 C        7.7130     3.2130     0.3480 C.ar  1 <1>   0.1990 
 13 C        8.9870     3.0830    -0.1630 C.ar  1 <1>  -0.1500 
 14 C        7.3750     2.5730     1.5500 C.ar  1 <1>  -0.1500 
 15 C        9.9200     2.3120     0.5220 C.ar  1 <1>   0.2270 
 16 C        8.2920     1.8090     2.2340 C.ar  1 <1>  -0.1500 
 17 N       11.2130     2.0430     0.1980 N.2   1 <1>  -0.5650 
 18 C        9.5790     1.6830     1.7030 C.ar  1 <1>  -0.1520 
 19 C       11.6340     1.2790     1.1520 C.2   1 <1>   0.0060 
 20 N       10.6970     1.0200     2.1110 N.pl3 1 <1>   0.0480 
 21 C       13.0550     0.7290     1.1870 C.3   1 <1>   0.5230 
 22 C       10.7880     0.2220     3.3520 C.3   1 <1>   0.0160 
 23 N       13.6150     0.8790    -0.1790 N.4   1 <1>  -0.9590 
 24 C       13.2750    -0.2250    -1.1040 C.3   1 <1>   0.3430 
 25 C       15.0650     1.1280    -0.2770 C.3   1 <1>   0.3430 
 26 C       14.3150    -0.1350    -2.2160 C.3   1 <1>  -0.1600 
 27 C       15.3690     0.8730    -1.7440 C.3   1 <1>  -0.1600 
 28 H        1.7690     2.2740     1.1840 H     1 <1>   0.1500 
 29 H        4.3830    -1.0050     0.4750 H     1 <1>   0.1500 
 30 H        3.2450     3.7430    -0.1440 H     1 <1>   0.1500 
 31 H        5.8650     0.4570    -0.8530 H     1 <1>   0.1500 
 32 H        7.0550     4.8780    -0.6450 H     1 <1>   0.4200 
 33 H        9.2730     3.5530    -1.0840 H     1 <1>   0.1500 
 34 H        6.3760     2.6930     1.9310 H     1 <1>   0.1500 
 35 H        8.0280     1.3200     3.1560 H     1 <1>   0.1500 
 36 H       13.0610    -0.3050     1.4870 H     1 <1>   0.0800 
 37 H       13.6330     1.3060     1.8900 H     1 <1>   0.0800 
 38 H       10.4790     0.8290     4.1850 H     1 <1>   0.0800 
 39 H       11.7940    -0.1150     3.5160 H     1 <1>   0.0800 
 40 H       10.1320    -0.6270     3.2760 H     1 <1>   0.0800 
 41 H       13.0990     1.7060    -0.5400 H     1 <1>   0.4500 
 42 H       12.2710    -0.1140    -1.4870 H     1 <1>   0.0800 
 43 H       13.3650    -1.1740    -0.6020 H     1 <1>   0.0800 
 44 H       15.6030     0.4210     0.3340 H     1 <1>   0.0800 
 45 H       15.3200     2.1350     0.0160 H     1 <1>   0.0800 
 46 H       13.8550     0.1930    -3.1330 H     1 <1>   0.0800 
 47 H       14.7500    -1.1050    -2.3840 H     1 <1>   0.0800 
 48 H       16.3720     0.5040    -1.8750 H     1 <1>   0.0800 
 49 H       15.2690     1.7950    -2.2910 H     1 <1>   0.0800 
@<TRIPOS>BOND
  1   1   2  1   
  2   2   3  ar  
  3   2   4  ar  
  4   3   5  ar  
  5   3  28  1   
  6   4   6  ar  
  7   4  29  1   
  8   5   7  ar  
  9   5  30  1   
 10   6   7  ar  
 11   6  31  1   
 12   7   8  1   
 13   8   9  2   
 14   8  10  2   
 15   8  11  am  
 16  11  12  1   
 17  11  32  1   
 18  12  13  ar  
 19  12  14  ar  
 20  13  15  ar  
 21  13  33  1   
 22  14  16  ar  
 23  14  34  1   
 24  15  17  1   
 25  15  18  ar  
 26  16  18  ar  
 27  16  35  1   
 28  17  19  2   
 29  18  20  1   
 30  19  20  1   
 31  19  21  1   
 32  20  22  1   
 33  21  23  1   
 34  21  36  1   
 35  21  37  1   
 36  22  38  1   
 37  22  39  1   
 38  22  40  1   
 39  23  24  1   
 40  23  25  1   
 41  23  41  1   
 42  24  26  1   
 43  24  42  1   
 44  24  43  1   
 45  25  27  1   
 46  25  44  1   
 47  25  45  1   
 48  26  27  1   
 49  26  46  1   
 50  26  47  1   
 51  27  48  1   
 52  27  49  1   
@<TRIPOS>SUBSTRUCTURE
  1 ****  13 GROUP 4 **** **** 0

# MOE 2024.06 (io_trps.svl 2023.06)
