@<TRIPOS>MOLECULE
5-(Pyrrolidine-1-sulfonyl)-1,3-dihydro-benzoimidazol-2-one
31 33 1 0 0 
SMALL
USER_CHARGES


@<TRIPOS>ATOM
  1 S       -0.0870    -0.0710     1.5120 S.o2  1 <1>   1.4470 
  2 O        0.2790     1.1760     2.1490 O.2   1 <1>  -0.6500 
  3 O       -0.6580    -1.1350     2.3080 O.2   1 <1>  -0.6500 
  4 N       -1.2170     0.2960     0.3050 N.am  1 <1>  -0.8490 
  5 C        1.3210    -0.7200     0.5710 C.ar  1 <1>  -0.0090 
  6 C       -0.9010     1.4700    -0.4920 C.3   1 <1>   0.1960 
  7 C       -2.5490     0.5330     0.8320 C.3   1 <1>   0.1960 
  8 C        2.6040    -0.2190     0.7640 C.ar  1 <1>  -0.1500 
  9 C        1.1370    -1.7440    -0.3670 C.ar  1 <1>  -0.1500 
 10 C       -2.2060     1.7970    -1.2050 C.3   1 <1>  -0.1600 
 11 C       -3.2980     1.2140    -0.3080 C.3   1 <1>  -0.1600 
 12 C        3.6590    -0.7350     0.0300 C.ar  1 <1>   0.1170 
 13 C        2.1900    -2.2620    -1.1030 C.ar  1 <1>  -0.1500 
 14 N        5.0130    -0.4310     0.0160 N.am  1 <1>  -0.5470 
 15 C        3.4570    -1.7440    -0.8940 C.ar  1 <1>   0.1170 
 16 C        5.6160    -1.2360    -0.8900 C.2   1 <1>   0.6900 
 17 N        4.6880    -2.0400    -1.4570 N.am  1 <1>  -0.5470 
 18 O        6.8040    -1.2370    -1.1500 O.2   1 <1>  -0.5700 
 19 H       -0.1020     1.2680    -1.1860 H     1 <1>   0.0800 
 20 H       -0.6260     2.2950     0.1460 H     1 <1>   0.0800 
 21 H       -2.4940     1.1960     1.6820 H     1 <1>   0.0800 
 22 H       -3.0160    -0.3910     1.1300 H     1 <1>   0.0800 
 23 H        2.7840     0.5650     1.4790 H     1 <1>   0.1500 
 24 H        0.1430    -2.1350    -0.5140 H     1 <1>   0.1500 
 25 H       -2.2210     1.3170    -2.1680 H     1 <1>   0.0800 
 26 H       -2.3140     2.8590    -1.3400 H     1 <1>   0.0800 
 27 H       -3.9570     1.9730     0.0730 H     1 <1>   0.0800 
 28 H       -3.8760     0.4850    -0.8480 H     1 <1>   0.0800 
 29 H        2.0370    -3.0490    -1.8210 H     1 <1>   0.1500 
 30 H        5.5260     0.2450     0.5760 H     1 <1>   0.3700 
 31 H        4.9230    -2.7360    -2.1610 H     1 <1>   0.3700 
@<TRIPOS>BOND
  1   1   2  2   
  2   1   3  2   
  3   1   4  am  
  4   1   5  1   
  5   4   6  1   
  6   4   7  1   
  7   5   8  ar  
  8   5   9  ar  
  9   6  10  1   
 10   6  19  1   
 11   6  20  1   
 12   7  11  1   
 13   7  21  1   
 14   7  22  1   
 15   8  12  ar  
 16   8  23  1   
 17   9  13  ar  
 18   9  24  1   
 19  10  11  1   
 20  10  25  1   
 21  10  26  1   
 22  11  27  1   
 23  11  28  1   
 24  12  14  1   
 25  12  15  ar  
 26  13  15  ar  
 27  13  29  1   
 28  14  16  am  
 29  14  30  1   
 30  15  17  1   
 31  16  17  am  
 32  16  18  2   
 33  17  31  1   
@<TRIPOS>SUBSTRUCTURE
  1 ****   5 GROUP 4 **** **** 0

# MOE 2024.06 (io_trps.svl 2023.06)
