@<TRIPOS>MOLECULE
1-(3-Chloro-phenyl)-5-oxo-pyrrolidine-3-carboxylic acid (tetrahydro-furan-2-ylme
41 43 1 0 0 
SMALL
USER_CHARGES


@<TRIPOS>ATOM
  1 CL       1.0960     0.5440     1.7860 Cl    1 <1>  -0.1770 
  2 C       -0.0970     1.7510     1.3750 C.ar  1 <1>   0.1770 
  3 C        0.2960     2.8800     0.6860 C.ar  1 <1>  -0.1500 
  4 C       -1.4120     1.5520     1.7490 C.ar  1 <1>  -0.1500 
  5 C       -0.6400     3.8550     0.3520 C.ar  1 <1>   0.1170 
  6 C       -2.3530     2.5110     1.4190 C.ar  1 <1>  -0.1500 
  7 N       -0.2530     5.0200    -0.3390 N.am  1 <1>  -0.4770 
  8 C       -1.9660     3.6480     0.7290 C.ar  1 <1>  -0.1500 
  9 C       -0.9550     5.7250    -1.2760 C.2   1 <1>   0.5690 
 10 C        1.0540     5.6640    -0.0890 C.3   1 <1>   0.1400 
 11 O       -2.0510     5.4670    -1.7080 O.2   1 <1>  -0.5700 
 12 C       -0.1920     6.9340    -1.7380 C.3   1 <1>  -0.0990 
 13 C        0.9050     7.0760    -0.6760 C.3   1 <1>  -0.0190 
 14 C        2.2020     7.6630    -1.2210 C.2   1 <1>   0.5690 
 15 O        3.1110     6.9310    -1.5130 O.2   1 <1>  -0.5700 
 16 N        2.3560     8.9980    -1.3850 N.am  1 <1>  -0.7300 
 17 C        1.4040    10.1080    -1.1040 C.3   1 <1>   0.1400 
 18 C        1.7620    10.8270     0.2030 C.3   1 <1>   0.2000 
 19 O        0.8570    11.8570     0.4130 O.3   1 <1>  -0.5600 
 20 C        3.1210    11.5140     0.2060 C.3   1 <1>  -0.1600 
 21 C        1.4030    12.8220     1.2580 C.3   1 <1>   0.1200 
 22 C        2.9190    12.6500     1.1930 C.3   1 <1>  -0.1600 
 23 H        1.3270     2.9870     0.4070 H     1 <1>   0.1500 
 24 H       -1.6910     0.6620     2.2840 H     1 <1>   0.1500 
 25 H       -3.3850     2.3760     1.6970 H     1 <1>   0.1500 
 26 H       -2.7070     4.3860     0.4780 H     1 <1>   0.1500 
 27 H        1.8160     5.1010    -0.6010 H     1 <1>   0.0800 
 28 H        1.2730     5.6980     0.9640 H     1 <1>   0.0800 
 29 H       -0.8300     7.7970    -1.7850 H     1 <1>   0.0800 
 30 H        0.2240     6.7280    -2.7080 H     1 <1>   0.0800 
 31 H        0.5460     7.7070     0.1170 H     1 <1>   0.0800 
 32 H        3.2670     9.2830    -1.7550 H     1 <1>   0.3700 
 33 H        0.4000     9.7300    -1.0300 H     1 <1>   0.0800 
 34 H        1.4380    10.8120    -1.9180 H     1 <1>   0.0800 
 35 H        1.6760    10.1540     1.0380 H     1 <1>   0.0800 
 36 H        3.3340    11.9090    -0.7720 H     1 <1>   0.0800 
 37 H        3.9090    10.8430     0.5000 H     1 <1>   0.0800 
 38 H        1.0290    12.6520     2.2530 H     1 <1>   0.0800 
 39 H        1.0920    13.7920     0.9090 H     1 <1>   0.0800 
 40 H        3.4040    13.5540     0.8690 H     1 <1>   0.0800 
 41 H        3.2920    12.3840     2.1670 H     1 <1>   0.0800 
@<TRIPOS>BOND
  1   1   2  1   
  2   2   3  ar  
  3   2   4  ar  
  4   3   5  ar  
  5   3  23  1   
  6   4   6  ar  
  7   4  24  1   
  8   5   7  1   
  9   5   8  ar  
 10   6   8  ar  
 11   6  25  1   
 12   7   9  am  
 13   7  10  1   
 14   8  26  1   
 15   9  11  2   
 16   9  12  1   
 17  10  13  1   
 18  10  27  1   
 19  10  28  1   
 20  12  13  1   
 21  12  29  1   
 22  12  30  1   
 23  13  14  1   
 24  13  31  1   
 25  14  15  2   
 26  14  16  am  
 27  16  17  1   
 28  16  32  1   
 29  17  18  1   
 30  17  33  1   
 31  17  34  1   
 32  18  19  1   
 33  18  20  1   
 34  18  35  1   
 35  19  21  1   
 36  20  22  1   
 37  20  36  1   
 38  20  37  1   
 39  21  22  1   
 40  21  38  1   
 41  21  39  1   
 42  22  40  1   
 43  22  41  1   
@<TRIPOS>SUBSTRUCTURE
  1 ****  13 GROUP 4 **** **** 0

# MOE 2024.06 (io_trps.svl 2023.06)
