@<TRIPOS>MOLECULE
7-(2-Methoxy-ethyl)-8-(2-methoxy-ethylamino)-3-methyl-3,7-dihydro-purine-2,6-dio
41 42 1 0 0 
SMALL
USER_CHARGES


@<TRIPOS>ATOM
  1 O        1.8370    -0.4520     1.9410 O.2   1 <1>  -0.5760 
  2 C        2.5260     0.3920     1.4160 C.2   1 <1>   0.6850 
  3 N        3.7310     0.0900     0.8020 N.am  1 <1>  -0.4430 
  4 N        2.0940     1.6870     1.4340 N.am  1 <1>  -0.4970 
  5 C        4.4340     1.1320     0.2160 C.2   1 <1>   0.4190 
  6 C        4.2560    -1.3040     0.7520 C.3   1 <1>   0.0500 
  7 C        2.7820     2.7270     0.8740 C.2   1 <1>   0.6980 
  8 N        5.6200     1.0690    -0.4350 N.pl3 1 <1>  -0.7050 
  9 C        4.0250     2.4220     0.2270 C.2   1 <1>   0.2690 
 10 O        2.3180     3.8470     0.9520 O.2   1 <1>  -0.5760 
 11 C        5.9680     2.2900    -0.8000 C.cat 1 <1>   1.0680 
 12 N        5.0220     3.1610    -0.4430 N.pl3 1 <1>  -0.7680 
 13 N        7.1030     2.5900    -1.4150 N.pl3 1 <1>  -0.7190 
 14 C        4.9270     4.6190    -0.7640 C.3   1 <1>   0.3460 
 15 C        8.1070     1.6840    -2.0430 C.3   1 <1>   0.1580 
 16 C        5.9610     5.4680    -0.0080 C.3   1 <1>   0.1100 
 17 C        8.9170     0.8660    -1.0240 C.3   1 <1>   0.1100 
 18 O        7.2570     5.1010    -0.3860 O.3   1 <1>  -0.5660 
 19 O        8.0780    -0.0230    -0.3470 O.3   1 <1>  -0.5660 
 20 C        8.2490     5.8610     0.2310 C.3   1 <1>   0.0300 
 21 C        8.7570    -0.8420     0.5530 C.3   1 <1>   0.0300 
 22 H        1.2090     1.8780     1.8970 H     1 <1>   0.3620 
 23 H        3.6640    -1.9590     1.3690 H     1 <1>   0.0700 
 24 H        5.2710    -1.3270     1.1090 H     1 <1>   0.0700 
 25 H        4.2270    -1.6670    -0.2610 H     1 <1>   0.0700 
 26 H        6.3120     0.3090    -0.4780 H     1 <1>   0.4430 
 27 H        7.3750     3.5830    -1.3310 H     1 <1>   0.4430 
 28 H        3.9440     4.9810    -0.5210 H     1 <1>   0.0700 
 29 H        5.0640     4.7620    -1.8230 H     1 <1>   0.0700 
 30 H        8.7880     2.2820    -2.6240 H     1 <1>   0.0700 
 31 H        7.6120     1.0090    -2.7210 H     1 <1>   0.0700 
 32 H        5.8510     5.3320     1.0550 H     1 <1>   0.0700 
 33 H        5.8190     6.5080    -0.2480 H     1 <1>   0.0700 
 34 H        9.3940     1.5160    -0.3100 H     1 <1>   0.0700 
 35 H        9.6700     0.2930    -1.5400 H     1 <1>   0.0700 
 36 H        9.2080     5.5130    -0.1120 H     1 <1>   0.0700 
 37 H        8.1820     5.7400     1.2990 H     1 <1>   0.0700 
 38 H        8.1260     6.8970    -0.0380 H     1 <1>   0.0700 
 39 H        8.0430    -1.4880     1.0330 H     1 <1>   0.0700 
 40 H        9.2470    -0.2320     1.2930 H     1 <1>   0.0700 
 41 H        9.4790    -1.4380     0.0200 H     1 <1>   0.0700 
@<TRIPOS>BOND
  1   1   2  2   
  2   2   3  am  
  3   2   4  am  
  4   3   5  1   
  5   3   6  1   
  6   4   7  am  
  7   4  22  1   
  8   5   8  1   
  9   5   9  2   
 10   6  23  1   
 11   6  24  1   
 12   6  25  1   
 13   7   9  1   
 14   7  10  2   
 15   8  11  ar  
 16   8  26  1   
 17   9  12  1   
 18  11  12  ar  
 19  11  13  ar  
 20  12  14  1   
 21  13  15  1   
 22  13  27  1   
 23  14  16  1   
 24  14  28  1   
 25  14  29  1   
 26  15  17  1   
 27  15  30  1   
 28  15  31  1   
 29  16  18  1   
 30  16  32  1   
 31  16  33  1   
 32  17  19  1   
 33  17  34  1   
 34  17  35  1   
 35  18  20  1   
 36  19  21  1   
 37  20  36  1   
 38  20  37  1   
 39  20  38  1   
 40  21  39  1   
 41  21  40  1   
 42  21  41  1   
@<TRIPOS>SUBSTRUCTURE
  1 ****   8 GROUP 4 **** **** 0

# MOE 2024.06 (io_trps.svl 2023.06)
