@<TRIPOS>MOLECULE
N-Cyclohexyl-4-(3-phenyl-[1,2,4]oxadiazol-5-yl)-butyramide
46 48 1 0 0 
SMALL
USER_CHARGES


@<TRIPOS>ATOM
  1 O        0.1950    -1.1650    -0.4530 O.2   1 <1>  -0.5700 
  2 C       -0.8440    -1.7290    -0.2220 C.2   1 <1>   0.5690 
  3 N       -1.0580    -2.9780    -0.6970 N.am  1 <1>  -0.7300 
  4 C       -1.8990    -1.0150     0.6030 C.3   1 <1>  -0.0990 
  5 C       -2.2600    -3.8220    -0.5790 C.3   1 <1>   0.2200 
  6 C       -2.9800    -0.3690    -0.2870 C.3   1 <1>  -0.1600 
  7 C       -1.9720    -4.9820     0.3760 C.3   1 <1>  -0.1600 
  8 C       -2.6520    -4.3330    -1.9670 C.3   1 <1>  -0.1600 
  9 C       -4.2940    -0.0900     0.4620 C.3   1 <1>   0.0200 
 10 C       -3.1860    -5.9180     0.4790 C.3   1 <1>  -0.1600 
 11 C       -3.8720    -5.2620    -1.8800 C.3   1 <1>  -0.1600 
 12 C       -4.9820    -1.3830     0.8630 C.2   1 <1>   0.2980 
 13 C       -3.6250    -6.4210    -0.9030 C.3   1 <1>  -0.1600 
 14 O       -4.8280    -1.8320     2.0810 O.3   1 <1>  -0.0190 
 15 N       -5.6870    -2.1090     0.1000 N.2   1 <1>  -0.5650 
 16 N       -5.4800    -2.9510     2.0890 N.2   1 <1>  -0.4100 
 17 C       -5.9930    -3.1190     0.9210 C.2   1 <1>   0.4620 
 18 C       -6.7840    -4.2620     0.4980 C.ar  1 <1>   0.0540 
 19 C       -6.9170    -5.3900     1.3100 C.ar  1 <1>  -0.1500 
 20 C       -7.4300    -4.2910    -0.7400 C.ar  1 <1>  -0.1500 
 21 C       -7.6460    -6.4930     0.9060 C.ar  1 <1>  -0.1500 
 22 C       -8.1610    -5.3900    -1.1510 C.ar  1 <1>  -0.1500 
 23 C       -8.2690    -6.4960    -0.3290 C.ar  1 <1>  -0.1500 
 24 H       -0.2850    -3.3870    -1.2220 H     1 <1>   0.3700 
 25 H       -1.4200    -0.2550     1.1930 H     1 <1>   0.0800 
 26 H       -2.3190    -1.7270     1.2870 H     1 <1>   0.0800 
 27 H       -3.0810    -3.2490    -0.1860 H     1 <1>   0.0800 
 28 H       -3.1990    -1.0160    -1.1210 H     1 <1>   0.0800 
 29 H       -2.5920     0.5500    -0.6920 H     1 <1>   0.0800 
 30 H       -1.7410    -4.5940     1.3520 H     1 <1>   0.0800 
 31 H       -1.1250    -5.5410     0.0200 H     1 <1>   0.0800 
 32 H       -1.8290    -4.8730    -2.4010 H     1 <1>   0.0800 
 33 H       -2.8890    -3.4970    -2.6020 H     1 <1>   0.0800 
 34 H       -4.9570     0.4550    -0.1860 H     1 <1>   0.0800 
 35 H       -4.1110     0.5130     1.3330 H     1 <1>   0.0800 
 36 H       -4.0010    -5.3880     0.9400 H     1 <1>   0.0800 
 37 H       -2.9440    -6.7570     1.1080 H     1 <1>   0.0800 
 38 H       -4.1000    -5.6540    -2.8560 H     1 <1>   0.0800 
 39 H       -4.7240    -4.6940    -1.5490 H     1 <1>   0.0800 
 40 H       -4.5270    -7.0010    -0.8030 H     1 <1>   0.0800 
 41 H       -2.8620    -7.0650    -1.3050 H     1 <1>   0.0800 
 42 H       -6.4390    -5.4050     2.2750 H     1 <1>   0.1500 
 43 H       -7.3560    -3.4380    -1.3930 H     1 <1>   0.1500 
 44 H       -7.7290    -7.3510     1.5510 H     1 <1>   0.1500 
 45 H       -8.6470    -5.3860    -2.1120 H     1 <1>   0.1500 
 46 H       -8.8360    -7.3540    -0.6470 H     1 <1>   0.1500 
@<TRIPOS>BOND
  1   1   2  2   
  2   2   3  am  
  3   2   4  1   
  4   3   5  1   
  5   3  24  1   
  6   4   6  1   
  7   4  25  1   
  8   4  26  1   
  9   5   7  1   
 10   5   8  1   
 11   5  27  1   
 12   6   9  1   
 13   6  28  1   
 14   6  29  1   
 15   7  10  1   
 16   7  30  1   
 17   7  31  1   
 18   8  11  1   
 19   8  32  1   
 20   8  33  1   
 21   9  12  1   
 22   9  34  1   
 23   9  35  1   
 24  10  13  1   
 25  10  36  1   
 26  10  37  1   
 27  11  13  1   
 28  11  38  1   
 29  11  39  1   
 30  12  14  1   
 31  12  15  2   
 32  13  40  1   
 33  13  41  1   
 34  14  16  1   
 35  15  17  1   
 36  16  17  2   
 37  17  18  1   
 38  18  19  ar  
 39  18  20  ar  
 40  19  21  ar  
 41  19  42  1   
 42  20  22  ar  
 43  20  43  1   
 44  21  23  ar  
 45  21  44  1   
 46  22  23  ar  
 47  22  45  1   
 48  23  46  1   
@<TRIPOS>SUBSTRUCTURE
  1 ****  17 GROUP 4 **** **** 0

# MOE 2024.06 (io_trps.svl 2023.06)
