@<TRIPOS>MOLECULE
1,3-Dimethyl-8-[(1-phenyl-ethylamino)-methyl]-3,7-dihydro-purine-2,6-dione
43 45 1 0 0 
SMALL
USER_CHARGES


@<TRIPOS>ATOM
  1 O        0.4380     1.0830    -0.5900 O.2   1 <1>  -0.5700 
  2 C        1.6210     1.2100    -0.3290 C.2   1 <1>   0.6900 
  3 N        2.0610     2.3210     0.3820 N.am  1 <1>  -0.4200 
  4 N        2.5310     0.2380    -0.7450 N.am  1 <1>  -0.4240 
  5 C        3.4020     2.4760     0.7130 C.2   1 <1>   0.7160 
  6 C        1.0670     3.3450     0.8260 C.3   1 <1>   0.0600 
  7 C        3.8860     0.4060    -0.4530 C.2   1 <1>  -0.0880 
  8 C        2.0540    -0.9470    -1.5110 C.3   1 <1>   0.0600 
  9 O        3.7590     3.4360     1.3790 O.2   1 <1>  -0.5700 
 10 C        4.3340     1.4790     0.2530 C.2   1 <1>   0.1410 
 11 N        4.9500    -0.3550    -0.7590 N.pl3 1 <1>   0.0330 
 12 N        5.6940     1.3900     0.3950 N.2   1 <1>  -0.5650 
 13 C        6.0170     0.2950    -0.2140 C.2   1 <1>   0.0060 
 14 C        7.4560    -0.1930    -0.3050 C.3   1 <1>   0.5230 
 15 N        8.2300     0.5930     0.6840 N.4   1 <1>  -0.9060 
 16 C        9.6460     0.7740     0.3580 C.3   1 <1>   0.5660 
 17 C       10.2590    -0.5940     0.0930 C.ar  1 <1>  -0.1430 
 18 C       10.3180     1.5040     1.5130 C.3   1 <1>  -0.2400 
 19 C       10.3170    -1.5770     1.0760 C.ar  1 <1>  -0.1500 
 20 C       10.7550    -0.8740    -1.1730 C.ar  1 <1>  -0.1500 
 21 C       10.8520    -2.8200     0.7890 C.ar  1 <1>  -0.1500 
 22 C       11.2900    -2.1180    -1.4570 C.ar  1 <1>  -0.1500 
 23 C       11.3360    -3.0920    -0.4770 C.ar  1 <1>  -0.1500 
 24 H        0.6580     3.0570     1.7790 H     1 <1>   0.0800 
 25 H        0.2660     3.4260     0.1110 H     1 <1>   0.0800 
 26 H        1.5310     4.3110     0.9200 H     1 <1>   0.0800 
 27 H        1.0530    -1.2080    -1.2080 H     1 <1>   0.0800 
 28 H        2.6890    -1.7950    -1.3310 H     1 <1>   0.0800 
 29 H        2.0470    -0.7170    -2.5620 H     1 <1>   0.0800 
 30 H        4.9290    -1.2290    -1.2940 H     1 <1>   0.2700 
 31 H        7.8290    -0.0130    -1.3000 H     1 <1>   0.0800 
 32 H        7.5260    -1.2460    -0.0870 H     1 <1>   0.0800 
 33 H        8.1300     0.1640     1.6040 H     1 <1>   0.4500 
 34 H        7.7300     1.4960     0.7490 H     1 <1>   0.4500 
 35 H        9.7360     1.3750    -0.5330 H     1 <1>   0.0800 
 36 H       10.2220     0.9620     2.4360 H     1 <1>   0.0800 
 37 H        9.9010     2.4880     1.6310 H     1 <1>   0.0800 
 38 H       11.3670     1.6120     1.2990 H     1 <1>   0.0800 
 39 H        9.9570    -1.3960     2.0740 H     1 <1>   0.1500 
 40 H       10.7400    -0.1320    -1.9550 H     1 <1>   0.1500 
 41 H       10.8990    -3.5800     1.5520 H     1 <1>   0.1500 
 42 H       11.6770    -2.3320    -2.4400 H     1 <1>   0.1500 
 43 H       11.7550    -4.0600    -0.6980 H     1 <1>   0.1500 
@<TRIPOS>BOND
  1   1   2  2   
  2   2   3  am  
  3   2   4  am  
  4   3   5  am  
  5   3   6  1   
  6   4   7  1   
  7   4   8  1   
  8   5   9  2   
  9   5  10  1   
 10   6  24  1   
 11   6  25  1   
 12   6  26  1   
 13   7  10  2   
 14   7  11  1   
 15   8  27  1   
 16   8  28  1   
 17   8  29  1   
 18  10  12  1   
 19  11  13  1   
 20  11  30  1   
 21  12  13  2   
 22  13  14  1   
 23  14  15  1   
 24  14  31  1   
 25  14  32  1   
 26  15  16  1   
 27  15  33  1   
 28  15  34  1   
 29  16  17  1   
 30  16  18  1   
 31  16  35  1   
 32  17  19  ar  
 33  17  20  ar  
 34  18  36  1   
 35  18  37  1   
 36  18  38  1   
 37  19  21  ar  
 38  19  39  1   
 39  20  22  ar  
 40  20  40  1   
 41  21  23  ar  
 42  21  41  1   
 43  22  23  ar  
 44  22  42  1   
 45  23  43  1   
@<TRIPOS>SUBSTRUCTURE
  1 ****  13 GROUP 4 **** **** 0

# MOE 2024.06 (io_trps.svl 2023.06)
