@<TRIPOS>MOLECULE
tert-Butyl-[3-(4-chloro-phenyl)-[1,2,4]oxadiazol-5-ylmethyl]-amine
35 36 1 0 0 
SMALL
USER_CHARGES


@<TRIPOS>ATOM
  1 CL       1.7840    -0.2360     1.4540 Cl    1 <1>  -0.1770 
  2 C        3.4070    -0.0950     0.8310 C.ar  1 <1>   0.1770 
  3 C        4.4690    -0.5470     1.5890 C.ar  1 <1>  -0.1500 
  4 C        3.6130     0.4660    -0.4130 C.ar  1 <1>  -0.1500 
  5 C        5.7550    -0.4330     1.0900 C.ar  1 <1>  -0.1500 
  6 C        4.9030     0.5750    -0.9020 C.ar  1 <1>  -0.1500 
  7 C        6.0070     0.1300    -0.1660 C.ar  1 <1>   0.0540 
  8 C        7.3560     0.2510    -0.6940 C.2   1 <1>   0.4620 
  9 N        7.6720     0.7550    -1.8350 N.2   1 <1>  -0.4100 
 10 N        8.4450    -0.1600    -0.0270 N.2   1 <1>  -0.5650 
 11 O        8.9580     0.6970    -1.9660 O.3   1 <1>  -0.0190 
 12 C        9.3600     0.1430    -0.8580 C.2   1 <1>   0.2980 
 13 C       10.8540    -0.0850    -0.6660 C.3   1 <1>   0.5230 
 14 N       11.1220    -0.7290     0.6620 N.4   1 <1>  -0.9060 
 15 C       12.5080    -1.0220     1.0130 C.3   1 <1>   0.5030 
 16 C       12.4740    -1.6620     2.3960 C.3   1 <1>  -0.2400 
 17 C       13.0990    -1.9990    -0.0010 C.3   1 <1>  -0.2400 
 18 C       13.3110     0.2770     1.0590 C.3   1 <1>  -0.2400 
 19 H        4.2830    -0.9810     2.5560 H     1 <1>   0.1500 
 20 H        2.7720     0.8120    -0.9880 H     1 <1>   0.1500 
 21 H        6.5740    -0.7880     1.6900 H     1 <1>   0.1500 
 22 H        5.0550     1.0140    -1.8740 H     1 <1>   0.1500 
 23 H       11.3580     0.8640    -0.7260 H     1 <1>   0.0800 
 24 H       11.2120    -0.7150    -1.4620 H     1 <1>   0.0800 
 25 H       10.5760    -1.5960     0.7050 H     1 <1>   0.4500 
 26 H       10.7120    -0.1300     1.3870 H     1 <1>   0.4500 
 27 H       11.9080    -2.5770     2.3890 H     1 <1>   0.0800 
 28 H       12.0550    -0.9930     3.1270 H     1 <1>   0.0800 
 29 H       13.4740    -1.9030     2.7130 H     1 <1>   0.0800 
 30 H       12.5070    -2.8950    -0.0690 H     1 <1>   0.0800 
 31 H       14.0880    -2.2880     0.3120 H     1 <1>   0.0800 
 32 H       13.1930    -1.5570    -0.9760 H     1 <1>   0.0800 
 33 H       12.8680     0.9850     1.7380 H     1 <1>   0.0800 
 34 H       13.4060     0.7250     0.0870 H     1 <1>   0.0800 
 35 H       14.3080     0.0710     1.4110 H     1 <1>   0.0800 
@<TRIPOS>BOND
  1   1   2  1   
  2   2   3  ar  
  3   2   4  ar  
  4   3   5  ar  
  5   3  19  1   
  6   4   6  ar  
  7   4  20  1   
  8   5   7  ar  
  9   5  21  1   
 10   6   7  ar  
 11   6  22  1   
 12   7   8  1   
 13   8   9  2   
 14   8  10  1   
 15   9  11  1   
 16  10  12  2   
 17  11  12  1   
 18  12  13  1   
 19  13  14  1   
 20  13  23  1   
 21  13  24  1   
 22  14  15  1   
 23  14  25  1   
 24  14  26  1   
 25  15  16  1   
 26  15  17  1   
 27  15  18  1   
 28  16  27  1   
 29  16  28  1   
 30  16  29  1   
 31  17  30  1   
 32  17  31  1   
 33  17  32  1   
 34  18  33  1   
 35  18  34  1   
 36  18  35  1   
@<TRIPOS>SUBSTRUCTURE
  1 ****  10 GROUP 4 **** **** 0

# MOE 2024.06 (io_trps.svl 2023.06)
