@<TRIPOS>MOLECULE
11-(2-Methoxy-ethylamino)-7,8,9,10-tetrahydro-benzo[4,5]imidazo[1,2-b]isoquinoli
45 48 1 0 0 
SMALL
USER_CHARGES


@<TRIPOS>ATOM
  1 O        2.3290     0.4660    -1.2600 O.3   1 <1>  -0.5600 
  2 C        2.1920     1.5340    -0.3750 C.3   1 <1>   0.1200 
  3 C        2.0540    -0.7920    -0.7270 C.3   1 <1>   0.0400 
  4 C        3.5260     1.7780     0.3380 C.3   1 <1>   0.2090 
  5 N        3.4680     3.0190     1.1660 N.pl3 1 <1>  -0.8690 
  6 C        3.7780     4.2440     0.6790 C.2   1 <1>   0.4790 
  7 N        5.0570     4.4630     0.2590 N.pl3 1 <1>  -0.6290 
  8 C        2.8320     5.2640     0.5570 C.2   1 <1>  -0.1380 
  9 C        5.3640     5.5940    -0.4270 C.cat 1 <1>   0.7910 
 10 C        6.2520     3.7440     0.4250 C.ar  1 <1>   0.3090 
 11 C        3.1550     6.4620    -0.0900 C.2   1 <1>  -0.1380 
 12 C        1.4270     5.0470     1.1370 C.3   1 <1>  -0.0220 
 13 N        6.6660     5.5440    -0.8080 N.pl3 1 <1>  -0.7000 
 14 C        4.4330     6.6120    -0.6170 C.2   1 <1>   0.0740 
 15 C        7.2380     4.4120    -0.2780 C.ar  1 <1>   0.3090 
 16 C        6.5830     2.5990     1.1460 C.ar  1 <1>  -0.1090 
 17 C        2.1330     7.5950    -0.2560 C.3   1 <1>  -0.0220 
 18 C        0.3820     6.0350     0.6140 C.3   1 <1>  -0.1600 
 19 C        4.8820     7.7510    -1.3420 C.1   1 <1>   0.4920 
 20 C        8.5440     3.9380    -0.3340 C.ar  1 <1>  -0.1090 
 21 C        7.8800     2.1220     1.1010 C.ar  1 <1>  -0.1500 
 22 C        0.9270     7.4590     0.6740 C.3   1 <1>  -0.1600 
 23 N        5.3300     8.6200    -1.9250 N.1   1 <1>  -0.5570 
 24 C        8.8560     2.7850     0.3570 C.ar  1 <1>  -0.1500 
 25 H        1.3970     1.3280     0.3210 H     1 <1>   0.0800 
 26 H        1.9360     2.3950    -0.9660 H     1 <1>   0.0800 
 27 H        2.2070    -1.5220    -1.5020 H     1 <1>   0.0800 
 28 H        1.0280    -0.8240    -0.4030 H     1 <1>   0.0800 
 29 H        2.7190    -0.9930     0.0940 H     1 <1>   0.0800 
 30 H        4.2960     1.8740    -0.4090 H     1 <1>   0.0800 
 31 H        3.7600     0.9400     0.9710 H     1 <1>   0.0800 
 32 H        2.7400     2.9740     1.8860 H     1 <1>   0.4000 
 33 H        1.4850     5.1430     2.2080 H     1 <1>   0.0800 
 34 H        1.0750     4.0540     0.9170 H     1 <1>   0.0800 
 35 H        7.1650     6.2620    -1.3430 H     1 <1>   0.4500 
 36 H        5.8420     2.0970     1.7390 H     1 <1>   0.1500 
 37 H        1.7830     7.5960    -1.2750 H     1 <1>   0.0800 
 38 H        2.5910     8.5510    -0.0680 H     1 <1>   0.0800 
 39 H       -0.5140     5.9610     1.2070 H     1 <1>   0.0800 
 40 H        0.1260     5.7890    -0.4030 H     1 <1>   0.0800 
 41 H        9.2910     4.4660    -0.9010 H     1 <1>   0.1500 
 42 H        8.1480     1.2310     1.6470 H     1 <1>   0.1500 
 43 H        0.1630     8.1570     0.3780 H     1 <1>   0.0800 
 44 H        1.2180     7.6940     1.6850 H     1 <1>   0.0800 
 45 H        9.8610     2.3910     0.3320 H     1 <1>   0.1500 
@<TRIPOS>BOND
  1   1   2  1   
  2   1   3  1   
  3   2   4  1   
  4   2  25  1   
  5   2  26  1   
  6   3  27  1   
  7   3  28  1   
  8   3  29  1   
  9   4   5  1   
 10   4  30  1   
 11   4  31  1   
 12   5   6  1   
 13   5  32  1   
 14   6   7  1   
 15   6   8  2   
 16   7   9  ar  
 17   7  10  1   
 18   8  11  1   
 19   8  12  1   
 20   9  13  ar  
 21   9  14  1   
 22  10  15  ar  
 23  10  16  ar  
 24  11  14  2   
 25  11  17  1   
 26  12  18  1   
 27  12  33  1   
 28  12  34  1   
 29  13  15  1   
 30  13  35  1   
 31  14  19  1   
 32  15  20  ar  
 33  16  21  ar  
 34  16  36  1   
 35  17  22  1   
 36  17  37  1   
 37  17  38  1   
 38  18  22  1   
 39  18  39  1   
 40  18  40  1   
 41  19  23  3   
 42  20  24  ar  
 43  20  41  1   
 44  21  24  ar  
 45  21  42  1   
 46  22  43  1   
 47  22  44  1   
 48  24  45  1   
@<TRIPOS>SUBSTRUCTURE
  1 ****   7 GROUP 4 **** **** 0

# MOE 2024.06 (io_trps.svl 2023.06)
