@<TRIPOS>MOLECULE
3-tert-Butyl-6-(2-ethoxy-phenoxymethyl)-[1,2,4]triazolo[3,4-b][1,3,4]thiadiazole
43 45 1 0 0 
SMALL
USER_CHARGES


@<TRIPOS>ATOM
  1 S       -0.4890     0.0000     1.4870 S.3   1 <1>  -0.1970 
  2 C        0.9520     0.9630     1.2400 C.2   1 <1>   0.2420 
  3 C       -1.4120     1.2560     0.6330 C.2   1 <1>   0.5300 
  4 N        2.1940     0.8520     1.5410 N.2   1 <1>  -0.3380 
  5 N        0.6280     2.0640     0.5830 N.pl3 1 <1>   0.5050 
  6 N       -0.7190     2.2480     0.2380 N.2   1 <1>  -0.6520 
  7 C       -2.9040     1.0190     0.4860 C.3   1 <1>   0.1810 
  8 N        2.7570     1.9700     1.0460 N.2   1 <1>  -0.3380 
  9 C        1.8210     2.6800     0.4810 C.2   1 <1>   0.0060 
 10 O       -3.1360    -0.1380    -0.2940 O.3   1 <1>  -0.3630 
 11 C        2.0090     4.0350    -0.2170 C.3   1 <1>   0.1800 
 12 C       -4.3240    -0.8040    -0.2360 C.ar  1 <1>   0.0820 
 13 C        1.5900     3.9310    -1.6900 C.3   1 <1>  -0.2400 
 14 C        1.1650     5.1110     0.4830 C.3   1 <1>  -0.2400 
 15 C        3.4830     4.4740    -0.1670 C.3   1 <1>  -0.2400 
 16 C       -5.5740    -0.2270     0.0500 C.ar  1 <1>   0.0820 
 17 C       -4.2410    -2.1630    -0.4920 C.ar  1 <1>  -0.1500 
 18 O       -5.6690     1.1170     0.2670 O.3   1 <1>  -0.3630 
 19 C       -6.7000    -1.0470     0.0930 C.ar  1 <1>  -0.1500 
 20 C       -5.3680    -2.9640    -0.4540 C.ar  1 <1>  -0.1500 
 21 C       -6.9090     1.7870     0.2720 C.3   1 <1>   0.1200 
 22 C       -6.5970    -2.4050    -0.1570 C.ar  1 <1>  -0.1500 
 23 C       -6.6320     3.2840     0.3690 C.3   1 <1>  -0.2400 
 24 H       -3.3540     1.8580    -0.0130 H     1 <1>   0.0800 
 25 H       -3.3500     0.8790     1.4540 H     1 <1>   0.0800 
 26 H        2.1590     3.1640    -2.1840 H     1 <1>   0.0800 
 27 H        1.7600     4.8640    -2.1990 H     1 <1>   0.0800 
 28 H        0.5460     3.6880    -1.7770 H     1 <1>   0.0800 
 29 H        0.1170     4.8820     0.4150 H     1 <1>   0.0800 
 30 H        1.3280     6.0720     0.0300 H     1 <1>   0.0800 
 31 H        1.4340     5.1730     1.5230 H     1 <1>   0.0800 
 32 H        4.1060     3.7460    -0.6560 H     1 <1>   0.0800 
 33 H        3.8110     4.5640     0.8530 H     1 <1>   0.0800 
 34 H        3.6180     5.4220    -0.6550 H     1 <1>   0.0800 
 35 H       -3.2840    -2.5950    -0.7210 H     1 <1>   0.1500 
 36 H       -7.6720    -0.6540     0.3200 H     1 <1>   0.1500 
 37 H       -5.2880    -4.0190    -0.6530 H     1 <1>   0.1500 
 38 H       -7.4770     1.4510     1.1230 H     1 <1>   0.0800 
 39 H       -7.4280     1.5540    -0.6420 H     1 <1>   0.0800 
 40 H       -7.4740    -3.0270    -0.1230 H     1 <1>   0.1500 
 41 H       -6.1010     3.5050     1.2780 H     1 <1>   0.0800 
 42 H       -7.5600     3.8250     0.3740 H     1 <1>   0.0800 
 43 H       -6.0510     3.6080    -0.4760 H     1 <1>   0.0800 
@<TRIPOS>BOND
  1   1   2  1   
  2   1   3  1   
  3   2   4  2   
  4   2   5  1   
  5   3   6  2   
  6   3   7  1   
  7   4   8  1   
  8   5   6  1   
  9   5   9  1   
 10   7  10  1   
 11   7  24  1   
 12   7  25  1   
 13   8   9  2   
 14   9  11  1   
 15  10  12  1   
 16  11  13  1   
 17  11  14  1   
 18  11  15  1   
 19  12  16  ar  
 20  12  17  ar  
 21  13  26  1   
 22  13  27  1   
 23  13  28  1   
 24  14  29  1   
 25  14  30  1   
 26  14  31  1   
 27  15  32  1   
 28  15  33  1   
 29  15  34  1   
 30  16  18  1   
 31  16  19  ar  
 32  17  20  ar  
 33  17  35  1   
 34  18  21  1   
 35  19  22  ar  
 36  19  36  1   
 37  20  22  ar  
 38  20  37  1   
 39  21  23  1   
 40  21  38  1   
 41  21  39  1   
 42  22  40  1   
 43  23  41  1   
 44  23  42  1   
 45  23  43  1   
@<TRIPOS>SUBSTRUCTURE
  1 ****   3 GROUP 4 **** **** 0

# MOE 2024.06 (io_trps.svl 2023.06)
