@<TRIPOS>MOLECULE
(5,7-Dimethyl-[1,2,4]triazolo[1,5-a]pyrimidin-2-yl)-(4-isopropyl-benzyl)-amine
44 46 1 0 0 
SMALL
USER_CHARGES


@<TRIPOS>ATOM
  1 N       -1.8330     0.0380    -0.3740 N.2   1 <1>  -0.6120 
  2 C       -1.0050     0.3650     0.5740 C.2   1 <1>   0.3750 
  3 C       -2.5280     1.0520    -0.8910 C.cat 1 <1>   0.9620 
  4 C       -0.8380     1.6850     1.0380 C.2   1 <1>  -0.1360 
  5 C       -0.1920    -0.7490     1.1990 C.3   1 <1>  -0.1790 
  6 N       -3.4180     0.9740    -1.8490 N.pl3 1 <1>  -0.7000 
  7 N       -2.4340     2.3330    -0.5160 N.pl3 1 <1>  -0.3220 
  8 C       -1.5690     2.6880     0.4780 C.2   1 <1>   0.2410 
  9 C       -3.8640     2.2180    -2.0440 C.2   1 <1>   0.7490 
 10 N       -3.2930     3.0860    -1.2650 N.2   1 <1>  -0.2600 
 11 C       -1.4790     4.1460     0.8900 C.3   1 <1>  -0.1020 
 12 N       -4.8200     2.4390    -2.9840 N.pl3 1 <1>  -0.8650 
 13 C       -5.7320     3.5930    -2.8270 C.3   1 <1>   0.3530 
 14 C       -6.7520     3.2240    -1.7660 C.ar  1 <1>  -0.1430 
 15 C       -7.8360     2.4210    -2.0850 C.ar  1 <1>  -0.1500 
 16 C       -6.6040     3.6710    -0.4620 C.ar  1 <1>  -0.1500 
 17 C       -8.7510     2.0630    -1.1110 C.ar  1 <1>  -0.1500 
 18 C       -7.5210     3.3120     0.5090 C.ar  1 <1>  -0.1500 
 19 C       -8.6020     2.5020     0.1960 C.ar  1 <1>  -0.1430 
 20 C       -9.6030     2.1140     1.2820 C.3   1 <1>   0.0630 
 21 C       -9.6250     0.5960     1.4890 C.3   1 <1>  -0.2400 
 22 C      -11.0030     2.6370     0.9480 C.3   1 <1>  -0.2400 
 23 H       -0.1350     1.8800     1.8280 H     1 <1>   0.1500 
 24 H        0.5950    -0.3610     1.8200 H     1 <1>   0.0800 
 25 H        0.2510    -1.3550     0.4280 H     1 <1>   0.0800 
 26 H       -0.8310    -1.3720     1.7980 H     1 <1>   0.0800 
 27 H       -3.6790     0.1260    -2.3320 H     1 <1>   0.4500 
 28 H       -2.4370     4.4900     1.2370 H     1 <1>   0.0800 
 29 H       -1.1800     4.7480     0.0500 H     1 <1>   0.0800 
 30 H       -0.7610     4.2780     1.6800 H     1 <1>   0.0800 
 31 H       -5.3460     1.6090    -3.2570 H     1 <1>   0.4000 
 32 H       -6.2280     3.7940    -3.7620 H     1 <1>   0.0800 
 33 H       -5.1860     4.4760    -2.5410 H     1 <1>   0.0800 
 34 H       -7.9800     2.0680    -3.0920 H     1 <1>   0.1500 
 35 H       -5.7760     4.3020    -0.1910 H     1 <1>   0.1500 
 36 H       -9.5860     1.4380    -1.3770 H     1 <1>   0.1500 
 37 H       -7.3900     3.6700     1.5160 H     1 <1>   0.1500 
 38 H       -9.2990     2.5660     2.2110 H     1 <1>   0.0800 
 39 H       -9.9720     0.0930     0.6050 H     1 <1>   0.0800 
 40 H      -10.2760     0.3410     2.3060 H     1 <1>   0.0800 
 41 H       -8.6350     0.2440     1.7180 H     1 <1>   0.0800 
 42 H      -11.3820     2.1780     0.0540 H     1 <1>   0.0800 
 43 H      -10.9680     3.7020     0.7990 H     1 <1>   0.0800 
 44 H      -11.6820     2.4280     1.7560 H     1 <1>   0.0800 
@<TRIPOS>BOND
  1   1   2  2   
  2   1   3  1   
  3   2   4  1   
  4   2   5  1   
  5   3   6  ar  
  6   3   7  ar  
  7   4   8  2   
  8   4  23  1   
  9   5  24  1   
 10   5  25  1   
 11   5  26  1   
 12   6   9  1   
 13   6  27  1   
 14   7   8  1   
 15   7  10  1   
 16   8  11  1   
 17   9  10  2   
 18   9  12  1   
 19  11  28  1   
 20  11  29  1   
 21  11  30  1   
 22  12  13  1   
 23  12  31  1   
 24  13  14  1   
 25  13  32  1   
 26  13  33  1   
 27  14  15  ar  
 28  14  16  ar  
 29  15  17  ar  
 30  15  34  1   
 31  16  18  ar  
 32  16  35  1   
 33  17  19  ar  
 34  17  36  1   
 35  18  19  ar  
 36  18  37  1   
 37  19  20  1   
 38  20  21  1   
 39  20  22  1   
 40  20  38  1   
 41  21  39  1   
 42  21  40  1   
 43  21  41  1   
 44  22  42  1   
 45  22  43  1   
 46  22  44  1   
@<TRIPOS>SUBSTRUCTURE
  1 ****   9 GROUP 4 **** **** 0

# MOE 2024.06 (io_trps.svl 2023.06)
