@<TRIPOS>MOLECULE
N-Bicyclo[2.2.1]hept-2-yl-2-[4-(4-fluoro-phenyl)-piperazin-1-yl]-acetamide
50 53 1 0 0 
SMALL
USER_CHARGES


@<TRIPOS>ATOM
  1 F       -0.4860    -1.6040     0.0840 F     1 <1>  -0.1900 
  2 C       -1.7260    -2.0170     0.0120 C.ar  1 <1>   0.1900 
  3 C       -2.2130    -2.4570    -1.2040 C.ar  1 <1>  -0.1500 
  4 C       -2.5020    -1.9980     1.1560 C.ar  1 <1>  -0.1500 
  5 C       -3.5250    -2.8920    -1.2700 C.ar  1 <1>  -0.1500 
  6 C       -3.8120    -2.4370     1.0730 C.ar  1 <1>  -0.1500 
  7 C       -4.3340    -2.8870    -0.1390 C.ar  1 <1>   0.1000 
  8 N       -5.6460    -3.3330    -0.2440 N.pl3 1 <1>  -0.8380 
  9 C       -6.7060    -2.3010    -0.0510 C.3   1 <1>   0.2090 
 10 C       -5.9770    -4.5810     0.5020 C.3   1 <1>   0.2090 
 11 C       -8.0900    -2.8550    -0.4390 C.3   1 <1>   0.1100 
 12 C       -7.3700    -5.1080     0.1110 C.3   1 <1>   0.1100 
 13 N       -8.4310    -4.0910     0.3020 N.3   1 <1>  -0.8100 
 14 C       -9.7890    -4.5740    -0.0820 C.3   1 <1>   0.1710 
 15 C      -10.3130    -5.8080     0.6690 C.2   1 <1>   0.5690 
 16 O      -11.0620    -5.6590     1.6050 O.2   1 <1>  -0.5700 
 17 N       -9.9510    -7.0470     0.2330 N.am  1 <1>  -0.7300 
 18 C      -10.3530    -8.3240     0.8660 C.3   1 <1>   0.2200 
 19 C       -9.0570    -9.1400     1.4440 C.3   1 <1>  -0.0800 
 20 C      -11.0980    -9.3000    -0.2640 C.3   1 <1>  -0.1600 
 21 C       -9.7100    -9.9630     0.6150 C.3   1 <1>  -0.1600 
 22 C       -8.3290   -10.6050     1.4930 C.3   1 <1>  -0.1600 
 23 C      -10.3650   -10.7630    -0.2320 C.3   1 <1>  -0.0800 
 24 C       -9.0810   -11.5840     0.3630 C.3   1 <1>  -0.1600 
 25 H       -1.5800    -2.4570    -2.0730 H     1 <1>   0.1500 
 26 H       -2.0870    -1.6490     2.0830 H     1 <1>   0.1500 
 27 H       -3.9400    -3.2410    -2.1980 H     1 <1>   0.1500 
 28 H       -4.4380    -2.4330     1.9450 H     1 <1>   0.1500 
 29 H       -6.4800    -1.4420    -0.6590 H     1 <1>   0.0800 
 30 H       -6.7270    -1.9890     0.9780 H     1 <1>   0.0800 
 31 H       -5.9600    -4.3870     1.5610 H     1 <1>   0.0800 
 32 H       -5.2350    -5.3300     0.2860 H     1 <1>   0.0800 
 33 H       -8.0950    -3.0500    -1.4980 H     1 <1>   0.0800 
 34 H       -8.8310    -2.1020    -0.2320 H     1 <1>   0.0800 
 35 H       -7.5810    -5.9660     0.7240 H     1 <1>   0.0800 
 36 H       -7.3430    -5.4200    -0.9190 H     1 <1>   0.0800 
 37 H       -9.8060    -4.7880    -1.1350 H     1 <1>   0.0800 
 38 H      -10.4930    -3.7800     0.0970 H     1 <1>   0.0800 
 39 H       -9.3270    -7.1380    -0.5660 H     1 <1>   0.3700 
 40 H      -11.0400    -8.1230     1.6760 H     1 <1>   0.0800 
 41 H       -8.2360    -8.5220     1.1090 H     1 <1>   0.0800 
 42 H      -11.0260    -8.8680    -1.2500 H     1 <1>   0.0800 
 43 H      -12.1460    -9.3950    -0.0250 H     1 <1>   0.0800 
 44 H       -9.0260    -9.5920    -0.2700 H     1 <1>   0.0800 
 45 H      -10.4050   -10.3240     1.4950 H     1 <1>   0.0800 
 46 H       -8.4260   -11.0330     2.4800 H     1 <1>   0.0800 
 47 H       -7.2750   -10.5230     1.2790 H     1 <1>   0.0800 
 48 H      -11.1800   -11.3930     0.0990 H     1 <1>   0.0800 
 49 H       -9.3920   -12.5130     0.8170 H     1 <1>   0.0800 
 50 H       -8.3950   -11.8280    -0.4350 H     1 <1>   0.0800 
@<TRIPOS>BOND
  1   1   2  1   
  2   2   3  ar  
  3   2   4  ar  
  4   3   5  ar  
  5   3  25  1   
  6   4   6  ar  
  7   4  26  1   
  8   5   7  ar  
  9   5  27  1   
 10   6   7  ar  
 11   6  28  1   
 12   7   8  1   
 13   8   9  1   
 14   8  10  1   
 15   9  11  1   
 16   9  29  1   
 17   9  30  1   
 18  10  12  1   
 19  10  31  1   
 20  10  32  1   
 21  11  13  1   
 22  11  33  1   
 23  11  34  1   
 24  12  13  1   
 25  12  35  1   
 26  12  36  1   
 27  13  14  1   
 28  14  15  1   
 29  14  37  1   
 30  14  38  1   
 31  15  16  2   
 32  15  17  am  
 33  17  18  1   
 34  17  39  1   
 35  18  19  1   
 36  18  20  1   
 37  18  40  1   
 38  19  21  1   
 39  19  22  1   
 40  19  41  1   
 41  20  23  1   
 42  20  42  1   
 43  20  43  1   
 44  21  23  1   
 45  21  44  1   
 46  21  45  1   
 47  22  24  1   
 48  22  46  1   
 49  22  47  1   
 50  23  24  1   
 51  23  48  1   
 52  24  49  1   
 53  24  50  1   
@<TRIPOS>SUBSTRUCTURE
  1 ****  12 GROUP 4 **** **** 0

# MOE 2024.06 (io_trps.svl 2023.06)
