@<TRIPOS>MOLECULE
2,3-Dihydro-benzo[1,4]dioxine-6-carboxylic acid (3-carbamoyl-5,6,7,8-tetrahydro-
46 49 1 0 0 
SMALL
USER_CHARGES


@<TRIPOS>ATOM
  1 S       -0.7570     0.7190     0.6550 S.3   1 <1>  -0.0800 
  2 C       -0.7960    -0.9680     0.1850 C.2   1 <1>   0.1040 
  3 C        0.9020     0.9000     0.1230 C.2   1 <1>  -0.1400 
  4 N       -2.0080    -1.5920     0.4320 N.am  1 <1>  -0.4940 
  5 C        0.3940    -1.3350    -0.3900 C.2   1 <1>  -0.0860 
  6 C        1.3600    -0.2550    -0.3890 C.2   1 <1>  -0.1810 
  7 C        1.5360     2.2640     0.3060 C.3   1 <1>   0.0200 
  8 C       -2.3040    -2.8510     0.9000 C.2   1 <1>   0.5440 
  9 C        0.6730    -2.6050    -1.0020 C.2   1 <1>   0.7160 
 10 C        2.7750    -0.4150    -0.9390 C.3   1 <1>   0.0210 
 11 C        2.8690     2.1820     1.0580 C.3   1 <1>  -0.1600 
 12 O       -1.4330    -3.5060     1.4370 O.2   1 <1>  -0.5700 
 13 C       -3.6610    -3.3550     0.8030 C.ar  1 <1>   0.0860 
 14 O        0.9330    -2.7060    -2.1850 O.2   1 <1>  -0.5700 
 15 N        0.6830    -3.7490    -0.2950 N.am  1 <1>  -0.8000 
 16 C        3.8540     0.0060     0.0690 C.3   1 <1>  -0.1600 
 17 C        4.0030     1.5250     0.2540 C.3   1 <1>  -0.1600 
 18 C       -4.5360    -2.9240    -0.1990 C.ar  1 <1>  -0.1500 
 19 C       -4.1420    -4.2990     1.7140 C.ar  1 <1>  -0.1500 
 20 C       -5.8300    -3.4010    -0.2740 C.ar  1 <1>   0.0830 
 21 C       -5.4370    -4.7810     1.6490 C.ar  1 <1>  -0.1500 
 22 O       -6.6340    -2.9570    -1.2730 O.3   1 <1>  -0.3620 
 23 C       -6.2920    -4.3280     0.6610 C.ar  1 <1>   0.0830 
 24 C       -7.8110    -3.7030    -1.5270 C.3   1 <1>   0.1200 
 25 O       -7.5610    -4.7930     0.6220 O.3   1 <1>  -0.3630 
 26 C       -8.4820    -4.1080    -0.2070 C.3   1 <1>   0.1200 
 27 H       -2.8060    -0.9580     0.4360 H     1 <1>   0.3700 
 28 H        0.8650     2.8900     0.8680 H     1 <1>   0.0800 
 29 H        1.6800     2.7220    -0.6570 H     1 <1>   0.0800 
 30 H        2.8700     0.1560    -1.8460 H     1 <1>   0.0800 
 31 H        2.9630    -1.4410    -1.1950 H     1 <1>   0.0800 
 32 H        2.7240     1.6520     1.9840 H     1 <1>   0.0800 
 33 H        3.1720     3.1840     1.3050 H     1 <1>   0.0800 
 34 H        0.7580    -4.6270    -0.8020 H     1 <1>   0.3700 
 35 H        0.1530    -3.7870     0.5860 H     1 <1>   0.3700 
 36 H        4.7960    -0.3730    -0.2880 H     1 <1>   0.0800 
 37 H        3.6600    -0.4640     1.0170 H     1 <1>   0.0800 
 38 H        4.9220     1.6990     0.7870 H     1 <1>   0.0800 
 39 H        4.0990     2.0050    -0.7050 H     1 <1>   0.0800 
 40 H       -4.2120    -2.2200    -0.9430 H     1 <1>   0.1500 
 41 H       -3.4850    -4.6590     2.4890 H     1 <1>   0.1500 
 42 H       -5.7930    -5.5050     2.3620 H     1 <1>   0.1500 
 43 H       -7.5370    -4.5780    -2.0910 H     1 <1>   0.0800 
 44 H       -8.4690    -3.0940    -2.1200 H     1 <1>   0.0800 
 45 H       -9.3160    -4.7620    -0.3870 H     1 <1>   0.0800 
 46 H       -8.8240    -3.2360     0.3220 H     1 <1>   0.0800 
@<TRIPOS>BOND
  1   1   2  1   
  2   1   3  1   
  3   2   4  1   
  4   2   5  2   
  5   3   6  2   
  6   3   7  1   
  7   4   8  am  
  8   4  27  1   
  9   5   6  1   
 10   5   9  1   
 11   6  10  1   
 12   7  11  1   
 13   7  28  1   
 14   7  29  1   
 15   8  12  2   
 16   8  13  1   
 17   9  14  2   
 18   9  15  am  
 19  10  16  1   
 20  10  30  1   
 21  10  31  1   
 22  11  17  1   
 23  11  32  1   
 24  11  33  1   
 25  13  18  ar  
 26  13  19  ar  
 27  15  34  1   
 28  15  35  1   
 29  16  17  1   
 30  16  36  1   
 31  16  37  1   
 32  17  38  1   
 33  17  39  1   
 34  18  20  ar  
 35  18  40  1   
 36  19  21  ar  
 37  19  41  1   
 38  20  22  1   
 39  20  23  ar  
 40  21  23  ar  
 41  21  42  1   
 42  22  24  1   
 43  23  25  1   
 44  24  26  1   
 45  24  43  1   
 46  24  44  1   
 47  25  26  1   
 48  26  45  1   
 49  26  46  1   
@<TRIPOS>SUBSTRUCTURE
  1 ****   4 GROUP 4 **** **** 0

# MOE 2024.06 (io_trps.svl 2023.06)
