@<TRIPOS>MOLECULE
3-(5-Hydroxy-3-methyl-5-phenyl-4,5-dihydro-pyrazol-1-yl)-3-oxo-propionitrile
31 32 1 0 0 
SMALL
USER_CHARGES


@<TRIPOS>ATOM
  1 O       -0.4490     1.5100    -1.3010 O.2   1 <1>  -0.5700 
  2 C       -1.3850     1.6130    -0.5410 C.2   1 <1>   0.5690 
  3 N       -1.9550     2.8270    -0.2320 N.am  1 <1>  -0.2980 
  4 C       -1.9420     0.3560     0.0850 C.3   1 <1>   0.1010 
  5 N       -3.0900     3.0360     0.5300 N.2   1 <1>  -0.5120 
  6 C       -1.4460     4.1020    -0.7910 C.3   1 <1>   0.7240 
  7 C       -3.1000    -0.1230    -0.7070 C.1   1 <1>   0.3570 
  8 C       -3.4140     4.2510     0.4660 C.2   1 <1>   0.3280 
  9 O       -1.4520     3.9730    -2.1590 O.3   1 <1>  -0.6800 
 10 C       -0.0470     4.4770    -0.2700 C.ar  1 <1>  -0.1440 
 11 C       -2.5060     5.1150    -0.3700 C.3   1 <1>  -0.0990 
 12 N       -3.9860    -0.5220    -1.2990 N.1   1 <1>  -0.5570 
 13 C       -4.6070     4.8790     1.1500 C.3   1 <1>  -0.1790 
 14 C        0.8850     5.1150    -1.0850 C.ar  1 <1>  -0.1500 
 15 C        0.3070     4.2050     1.0480 C.ar  1 <1>  -0.1500 
 16 C        2.1340     5.4600    -0.5990 C.ar  1 <1>  -0.1500 
 17 C        1.5560     4.5490     1.5350 C.ar  1 <1>  -0.1500 
 18 C        2.4720     5.1770     0.7110 C.ar  1 <1>  -0.1500 
 19 H       -2.2510     0.5460     1.0950 H     1 <1>   0.0800 
 20 H       -1.1860    -0.4050     0.0940 H     1 <1>   0.0800 
 21 H       -0.8990     3.1850    -2.3480 H     1 <1>   0.4000 
 22 H       -3.0270     5.5250    -1.2150 H     1 <1>   0.0800 
 23 H       -2.0790     5.9010     0.2240 H     1 <1>   0.0800 
 24 H       -4.2810     5.6440     1.8310 H     1 <1>   0.0800 
 25 H       -5.1480     4.1310     1.7000 H     1 <1>   0.0800 
 26 H       -5.2630     5.3110     0.4170 H     1 <1>   0.0800 
 27 H        0.6480     5.3520    -2.1080 H     1 <1>   0.1500 
 28 H       -0.3890     3.7220     1.7130 H     1 <1>   0.1500 
 29 H        2.8450     5.9490    -1.2430 H     1 <1>   0.1500 
 30 H        1.8160     4.3290     2.5560 H     1 <1>   0.1500 
 31 H        3.4440     5.4440     1.0880 H     1 <1>   0.1500 
@<TRIPOS>BOND
  1   1   2  2   
  2   2   3  am  
  3   2   4  1   
  4   3   5  1   
  5   3   6  1   
  6   4   7  1   
  7   4  19  1   
  8   4  20  1   
  9   5   8  2   
 10   6   9  1   
 11   6  10  1   
 12   6  11  1   
 13   7  12  3   
 14   8  11  1   
 15   8  13  1   
 16   9  21  1   
 17  10  14  ar  
 18  10  15  ar  
 19  11  22  1   
 20  11  23  1   
 21  13  24  1   
 22  13  25  1   
 23  13  26  1   
 24  14  16  ar  
 25  14  27  1   
 26  15  17  ar  
 27  15  28  1   
 28  16  18  ar  
 29  16  29  1   
 30  17  18  ar  
 31  17  30  1   
 32  18  31  1   
@<TRIPOS>SUBSTRUCTURE
  1 ****   3 GROUP 4 **** **** 0

# MOE 2024.06 (io_trps.svl 2023.06)
