@<TRIPOS>MOLECULE
2-(2-Methoxy-ethyl)-pyrimidine-5-carbaldehyde
22 22 1 0 0 
SMALL
USER_CHARGES


@<TRIPOS>ATOM
  1 O       -0.7880     0.5130    -1.1460 O.2   1 <1>  -0.5700 
  2 C       -1.5240     0.6680    -0.2080 C.2   1 <1>   0.4240 
  3 C       -2.7550    -0.0420    -0.0120 C.ar  1 <1>   0.0860 
  4 C       -3.2110    -0.9940    -0.9040 C.ar  1 <1>   0.1600 
  5 C       -3.5720     0.1770     1.0820 C.ar  1 <1>   0.1600 
  6 N       -4.3370    -1.6560    -0.7380 N.ar  1 <1>  -0.6200 
  7 N       -4.7020    -0.4650     1.2780 N.ar  1 <1>  -0.6200 
  8 C       -5.0240    -1.3580     0.3540 C.ar  1 <1>   0.4770 
  9 C       -6.3210    -2.1120     0.5630 C.3   1 <1>  -0.0160 
 10 C       -7.4630    -1.3930    -0.1460 C.3   1 <1>   0.1200 
 11 O       -8.6370    -2.1070     0.0780 O.3   1 <1>  -0.5600 
 12 C       -9.7590    -1.5500    -0.5270 C.3   1 <1>   0.0400 
 13 H       -1.2470     1.3880     0.5420 H     1 <1>   0.0600 
 14 H       -2.6230    -1.2130    -1.7810 H     1 <1>   0.1500 
 15 H       -3.2840     0.9060     1.8210 H     1 <1>   0.1500 
 16 H       -6.5330    -2.1750     1.6140 H     1 <1>   0.0800 
 17 H       -6.2210    -3.1060     0.1690 H     1 <1>   0.0800 
 18 H       -7.2770    -1.3510    -1.2060 H     1 <1>   0.0800 
 19 H       -7.5800    -0.3970     0.2470 H     1 <1>   0.0800 
 20 H      -10.6060    -2.1710    -0.2960 H     1 <1>   0.0800 
 21 H       -9.6110    -1.5200    -1.5920 H     1 <1>   0.0800 
 22 H       -9.9180    -0.5590    -0.1360 H     1 <1>   0.0800 
@<TRIPOS>BOND
  1   1   2  2   
  2   2   3  1   
  3   2  13  1   
  4   3   4  ar  
  5   3   5  ar  
  6   4   6  ar  
  7   4  14  1   
  8   5   7  ar  
  9   5  15  1   
 10   6   8  ar  
 11   7   8  ar  
 12   8   9  1   
 13   9  10  1   
 14   9  16  1   
 15   9  17  1   
 16  10  11  1   
 17  10  18  1   
 18  10  19  1   
 19  11  12  1   
 20  12  20  1   
 21  12  21  1   
 22  12  22  1   
@<TRIPOS>SUBSTRUCTURE
  1 ****   8 GROUP 4 **** **** 0

# MOE 2024.06 (io_trps.svl 2023.06)
