@<TRIPOS>MOLECULE
N-(4-Chloro-phenyl)-2-methoxy-5-methyl-N-(2-morpholin-4-yl-2-oxo-ethyl)-benzenes
52 54 1 0 0 
SMALL
USER_CHARGES


@<TRIPOS>ATOM
  1 CL       0.5790     1.5840    -2.2140 Cl    1 <1>  -0.1770 
  2 C        2.1730     2.1390    -1.7670 C.ar  1 <1>   0.1770 
  3 C        2.9050     2.8960    -2.6630 C.ar  1 <1>  -0.1500 
  4 C        2.6800     1.8160    -0.5220 C.ar  1 <1>  -0.1500 
  5 C        4.1690     3.3320    -2.3040 C.ar  1 <1>  -0.1500 
  6 C        3.9450     2.2560    -0.1730 C.ar  1 <1>  -0.1500 
  7 C        4.7060     3.0140    -1.0590 C.ar  1 <1>   0.1990 
  8 N        5.9730     3.4570    -0.7020 N.am  1 <1>  -0.6930 
  9 S        6.1700     4.6250     0.5670 S.o2  1 <1>   1.4470 
 10 C        7.1290     3.2350    -1.6330 C.3   1 <1>   0.2570 
 11 O        7.5190     5.1370     0.5020 O.2   1 <1>  -0.6500 
 12 O        5.7260     3.9580     1.7720 O.2   1 <1>  -0.6500 
 13 C        4.9940     5.9230     0.1140 C.ar  1 <1>  -0.0090 
 14 C        8.4680     2.8120    -1.0030 C.2   1 <1>   0.5690 
 15 C        5.1170     6.6270    -1.0800 C.ar  1 <1>   0.0830 
 16 C        3.9310     6.2460     0.9490 C.ar  1 <1>  -0.1500 
 17 O        9.4650     3.2760    -1.5090 O.2   1 <1>  -0.5700 
 18 N        8.5570     1.9300     0.0500 N.am  1 <1>  -0.6600 
 19 O        6.1150     6.3450    -1.9400 O.3   1 <1>  -0.3630 
 20 C        4.2060     7.6140    -1.4260 C.ar  1 <1>  -0.1500 
 21 C        3.0150     7.2320     0.6160 C.ar  1 <1>  -0.1430 
 22 C        9.8230     1.7860     0.8290 C.3   1 <1>   0.1400 
 23 C        7.4410     1.1030     0.5990 C.3   1 <1>   0.1400 
 24 C        7.2050     7.2410    -1.9570 C.3   1 <1>   0.0400 
 25 C        3.1590     7.9170    -0.5780 C.ar  1 <1>  -0.1500 
 26 C        1.8650     7.5590     1.5510 C.3   1 <1>  -0.0970 
 27 C       10.1510     0.3060     1.0760 C.3   1 <1>   0.1200 
 28 C        7.9050    -0.3370     0.8780 C.3   1 <1>   0.1200 
 29 O        9.0630    -0.3510     1.6620 O.3   1 <1>  -0.5600 
 30 H        2.4860     3.1400    -3.6230 H     1 <1>   0.1500 
 31 H        2.0890     1.2300     0.1600 H     1 <1>   0.1500 
 32 H        4.7380     3.9350    -2.9890 H     1 <1>   0.1500 
 33 H        4.3460     2.0130     0.7960 H     1 <1>   0.1500 
 34 H        7.3050     4.1430    -2.1800 H     1 <1>   0.0800 
 35 H        6.8630     2.4790    -2.3480 H     1 <1>   0.0800 
 36 H        3.8180     5.7140     1.8790 H     1 <1>   0.1500 
 37 H        4.3170     8.1370    -2.3580 H     1 <1>   0.1500 
 38 H        9.7100     2.2860     1.7750 H     1 <1>   0.0800 
 39 H       10.6440     2.2490     0.3100 H     1 <1>   0.0800 
 40 H        6.6240     1.0620    -0.0960 H     1 <1>   0.0800 
 41 H        7.0870     1.5480     1.5130 H     1 <1>   0.0800 
 42 H        7.9510     6.8530    -2.6270 H     1 <1>   0.0800 
 43 H        7.6140     7.3170    -0.9640 H     1 <1>   0.0800 
 44 H        6.8660     8.2030    -2.2970 H     1 <1>   0.0800 
 45 H        2.4550     8.6860    -0.8500 H     1 <1>   0.1500 
 46 H        1.6080     6.7040     2.1510 H     1 <1>   0.0800 
 47 H        0.9960     7.8510     0.9900 H     1 <1>   0.0800 
 48 H        2.1440     8.3680     2.2030 H     1 <1>   0.0800 
 49 H       10.9870     0.2190     1.7460 H     1 <1>   0.0800 
 50 H       10.3960    -0.1860     0.1500 H     1 <1>   0.0800 
 51 H        8.1100    -0.8520    -0.0440 H     1 <1>   0.0800 
 52 H        7.1420    -0.8750     1.4120 H     1 <1>   0.0800 
@<TRIPOS>BOND
  1   1   2  1   
  2   2   3  ar  
  3   2   4  ar  
  4   3   5  ar  
  5   3  30  1   
  6   4   6  ar  
  7   4  31  1   
  8   5   7  ar  
  9   5  32  1   
 10   6   7  ar  
 11   6  33  1   
 12   7   8  1   
 13   8   9  am  
 14   8  10  1   
 15   9  11  2   
 16   9  12  2   
 17   9  13  1   
 18  10  14  1   
 19  10  34  1   
 20  10  35  1   
 21  13  15  ar  
 22  13  16  ar  
 23  14  17  2   
 24  14  18  am  
 25  15  19  1   
 26  15  20  ar  
 27  16  21  ar  
 28  16  36  1   
 29  18  22  1   
 30  18  23  1   
 31  19  24  1   
 32  20  25  ar  
 33  20  37  1   
 34  21  25  ar  
 35  21  26  1   
 36  22  27  1   
 37  22  38  1   
 38  22  39  1   
 39  23  28  1   
 40  23  40  1   
 41  23  41  1   
 42  24  42  1   
 43  24  43  1   
 44  24  44  1   
 45  25  45  1   
 46  26  46  1   
 47  26  47  1   
 48  26  48  1   
 49  27  29  1   
 50  27  49  1   
 51  27  50  1   
 52  28  29  1   
 53  28  51  1   
 54  28  52  1   
@<TRIPOS>SUBSTRUCTURE
  1 ****   8 GROUP 4 **** **** 0

# MOE 2024.06 (io_trps.svl 2023.06)
