@<TRIPOS>MOLECULE
4-[3-(4-Chloro-phenyl)-[1,2,4]oxadiazol-5-yl]-N-(2-methoxy-ethyl)-butyramide
40 41 1 0 0 
SMALL
USER_CHARGES


@<TRIPOS>ATOM
  1 CL       1.8210    -0.7640     1.1860 Cl    1 <1>  -0.1770 
  2 C        2.8950     0.5130     0.6760 C.ar  1 <1>   0.1770 
  3 C        3.3090     1.4600     1.5910 C.ar  1 <1>  -0.1500 
  4 C        3.3190     0.5620    -0.6370 C.ar  1 <1>  -0.1500 
  5 C        4.1610     2.4710     1.1810 C.ar  1 <1>  -0.1500 
  6 C        4.1700     1.5780    -1.0360 C.ar  1 <1>  -0.1500 
  7 C        4.6140     2.5570    -0.1410 C.ar  1 <1>   0.0540 
  8 C        5.5090     3.6190    -0.5720 C.2   1 <1>   0.4620 
  9 N        5.9790     3.7690    -1.7600 N.2   1 <1>  -0.4100 
 10 N        5.9450     4.5760     0.2530 N.2   1 <1>  -0.5650 
 11 O        6.7270     4.8260    -1.7630 O.3   1 <1>  -0.0190 
 12 C        6.6660     5.2620    -0.5320 C.2   1 <1>   0.2980 
 13 C        7.4490     6.5070    -0.1570 C.3   1 <1>   0.0200 
 14 C        8.9670     6.3180    -0.3090 C.3   1 <1>  -0.1600 
 15 C        9.5170     5.1970     0.5910 C.3   1 <1>  -0.0990 
 16 C       11.0190     5.0610     0.4470 C.2   1 <1>   0.5690 
 17 O       11.7360     5.7090     1.1680 O.2   1 <1>  -0.5700 
 18 N       11.5080     4.2180    -0.4950 N.am  1 <1>  -0.7300 
 19 C       12.9520     4.0320    -0.7910 C.3   1 <1>   0.1400 
 20 C       13.6260     3.2040     0.3040 C.3   1 <1>   0.1200 
 21 O       14.9120     2.8760    -0.1200 O.3   1 <1>  -0.5600 
 22 C       15.6600     2.1990     0.8370 C.3   1 <1>   0.0400 
 23 H        2.9670     1.4040     2.6090 H     1 <1>   0.1500 
 24 H        2.9840    -0.1850    -1.3340 H     1 <1>   0.1500 
 25 H        4.4810     3.2080     1.8980 H     1 <1>   0.1500 
 26 H        4.4970     1.6130    -2.0610 H     1 <1>   0.1500 
 27 H        7.2200     6.7700     0.8610 H     1 <1>   0.0800 
 28 H        7.1240     7.3170    -0.7850 H     1 <1>   0.0800 
 29 H        9.4600     7.2410    -0.0540 H     1 <1>   0.0800 
 30 H        9.2000     6.0990    -1.3380 H     1 <1>   0.0800 
 31 H        9.0580     4.2560     0.3490 H     1 <1>   0.0800 
 32 H        9.2960     5.4160     1.6200 H     1 <1>   0.0800 
 33 H       10.8640     3.6820    -1.0790 H     1 <1>   0.3700 
 34 H       13.4300     4.9950    -0.8470 H     1 <1>   0.0800 
 35 H       13.0580     3.5320    -1.7370 H     1 <1>   0.0800 
 36 H       13.0820     2.2920     0.4750 H     1 <1>   0.0800 
 37 H       13.6910     3.7800     1.2120 H     1 <1>   0.0800 
 38 H       16.6270     1.9870     0.4160 H     1 <1>   0.0800 
 39 H       15.1640     1.2780     1.0910 H     1 <1>   0.0800 
 40 H       15.7730     2.8230     1.7070 H     1 <1>   0.0800 
@<TRIPOS>BOND
  1   1   2  1   
  2   2   3  ar  
  3   2   4  ar  
  4   3   5  ar  
  5   3  23  1   
  6   4   6  ar  
  7   4  24  1   
  8   5   7  ar  
  9   5  25  1   
 10   6   7  ar  
 11   6  26  1   
 12   7   8  1   
 13   8   9  2   
 14   8  10  1   
 15   9  11  1   
 16  10  12  2   
 17  11  12  1   
 18  12  13  1   
 19  13  14  1   
 20  13  27  1   
 21  13  28  1   
 22  14  15  1   
 23  14  29  1   
 24  14  30  1   
 25  15  16  1   
 26  15  31  1   
 27  15  32  1   
 28  16  17  2   
 29  16  18  am  
 30  18  19  1   
 31  18  33  1   
 32  19  20  1   
 33  19  34  1   
 34  19  35  1   
 35  20  21  1   
 36  20  36  1   
 37  20  37  1   
 38  21  22  1   
 39  22  38  1   
 40  22  39  1   
 41  22  40  1   
@<TRIPOS>SUBSTRUCTURE
  1 ****  10 GROUP 4 **** **** 0

# MOE 2024.06 (io_trps.svl 2023.06)
