@<TRIPOS>MOLECULE
2-(2-Fluoro-phenyl)-7-methyl-5-propyl-1,3-diaza-tricyclo[3.3.1.1*3,7*]decan-6-on
46 49 1 0 0 
SMALL
USER_CHARGES


@<TRIPOS>ATOM
  1 F        1.0970    -0.7060     1.3750 F     1 <1>  -0.1900 
  2 C        0.3860    -1.5780     0.7090 C.ar  1 <1>   0.1900 
  3 C       -0.8250    -1.1830     0.1550 C.ar  1 <1>  -0.1440 
  4 C        0.8860    -2.8620     0.6130 C.ar  1 <1>  -0.1500 
  5 C       -1.5530    -2.1660    -0.5160 C.ar  1 <1>  -0.1500 
  6 C       -1.2200     0.2810     0.3640 C.3   1 <1>   0.8360 
  7 C        0.1470    -3.8130    -0.0630 C.ar  1 <1>  -0.1500 
  8 C       -1.0690    -3.4610    -0.6230 C.ar  1 <1>  -0.1500 
  9 N       -2.3640     0.4310     1.2860 N.4   1 <1>  -0.9590 
 10 N       -1.5310     1.0820    -0.8280 N.3   1 <1>  -0.8100 
 11 C       -3.6660     0.0220     0.6630 C.3   1 <1>   0.3430 
 12 C       -2.4310     1.8570     1.7470 C.3   1 <1>   0.3430 
 13 C       -2.7890     0.7560    -1.5340 C.3   1 <1>   0.1100 
 14 C       -1.5310     2.5170    -0.4760 C.3   1 <1>   0.1100 
 15 C       -3.9790     0.8870    -0.5670 C.3   1 <1>   0.0610 
 16 C       -2.6530     2.7860     0.5440 C.3   1 <1>   0.0610 
 17 C       -3.9710     2.3460    -0.0940 C.2   1 <1>   0.4480 
 18 C       -5.2850     0.4330    -1.2800 C.3   1 <1>  -0.1600 
 19 C       -2.6420     4.2640     0.9840 C.3   1 <1>  -0.2400 
 20 O       -4.9030     3.0840    -0.2030 O.2   1 <1>  -0.5700 
 21 C       -6.4460    -0.0650    -0.3940 C.3   1 <1>  -0.1600 
 22 C       -7.0140     0.9890     0.5610 C.3   1 <1>  -0.2400 
 23 H        1.8340    -3.1120     1.0580 H     1 <1>   0.1500 
 24 H       -2.5010    -1.9710    -0.9740 H     1 <1>   0.1500 
 25 H       -0.3700     0.7580     0.8240 H     1 <1>   0.0800 
 26 H        0.5160    -4.8220    -0.1550 H     1 <1>   0.1500 
 27 H       -1.6400    -4.2080    -1.1500 H     1 <1>   0.1500 
 28 H       -2.1550    -0.1880     2.0770 H     1 <1>   0.4500 
 29 H       -4.4600     0.1350     1.3830 H     1 <1>   0.0800 
 30 H       -3.6320    -1.0150     0.3770 H     1 <1>   0.0800 
 31 H       -3.2410     1.9830     2.4490 H     1 <1>   0.0800 
 32 H       -1.5120     2.1280     2.2420 H     1 <1>   0.0800 
 33 H       -2.9210     1.4390    -2.3590 H     1 <1>   0.0800 
 34 H       -2.7290    -0.2230    -1.9670 H     1 <1>   0.0800 
 35 H       -1.6870     3.1100    -1.3640 H     1 <1>   0.0800 
 36 H       -0.5720     2.7940    -0.0690 H     1 <1>   0.0800 
 37 H       -5.0490    -0.3770    -1.9490 H     1 <1>   0.0800 
 38 H       -5.6440     1.2380    -1.9020 H     1 <1>   0.0800 
 39 H       -1.7000     4.5320     1.4310 H     1 <1>   0.0800 
 40 H       -3.4270     4.4530     1.6960 H     1 <1>   0.0800 
 41 H       -2.8090     4.9050     0.1350 H     1 <1>   0.0800 
 42 H       -6.1580    -0.9400     0.1630 H     1 <1>   0.0800 
 43 H       -7.2470    -0.3720    -1.0480 H     1 <1>   0.0800 
 44 H       -6.2990     1.2870     1.3050 H     1 <1>   0.0800 
 45 H       -7.8780     0.5960     1.0680 H     1 <1>   0.0800 
 46 H       -7.3220     1.8630     0.0120 H     1 <1>   0.0800 
@<TRIPOS>BOND
  1   1   2  1   
  2   2   3  ar  
  3   2   4  ar  
  4   3   5  ar  
  5   3   6  1   
  6   4   7  ar  
  7   4  23  1   
  8   5   8  ar  
  9   5  24  1   
 10   6   9  1   
 11   6  10  1   
 12   6  25  1   
 13   7   8  ar  
 14   7  26  1   
 15   8  27  1   
 16   9  11  1   
 17   9  12  1   
 18   9  28  1   
 19  10  13  1   
 20  10  14  1   
 21  11  15  1   
 22  11  29  1   
 23  11  30  1   
 24  12  16  1   
 25  12  31  1   
 26  12  32  1   
 27  13  15  1   
 28  13  33  1   
 29  13  34  1   
 30  14  16  1   
 31  14  35  1   
 32  14  36  1   
 33  15  17  1   
 34  15  18  1   
 35  16  17  1   
 36  16  19  1   
 37  17  20  2   
 38  18  21  1   
 39  18  37  1   
 40  18  38  1   
 41  19  39  1   
 42  19  40  1   
 43  19  41  1   
 44  21  22  1   
 45  21  42  1   
 46  21  43  1   
 47  22  44  1   
 48  22  45  1   
 49  22  46  1   
@<TRIPOS>SUBSTRUCTURE
  1 ****   9 GROUP 4 **** **** 0

# MOE 2024.06 (io_trps.svl 2023.06)
