@<TRIPOS>MOLECULE
3-[3-(3-Ethoxy-4-methoxy-phenyl)-[1,2,4]oxadiazol-5-yl]-N-methyl-propionamide
41 42 1 0 0 
SMALL
USER_CHARGES


@<TRIPOS>ATOM
  1 O        0.1840    -0.7290     0.7230 O.2   1 <1>  -0.5700 
  2 C        0.4530    -1.6130    -0.0500 C.2   1 <1>   0.5690 
  3 N        1.4270    -1.4190    -0.9680 N.am  1 <1>  -0.7300 
  4 C       -0.2970    -2.9310     0.0160 C.3   1 <1>  -0.0990 
  5 C        1.9500    -2.3430    -2.0070 C.3   1 <1>   0.0600 
  6 C       -1.4210    -2.9350     1.0640 C.3   1 <1>   0.0200 
  7 C       -2.1370    -4.2710     1.0910 C.2   1 <1>   0.2980 
  8 O       -1.5060    -5.3130     1.5650 O.3   1 <1>  -0.0190 
  9 N       -3.3160    -4.4870     0.6820 N.2   1 <1>  -0.5650 
 10 N       -2.3610    -6.2790     1.4450 N.2   1 <1>  -0.4100 
 11 C       -3.4350    -5.7960     0.9260 C.2   1 <1>   0.4620 
 12 C       -4.6440    -6.5470     0.6270 C.ar  1 <1>   0.0540 
 13 C       -5.7670    -5.9410     0.0640 C.ar  1 <1>  -0.1500 
 14 C       -4.7330    -7.9120     0.8950 C.ar  1 <1>  -0.1500 
 15 C       -6.9240    -6.6430    -0.2200 C.ar  1 <1>   0.0830 
 16 C       -5.8760    -8.6380     0.6100 C.ar  1 <1>  -0.1500 
 17 O       -7.9330    -5.9020    -0.7570 O.3   1 <1>  -0.3630 
 18 C       -6.9860    -8.0210     0.0410 C.ar  1 <1>   0.0830 
 19 C       -9.2730    -6.1540    -0.4030 C.3   1 <1>   0.1200 
 20 O       -8.1090    -8.7260    -0.2790 O.3   1 <1>  -0.3630 
 21 C      -10.0720    -4.8760    -0.6410 C.3   1 <1>  -0.2400 
 22 C       -8.1560   -10.1350    -0.2100 C.3   1 <1>   0.0400 
 23 H        1.8670    -0.4940    -0.9300 H     1 <1>   0.3700 
 24 H        0.4070    -3.7090     0.2460 H     1 <1>   0.0800 
 25 H       -0.7240    -3.1310    -0.9500 H     1 <1>   0.0800 
 26 H        1.4630    -3.3000    -1.9560 H     1 <1>   0.0800 
 27 H        3.0070    -2.4840    -1.8650 H     1 <1>   0.0800 
 28 H        1.7820    -1.9200    -2.9830 H     1 <1>   0.0800 
 29 H       -2.1320    -2.1620     0.8330 H     1 <1>   0.0800 
 30 H       -1.0180    -2.7350     2.0410 H     1 <1>   0.0800 
 31 H       -5.7450    -4.8890    -0.1580 H     1 <1>   0.1500 
 32 H       -3.8900    -8.4170     1.3350 H     1 <1>   0.1500 
 33 H       -5.8760    -9.6860     0.8400 H     1 <1>   0.1500 
 34 H       -9.3090    -6.4410     0.6340 H     1 <1>   0.0800 
 35 H       -9.6420    -6.9520    -1.0210 H     1 <1>   0.0800 
 36 H       -9.6850    -4.0800    -0.0310 H     1 <1>   0.0800 
 37 H      -11.1020    -5.0380    -0.3830 H     1 <1>   0.0800 
 38 H      -10.0160    -4.5950    -1.6780 H     1 <1>   0.0800 
 39 H       -9.1120   -10.4550    -0.5830 H     1 <1>   0.0800 
 40 H       -8.0440   -10.4390     0.8150 H     1 <1>   0.0800 
 41 H       -7.3710   -10.5400    -0.8240 H     1 <1>   0.0800 
@<TRIPOS>BOND
  1   1   2  2   
  2   2   3  am  
  3   2   4  1   
  4   3   5  1   
  5   3  23  1   
  6   4   6  1   
  7   4  24  1   
  8   4  25  1   
  9   5  26  1   
 10   5  27  1   
 11   5  28  1   
 12   6   7  1   
 13   6  29  1   
 14   6  30  1   
 15   7   8  1   
 16   7   9  2   
 17   8  10  1   
 18   9  11  1   
 19  10  11  2   
 20  11  12  1   
 21  12  13  ar  
 22  12  14  ar  
 23  13  15  ar  
 24  13  31  1   
 25  14  16  ar  
 26  14  32  1   
 27  15  17  1   
 28  15  18  ar  
 29  16  18  ar  
 30  16  33  1   
 31  17  19  1   
 32  18  20  1   
 33  19  21  1   
 34  19  34  1   
 35  19  35  1   
 36  20  22  1   
 37  21  36  1   
 38  21  37  1   
 39  21  38  1   
 40  22  39  1   
 41  22  40  1   
 42  22  41  1   
@<TRIPOS>SUBSTRUCTURE
  1 ****  11 GROUP 4 **** **** 0

# MOE 2024.06 (io_trps.svl 2023.06)
