@<TRIPOS>MOLECULE
2-(4-Chloro-phenoxy)-N-[2-(4-propionyl-piperazin-1-yl)-phenyl]-acetamide
52 54 1 0 0 
SMALL
USER_CHARGES


@<TRIPOS>ATOM
  1 CL       0.4400     2.8310    -0.8670 Cl    1 <1>  -0.1770 
  2 C        2.1510     2.5470    -0.6680 C.ar  1 <1>   0.1770 
  3 C        2.8890     3.3940     0.1370 C.ar  1 <1>  -0.1500 
  4 C        2.7410     1.4790    -1.3190 C.ar  1 <1>  -0.1500 
  5 C        4.2460     3.1650     0.2860 C.ar  1 <1>  -0.1500 
  6 C        4.1000     1.2540    -1.1690 C.ar  1 <1>  -0.1500 
  7 C        4.8600     2.1040    -0.3670 C.ar  1 <1>   0.0830 
  8 O        6.1960     1.9680    -0.1800 O.3   1 <1>  -0.3630 
  9 C        6.9120     0.8380    -0.6730 C.3   1 <1>   0.1810 
 10 C        8.4120     0.9870    -0.4470 C.2   1 <1>   0.5690 
 11 O        9.1280     0.0550    -0.7300 O.2   1 <1>  -0.5700 
 12 N        8.8710     2.1750     0.0380 N.am  1 <1>  -0.5470 
 13 C       10.1370     2.7350     0.2630 C.ar  1 <1>   0.1170 
 14 C       10.1650     4.1040     0.5660 C.ar  1 <1>   0.1000 
 15 C       11.3240     2.0190     0.2110 C.ar  1 <1>  -0.1500 
 16 N        8.9640     4.8300     0.6020 N.pl3 1 <1>  -0.8380 
 17 C       11.3830     4.7210     0.8160 C.ar  1 <1>  -0.1500 
 18 C       12.5330     2.6470     0.4610 C.ar  1 <1>  -0.1500 
 19 C        8.4870     5.4900    -0.6390 C.3   1 <1>   0.2090 
 20 C        8.5560     5.5670     1.8250 C.3   1 <1>   0.2090 
 21 C       12.5630     3.9970     0.7640 C.ar  1 <1>  -0.1500 
 22 C        6.9490     5.5360    -0.6450 C.3   1 <1>   0.1400 
 23 C        7.0210     5.6120     1.9060 C.3   1 <1>   0.1400 
 24 N        6.3660     6.0870     0.6320 N.am  1 <1>  -0.6600 
 25 C        5.1960     6.8020     0.6940 C.2   1 <1>   0.5690 
 26 O        4.7420     7.1690     1.7530 O.2   1 <1>  -0.5700 
 27 C        4.4250     7.1280    -0.5840 C.3   1 <1>  -0.0990 
 28 C        3.0280     7.7330    -0.3630 C.3   1 <1>  -0.2400 
 29 H        2.4100     4.2160     0.6390 H     1 <1>   0.1500 
 30 H        2.1390     0.8350    -1.9360 H     1 <1>   0.1500 
 31 H        4.8300     3.8100     0.9160 H     1 <1>   0.1500 
 32 H        4.5390     0.4190    -1.6820 H     1 <1>   0.1500 
 33 H        6.7350     0.7520    -1.7280 H     1 <1>   0.0800 
 34 H        6.5540    -0.0380    -0.1650 H     1 <1>   0.0800 
 35 H        8.1460     2.8710     0.2430 H     1 <1>   0.3700 
 36 H       11.3080     0.9700    -0.0210 H     1 <1>   0.1500 
 37 H       11.4040     5.7690     1.0460 H     1 <1>   0.1500 
 38 H       13.4480     2.0820     0.4180 H     1 <1>   0.1500 
 39 H        8.8390     4.9460    -1.4980 H     1 <1>   0.0800 
 40 H        8.8800     6.4910    -0.6890 H     1 <1>   0.0800 
 41 H        8.9460     6.5690     1.7960 H     1 <1>   0.0800 
 42 H        8.9520     5.0730     2.6960 H     1 <1>   0.0800 
 43 H       13.5030     4.4840     0.9580 H     1 <1>   0.1500 
 44 H        6.5800     4.5370    -0.7890 H     1 <1>   0.0800 
 45 H        6.6380     6.1260    -1.4870 H     1 <1>   0.0800 
 46 H        6.7420     6.2500     2.7270 H     1 <1>   0.0800 
 47 H        6.6650     4.6230     2.1280 H     1 <1>   0.0800 
 48 H        4.3080     6.2230    -1.1520 H     1 <1>   0.0800 
 49 H        5.0120     7.8190    -1.1620 H     1 <1>   0.0800 
 50 H        2.4160     7.0570     0.2090 H     1 <1>   0.0800 
 51 H        2.5470     7.9220    -1.3060 H     1 <1>   0.0800 
 52 H        3.1070     8.6610     0.1780 H     1 <1>   0.0800 
@<TRIPOS>BOND
  1   1   2  1   
  2   2   3  ar  
  3   2   4  ar  
  4   3   5  ar  
  5   3  29  1   
  6   4   6  ar  
  7   4  30  1   
  8   5   7  ar  
  9   5  31  1   
 10   6   7  ar  
 11   6  32  1   
 12   7   8  1   
 13   8   9  1   
 14   9  10  1   
 15   9  33  1   
 16   9  34  1   
 17  10  11  2   
 18  10  12  am  
 19  12  13  1   
 20  12  35  1   
 21  13  14  ar  
 22  13  15  ar  
 23  14  16  1   
 24  14  17  ar  
 25  15  18  ar  
 26  15  36  1   
 27  16  19  1   
 28  16  20  1   
 29  17  21  ar  
 30  17  37  1   
 31  18  21  ar  
 32  18  38  1   
 33  19  22  1   
 34  19  39  1   
 35  19  40  1   
 36  20  23  1   
 37  20  41  1   
 38  20  42  1   
 39  21  43  1   
 40  22  24  1   
 41  22  44  1   
 42  22  45  1   
 43  23  24  1   
 44  23  46  1   
 45  23  47  1   
 46  24  25  am  
 47  25  26  2   
 48  25  27  1   
 49  27  28  1   
 50  27  48  1   
 51  27  49  1   
 52  28  50  1   
 53  28  51  1   
 54  28  52  1   
@<TRIPOS>SUBSTRUCTURE
  1 ****   8 GROUP 4 **** **** 0

# MOE 2024.06 (io_trps.svl 2023.06)
