@<TRIPOS>MOLECULE
N-{1-[3-(4-tert-Butyl-phenyl)-[1,2,4]oxadiazol-5-yl]-ethyl}-2,2-dimethyl-propion
51 52 1 0 0 
SMALL
USER_CHARGES


@<TRIPOS>ATOM
  1 O       -1.2330    -1.1360     1.3820 O.2   1 <1>  -0.5700 
  2 C       -2.1470    -0.7850     0.6780 C.2   1 <1>   0.5690 
  3 N       -2.7920    -1.7840     0.0240 N.am  1 <1>  -0.7300 
  4 C       -2.4330     0.7470     0.5710 C.3   1 <1>   0.0610 
  5 C       -3.9620    -1.8770    -0.8760 C.3   1 <1>   0.4000 
  6 C       -3.8730     1.1360     0.1800 C.3   1 <1>  -0.2400 
  7 C       -2.1590     1.4290     1.9310 C.3   1 <1>  -0.2400 
  8 C       -1.4750     1.3670    -0.4620 C.3   1 <1>  -0.2400 
  9 C       -4.6580    -3.2300    -0.7180 C.2   1 <1>   0.2980 
 10 C       -3.4860    -1.6680    -2.3140 C.3   1 <1>  -0.2400 
 11 O       -3.9560    -4.3200    -0.8880 O.3   1 <1>  -0.0190 
 12 N       -5.8820    -3.4120    -0.4320 N.2   1 <1>  -0.5650 
 13 N       -4.8050    -5.2780    -0.6910 N.2   1 <1>  -0.4100 
 14 C       -5.9460    -4.7480    -0.4190 C.2   1 <1>   0.4620 
 15 C       -7.1710    -5.4750    -0.1300 C.ar  1 <1>   0.0540 
 16 C       -7.2120    -6.8680    -0.1480 C.ar  1 <1>  -0.1500 
 17 C       -8.3620    -4.8200     0.1780 C.ar  1 <1>  -0.1500 
 18 C       -8.3730    -7.5680     0.1260 C.ar  1 <1>  -0.1500 
 19 C       -9.5240    -5.5170     0.4520 C.ar  1 <1>  -0.1500 
 20 C       -9.5580    -6.9060     0.4330 C.ar  1 <1>  -0.1430 
 21 C      -10.8810    -7.6410     0.7450 C.3   1 <1>   0.1430 
 22 C      -11.9530    -7.2240    -0.2720 C.3   1 <1>  -0.2400 
 23 C      -11.3500    -7.2740     2.1610 C.3   1 <1>  -0.2400 
 24 C      -10.7520    -9.1730     0.6820 C.3   1 <1>  -0.2400 
 25 H       -2.3940    -2.7010     0.2380 H     1 <1>   0.3700 
 26 H       -4.6880    -1.1310    -0.6200 H     1 <1>   0.0800 
 27 H       -4.0200     2.1960     0.2910 H     1 <1>   0.0800 
 28 H       -4.0740     0.9010    -0.8470 H     1 <1>   0.0800 
 29 H       -4.5820     0.6350     0.8150 H     1 <1>   0.0800 
 30 H       -2.7960     1.0110     2.6900 H     1 <1>   0.0800 
 31 H       -2.3320     2.4890     1.8800 H     1 <1>   0.0800 
 32 H       -1.1370     1.2750     2.2330 H     1 <1>   0.0800 
 33 H       -1.6350     0.9380    -1.4340 H     1 <1>   0.0800 
 34 H       -0.4540     1.1770    -0.1780 H     1 <1>   0.0800 
 35 H       -1.6160     2.4310    -0.5290 H     1 <1>   0.0800 
 36 H       -4.3220    -1.7490    -2.9860 H     1 <1>   0.0800 
 37 H       -2.7600    -2.4140    -2.5820 H     1 <1>   0.0800 
 38 H       -3.0520    -0.6930    -2.4300 H     1 <1>   0.0800 
 39 H       -6.3170    -7.4170    -0.3800 H     1 <1>   0.1500 
 40 H       -8.3810    -3.7450     0.2060 H     1 <1>   0.1500 
 41 H       -8.3240    -8.6400     0.0920 H     1 <1>   0.1500 
 42 H      -10.4110    -4.9570     0.6840 H     1 <1>   0.1500 
 43 H      -12.1570    -6.1710    -0.2110 H     1 <1>   0.0800 
 44 H      -12.8720    -7.7520    -0.0940 H     1 <1>   0.0800 
 45 H      -11.6180    -7.4450    -1.2700 H     1 <1>   0.0800 
 46 H      -10.5890    -7.5310     2.8770 H     1 <1>   0.0800 
 47 H      -12.2510    -7.8040     2.4130 H     1 <1>   0.0800 
 48 H      -11.5480    -6.2220     2.2430 H     1 <1>   0.0800 
 49 H      -10.0290    -9.5200     1.3980 H     1 <1>   0.0800 
 50 H      -10.4500    -9.4850    -0.3020 H     1 <1>   0.0800 
 51 H      -11.6930    -9.6410     0.9050 H     1 <1>   0.0800 
@<TRIPOS>BOND
  1   1   2  2   
  2   2   3  am  
  3   2   4  1   
  4   3   5  1   
  5   3  25  1   
  6   4   6  1   
  7   4   7  1   
  8   4   8  1   
  9   5   9  1   
 10   5  10  1   
 11   5  26  1   
 12   6  27  1   
 13   6  28  1   
 14   6  29  1   
 15   7  30  1   
 16   7  31  1   
 17   7  32  1   
 18   8  33  1   
 19   8  34  1   
 20   8  35  1   
 21   9  11  1   
 22   9  12  2   
 23  10  36  1   
 24  10  37  1   
 25  10  38  1   
 26  11  13  1   
 27  12  14  1   
 28  13  14  2   
 29  14  15  1   
 30  15  16  ar  
 31  15  17  ar  
 32  16  18  ar  
 33  16  39  1   
 34  17  19  ar  
 35  17  40  1   
 36  18  20  ar  
 37  18  41  1   
 38  19  20  ar  
 39  19  42  1   
 40  20  21  1   
 41  21  22  1   
 42  21  23  1   
 43  21  24  1   
 44  22  43  1   
 45  22  44  1   
 46  22  45  1   
 47  23  46  1   
 48  23  47  1   
 49  23  48  1   
 50  24  49  1   
 51  24  50  1   
 52  24  51  1   
@<TRIPOS>SUBSTRUCTURE
  1 ****  12 GROUP 4 **** **** 0

# MOE 2024.06 (io_trps.svl 2023.06)
