@<TRIPOS>MOLECULE
(Benzo[1,3]dioxol-5-yl-methanesulfonyl-amino)-acetic acid
28 29 1 0 0 
SMALL
USER_CHARGES


@<TRIPOS>ATOM
  1 S       -0.0740    -0.2280     0.1320 S.o2  1 <1>   1.3330 
  2 O        1.0090    -0.8930    -0.5530 O.2   1 <1>  -0.6500 
  3 O       -1.4080    -0.7730     0.0170 O.2   1 <1>  -0.6500 
  4 N       -0.1260     1.4140    -0.4250 N.am  1 <1>  -0.6930 
  5 C        0.3070    -0.1090     1.8660 C.3   1 <1>  -0.1350 
  6 C       -1.3010     2.1650    -0.3880 C.ar  1 <1>   0.1990 
  7 C        1.1990     2.1190    -0.6270 C.3   1 <1>   0.0900 
  8 C       -2.3670     1.8270    -1.2200 C.ar  1 <1>  -0.1500 
  9 C       -1.4290     3.2640     0.4680 C.ar  1 <1>  -0.1500 
 10 C        2.0880     2.3210     0.6080 C.2   1 <1>   0.9060 
 11 C       -3.5140     2.5930    -1.1740 C.ar  1 <1>   0.0820 
 12 C       -2.5890     4.0260     0.5050 C.ar  1 <1>  -0.1500 
 13 O        3.3090     2.1870     0.4900 O.co2 1 <1>  -0.9000 
 14 O        1.5750     2.6160     1.6970 O.co2 1 <1>  -0.9000 
 15 O       -4.6410     2.4480    -1.8810 O.3   1 <1>  -0.3630 
 16 C       -3.6230     3.6640    -0.3350 C.ar  1 <1>   0.0820 
 17 C       -5.5270     3.4790    -1.4550 C.3   1 <1>   0.4000 
 18 O       -4.8260     4.2410    -0.4730 O.3   1 <1>  -0.3630 
 19 H        0.1470    -1.0540     2.3440 H     1 <1>   0.0800 
 20 H       -0.3130     0.6310     2.3310 H     1 <1>   0.0800 
 21 H        1.3330     0.1680     2.0060 H     1 <1>   0.0800 
 22 H        1.0200     3.0890    -1.0470 H     1 <1>   0.0800 
 23 H        1.7760     1.5600    -1.3400 H     1 <1>   0.0800 
 24 H       -2.2950     0.9830    -1.8800 H     1 <1>   0.1500 
 25 H       -0.6090     3.5200     1.1160 H     1 <1>   0.1500 
 26 H       -2.6870     4.8700     1.1630 H     1 <1>   0.1500 
 27 H       -6.4030     3.0400    -1.0110 H     1 <1>   0.0800 
 28 H       -5.7760     4.1090    -2.2900 H     1 <1>   0.0800 
@<TRIPOS>BOND
  1   1   2  2   
  2   1   3  2   
  3   1   4  am  
  4   1   5  1   
  5   4   6  1   
  6   4   7  1   
  7   5  19  1   
  8   5  20  1   
  9   5  21  1   
 10   6   8  ar  
 11   6   9  ar  
 12   7  10  1   
 13   7  22  1   
 14   7  23  1   
 15   8  11  ar  
 16   8  24  1   
 17   9  12  ar  
 18   9  25  1   
 19  10  13  ar  
 20  10  14  ar  
 21  11  15  1   
 22  11  16  ar  
 23  12  16  ar  
 24  12  26  1   
 25  15  17  1   
 26  16  18  1   
 27  17  18  1   
 28  17  27  1   
 29  17  28  1   
@<TRIPOS>SUBSTRUCTURE
  1 ****   6 GROUP 4 **** **** 0

# MOE 2024.06 (io_trps.svl 2023.06)
