@<TRIPOS>MOLECULE
1,3,6,7,8-Pentamethyl-1H,8H-imidazo[2,1-f]purine-2,4-dione
35 37 1 0 0 
SMALL
USER_CHARGES


@<TRIPOS>ATOM
  1 O        0.5960     0.1110    -0.0270 O.2   1 <1>  -0.5770 
  2 C        1.6090     0.7800    -0.0090 C.2   1 <1>   0.6840 
  3 N        1.5270     2.1680     0.0620 N.am  1 <1>  -0.4280 
  4 N        2.8500     0.1560    -0.0590 N.am  1 <1>  -0.4440 
  5 C        2.6700     2.9590     0.0650 C.2   1 <1>   0.6980 
  6 C        0.1770     2.8130     0.1030 C.3   1 <1>   0.0490 
  7 C        3.9800     0.9470    -0.0180 C.2   1 <1>   0.4180 
  8 C        2.9500    -1.3330    -0.1360 C.3   1 <1>   0.0490 
  9 O        2.5840     4.1750     0.0890 O.2   1 <1>  -0.5770 
 10 C        3.9360     2.3010     0.0390 C.2   1 <1>   0.2680 
 11 N        5.2820     0.5340    -0.0260 N.pl3 1 <1>  -0.7050 
 12 N        5.2730     2.7340     0.0620 N.pl3 1 <1>  -0.6350 
 13 C        6.0260     1.6440     0.0220 C.cat 1 <1>   1.0680 
 14 C        6.1340     3.8110     0.1100 C.2   1 <1>   0.2310 
 15 N        7.3330     1.9370     0.0430 N.pl3 1 <1>  -0.5740 
 16 C        7.3980     3.3220     0.0980 C.2   1 <1>   0.1540 
 17 C        5.5990     5.2280     0.1640 C.3   1 <1>  -0.1130 
 18 C        8.4880     1.0020     0.0120 C.3   1 <1>   0.0760 
 19 C        8.7310     4.0500     0.1360 C.3   1 <1>  -0.1130 
 20 H       -0.5060     2.2130     0.6800 H     1 <1>   0.0690 
 21 H       -0.2060     2.9100    -0.8980 H     1 <1>   0.0690 
 22 H        0.2290     3.7880     0.5550 H     1 <1>   0.0690 
 23 H        2.0520    -1.7510    -0.5590 H     1 <1>   0.0690 
 24 H        3.0840    -1.7380     0.8520 H     1 <1>   0.0690 
 25 H        3.7770    -1.6230    -0.7590 H     1 <1>   0.0690 
 26 H        5.6400    -0.4170    -0.0540 H     1 <1>   0.4420 
 27 H        4.9870     5.3570     1.0380 H     1 <1>   0.0690 
 28 H        4.9990     5.4270    -0.7060 H     1 <1>   0.0690 
 29 H        6.4000     5.9430     0.1980 H     1 <1>   0.0690 
 30 H        8.1500    -0.0180    -0.0320 H     1 <1>   0.0690 
 31 H        9.0860     1.1320     0.8990 H     1 <1>   0.0690 
 32 H        9.0970     1.2040    -0.8520 H     1 <1>   0.0690 
 33 H        9.2920     3.7510     1.0030 H     1 <1>   0.0690 
 34 H        8.5860     5.1140     0.1780 H     1 <1>   0.0690 
 35 H        9.3030     3.8210    -0.7450 H     1 <1>   0.0690 
@<TRIPOS>BOND
  1   1   2  2   
  2   2   3  am  
  3   2   4  am  
  4   3   5  am  
  5   3   6  1   
  6   4   7  1   
  7   4   8  1   
  8   5   9  2   
  9   5  10  1   
 10   6  20  1   
 11   6  21  1   
 12   6  22  1   
 13   7  10  2   
 14   7  11  1   
 15   8  23  1   
 16   8  24  1   
 17   8  25  1   
 18  10  12  1   
 19  11  13  ar  
 20  11  26  1   
 21  12  13  ar  
 22  12  14  1   
 23  13  15  ar  
 24  14  16  2   
 25  14  17  1   
 26  15  16  1   
 27  15  18  1   
 28  16  19  1   
 29  17  27  1   
 30  17  28  1   
 31  17  29  1   
 32  18  30  1   
 33  18  31  1   
 34  18  32  1   
 35  19  33  1   
 36  19  34  1   
 37  19  35  1   
@<TRIPOS>SUBSTRUCTURE
  1 ****  10 GROUP 4 **** **** 0

# MOE 2024.06 (io_trps.svl 2023.06)
