@<TRIPOS>MOLECULE
7-[3-(Benzooxazol-2-ylsulfanyl)-propyl]-3-methyl-8-piperidin-1-yl-3,7-dihydro-pu
56 60 1 0 0 
SMALL
USER_CHARGES


@<TRIPOS>ATOM
  1 S       -1.5370     1.8360     1.9830 S.3   1 <1>  -0.2920 
  2 C       -0.6610     1.9850     0.4340 C.2   1 <1>   0.5300 
  3 C       -3.3230     1.7290     1.5110 C.3   1 <1>   0.0630 
  4 O        0.6410     2.1760     0.4950 O.3   1 <1>  -0.2860 
  5 N       -1.1940     1.8860    -0.7230 N.2   1 <1>  -0.5690 
  6 C       -3.7450     0.2550     1.4620 C.3   1 <1>  -0.1670 
  7 C        1.0100     2.2290    -0.7700 C.ar  1 <1>   0.1330 
  8 C       -0.1170     2.0550    -1.5410 C.ar  1 <1>   0.2210 
  9 C       -3.1130    -0.4900     0.2810 C.3   1 <1>   0.3490 
 10 C        2.2680     2.4180    -1.3260 C.ar  1 <1>  -0.1570 
 11 C       -0.0150     2.0700    -2.9280 C.ar  1 <1>  -0.1570 
 12 N       -3.3840    -1.9450     0.3940 N.pl3 1 <1>  -0.7670 
 13 C        2.3670     2.4300    -2.7040 C.ar  1 <1>  -0.1570 
 14 C        1.2300     2.2570    -3.5010 C.ar  1 <1>  -0.1570 
 15 C       -2.5450    -2.9540     0.6830 C.cat 1 <1>   1.0690 
 16 C       -4.5990    -2.5190    -0.0290 C.2   1 <1>   0.2710 
 17 N       -3.1700    -4.1140     0.4690 N.pl3 1 <1>  -0.7030 
 18 N       -1.2630    -2.8980     1.1120 N.pl3 1 <1>  -0.5960 
 19 C       -5.8610    -2.0190    -0.4980 C.2   1 <1>   0.7000 
 20 C       -4.4330    -3.8590     0.0400 C.2   1 <1>   0.4210 
 21 C       -0.2790    -3.9910     0.8570 C.3   1 <1>   0.1610 
 22 C       -0.7050    -1.8220     1.9850 C.3   1 <1>   0.1610 
 23 O       -6.1160    -0.8400    -0.6360 O.2   1 <1>  -0.5740 
 24 N       -6.8190    -2.9380    -0.8140 N.am  1 <1>  -0.4950 
 25 N       -5.4170    -4.7800    -0.2890 N.am  1 <1>  -0.4410 
 26 C        0.1410    -4.6340     2.1810 C.3   1 <1>  -0.1670 
 27 C       -0.2540    -2.4180     3.3230 C.3   1 <1>  -0.1670 
 28 C       -6.6380    -4.2870    -0.7240 C.2   1 <1>   0.6870 
 29 C       -5.1700    -6.2480    -0.1800 C.3   1 <1>   0.0530 
 30 C        0.7230    -3.5860     3.1370 C.3   1 <1>  -0.1670 
 31 O       -7.5550    -5.0120    -1.0310 O.2   1 <1>  -0.5740 
 32 H       -3.4560     2.2280     0.5660 H     1 <1>   0.0730 
 33 H       -3.8690     2.2570     2.2730 H     1 <1>   0.0730 
 34 H       -4.8140     0.2230     1.3660 H     1 <1>   0.0730 
 35 H       -3.4820    -0.2100     2.3950 H     1 <1>   0.0730 
 36 H       -2.0520    -0.3340     0.2490 H     1 <1>   0.0730 
 37 H       -3.5180    -0.1110    -0.6440 H     1 <1>   0.0730 
 38 H        3.1250     2.5520    -0.6910 H     1 <1>   0.1430 
 39 H       -0.8970     1.9400    -3.5270 H     1 <1>   0.1430 
 40 H        3.3240     2.5750    -3.1750 H     1 <1>   0.1430 
 41 H        1.3320     2.2740    -4.5730 H     1 <1>   0.1430 
 42 H       -2.7590    -5.0210     0.6610 H     1 <1>   0.4450 
 43 H        0.5900    -3.5720     0.3760 H     1 <1>   0.0730 
 44 H       -0.6840    -4.7380     0.1960 H     1 <1>   0.0730 
 45 H       -1.4370    -1.0680     2.1940 H     1 <1>   0.0730 
 46 H        0.1320    -1.3550     1.4910 H     1 <1>   0.0730 
 47 H       -7.7240    -2.6090    -1.1450 H     1 <1>   0.3650 
 48 H        0.8830    -5.3900     1.9910 H     1 <1>   0.0730 
 49 H       -0.7060    -5.1160     2.6390 H     1 <1>   0.0730 
 50 H       -1.1190    -2.7540     3.8700 H     1 <1>   0.0730 
 51 H        0.2180    -1.6500     3.9100 H     1 <1>   0.0730 
 52 H       -4.3630    -6.5330    -0.8310 H     1 <1>   0.0730 
 53 H       -6.0460    -6.8070    -0.4620 H     1 <1>   0.0730 
 54 H       -4.9220    -6.5030     0.8360 H     1 <1>   0.0730 
 55 H        1.6510    -3.2130     2.7370 H     1 <1>   0.0730 
 56 H        0.9360    -4.0390     4.0910 H     1 <1>   0.0730 
@<TRIPOS>BOND
  1   1   2  1   
  2   1   3  1   
  3   2   4  1   
  4   2   5  2   
  5   3   6  1   
  6   3  32  1   
  7   3  33  1   
  8   4   7  1   
  9   5   8  1   
 10   6   9  1   
 11   6  34  1   
 12   6  35  1   
 13   7   8  ar  
 14   7  10  ar  
 15   8  11  ar  
 16   9  12  1   
 17   9  36  1   
 18   9  37  1   
 19  10  13  ar  
 20  10  38  1   
 21  11  14  ar  
 22  11  39  1   
 23  12  15  ar  
 24  12  16  1   
 25  13  14  ar  
 26  13  40  1   
 27  14  41  1   
 28  15  17  ar  
 29  15  18  ar  
 30  16  19  1   
 31  16  20  2   
 32  17  20  1   
 33  17  42  1   
 34  18  21  1   
 35  18  22  1   
 36  19  23  2   
 37  19  24  am  
 38  20  25  1   
 39  21  26  1   
 40  21  43  1   
 41  21  44  1   
 42  22  27  1   
 43  22  45  1   
 44  22  46  1   
 45  24  28  am  
 46  24  47  1   
 47  25  28  am  
 48  25  29  1   
 49  26  30  1   
 50  26  48  1   
 51  26  49  1   
 52  27  30  1   
 53  27  50  1   
 54  27  51  1   
 55  28  31  2   
 56  29  52  1   
 57  29  53  1   
 58  29  54  1   
 59  30  55  1   
 60  30  56  1   
@<TRIPOS>SUBSTRUCTURE
  1 ****   9 GROUP 4 **** **** 0

# MOE 2024.06 (io_trps.svl 2023.06)
