@<TRIPOS>MOLECULE
[4-(6-Ethoxy-pyridazin-3-yloxy)-6-pyrrolidin-1-yl-[1,3,5]triazin-2-yl]-dimethyl-
45 47 1 0 0 
SMALL
USER_CHARGES


@<TRIPOS>ATOM
  1 O        0.1110    -0.3300    -0.4260 O.3   1 <1>  -0.1650 
  2 C       -0.5280    -1.5030    -0.2850 C.ar  1 <1>   0.7020 
  3 C        1.4310    -0.1790    -0.1920 C.ar  1 <1>   0.3920 
  4 N        0.1740    -2.6040    -0.2880 N.ar  1 <1>  -0.6200 
  5 N       -1.8180    -1.4070    -0.1500 N.ar  1 <1>  -0.6200 
  6 N        2.1190     0.4650    -1.1370 N.ar  1 <1>  -0.3100 
  7 C        2.0060    -0.6420     0.9790 C.ar  1 <1>  -0.1500 
  8 C       -0.5420    -3.6890    -0.1390 C.ar  1 <1>   0.7200 
  9 C       -2.4270    -2.5590    -0.0030 C.ar  1 <1>   0.7200 
 10 N        3.4090     0.6620    -0.9810 N.ar  1 <1>  -0.3100 
 11 C        3.3550    -0.4330     1.1400 C.ar  1 <1>  -0.1500 
 12 N       -1.8380    -3.7260     0.0130 N.ar  1 <1>  -0.6200 
 13 N        0.1340    -4.8820    -0.1310 N.pl3 1 <1>  -0.8380 
 14 N       -3.7970    -2.5320     0.1520 N.pl3 1 <1>  -0.8380 
 15 C        4.0190     0.2240     0.1260 C.ar  1 <1>   0.3930 
 16 C        1.5530    -5.0270    -0.5290 C.3   1 <1>   0.2090 
 17 C       -0.5410    -6.1950    -0.0640 C.3   1 <1>   0.2090 
 18 C       -4.6130    -1.3230    -0.1570 C.3   1 <1>   0.1290 
 19 C       -4.5680    -3.7190     0.6210 C.3   1 <1>   0.1290 
 20 O        5.3470     0.4240     0.2820 O.3   1 <1>  -0.3620 
 21 C        1.6930    -6.4910    -0.9300 C.3   1 <1>  -0.1600 
 22 C        0.5880    -7.2130    -0.1630 C.3   1 <1>  -0.1600 
 23 C        6.0950     1.0850    -0.7160 C.3   1 <1>   0.1200 
 24 C        7.5490     1.1490    -0.2570 C.3   1 <1>  -0.2400 
 25 H        1.4230    -1.1450     1.7280 H     1 <1>   0.1500 
 26 H        3.8850    -0.7640     2.0140 H     1 <1>   0.1500 
 27 H        2.1780    -4.8030     0.3190 H     1 <1>   0.0800 
 28 H        1.8010    -4.3710    -1.3460 H     1 <1>   0.0800 
 29 H       -1.2140    -6.2900    -0.9000 H     1 <1>   0.0800 
 30 H       -1.0910    -6.2960     0.8570 H     1 <1>   0.0800 
 31 H       -4.7550    -0.7470     0.7400 H     1 <1>   0.0800 
 32 H       -5.5720    -1.6150    -0.5480 H     1 <1>   0.0800 
 33 H       -4.1220    -0.7100    -0.8930 H     1 <1>   0.0800 
 34 H       -3.9510    -4.3570     1.2300 H     1 <1>   0.0800 
 35 H       -4.9180    -4.2780    -0.2280 H     1 <1>   0.0800 
 36 H       -5.4100    -3.4030     1.2110 H     1 <1>   0.0800 
 37 H        2.6710    -6.8750    -0.7030 H     1 <1>   0.0800 
 38 H        1.5190    -6.5770    -1.9880 H     1 <1>   0.0800 
 39 H        0.2690    -8.1160    -0.6520 H     1 <1>   0.0800 
 40 H        0.9270    -7.4510     0.8300 H     1 <1>   0.0800 
 41 H        5.6900     2.0750    -0.8480 H     1 <1>   0.0800 
 42 H        6.0070     0.5290    -1.6340 H     1 <1>   0.0800 
 43 H        7.6220     1.6970     0.6660 H     1 <1>   0.0800 
 44 H        8.1420     1.6490    -1.0000 H     1 <1>   0.0800 
 45 H        7.9380     0.1560    -0.1190 H     1 <1>   0.0800 
@<TRIPOS>BOND
  1   1   2  1   
  2   1   3  1   
  3   2   4  ar  
  4   2   5  ar  
  5   3   6  ar  
  6   3   7  ar  
  7   4   8  ar  
  8   5   9  ar  
  9   6  10  ar  
 10   7  11  ar  
 11   7  25  1   
 12   8  12  ar  
 13   8  13  1   
 14   9  12  ar  
 15   9  14  1   
 16  10  15  ar  
 17  11  15  ar  
 18  11  26  1   
 19  13  16  1   
 20  13  17  1   
 21  14  18  1   
 22  14  19  1   
 23  15  20  1   
 24  16  21  1   
 25  16  27  1   
 26  16  28  1   
 27  17  22  1   
 28  17  29  1   
 29  17  30  1   
 30  18  31  1   
 31  18  32  1   
 32  18  33  1   
 33  19  34  1   
 34  19  35  1   
 35  19  36  1   
 36  20  23  1   
 37  21  22  1   
 38  21  37  1   
 39  21  38  1   
 40  22  39  1   
 41  22  40  1   
 42  23  24  1   
 43  23  41  1   
 44  23  42  1   
 45  24  43  1   
 46  24  44  1   
 47  24  45  1   
@<TRIPOS>SUBSTRUCTURE
  1 ****   4 GROUP 4 **** **** 0

# MOE 2024.06 (io_trps.svl 2023.06)
