@<TRIPOS>MOLECULE
1-(5-Chloro-2-ethoxy-benzenesulfonyl)-piperidine-4-carboxylic acid (3-methoxy-pr
54 55 1 0 0 
SMALL
USER_CHARGES


@<TRIPOS>ATOM
  1 CL      -0.0170     0.6620    -2.2500 Cl    1 <1>  -0.1770 
  2 C        0.1000     2.3070    -1.6810 C.ar  1 <1>   0.1770 
  3 C        0.9500     2.6030    -0.6330 C.ar  1 <1>  -0.1500 
  4 C       -0.6590     3.2880    -2.2890 C.ar  1 <1>  -0.1500 
  5 C        1.0630     3.9040    -0.1520 C.ar  1 <1>  -0.0090 
  6 C       -0.5550     4.5880    -1.8330 C.ar  1 <1>  -0.1500 
  7 S        2.1920     4.2640     1.2240 S.o2  1 <1>   1.4470 
  8 C        0.2960     4.8890    -0.7770 C.ar  1 <1>   0.0830 
  9 O        2.4090     3.0250     1.9410 O.2   1 <1>  -0.6500 
 10 O        1.7910     5.4190     1.9990 O.2   1 <1>  -0.6500 
 11 N        3.6680     4.6540     0.4820 N.am  1 <1>  -0.8490 
 12 O        0.3890     6.1750    -0.3880 O.3   1 <1>  -0.3630 
 13 C        4.7680     4.5840     1.4500 C.3   1 <1>   0.1960 
 14 C        3.6210     5.9590    -0.1890 C.3   1 <1>   0.1960 
 15 C       -0.6740     6.6870     0.3820 C.3   1 <1>   0.1200 
 16 C        6.1140     4.8170     0.7590 C.3   1 <1>  -0.1600 
 17 C        4.9320     6.2320    -0.9300 C.3   1 <1>  -0.1600 
 18 C       -0.2980     8.0990     0.8190 C.3   1 <1>  -0.2400 
 19 C        6.1370     6.1630     0.0200 C.3   1 <1>  -0.0190 
 20 C        7.4620     6.3740    -0.7110 C.2   1 <1>   0.5690 
 21 O        7.7350     5.6860    -1.6660 O.2   1 <1>  -0.5700 
 22 N        8.3070     7.3370    -0.2580 N.am  1 <1>  -0.7300 
 23 C        9.6390     7.6260    -0.8270 C.3   1 <1>   0.1400 
 24 C       10.6530     7.7270     0.3100 C.3   1 <1>  -0.1600 
 25 C       12.0560     7.9780    -0.2360 C.3   1 <1>   0.1200 
 26 O       12.9100     8.1070     0.8500 O.3   1 <1>  -0.5600 
 27 C       14.2410     8.3150     0.5030 C.3   1 <1>   0.0400 
 28 H        1.5290     1.8110    -0.1890 H     1 <1>   0.1500 
 29 H       -1.3130     3.0330    -3.1050 H     1 <1>   0.1500 
 30 H       -1.1250     5.3730    -2.2990 H     1 <1>   0.1500 
 31 H        4.7870     3.6100     1.9090 H     1 <1>   0.0800 
 32 H        4.6160     5.3170     2.2270 H     1 <1>   0.0800 
 33 H        3.4340     6.7390     0.5310 H     1 <1>   0.0800 
 34 H        2.8230     5.9680    -0.9100 H     1 <1>   0.0800 
 35 H       -0.8130     6.0500     1.2390 H     1 <1>   0.0800 
 36 H       -1.5660     6.6940    -0.2200 H     1 <1>   0.0800 
 37 H        6.2890     4.0150     0.0620 H     1 <1>   0.0800 
 38 H        6.9000     4.7900     1.4920 H     1 <1>   0.0800 
 39 H        4.8870     7.2030    -1.3900 H     1 <1>   0.0800 
 40 H        5.0440     5.5040    -1.7160 H     1 <1>   0.0800 
 41 H        0.5930     8.0690     1.4210 H     1 <1>   0.0800 
 42 H       -1.0920     8.5210     1.4070 H     1 <1>   0.0800 
 43 H       -0.1330     8.7240    -0.0400 H     1 <1>   0.0800 
 44 H        6.0280     6.9460     0.7490 H     1 <1>   0.0800 
 45 H        8.0450     7.9020     0.5500 H     1 <1>   0.3700 
 46 H        9.5980     8.5530    -1.3740 H     1 <1>   0.0800 
 47 H        9.9260     6.8410    -1.5070 H     1 <1>   0.0800 
 48 H       10.6600     6.8050     0.8640 H     1 <1>   0.0800 
 49 H       10.3840     8.5380     0.9630 H     1 <1>   0.0800 
 50 H       12.0880     8.8900    -0.8080 H     1 <1>   0.0800 
 51 H       12.3850     7.1490    -0.8400 H     1 <1>   0.0800 
 52 H       14.8130     8.4030     1.4100 H     1 <1>   0.0800 
 53 H       14.3220     9.2250    -0.0660 H     1 <1>   0.0800 
 54 H       14.5950     7.4750    -0.0690 H     1 <1>   0.0800 
@<TRIPOS>BOND
  1   1   2  1   
  2   2   3  ar  
  3   2   4  ar  
  4   3   5  ar  
  5   3  28  1   
  6   4   6  ar  
  7   4  29  1   
  8   5   7  1   
  9   5   8  ar  
 10   6   8  ar  
 11   6  30  1   
 12   7   9  2   
 13   7  10  2   
 14   7  11  am  
 15   8  12  1   
 16  11  13  1   
 17  11  14  1   
 18  12  15  1   
 19  13  16  1   
 20  13  31  1   
 21  13  32  1   
 22  14  17  1   
 23  14  33  1   
 24  14  34  1   
 25  15  18  1   
 26  15  35  1   
 27  15  36  1   
 28  16  19  1   
 29  16  37  1   
 30  16  38  1   
 31  17  19  1   
 32  17  39  1   
 33  17  40  1   
 34  18  41  1   
 35  18  42  1   
 36  18  43  1   
 37  19  20  1   
 38  19  44  1   
 39  20  21  2   
 40  20  22  am  
 41  22  23  1   
 42  22  45  1   
 43  23  24  1   
 44  23  46  1   
 45  23  47  1   
 46  24  25  1   
 47  24  48  1   
 48  24  49  1   
 49  25  26  1   
 50  25  50  1   
 51  25  51  1   
 52  26  27  1   
 53  27  52  1   
 54  27  53  1   
 55  27  54  1   
@<TRIPOS>SUBSTRUCTURE
  1 ****  14 GROUP 4 **** **** 0

# MOE 2024.06 (io_trps.svl 2023.06)
