@<TRIPOS>MOLECULE
3-[3-(2-Methoxy-phenyl)-[1,2,4]oxadiazol-5-yl]-N-propyl-propionamide
40 41 1 0 0 
SMALL
USER_CHARGES


@<TRIPOS>ATOM
  1 O        0.8940    -0.3760    -0.7440 O.2   1 <1>  -0.5700 
  2 C        1.2280    -1.4030    -0.2120 C.2   1 <1>   0.5690 
  3 N        2.5390    -1.6350     0.0210 N.am  1 <1>  -0.7300 
  4 C        0.1790    -2.4230     0.1930 C.3   1 <1>  -0.0990 
  5 C        3.1870    -2.7920     0.6750 C.3   1 <1>   0.1400 
  6 C       -1.2290    -2.0780    -0.3150 C.3   1 <1>   0.0200 
  7 C        3.9000    -3.6280    -0.3870 C.3   1 <1>  -0.1600 
  8 C       -2.2300    -3.1360     0.1020 C.2   1 <1>   0.2980 
  9 C        4.5840    -4.8510     0.2330 C.3   1 <1>  -0.2400 
 10 O       -2.5340    -3.2480     1.3690 O.3   1 <1>  -0.0190 
 11 N       -2.8110    -3.9520    -0.6740 N.2   1 <1>  -0.5650 
 12 N       -3.3820    -4.2260     1.4030 N.2   1 <1>  -0.4100 
 13 C       -3.5630    -4.6360     0.1970 C.2   1 <1>   0.4620 
 14 C       -4.4220    -5.7210    -0.2330 C.ar  1 <1>   0.0540 
 15 C       -5.7450    -5.8630     0.2120 C.ar  1 <1>   0.0820 
 16 C       -3.9310    -6.6740    -1.1260 C.ar  1 <1>  -0.1500 
 17 O       -6.2380    -4.9160     1.0530 O.3   1 <1>  -0.3630 
 18 C       -6.5190    -6.9390    -0.2180 C.ar  1 <1>  -0.1500 
 19 C       -4.7020    -7.7370    -1.5530 C.ar  1 <1>  -0.1500 
 20 C       -7.5190    -5.0090     1.6360 C.3   1 <1>   0.0400 
 21 C       -5.9990    -7.8720    -1.0950 C.ar  1 <1>  -0.1500 
 22 H        3.1710    -0.9030    -0.3120 H     1 <1>   0.3700 
 23 H        0.1660    -2.4860     1.2660 H     1 <1>   0.0800 
 24 H        0.4630    -3.3820    -0.2010 H     1 <1>   0.0800 
 25 H        2.4560    -3.3940     1.1880 H     1 <1>   0.0800 
 26 H        3.8970    -2.4340     1.4010 H     1 <1>   0.0800 
 27 H       -1.2190    -2.0080    -1.3880 H     1 <1>   0.0800 
 28 H       -1.5420    -1.1270     0.0780 H     1 <1>   0.0800 
 29 H        4.6410    -3.0240    -0.8820 H     1 <1>   0.0800 
 30 H        3.1850    -3.9590    -1.1210 H     1 <1>   0.0800 
 31 H        5.3180    -4.5470     0.9580 H     1 <1>   0.0800 
 32 H        5.0800    -5.4220    -0.5330 H     1 <1>   0.0800 
 33 H        3.8610    -5.4860     0.7150 H     1 <1>   0.0800 
 34 H       -2.9220    -6.5750    -1.4880 H     1 <1>   0.1500 
 35 H       -7.5310    -7.0660     0.1150 H     1 <1>   0.1500 
 36 H       -4.2960    -8.4590    -2.2400 H     1 <1>   0.1500 
 37 H       -7.6470    -4.1650     2.2900 H     1 <1>   0.0800 
 38 H       -7.5790    -5.9220     2.2020 H     1 <1>   0.0800 
 39 H       -8.2600    -4.9840     0.8570 H     1 <1>   0.0800 
 40 H       -6.6030    -8.7010    -1.4240 H     1 <1>   0.1500 
@<TRIPOS>BOND
  1   1   2  2   
  2   2   3  am  
  3   2   4  1   
  4   3   5  1   
  5   3  22  1   
  6   4   6  1   
  7   4  23  1   
  8   4  24  1   
  9   5   7  1   
 10   5  25  1   
 11   5  26  1   
 12   6   8  1   
 13   6  27  1   
 14   6  28  1   
 15   7   9  1   
 16   7  29  1   
 17   7  30  1   
 18   8  10  1   
 19   8  11  2   
 20   9  31  1   
 21   9  32  1   
 22   9  33  1   
 23  10  12  1   
 24  11  13  1   
 25  12  13  2   
 26  13  14  1   
 27  14  15  ar  
 28  14  16  ar  
 29  15  17  1   
 30  15  18  ar  
 31  16  19  ar  
 32  16  34  1   
 33  17  20  1   
 34  18  21  ar  
 35  18  35  1   
 36  19  21  ar  
 37  19  36  1   
 38  20  37  1   
 39  20  38  1   
 40  20  39  1   
 41  21  40  1   
@<TRIPOS>SUBSTRUCTURE
  1 ****  11 GROUP 4 **** **** 0

# MOE 2024.06 (io_trps.svl 2023.06)
