@<TRIPOS>MOLECULE
5-Phenethyl-4-propyl-4H-[1,2,4]triazole-3-thiol
34 35 1 0 0 
SMALL
USER_CHARGES


@<TRIPOS>ATOM
  1 S       -0.5400    -0.2490     0.1240 S.3   1 <1>  -0.9360 
  2 C       -1.9760     0.3040    -0.3880 C.cat 1 <1>   0.7360 
  3 N       -2.1530     1.4120    -1.0730 N.pl3 1 <1>  -0.3930 
  4 N       -3.1520    -0.2650    -0.2000 N.pl3 1 <1>  -0.7640 
  5 N       -3.4760     1.5980    -1.3540 N.2   1 <1>  -0.2600 
  6 C       -4.0450     0.5790    -0.8160 C.2   1 <1>   0.4850 
  7 C       -3.3430    -1.5480     0.5010 C.3   1 <1>   0.3540 
  8 C       -5.5390     0.3200    -0.8370 C.3   1 <1>   0.0080 
  9 C       -3.3140    -2.6950    -0.5120 C.3   1 <1>  -0.1600 
 10 C       -6.2010     0.7850     0.4640 C.3   1 <1>  -0.0170 
 11 C       -3.5790    -4.0520     0.1530 C.3   1 <1>  -0.2400 
 12 C       -7.6760     0.4280     0.4510 C.ar  1 <1>  -0.1430 
 13 C       -8.5970     1.2920    -0.1210 C.ar  1 <1>  -0.1500 
 14 C       -8.1130    -0.7670     1.0010 C.ar  1 <1>  -0.1500 
 15 C       -9.9410     0.9630    -0.1450 C.ar  1 <1>  -0.1500 
 16 C       -9.4570    -1.0960     0.9780 C.ar  1 <1>  -0.1500 
 17 C      -10.3720    -0.2320     0.4030 C.ar  1 <1>  -0.1500 
 18 H       -1.3620     2.0030    -1.3290 H     1 <1>   0.4500 
 19 H       -4.2810    -1.5390     1.0250 H     1 <1>   0.0800 
 20 H       -2.5580    -1.6860     1.2280 H     1 <1>   0.0800 
 21 H       -5.7200    -0.7280    -0.9890 H     1 <1>   0.0800 
 22 H       -5.9740     0.8500    -1.6650 H     1 <1>   0.0800 
 23 H       -2.3430    -2.7170    -0.9780 H     1 <1>   0.0800 
 24 H       -4.0530    -2.5270    -1.2750 H     1 <1>   0.0800 
 25 H       -6.0850     1.8500     0.5710 H     1 <1>   0.0800 
 26 H       -5.7250     0.3230     1.3110 H     1 <1>   0.0800 
 27 H       -2.8320    -4.2540     0.9020 H     1 <1>   0.0800 
 28 H       -3.5380    -4.8350    -0.5840 H     1 <1>   0.0800 
 29 H       -4.5510    -4.0690     0.6150 H     1 <1>   0.0800 
 30 H       -8.2770     2.2250    -0.5510 H     1 <1>   0.1500 
 31 H       -7.4140    -1.4490     1.4530 H     1 <1>   0.1500 
 32 H      -10.6530     1.6360    -0.5900 H     1 <1>   0.1500 
 33 H       -9.7940    -2.0240     1.4070 H     1 <1>   0.1500 
 34 H      -11.4170    -0.4880     0.3850 H     1 <1>   0.1500 
@<TRIPOS>BOND
  1   1   2  1   
  2   2   3  ar  
  3   2   4  ar  
  4   3   5  1   
  5   3  18  1   
  6   4   6  1   
  7   4   7  1   
  8   5   6  2   
  9   6   8  1   
 10   7   9  1   
 11   7  19  1   
 12   7  20  1   
 13   8  10  1   
 14   8  21  1   
 15   8  22  1   
 16   9  11  1   
 17   9  23  1   
 18   9  24  1   
 19  10  12  1   
 20  10  25  1   
 21  10  26  1   
 22  11  27  1   
 23  11  28  1   
 24  11  29  1   
 25  12  13  ar  
 26  12  14  ar  
 27  13  15  ar  
 28  13  30  1   
 29  14  16  ar  
 30  14  31  1   
 31  15  17  ar  
 32  15  32  1   
 33  16  17  ar  
 34  16  33  1   
 35  17  34  1   
@<TRIPOS>SUBSTRUCTURE
  1 ****   8 GROUP 4 **** **** 0

# MOE 2024.06 (io_trps.svl 2023.06)
