@<TRIPOS>MOLECULE
[8-(3-Chloro-2-methyl-phenyl)-1,6-dimethyl-2,4-dioxo-1,4,5,6,7,8-hexahydro-2H-1,
56 59 1 0 0 
SMALL
USER_CHARGES


@<TRIPOS>ATOM
  1 CL      -4.0370    -2.1200    -2.8540 Cl    1 <1>  -0.1830 
  2 C       -3.9370    -1.2510    -1.3410 C.ar  1 <1>   0.1710 
  3 C       -4.7400    -0.1420    -1.1150 C.ar  1 <1>  -0.1500 
  4 C       -3.0460    -1.7190    -0.3940 C.ar  1 <1>  -0.1570 
  5 C       -4.6480     0.4920     0.1280 C.ar  1 <1>   0.3050 
  6 C       -5.6790     0.3400    -2.2260 C.3   1 <1>  -0.1030 
  7 C       -2.9440    -1.0720     0.8230 C.ar  1 <1>  -0.1570 
  8 N       -5.4720     1.5720     0.4670 N.pl3 1 <1>  -0.5790 
  9 C       -3.7450     0.0260     1.0770 C.ar  1 <1>  -0.1570 
 10 C       -6.7820     1.4240     0.7390 C.cat 1 <1>   1.0690 
 11 C       -4.8870     2.9410     0.3820 C.3   1 <1>   0.1610 
 12 N       -7.4640     0.2820     0.7770 N.pl3 1 <1>  -0.7030 
 13 N       -7.5900     2.4430     0.9940 N.pl3 1 <1>  -0.7670 
 14 C       -5.6610     3.9400     1.2670 C.3   1 <1>  -0.0870 
 15 C       -8.7660     0.5830     1.0430 C.2   1 <1>   0.4210 
 16 C       -8.8790     1.9230     1.1790 C.2   1 <1>   0.2710 
 17 C       -7.1780     3.8620     1.0170 C.3   1 <1>   0.3490 
 18 C       -5.1430     5.3680     1.0430 C.3   1 <1>  -0.2460 
 19 N       -9.8340    -0.2860     1.1530 N.am  1 <1>  -0.4410 
 20 C      -10.1670     2.4870     1.4380 C.2   1 <1>   0.7000 
 21 C      -11.0990     0.2590     1.3350 C.2   1 <1>   0.6870 
 22 C       -9.6540    -1.7590     0.9940 C.3   1 <1>   0.0530 
 23 O      -10.3130     3.6840     1.6180 O.2   1 <1>  -0.5740 
 24 N      -11.2550     1.6310     1.4750 N.am  1 <1>  -0.4250 
 25 O      -12.0730    -0.4640     1.3630 O.2   1 <1>  -0.5740 
 26 C      -12.6120     2.2190     1.2160 C.3   1 <1>   0.1950 
 27 C      -12.8240     2.4890    -0.2710 C.2   1 <1>   0.6550 
 28 O      -11.9340     2.3440    -1.0760 O.2   1 <1>  -0.5740 
 29 O      -14.0370     2.8950    -0.6160 O.3   1 <1>  -0.4350 
 30 C      -14.3710     3.1760    -1.9560 C.3   1 <1>   0.1130 
 31 C      -15.8310     3.6150    -1.9970 C.3   1 <1>  -0.2460 
 32 H       -2.4370    -2.5800    -0.6120 H     1 <1>   0.1430 
 33 H       -6.5170    -0.3280    -2.3190 H     1 <1>   0.0730 
 34 H       -5.1570     0.3550    -3.1680 H     1 <1>   0.0730 
 35 H       -6.0440     1.3350    -2.0560 H     1 <1>   0.0730 
 36 H       -2.2460    -1.4250     1.5650 H     1 <1>   0.1430 
 37 H       -3.6670     0.5240     2.0280 H     1 <1>   0.1430 
 38 H       -4.9150     3.2650    -0.6450 H     1 <1>   0.0730 
 39 H       -3.8550     2.9140     0.6920 H     1 <1>   0.0730 
 40 H       -7.0580    -0.6330     0.5990 H     1 <1>   0.4450 
 41 H       -5.4770     3.6880     2.2980 H     1 <1>   0.0730 
 42 H       -7.7060     4.3880     1.7950 H     1 <1>   0.0730 
 43 H       -7.4270     4.3150     0.0710 H     1 <1>   0.0730 
 44 H       -5.2940     5.6810     0.0240 H     1 <1>   0.0730 
 45 H       -4.0900     5.4250     1.2630 H     1 <1>   0.0730 
 46 H       -5.6540     6.0600     1.6920 H     1 <1>   0.0730 
 47 H       -9.6550    -2.0130    -0.0520 H     1 <1>   0.0730 
 48 H      -10.4570    -2.2910     1.4770 H     1 <1>   0.0730 
 49 H       -8.7290    -2.0760     1.4410 H     1 <1>   0.0730 
 50 H      -12.7220     3.1430     1.7540 H     1 <1>   0.0730 
 51 H      -13.3820     1.5520     1.5610 H     1 <1>   0.0730 
 52 H      -14.2200     2.2830    -2.5400 H     1 <1>   0.0730 
 53 H      -13.7230     3.9580    -2.3140 H     1 <1>   0.0730 
 54 H      -16.4660     2.8290    -1.6290 H     1 <1>   0.0730 
 55 H      -16.1140     3.8350    -3.0100 H     1 <1>   0.0730 
 56 H      -15.9700     4.5000    -1.4030 H     1 <1>   0.0730 
@<TRIPOS>BOND
  1   1   2  1   
  2   2   3  ar  
  3   2   4  ar  
  4   3   5  ar  
  5   3   6  1   
  6   4   7  ar  
  7   4  32  1   
  8   5   8  1   
  9   5   9  ar  
 10   6  33  1   
 11   6  34  1   
 12   6  35  1   
 13   7   9  ar  
 14   7  36  1   
 15   8  10  ar  
 16   8  11  1   
 17   9  37  1   
 18  10  12  ar  
 19  10  13  ar  
 20  11  14  1   
 21  11  38  1   
 22  11  39  1   
 23  12  15  1   
 24  12  40  1   
 25  13  16  1   
 26  13  17  1   
 27  14  17  1   
 28  14  18  1   
 29  14  41  1   
 30  15  16  2   
 31  15  19  1   
 32  16  20  1   
 33  17  42  1   
 34  17  43  1   
 35  18  44  1   
 36  18  45  1   
 37  18  46  1   
 38  19  21  am  
 39  19  22  1   
 40  20  23  2   
 41  20  24  am  
 42  21  24  am  
 43  21  25  2   
 44  22  47  1   
 45  22  48  1   
 46  22  49  1   
 47  24  26  1   
 48  26  27  1   
 49  26  50  1   
 50  26  51  1   
 51  27  28  2   
 52  27  29  1   
 53  29  30  1   
 54  30  31  1   
 55  30  52  1   
 56  30  53  1   
 57  31  54  1   
 58  31  55  1   
 59  31  56  1   
@<TRIPOS>SUBSTRUCTURE
  1 ****  15 GROUP 4 **** **** 0

# MOE 2024.06 (io_trps.svl 2023.06)
