@<TRIPOS>MOLECULE
5-Oxo-1-p-tolyl-pyrrolidine-3-carboxylic acid (5-methoxymethyl-[1,3,4]thiadiazol
42 44 1 0 0 
SMALL
USER_CHARGES


@<TRIPOS>ATOM
  1 S       -0.6930     1.0650     0.7990 S.3   1 <1>  -0.0800 
  2 C       -0.9850    -0.3120    -0.2100 C.2   1 <1>   0.4420 
  3 C        0.3110     1.6890    -0.4670 C.2   1 <1>   0.1980 
  4 N       -0.3620    -0.2360    -1.3290 N.2   1 <1>  -0.3380 
  5 N       -1.8270    -1.2780     0.3000 N.am  1 <1>  -0.4940 
  6 N        0.3750     0.9080    -1.4690 N.2   1 <1>  -0.3380 
  7 C        0.9940     3.0300    -0.2620 C.3   1 <1>   0.3000 
  8 C       -2.1900    -2.4790    -0.2410 C.2   1 <1>   0.5690 
  9 O        0.0780     3.9770     0.2080 O.3   1 <1>  -0.5600 
 10 O       -1.7360    -2.9080    -1.2690 O.2   1 <1>  -0.5700 
 11 C       -3.2050    -3.3200     0.5210 C.3   1 <1>  -0.0190 
 12 C        0.6090     5.2540     0.3680 C.3   1 <1>   0.0400 
 13 C       -3.7350    -4.5230    -0.2760 C.3   1 <1>   0.1400 
 14 C       -4.4700    -2.5580     0.9420 C.3   1 <1>  -0.0990 
 15 N       -5.1100    -4.7250     0.2270 N.am  1 <1>  -0.4770 
 16 C       -5.5330    -3.6210     0.9100 C.2   1 <1>   0.5690 
 17 C       -5.7920    -5.9390     0.0070 C.ar  1 <1>   0.1170 
 18 O       -6.5970    -3.4530     1.4500 O.2   1 <1>  -0.5700 
 19 C       -6.6610    -6.4610     0.9590 C.ar  1 <1>  -0.1500 
 20 C       -5.6040    -6.6610    -1.1690 C.ar  1 <1>  -0.1500 
 21 C       -7.3150    -7.6620     0.7480 C.ar  1 <1>  -0.1500 
 22 C       -6.2550    -7.8630    -1.3820 C.ar  1 <1>  -0.1500 
 23 C       -7.1160    -8.3720    -0.4240 C.ar  1 <1>  -0.1440 
 24 C       -7.8330    -9.6900    -0.6530 C.3   1 <1>  -0.0970 
 25 H       -2.2350    -1.0420     1.1990 H     1 <1>   0.3700 
 26 H        1.3980     3.3730    -1.1980 H     1 <1>   0.0800 
 27 H        1.7840     2.9280     0.4610 H     1 <1>   0.0800 
 28 H       -2.7220    -3.7080     1.4000 H     1 <1>   0.0800 
 29 H       -0.1720     5.8970     0.7350 H     1 <1>   0.0800 
 30 H        0.9580     5.6170    -0.5830 H     1 <1>   0.0800 
 31 H        1.4140     5.2200     1.0820 H     1 <1>   0.0800 
 32 H       -3.1310    -5.3990    -0.1150 H     1 <1>   0.0800 
 33 H       -3.7820    -4.3020    -1.3290 H     1 <1>   0.0800 
 34 H       -4.7330    -1.7980     0.2280 H     1 <1>   0.0800 
 35 H       -4.3860    -2.1350     1.9260 H     1 <1>   0.0800 
 36 H       -6.8300    -5.9260     1.8750 H     1 <1>   0.1500 
 37 H       -4.9500    -6.2840    -1.9330 H     1 <1>   0.1500 
 38 H       -7.9810    -8.0400     1.5040 H     1 <1>   0.1500 
 39 H       -6.0910    -8.4010    -2.2990 H     1 <1>   0.1500 
 40 H       -8.7950    -9.6810    -0.1730 H     1 <1>   0.0800 
 41 H       -7.2490   -10.4960    -0.2480 H     1 <1>   0.0800 
 42 H       -7.9810    -9.8600    -1.7040 H     1 <1>   0.0800 
@<TRIPOS>BOND
  1   1   2  1   
  2   1   3  1   
  3   2   4  2   
  4   2   5  1   
  5   3   6  2   
  6   3   7  1   
  7   4   6  1   
  8   5   8  am  
  9   5  25  1   
 10   7   9  1   
 11   7  26  1   
 12   7  27  1   
 13   8  10  2   
 14   8  11  1   
 15   9  12  1   
 16  11  13  1   
 17  11  14  1   
 18  11  28  1   
 19  12  29  1   
 20  12  30  1   
 21  12  31  1   
 22  13  15  1   
 23  13  32  1   
 24  13  33  1   
 25  14  16  1   
 26  14  34  1   
 27  14  35  1   
 28  15  16  am  
 29  15  17  1   
 30  16  18  2   
 31  17  19  ar  
 32  17  20  ar  
 33  19  21  ar  
 34  19  36  1   
 35  20  22  ar  
 36  20  37  1   
 37  21  23  ar  
 38  21  38  1   
 39  22  23  ar  
 40  22  39  1   
 41  23  24  1   
 42  24  40  1   
 43  24  41  1   
 44  24  42  1   
@<TRIPOS>SUBSTRUCTURE
  1 ****  11 GROUP 4 **** **** 0

# MOE 2024.06 (io_trps.svl 2023.06)
