@<TRIPOS>MOLECULE
1-(2-Chloro-acetyl)-piperidine-4-carboxylic acid methyl ester
28 28 1 0 0 
SMALL
USER_CHARGES


@<TRIPOS>ATOM
  1 CL       0.7110     0.4130    -1.8920 Cl    1 <1>  -0.2900 
  2 C        0.1820    -0.9040    -0.8420 C.3   1 <1>   0.1910 
  3 C        1.3350    -1.8430    -0.5070 C.2   1 <1>   0.5690 
  4 O        1.2480    -2.9750    -0.9260 O.2   1 <1>  -0.5700 
  5 N        2.4050    -1.4400     0.2610 N.am  1 <1>  -0.6600 
  6 C        3.5520    -2.3550     0.5180 C.3   1 <1>   0.1400 
  7 C        2.5850    -0.0750     0.8310 C.3   1 <1>   0.1400 
  8 C        4.8280    -1.7490    -0.0720 C.3   1 <1>  -0.1600 
  9 C        3.8480     0.5570     0.2410 C.3   1 <1>  -0.1600 
 10 C        5.0910    -0.3300     0.4690 C.3   1 <1>  -0.0190 
 11 C        6.3660     0.2640    -0.1290 C.2   1 <1>   0.6590 
 12 O        6.3580     1.2110    -0.8740 O.2   1 <1>  -0.5700 
 13 O        7.4970    -0.3290     0.2350 O.3   1 <1>  -0.4300 
 14 C        8.7520     0.1120    -0.2410 C.3   1 <1>   0.0400 
 15 H       -0.5870    -1.4390    -1.3680 H     1 <1>   0.0800 
 16 H       -0.2280    -0.4720     0.0500 H     1 <1>   0.0800 
 17 H        3.3790    -3.3220     0.0770 H     1 <1>   0.0800 
 18 H        3.6630    -2.4910     1.5800 H     1 <1>   0.0800 
 19 H        2.6840    -0.1540     1.9000 H     1 <1>   0.0800 
 20 H        1.7400     0.5550     0.6240 H     1 <1>   0.0800 
 21 H        4.7330    -1.7180    -1.1440 H     1 <1>   0.0800 
 22 H        5.6600    -2.3890     0.1640 H     1 <1>   0.0800 
 23 H        4.0050     1.5220     0.6890 H     1 <1>   0.0800 
 24 H        3.6980     0.7110    -0.8150 H     1 <1>   0.0800 
 25 H        5.2540    -0.4010     1.5300 H     1 <1>   0.0800 
 26 H        8.7620     0.0360    -1.3150 H     1 <1>   0.0800 
 27 H        9.5170    -0.5130     0.1830 H     1 <1>   0.0800 
 28 H        8.8970     1.1350     0.0590 H     1 <1>   0.0800 
@<TRIPOS>BOND
  1   1   2  1   
  2   2   3  1   
  3   2  15  1   
  4   2  16  1   
  5   3   4  2   
  6   3   5  am  
  7   5   6  1   
  8   5   7  1   
  9   6   8  1   
 10   6  17  1   
 11   6  18  1   
 12   7   9  1   
 13   7  19  1   
 14   7  20  1   
 15   8  10  1   
 16   8  21  1   
 17   8  22  1   
 18   9  10  1   
 19   9  23  1   
 20   9  24  1   
 21  10  11  1   
 22  10  25  1   
 23  11  12  2   
 24  11  13  1   
 25  13  14  1   
 26  14  26  1   
 27  14  27  1   
 28  14  28  1   
@<TRIPOS>SUBSTRUCTURE
  1 ****   9 GROUP 4 **** **** 0

# MOE 2024.06 (io_trps.svl 2023.06)
