@<TRIPOS>MOLECULE
N-[3-(4-tert-Butyl-phenyl)-[1,2,4]oxadiazol-5-ylmethyl]-isobutyramide
45 46 1 0 0 
SMALL
USER_CHARGES


@<TRIPOS>ATOM
  1 O       -1.5180    -0.6990     0.3440 O.2   1 <1>  -0.5700 
  2 C       -2.5180    -0.9570    -0.2770 C.2   1 <1>   0.5690 
  3 N       -2.3840    -1.5560    -1.4840 N.am  1 <1>  -0.7300 
  4 C       -3.8910    -0.6120     0.3220 C.3   1 <1>  -0.0190 
  5 C       -3.4370    -2.0500    -2.4110 C.3   1 <1>   0.3200 
  6 C       -3.9430     0.8360     0.8370 C.3   1 <1>  -0.2400 
  7 C       -4.2550    -1.5820     1.4580 C.3   1 <1>  -0.2400 
  8 C       -4.2260    -3.2140    -1.8280 C.2   1 <1>   0.2980 
  9 O       -3.5890    -4.3150    -1.5290 O.3   1 <1>  -0.0190 
 10 N       -5.4740    -3.2260    -1.5960 N.2   1 <1>  -0.5650 
 11 N       -4.5110    -5.0950    -1.0610 N.2   1 <1>  -0.4100 
 12 C       -5.6270    -4.4560    -1.0940 C.2   1 <1>   0.4620 
 13 C       -6.9120    -4.9700    -0.6490 C.ar  1 <1>   0.0540 
 14 C       -7.0390    -6.2540    -0.1250 C.ar  1 <1>  -0.1500 
 15 C       -8.0780    -4.2080    -0.7240 C.ar  1 <1>  -0.1500 
 16 C       -8.2580    -6.7480     0.2990 C.ar  1 <1>  -0.1500 
 17 C       -9.2990    -4.7010    -0.3000 C.ar  1 <1>  -0.1500 
 18 C       -9.4170    -5.9850     0.2220 C.ar  1 <1>  -0.1430 
 19 C      -10.7570    -6.5810     0.7070 C.3   1 <1>   0.1430 
 20 C      -11.0820    -7.8420    -0.1060 C.3   1 <1>  -0.2400 
 21 C      -11.9420    -5.6120     0.5540 C.3   1 <1>  -0.2400 
 22 C      -10.6470    -6.9470     2.1950 C.3   1 <1>  -0.2400 
 23 H       -1.4210    -1.7870    -1.7350 H     1 <1>   0.3700 
 24 H       -4.6420    -0.7010    -0.4400 H     1 <1>   0.0800 
 25 H       -2.9760    -2.3680    -3.3290 H     1 <1>   0.0800 
 26 H       -4.1130    -1.2450    -2.6410 H     1 <1>   0.0800 
 27 H       -3.2300     0.9770     1.6310 H     1 <1>   0.0800 
 28 H       -4.9250     1.0700     1.2080 H     1 <1>   0.0800 
 29 H       -3.7030     1.5200     0.0420 H     1 <1>   0.0800 
 30 H       -3.5420    -1.5000     2.2590 H     1 <1>   0.0800 
 31 H       -4.2470    -2.5960     1.0990 H     1 <1>   0.0800 
 32 H       -5.2360    -1.3640     1.8410 H     1 <1>   0.0800 
 33 H       -6.1670    -6.8800    -0.0470 H     1 <1>   0.1500 
 34 H       -8.0300    -3.2100    -1.1210 H     1 <1>   0.1500 
 35 H       -8.2930    -7.7470     0.6950 H     1 <1>   0.1500 
 36 H      -10.1510    -4.0540    -0.3900 H     1 <1>   0.1500 
 37 H      -11.1260    -7.6020    -1.1540 H     1 <1>   0.0800 
 38 H      -12.0300    -8.2530     0.1910 H     1 <1>   0.0800 
 39 H      -10.3330    -8.5990     0.0340 H     1 <1>   0.0800 
 40 H      -12.8510    -6.0680     0.9030 H     1 <1>   0.0800 
 41 H      -12.0790    -5.3440    -0.4780 H     1 <1>   0.0800 
 42 H      -11.7750    -4.7190     1.1300 H     1 <1>   0.0800 
 43 H      -11.5820    -7.3320     2.5620 H     1 <1>   0.0800 
 44 H      -10.3860    -6.0760     2.7690 H     1 <1>   0.0800 
 45 H       -9.8930    -7.6950     2.3560 H     1 <1>   0.0800 
@<TRIPOS>BOND
  1   1   2  2   
  2   2   3  am  
  3   2   4  1   
  4   3   5  1   
  5   3  23  1   
  6   4   6  1   
  7   4   7  1   
  8   4  24  1   
  9   5   8  1   
 10   5  25  1   
 11   5  26  1   
 12   6  27  1   
 13   6  28  1   
 14   6  29  1   
 15   7  30  1   
 16   7  31  1   
 17   7  32  1   
 18   8   9  1   
 19   8  10  2   
 20   9  11  1   
 21  10  12  1   
 22  11  12  2   
 23  12  13  1   
 24  13  14  ar  
 25  13  15  ar  
 26  14  16  ar  
 27  14  33  1   
 28  15  17  ar  
 29  15  34  1   
 30  16  18  ar  
 31  16  35  1   
 32  17  18  ar  
 33  17  36  1   
 34  18  19  1   
 35  19  20  1   
 36  19  21  1   
 37  19  22  1   
 38  20  37  1   
 39  20  38  1   
 40  20  39  1   
 41  21  40  1   
 42  21  41  1   
 43  21  42  1   
 44  22  43  1   
 45  22  44  1   
 46  22  45  1   
@<TRIPOS>SUBSTRUCTURE
  1 ****  12 GROUP 4 **** **** 0

# MOE 2024.06 (io_trps.svl 2023.06)
