@<TRIPOS>MOLECULE
4-(4-Hydroxy-phenyl)-1-isopropyl-1,4-dihydro-pyridine-3,5-dicarboxylic acid dime
45 46 1 0 0 
SMALL
USER_CHARGES


@<TRIPOS>ATOM
  1 O       -0.7250    -0.9260     2.5310 O.2   1 <1>  -0.5700 
  2 C       -0.6090    -1.7370     1.6310 C.2   1 <1>   0.7060 
  3 O        0.6090    -2.2310     1.3700 O.3   1 <1>  -0.4300 
  4 C       -1.7020    -2.2210     0.8490 C.2   1 <1>  -0.1240 
  5 C        1.7490    -1.8040     2.0880 C.3   1 <1>   0.0400 
  6 C       -1.6480    -3.2890     0.0150 C.2   1 <1>  -0.0500 
  7 C       -3.0070    -1.4380     0.9920 C.3   1 <1>   0.3400 
  8 N       -2.7430    -3.7630    -0.6910 N.pl3 1 <1>  -0.5690 
  9 C       -4.2030    -2.1440     0.3470 C.2   1 <1>  -0.1240 
 10 C       -2.8290    -0.0630     0.3400 C.ar  1 <1>  -0.1440 
 11 C       -3.9930    -3.2190    -0.4510 C.2   1 <1>  -0.0500 
 12 C       -2.6220    -4.9080    -1.6350 C.3   1 <1>   0.2890 
 13 C       -5.4950    -1.5960     0.6210 C.2   1 <1>   0.7060 
 14 C       -2.8310     1.0910     1.1140 C.ar  1 <1>  -0.1500 
 15 C       -2.6620     0.0440    -1.0350 C.ar  1 <1>  -0.1500 
 16 C       -2.2180    -6.1710    -0.8760 C.3   1 <1>  -0.2400 
 17 C       -1.6280    -4.5690    -2.7460 C.3   1 <1>  -0.2400 
 18 O       -6.5050    -1.9860     0.0670 O.2   1 <1>  -0.5700 
 19 O       -5.6070    -0.6250     1.5370 O.3   1 <1>  -0.4300 
 20 C       -2.6760     2.3320     0.5220 C.ar  1 <1>  -0.1500 
 21 C       -2.5070     1.2830    -1.6320 C.ar  1 <1>  -0.1500 
 22 C       -6.8480    -0.0110     1.8210 C.3   1 <1>   0.0400 
 23 C       -2.5170     2.4250    -0.8480 C.ar  1 <1>   0.0820 
 24 O       -2.3700     3.6330    -1.4120 O.3   1 <1>  -0.5330 
 25 H        2.6090    -2.3240     1.7050 H     1 <1>   0.0800 
 26 H        1.6100    -2.0330     3.1300 H     1 <1>   0.0800 
 27 H        1.8670    -0.7420     1.9540 H     1 <1>   0.0800 
 28 H       -0.7230    -3.8260    -0.1190 H     1 <1>   0.1500 
 29 H       -3.2130    -1.3250     2.0430 H     1 <1>   0.0800 
 30 H       -4.8300    -3.7020    -0.9330 H     1 <1>   0.1500 
 31 H       -3.5830    -5.0820    -2.0900 H     1 <1>   0.0800 
 32 H       -2.9490     1.0280     2.1820 H     1 <1>   0.1500 
 33 H       -2.6520    -0.8440    -1.6460 H     1 <1>   0.1500 
 34 H       -1.2360    -6.0700    -0.4500 H     1 <1>   0.0800 
 35 H       -2.2130    -7.0120    -1.5440 H     1 <1>   0.0800 
 36 H       -2.9260    -6.3650    -0.0900 H     1 <1>   0.0800 
 37 H       -0.6350    -4.4460    -2.3540 H     1 <1>   0.0800 
 38 H       -1.9290    -3.6620    -3.2390 H     1 <1>   0.0800 
 39 H       -1.6100    -5.3610    -3.4720 H     1 <1>   0.0800 
 40 H       -2.6770     3.2270     1.1170 H     1 <1>   0.1500 
 41 H       -2.3810     1.3500    -2.6960 H     1 <1>   0.1500 
 42 H       -6.6920     0.7400     2.5750 H     1 <1>   0.0800 
 43 H       -7.5350    -0.7590     2.1770 H     1 <1>   0.0800 
 44 H       -7.2250     0.4420     0.9200 H     1 <1>   0.0800 
 45 H       -2.2610     3.5900    -2.3780 H     1 <1>   0.4500 
@<TRIPOS>BOND
  1   1   2  2   
  2   2   3  1   
  3   2   4  1   
  4   3   5  1   
  5   4   6  2   
  6   4   7  1   
  7   5  25  1   
  8   5  26  1   
  9   5  27  1   
 10   6   8  1   
 11   6  28  1   
 12   7   9  1   
 13   7  10  1   
 14   7  29  1   
 15   8  11  1   
 16   8  12  1   
 17   9  11  2   
 18   9  13  1   
 19  10  14  ar  
 20  10  15  ar  
 21  11  30  1   
 22  12  16  1   
 23  12  17  1   
 24  12  31  1   
 25  13  18  2   
 26  13  19  1   
 27  14  20  ar  
 28  14  32  1   
 29  15  21  ar  
 30  15  33  1   
 31  16  34  1   
 32  16  35  1   
 33  16  36  1   
 34  17  37  1   
 35  17  38  1   
 36  17  39  1   
 37  19  22  1   
 38  20  23  ar  
 39  20  40  1   
 40  21  23  ar  
 41  21  41  1   
 42  22  42  1   
 43  22  43  1   
 44  22  44  1   
 45  23  24  1   
 46  24  45  1   
@<TRIPOS>SUBSTRUCTURE
  1 ****   7 GROUP 4 **** **** 0

# MOE 2024.06 (io_trps.svl 2023.06)
