@<TRIPOS>MOLECULE
[8-(5-Chloro-2-methyl-phenyl)-1,6-dimethyl-2,4-dioxo-1,4,5,6,7,8-hexahydro-2H-1,
56 59 1 0 0 
SMALL
USER_CHARGES


@<TRIPOS>ATOM
  1 CL      -0.1290     1.9520     3.9270 Cl    1 <1>  -0.1830 
  2 C       -0.1360     2.6910     2.3480 C.ar  1 <1>   0.1710 
  3 C       -0.9140     3.8080     2.1330 C.ar  1 <1>  -0.1570 
  4 C        0.6310     2.1460     1.3390 C.ar  1 <1>  -0.1570 
  5 C       -0.9350     4.3990     0.8780 C.ar  1 <1>   0.3050 
  6 C        0.6190     2.7370     0.0870 C.ar  1 <1>  -0.1570 
  7 N       -1.7610     5.5090     0.6710 N.pl3 1 <1>  -0.5790 
  8 C       -0.1570     3.8620    -0.1520 C.ar  1 <1>  -0.1500 
  9 C       -2.9890     5.4130     0.1280 C.cat 1 <1>   1.0690 
 10 C       -1.2290     6.8480     1.0520 C.3   1 <1>   0.1610 
 11 C       -0.1260     4.4860    -1.5450 C.3   1 <1>  -0.1030 
 12 N       -3.5890     4.3030    -0.2980 N.pl3 1 <1>  -0.7030 
 13 N       -3.7890     6.4550    -0.0470 N.pl3 1 <1>  -0.7670 
 14 C       -2.3680     7.8170     1.4270 C.3   1 <1>  -0.0870 
 15 C       -4.8250     4.6490    -0.7590 C.2   1 <1>   0.4210 
 16 C       -4.9810     5.9830    -0.6160 C.2   1 <1>   0.2710 
 17 C       -3.4680     7.8430     0.3500 C.3   1 <1>   0.3490 
 18 C       -1.8140     9.2280     1.6770 C.3   1 <1>  -0.2460 
 19 N       -5.7970     3.8230    -1.2910 N.am  1 <1>  -0.4410 
 20 C       -6.2120     6.5860    -1.0240 C.2   1 <1>   0.7000 
 21 C       -7.0180     4.3900    -1.6330 C.2   1 <1>   0.6870 
 22 C       -5.5790     2.3510    -1.4130 C.3   1 <1>   0.0530 
 23 O       -6.3810     7.7920    -0.9610 O.2   1 <1>  -0.5740 
 24 N       -7.2140     5.7580    -1.5020 N.am  1 <1>  -0.4250 
 25 O       -7.9200     3.6890    -2.0430 O.2   1 <1>  -0.5740 
 26 C       -8.6240     6.2760    -1.4790 C.3   1 <1>   0.1950 
 27 C       -9.2210     6.2030    -0.0770 C.2   1 <1>   0.6550 
 28 O       -8.5560     5.8880     0.8820 O.2   1 <1>  -0.5740 
 29 O      -10.5070     6.5090     0.0180 O.3   1 <1>  -0.4350 
 30 C      -11.1870     6.4770     1.2510 C.3   1 <1>   0.1130 
 31 C      -12.6350     6.8850     1.0040 C.3   1 <1>  -0.2460 
 32 H       -1.4960     4.2090     2.9420 H     1 <1>   0.1430 
 33 H        1.2310     1.2730     1.5330 H     1 <1>   0.1430 
 34 H        1.2280     2.3110    -0.6950 H     1 <1>   0.1430 
 35 H       -0.6670     7.2460     0.2230 H     1 <1>   0.0730 
 36 H       -0.5570     6.7460     1.8890 H     1 <1>   0.0730 
 37 H       -1.0700     4.3530    -2.0410 H     1 <1>   0.0730 
 38 H        0.6360     4.0300    -2.1530 H     1 <1>   0.0730 
 39 H        0.0930     5.5360    -1.4810 H     1 <1>   0.0730 
 40 H       -3.1760     3.3750    -0.2520 H     1 <1>   0.4450 
 41 H       -2.8100     7.4770     2.3490 H     1 <1>   0.0730 
 42 H       -4.3480     8.3300     0.7360 H     1 <1>   0.0730 
 43 H       -3.1300     8.3870    -0.5170 H     1 <1>   0.0730 
 44 H       -1.3500     9.6260     0.7910 H     1 <1>   0.0730 
 45 H       -1.0800     9.2080     2.4650 H     1 <1>   0.0730 
 46 H       -2.6040     9.8950     1.9770 H     1 <1>   0.0730 
 47 H       -5.7940     1.8740    -0.4730 H     1 <1>   0.0730 
 48 H       -4.5640     2.1430    -1.6990 H     1 <1>   0.0730 
 49 H       -6.2300     1.9350    -2.1650 H     1 <1>   0.0730 
 50 H       -9.2420     5.7060    -2.1490 H     1 <1>   0.0730 
 51 H       -8.6460     7.2980    -1.8110 H     1 <1>   0.0730 
 52 H      -10.7030     7.1620     1.9270 H     1 <1>   0.0730 
 53 H      -11.1310     5.4770     1.6470 H     1 <1>   0.0730 
 54 H      -12.6770     7.8810     0.6010 H     1 <1>   0.0730 
 55 H      -13.1790     6.8690     1.9320 H     1 <1>   0.0730 
 56 H      -13.1040     6.1990     0.3210 H     1 <1>   0.0730 
@<TRIPOS>BOND
  1   1   2  1   
  2   2   3  ar  
  3   2   4  ar  
  4   3   5  ar  
  5   3  32  1   
  6   4   6  ar  
  7   4  33  1   
  8   5   7  1   
  9   5   8  ar  
 10   6   8  ar  
 11   6  34  1   
 12   7   9  ar  
 13   7  10  1   
 14   8  11  1   
 15   9  12  ar  
 16   9  13  ar  
 17  10  14  1   
 18  10  35  1   
 19  10  36  1   
 20  11  37  1   
 21  11  38  1   
 22  11  39  1   
 23  12  15  1   
 24  12  40  1   
 25  13  16  1   
 26  13  17  1   
 27  14  17  1   
 28  14  18  1   
 29  14  41  1   
 30  15  16  2   
 31  15  19  1   
 32  16  20  1   
 33  17  42  1   
 34  17  43  1   
 35  18  44  1   
 36  18  45  1   
 37  18  46  1   
 38  19  21  am  
 39  19  22  1   
 40  20  23  2   
 41  20  24  am  
 42  21  24  am  
 43  21  25  2   
 44  22  47  1   
 45  22  48  1   
 46  22  49  1   
 47  24  26  1   
 48  26  27  1   
 49  26  50  1   
 50  26  51  1   
 51  27  28  2   
 52  27  29  1   
 53  29  30  1   
 54  30  31  1   
 55  30  52  1   
 56  30  53  1   
 57  31  54  1   
 58  31  55  1   
 59  31  56  1   
@<TRIPOS>SUBSTRUCTURE
  1 ****  15 GROUP 4 **** **** 0

# MOE 2024.06 (io_trps.svl 2023.06)
