@<TRIPOS>MOLECULE
N-(5-Methoxymethyl-[1,3,4]thiadiazol-2-yl)-isobutyramide
27 27 1 0 0 
SMALL
USER_CHARGES


@<TRIPOS>ATOM
  1 S        0.7270    -1.3380    -1.1140 S.3   1 <1>  -0.0800 
  2 C        0.0270     0.1670    -0.6190 C.2   1 <1>   0.4420 
  3 C       -0.7260    -2.1100    -0.5770 C.2   1 <1>   0.1980 
  4 N       -1.1500     0.0140    -0.1350 N.2   1 <1>  -0.3380 
  5 N        0.8020     1.2910    -0.8080 N.am  1 <1>  -0.4940 
  6 N       -1.5750    -1.2840    -0.1130 N.2   1 <1>  -0.3380 
  7 C       -0.8460    -3.6180    -0.7200 C.3   1 <1>   0.3000 
  8 C        0.6670     2.6260    -0.5770 C.2   1 <1>   0.5690 
  9 O        0.2740    -4.2500    -0.1680 O.3   1 <1>  -0.5600 
 10 O        1.5930     3.3290    -0.8930 O.2   1 <1>  -0.5700 
 11 C       -0.5580     3.3140     0.0500 C.3   1 <1>  -0.0190 
 12 C        0.2210    -5.6400    -0.2040 C.3   1 <1>   0.0400 
 13 C       -0.8200     2.9100     1.5120 C.3   1 <1>  -0.2400 
 14 C       -1.8320     3.2220    -0.8080 C.3   1 <1>  -0.2400 
 15 H        1.7120     1.0980    -1.2190 H     1 <1>   0.3700 
 16 H       -0.9090    -3.8810    -1.7610 H     1 <1>   0.0800 
 17 H       -1.7250    -3.9600    -0.2030 H     1 <1>   0.0800 
 18 H       -0.3070     4.3600     0.0810 H     1 <1>   0.0800 
 19 H        1.1260    -6.0200     0.2380 H     1 <1>   0.0800 
 20 H        0.1530    -5.9700    -1.2260 H     1 <1>   0.0800 
 21 H       -0.6280    -5.9800     0.3640 H     1 <1>   0.0800 
 22 H       -1.1550     1.8940     1.5920 H     1 <1>   0.0800 
 23 H       -1.5750     3.5450     1.9390 H     1 <1>   0.0800 
 24 H        0.0810     3.0190     2.0900 H     1 <1>   0.0800 
 25 H       -2.2180     2.2220    -0.8440 H     1 <1>   0.0800 
 26 H       -1.6220     3.5430    -1.8130 H     1 <1>   0.0800 
 27 H       -2.5970     3.8600    -0.4010 H     1 <1>   0.0800 
@<TRIPOS>BOND
  1   1   2  1   
  2   1   3  1   
  3   2   4  2   
  4   2   5  1   
  5   3   6  2   
  6   3   7  1   
  7   4   6  1   
  8   5   8  am  
  9   5  15  1   
 10   7   9  1   
 11   7  16  1   
 12   7  17  1   
 13   8  10  2   
 14   8  11  1   
 15   9  12  1   
 16  11  13  1   
 17  11  14  1   
 18  11  18  1   
 19  12  19  1   
 20  12  20  1   
 21  12  21  1   
 22  13  22  1   
 23  13  23  1   
 24  13  24  1   
 25  14  25  1   
 26  14  26  1   
 27  14  27  1   
@<TRIPOS>SUBSTRUCTURE
  1 ****   2 GROUP 4 **** **** 0

# MOE 2024.06 (io_trps.svl 2023.06)
