@<TRIPOS>MOLECULE
2-[5,6-Dimethyl-1-(2-phenoxy-ethyl)-1H-benzoimidazol-2-ylamino]-ethanol
48 50 1 0 0 
SMALL
USER_CHARGES


@<TRIPOS>ATOM
  1 O        0.0770     0.9480     0.7150 O.3   1 <1>  -0.3680 
  2 C        1.2010     0.8190    -0.0320 C.ar  1 <1>   0.0750 
  3 C       -1.2190     0.7050     0.2020 C.3   1 <1>   0.1120 
  4 C        1.2150     0.3670    -1.3490 C.ar  1 <1>  -0.1570 
  5 C        2.3910     1.1860     0.5780 C.ar  1 <1>  -0.1570 
  6 C       -2.2310     1.5300     1.0090 C.3   1 <1>   0.3480 
  7 C        2.4090     0.3130    -2.0460 C.ar  1 <1>  -0.1570 
  8 C        3.5830     1.1290    -0.1220 C.ar  1 <1>  -0.1570 
  9 N       -2.2480     2.9700     0.6050 N.pl3 1 <1>  -0.7670 
 10 C        3.5910     0.6970    -1.4360 C.ar  1 <1>  -0.1570 
 11 C       -1.2710     3.8860     0.6720 C.cat 1 <1>   1.0690 
 12 C       -3.3730     3.6190     0.0910 C.ar  1 <1>   0.3030 
 13 N       -1.7050     5.0550     0.2500 N.pl3 1 <1>  -0.7040 
 14 N       -0.0280     3.6700     1.0740 N.pl3 1 <1>  -0.7180 
 15 C       -3.0180     4.9340    -0.1360 C.ar  1 <1>   0.3030 
 16 C       -4.6620     3.1900    -0.2070 C.ar  1 <1>  -0.1170 
 17 C        1.0730     4.6520     1.2770 C.3   1 <1>   0.1600 
 18 C       -3.9170     5.8450    -0.6680 C.ar  1 <1>  -0.1170 
 19 C       -5.5720     4.0890    -0.7360 C.ar  1 <1>  -0.1510 
 20 C        1.6850     5.1380    -0.0460 C.3   1 <1>   0.1120 
 21 C       -5.1990     5.4210    -0.9680 C.ar  1 <1>  -0.1510 
 22 C       -6.9810     3.6060    -1.0590 C.3   1 <1>  -0.1040 
 23 O        0.7480     5.8720    -0.7680 O.3   1 <1>  -0.6840 
 24 C       -6.1880     6.4230    -1.5510 C.3   1 <1>  -0.1040 
 25 H       -1.4150    -0.3480     0.3030 H     1 <1>   0.0720 
 26 H       -1.2730     0.9910    -0.8320 H     1 <1>   0.0720 
 27 H        0.3230     0.0480    -1.8520 H     1 <1>   0.1430 
 28 H        2.3920     1.5070     1.6040 H     1 <1>   0.1430 
 29 H       -2.0150     1.4450     2.0600 H     1 <1>   0.0720 
 30 H       -3.2070     1.1090     0.8480 H     1 <1>   0.0720 
 31 H        2.4240    -0.0330    -3.0650 H     1 <1>   0.1430 
 32 H        4.5060     1.4130     0.3540 H     1 <1>   0.1430 
 33 H        4.5180     0.6510    -1.9820 H     1 <1>   0.1430 
 34 H       -1.0280     5.7860    -0.0020 H     1 <1>   0.4450 
 35 H        0.2500     2.6850     1.1520 H     1 <1>   0.4450 
 36 H       -4.9450     2.1700    -0.0310 H     1 <1>   0.1430 
 37 H        1.8450     4.1840     1.8640 H     1 <1>   0.0720 
 38 H        0.7100     5.4990     1.8350 H     1 <1>   0.0720 
 39 H       -3.6070     6.8600    -0.8370 H     1 <1>   0.1430 
 40 H        2.0130     4.3040    -0.6460 H     1 <1>   0.0720 
 41 H        2.5270     5.7800     0.1520 H     1 <1>   0.0720 
 42 H       -7.1020     2.5640    -0.8230 H     1 <1>   0.0720 
 43 H       -7.1870     3.7380    -2.1060 H     1 <1>   0.0720 
 44 H       -7.7030     4.1640    -0.4900 H     1 <1>   0.0720 
 45 H        1.1580     6.2110    -1.5950 H     1 <1>   0.3940 
 46 H       -5.7390     7.3940    -1.6630 H     1 <1>   0.0720 
 47 H       -7.0410     6.5230    -0.9030 H     1 <1>   0.0720 
 48 H       -6.5220     6.0960    -2.5190 H     1 <1>   0.0720 
@<TRIPOS>BOND
  1   1   2  1   
  2   1   3  1   
  3   2   4  ar  
  4   2   5  ar  
  5   3   6  1   
  6   3  25  1   
  7   3  26  1   
  8   4   7  ar  
  9   4  27  1   
 10   5   8  ar  
 11   5  28  1   
 12   6   9  1   
 13   6  29  1   
 14   6  30  1   
 15   7  10  ar  
 16   7  31  1   
 17   8  10  ar  
 18   8  32  1   
 19   9  11  ar  
 20   9  12  1   
 21  10  33  1   
 22  11  13  ar  
 23  11  14  ar  
 24  12  15  ar  
 25  12  16  ar  
 26  13  15  1   
 27  13  34  1   
 28  14  17  1   
 29  14  35  1   
 30  15  18  ar  
 31  16  19  ar  
 32  16  36  1   
 33  17  20  1   
 34  17  37  1   
 35  17  38  1   
 36  18  21  ar  
 37  18  39  1   
 38  19  21  ar  
 39  19  22  1   
 40  20  23  1   
 41  20  40  1   
 42  20  41  1   
 43  21  24  1   
 44  22  42  1   
 45  22  43  1   
 46  22  44  1   
 47  23  45  1   
 48  24  46  1   
 49  24  47  1   
 50  24  48  1   
@<TRIPOS>SUBSTRUCTURE
  1 ****  11 GROUP 4 **** **** 0

# MOE 2024.06 (io_trps.svl 2023.06)
