@<TRIPOS>MOLECULE
2-Benzenesulfonyl-1-(4-benzo[1,3]dioxol-5-ylmethyl-piperazin-1-yl)-ethanone
51 54 1 0 0 
SMALL
USER_CHARGES


@<TRIPOS>ATOM
  1 S        0.7760    -1.3090     0.0870 S.o2  1 <1>   1.2040 
  2 O        1.8940    -1.2890    -0.8340 O.2   1 <1>  -0.6500 
  3 O        0.0850    -2.5600     0.2960 O.2   1 <1>  -0.6500 
  4 C       -0.4180    -0.0200    -0.3450 C.ar  1 <1>  -0.0090 
  5 C        1.3940    -0.8250     1.6780 C.3   1 <1>   0.0060 
  6 C       -1.7030    -0.0320     0.1840 C.ar  1 <1>  -0.1500 
  7 C       -0.0740     1.0250    -1.1960 C.ar  1 <1>  -0.1500 
  8 C        2.0170     0.5360     1.5780 C.2   1 <1>   0.5690 
  9 C       -2.6140     0.9650    -0.1200 C.ar  1 <1>  -0.1500 
 10 C       -0.9790     2.0250    -1.5060 C.ar  1 <1>  -0.1500 
 11 O        1.3240     1.4590     1.9180 O.2   1 <1>  -0.5700 
 12 N        3.3070     0.7470     1.1430 N.am  1 <1>  -0.6600 
 13 C       -2.2510     1.9960    -0.9660 C.ar  1 <1>  -0.1500 
 14 C        3.8060     2.1500     0.9450 C.3   1 <1>   0.1400 
 15 C        4.2480    -0.3140     0.6520 C.3   1 <1>   0.1400 
 16 C        5.2350     2.3260     1.4860 C.3   1 <1>   0.3430 
 17 C        5.6800    -0.1020     1.1830 C.3   1 <1>   0.3430 
 18 N        6.1780     1.2920     0.9270 N.4   1 <1>  -0.9590 
 19 C        7.5670     1.4900     1.4230 C.3   1 <1>   0.4860 
 20 C        8.0550     2.8400     0.9360 C.ar  1 <1>  -0.1430 
 21 C        8.3540     3.0240    -0.4120 C.ar  1 <1>  -0.1500 
 22 C        8.1940     3.9010     1.8340 C.ar  1 <1>  -0.1500 
 23 C        8.7660     4.2750    -0.8210 C.ar  1 <1>   0.0830 
 24 C        8.6160     5.1510     1.4000 C.ar  1 <1>  -0.1500 
 25 O        9.0890     4.6730    -2.0540 O.3   1 <1>  -0.3620 
 26 C        8.8930     5.3100     0.0570 C.ar  1 <1>   0.0830 
 27 C        9.4650     6.0470    -1.9540 C.3   1 <1>   0.4000 
 28 O        9.3040     6.4080    -0.5830 O.3   1 <1>  -0.3620 
 29 H        2.1030    -1.5380     2.0430 H     1 <1>   0.0800 
 30 H        0.5840    -0.7790     2.3790 H     1 <1>   0.0800 
 31 H       -2.0020    -0.8330     0.8400 H     1 <1>   0.1500 
 32 H        0.9120     1.0580    -1.6260 H     1 <1>   0.1500 
 33 H       -3.6040     0.9380     0.3000 H     1 <1>   0.1500 
 34 H       -0.6950     2.8260    -2.1670 H     1 <1>   0.1500 
 35 H       -2.9570     2.7740    -1.2040 H     1 <1>   0.1500 
 36 H        3.1660     2.8570     1.4450 H     1 <1>   0.0800 
 37 H        3.7850     2.3860    -0.1050 H     1 <1>   0.0800 
 38 H        4.2640    -0.2950    -0.4250 H     1 <1>   0.0800 
 39 H        3.9150    -1.2920     0.9470 H     1 <1>   0.0800 
 40 H        5.2050     2.2510     2.5610 H     1 <1>   0.0800 
 41 H        5.5810     3.3160     1.2340 H     1 <1>   0.0800 
 42 H        6.3360    -0.8180     0.7140 H     1 <1>   0.0800 
 43 H        5.6820    -0.2970     2.2430 H     1 <1>   0.0800 
 44 H        6.2090     1.4450    -0.0900 H     1 <1>   0.4500 
 45 H        8.2150     0.7190     1.0380 H     1 <1>   0.0800 
 46 H        7.5910     1.4530     2.5000 H     1 <1>   0.0800 
 47 H        8.2820     2.2380    -1.1420 H     1 <1>   0.1500 
 48 H        7.9800     3.7700     2.8820 H     1 <1>   0.1500 
 49 H        8.7310     5.9820     2.0750 H     1 <1>   0.1500 
 50 H        8.8150     6.6480    -2.5660 H     1 <1>   0.0800 
 51 H       10.4970     6.1610    -2.2380 H     1 <1>   0.0800 
@<TRIPOS>BOND
  1   1   2  2   
  2   1   3  2   
  3   1   4  1   
  4   1   5  1   
  5   4   6  ar  
  6   4   7  ar  
  7   5   8  1   
  8   5  29  1   
  9   5  30  1   
 10   6   9  ar  
 11   6  31  1   
 12   7  10  ar  
 13   7  32  1   
 14   8  11  2   
 15   8  12  am  
 16   9  13  ar  
 17   9  33  1   
 18  10  13  ar  
 19  10  34  1   
 20  12  14  1   
 21  12  15  1   
 22  13  35  1   
 23  14  16  1   
 24  14  36  1   
 25  14  37  1   
 26  15  17  1   
 27  15  38  1   
 28  15  39  1   
 29  16  18  1   
 30  16  40  1   
 31  16  41  1   
 32  17  18  1   
 33  17  42  1   
 34  17  43  1   
 35  18  19  1   
 36  18  44  1   
 37  19  20  1   
 38  19  45  1   
 39  19  46  1   
 40  20  21  ar  
 41  20  22  ar  
 42  21  23  ar  
 43  21  47  1   
 44  22  24  ar  
 45  22  48  1   
 46  23  25  1   
 47  23  26  ar  
 48  24  26  ar  
 49  24  49  1   
 50  25  27  1   
 51  26  28  1   
 52  27  28  1   
 53  27  50  1   
 54  27  51  1   
@<TRIPOS>SUBSTRUCTURE
  1 ****  14 GROUP 4 **** **** 0

# MOE 2024.06 (io_trps.svl 2023.06)
