@<TRIPOS>MOLECULE
3-(2-Fluoro-phenyl)-4-oxo-10-oxa-3-aza-tricyclo[5.2.1.0*1,5*]dec-8-ene-6-carboxy
32 35 1 0 0 
SMALL
USER_CHARGES


@<TRIPOS>ATOM
  1 F        0.0790     0.1410    -0.4150 F     1 <1>  -0.1900 
  2 C        1.3480    -0.1700    -0.3130 C.ar  1 <1>   0.1900 
  3 C        2.2980     0.8290    -0.0780 C.ar  1 <1>   0.1170 
  4 C        1.6820    -1.5030    -0.4600 C.ar  1 <1>  -0.1500 
  5 N        1.9850     2.1950     0.0940 N.am  1 <1>  -0.4770 
  6 C        3.6280     0.4230    -0.0180 C.ar  1 <1>  -0.1500 
  7 C        3.0130    -1.8740    -0.3820 C.ar  1 <1>  -0.1500 
  8 C        2.5830     3.2720    -0.5290 C.2   1 <1>   0.5690 
  9 C        0.9060     2.6890     1.0100 C.3   1 <1>   0.1400 
 10 C        3.9820    -0.9080    -0.1640 C.ar  1 <1>  -0.1500 
 11 O        3.3900     3.2150    -1.4260 O.2   1 <1>  -0.5700 
 12 C        2.0880     4.5470     0.0990 C.3   1 <1>  -0.0190 
 13 C        0.6910     4.0770     0.4260 C.3   1 <1>   0.4180 
 14 C        1.7900     5.9720    -0.4300 C.3   1 <1>  -0.1860 
 15 O        0.2330     5.1900     1.0930 O.3   1 <1>  -0.5600 
 16 C       -0.2410     4.1100    -0.7800 C.2   1 <1>  -0.2880 
 17 C        2.6030     7.0830     0.1820 C.2   1 <1>   0.9060 
 18 C        0.3280     6.1260     0.0380 C.3   1 <1>   0.3380 
 19 C       -0.4920     5.3920    -0.9960 C.2   1 <1>  -0.2880 
 20 O        2.2200     8.2410    -0.0110 O.co2 1 <1>  -0.9000 
 21 O        3.6170     6.8260     0.8370 O.co2 1 <1>  -0.9000 
 22 H        0.9140    -2.2340    -0.6360 H     1 <1>   0.1500 
 23 H        4.3920     1.1640     0.1420 H     1 <1>   0.1500 
 24 H        3.2950    -2.9070    -0.4950 H     1 <1>   0.1500 
 25 H        1.2770     2.7470     2.0180 H     1 <1>   0.0800 
 26 H        0.0110     2.1000     0.9520 H     1 <1>   0.0800 
 27 H        5.0200    -1.1920    -0.1120 H     1 <1>   0.1500 
 28 H        2.6270     4.6330     1.0260 H     1 <1>   0.0800 
 29 H        1.8760     6.0390    -1.4970 H     1 <1>   0.0800 
 30 H       -0.5560     3.2100    -1.2770 H     1 <1>   0.1500 
 31 H       -0.0180     7.1030     0.3320 H     1 <1>   0.0800 
 32 H       -1.0810     5.9230    -1.7220 H     1 <1>   0.1500 
@<TRIPOS>BOND
  1   1   2  1   
  2   2   3  ar  
  3   2   4  ar  
  4   3   5  1   
  5   3   6  ar  
  6   4   7  ar  
  7   4  22  1   
  8   5   8  am  
  9   5   9  1   
 10   6  10  ar  
 11   6  23  1   
 12   7  10  ar  
 13   7  24  1   
 14   8  11  2   
 15   8  12  1   
 16   9  13  1   
 17   9  25  1   
 18   9  26  1   
 19  10  27  1   
 20  12  13  1   
 21  12  14  1   
 22  12  28  1   
 23  13  15  1   
 24  13  16  1   
 25  14  17  1   
 26  14  18  1   
 27  14  29  1   
 28  15  18  1   
 29  16  19  2   
 30  16  30  1   
 31  17  20  ar  
 32  17  21  ar  
 33  18  19  1   
 34  18  31  1   
 35  19  32  1   
@<TRIPOS>SUBSTRUCTURE
  1 ****   8 GROUP 4 **** **** 0

# MOE 2024.06 (io_trps.svl 2023.06)
