@<TRIPOS>MOLECULE
2-Ethylamino-6-methyl-10-oxo-10H-1,9,10a-triaza-anthracene-3-carboxylic acid eth
44 46 1 0 0 
SMALL
USER_CHARGES


@<TRIPOS>ATOM
  1 O       -0.0400    -0.3500    -0.3890 O.2   1 <1>  -0.5700 
  2 C        0.0640    -1.5530    -0.3210 C.2   1 <1>   0.8650 
  3 N       -1.1040    -2.3240    -0.1790 N.pl3 1 <1>  -0.5760 
  4 C        1.3490    -2.1750    -0.3760 C.ar  1 <1>   0.0860 
  5 C       -1.0150    -3.6710    -0.0730 C.cat 1 <1>   0.7390 
  6 C       -2.3470    -1.7290    -0.1440 C.2   1 <1>   0.1910 
  7 C        1.3660    -3.5590    -0.2600 C.ar  1 <1>   0.6590 
  8 C        2.5670    -1.5270    -0.5350 C.ar  1 <1>  -0.1500 
  9 N        0.1990    -4.2360    -0.1110 N.pl3 1 <1>  -0.6530 
 10 C       -2.1760    -4.4420     0.0710 C.2   1 <1>  -0.1800 
 11 C       -3.4940    -2.4630    -0.0030 C.2   1 <1>  -0.1380 
 12 N        2.4360    -4.3130    -0.2810 N.ar  1 <1>  -0.6200 
 13 C        3.7290    -2.2820    -0.5680 C.ar  1 <1>   0.0860 
 14 C       -3.4110    -3.8550     0.1080 C.2   1 <1>  -0.1500 
 15 C       -4.8670    -1.8090     0.0360 C.3   1 <1>  -0.1020 
 16 C        3.5970    -3.6860    -0.4380 C.ar  1 <1>   0.4100 
 17 C        5.0190    -1.6520    -0.7330 C.2   1 <1>   0.5440 
 18 N        4.6980    -4.4890    -0.4660 N.pl3 1 <1>  -0.8690 
 19 O        5.8710    -2.1500    -1.4450 O.2   1 <1>  -0.5700 
 20 N        5.3030    -0.4690    -0.1040 N.am  1 <1>  -0.7300 
 21 C        4.7580    -5.9600    -0.3700 C.3   1 <1>   0.2090 
 22 C        6.5820     0.2640    -0.2090 C.3   1 <1>   0.1400 
 23 C        6.1410    -6.3430     0.1360 C.3   1 <1>  -0.2400 
 24 C        7.0200     0.6780     1.1910 C.3   1 <1>  -0.2400 
 25 H       -2.4080    -0.6520    -0.2300 H     1 <1>   0.1500 
 26 H        2.6060    -0.4540    -0.6420 H     1 <1>   0.1500 
 27 H        0.3190    -5.2480    -0.0370 H     1 <1>   0.4500 
 28 H       -2.0870    -5.5100     0.1550 H     1 <1>   0.1500 
 29 H       -4.3120    -4.4400     0.2190 H     1 <1>   0.1500 
 30 H       -5.4770    -2.1800    -0.7700 H     1 <1>   0.0800 
 31 H       -4.7940    -0.7400    -0.0590 H     1 <1>   0.0800 
 32 H       -5.3570    -2.0340     0.9680 H     1 <1>   0.0800 
 33 H        5.5730    -4.0510    -0.8060 H     1 <1>   0.4000 
 34 H        4.6500    -0.0740     0.5720 H     1 <1>   0.3700 
 35 H        4.5850    -6.3910    -1.3420 H     1 <1>   0.0800 
 36 H        4.0040    -6.3190     0.3110 H     1 <1>   0.0800 
 37 H        6.4460     1.1350    -0.8290 H     1 <1>   0.0800 
 38 H        7.3370    -0.3590    -0.6600 H     1 <1>   0.0800 
 39 H        6.8970    -6.0070    -0.5500 H     1 <1>   0.0800 
 40 H        6.2110    -7.4120     0.2240 H     1 <1>   0.0800 
 41 H        6.3140    -5.9080     1.1040 H     1 <1>   0.0800 
 42 H        6.2930     1.3290     1.6400 H     1 <1>   0.0800 
 43 H        7.9570     1.2040     1.1330 H     1 <1>   0.0800 
 44 H        7.1600    -0.1920     1.8080 H     1 <1>   0.0800 
@<TRIPOS>BOND
  1   1   2  2   
  2   2   3  1   
  3   2   4  1   
  4   3   5  ar  
  5   3   6  1   
  6   4   7  ar  
  7   4   8  ar  
  8   5   9  ar  
  9   5  10  1   
 10   6  11  2   
 11   6  25  1   
 12   7   9  1   
 13   7  12  ar  
 14   8  13  ar  
 15   8  26  1   
 16   9  27  1   
 17  10  14  2   
 18  10  28  1   
 19  11  14  1   
 20  11  15  1   
 21  12  16  ar  
 22  13  16  ar  
 23  13  17  1   
 24  14  29  1   
 25  15  30  1   
 26  15  31  1   
 27  15  32  1   
 28  16  18  1   
 29  17  19  2   
 30  17  20  am  
 31  18  21  1   
 32  18  33  1   
 33  20  22  1   
 34  20  34  1   
 35  21  23  1   
 36  21  35  1   
 37  21  36  1   
 38  22  24  1   
 39  22  37  1   
 40  22  38  1   
 41  23  39  1   
 42  23  40  1   
 43  23  41  1   
 44  24  42  1   
 45  24  43  1   
 46  24  44  1   
@<TRIPOS>SUBSTRUCTURE
  1 ****   4 GROUP 4 **** **** 0

# MOE 2024.06 (io_trps.svl 2023.06)
