@<TRIPOS>MOLECULE
4-(2-Chloro-phenyl)-2-oxo-6-piperidin-1-ylmethyl-1,2,3,4-tetrahydro-pyrimidine-5
48 50 1 0 0 
SMALL
USER_CHARGES


@<TRIPOS>ATOM
  1 CL      -1.8570    -1.0630    -1.5300 Cl    1 <1>  -0.1770 
  2 C       -2.5140     0.2480    -0.5780 C.ar  1 <1>   0.1770 
  3 C       -3.2630     0.0210     0.5740 C.ar  1 <1>  -0.1440 
  4 C       -2.2510     1.5290    -1.0290 C.ar  1 <1>  -0.1500 
  5 C       -3.7420     1.1300     1.2640 C.ar  1 <1>  -0.1500 
  6 C       -3.5870    -1.3680     1.1260 C.3   1 <1>   0.5020 
  7 C       -2.7370     2.6180    -0.3300 C.ar  1 <1>  -0.1500 
  8 C       -3.4830     2.4150     0.8170 C.ar  1 <1>  -0.1500 
  9 N       -2.3760    -1.8850     1.7850 N.am  1 <1>  -0.7300 
 10 C       -4.1610    -2.3560     0.0990 C.2   1 <1>  -0.1240 
 11 C       -1.7130    -2.9800     1.3900 C.2   1 <1>   0.6900 
 12 C       -3.4480    -3.4750    -0.2270 C.2   1 <1>  -0.0290 
 13 C       -5.4480    -1.9890    -0.4130 C.2   1 <1>   0.7060 
 14 O       -0.6550    -3.2850     1.8820 O.2   1 <1>  -0.5700 
 15 N       -2.2500    -3.7550     0.4170 N.am  1 <1>  -0.5390 
 16 C       -3.8580    -4.4950    -1.2920 C.3   1 <1>   0.4810 
 17 O       -6.0720    -2.7050    -1.1720 O.2   1 <1>  -0.5700 
 18 O       -6.0140    -0.8510    -0.0050 O.3   1 <1>  -0.4300 
 19 N       -4.3470    -5.7320    -0.6240 N.4   1 <1>  -0.9590 
 20 C       -7.2690    -0.4130    -0.4930 C.3   1 <1>   0.0400 
 21 C       -4.3110    -6.8960    -1.5520 C.3   1 <1>   0.3430 
 22 C       -5.7140    -5.5180    -0.0630 C.3   1 <1>   0.3430 
 23 C       -4.7130    -8.1660    -0.8000 C.3   1 <1>  -0.1600 
 24 C       -6.1510    -6.7580     0.7190 C.3   1 <1>  -0.1600 
 25 C       -6.0930    -8.0240    -0.1450 C.3   1 <1>  -0.1600 
 26 H       -1.6680     1.6710    -1.9220 H     1 <1>   0.1500 
 27 H       -4.3260     1.0090     2.1620 H     1 <1>   0.1500 
 28 H       -4.3280    -1.2550     1.9010 H     1 <1>   0.0800 
 29 H       -2.5360     3.6180    -0.6760 H     1 <1>   0.1500 
 30 H       -3.8620     3.2620     1.3640 H     1 <1>   0.1500 
 31 H       -1.8700    -1.2380     2.3890 H     1 <1>   0.3700 
 32 H       -1.6000    -4.4920     0.1340 H     1 <1>   0.3700 
 33 H       -2.9940    -4.7190    -1.8960 H     1 <1>   0.0800 
 34 H       -4.6150    -4.1010    -1.9470 H     1 <1>   0.0800 
 35 H       -3.7200    -5.9210     0.1680 H     1 <1>   0.4500 
 36 H       -7.5000     0.5340    -0.0370 H     1 <1>   0.0800 
 37 H       -8.0210    -1.1400    -0.2360 H     1 <1>   0.0800 
 38 H       -7.2100    -0.3000    -1.5620 H     1 <1>   0.0800 
 39 H       -3.3200    -7.0190    -1.9590 H     1 <1>   0.0800 
 40 H       -4.9960    -6.7330    -2.3690 H     1 <1>   0.0800 
 41 H       -6.4120    -5.3270    -0.8630 H     1 <1>   0.0800 
 42 H       -5.7160    -4.6630     0.5940 H     1 <1>   0.0800 
 43 H       -3.9720    -8.3890    -0.0510 H     1 <1>   0.0800 
 44 H       -4.7300    -8.9930    -1.4890 H     1 <1>   0.0800 
 45 H       -7.1580    -6.6130     1.0710 H     1 <1>   0.0800 
 46 H       -5.5220    -6.8740     1.5850 H     1 <1>   0.0800 
 47 H       -6.3030    -8.8910     0.4600 H     1 <1>   0.0800 
 48 H       -6.8490    -7.9700    -0.9110 H     1 <1>   0.0800 
@<TRIPOS>BOND
  1   1   2  1   
  2   2   3  ar  
  3   2   4  ar  
  4   3   5  ar  
  5   3   6  1   
  6   4   7  ar  
  7   4  26  1   
  8   5   8  ar  
  9   5  27  1   
 10   6   9  1   
 11   6  10  1   
 12   6  28  1   
 13   7   8  ar  
 14   7  29  1   
 15   8  30  1   
 16   9  11  am  
 17   9  31  1   
 18  10  12  2   
 19  10  13  1   
 20  11  14  2   
 21  11  15  am  
 22  12  15  1   
 23  12  16  1   
 24  13  17  2   
 25  13  18  1   
 26  15  32  1   
 27  16  19  1   
 28  16  33  1   
 29  16  34  1   
 30  18  20  1   
 31  19  21  1   
 32  19  22  1   
 33  19  35  1   
 34  20  36  1   
 35  20  37  1   
 36  20  38  1   
 37  21  23  1   
 38  21  39  1   
 39  21  40  1   
 40  22  24  1   
 41  22  41  1   
 42  22  42  1   
 43  23  25  1   
 44  23  43  1   
 45  23  44  1   
 46  24  25  1   
 47  24  45  1   
 48  24  46  1   
 49  25  47  1   
 50  25  48  1   
@<TRIPOS>SUBSTRUCTURE
  1 ****  10 GROUP 4 **** **** 0

# MOE 2024.06 (io_trps.svl 2023.06)
