@<TRIPOS>MOLECULE
1-(2,5-Dimethoxy-benzenesulfonyl)-piperidine-4-carboxylic acid (2-ethyl-phenyl)-
58 60 1 0 0 
SMALL
USER_CHARGES


@<TRIPOS>ATOM
  1 S        0.0720    -0.9530     1.2640 S.o2  1 <1>   1.4470 
  2 O        0.2550    -2.3680     1.5140 O.2   1 <1>  -0.6500 
  3 O       -0.0560    -0.0860     2.4170 O.2   1 <1>  -0.6500 
  4 N        1.4550    -0.4390     0.4240 N.am  1 <1>  -0.8490 
  5 C       -1.2890    -0.7720     0.0770 C.ar  1 <1>  -0.0090 
  6 C        2.6690    -0.8500     1.1350 C.3   1 <1>   0.1960 
  7 C        1.4370     1.0060     0.1680 C.3   1 <1>   0.1960 
  8 C       -2.0190     0.4080    -0.0550 C.ar  1 <1>   0.0820 
  9 C       -1.6240    -1.8350    -0.7560 C.ar  1 <1>  -0.1500 
 10 C        3.9210    -0.4840     0.3330 C.3   1 <1>  -0.1600 
 11 C        2.6520     1.4250    -0.6630 C.3   1 <1>  -0.1600 
 12 O       -1.7210     1.4900     0.6950 O.3   1 <1>  -0.3620 
 13 C       -3.0470     0.5190    -0.9790 C.ar  1 <1>  -0.1500 
 14 C       -2.6580    -1.7370    -1.6820 C.ar  1 <1>   0.0820 
 15 C        3.9650     1.0200     0.0260 C.3   1 <1>  -0.0190 
 16 C       -2.5870     1.7600     1.7750 C.3   1 <1>   0.0400 
 17 C       -3.3670    -0.5530    -1.7880 C.ar  1 <1>  -0.1500 
 18 O       -3.0280    -2.7450    -2.5120 O.3   1 <1>  -0.3630 
 19 C        5.1840     1.3960    -0.8170 C.2   1 <1>   0.5690 
 20 C       -2.3660    -3.9910    -2.4870 C.3   1 <1>   0.0400 
 21 O        5.3430     0.8590    -1.8860 O.2   1 <1>  -0.5700 
 22 N        6.0450     2.3280    -0.3020 N.am  1 <1>  -0.5470 
 23 C        7.2240     2.8900    -0.8250 C.ar  1 <1>   0.1170 
 24 C        8.2140     3.3690     0.0420 C.ar  1 <1>  -0.1430 
 25 C        7.4140     3.0040    -2.1990 C.ar  1 <1>  -0.1500 
 26 C        9.3580     3.9490    -0.4950 C.ar  1 <1>  -0.1500 
 27 C        8.0180     3.2410     1.5600 C.3   1 <1>  -0.0170 
 28 C        8.5580     3.5780    -2.7180 C.ar  1 <1>  -0.1500 
 29 C        9.5320     4.0530    -1.8630 C.ar  1 <1>  -0.1500 
 30 C        9.2210     3.6250     2.4310 C.3   1 <1>  -0.2400 
 31 H        2.6610    -1.9180     1.2820 H     1 <1>   0.0800 
 32 H        2.6990    -0.3810     2.1060 H     1 <1>   0.0800 
 33 H        1.4230     1.5460     1.1010 H     1 <1>   0.0800 
 34 H        0.5510     1.2650    -0.3840 H     1 <1>   0.0800 
 35 H       -1.0580    -2.7430    -0.6640 H     1 <1>   0.1500 
 36 H        3.9190    -1.0470    -0.5850 H     1 <1>   0.0800 
 37 H        4.7960    -0.7690     0.8880 H     1 <1>   0.0800 
 38 H        2.6310     2.4890    -0.8130 H     1 <1>   0.0800 
 39 H        2.5880     0.9570    -1.6310 H     1 <1>   0.0800 
 40 H       -3.5880     1.4440    -1.0680 H     1 <1>   0.1500 
 41 H        4.0230     1.5470     0.9610 H     1 <1>   0.0800 
 42 H       -2.2040     2.6130     2.3070 H     1 <1>   0.0800 
 43 H       -2.6100     0.9050     2.4270 H     1 <1>   0.0800 
 44 H       -3.5710     1.9720     1.3960 H     1 <1>   0.0800 
 45 H       -4.1640    -0.4800    -2.5070 H     1 <1>   0.1500 
 46 H       -2.8250    -4.6280    -3.2210 H     1 <1>   0.0800 
 47 H       -2.4720    -4.4260    -1.5090 H     1 <1>   0.0800 
 48 H       -1.3290    -3.8420    -2.7320 H     1 <1>   0.0800 
 49 H        5.8280     2.6440     0.6380 H     1 <1>   0.3700 
 50 H        6.6630     2.6460    -2.8780 H     1 <1>   0.1500 
 51 H       10.1410     4.3320     0.1340 H     1 <1>   0.1500 
 52 H        7.7700     2.2180     1.7840 H     1 <1>   0.0800 
 53 H        7.1840     3.8560     1.8500 H     1 <1>   0.0800 
 54 H        8.6870     3.6540    -3.7830 H     1 <1>   0.1500 
 55 H       10.4250     4.5030    -2.2610 H     1 <1>   0.1500 
 56 H       10.0780     3.0310     2.1680 H     1 <1>   0.0800 
 57 H        8.9930     3.4500     3.4670 H     1 <1>   0.0800 
 58 H        9.4580     4.6670     2.3100 H     1 <1>   0.0800 
@<TRIPOS>BOND
  1   1   2  2   
  2   1   3  2   
  3   1   4  am  
  4   1   5  1   
  5   4   6  1   
  6   4   7  1   
  7   5   8  ar  
  8   5   9  ar  
  9   6  10  1   
 10   6  31  1   
 11   6  32  1   
 12   7  11  1   
 13   7  33  1   
 14   7  34  1   
 15   8  12  1   
 16   8  13  ar  
 17   9  14  ar  
 18   9  35  1   
 19  10  15  1   
 20  10  36  1   
 21  10  37  1   
 22  11  15  1   
 23  11  38  1   
 24  11  39  1   
 25  12  16  1   
 26  13  17  ar  
 27  13  40  1   
 28  14  17  ar  
 29  14  18  1   
 30  15  19  1   
 31  15  41  1   
 32  16  42  1   
 33  16  43  1   
 34  16  44  1   
 35  17  45  1   
 36  18  20  1   
 37  19  21  2   
 38  19  22  am  
 39  20  46  1   
 40  20  47  1   
 41  20  48  1   
 42  22  23  1   
 43  22  49  1   
 44  23  24  ar  
 45  23  25  ar  
 46  24  26  ar  
 47  24  27  1   
 48  25  28  ar  
 49  25  50  1   
 50  26  29  ar  
 51  26  51  1   
 52  27  30  1   
 53  27  52  1   
 54  27  53  1   
 55  28  29  ar  
 56  28  54  1   
 57  29  55  1   
 58  30  56  1   
 59  30  57  1   
 60  30  58  1   
@<TRIPOS>SUBSTRUCTURE
  1 ****  11 GROUP 4 **** **** 0

# MOE 2024.06 (io_trps.svl 2023.06)
