@<TRIPOS>MOLECULE
N-tert-Butyl-4-chloro-3-(morpholine-4-sulfonyl)-benzamide
44 45 1 0 0 
SMALL
USER_CHARGES


@<TRIPOS>ATOM
  1 CL       0.1270     0.2150     2.3010 Cl    1 <1>  -0.1770 
  2 C        1.4290    -0.6720     1.5500 C.ar  1 <1>   0.1770 
  3 C        1.2740    -1.9740     1.0900 C.ar  1 <1>  -0.0090 
  4 C        2.6290     0.0030     1.4240 C.ar  1 <1>  -0.1500 
  5 S       -0.2780    -2.9020     1.2120 S.o2  1 <1>   1.4470 
  6 C        2.3770    -2.5600     0.4780 C.ar  1 <1>  -0.1500 
  7 C        3.7070    -0.6130     0.8190 C.ar  1 <1>  -0.1500 
  8 O        0.0480    -4.3110     1.1720 O.2   1 <1>  -0.6500 
  9 O       -1.1350    -2.4390     2.2790 O.2   1 <1>  -0.6500 
 10 N       -1.0600    -2.5520    -0.2510 N.am  1 <1>  -0.8490 
 11 C        3.6050    -1.9150     0.3310 C.ar  1 <1>   0.0860 
 12 C       -1.7090    -1.2290    -0.2610 C.3   1 <1>   0.1960 
 13 C       -2.0570    -3.5810    -0.5890 C.3   1 <1>   0.1960 
 14 C        4.7220    -2.5810    -0.3130 C.2   1 <1>   0.5440 
 15 C       -2.4200    -0.9670    -1.6010 C.3   1 <1>   0.1200 
 16 C       -2.7660    -3.2600    -1.9170 C.3   1 <1>   0.1200 
 17 O        4.5200    -3.3390    -1.2400 O.2   1 <1>  -0.5700 
 18 N        5.9970    -2.3610     0.1350 N.am  1 <1>  -0.7300 
 19 O       -3.3400    -1.9840    -1.8760 O.3   1 <1>  -0.5600 
 20 C        7.2630    -2.9130    -0.3590 C.3   1 <1>   0.3000 
 21 C        7.4760    -2.5090    -1.8180 C.3   1 <1>  -0.2400 
 22 C        7.2690    -4.4320    -0.1900 C.3   1 <1>  -0.2400 
 23 C        8.3650    -2.3000     0.5040 C.3   1 <1>  -0.2400 
 24 H        2.7120     1.0100     1.7940 H     1 <1>   0.1500 
 25 H        2.2870    -3.5650     0.0920 H     1 <1>   0.1500 
 26 H        4.6340    -0.0760     0.7120 H     1 <1>   0.1500 
 27 H       -0.9710    -0.4620    -0.1120 H     1 <1>   0.0800 
 28 H       -2.4320    -1.1590     0.5360 H     1 <1>   0.0800 
 29 H       -2.7920    -3.6550     0.1970 H     1 <1>   0.0800 
 30 H       -1.5740    -4.5390    -0.6830 H     1 <1>   0.0800 
 31 H       -1.7060    -0.9220    -2.4050 H     1 <1>   0.0800 
 32 H       -2.9600    -0.0380    -1.5610 H     1 <1>   0.0800 
 33 H       -3.5530    -3.9690    -2.1000 H     1 <1>   0.0800 
 34 H       -2.0670    -3.2970    -2.7340 H     1 <1>   0.0800 
 35 H        6.1150    -1.8210     0.9890 H     1 <1>   0.3700 
 36 H        6.7350    -2.9630    -2.4500 H     1 <1>   0.0800 
 37 H        8.4420    -2.8370    -2.1560 H     1 <1>   0.0800 
 38 H        7.4200    -1.4410    -1.9260 H     1 <1>   0.0800 
 39 H        8.2260    -4.8330    -0.4710 H     1 <1>   0.0800 
 40 H        6.5240    -4.8860    -0.8190 H     1 <1>   0.0800 
 41 H        7.0720    -4.7000     0.8320 H     1 <1>   0.0800 
 42 H        9.3250    -2.6660     0.1870 H     1 <1>   0.0800 
 43 H        8.2320    -2.5670     1.5370 H     1 <1>   0.0800 
 44 H        8.3690    -1.2290     0.4100 H     1 <1>   0.0800 
@<TRIPOS>BOND
  1   1   2  1   
  2   2   3  ar  
  3   2   4  ar  
  4   3   5  1   
  5   3   6  ar  
  6   4   7  ar  
  7   4  24  1   
  8   5   8  2   
  9   5   9  2   
 10   5  10  am  
 11   6  11  ar  
 12   6  25  1   
 13   7  11  ar  
 14   7  26  1   
 15  10  12  1   
 16  10  13  1   
 17  11  14  1   
 18  12  15  1   
 19  12  27  1   
 20  12  28  1   
 21  13  16  1   
 22  13  29  1   
 23  13  30  1   
 24  14  17  2   
 25  14  18  am  
 26  15  19  1   
 27  15  31  1   
 28  15  32  1   
 29  16  19  1   
 30  16  33  1   
 31  16  34  1   
 32  18  20  1   
 33  18  35  1   
 34  20  21  1   
 35  20  22  1   
 36  20  23  1   
 37  21  36  1   
 38  21  37  1   
 39  21  38  1   
 40  22  39  1   
 41  22  40  1   
 42  22  41  1   
 43  23  42  1   
 44  23  43  1   
 45  23  44  1   
@<TRIPOS>SUBSTRUCTURE
  1 ****   6 GROUP 4 **** **** 0

# MOE 2024.06 (io_trps.svl 2023.06)
