@<TRIPOS>MOLECULE
5-(4-Methyl-piperazine-1-carbonyl)-1-(toluene-4-sulfonyl)-pyrrolidin-2-one
49 51 1 0 0 
SMALL
USER_CHARGES


@<TRIPOS>ATOM
  1 S        0.6310     0.7660    -1.5930 S.o2  1 <1>   1.4470 
  2 O        2.0050     0.5560    -1.9930 O.2   1 <1>  -0.6500 
  3 O       -0.2300     1.5220    -2.4690 O.2   1 <1>  -0.6500 
  4 N        0.7510     1.6800    -0.1450 N.am  1 <1>  -0.7300 
  5 C       -0.1090    -0.8060    -1.0740 C.ar  1 <1>  -0.0090 
  6 C       -0.2660     1.8850     0.6910 C.2   1 <1>   0.7450 
  7 C        2.0150     2.2900     0.2960 C.3   1 <1>   0.3370 
  8 C       -1.3060    -1.2540    -1.6170 C.ar  1 <1>  -0.1500 
  9 C        0.5080    -1.6050    -0.1170 C.ar  1 <1>  -0.1500 
 10 O       -1.3830     1.4570     0.5680 O.2   1 <1>  -0.5700 
 11 C        0.1630     2.7510     1.8420 C.3   1 <1>  -0.0990 
 12 C        3.0270     1.2360     0.8260 C.2   1 <1>   0.5690 
 13 C        1.5490     3.2580     1.4040 C.3   1 <1>  -0.1600 
 14 C       -1.8650    -2.4590    -1.2270 C.ar  1 <1>  -0.1500 
 15 C       -0.0460    -2.8100     0.2780 C.ar  1 <1>  -0.1500 
 16 O        2.7120     0.6400     1.8310 O.2   1 <1>  -0.5700 
 17 N        4.2370     0.9500     0.2180 N.am  1 <1>  -0.6600 
 18 C       -1.2370    -3.2440    -0.2760 C.ar  1 <1>  -0.1430 
 19 C        4.7090     1.5050    -1.0960 C.3   1 <1>   0.1400 
 20 C        5.0550    -0.2090     0.7160 C.3   1 <1>   0.1400 
 21 C       -1.8460    -4.5650     0.1560 C.3   1 <1>  -0.0970 
 22 C        6.2290     1.7640    -1.1060 C.3   1 <1>   0.3430 
 23 C        6.5650     0.0860     0.6810 C.3   1 <1>   0.3430 
 24 N        7.0140     0.5560    -0.6760 N.4   1 <1>  -0.9590 
 25 C        8.4850     0.8270    -0.6940 C.3   1 <1>   0.2630 
 26 H        2.4310     2.8580    -0.5120 H     1 <1>   0.0800 
 27 H       -1.8120    -0.6500    -2.3520 H     1 <1>   0.1500 
 28 H        1.4330    -1.2830     0.3300 H     1 <1>   0.1500 
 29 H        0.2330     2.1410     2.7240 H     1 <1>   0.0800 
 30 H       -0.5340     3.5540     1.9990 H     1 <1>   0.0800 
 31 H        1.4540     4.2440     0.9850 H     1 <1>   0.0800 
 32 H        2.2400     3.3010     2.2280 H     1 <1>   0.0800 
 33 H       -2.7940    -2.7790    -1.6670 H     1 <1>   0.1500 
 34 H        0.4530    -3.4070     1.0210 H     1 <1>   0.1500 
 35 H        4.2110     2.4260    -1.3310 H     1 <1>   0.0800 
 36 H        4.4720     0.8030    -1.8780 H     1 <1>   0.0800 
 37 H        4.8400    -1.0730     0.1110 H     1 <1>   0.0800 
 38 H        4.7870    -0.4550     1.7300 H     1 <1>   0.0800 
 39 H       -2.9130    -4.5510     0.0220 H     1 <1>   0.0800 
 40 H       -1.6380    -4.7510     1.1950 H     1 <1>   0.0800 
 41 H       -1.4320    -5.3650    -0.4300 H     1 <1>   0.0800 
 42 H        6.4410     2.5870    -0.4430 H     1 <1>   0.0800 
 43 H        6.5270     2.0580    -2.1000 H     1 <1>   0.0800 
 44 H        7.1010    -0.8070     0.9570 H     1 <1>   0.0800 
 45 H        6.7820     0.8420     1.4180 H     1 <1>   0.0800 
 46 H        6.8080    -0.2000    -1.3470 H     1 <1>   0.4500 
 47 H        8.7310     1.6140     0.0010 H     1 <1>   0.0800 
 48 H        8.7990     1.1280    -1.6810 H     1 <1>   0.0800 
 49 H        9.0330    -0.0600    -0.4180 H     1 <1>   0.0800 
@<TRIPOS>BOND
  1   1   2  2   
  2   1   3  2   
  3   1   4  am  
  4   1   5  1   
  5   4   6  am  
  6   4   7  1   
  7   5   8  ar  
  8   5   9  ar  
  9   6  10  2   
 10   6  11  1   
 11   7  12  1   
 12   7  13  1   
 13   7  26  1   
 14   8  14  ar  
 15   8  27  1   
 16   9  15  ar  
 17   9  28  1   
 18  11  13  1   
 19  11  29  1   
 20  11  30  1   
 21  12  16  2   
 22  12  17  am  
 23  13  31  1   
 24  13  32  1   
 25  14  18  ar  
 26  14  33  1   
 27  15  18  ar  
 28  15  34  1   
 29  17  19  1   
 30  17  20  1   
 31  18  21  1   
 32  19  22  1   
 33  19  35  1   
 34  19  36  1   
 35  20  23  1   
 36  20  37  1   
 37  20  38  1   
 38  21  39  1   
 39  21  40  1   
 40  21  41  1   
 41  22  24  1   
 42  22  42  1   
 43  22  43  1   
 44  23  24  1   
 45  23  44  1   
 46  23  45  1   
 47  24  25  1   
 48  24  46  1   
 49  25  47  1   
 50  25  48  1   
 51  25  49  1   
@<TRIPOS>SUBSTRUCTURE
  1 ****  12 GROUP 4 **** **** 0

# MOE 2024.06 (io_trps.svl 2023.06)
