@<TRIPOS>MOLECULE
N-(1-Methyl-2-oxo-2-pyrrolidin-1-yl-ethyl)-N-p-tolyl-methanesulfonamide
43 44 1 0 0 
SMALL
USER_CHARGES


@<TRIPOS>ATOM
  1 S        0.6890     0.0700     0.4760 S.o2  1 <1>   1.3330 
  2 O        1.0590     0.5690     1.7770 O.2   1 <1>  -0.6500 
  3 O        1.6250    -0.7180    -0.2910 O.2   1 <1>  -0.6500 
  4 N        0.2420     1.4120    -0.5120 N.am  1 <1>  -0.6930 
  5 C       -0.8340    -0.8450     0.5940 C.3   1 <1>  -0.1350 
  6 C       -0.8430     2.2000    -0.1370 C.ar  1 <1>   0.1990 
  7 C        1.3780     2.0460    -1.2570 C.3   1 <1>   0.3370 
  8 C       -2.0100     2.1660    -0.8890 C.ar  1 <1>  -0.1500 
  9 C       -0.8050     3.0070     0.9930 C.ar  1 <1>  -0.1500 
 10 C        2.2320     3.0290    -0.4100 C.2   1 <1>   0.5690 
 11 C        0.8420     2.6960    -2.5420 C.3   1 <1>  -0.2400 
 12 C       -3.1140     2.9140    -0.5220 C.ar  1 <1>  -0.1500 
 13 C       -1.9060     3.7580     1.3630 C.ar  1 <1>  -0.1500 
 14 O        1.8530     4.1760    -0.2950 O.2   1 <1>  -0.5700 
 15 N        3.4140     2.6390     0.1740 N.am  1 <1>  -0.6600 
 16 C       -3.0680     3.7160     0.6080 C.ar  1 <1>  -0.1430 
 17 C        4.0390     1.2960     0.1540 C.3   1 <1>   0.1400 
 18 C        4.2230     3.5770     0.9840 C.3   1 <1>   0.1400 
 19 C       -4.2730     4.5420     1.0170 C.3   1 <1>  -0.0970 
 20 C        5.4590     1.5300     0.6520 C.3   1 <1>  -0.1600 
 21 C        5.3360     2.7270     1.5880 C.3   1 <1>  -0.1600 
 22 H       -0.6810    -1.7410     1.1620 H     1 <1>   0.0800 
 23 H       -1.1820    -1.1100    -0.3840 H     1 <1>   0.0800 
 24 H       -1.5840    -0.2540     1.0820 H     1 <1>   0.0800 
 25 H        2.0340     1.2640    -1.5890 H     1 <1>   0.0800 
 26 H       -2.0480     1.5480    -1.7670 H     1 <1>   0.1500 
 27 H        0.0940     3.0500     1.5820 H     1 <1>   0.1500 
 28 H        0.2020     3.5280    -2.3070 H     1 <1>   0.0800 
 29 H        0.3000     1.9750    -3.1260 H     1 <1>   0.0800 
 30 H        1.6640     3.0650    -3.1270 H     1 <1>   0.0800 
 31 H       -4.0080     2.8730    -1.1180 H     1 <1>   0.1500 
 32 H       -1.8520     4.3770     2.2410 H     1 <1>   0.1500 
 33 H        4.0340     0.8610    -0.8300 H     1 <1>   0.0800 
 34 H        3.5200     0.6540     0.8450 H     1 <1>   0.0800 
 35 H        3.6180     4.0410     1.7450 H     1 <1>   0.0800 
 36 H        4.6300     4.3350     0.3370 H     1 <1>   0.0800 
 37 H       -4.8620     3.9960     1.7320 H     1 <1>   0.0800 
 38 H       -4.8840     4.7680     0.1620 H     1 <1>   0.0800 
 39 H       -3.9570     5.4680     1.4620 H     1 <1>   0.0800 
 40 H        6.0880     1.7790    -0.1840 H     1 <1>   0.0800 
 41 H        5.8560     0.6600     1.1460 H     1 <1>   0.0800 
 42 H        5.0270     2.3970     2.5650 H     1 <1>   0.0800 
 43 H        6.2550     3.2780     1.6780 H     1 <1>   0.0800 
@<TRIPOS>BOND
  1   1   2  2   
  2   1   3  2   
  3   1   4  am  
  4   1   5  1   
  5   4   6  1   
  6   4   7  1   
  7   5  22  1   
  8   5  23  1   
  9   5  24  1   
 10   6   8  ar  
 11   6   9  ar  
 12   7  10  1   
 13   7  11  1   
 14   7  25  1   
 15   8  12  ar  
 16   8  26  1   
 17   9  13  ar  
 18   9  27  1   
 19  10  14  2   
 20  10  15  am  
 21  11  28  1   
 22  11  29  1   
 23  11  30  1   
 24  12  16  ar  
 25  12  31  1   
 26  13  16  ar  
 27  13  32  1   
 28  15  17  1   
 29  15  18  1   
 30  16  19  1   
 31  17  20  1   
 32  17  33  1   
 33  17  34  1   
 34  18  21  1   
 35  18  35  1   
 36  18  36  1   
 37  19  37  1   
 38  19  38  1   
 39  19  39  1   
 40  20  21  1   
 41  20  40  1   
 42  20  41  1   
 43  21  42  1   
 44  21  43  1   
@<TRIPOS>SUBSTRUCTURE
  1 ****   4 GROUP 4 **** **** 0

# MOE 2024.06 (io_trps.svl 2023.06)
