@<TRIPOS>MOLECULE
1-(3,5-Dimethyl-[1,2,4]triazol-1-yl)-3-(indan-5-yloxy)-propan-2-ol
43 45 1 0 0 
SMALL
USER_CHARGES


@<TRIPOS>ATOM
  1 O        0.1270     0.5670    -0.3820 O.3   1 <1>  -0.3630 
  2 C        1.1330    -0.3020    -0.1140 C.ar  1 <1>   0.0830 
  3 C        0.0060     1.7830     0.3220 C.3   1 <1>   0.1200 
  4 C        1.1220    -1.5000    -0.8150 C.ar  1 <1>  -0.1500 
  5 C        2.1470    -0.0520     0.8130 C.ar  1 <1>  -0.1500 
  6 C       -1.2500     2.4980    -0.1820 C.3   1 <1>   0.2000 
  7 C        2.1160    -2.4310    -0.5830 C.ar  1 <1>  -0.1440 
  8 C        3.1380    -0.9940     1.0370 C.ar  1 <1>  -0.1500 
  9 O       -1.4850     3.6270     0.6070 O.3   1 <1>  -0.6800 
 10 C       -2.4800     1.5580    -0.2220 C.3   1 <1>   0.3540 
 11 C        3.1090    -2.1820     0.3300 C.ar  1 <1>  -0.1430 
 12 C        2.2900    -3.7830    -1.2290 C.3   1 <1>  -0.0170 
 13 N       -3.7950     2.2700    -0.1860 N.pl3 1 <1>  -0.4570 
 14 C        4.0780    -3.3360     0.4140 C.3   1 <1>  -0.0160 
 15 C        3.7070    -4.2030    -0.8010 C.3   1 <1>  -0.1600 
 16 N       -4.7470     1.8920     0.7060 N.2   1 <1>  -0.2600 
 17 C       -4.2300     3.2920    -0.9050 C.cat 1 <1>   0.6560 
 18 C       -5.7220     2.7010     0.4950 C.2   1 <1>   0.4850 
 19 N       -5.4410     3.5800    -0.4950 N.pl3 1 <1>  -0.7000 
 20 C       -3.5110     4.0260    -2.0150 C.3   1 <1>  -0.0960 
 21 C       -7.0400     2.7060     1.2360 C.3   1 <1>  -0.0720 
 22 H        0.8830     2.3770     0.1290 H     1 <1>   0.0800 
 23 H       -0.0750     1.5520     1.3700 H     1 <1>   0.0800 
 24 H        0.3470    -1.6980    -1.5320 H     1 <1>   0.1500 
 25 H        2.1880     0.8650     1.3690 H     1 <1>   0.1500 
 26 H       -1.0480     2.8540    -1.1770 H     1 <1>   0.0800 
 27 H        3.9210    -0.8070     1.7490 H     1 <1>   0.1500 
 28 H       -1.6090     3.3910     1.5500 H     1 <1>   0.4000 
 29 H       -2.4320     0.8910     0.6220 H     1 <1>   0.0800 
 30 H       -2.4310     0.9440    -1.1050 H     1 <1>   0.0800 
 31 H        2.2010    -3.7240    -2.2990 H     1 <1>   0.0800 
 32 H        1.5560    -4.4640    -0.8360 H     1 <1>   0.0800 
 33 H        3.9140    -3.8750     1.3310 H     1 <1>   0.0800 
 34 H        5.0990    -3.0000     0.3640 H     1 <1>   0.0800 
 35 H        4.3890    -3.9830    -1.6040 H     1 <1>   0.0800 
 36 H        3.7610    -5.2530    -0.5740 H     1 <1>   0.0800 
 37 H       -6.0570     4.3180    -0.8350 H     1 <1>   0.4500 
 38 H       -2.9910     3.3290    -2.6450 H     1 <1>   0.0800 
 39 H       -2.8050     4.7190    -1.5930 H     1 <1>   0.0800 
 40 H       -4.2130     4.5720    -2.6160 H     1 <1>   0.0800 
 41 H       -7.0490     1.9260     1.9760 H     1 <1>   0.0800 
 42 H       -7.8490     2.5380     0.5480 H     1 <1>   0.0800 
 43 H       -7.1820     3.6510     1.7280 H     1 <1>   0.0800 
@<TRIPOS>BOND
  1   1   2  1   
  2   1   3  1   
  3   2   4  ar  
  4   2   5  ar  
  5   3   6  1   
  6   3  22  1   
  7   3  23  1   
  8   4   7  ar  
  9   4  24  1   
 10   5   8  ar  
 11   5  25  1   
 12   6   9  1   
 13   6  10  1   
 14   6  26  1   
 15   7  11  ar  
 16   7  12  1   
 17   8  11  ar  
 18   8  27  1   
 19   9  28  1   
 20  10  13  1   
 21  10  29  1   
 22  10  30  1   
 23  11  14  1   
 24  12  15  1   
 25  12  31  1   
 26  12  32  1   
 27  13  16  1   
 28  13  17  ar  
 29  14  15  1   
 30  14  33  1   
 31  14  34  1   
 32  15  35  1   
 33  15  36  1   
 34  16  18  2   
 35  17  19  ar  
 36  17  20  1   
 37  18  19  1   
 38  18  21  1   
 39  19  37  1   
 40  20  38  1   
 41  20  39  1   
 42  20  40  1   
 43  21  41  1   
 44  21  42  1   
 45  21  43  1   
@<TRIPOS>SUBSTRUCTURE
  1 ****   1 GROUP 4 **** **** 0

# MOE 2024.06 (io_trps.svl 2023.06)
