@<TRIPOS>MOLECULE
1-Cyclohexyl-3-[2-(piperidine-1-carbonyl)-phenyl]-urea
51 53 1 0 0 
SMALL
USER_CHARGES


@<TRIPOS>ATOM
  1 O        0.2470    -0.5830     1.0830 O.2   1 <1>  -0.5700 
  2 C        0.5250    -0.9160    -0.0510 C.2   1 <1>   0.6900 
  3 N        1.6760    -0.5080    -0.6510 N.am  1 <1>  -0.5470 
  4 N       -0.2860    -1.7370    -0.7570 N.am  1 <1>  -0.7300 
  5 C        2.6680     0.3560    -0.1700 C.ar  1 <1>   0.1170 
  6 C       -1.5530    -2.3020    -0.2670 C.3   1 <1>   0.2200 
  7 C        4.0210     0.0550    -0.3820 C.ar  1 <1>   0.0860 
  8 C        2.3280     1.5240     0.5060 C.ar  1 <1>  -0.1500 
  9 C       -1.4940    -3.8280    -0.3900 C.3   1 <1>  -0.1600 
 10 C       -2.7060    -1.7210    -1.0930 C.3   1 <1>  -0.1600 
 11 C        4.4150    -1.1680    -1.0420 C.2   1 <1>   0.5440 
 12 C        4.9870     0.9550     0.0660 C.ar  1 <1>  -0.1500 
 13 C        3.3000     2.3970     0.9540 C.ar  1 <1>  -0.1500 
 14 C       -2.8320    -4.4690     0.0050 C.3   1 <1>  -0.1600 
 15 C       -4.0460    -2.3590    -0.6990 C.3   1 <1>  -0.1600 
 16 O        4.8870    -1.1050    -2.1610 O.2   1 <1>  -0.5700 
 17 N        4.2430    -2.4070    -0.4530 N.am  1 <1>  -0.6600 
 18 C        4.6360     2.1140     0.7290 C.ar  1 <1>  -0.1500 
 19 C       -3.9900    -3.8880    -0.8180 C.3   1 <1>  -0.1600 
 20 C        4.6470    -3.6710    -1.1330 C.3   1 <1>   0.1400 
 21 C        3.7170    -2.6010     0.9320 C.3   1 <1>   0.1400 
 22 C        5.7010    -4.3980    -0.2920 C.3   1 <1>  -0.1600 
 23 C        4.7630    -3.3240     1.7870 C.3   1 <1>  -0.1600 
 24 C        5.2110    -4.6430     1.1420 C.3   1 <1>  -0.1600 
 25 H        1.9630    -1.1020    -1.4260 H     1 <1>   0.3700 
 26 H       -0.1030    -1.8870    -1.7450 H     1 <1>   0.3700 
 27 H       -1.6960    -2.0390     0.7690 H     1 <1>   0.0800 
 28 H        1.2900     1.7490     0.6800 H     1 <1>   0.1500 
 29 H       -0.7170    -4.2040     0.2520 H     1 <1>   0.0800 
 30 H       -1.2620    -4.1000    -1.4040 H     1 <1>   0.0800 
 31 H       -2.5280    -1.9000    -2.1390 H     1 <1>   0.0800 
 32 H       -2.7570    -0.6590    -0.9310 H     1 <1>   0.0800 
 33 H        6.0250     0.7310    -0.1130 H     1 <1>   0.1500 
 34 H        3.0180     3.2960     1.4760 H     1 <1>   0.1500 
 35 H       -3.0160    -4.2920     1.0520 H     1 <1>   0.0800 
 36 H       -2.7820    -5.5340    -0.1440 H     1 <1>   0.0800 
 37 H       -4.8280    -1.9760    -1.3320 H     1 <1>   0.0800 
 38 H       -4.2830    -2.0890     0.3160 H     1 <1>   0.0800 
 39 H        5.3960     2.7970     1.0710 H     1 <1>   0.1500 
 40 H       -4.9210    -4.3090    -0.4770 H     1 <1>   0.0800 
 41 H       -3.8650    -4.1610    -1.8520 H     1 <1>   0.0800 
 42 H        5.0470    -3.4700    -2.1120 H     1 <1>   0.0800 
 43 H        3.7790    -4.2960    -1.2510 H     1 <1>   0.0800 
 44 H        2.8160    -3.1890     0.8840 H     1 <1>   0.0800 
 45 H        3.4720    -1.6620     1.3960 H     1 <1>   0.0800 
 46 H        6.5970    -3.8030    -0.2750 H     1 <1>   0.0800 
 47 H        5.9400    -5.3370    -0.7580 H     1 <1>   0.0800 
 48 H        4.3490    -3.5200     2.7610 H     1 <1>   0.0800 
 49 H        5.6120    -2.6750     1.9160 H     1 <1>   0.0800 
 50 H        6.0010    -5.0840     1.7260 H     1 <1>   0.0800 
 51 H        4.3840    -5.3310     1.1250 H     1 <1>   0.0800 
@<TRIPOS>BOND
  1   1   2  2   
  2   2   3  am  
  3   2   4  am  
  4   3   5  1   
  5   3  25  1   
  6   4   6  1   
  7   4  26  1   
  8   5   7  ar  
  9   5   8  ar  
 10   6   9  1   
 11   6  10  1   
 12   6  27  1   
 13   7  11  1   
 14   7  12  ar  
 15   8  13  ar  
 16   8  28  1   
 17   9  14  1   
 18   9  29  1   
 19   9  30  1   
 20  10  15  1   
 21  10  31  1   
 22  10  32  1   
 23  11  16  2   
 24  11  17  am  
 25  12  18  ar  
 26  12  33  1   
 27  13  18  ar  
 28  13  34  1   
 29  14  19  1   
 30  14  35  1   
 31  14  36  1   
 32  15  19  1   
 33  15  37  1   
 34  15  38  1   
 35  17  20  1   
 36  17  21  1   
 37  18  39  1   
 38  19  40  1   
 39  19  41  1   
 40  20  22  1   
 41  20  42  1   
 42  20  43  1   
 43  21  23  1   
 44  21  44  1   
 45  21  45  1   
 46  22  24  1   
 47  22  46  1   
 48  22  47  1   
 49  23  24  1   
 50  23  48  1   
 51  23  49  1   
 52  24  50  1   
 53  24  51  1   
@<TRIPOS>SUBSTRUCTURE
  1 ****   3 GROUP 4 **** **** 0

# MOE 2024.06 (io_trps.svl 2023.06)
