@<TRIPOS>MOLECULE
3-[3-(3-Ethoxy-4-methoxy-phenyl)-[1,2,4]oxadiazol-5-yl]-1-(4-methyl-piperazin-1-
54 56 1 0 0 
SMALL
USER_CHARGES


@<TRIPOS>ATOM
  1 O        0.0600    -0.6630    -1.5160 O.2   1 <1>  -0.5700 
  2 C        0.6270    -1.6440    -1.1030 C.2   1 <1>   0.5690 
  3 N        1.9480    -1.5850    -0.7290 N.am  1 <1>  -0.6600 
  4 C       -0.1570    -2.9440    -1.0000 C.3   1 <1>  -0.0990 
  5 C        2.7610    -0.3580    -1.0110 C.3   1 <1>   0.1400 
  6 C        2.6830    -2.6470     0.0280 C.3   1 <1>   0.1400 
  7 C       -1.5070    -2.9010    -1.7390 C.3   1 <1>   0.0200 
  8 C        3.3830     0.2000     0.2810 C.3   1 <1>   0.3430 
  9 C        3.3380    -2.0660     1.3010 C.3   1 <1>   0.3430 
 10 C       -2.2210    -4.2340    -1.6460 C.2   1 <1>   0.2980 
 11 N        4.1790    -0.8470     1.0180 N.4   1 <1>  -0.9590 
 12 O       -1.7400    -5.2530    -2.3090 O.3   1 <1>  -0.0190 
 13 N       -3.2620    -4.4710    -0.9630 N.2   1 <1>  -0.5650 
 14 C        4.7580    -0.2860     2.2780 C.3   1 <1>   0.2630 
 15 N       -2.5470    -6.2250    -2.0210 N.2   1 <1>  -0.4100 
 16 C       -3.4520    -5.7670    -1.2290 C.2   1 <1>   0.4620 
 17 C       -4.5560    -6.5310    -0.6720 C.ar  1 <1>   0.0540 
 18 C       -5.4950    -5.9530     0.1810 C.ar  1 <1>  -0.1500 
 19 C       -4.7260    -7.8830    -0.9710 C.ar  1 <1>  -0.1500 
 20 C       -6.5530    -6.6690     0.7150 C.ar  1 <1>   0.0820 
 21 C       -5.7680    -8.6220    -0.4410 C.ar  1 <1>  -0.1500 
 22 O       -7.3870    -5.9540     1.5200 O.3   1 <1>  -0.3630 
 23 C       -6.6940    -8.0330     0.4150 C.ar  1 <1>   0.0820 
 24 C       -8.7750    -6.1890     1.5030 C.3   1 <1>   0.1200 
 25 O       -7.7090    -8.7530     0.9730 O.3   1 <1>  -0.3630 
 26 C       -9.4750    -4.9250     1.9920 C.3   1 <1>  -0.2400 
 27 C       -7.7870   -10.1560     0.8560 C.3   1 <1>   0.0400 
 28 H       -0.3390    -3.1570     0.0370 H     1 <1>   0.0800 
 29 H        0.4360    -3.7370    -1.4160 H     1 <1>   0.0800 
 30 H        2.1550     0.4100    -1.4610 H     1 <1>   0.0800 
 31 H        3.5380    -0.6020    -1.7140 H     1 <1>   0.0800 
 32 H        3.4420    -3.0710    -0.6070 H     1 <1>   0.0800 
 33 H        2.0190    -3.4410     0.3170 H     1 <1>   0.0800 
 34 H       -1.3550    -2.6570    -2.7750 H     1 <1>   0.0800 
 35 H       -2.1340    -2.1400    -1.3070 H     1 <1>   0.0800 
 36 H        2.5870     0.5640     0.9100 H     1 <1>   0.0800 
 37 H        4.0160     1.0370     0.0330 H     1 <1>   0.0800 
 38 H        3.9440    -2.8290     1.7630 H     1 <1>   0.0800 
 39 H        2.5550    -1.8070     1.9950 H     1 <1>   0.0800 
 40 H        4.9540    -1.1360     0.4020 H     1 <1>   0.4500 
 41 H        3.9710     0.0310     2.9440 H     1 <1>   0.0800 
 42 H        5.3840     0.5630     2.0570 H     1 <1>   0.0800 
 43 H        5.3560    -1.0300     2.7800 H     1 <1>   0.0800 
 44 H       -5.4070    -4.9130     0.4390 H     1 <1>   0.1500 
 45 H       -4.0250    -8.3670    -1.6300 H     1 <1>   0.1500 
 46 H       -5.8380    -9.6580    -0.7110 H     1 <1>   0.1500 
 47 H       -8.9870    -7.0160     2.1570 H     1 <1>   0.0800 
 48 H       -9.0730    -6.4280     0.4960 H     1 <1>   0.0800 
 49 H       -9.1570    -4.6930     2.9930 H     1 <1>   0.0800 
 50 H      -10.5390    -5.0750     1.9940 H     1 <1>   0.0800 
 51 H       -9.2440    -4.1010     1.3410 H     1 <1>   0.0800 
 52 H       -8.6230   -10.4940     1.4410 H     1 <1>   0.0800 
 53 H       -6.8780   -10.5900     1.2340 H     1 <1>   0.0800 
 54 H       -7.9390   -10.4130    -0.1780 H     1 <1>   0.0800 
@<TRIPOS>BOND
  1   1   2  2   
  2   2   3  am  
  3   2   4  1   
  4   3   5  1   
  5   3   6  1   
  6   4   7  1   
  7   4  28  1   
  8   4  29  1   
  9   5   8  1   
 10   5  30  1   
 11   5  31  1   
 12   6   9  1   
 13   6  32  1   
 14   6  33  1   
 15   7  10  1   
 16   7  34  1   
 17   7  35  1   
 18   8  11  1   
 19   8  36  1   
 20   8  37  1   
 21   9  11  1   
 22   9  38  1   
 23   9  39  1   
 24  10  12  1   
 25  10  13  2   
 26  11  14  1   
 27  11  40  1   
 28  12  15  1   
 29  13  16  1   
 30  14  41  1   
 31  14  42  1   
 32  14  43  1   
 33  15  16  2   
 34  16  17  1   
 35  17  18  ar  
 36  17  19  ar  
 37  18  20  ar  
 38  18  44  1   
 39  19  21  ar  
 40  19  45  1   
 41  20  22  1   
 42  20  23  ar  
 43  21  23  ar  
 44  21  46  1   
 45  22  24  1   
 46  23  25  1   
 47  24  26  1   
 48  24  47  1   
 49  24  48  1   
 50  25  27  1   
 51  26  49  1   
 52  26  50  1   
 53  26  51  1   
 54  27  52  1   
 55  27  53  1   
 56  27  54  1   
@<TRIPOS>SUBSTRUCTURE
  1 ****  13 GROUP 4 **** **** 0

# MOE 2024.06 (io_trps.svl 2023.06)
