@<TRIPOS>MOLECULE
2-Ethoxy-N-(2-hydroxy-8-methyl-quinolin-3-ylmethyl)-N-(2-methoxy-ethyl)-benzamid
55 57 1 0 0 
SMALL
USER_CHARGES


@<TRIPOS>ATOM
  1 O        1.0270    -1.2830     2.6160 O.2   1 <1>  -0.5700 
  2 C        1.4620    -1.2680     1.4800 C.2   1 <1>   0.5440 
  3 N        1.9360    -0.0840     0.9560 N.am  1 <1>  -0.6600 
  4 C        1.4940    -2.4960     0.7200 C.ar  1 <1>   0.0860 
  5 C        1.6970     1.2210     1.6430 C.3   1 <1>   0.2780 
  6 C        2.6620    -0.0040    -0.3490 C.3   1 <1>   0.1400 
  7 C        0.4690    -2.8380    -0.1690 C.ar  1 <1>   0.0820 
  8 C        2.5690    -3.3760     0.8420 C.ar  1 <1>  -0.1500 
  9 C        0.6110     2.0470     0.9610 C.2   1 <1>  -0.1240 
 10 C        4.1690    -0.1310    -0.1250 C.3   1 <1>   0.1200 
 11 O       -0.6170    -2.0540    -0.3140 O.3   1 <1>  -0.3630 
 12 C        0.5460    -3.9910    -0.9350 C.ar  1 <1>  -0.1500 
 13 C        2.6400    -4.5330     0.0870 C.ar  1 <1>  -0.1500 
 14 C        0.5100     3.4050     1.3980 C.2   1 <1>   0.6160 
 15 C       -0.2370     1.5800     0.0060 C.2   1 <1>  -0.1780 
 16 O        4.8060    -0.0580    -1.3610 O.3   1 <1>  -0.5600 
 17 C       -1.6290    -2.2000     0.6570 C.3   1 <1>   0.1200 
 18 C        1.6290    -4.8390    -0.8080 C.ar  1 <1>  -0.1500 
 19 O        1.2410     3.9000     2.2390 O.2   1 <1>  -0.5700 
 20 N       -0.4480     4.1940     0.8400 N.am  1 <1>  -0.5470 
 21 C       -1.2310     2.4270    -0.5830 C.ar  1 <1>   0.0280 
 22 C        6.1910    -0.1640    -1.2890 C.3   1 <1>   0.0400 
 23 C       -2.8060    -1.3110     0.2670 C.3   1 <1>  -0.2400 
 24 C       -1.3310     3.7580    -0.1450 C.ar  1 <1>   0.1170 
 25 C       -2.1000     1.9760    -1.5760 C.ar  1 <1>  -0.1500 
 26 C       -2.2980     4.6070    -0.6960 C.ar  1 <1>  -0.1430 
 27 C       -3.0480     2.8170    -2.1160 C.ar  1 <1>  -0.1500 
 28 C       -3.1470     4.1300    -1.6750 C.ar  1 <1>  -0.1500 
 29 C       -2.4250     6.0510    -0.2300 C.3   1 <1>  -0.0970 
 30 H        2.6170     1.7790     1.6500 H     1 <1>   0.0800 
 31 H        1.4160     1.0610     2.6700 H     1 <1>   0.0800 
 32 H        2.4530     0.9390    -0.8230 H     1 <1>   0.0800 
 33 H        2.3330    -0.7880    -1.0070 H     1 <1>   0.0800 
 34 H        3.3540    -3.1420     1.5390 H     1 <1>   0.1500 
 35 H        4.4010    -1.0800     0.3250 H     1 <1>   0.0800 
 36 H        4.5250     0.6750     0.4920 H     1 <1>   0.0800 
 37 H       -0.2470    -4.2180    -1.6250 H     1 <1>   0.1500 
 38 H        3.4810    -5.1970     0.1930 H     1 <1>   0.1500 
 39 H       -0.2020     0.5640    -0.3430 H     1 <1>   0.1500 
 40 H       -1.2380    -1.9130     1.6170 H     1 <1>   0.0800 
 41 H       -1.9260    -3.2350     0.6830 H     1 <1>   0.0800 
 42 H        1.6870    -5.7360    -1.4020 H     1 <1>   0.1500 
 43 H       -0.4840     5.1500     1.1840 H     1 <1>   0.3700 
 44 H        6.5830    -0.0960    -2.2890 H     1 <1>   0.0800 
 45 H        6.4530    -1.1160    -0.8610 H     1 <1>   0.0800 
 46 H        6.5800     0.6420    -0.6920 H     1 <1>   0.0800 
 47 H       -2.5150    -0.2770     0.3030 H     1 <1>   0.0800 
 48 H       -3.6130    -1.4570     0.9620 H     1 <1>   0.0800 
 49 H       -3.1510    -1.5590    -0.7200 H     1 <1>   0.0800 
 50 H       -2.0230     0.9600    -1.9190 H     1 <1>   0.1500 
 51 H       -3.7160     2.4600    -2.8810 H     1 <1>   0.1500 
 52 H       -3.8960     4.7680    -2.1100 H     1 <1>   0.1500 
 53 H       -1.5070     6.5800    -0.4150 H     1 <1>   0.0800 
 54 H       -2.6440     6.0810     0.8220 H     1 <1>   0.0800 
 55 H       -3.2170     6.5570    -0.7540 H     1 <1>   0.0800 
@<TRIPOS>BOND
  1   1   2  2   
  2   2   3  am  
  3   2   4  1   
  4   3   5  1   
  5   3   6  1   
  6   4   7  ar  
  7   4   8  ar  
  8   5   9  1   
  9   5  30  1   
 10   5  31  1   
 11   6  10  1   
 12   6  32  1   
 13   6  33  1   
 14   7  11  1   
 15   7  12  ar  
 16   8  13  ar  
 17   8  34  1   
 18   9  14  1   
 19   9  15  2   
 20  10  16  1   
 21  10  35  1   
 22  10  36  1   
 23  11  17  1   
 24  12  18  ar  
 25  12  37  1   
 26  13  18  ar  
 27  13  38  1   
 28  14  19  2   
 29  14  20  am  
 30  15  21  1   
 31  15  39  1   
 32  16  22  1   
 33  17  23  1   
 34  17  40  1   
 35  17  41  1   
 36  18  42  1   
 37  20  24  1   
 38  20  43  1   
 39  21  24  ar  
 40  21  25  ar  
 41  22  44  1   
 42  22  45  1   
 43  22  46  1   
 44  23  47  1   
 45  23  48  1   
 46  23  49  1   
 47  24  26  ar  
 48  25  27  ar  
 49  25  50  1   
 50  26  28  ar  
 51  26  29  1   
 52  27  28  ar  
 53  27  51  1   
 54  28  52  1   
 55  29  53  1   
 56  29  54  1   
 57  29  55  1   
@<TRIPOS>SUBSTRUCTURE
  1 ****  15 GROUP 4 **** **** 0

# MOE 2024.06 (io_trps.svl 2023.06)
