@<TRIPOS>MOLECULE
1,3-Dimethyl-8-(2-morpholin-4-yl-ethyl)-7-phenyl-1H,8H-imidazo[2,1-f]purine-2,4-
55 59 1 0 0 
SMALL
USER_CHARGES


@<TRIPOS>ATOM
  1 O        0.5970     0.7720    -0.0760 O.2   1 <1>  -0.5740 
  2 C        1.7980     0.9240    -0.1610 C.2   1 <1>   0.6870 
  3 N        2.3410     2.2060    -0.1540 N.am  1 <1>  -0.4250 
  4 N        2.6280    -0.1860    -0.2570 N.am  1 <1>  -0.4410 
  5 C        3.7160     2.4040    -0.1760 C.2   1 <1>   0.7000 
  6 C        1.4210     3.3830    -0.0760 C.3   1 <1>   0.0530 
  7 C        3.9930     0.0190    -0.2850 C.2   1 <1>   0.4210 
  8 C        2.0430    -1.5580    -0.3110 C.3   1 <1>   0.0530 
  9 O        4.1930     3.5260    -0.1330 O.2   1 <1>  -0.5740 
 10 C        4.5530     1.2520    -0.2440 C.2   1 <1>   0.2710 
 11 N        4.9880    -0.9130    -0.3360 N.pl3 1 <1>  -0.7030 
 12 N        5.9430     1.0560    -0.2630 N.pl3 1 <1>  -0.6330 
 13 C        6.1450    -0.2550    -0.3100 C.cat 1 <1>   1.0690 
 14 C        7.1850     1.6490    -0.2330 C.2   1 <1>   0.2230 
 15 N        7.4490    -0.5550    -0.3160 N.pl3 1 <1>  -0.5710 
 16 C        8.1220     0.6660    -0.2630 C.2   1 <1>   0.2690 
 17 C        8.0960    -1.8950    -0.4810 C.3   1 <1>   0.1610 
 18 C        9.5580     0.7900    -0.2470 C.ar  1 <1>   0.0210 
 19 C        7.5530    -2.9640     0.4870 C.3   1 <1>   0.1030 
 20 C       10.2450     1.2960    -1.3480 C.ar  1 <1>  -0.1570 
 21 C       10.2960     0.4050     0.8700 C.ar  1 <1>  -0.1570 
 22 N        6.1500    -3.3410     0.2100 N.3   1 <1>  -0.8130 
 23 C       11.6220     1.4070    -1.3360 C.ar  1 <1>  -0.1570 
 24 C       11.6740     0.5150     0.8850 C.ar  1 <1>  -0.1570 
 25 C        6.0650    -4.2520    -0.9590 C.3   1 <1>   0.1030 
 26 C        5.5920    -4.0580     1.3810 C.3   1 <1>   0.1030 
 27 C       12.3390     1.0160    -0.2190 C.ar  1 <1>  -0.1570 
 28 C        4.6240    -4.7400    -1.1930 C.3   1 <1>   0.1130 
 29 C        4.1560    -4.5420     1.1110 C.3   1 <1>   0.1130 
 30 O        4.1070    -5.3330    -0.0390 O.3   1 <1>  -0.5640 
 31 H        0.5280     3.1960    -0.6470 H     1 <1>   0.0730 
 32 H        1.8920     4.2670    -0.4710 H     1 <1>   0.0730 
 33 H        1.1480     3.5600     0.9500 H     1 <1>   0.0730 
 34 H        1.1020    -1.5400    -0.8360 H     1 <1>   0.0730 
 35 H        1.8720    -1.9180     0.6880 H     1 <1>   0.0730 
 36 H        2.7010    -2.2320    -0.8280 H     1 <1>   0.0730 
 37 H        5.0020    -1.9400    -0.2170 H     1 <1>   0.4450 
 38 H        7.3220     2.7190    -0.1890 H     1 <1>   0.1430 
 39 H        9.1520    -1.8000    -0.3010 H     1 <1>   0.0730 
 40 H        7.9810    -2.2260    -1.4980 H     1 <1>   0.0730 
 41 H        7.6380    -2.5810     1.4900 H     1 <1>   0.0730 
 42 H        8.1760    -3.8420     0.4290 H     1 <1>   0.0730 
 43 H        9.7070     1.6040    -2.2280 H     1 <1>   0.1430 
 44 H        9.7940     0.0160     1.7400 H     1 <1>   0.1430 
 45 H       12.1440     1.7980    -2.1930 H     1 <1>   0.1430 
 46 H       12.2340     0.2140     1.7540 H     1 <1>   0.1430 
 47 H        6.6940    -5.1140    -0.8040 H     1 <1>   0.0730 
 48 H        6.4060    -3.7500    -1.8470 H     1 <1>   0.0730 
 49 H        5.5860    -3.4070     2.2380 H     1 <1>   0.0730 
 50 H        6.2030    -4.9130     1.6180 H     1 <1>   0.0730 
 51 H       13.4120     1.1020    -0.2090 H     1 <1>   0.1430 
 52 H        4.6050    -5.4800    -1.9730 H     1 <1>   0.0730 
 53 H        3.9830    -3.9260    -1.4780 H     1 <1>   0.0730 
 54 H        3.4880    -3.7100     0.9860 H     1 <1>   0.0730 
 55 H        3.8070    -5.1420     1.9330 H     1 <1>   0.0730 
@<TRIPOS>BOND
  1   1   2  2   
  2   2   3  am  
  3   2   4  am  
  4   3   5  am  
  5   3   6  1   
  6   4   7  1   
  7   4   8  1   
  8   5   9  2   
  9   5  10  1   
 10   6  31  1   
 11   6  32  1   
 12   6  33  1   
 13   7  10  2   
 14   7  11  1   
 15   8  34  1   
 16   8  35  1   
 17   8  36  1   
 18  10  12  1   
 19  11  13  ar  
 20  11  37  1   
 21  12  13  ar  
 22  12  14  1   
 23  13  15  ar  
 24  14  16  2   
 25  14  38  1   
 26  15  16  1   
 27  15  17  1   
 28  16  18  1   
 29  17  19  1   
 30  17  39  1   
 31  17  40  1   
 32  18  20  ar  
 33  18  21  ar  
 34  19  22  1   
 35  19  41  1   
 36  19  42  1   
 37  20  23  ar  
 38  20  43  1   
 39  21  24  ar  
 40  21  44  1   
 41  22  25  1   
 42  22  26  1   
 43  23  27  ar  
 44  23  45  1   
 45  24  27  ar  
 46  24  46  1   
 47  25  28  1   
 48  25  47  1   
 49  25  48  1   
 50  26  29  1   
 51  26  49  1   
 52  26  50  1   
 53  27  51  1   
 54  28  30  1   
 55  28  52  1   
 56  28  53  1   
 57  29  30  1   
 58  29  54  1   
 59  29  55  1   
@<TRIPOS>SUBSTRUCTURE
  1 ****  13 GROUP 4 **** **** 0

# MOE 2024.06 (io_trps.svl 2023.06)
