@<TRIPOS>MOLECULE
2-Chloro-N-[5-(2-morpholin-4-yl-2-oxo-ethylsulfanyl)-[1,3,4]thiadiazol-2-yl]-ben
40 42 1 0 0 
SMALL
USER_CHARGES


@<TRIPOS>ATOM
  1 CL       3.0590    -1.7110    -1.9120 Cl    1 <1>  -0.1770 
  2 C        2.8170    -0.0750    -1.3460 C.ar  1 <1>   0.1770 
  3 C        2.5970     0.1740     0.0080 C.ar  1 <1>   0.0860 
  4 C        2.8430     0.9400    -2.2840 C.ar  1 <1>  -0.1500 
  5 C        2.5810    -0.8840     0.9920 C.2   1 <1>   0.5440 
  6 C        2.3790     1.5000     0.3830 C.ar  1 <1>  -0.1500 
  7 C        2.6350     2.2480    -1.8830 C.ar  1 <1>  -0.1500 
  8 O        1.5770    -1.1250     1.6240 O.2   1 <1>  -0.5700 
  9 N        3.6650    -1.6590     1.2840 N.am  1 <1>  -0.4940 
 10 C        2.4000     2.5250    -0.5470 C.ar  1 <1>  -0.1500 
 11 C        4.9820    -1.5200     0.9070 C.2   1 <1>   0.4420 
 12 S        6.0660    -2.8190     1.2970 S.3   1 <1>  -0.0800 
 13 N        5.5650    -0.5520     0.2950 N.2   1 <1>  -0.3380 
 14 C        7.3000    -1.8770     0.5380 C.2   1 <1>   0.4340 
 15 N        6.9020    -0.7600     0.0830 N.2   1 <1>  -0.3380 
 16 S        8.9620    -2.5440     0.4660 S.3   1 <1>  -0.2860 
 17 C        8.8460    -4.2710     1.1450 C.3   1 <1>   0.1310 
 18 C       10.2110    -4.9470     1.1500 C.2   1 <1>   0.5690 
 19 O       10.6740    -5.2210     2.2320 O.2   1 <1>  -0.5700 
 20 N       10.8720    -5.2590    -0.0140 N.am  1 <1>  -0.6600 
 21 C       10.3870    -4.9750    -1.4000 C.3   1 <1>   0.1400 
 22 C       12.2320    -5.8780     0.0080 C.3   1 <1>   0.1400 
 23 C       10.5770    -6.2020    -2.3080 C.3   1 <1>   0.1200 
 24 C       12.3130    -7.0540    -0.9790 C.3   1 <1>   0.1200 
 25 O       11.8980    -6.6580    -2.2560 O.3   1 <1>  -0.5600 
 26 H        3.0250     0.7070    -3.3180 H     1 <1>   0.1500 
 27 H        2.1910     1.7240     1.4200 H     1 <1>   0.1500 
 28 H        2.6560     3.0460    -2.6060 H     1 <1>   0.1500 
 29 H        3.4360    -2.4290     1.9080 H     1 <1>   0.3700 
 30 H        2.2330     3.5410    -0.2320 H     1 <1>   0.1500 
 31 H        8.1530    -4.8210     0.5380 H     1 <1>   0.0800 
 32 H        8.4770    -4.1930     2.1500 H     1 <1>   0.0800 
 33 H       10.9450    -4.1490    -1.8050 H     1 <1>   0.0800 
 34 H        9.3480    -4.7030    -1.4000 H     1 <1>   0.0800 
 35 H       12.4740    -6.2310     0.9950 H     1 <1>   0.0800 
 36 H       12.9620    -5.1370    -0.2660 H     1 <1>   0.0800 
 37 H       10.3590    -5.9450    -3.3300 H     1 <1>   0.0800 
 38 H        9.9240    -7.0030    -2.0070 H     1 <1>   0.0800 
 39 H       11.6910    -7.8680    -0.6490 H     1 <1>   0.0800 
 40 H       13.3270    -7.4040    -1.0570 H     1 <1>   0.0800 
@<TRIPOS>BOND
  1   1   2  1   
  2   2   3  ar  
  3   2   4  ar  
  4   3   5  1   
  5   3   6  ar  
  6   4   7  ar  
  7   4  26  1   
  8   5   8  2   
  9   5   9  am  
 10   6  10  ar  
 11   6  27  1   
 12   7  10  ar  
 13   7  28  1   
 14   9  11  1   
 15   9  29  1   
 16  10  30  1   
 17  11  12  1   
 18  11  13  2   
 19  12  14  1   
 20  13  15  1   
 21  14  15  2   
 22  14  16  1   
 23  16  17  1   
 24  17  18  1   
 25  17  31  1   
 26  17  32  1   
 27  18  19  2   
 28  18  20  am  
 29  20  21  1   
 30  20  22  1   
 31  21  23  1   
 32  21  33  1   
 33  21  34  1   
 34  22  24  1   
 35  22  35  1   
 36  22  36  1   
 37  23  25  1   
 38  23  37  1   
 39  23  38  1   
 40  24  25  1   
 41  24  39  1   
 42  24  40  1   
@<TRIPOS>SUBSTRUCTURE
  1 ****  14 GROUP 4 **** **** 0

# MOE 2024.06 (io_trps.svl 2023.06)
