@<TRIPOS>MOLECULE
1,3,7-Trimethyl-1H,8H-imidazo[2,1-f]purine-2,4-dione
29 31 1 0 0 
SMALL
USER_CHARGES


@<TRIPOS>ATOM
  1 O        0.5130     0.1610    -0.0730 O.2   1 <1>  -0.5790 
  2 C        1.5370     0.8130    -0.0500 C.2   1 <1>   0.6830 
  3 N        1.4790     2.1990     0.0690 N.am  1 <1>  -0.4310 
  4 N        2.7670     0.1690    -0.1400 N.am  1 <1>  -0.4460 
  5 C        2.6350     2.9700     0.0850 C.2   1 <1>   0.6960 
  6 C        0.1410     2.8640     0.1520 C.3   1 <1>   0.0460 
  7 C        3.9110     0.9390    -0.0900 C.2   1 <1>   0.4160 
  8 C        2.8400    -1.3170    -0.2680 C.3   1 <1>   0.0460 
  9 O        2.5840     4.1870     0.1560 O.2   1 <1>  -0.5790 
 10 C        3.8860     2.2900     0.0150 C.2   1 <1>   0.2650 
 11 N        5.2100     0.5110    -0.1330 N.pl3 1 <1>  -0.7070 
 12 N        5.2260     2.7050     0.0320 N.pl3 1 <1>  -0.6370 
 13 C        5.9640     1.6100    -0.0570 C.cat 1 <1>   1.0670 
 14 C        6.0930     3.7810     0.1050 C.2   1 <1>   0.2160 
 15 N        7.2580     1.9050    -0.0470 N.pl3 1 <1>  -0.6970 
 16 C        7.3480     3.2800     0.0560 C.2   1 <1>   0.1510 
 17 C        8.6900     3.9790     0.0960 C.3   1 <1>  -0.1160 
 18 H       -0.5300     2.2730     0.7530 H     1 <1>   0.0660 
 19 H       -0.2730     2.9620    -0.8360 H     1 <1>   0.0660 
 20 H        0.2200     3.8390     0.5990 H     1 <1>   0.0660 
 21 H        1.9370    -1.7020    -0.7110 H     1 <1>   0.0660 
 22 H        2.9590    -1.7580     0.7060 H     1 <1>   0.0660 
 23 H        3.6640    -1.6010    -0.8960 H     1 <1>   0.0660 
 24 H        5.5420    -0.4480    -0.2000 H     1 <1>   0.4400 
 25 H        5.7480     4.8010     0.1850 H     1 <1>   0.1360 
 26 H        8.0350     1.2450    -0.1030 H     1 <1>   0.4400 
 27 H        9.2600     3.6420     0.9440 H     1 <1>   0.0660 
 28 H        8.5550     5.0440     0.1780 H     1 <1>   0.0660 
 29 H        9.2440     3.7730    -0.8020 H     1 <1>   0.0660 
@<TRIPOS>BOND
  1   1   2  2   
  2   2   3  am  
  3   2   4  am  
  4   3   5  am  
  5   3   6  1   
  6   4   7  1   
  7   4   8  1   
  8   5   9  2   
  9   5  10  1   
 10   6  18  1   
 11   6  19  1   
 12   6  20  1   
 13   7  10  2   
 14   7  11  1   
 15   8  21  1   
 16   8  22  1   
 17   8  23  1   
 18  10  12  1   
 19  11  13  ar  
 20  11  24  1   
 21  12  13  ar  
 22  12  14  1   
 23  13  15  ar  
 24  14  16  2   
 25  14  25  1   
 26  15  16  1   
 27  15  26  1   
 28  16  17  1   
 29  17  27  1   
 30  17  28  1   
 31  17  29  1   
@<TRIPOS>SUBSTRUCTURE
  1 ****  10 GROUP 4 **** **** 0

# MOE 2024.06 (io_trps.svl 2023.06)
