@<TRIPOS>MOLECULE
4-[3-(4-Methoxy-phenyl)-[1,2,4]oxadiazol-5-yl]-1-morpholin-4-yl-butan-1-one
45 47 1 0 0 
SMALL
USER_CHARGES


@<TRIPOS>ATOM
  1 O       -0.9490    -0.7370     1.0860 O.2   1 <1>  -0.5700 
  2 C       -1.1340    -1.5970     0.2580 C.2   1 <1>   0.5690 
  3 N       -0.2120    -2.5870     0.0330 N.am  1 <1>  -0.6600 
  4 C       -2.4270    -1.5630    -0.5500 C.3   1 <1>  -0.0990 
  5 C        1.0560    -2.6610     0.8210 C.3   1 <1>   0.1400 
  6 C       -0.3450    -3.7100    -0.9450 C.3   1 <1>   0.1400 
  7 C       -3.4040    -0.4350    -0.1550 C.3   1 <1>  -0.1600 
  8 C        1.2460    -4.0690     1.4090 C.3   1 <1>   0.1200 
  9 C       -0.0830    -5.0590    -0.2540 C.3   1 <1>   0.1200 
 10 C       -4.6470    -0.3560    -1.0590 C.3   1 <1>   0.0200 
 11 O        1.1500    -5.0430     0.4070 O.3   1 <1>  -0.5600 
 12 C       -5.4250    -1.6590    -1.1070 C.2   1 <1>   0.2980 
 13 O       -5.0860    -2.5610    -1.9910 O.3   1 <1>  -0.0190 
 14 N       -6.3930    -1.9740    -0.3520 N.2   1 <1>  -0.5650 
 15 N       -5.9020    -3.5420    -1.7690 N.2   1 <1>  -0.4100 
 16 C       -6.6790    -3.2000    -0.8030 C.2   1 <1>   0.4620 
 17 C       -7.7400    -4.0170    -0.2380 C.ar  1 <1>   0.0540 
 18 C       -8.5130    -3.5770     0.8400 C.ar  1 <1>  -0.1500 
 19 C       -8.0310    -5.2840    -0.7500 C.ar  1 <1>  -0.1500 
 20 C       -9.5190    -4.3590     1.3760 C.ar  1 <1>  -0.1500 
 21 C       -9.0350    -6.0730    -0.2200 C.ar  1 <1>  -0.1500 
 22 C       -9.7900    -5.6120     0.8540 C.ar  1 <1>   0.0820 
 23 O      -10.7900    -6.3170     1.4340 O.3   1 <1>  -0.3630 
 24 C      -11.1450    -7.6030     0.9770 C.3   1 <1>   0.0400 
 25 H       -2.9180    -2.5080    -0.4100 H     1 <1>   0.0800 
 26 H       -2.1680    -1.4600    -1.5880 H     1 <1>   0.0800 
 27 H        1.0500    -1.9430     1.6230 H     1 <1>   0.0800 
 28 H        1.8870    -2.4300     0.1780 H     1 <1>   0.0800 
 29 H        0.3770    -3.5770    -1.7330 H     1 <1>   0.0800 
 30 H       -1.3210    -3.7310    -1.3920 H     1 <1>   0.0800 
 31 H       -2.8890     0.5100    -0.1950 H     1 <1>   0.0800 
 32 H       -3.7190    -0.5880     0.8640 H     1 <1>   0.0800 
 33 H        0.4990    -4.2680     2.1580 H     1 <1>   0.0800 
 34 H        2.2180    -4.1550     1.8590 H     1 <1>   0.0800 
 35 H       -0.0550    -5.8510    -0.9810 H     1 <1>   0.0800 
 36 H       -0.8560    -5.2740     0.4630 H     1 <1>   0.0800 
 37 H       -4.3580    -0.0840    -2.0580 H     1 <1>   0.0800 
 38 H       -5.2980     0.4150    -0.6860 H     1 <1>   0.0800 
 39 H       -8.3240    -2.6070     1.2650 H     1 <1>   0.1500 
 40 H       -7.4570    -5.6570    -1.5810 H     1 <1>   0.1500 
 41 H      -10.1030    -4.0030     2.2060 H     1 <1>   0.1500 
 42 H       -9.2150    -7.0390    -0.6530 H     1 <1>   0.1500 
 43 H      -11.9560    -7.9610     1.5850 H     1 <1>   0.0800 
 44 H      -10.2960    -8.2560     1.0790 H     1 <1>   0.0800 
 45 H      -11.4600    -7.5340    -0.0490 H     1 <1>   0.0800 
@<TRIPOS>BOND
  1   1   2  2   
  2   2   3  am  
  3   2   4  1   
  4   3   5  1   
  5   3   6  1   
  6   4   7  1   
  7   4  25  1   
  8   4  26  1   
  9   5   8  1   
 10   5  27  1   
 11   5  28  1   
 12   6   9  1   
 13   6  29  1   
 14   6  30  1   
 15   7  10  1   
 16   7  31  1   
 17   7  32  1   
 18   8  11  1   
 19   8  33  1   
 20   8  34  1   
 21   9  11  1   
 22   9  35  1   
 23   9  36  1   
 24  10  12  1   
 25  10  37  1   
 26  10  38  1   
 27  12  13  1   
 28  12  14  2   
 29  13  15  1   
 30  14  16  1   
 31  15  16  2   
 32  16  17  1   
 33  17  18  ar  
 34  17  19  ar  
 35  18  20  ar  
 36  18  39  1   
 37  19  21  ar  
 38  19  40  1   
 39  20  22  ar  
 40  20  41  1   
 41  21  22  ar  
 42  21  42  1   
 43  22  23  1   
 44  23  24  1   
 45  24  43  1   
 46  24  44  1   
 47  24  45  1   
@<TRIPOS>SUBSTRUCTURE
  1 ****  15 GROUP 4 **** **** 0

# MOE 2024.06 (io_trps.svl 2023.06)
