@<TRIPOS>MOLECULE
2-Chloro-1-(2,6-dimethyl-piperidin-1-yl)-propan-1-one
31 31 1 0 0 
SMALL
USER_CHARGES


@<TRIPOS>ATOM
  1 CL       1.2460     0.0470     0.9810 Cl    1 <1>  -0.2900 
  2 C        0.8780    -1.5780     0.4070 C.3   1 <1>   0.2710 
  3 C        1.9480    -2.0200    -0.6040 C.2   1 <1>   0.5690 
  4 C       -0.5530    -1.5530    -0.1470 C.3   1 <1>  -0.2400 
  5 O        1.9010    -1.5950    -1.7380 O.2   1 <1>  -0.5700 
  6 N        2.9670    -2.8480    -0.2040 N.am  1 <1>  -0.6600 
  7 C        2.7490    -4.2630     0.2570 C.3   1 <1>   0.2200 
  8 C        4.3680    -2.4630    -0.5740 C.3   1 <1>   0.2200 
  9 C        3.7230    -5.1960    -0.4800 C.3   1 <1>  -0.1600 
 10 C        1.3200    -4.7650     0.0080 C.3   1 <1>  -0.2400 
 11 C        5.3890    -3.3700     0.1290 C.3   1 <1>  -0.1600 
 12 C        4.6430    -1.0070    -0.1770 C.3   1 <1>  -0.2400 
 13 C        5.1960    -4.8520    -0.2190 C.3   1 <1>  -0.1600 
 14 H        0.9280    -2.2060     1.2750 H     1 <1>   0.0800 
 15 H       -0.8260    -2.5280    -0.5030 H     1 <1>   0.0800 
 16 H       -0.6140    -0.8620    -0.9690 H     1 <1>   0.0800 
 17 H       -1.2430    -1.2570     0.6220 H     1 <1>   0.0800 
 18 H        2.9570    -4.3140     1.3140 H     1 <1>   0.0800 
 19 H        4.4790    -2.5650    -1.6420 H     1 <1>   0.0800 
 20 H        3.5240    -5.1240    -1.5360 H     1 <1>   0.0800 
 21 H        3.5510    -6.2180    -0.1900 H     1 <1>   0.0800 
 22 H        1.0400    -4.6200    -1.0210 H     1 <1>   0.0800 
 23 H        0.6140    -4.2820     0.6530 H     1 <1>   0.0800 
 24 H        1.2620    -5.8170     0.2220 H     1 <1>   0.0800 
 25 H        5.2900    -3.2360     1.1920 H     1 <1>   0.0800 
 26 H        6.3870    -3.0740    -0.1410 H     1 <1>   0.0800 
 27 H        4.4520    -0.8580     0.8710 H     1 <1>   0.0800 
 28 H        4.0300    -0.3330    -0.7480 H     1 <1>   0.0800 
 29 H        5.6680    -0.7580    -0.3780 H     1 <1>   0.0800 
 30 H        5.7690    -5.0960    -1.0970 H     1 <1>   0.0800 
 31 H        5.5740    -5.4490     0.5930 H     1 <1>   0.0800 
@<TRIPOS>BOND
  1   1   2  1   
  2   2   3  1   
  3   2   4  1   
  4   2  14  1   
  5   3   5  2   
  6   3   6  am  
  7   4  15  1   
  8   4  16  1   
  9   4  17  1   
 10   6   7  1   
 11   6   8  1   
 12   7   9  1   
 13   7  10  1   
 14   7  18  1   
 15   8  11  1   
 16   8  12  1   
 17   8  19  1   
 18   9  13  1   
 19   9  20  1   
 20   9  21  1   
 21  10  22  1   
 22  10  23  1   
 23  10  24  1   
 24  11  13  1   
 25  11  25  1   
 26  11  26  1   
 27  12  27  1   
 28  12  28  1   
 29  12  29  1   
 30  13  30  1   
 31  13  31  1   
@<TRIPOS>SUBSTRUCTURE
  1 ****   6 GROUP 4 **** **** 0

# MOE 2024.06 (io_trps.svl 2023.06)
