@<TRIPOS>MOLECULE
Cyclohexanecarboxylic acid {2-[3-(2-chloro-phenyl)-[1,2,4]oxadiazol-5-yl]-ethyl}
43 45 1 0 0 
SMALL
USER_CHARGES


@<TRIPOS>ATOM
  1 CL      -0.1040     0.3020    -0.5760 Cl    1 <1>  -0.1770 
  2 C        0.2930    -1.3570    -0.1880 C.ar  1 <1>   0.1770 
  3 C        1.6070    -1.8170    -0.2810 C.ar  1 <1>   0.0540 
  4 C       -0.7480    -2.1830     0.1920 C.ar  1 <1>  -0.1500 
  5 C        2.7100    -0.9650    -0.6620 C.2   1 <1>   0.4620 
  6 C        1.8280    -3.1650     0.0080 C.ar  1 <1>  -0.1500 
  7 C       -0.4980    -3.5130     0.4830 C.ar  1 <1>  -0.1500 
  8 N        3.5420    -1.2110    -1.6090 N.2   1 <1>  -0.4100 
  9 N        3.0010     0.1720    -0.0260 N.2   1 <1>  -0.5650 
 10 C        0.7930    -4.0020     0.3860 C.ar  1 <1>  -0.1500 
 11 O        4.3950    -0.2360    -1.6490 O.3   1 <1>  -0.0190 
 12 C        4.0170     0.5560    -0.6800 C.2   1 <1>   0.2980 
 13 C        4.8020     1.8220    -0.4180 C.3   1 <1>   0.0200 
 14 C        6.1520     1.4820     0.2130 C.3   1 <1>   0.1400 
 15 N        6.8950     2.7250     0.5320 N.am  1 <1>  -0.7300 
 16 C        7.6290     3.4260    -0.3710 C.2   1 <1>   0.5690 
 17 O        7.6810     3.0900    -1.5300 O.2   1 <1>  -0.5700 
 18 C        8.3860     4.6670     0.1000 C.3   1 <1>  -0.0190 
 19 C        7.8360     5.9430    -0.5650 C.3   1 <1>  -0.1600 
 20 C        9.9000     4.5330    -0.1550 C.3   1 <1>  -0.1600 
 21 C        8.5990     7.1940    -0.1050 C.3   1 <1>  -0.1600 
 22 C       10.6630     5.7830     0.3050 C.3   1 <1>  -0.1600 
 23 C       10.1050     7.0480    -0.3590 C.3   1 <1>  -0.1600 
 24 H       -1.7460    -1.7880     0.2560 H     1 <1>   0.1500 
 25 H        2.8280    -3.5570    -0.0660 H     1 <1>   0.1500 
 26 H       -1.3040    -4.1630     0.7800 H     1 <1>   0.1500 
 27 H        0.9910    -5.0370     0.6070 H     1 <1>   0.1500 
 28 H        4.2380     2.4510     0.2460 H     1 <1>   0.0800 
 29 H        4.9520     2.3400    -1.3490 H     1 <1>   0.0800 
 30 H        6.7310     0.8880    -0.4750 H     1 <1>   0.0800 
 31 H        6.0050     0.9110     1.1140 H     1 <1>   0.0800 
 32 H        6.8530     3.0420     1.5020 H     1 <1>   0.3700 
 33 H        8.2410     4.7620     1.1610 H     1 <1>   0.0800 
 34 H        6.7910     6.0520    -0.3310 H     1 <1>   0.0800 
 35 H        7.9230     5.8490    -1.6350 H     1 <1>   0.0800 
 36 H       10.0690     4.3830    -1.2090 H     1 <1>   0.0800 
 37 H       10.2790     3.6690     0.3620 H     1 <1>   0.0800 
 38 H        8.4280     7.3530     0.9460 H     1 <1>   0.0800 
 39 H        8.2280     8.0560    -0.6330 H     1 <1>   0.0800 
 40 H       11.7060     5.6790     0.0590 H     1 <1>   0.0800 
 41 H       10.5860     5.8780     1.3750 H     1 <1>   0.0800 
 42 H       10.6200     7.9130     0.0220 H     1 <1>   0.0800 
 43 H       10.2830     7.0000    -1.4200 H     1 <1>   0.0800 
@<TRIPOS>BOND
  1   1   2  1   
  2   2   3  ar  
  3   2   4  ar  
  4   3   5  1   
  5   3   6  ar  
  6   4   7  ar  
  7   4  24  1   
  8   5   8  2   
  9   5   9  1   
 10   6  10  ar  
 11   6  25  1   
 12   7  10  ar  
 13   7  26  1   
 14   8  11  1   
 15   9  12  2   
 16  10  27  1   
 17  11  12  1   
 18  12  13  1   
 19  13  14  1   
 20  13  28  1   
 21  13  29  1   
 22  14  15  1   
 23  14  30  1   
 24  14  31  1   
 25  15  16  am  
 26  15  32  1   
 27  16  17  2   
 28  16  18  1   
 29  18  19  1   
 30  18  20  1   
 31  18  33  1   
 32  19  21  1   
 33  19  34  1   
 34  19  35  1   
 35  20  22  1   
 36  20  36  1   
 37  20  37  1   
 38  21  23  1   
 39  21  38  1   
 40  21  39  1   
 41  22  23  1   
 42  22  40  1   
 43  22  41  1   
 44  23  42  1   
 45  23  43  1   
@<TRIPOS>SUBSTRUCTURE
  1 ****  13 GROUP 4 **** **** 0

# MOE 2024.06 (io_trps.svl 2023.06)
