@<TRIPOS>MOLECULE
3-Ethyl-isoxazole-5-carboxylic acid
16 16 1 0 0 
SMALL
USER_CHARGES


@<TRIPOS>ATOM
  1 O        0.0300     0.4670    -0.3290 O.co2 1 <1>  -0.9000 
  2 C        0.5380     1.4290     0.2750 C.2   1 <1>   1.0320 
  3 O        0.0010     1.8170     1.3320 O.co2 1 <1>  -0.9000 
  4 C        1.7210     2.1050    -0.2070 C.2   1 <1>  -0.0920 
  5 O        2.3430     1.7550    -1.3130 O.3   1 <1>  -0.0190 
  6 C        2.4120     3.1510     0.2970 C.2   1 <1>  -0.1500 
  7 N        3.3870     2.4970    -1.5640 N.2   1 <1>  -0.4100 
  8 C        3.4490     3.3490    -0.6030 C.2   1 <1>   0.1080 
  9 C        4.5140     4.4210    -0.4800 C.3   1 <1>   0.0210 
 10 C        5.6170     3.9950     0.4950 C.3   1 <1>  -0.2400 
 11 H        2.1980     3.6990     1.1950 H     1 <1>   0.1500 
 12 H        4.0570     5.3320    -0.1390 H     1 <1>   0.0800 
 13 H        4.9390     4.6020    -1.4510 H     1 <1>   0.0800 
 14 H        5.2030     3.8240     1.4720 H     1 <1>   0.0800 
 15 H        6.3700     4.7600     0.5620 H     1 <1>   0.0800 
 16 H        6.0750     3.0840     0.1510 H     1 <1>   0.0800 
@<TRIPOS>BOND
  1   1   2  ar  
  2   2   3  ar  
  3   2   4  1   
  4   4   5  1   
  5   4   6  2   
  6   5   7  1   
  7   6   8  1   
  8   6  11  1   
  9   7   8  2   
 10   8   9  1   
 11   9  10  1   
 12   9  12  1   
 13   9  13  1   
 14  10  14  1   
 15  10  15  1   
 16  10  16  1   
@<TRIPOS>SUBSTRUCTURE
  1 ****   4 GROUP 4 **** **** 0

# MOE 2024.06 (io_trps.svl 2023.06)
