@<TRIPOS>MOLECULE
4-(3,4-Dimethoxy-benzyl)-morpholine-2,3-dione
34 35 1 0 0 
SMALL
USER_CHARGES


@<TRIPOS>ATOM
  1 O        0.8350     0.8020     0.1940 O.2   1 <1>  -0.5700 
  2 C        0.0930     1.7620     0.1490 C.2   1 <1>   0.7200 
  3 O        0.1280     2.5830     1.2110 O.3   1 <1>  -0.4300 
  4 C       -0.8290     2.0810    -0.9600 C.2   1 <1>   0.6300 
  5 C       -0.4240     3.8870     1.1610 C.3   1 <1>   0.1200 
  6 O       -0.8450     1.4490    -2.0050 O.2   1 <1>  -0.5700 
  7 N       -1.7220     3.1330    -0.8290 N.am  1 <1>  -0.6600 
  8 C       -1.7870     3.8920     0.4500 C.3   1 <1>   0.1400 
  9 C       -2.7950     3.4070    -1.8260 C.3   1 <1>   0.2840 
 10 C       -4.1520     3.1600    -1.1880 C.ar  1 <1>  -0.1440 
 11 C       -4.9620     4.2190    -0.8140 C.ar  1 <1>  -0.1500 
 12 C       -4.5890     1.8660    -0.9640 C.ar  1 <1>  -0.1500 
 13 C       -6.1940     4.0070    -0.2180 C.ar  1 <1>   0.0830 
 14 C       -5.8150     1.6340    -0.3650 C.ar  1 <1>  -0.1500 
 15 O       -6.8780     5.1460     0.0900 O.3   1 <1>  -0.3630 
 16 C       -6.6310     2.6940     0.0250 C.ar  1 <1>   0.0830 
 17 C       -8.2880     5.1830     0.0730 C.3   1 <1>   0.0400 
 18 O       -7.8260     2.4760     0.6500 O.3   1 <1>  -0.3630 
 19 C       -8.2620     1.1830     1.0120 C.3   1 <1>   0.0400 
 20 H        0.2710     4.5210     0.6380 H     1 <1>   0.0800 
 21 H       -0.5230     4.2440     2.1710 H     1 <1>   0.0800 
 22 H       -2.0820     4.9100     0.2560 H     1 <1>   0.0800 
 23 H       -2.5310     3.4490     1.0910 H     1 <1>   0.0800 
 24 H       -2.6890     2.7760    -2.6920 H     1 <1>   0.0800 
 25 H       -2.7180     4.4280    -2.1570 H     1 <1>   0.0800 
 26 H       -4.6470     5.2330    -0.9820 H     1 <1>   0.1500 
 27 H       -3.9690     1.0340    -1.2540 H     1 <1>   0.1500 
 28 H       -6.1080     0.6140    -0.2110 H     1 <1>   0.1500 
 29 H       -8.6570     4.7680     0.9940 H     1 <1>   0.0800 
 30 H       -8.6450     4.6180    -0.7700 H     1 <1>   0.0800 
 31 H       -8.5970     6.2080    -0.0120 H     1 <1>   0.0800 
 32 H       -9.2010     1.2800     1.5260 H     1 <1>   0.0800 
 33 H       -7.5320     0.7390     1.6650 H     1 <1>   0.0800 
 34 H       -8.3940     0.5960     0.1200 H     1 <1>   0.0800 
@<TRIPOS>BOND
  1   1   2  2   
  2   2   3  1   
  3   2   4  1   
  4   3   5  1   
  5   4   6  2   
  6   4   7  am  
  7   5   8  1   
  8   5  20  1   
  9   5  21  1   
 10   7   8  1   
 11   7   9  1   
 12   8  22  1   
 13   8  23  1   
 14   9  10  1   
 15   9  24  1   
 16   9  25  1   
 17  10  11  ar  
 18  10  12  ar  
 19  11  13  ar  
 20  11  26  1   
 21  12  14  ar  
 22  12  27  1   
 23  13  15  1   
 24  13  16  ar  
 25  14  16  ar  
 26  14  28  1   
 27  15  17  1   
 28  16  18  1   
 29  17  29  1   
 30  17  30  1   
 31  17  31  1   
 32  18  19  1   
 33  19  32  1   
 34  19  33  1   
 35  19  34  1   
@<TRIPOS>SUBSTRUCTURE
  1 ****  10 GROUP 4 **** **** 0

# MOE 2024.06 (io_trps.svl 2023.06)
