@<TRIPOS>MOLECULE
3-Methyl-8-(4-methyl-piperazin-1-yl)-7-(3-phenoxy-propyl)-3,7-dihydro-purine-2,6
57 60 1 0 0 
SMALL
USER_CHARGES


@<TRIPOS>ATOM
  1 O        1.4220     0.8500     1.9540 O.2   1 <1>  -0.5740 
  2 C        2.3060     1.2510     1.2350 C.2   1 <1>   0.6870 
  3 N        3.5970     0.7480     1.2970 N.am  1 <1>  -0.4410 
  4 N        2.0180     2.2330     0.3340 N.am  1 <1>  -0.4950 
  5 C        4.5440     1.3030     0.4480 C.2   1 <1>   0.4210 
  6 C        3.9490    -0.3330     2.2640 C.3   1 <1>   0.0530 
  7 C        2.9350     2.7750    -0.5190 C.2   1 <1>   0.7000 
  8 N        5.8560     0.9750     0.3530 N.pl3 1 <1>  -0.7030 
  9 C        4.2840     2.2860    -0.4400 C.2   1 <1>   0.2710 
 10 O        2.5680     3.6290    -1.3020 O.2   1 <1>  -0.5740 
 11 C        6.4380     1.7460    -0.5730 C.cat 1 <1>   1.0690 
 12 N        5.5050     2.5750    -1.0910 N.pl3 1 <1>  -0.7670 
 13 N        7.7660     1.6090    -0.8770 N.pl3 1 <1>  -0.5960 
 14 C        5.5410     3.7040    -2.0700 C.3   1 <1>   0.3490 
 15 C        8.6460     0.5390    -0.2720 C.3   1 <1>   0.1610 
 16 C        8.5150     2.4730    -1.8600 C.3   1 <1>   0.1610 
 17 C        5.5060     5.0740    -1.3650 C.3   1 <1>  -0.1660 
 18 C        9.9260     1.1020     0.3990 C.3   1 <1>   0.3380 
 19 C       10.0530     2.4720    -1.6790 C.3   1 <1>   0.3380 
 20 C        6.7990     5.4950    -0.6570 C.3   1 <1>   0.1130 
 21 N       10.4400     2.3600    -0.2370 N.4   1 <1>  -0.9610 
 22 O        7.1560     4.5070     0.2870 O.3   1 <1>  -0.3680 
 23 C       11.9160     2.4930    -0.0500 C.3   1 <1>   0.2570 
 24 C        8.3230     4.5550     0.9680 C.ar  1 <1>   0.0760 
 25 C        8.4410     3.7050     2.0570 C.ar  1 <1>  -0.1570 
 26 C        9.3890     5.3820     0.6240 C.ar  1 <1>  -0.1570 
 27 C        9.6130     3.6630     2.7900 C.ar  1 <1>  -0.1570 
 28 C       10.5610     5.3370     1.3580 C.ar  1 <1>  -0.1570 
 29 C       10.6750     4.4770     2.4370 C.ar  1 <1>  -0.1570 
 30 H        1.0580     2.5710     0.3010 H     1 <1>   0.3650 
 31 H        3.0610    -0.7590     2.7020 H     1 <1>   0.0730 
 32 H        4.5560     0.0690     3.0560 H     1 <1>   0.0730 
 33 H        4.4820    -1.1210     1.7620 H     1 <1>   0.0730 
 34 H        6.3030     0.2550     0.9070 H     1 <1>   0.4450 
 35 H        4.6740     3.6300    -2.7060 H     1 <1>   0.0730 
 36 H        6.3890     3.6380    -2.7230 H     1 <1>   0.0730 
 37 H        8.9490    -0.1310    -1.0600 H     1 <1>   0.0730 
 38 H        8.1210    -0.0580     0.4500 H     1 <1>   0.0730 
 39 H        8.2020     3.4900    -1.7510 H     1 <1>   0.0730 
 40 H        8.2820     2.1610    -2.8650 H     1 <1>   0.0730 
 41 H        4.6910     5.1190    -0.6660 H     1 <1>   0.0730 
 42 H        5.2980     5.8180    -2.1130 H     1 <1>   0.0730 
 43 H       10.6880     0.3400     0.3620 H     1 <1>   0.0730 
 44 H        9.7240     1.2970     1.4400 H     1 <1>   0.0730 
 45 H       10.4600     3.3760    -2.1010 H     1 <1>   0.0730 
 46 H       10.4710     1.6420    -2.2250 H     1 <1>   0.0730 
 47 H        6.6620     6.4260    -0.1320 H     1 <1>   0.0730 
 48 H        7.5900     5.6020    -1.3760 H     1 <1>   0.0730 
 49 H       10.0070     3.1570     0.2760 H     1 <1>   0.4450 
 50 H       12.4350     1.6920    -0.5520 H     1 <1>   0.0730 
 51 H       12.1620     2.4630     0.9990 H     1 <1>   0.0730 
 52 H       12.2590     3.4340    -0.4520 H     1 <1>   0.0730 
 53 H        7.6040     3.0950     2.3450 H     1 <1>   0.1430 
 54 H        9.3270     6.0770    -0.1930 H     1 <1>   0.1430 
 55 H        9.6970     3.0170     3.6490 H     1 <1>   0.1430 
 56 H       11.3830     5.9880     1.1040 H     1 <1>   0.1430 
 57 H       11.5840     4.4600     3.0180 H     1 <1>   0.1430 
@<TRIPOS>BOND
  1   1   2  2   
  2   2   3  am  
  3   2   4  am  
  4   3   5  1   
  5   3   6  1   
  6   4   7  am  
  7   4  30  1   
  8   5   8  1   
  9   5   9  2   
 10   6  31  1   
 11   6  32  1   
 12   6  33  1   
 13   7   9  1   
 14   7  10  2   
 15   8  11  ar  
 16   8  34  1   
 17   9  12  1   
 18  11  12  ar  
 19  11  13  ar  
 20  12  14  1   
 21  13  15  1   
 22  13  16  1   
 23  14  17  1   
 24  14  35  1   
 25  14  36  1   
 26  15  18  1   
 27  15  37  1   
 28  15  38  1   
 29  16  19  1   
 30  16  39  1   
 31  16  40  1   
 32  17  20  1   
 33  17  41  1   
 34  17  42  1   
 35  18  21  1   
 36  18  43  1   
 37  18  44  1   
 38  19  21  1   
 39  19  45  1   
 40  19  46  1   
 41  20  22  1   
 42  20  47  1   
 43  20  48  1   
 44  21  23  1   
 45  21  49  1   
 46  22  24  1   
 47  23  50  1   
 48  23  51  1   
 49  23  52  1   
 50  24  25  ar  
 51  24  26  ar  
 52  25  27  ar  
 53  25  53  1   
 54  26  28  ar  
 55  26  54  1   
 56  27  29  ar  
 57  27  55  1   
 58  28  29  ar  
 59  28  56  1   
 60  29  57  1   
@<TRIPOS>SUBSTRUCTURE
  1 ****  11 GROUP 4 **** **** 0

# MOE 2024.06 (io_trps.svl 2023.06)
