@<TRIPOS>MOLECULE
N-Cyclopentyl-4-[3-(2-methoxy-phenyl)-[1,2,4]oxadiazol-5-yl]-butyramide
47 49 1 0 0 
SMALL
USER_CHARGES


@<TRIPOS>ATOM
  1 O       -0.1010    -2.0590    -1.1930 O.2   1 <1>  -0.5700 
  2 C       -1.2240    -2.3380    -0.8600 C.2   1 <1>   0.5690 
  3 N       -1.4730    -3.5150    -0.2420 N.am  1 <1>  -0.7300 
  4 C       -2.3380    -1.3450    -1.1370 C.3   1 <1>  -0.0990 
  5 C       -2.7400    -4.0570     0.2860 C.3   1 <1>   0.2200 
  6 C       -2.6520    -0.4700     0.0950 C.3   1 <1>  -0.1600 
  7 C       -2.5990    -4.2740     1.7860 C.3   1 <1>  -0.1600 
  8 C       -2.9440    -5.4640    -0.2580 C.3   1 <1>  -0.1600 
  9 C       -4.1110     0.0170     0.1170 C.3   1 <1>   0.0200 
 10 C       -1.8770    -5.6170     1.9450 C.3   1 <1>  -0.1600 
 11 C       -2.0990    -6.3810     0.6330 C.3   1 <1>  -0.1600 
 12 C       -5.0540    -1.1420     0.3810 C.2   1 <1>   0.2980 
 13 O       -5.1230    -1.6280     1.5920 O.3   1 <1>  -0.0190 
 14 N       -5.7640    -1.7340    -0.4870 N.2   1 <1>  -0.5650 
 15 N       -5.9300    -2.6340     1.4820 N.2   1 <1>  -0.4100 
 16 C       -6.3200    -2.6970     0.2570 C.2   1 <1>   0.4620 
 17 C       -7.1810    -3.7050    -0.3280 C.ar  1 <1>   0.0540 
 18 C       -8.3600    -4.1500     0.2880 C.ar  1 <1>   0.0820 
 19 C       -6.8300    -4.2770    -1.5520 C.ar  1 <1>  -0.1500 
 20 O       -8.7220    -3.5700     1.4610 O.3   1 <1>  -0.3620 
 21 C       -9.1280    -5.1480    -0.3070 C.ar  1 <1>  -0.1500 
 22 C       -7.5970    -5.2640    -2.1400 C.ar  1 <1>  -0.1500 
 23 C       -9.8310    -4.0050     2.2150 C.3   1 <1>   0.0400 
 24 C       -8.7480    -5.7030    -1.5140 C.ar  1 <1>  -0.1500 
 25 H       -0.6630    -4.1160    -0.0850 H     1 <1>   0.3700 
 26 H       -3.1990    -1.8900    -1.4700 H     1 <1>   0.0800 
 27 H       -2.0390    -0.7130    -1.9540 H     1 <1>   0.0800 
 28 H       -3.5700    -3.4180     0.0510 H     1 <1>   0.0800 
 29 H       -1.9840     0.3750     0.0990 H     1 <1>   0.0800 
 30 H       -2.4620    -1.0290     0.9960 H     1 <1>   0.0800 
 31 H       -3.5850    -4.3550     2.2100 H     1 <1>   0.0800 
 32 H       -2.0830    -3.4640     2.2700 H     1 <1>   0.0800 
 33 H       -2.6850    -5.5400    -1.3000 H     1 <1>   0.0800 
 34 H       -3.9820    -5.7240    -0.1410 H     1 <1>   0.0800 
 35 H       -4.3600     0.4790    -0.8220 H     1 <1>   0.0800 
 36 H       -4.2400     0.7490     0.8940 H     1 <1>   0.0800 
 37 H       -2.2660    -6.1620     2.7890 H     1 <1>   0.0800 
 38 H       -0.8240    -5.4510     2.0940 H     1 <1>   0.0800 
 39 H       -1.1500    -6.5750     0.1630 H     1 <1>   0.0800 
 40 H       -2.6000    -7.3180     0.8030 H     1 <1>   0.0800 
 41 H       -5.9360    -3.9410    -2.0480 H     1 <1>   0.1500 
 42 H      -10.0310    -5.5050     0.1510 H     1 <1>   0.1500 
 43 H       -7.3000    -5.6890    -3.0840 H     1 <1>   0.1500 
 44 H       -9.8720    -3.4170     3.1140 H     1 <1>   0.0800 
 45 H       -9.6990    -5.0430     2.4640 H     1 <1>   0.0800 
 46 H      -10.7270    -3.8540     1.6390 H     1 <1>   0.0800 
 47 H       -9.3470    -6.4740    -1.9690 H     1 <1>   0.1500 
@<TRIPOS>BOND
  1   1   2  2   
  2   2   3  am  
  3   2   4  1   
  4   3   5  1   
  5   3  25  1   
  6   4   6  1   
  7   4  26  1   
  8   4  27  1   
  9   5   7  1   
 10   5   8  1   
 11   5  28  1   
 12   6   9  1   
 13   6  29  1   
 14   6  30  1   
 15   7  10  1   
 16   7  31  1   
 17   7  32  1   
 18   8  11  1   
 19   8  33  1   
 20   8  34  1   
 21   9  12  1   
 22   9  35  1   
 23   9  36  1   
 24  10  11  1   
 25  10  37  1   
 26  10  38  1   
 27  11  39  1   
 28  11  40  1   
 29  12  13  1   
 30  12  14  2   
 31  13  15  1   
 32  14  16  1   
 33  15  16  2   
 34  16  17  1   
 35  17  18  ar  
 36  17  19  ar  
 37  18  20  1   
 38  18  21  ar  
 39  19  22  ar  
 40  19  41  1   
 41  20  23  1   
 42  21  24  ar  
 43  21  42  1   
 44  22  24  ar  
 45  22  43  1   
 46  23  44  1   
 47  23  45  1   
 48  23  46  1   
 49  24  47  1   
@<TRIPOS>SUBSTRUCTURE
  1 ****  16 GROUP 4 **** **** 0

# MOE 2024.06 (io_trps.svl 2023.06)
