@<TRIPOS>MOLECULE
3-(5,7-Dimethyl-1H-benzoimidazol-2-yl)-propionic acid
29 30 1 0 0 
SMALL
USER_CHARGES


@<TRIPOS>ATOM
  1 O       -0.7040     1.0230     0.1550 O.co2 1 <1>  -0.9000 
  2 C       -0.9840    -0.1150    -0.2310 C.2   1 <1>   0.9060 
  3 O       -0.1500    -1.0130    -0.3540 O.co2 1 <1>  -0.9000 
  4 C       -2.4240    -0.4050    -0.5480 C.3   1 <1>  -0.2660 
  5 C       -3.2120    -0.6540     0.7450 C.3   1 <1>   0.0200 
  6 C       -4.7060    -0.4830     0.5340 C.2   1 <1>   0.0060 
  7 N       -5.2190     0.7180     0.1750 N.pl3 1 <1>   0.0330 
  8 N       -5.5940    -1.4050     0.6780 N.2   1 <1>  -0.5650 
  9 C       -6.5600     0.5430     0.0780 C.ar  1 <1>  -0.1520 
 10 C       -6.7780    -0.7850     0.3940 C.ar  1 <1>   0.2270 
 11 C       -7.6120     1.3980    -0.2520 C.ar  1 <1>  -0.1500 
 12 C       -8.0790    -1.2970     0.3880 C.ar  1 <1>  -0.1440 
 13 C       -8.8950     0.8930    -0.2580 C.ar  1 <1>  -0.1430 
 14 C       -9.1210    -0.4530     0.0620 C.ar  1 <1>  -0.1500 
 15 C       -8.3090    -2.7570     0.7360 C.3   1 <1>  -0.0970 
 16 C      -10.0790     1.7740    -0.6080 C.3   1 <1>  -0.0970 
 17 H       -2.4790    -1.2650    -1.1880 H     1 <1>   0.0800 
 18 H       -2.8050     0.4440    -1.0780 H     1 <1>   0.0800 
 19 H       -2.8930     0.0440     1.5000 H     1 <1>   0.0800 
 20 H       -3.0010    -1.6450     1.1070 H     1 <1>   0.0800 
 21 H       -4.6800     1.5710     0.0030 H     1 <1>   0.2700 
 22 H       -7.4090     2.4260    -0.4930 H     1 <1>   0.1500 
 23 H      -10.1300    -0.8250     0.0510 H     1 <1>   0.1500 
 24 H       -7.9360    -2.9530     1.7250 H     1 <1>   0.0800 
 25 H       -7.7760    -3.3800     0.0400 H     1 <1>   0.0800 
 26 H       -9.3540    -3.0060     0.7000 H     1 <1>   0.0800 
 27 H       -9.7610     2.7770    -0.8290 H     1 <1>   0.0800 
 28 H      -10.7670     1.8070     0.2170 H     1 <1>   0.0800 
 29 H      -10.5870     1.3780    -1.4690 H     1 <1>   0.0800 
@<TRIPOS>BOND
  1   1   2  ar  
  2   2   3  ar  
  3   2   4  1   
  4   4   5  1   
  5   4  17  1   
  6   4  18  1   
  7   5   6  1   
  8   5  19  1   
  9   5  20  1   
 10   6   7  1   
 11   6   8  2   
 12   7   9  1   
 13   7  21  1   
 14   8  10  1   
 15   9  10  ar  
 16   9  11  ar  
 17  10  12  ar  
 18  11  13  ar  
 19  11  22  1   
 20  12  14  ar  
 21  12  15  1   
 22  13  14  ar  
 23  13  16  1   
 24  14  23  1   
 25  15  24  1   
 26  15  25  1   
 27  15  26  1   
 28  16  27  1   
 29  16  28  1   
 30  16  29  1   
@<TRIPOS>SUBSTRUCTURE
  1 ****   7 GROUP 4 **** **** 0

# MOE 2024.06 (io_trps.svl 2023.06)
