@<TRIPOS>MOLECULE
[4-(4-Fluoro-benzenesulfonyl)-piperazin-1-yl]-morpholin-4-yl-methanone
44 46 1 0 0 
SMALL
USER_CHARGES


@<TRIPOS>ATOM
  1 S       -0.1080    -0.2340    -1.4600 S.o2  1 <1>   1.4470 
  2 O        0.2330    -1.3690    -2.2900 O.2   1 <1>  -0.6500 
  3 O       -0.6300     0.9670    -2.0750 O.2   1 <1>  -0.6500 
  4 N       -1.2810    -0.7730    -0.3620 N.am  1 <1>  -0.8490 
  5 C        1.3060     0.1680    -0.3930 C.ar  1 <1>  -0.0090 
  6 C       -2.3930    -1.4370    -1.0660 C.3   1 <1>   0.1960 
  7 C       -1.8120     0.3210     0.4750 C.3   1 <1>   0.1960 
  8 C        1.7600     1.4800    -0.2630 C.ar  1 <1>  -0.1500 
  9 C        1.9550    -0.8320     0.3290 C.ar  1 <1>  -0.1500 
 10 C       -3.4420    -1.9990    -0.0900 C.3   1 <1>   0.1400 
 11 C       -2.8180    -0.2060     1.5120 C.3   1 <1>   0.1400 
 12 C        2.8290     1.7910     0.5610 C.ar  1 <1>  -0.1500 
 13 C        3.0270    -0.5410     1.1580 C.ar  1 <1>  -0.1500 
 14 N       -3.9300    -0.9390     0.8400 N.am  1 <1>  -0.6600 
 15 C        3.4440     0.7710     1.2590 C.ar  1 <1>   0.1900 
 16 C       -5.1110    -0.2950     0.5850 C.2   1 <1>   0.6900 
 17 F        4.4510     1.0560     2.0380 F     1 <1>  -0.1900 
 18 O       -5.1320     0.9230     0.5400 O.2   1 <1>  -0.5700 
 19 N       -6.2590    -1.0060     0.3570 N.am  1 <1>  -0.6600 
 20 C       -6.5660    -2.2990     1.0300 C.3   1 <1>   0.1400 
 21 C       -7.4600    -0.3590    -0.2400 C.3   1 <1>   0.1400 
 22 C       -7.3890    -3.2040     0.0980 C.3   1 <1>   0.1200 
 23 C       -8.2430    -1.3670    -1.0970 C.3   1 <1>   0.1200 
 24 O       -8.5240    -2.5320    -0.3700 O.3   1 <1>  -0.5600 
 25 H       -2.0110    -2.2510    -1.6580 H     1 <1>   0.0800 
 26 H       -2.8700    -0.7380    -1.7350 H     1 <1>   0.0800 
 27 H       -2.3030     1.0590    -0.1390 H     1 <1>   0.0800 
 28 H       -1.0050     0.8060     0.9960 H     1 <1>   0.0800 
 29 H        1.2710     2.2670    -0.8150 H     1 <1>   0.1500 
 30 H        1.6140    -1.8500     0.2360 H     1 <1>   0.1500 
 31 H       -3.0050    -2.7980     0.4820 H     1 <1>   0.0800 
 32 H       -4.2630    -2.4010    -0.6570 H     1 <1>   0.0800 
 33 H       -3.2130     0.6190     2.0810 H     1 <1>   0.0800 
 34 H       -2.3160    -0.8680     2.1950 H     1 <1>   0.0800 
 35 H        3.1820     2.8030     0.6620 H     1 <1>   0.1500 
 36 H        3.5300    -1.3120     1.7140 H     1 <1>   0.1500 
 37 H       -7.1370    -2.1020     1.9210 H     1 <1>   0.0800 
 38 H       -5.6630    -2.8020     1.3230 H     1 <1>   0.0800 
 39 H       -7.1630     0.4770    -0.8510 H     1 <1>   0.0800 
 40 H       -8.0920     0.0120     0.5480 H     1 <1>   0.0800 
 41 H       -7.7220    -4.0780     0.6280 H     1 <1>   0.0800 
 42 H       -6.8000    -3.5140    -0.7470 H     1 <1>   0.0800 
 43 H       -7.6770    -1.6350    -1.9720 H     1 <1>   0.0800 
 44 H       -9.1790    -0.9390    -1.4080 H     1 <1>   0.0800 
@<TRIPOS>BOND
  1   1   2  2   
  2   1   3  2   
  3   1   4  am  
  4   1   5  1   
  5   4   6  1   
  6   4   7  1   
  7   5   8  ar  
  8   5   9  ar  
  9   6  10  1   
 10   6  25  1   
 11   6  26  1   
 12   7  11  1   
 13   7  27  1   
 14   7  28  1   
 15   8  12  ar  
 16   8  29  1   
 17   9  13  ar  
 18   9  30  1   
 19  10  14  1   
 20  10  31  1   
 21  10  32  1   
 22  11  14  1   
 23  11  33  1   
 24  11  34  1   
 25  12  15  ar  
 26  12  35  1   
 27  13  15  ar  
 28  13  36  1   
 29  14  16  am  
 30  15  17  1   
 31  16  18  2   
 32  16  19  am  
 33  19  20  1   
 34  19  21  1   
 35  20  22  1   
 36  20  37  1   
 37  20  38  1   
 38  21  23  1   
 39  21  39  1   
 40  21  40  1   
 41  22  24  1   
 42  22  41  1   
 43  22  42  1   
 44  23  24  1   
 45  23  43  1   
 46  23  44  1   
@<TRIPOS>SUBSTRUCTURE
  1 ****   7 GROUP 4 **** **** 0

# MOE 2024.06 (io_trps.svl 2023.06)
