@<TRIPOS>MOLECULE
3,6,6-Trimethyl-4-oxo-4,5,6,7-tetrahydro-1H-indole-2-carboxylic acid
30 31 1 0 0 
SMALL
USER_CHARGES


@<TRIPOS>ATOM
  1 O       -0.0910    -0.6590    -1.4240 O.2   1 <1>  -0.5700 
  2 C       -0.4030    -1.5640    -0.6870 C.2   1 <1>   0.5950 
  3 C        0.4910    -2.5340    -0.1150 C.2   1 <1>  -0.0860 
  4 C       -1.8710    -1.6930    -0.2980 C.3   1 <1>  -0.0990 
  5 C        0.0610    -3.5810     0.6550 C.2   1 <1>  -0.3320 
  6 C        1.8920    -2.6670    -0.1710 C.2   1 <1>  -0.1810 
  7 C       -2.3260    -3.1550    -0.0440 C.3   1 <1>   0.0000 
  8 N        1.1130    -4.3160     1.0630 N.pl3 1 <1>   0.0330 
  9 C       -1.3960    -3.8480     0.9860 C.3   1 <1>   0.0200 
 10 C        2.2540    -3.7700     0.5620 C.2   1 <1>  -0.3840 
 11 C        2.8090    -1.7260    -0.9270 C.3   1 <1>  -0.0590 
 12 C       -3.7680    -3.1530     0.4890 C.3   1 <1>  -0.2400 
 13 C       -2.3080    -3.9390    -1.3710 C.3   1 <1>  -0.2400 
 14 C        3.5000    -4.4240     0.8900 C.2   1 <1>   1.0320 
 15 O        3.4580    -5.4440     1.6050 O.co2 1 <1>  -0.9000 
 16 O        4.6000    -4.0090     0.4890 O.co2 1 <1>  -0.9000 
 17 H       -2.4710    -1.2520    -1.0720 H     1 <1>   0.0800 
 18 H       -2.0110    -1.1130     0.5950 H     1 <1>   0.0800 
 19 H        1.1580    -5.1630     1.6480 H     1 <1>   0.2700 
 20 H       -1.5880    -3.4680     1.9740 H     1 <1>   0.0800 
 21 H       -1.5790    -4.9080     0.9960 H     1 <1>   0.0800 
 22 H        2.7040    -0.7290    -0.5420 H     1 <1>   0.0800 
 23 H        2.5530    -1.7290    -1.9700 H     1 <1>   0.0800 
 24 H        3.8350    -2.0280    -0.8240 H     1 <1>   0.0800 
 25 H       -3.8300    -2.6070     1.4130 H     1 <1>   0.0800 
 26 H       -4.1060    -4.1580     0.6660 H     1 <1>   0.0800 
 27 H       -4.4330    -2.6920    -0.2210 H     1 <1>   0.0800 
 28 H       -1.3110    -3.9960    -1.7730 H     1 <1>   0.0800 
 29 H       -2.9380    -3.4640    -2.1030 H     1 <1>   0.0800 
 30 H       -2.6600    -4.9440    -1.2220 H     1 <1>   0.0800 
@<TRIPOS>BOND
  1   1   2  2   
  2   2   3  1   
  3   2   4  1   
  4   3   5  2   
  5   3   6  1   
  6   4   7  1   
  7   4  17  1   
  8   4  18  1   
  9   5   8  1   
 10   5   9  1   
 11   6  10  2   
 12   6  11  1   
 13   7   9  1   
 14   7  12  1   
 15   7  13  1   
 16   8  10  1   
 17   8  19  1   
 18   9  20  1   
 19   9  21  1   
 20  10  14  1   
 21  11  22  1   
 22  11  23  1   
 23  11  24  1   
 24  12  25  1   
 25  12  26  1   
 26  12  27  1   
 27  13  28  1   
 28  13  29  1   
 29  13  30  1   
 30  14  15  ar  
 31  14  16  ar  
@<TRIPOS>SUBSTRUCTURE
  1 ****   3 GROUP 4 **** **** 0

# MOE 2024.06 (io_trps.svl 2023.06)
