@<TRIPOS>MOLECULE
3-(5-tert-Butyl-[1,2,4]oxadiazol-3-yl)-7-methyl-quinolin-2-ol
38 40 1 0 0 
SMALL
USER_CHARGES


@<TRIPOS>ATOM
  1 O       -0.4790     0.1790    -0.7950 O.3   1 <1>  -0.0190 
  2 N       -1.3710    -0.7550    -0.8960 N.2   1 <1>  -0.4100 
  3 C       -1.0710     1.1240    -0.1090 C.2   1 <1>   0.2980 
  4 C       -2.4260    -0.3600    -0.2770 C.2   1 <1>   0.4700 
  5 N       -2.2690     0.8640     0.2350 N.2   1 <1>  -0.5650 
  6 C       -0.2760     2.4060     0.1980 C.3   1 <1>   0.1800 
  7 C       -3.6750    -1.0680    -0.1470 C.2   1 <1>   0.0600 
  8 C        0.9760     2.0580     1.0190 C.3   1 <1>  -0.2400 
  9 C       -1.1210     3.4100     1.0040 C.3   1 <1>  -0.2400 
 10 C        0.1550     3.0800    -1.1160 C.3   1 <1>  -0.2400 
 11 C       -3.6650    -2.4890     0.0860 C.2   1 <1>   0.6160 
 12 C       -4.8820    -0.4280    -0.2310 C.2   1 <1>  -0.1780 
 13 O       -2.6670    -3.1640     0.2570 O.2   1 <1>  -0.5700 
 14 N       -4.8590    -3.1460     0.1580 N.am  1 <1>  -0.5470 
 15 C       -6.1220    -1.1260    -0.1240 C.ar  1 <1>   0.0280 
 16 C       -6.0930    -2.5160     0.0680 C.ar  1 <1>   0.1170 
 17 C       -7.3630    -0.4920    -0.2070 C.ar  1 <1>  -0.1500 
 18 C       -7.2830    -3.2300     0.1700 C.ar  1 <1>  -0.1500 
 19 C       -8.5340    -1.2110    -0.1040 C.ar  1 <1>  -0.1500 
 20 C       -8.5020    -2.5880     0.0850 C.ar  1 <1>  -0.1440 
 21 C       -9.8060    -3.3580     0.1950 C.3   1 <1>  -0.0970 
 22 H        0.6930     1.5750     1.9380 H     1 <1>   0.0800 
 23 H        1.5360     2.9440     1.2550 H     1 <1>   0.0800 
 24 H        1.6140     1.3880     0.4700 H     1 <1>   0.0800 
 25 H       -2.0030     3.6840     0.4510 H     1 <1>   0.0800 
 26 H       -0.5590     4.3020     1.2160 H     1 <1>   0.0800 
 27 H       -1.4320     2.9720     1.9360 H     1 <1>   0.0800 
 28 H        0.7830     2.4220    -1.6900 H     1 <1>   0.0800 
 29 H        0.7010     3.9850    -0.9180 H     1 <1>   0.0800 
 30 H       -0.7100     3.3230    -1.7080 H     1 <1>   0.0800 
 31 H       -4.9260     0.6350    -0.3870 H     1 <1>   0.1500 
 32 H       -4.7890    -4.1480     0.3240 H     1 <1>   0.3700 
 33 H       -7.4000     0.5730    -0.3530 H     1 <1>   0.1500 
 34 H       -7.2410    -4.2940     0.3160 H     1 <1>   0.1500 
 35 H       -9.4820    -0.7040    -0.1700 H     1 <1>   0.1500 
 36 H       -9.6240    -4.4080     0.3370 H     1 <1>   0.0800 
 37 H      -10.3840    -3.2300    -0.7030 H     1 <1>   0.0800 
 38 H      -10.3770    -2.9940     1.0300 H     1 <1>   0.0800 
@<TRIPOS>BOND
  1   1   2  1   
  2   1   3  1   
  3   2   4  2   
  4   3   5  2   
  5   3   6  1   
  6   4   5  1   
  7   4   7  1   
  8   6   8  1   
  9   6   9  1   
 10   6  10  1   
 11   7  11  1   
 12   7  12  2   
 13   8  22  1   
 14   8  23  1   
 15   8  24  1   
 16   9  25  1   
 17   9  26  1   
 18   9  27  1   
 19  10  28  1   
 20  10  29  1   
 21  10  30  1   
 22  11  13  2   
 23  11  14  am  
 24  12  15  1   
 25  12  31  1   
 26  14  16  1   
 27  14  32  1   
 28  15  16  ar  
 29  15  17  ar  
 30  16  18  ar  
 31  17  19  ar  
 32  17  33  1   
 33  18  20  ar  
 34  18  34  1   
 35  19  20  ar  
 36  19  35  1   
 37  20  21  1   
 38  21  36  1   
 39  21  37  1   
 40  21  38  1   
@<TRIPOS>SUBSTRUCTURE
  1 ****   7 GROUP 4 **** **** 0

# MOE 2024.06 (io_trps.svl 2023.06)
