@<TRIPOS>MOLECULE
4-(Morpholine-4-carbonyl)-piperazine-1-sulfonic acid dimethylamide
42 43 1 0 0 
SMALL
USER_CHARGES


@<TRIPOS>ATOM
  1 S       -0.3490    -0.2310     0.9800 S.o2  1 <1>   1.5760 
  2 O       -0.8860     0.6410     2.0010 O.2   1 <1>  -0.6500 
  3 O       -0.7650    -1.6130     0.8850 O.2   1 <1>  -0.6500 
  4 N        1.3350    -0.1890     1.0990 N.am  1 <1>  -0.8490 
  5 N       -0.5640     0.5100    -0.5350 N.am  1 <1>  -0.8490 
  6 C        2.0110    -1.0100     0.0830 C.3   1 <1>   0.1960 
  7 C        1.8740     1.1790     1.1210 C.3   1 <1>   0.1960 
  8 C       -1.0410    -0.4080    -1.5750 C.3   1 <1>   0.1160 
  9 C       -1.4050     1.7080    -0.4840 C.3   1 <1>   0.1160 
 10 C        3.5280    -1.0610     0.3260 C.3   1 <1>   0.1400 
 11 C        3.3940     1.1890     1.3690 C.3   1 <1>   0.1400 
 12 N        4.1000     0.3170     0.3830 N.am  1 <1>  -0.6600 
 13 C        4.7100     0.8580    -0.7180 C.2   1 <1>   0.6900 
 14 O        4.5260     0.3600    -1.8150 O.2   1 <1>  -0.5700 
 15 N        5.5180     1.9590    -0.5930 N.am  1 <1>  -0.6600 
 16 C        5.9020     2.7720    -1.7840 C.3   1 <1>   0.1400 
 17 C        6.4730     2.1020     0.5440 C.3   1 <1>   0.1400 
 18 C        7.3820     2.5500    -2.1360 C.3   1 <1>   0.1200 
 19 C        7.9230     1.9300     0.0590 C.3   1 <1>   0.1200 
 20 O        8.1930     2.7840    -1.0170 O.3   1 <1>  -0.5600 
 21 H        1.8320    -0.6090    -0.9000 H     1 <1>   0.0800 
 22 H        1.6230    -2.0140     0.1130 H     1 <1>   0.0800 
 23 H        1.3940     1.7420     1.9030 H     1 <1>   0.0800 
 24 H        1.6720     1.6700     0.1830 H     1 <1>   0.0800 
 25 H       -0.3740    -1.2480    -1.6620 H     1 <1>   0.0800 
 26 H       -1.0780     0.0950    -2.5260 H     1 <1>   0.0800 
 27 H       -2.0240    -0.7740    -1.3280 H     1 <1>   0.0800 
 28 H       -0.9800     2.4270     0.1960 H     1 <1>   0.0800 
 29 H       -2.3960     1.4560    -0.1450 H     1 <1>   0.0800 
 30 H       -1.4670     2.1620    -1.4580 H     1 <1>   0.0800 
 31 H        3.9990    -1.6260    -0.4600 H     1 <1>   0.0800 
 32 H        3.7210    -1.5650     1.2560 H     1 <1>   0.0800 
 33 H        3.5930     0.8320     2.3640 H     1 <1>   0.0800 
 34 H        3.7510     2.2000     1.2970 H     1 <1>   0.0800 
 35 H        5.7420     3.8130    -1.5680 H     1 <1>   0.0800 
 36 H        5.2890     2.5140    -2.6310 H     1 <1>   0.0800 
 37 H        6.2700     1.3670     1.3020 H     1 <1>   0.0800 
 38 H        6.3580     3.0770     0.9830 H     1 <1>   0.0800 
 39 H        7.6850     3.2300    -2.9110 H     1 <1>   0.0800 
 40 H        7.5400     1.5410    -2.4770 H     1 <1>   0.0800 
 41 H        8.0980     0.9160    -0.2550 H     1 <1>   0.0800 
 42 H        8.6110     2.1710     0.8490 H     1 <1>   0.0800 
@<TRIPOS>BOND
  1   1   2  2   
  2   1   3  2   
  3   1   4  am  
  4   1   5  am  
  5   4   6  1   
  6   4   7  1   
  7   5   8  1   
  8   5   9  1   
  9   6  10  1   
 10   6  21  1   
 11   6  22  1   
 12   7  11  1   
 13   7  23  1   
 14   7  24  1   
 15   8  25  1   
 16   8  26  1   
 17   8  27  1   
 18   9  28  1   
 19   9  29  1   
 20   9  30  1   
 21  10  12  1   
 22  10  31  1   
 23  10  32  1   
 24  11  12  1   
 25  11  33  1   
 26  11  34  1   
 27  12  13  am  
 28  13  14  2   
 29  13  15  am  
 30  15  16  1   
 31  15  17  1   
 32  16  18  1   
 33  16  35  1   
 34  16  36  1   
 35  17  19  1   
 36  17  37  1   
 37  17  38  1   
 38  18  20  1   
 39  18  39  1   
 40  18  40  1   
 41  19  20  1   
 42  19  41  1   
 43  19  42  1   
@<TRIPOS>SUBSTRUCTURE
  1 ****  12 GROUP 4 **** **** 0

# MOE 2024.06 (io_trps.svl 2023.06)
