@<TRIPOS>MOLECULE
2-(4-Bromo-benzenesulfonylamino)-N-(tetrahydro-furan-2-ylmethyl)-propionamide
41 42 1 0 0 
SMALL
USER_CHARGES


@<TRIPOS>ATOM
  1 BR       7.4340     1.0610    -1.4450 Br    1 <1>  -0.1110 
  2 C        6.9360    -0.6120    -0.6380 C.ar  1 <1>   0.1110 
  3 C        6.0060    -1.4110    -1.2730 C.ar  1 <1>  -0.1500 
  4 C        7.5240    -0.9770     0.5550 C.ar  1 <1>  -0.1500 
  5 C        5.6630    -2.6190    -0.6870 C.ar  1 <1>  -0.1500 
  6 C        7.1670    -2.1890     1.1220 C.ar  1 <1>  -0.1500 
  7 C        6.2410    -3.0330     0.5120 C.ar  1 <1>  -0.0090 
  8 S        5.8140    -4.6230     1.2800 S.o2  1 <1>   1.4470 
  9 O        6.9780    -5.2480     1.8680 O.2   1 <1>  -0.6500 
 10 O        4.6220    -4.4860     2.0810 O.2   1 <1>  -0.6500 
 11 N        5.3360    -5.6320     0.0290 N.am  1 <1>  -0.9140 
 12 C        6.4320    -6.3560    -0.6320 C.3   1 <1>   0.3370 
 13 C        7.4600    -5.4410    -1.3540 C.2   1 <1>   0.5690 
 14 C        5.7730    -7.3600    -1.5820 C.3   1 <1>  -0.2400 
 15 O        7.3080    -5.1540    -2.5200 O.2   1 <1>  -0.5700 
 16 N        8.5120    -4.9420    -0.6510 N.am  1 <1>  -0.7300 
 17 C        9.4010    -3.8660    -1.1430 C.3   1 <1>   0.1400 
 18 C       10.5240    -3.5800    -0.1330 C.3   1 <1>   0.2000 
 19 O       10.0210    -3.5390     1.1650 O.3   1 <1>  -0.5600 
 20 C       11.2000    -2.2270    -0.3140 C.3   1 <1>  -0.1600 
 21 C       10.9090    -2.8620     1.9920 C.3   1 <1>   0.1200 
 22 C       11.6370    -1.8610     1.0970 C.3   1 <1>  -0.1600 
 23 H        5.5640    -1.1000    -2.2030 H     1 <1>   0.1500 
 24 H        8.2450    -0.3340     1.0270 H     1 <1>   0.1500 
 25 H        4.9420    -3.2530    -1.1770 H     1 <1>   0.1500 
 26 H        7.6270    -2.4940     2.0480 H     1 <1>   0.1500 
 27 H        4.7430    -6.3150     0.4900 H     1 <1>   0.4200 
 28 H        6.9740    -6.9260     0.1040 H     1 <1>   0.0800 
 29 H        5.1910    -6.8410    -2.3240 H     1 <1>   0.0800 
 30 H        5.1430    -8.0410    -1.0410 H     1 <1>   0.0800 
 31 H        6.5330    -7.9270    -2.0900 H     1 <1>   0.0800 
 32 H        8.5670    -5.0650     0.3730 H     1 <1>   0.3700 
 33 H        8.8140    -2.9770    -1.2920 H     1 <1>   0.0800 
 34 H        9.8220    -4.1480    -2.0920 H     1 <1>   0.0800 
 35 H       11.2580    -4.3680    -0.1680 H     1 <1>   0.0800 
 36 H       10.4900    -1.5040    -0.6770 H     1 <1>   0.0800 
 37 H       12.0260    -2.2860    -1.0010 H     1 <1>   0.0800 
 38 H       11.5920    -3.5820     2.4090 H     1 <1>   0.0800 
 39 H       10.3520    -2.3820     2.7780 H     1 <1>   0.0800 
 40 H       11.3550    -0.8520     1.3440 H     1 <1>   0.0800 
 41 H       12.7000    -1.9670     1.2200 H     1 <1>   0.0800 
@<TRIPOS>BOND
  1   1   2  1   
  2   2   3  ar  
  3   2   4  ar  
  4   3   5  ar  
  5   3  23  1   
  6   4   6  ar  
  7   4  24  1   
  8   5   7  ar  
  9   5  25  1   
 10   6   7  ar  
 11   6  26  1   
 12   7   8  1   
 13   8   9  2   
 14   8  10  2   
 15   8  11  am  
 16  11  12  1   
 17  11  27  1   
 18  12  13  1   
 19  12  14  1   
 20  12  28  1   
 21  13  15  2   
 22  13  16  am  
 23  14  29  1   
 24  14  30  1   
 25  14  31  1   
 26  16  17  1   
 27  16  32  1   
 28  17  18  1   
 29  17  33  1   
 30  17  34  1   
 31  18  19  1   
 32  18  20  1   
 33  18  35  1   
 34  19  21  1   
 35  20  22  1   
 36  20  36  1   
 37  20  37  1   
 38  21  22  1   
 39  21  38  1   
 40  21  39  1   
 41  22  40  1   
 42  22  41  1   
@<TRIPOS>SUBSTRUCTURE
  1 ****   7 GROUP 4 **** **** 0

# MOE 2024.06 (io_trps.svl 2023.06)
