@<TRIPOS>MOLECULE
1-(2,4-Dimethyl-phenyl)-5-oxo-pyrrolidine-3-carboxylic acid (4-methoxy-phenyl)-a
47 49 1 0 0 
SMALL
USER_CHARGES


@<TRIPOS>ATOM
  1 O        0.6270     0.0720     0.2620 O.2   1 <1>  -0.5700 
  2 C        1.7330    -0.4020     0.1830 C.2   1 <1>   0.5690 
  3 N        2.0640    -1.7240     0.1620 N.am  1 <1>  -0.4770 
  4 C        2.9580     0.4630     0.0720 C.3   1 <1>  -0.0990 
  5 C        1.2170    -2.8380     0.2740 C.ar  1 <1>   0.1170 
  6 C        3.5230    -1.9030     0.0630 C.3   1 <1>   0.1400 
  7 C        4.0370    -0.5280    -0.3900 C.3   1 <1>  -0.0190 
  8 C        0.2830    -3.1690    -0.7110 C.ar  1 <1>  -0.1440 
  9 C        1.3240    -3.6520     1.3950 C.ar  1 <1>  -0.1500 
 10 C        5.4230    -0.1910     0.1350 C.2   1 <1>   0.5690 
 11 C       -0.5100    -4.2950    -0.5540 C.ar  1 <1>  -0.1500 
 12 C        0.1090    -2.3190    -1.9630 C.3   1 <1>  -0.0970 
 13 C        0.5310    -4.7740     1.5420 C.ar  1 <1>  -0.1500 
 14 O        5.7250    -0.5520     1.2450 O.2   1 <1>  -0.5700 
 15 N        6.2590     0.5140    -0.6880 N.am  1 <1>  -0.5470 
 16 C       -0.3910    -5.1030     0.5650 C.ar  1 <1>  -0.1430 
 17 C        7.5700     0.9790    -0.4880 C.ar  1 <1>   0.1170 
 18 C       -1.2710    -6.3300     0.7180 C.3   1 <1>  -0.0970 
 19 C        8.1180     1.1930     0.7740 C.ar  1 <1>  -0.1500 
 20 C        8.3540     1.2570    -1.6020 C.ar  1 <1>  -0.1500 
 21 C        9.4110     1.6640     0.9130 C.ar  1 <1>  -0.1500 
 22 C        9.6480     1.7300    -1.4690 C.ar  1 <1>  -0.1500 
 23 C       10.1860     1.9360    -0.2020 C.ar  1 <1>   0.0820 
 24 O       11.4440     2.3970     0.0230 O.3   1 <1>  -0.3620 
 25 C       12.3180     2.6780    -1.0470 C.3   1 <1>   0.0400 
 26 H        3.1820     0.8640     1.0440 H     1 <1>   0.0800 
 27 H        2.8070     1.2600    -0.6320 H     1 <1>   0.0800 
 28 H        3.7650    -2.6740    -0.6490 H     1 <1>   0.0800 
 29 H        3.9040    -2.1730     1.0330 H     1 <1>   0.0800 
 30 H        4.0580    -0.5370    -1.4650 H     1 <1>   0.0800 
 31 H        2.0320    -3.3990     2.1630 H     1 <1>   0.1500 
 32 H       -1.2330    -4.5480    -1.3090 H     1 <1>   0.1500 
 33 H        1.0670    -2.0640    -2.3790 H     1 <1>   0.0800 
 34 H       -0.4160    -1.4150    -1.7140 H     1 <1>   0.0800 
 35 H       -0.4540    -2.8460    -2.7120 H     1 <1>   0.0800 
 36 H        0.6330    -5.3850     2.4210 H     1 <1>   0.1500 
 37 H        5.8900     0.7200    -1.6140 H     1 <1>   0.3700 
 38 H       -2.2180    -6.0460     1.1410 H     1 <1>   0.0800 
 39 H       -0.8040    -7.0530     1.3630 H     1 <1>   0.0800 
 40 H       -1.4410    -6.7890    -0.2390 H     1 <1>   0.0800 
 41 H        7.5400     0.9970     1.6570 H     1 <1>   0.1500 
 42 H        7.9550     1.1010    -2.5870 H     1 <1>   0.1500 
 43 H        9.8290     1.8250     1.8910 H     1 <1>   0.1500 
 44 H       10.2190     1.9310    -2.3550 H     1 <1>   0.1500 
 45 H       13.2520     3.0150    -0.6360 H     1 <1>   0.0800 
 46 H       11.8870     3.4520    -1.6560 H     1 <1>   0.0800 
 47 H       12.4730     1.7780    -1.6160 H     1 <1>   0.0800 
@<TRIPOS>BOND
  1   1   2  2   
  2   2   3  am  
  3   2   4  1   
  4   3   5  1   
  5   3   6  1   
  6   4   7  1   
  7   4  26  1   
  8   4  27  1   
  9   5   8  ar  
 10   5   9  ar  
 11   6   7  1   
 12   6  28  1   
 13   6  29  1   
 14   7  10  1   
 15   7  30  1   
 16   8  11  ar  
 17   8  12  1   
 18   9  13  ar  
 19   9  31  1   
 20  10  14  2   
 21  10  15  am  
 22  11  16  ar  
 23  11  32  1   
 24  12  33  1   
 25  12  34  1   
 26  12  35  1   
 27  13  16  ar  
 28  13  36  1   
 29  15  17  1   
 30  15  37  1   
 31  16  18  1   
 32  17  19  ar  
 33  17  20  ar  
 34  18  38  1   
 35  18  39  1   
 36  18  40  1   
 37  19  21  ar  
 38  19  41  1   
 39  20  22  ar  
 40  20  42  1   
 41  21  23  ar  
 42  21  43  1   
 43  22  23  ar  
 44  22  44  1   
 45  23  24  1   
 46  24  25  1   
 47  25  45  1   
 48  25  46  1   
 49  25  47  1   
@<TRIPOS>SUBSTRUCTURE
  1 ****   7 GROUP 4 **** **** 0

# MOE 2024.06 (io_trps.svl 2023.06)
