@<TRIPOS>MOLECULE
N-(4-Acetyl-phenyl)-2-(4-phenyl-piperazin-1-yl)-acetamide
48 50 1 0 0 
SMALL
USER_CHARGES


@<TRIPOS>ATOM
  1 O        0.9460    -2.5340     2.1560 O.2   1 <1>  -0.5700 
  2 C        0.2140    -2.1750     1.2660 C.2   1 <1>   0.5690 
  3 N        0.5570    -1.2790     0.2920 N.am  1 <1>  -0.5470 
  4 C       -1.2070    -2.7380     1.1920 C.3   1 <1>   0.1710 
  5 C        1.7240    -0.5680     0.0070 C.ar  1 <1>   0.1170 
  6 N       -2.1580    -1.8590     0.4460 N.3   1 <1>  -0.8100 
  7 C        2.9290    -0.7640     0.6750 C.ar  1 <1>  -0.1500 
  8 C        1.6950     0.3870    -1.0020 C.ar  1 <1>  -0.1500 
  9 C       -3.3770    -2.6130     0.0680 C.3   1 <1>   0.1100 
 10 C       -2.5510    -0.6880     1.2730 C.3   1 <1>   0.1100 
 11 C        4.0540    -0.0320     0.3500 C.ar  1 <1>  -0.1500 
 12 C        2.8220     1.1180    -1.3250 C.ar  1 <1>  -0.1500 
 13 C       -4.3920    -1.7370    -0.6910 C.3   1 <1>   0.2090 
 14 C       -3.5490     0.2330     0.5460 C.3   1 <1>   0.2090 
 15 C        4.0390     0.9350    -0.6620 C.ar  1 <1>   0.0860 
 16 N       -4.7530    -0.5260     0.1020 N.pl3 1 <1>  -0.8380 
 17 C        5.1970     1.7210    -1.0290 C.2   1 <1>   0.4230 
 18 C       -5.8060     0.2360    -0.3890 C.ar  1 <1>   0.1000 
 19 O        5.1810     2.5540    -1.9000 O.2   1 <1>  -0.5700 
 20 C        6.5200     1.5250    -0.3120 C.3   1 <1>  -0.1790 
 21 C       -6.9860     0.3200     0.3370 C.ar  1 <1>  -0.1500 
 22 C       -5.7110     0.9230    -1.5940 C.ar  1 <1>  -0.1500 
 23 C       -8.0500     1.0730    -0.1260 C.ar  1 <1>  -0.1500 
 24 C       -6.7720     1.6770    -2.0620 C.ar  1 <1>  -0.1500 
 25 C       -7.9440     1.7530    -1.3270 C.ar  1 <1>  -0.1500 
 26 H       -0.2530    -1.0830    -0.3060 H     1 <1>   0.3700 
 27 H       -1.5680    -2.9110     2.1910 H     1 <1>   0.0800 
 28 H       -1.1390    -3.6900     0.6970 H     1 <1>   0.0800 
 29 H        2.9930    -1.4970     1.4580 H     1 <1>   0.1500 
 30 H        0.7810     0.5620    -1.5400 H     1 <1>   0.1500 
 31 H       -3.8550    -3.0030     0.9510 H     1 <1>   0.0800 
 32 H       -3.1040    -3.4440    -0.5600 H     1 <1>   0.0800 
 33 H       -1.6790    -0.1130     1.5310 H     1 <1>   0.0800 
 34 H       -3.0080    -1.0240     2.1890 H     1 <1>   0.0800 
 35 H        4.9570    -0.2250     0.9010 H     1 <1>   0.1500 
 36 H        2.7670     1.8520    -2.1110 H     1 <1>   0.1500 
 37 H       -5.2830    -2.3070    -0.8870 H     1 <1>   0.0800 
 38 H       -3.9690    -1.4390    -1.6340 H     1 <1>   0.0800 
 39 H       -3.0680     0.6780    -0.3060 H     1 <1>   0.0800 
 40 H       -3.8570     1.0230     1.2090 H     1 <1>   0.0800 
 41 H        6.8640     0.5160    -0.4440 H     1 <1>   0.0800 
 42 H        6.4070     1.7390     0.7340 H     1 <1>   0.0800 
 43 H        7.2580     2.1930    -0.7190 H     1 <1>   0.0800 
 44 H       -7.0550    -0.2120     1.2670 H     1 <1>   0.1500 
 45 H       -4.8030     0.8640    -2.1620 H     1 <1>   0.1500 
 46 H       -8.9580     1.1290     0.4480 H     1 <1>   0.1500 
 47 H       -6.6890     2.2050    -2.9950 H     1 <1>   0.1500 
 48 H       -8.7710     2.3390    -1.6890 H     1 <1>   0.1500 
@<TRIPOS>BOND
  1   1   2  2   
  2   2   3  am  
  3   2   4  1   
  4   3   5  1   
  5   3  26  1   
  6   4   6  1   
  7   4  27  1   
  8   4  28  1   
  9   5   7  ar  
 10   5   8  ar  
 11   6   9  1   
 12   6  10  1   
 13   7  11  ar  
 14   7  29  1   
 15   8  12  ar  
 16   8  30  1   
 17   9  13  1   
 18   9  31  1   
 19   9  32  1   
 20  10  14  1   
 21  10  33  1   
 22  10  34  1   
 23  11  15  ar  
 24  11  35  1   
 25  12  15  ar  
 26  12  36  1   
 27  13  16  1   
 28  13  37  1   
 29  13  38  1   
 30  14  16  1   
 31  14  39  1   
 32  14  40  1   
 33  15  17  1   
 34  16  18  1   
 35  17  19  2   
 36  17  20  1   
 37  18  21  ar  
 38  18  22  ar  
 39  20  41  1   
 40  20  42  1   
 41  20  43  1   
 42  21  23  ar  
 43  21  44  1   
 44  22  24  ar  
 45  22  45  1   
 46  23  25  ar  
 47  23  46  1   
 48  24  25  ar  
 49  24  47  1   
 50  25  48  1   
@<TRIPOS>SUBSTRUCTURE
  1 ****   3 GROUP 4 **** **** 0

# MOE 2024.06 (io_trps.svl 2023.06)
