@<TRIPOS>MOLECULE
N-tert-Butyl-3-(3-o-tolyl-[1,2,4]oxadiazol-5-yl)-propionamide
42 43 1 0 0 
SMALL
USER_CHARGES


@<TRIPOS>ATOM
  1 O        0.3360    -0.6750     1.4440 O.2   1 <1>  -0.5700 
  2 C        0.8490    -1.6320     0.9200 C.2   1 <1>   0.5690 
  3 N        2.2000    -1.6720     0.8400 N.am  1 <1>  -0.7300 
  4 C       -0.0430    -2.7370     0.3820 C.3   1 <1>  -0.0990 
  5 C        3.1840    -2.6190     0.3050 C.3   1 <1>   0.3000 
  6 C       -1.5110    -2.3070     0.2340 C.3   1 <1>   0.0200 
  7 C        4.5350    -2.1770     0.8650 C.3   1 <1>  -0.2400 
  8 C        2.8960    -4.0490     0.7680 C.3   1 <1>  -0.2400 
  9 C        3.2090    -2.5140    -1.2190 C.3   1 <1>  -0.2400 
 10 C       -2.3420    -3.4220    -0.3650 C.2   1 <1>   0.2980 
 11 O       -2.1920    -3.7060    -1.6330 O.3   1 <1>  -0.0190 
 12 N       -3.1850    -4.1340     0.2570 N.2   1 <1>  -0.5650 
 13 N       -3.0100    -4.6900    -1.8340 N.2   1 <1>  -0.4100 
 14 C       -3.6040    -4.9430    -0.7220 C.2   1 <1>   0.4620 
 15 C       -4.5880    -5.9930    -0.5230 C.ar  1 <1>   0.0540 
 16 C       -5.8020    -5.8120     0.1580 C.ar  1 <1>  -0.1440 
 17 C       -4.3210    -7.2620    -1.0390 C.ar  1 <1>  -0.1500 
 18 C       -6.6810    -6.8720     0.3150 C.ar  1 <1>  -0.1500 
 19 C       -6.1990    -4.4580     0.7340 C.3   1 <1>  -0.0970 
 20 C       -5.2020    -8.3150    -0.8830 C.ar  1 <1>  -0.1500 
 21 C       -6.3870    -8.1200    -0.2000 C.ar  1 <1>  -0.1500 
 22 H        2.6420    -0.8440     1.2400 H     1 <1>   0.3700 
 23 H        0.0050    -3.5710     1.0560 H     1 <1>   0.0800 
 24 H        0.3210    -3.0470    -0.5770 H     1 <1>   0.0800 
 25 H       -1.5810    -1.4380    -0.3960 H     1 <1>   0.0800 
 26 H       -1.9120    -2.0520     1.2000 H     1 <1>   0.0800 
 27 H        4.5320    -2.2270     1.9400 H     1 <1>   0.0800 
 28 H        4.7640    -1.1720     0.5600 H     1 <1>   0.0800 
 29 H        5.3170    -2.8210     0.5030 H     1 <1>   0.0800 
 30 H        3.7320    -4.6840     0.5340 H     1 <1>   0.0800 
 31 H        2.0400    -4.4600     0.2700 H     1 <1>   0.0800 
 32 H        2.7410    -4.0760     1.8320 H     1 <1>   0.0800 
 33 H        3.9880    -3.1380    -1.6180 H     1 <1>   0.0800 
 34 H        3.4000    -1.5000    -1.5220 H     1 <1>   0.0800 
 35 H        2.2790    -2.8350    -1.6470 H     1 <1>   0.0800 
 36 H       -3.4000    -7.4230    -1.5730 H     1 <1>   0.1500 
 37 H       -7.6090    -6.7330     0.8420 H     1 <1>   0.1500 
 38 H       -6.0280    -3.6800     0.0110 H     1 <1>   0.0800 
 39 H       -5.6160    -4.2500     1.6130 H     1 <1>   0.0800 
 40 H       -7.2400    -4.4400     1.0030 H     1 <1>   0.0800 
 41 H       -4.9670    -9.2830    -1.2900 H     1 <1>   0.1500 
 42 H       -7.0770    -8.9350    -0.0720 H     1 <1>   0.1500 
@<TRIPOS>BOND
  1   1   2  2   
  2   2   3  am  
  3   2   4  1   
  4   3   5  1   
  5   3  22  1   
  6   4   6  1   
  7   4  23  1   
  8   4  24  1   
  9   5   7  1   
 10   5   8  1   
 11   5   9  1   
 12   6  10  1   
 13   6  25  1   
 14   6  26  1   
 15   7  27  1   
 16   7  28  1   
 17   7  29  1   
 18   8  30  1   
 19   8  31  1   
 20   8  32  1   
 21   9  33  1   
 22   9  34  1   
 23   9  35  1   
 24  10  11  1   
 25  10  12  2   
 26  11  13  1   
 27  12  14  1   
 28  13  14  2   
 29  14  15  1   
 30  15  16  ar  
 31  15  17  ar  
 32  16  18  ar  
 33  16  19  1   
 34  17  20  ar  
 35  17  36  1   
 36  18  21  ar  
 37  18  37  1   
 38  19  38  1   
 39  19  39  1   
 40  19  40  1   
 41  20  21  ar  
 42  20  41  1   
 43  21  42  1   
@<TRIPOS>SUBSTRUCTURE
  1 ****  10 GROUP 4 **** **** 0

# MOE 2024.06 (io_trps.svl 2023.06)
