@<TRIPOS>MOLECULE
[3-(2-Hydroxy-phenyl)-4,5-dihydro-isoxazol-5-yl]-piperidin-1-yl-methanone
38 40 1 0 0 
SMALL
USER_CHARGES


@<TRIPOS>ATOM
  1 O       -0.3080    -1.1660     1.9070 O.2   1 <1>  -0.5700 
  2 C       -0.1480    -2.2260     1.3400 C.2   1 <1>   0.5690 
  3 N        1.1230    -2.7050     1.0990 N.am  1 <1>  -0.6600 
  4 C       -1.4000    -3.0350     0.9520 C.3   1 <1>   0.2610 
  5 C        1.4430    -4.0260     0.4860 C.3   1 <1>   0.1400 
  6 C        2.3280    -1.8590     1.3320 C.3   1 <1>   0.1400 
  7 O       -1.4120    -3.3780    -0.4200 O.3   1 <1>  -0.2170 
  8 C       -2.7570    -2.3560     1.1250 C.3   1 <1>  -0.0990 
  9 C        2.1260    -3.8020    -0.8670 C.3   1 <1>  -0.1600 
 10 C        3.0400    -1.6110    -0.0020 C.3   1 <1>  -0.1600 
 11 N       -2.6130    -3.3080    -0.9500 N.2   1 <1>  -0.5130 
 12 C       -3.4400    -2.7520    -0.1590 C.2   1 <1>   0.3030 
 13 C        3.3790    -2.9250    -0.7230 C.3   1 <1>  -0.1600 
 14 C       -4.8520    -2.5290    -0.4310 C.ar  1 <1>   0.0860 
 15 C       -5.7360    -1.7770     0.3680 C.ar  1 <1>   0.0820 
 16 C       -5.4050    -3.0990    -1.5840 C.ar  1 <1>  -0.1500 
 17 O       -5.3320    -1.1660     1.4950 O.3   1 <1>  -0.5320 
 18 C       -7.0720    -1.6220     0.0280 C.ar  1 <1>  -0.1500 
 19 C       -6.7350    -2.9460    -1.9250 C.ar  1 <1>  -0.1500 
 20 C       -7.5750    -2.2060    -1.1170 C.ar  1 <1>  -0.1500 
 21 H       -1.3960    -3.9600     1.4970 H     1 <1>   0.0800 
 22 H        0.5620    -4.6270     0.3530 H     1 <1>   0.0800 
 23 H        2.1080    -4.5610     1.1410 H     1 <1>   0.0800 
 24 H        2.9870    -2.3670     2.0140 H     1 <1>   0.0800 
 25 H        2.0560    -0.9160     1.7740 H     1 <1>   0.0800 
 26 H       -2.6700    -1.2870     1.1750 H     1 <1>   0.0800 
 27 H       -3.2620    -2.7310     1.9940 H     1 <1>   0.0800 
 28 H        1.4240    -3.3320    -1.5350 H     1 <1>   0.0800 
 29 H        2.3960    -4.7520    -1.2920 H     1 <1>   0.0800 
 30 H        3.9410    -1.0510     0.1740 H     1 <1>   0.0800 
 31 H        2.3990    -1.0120    -0.6260 H     1 <1>   0.0800 
 32 H        3.7870    -2.7110    -1.6960 H     1 <1>   0.0800 
 33 H        4.1250    -3.4580    -0.1590 H     1 <1>   0.0800 
 34 H       -4.7740    -3.6810    -2.2340 H     1 <1>   0.1500 
 35 H       -6.0300    -0.6430     1.9300 H     1 <1>   0.4500 
 36 H       -7.7300    -1.0450     0.6520 H     1 <1>   0.1500 
 37 H       -7.1170    -3.4040    -2.8220 H     1 <1>   0.1500 
 38 H       -8.6130    -2.0860    -1.3810 H     1 <1>   0.1500 
@<TRIPOS>BOND
  1   1   2  2   
  2   2   3  am  
  3   2   4  1   
  4   3   5  1   
  5   3   6  1   
  6   4   7  1   
  7   4   8  1   
  8   4  21  1   
  9   5   9  1   
 10   5  22  1   
 11   5  23  1   
 12   6  10  1   
 13   6  24  1   
 14   6  25  1   
 15   7  11  1   
 16   8  12  1   
 17   8  26  1   
 18   8  27  1   
 19   9  13  1   
 20   9  28  1   
 21   9  29  1   
 22  10  13  1   
 23  10  30  1   
 24  10  31  1   
 25  11  12  2   
 26  12  14  1   
 27  13  32  1   
 28  13  33  1   
 29  14  15  ar  
 30  14  16  ar  
 31  15  17  1   
 32  15  18  ar  
 33  16  19  ar  
 34  16  34  1   
 35  17  35  1   
 36  18  20  ar  
 37  18  36  1   
 38  19  20  ar  
 39  19  37  1   
 40  20  38  1   
@<TRIPOS>SUBSTRUCTURE
  1 ****   7 GROUP 4 **** **** 0

# MOE 2024.06 (io_trps.svl 2023.06)
