@<TRIPOS>MOLECULE
4-(4-Chloro-3,5-dimethyl-pyrazole-1-sulfonyl)-morpholine
31 32 1 0 0 
SMALL
USER_CHARGES


@<TRIPOS>ATOM
  1 CL       0.0840    -0.7890     0.5330 Cl    1 <1>  -0.1230 
  2 C       -1.6520    -1.0200     0.4050 C.2   1 <1>   0.1230 
  3 C       -2.4200    -1.8400     1.2150 C.2   1 <1>   0.1080 
  4 C       -2.4880    -0.4510    -0.4820 C.2   1 <1>  -0.3320 
  5 N       -3.6670    -1.8000     0.8690 N.2   1 <1>  -0.7070 
  6 C       -1.9100    -2.6890     2.3590 C.3   1 <1>  -0.0590 
  7 N       -3.7430    -0.9270    -0.2050 N.pl3 1 <1>   0.5840 
  8 C       -2.1690     0.5350    -1.6000 C.3   1 <1>  -0.0600 
  9 S       -5.2510    -0.4800    -1.1040 S.o2  1 <1>   1.4240 
 10 O       -5.5110     0.9330    -0.9070 O.2   1 <1>  -0.6500 
 11 O       -5.1430    -0.9630    -2.4670 O.2   1 <1>  -0.6500 
 12 N       -6.5770    -1.3040    -0.4150 N.am  1 <1>  -0.8490 
 13 C       -6.5190    -2.7660    -0.5550 C.3   1 <1>   0.1960 
 14 C       -6.8770    -0.9140     0.9700 C.3   1 <1>   0.1960 
 15 C       -7.7970    -3.4180     0.0030 C.3   1 <1>   0.1200 
 16 C       -8.1430    -1.6300     1.4760 C.3   1 <1>   0.1200 
 17 O       -8.0200    -3.0170     1.3260 O.3   1 <1>  -0.5600 
 18 H       -1.0510    -2.2300     2.8130 H     1 <1>   0.0800 
 19 H       -1.6380    -3.6620     1.9940 H     1 <1>   0.0800 
 20 H       -2.6790    -2.7990     3.1020 H     1 <1>   0.0800 
 21 H       -1.1160     0.7560    -1.6180 H     1 <1>   0.0800 
 22 H       -2.7050     1.4580    -1.4530 H     1 <1>   0.0800 
 23 H       -2.4440     0.1230    -2.5560 H     1 <1>   0.0800 
 24 H       -5.6700    -3.1660    -0.0280 H     1 <1>   0.0800 
 25 H       -6.4210    -3.0260    -1.5960 H     1 <1>   0.0800 
 26 H       -7.0360     0.1500     1.0200 H     1 <1>   0.0800 
 27 H       -6.0570    -1.1630     1.6220 H     1 <1>   0.0800 
 28 H       -7.7030    -4.4890    -0.0040 H     1 <1>   0.0800 
 29 H       -8.6500    -3.1400    -0.5900 H     1 <1>   0.0800 
 30 H       -9.0070    -1.2990     0.9250 H     1 <1>   0.0800 
 31 H       -8.2960    -1.4240     2.5200 H     1 <1>   0.0800 
@<TRIPOS>BOND
  1   1   2  1   
  2   2   3  1   
  3   2   4  2   
  4   3   5  2   
  5   3   6  1   
  6   4   7  1   
  7   4   8  1   
  8   5   7  1   
  9   6  18  1   
 10   6  19  1   
 11   6  20  1   
 12   7   9  1   
 13   8  21  1   
 14   8  22  1   
 15   8  23  1   
 16   9  10  2   
 17   9  11  2   
 18   9  12  am  
 19  12  13  1   
 20  12  14  1   
 21  13  15  1   
 22  13  24  1   
 23  13  25  1   
 24  14  16  1   
 25  14  26  1   
 26  14  27  1   
 27  15  17  1   
 28  15  28  1   
 29  15  29  1   
 30  16  17  1   
 31  16  30  1   
 32  16  31  1   
@<TRIPOS>SUBSTRUCTURE
  1 ****   7 GROUP 4 **** **** 0

# MOE 2024.06 (io_trps.svl 2023.06)
