@<TRIPOS>MOLECULE
8-Fluoro-3-(2-morpholin-4-yl-ethylsulfanyl)-5-propyl-5H-[1,2,4]triazino[5,6-b]in
49 52 1 0 0 
SMALL
USER_CHARGES


@<TRIPOS>ATOM
  1 S       -0.5690    -0.4640    -0.4580 S.3   1 <1>  -0.3320 
  2 C       -2.1550     0.3380    -0.2430 C.ar  1 <1>   0.7220 
  3 C        0.6590     0.7820     0.1250 C.3   1 <1>   0.0700 
  4 N       -2.1050     1.5960     0.2580 N.ar  1 <1>  -0.3100 
  5 N       -3.2020    -0.3610    -0.5880 N.ar  1 <1>  -0.5670 
  6 C        2.0510     0.1770    -0.0740 C.3   1 <1>   0.3430 
  7 N       -3.2090     2.2580     0.4470 N.ar  1 <1>  -0.2560 
  8 C       -4.3270     0.3290    -0.3850 C.ar  1 <1>   0.1050 
  9 N        3.1390     1.0850     0.4120 N.4   1 <1>  -0.9590 
 10 C       -4.3390     1.6170     0.1220 C.ar  1 <1>   0.2560 
 11 N       -5.6150    -0.0770    -0.6240 N.pl3 1 <1>   0.0480 
 12 C        3.2260     2.3640    -0.3850 C.3   1 <1>   0.3430 
 13 C        4.4670     0.3730     0.3860 C.3   1 <1>   0.3430 
 14 C       -5.6960     2.0270     0.1950 C.ar  1 <1>   0.0000 
 15 C       -6.4660     0.9620    -0.2740 C.ar  1 <1>  -0.1520 
 16 C       -6.0010    -1.3950    -1.1800 C.3   1 <1>   0.0960 
 17 C        4.4400     3.2140     0.0370 C.3   1 <1>   0.1200 
 18 C        5.6250     1.3130     0.7730 C.3   1 <1>   0.1200 
 19 C       -6.3150     3.2050     0.6170 C.ar  1 <1>  -0.1500 
 20 C       -7.8610     1.0500    -0.3290 C.ar  1 <1>  -0.1500 
 21 C       -6.0290    -2.4850    -0.0970 C.3   1 <1>  -0.1600 
 22 O        5.6100     2.4540    -0.0350 O.3   1 <1>  -0.5600 
 23 C       -7.6870     3.2660     0.5530 C.ar  1 <1>   0.1900 
 24 C       -8.4730     2.2130     0.0880 C.ar  1 <1>  -0.1500 
 25 C       -7.0720    -2.2270     0.9990 C.3   1 <1>  -0.2400 
 26 F       -8.2910     4.3590     0.9430 F     1 <1>  -0.1900 
 27 H        0.4460     0.9710     1.1630 H     1 <1>   0.0800 
 28 H        0.5110     1.6660    -0.4680 H     1 <1>   0.0800 
 29 H        2.1950    -0.0370    -1.1210 H     1 <1>   0.0800 
 30 H        2.0940    -0.7560     0.4650 H     1 <1>   0.0800 
 31 H        2.9510     1.3380     1.3920 H     1 <1>   0.4500 
 32 H        2.3280     2.9450    -0.2560 H     1 <1>   0.0800 
 33 H        3.3240     2.1340    -1.4330 H     1 <1>   0.0800 
 34 H        4.6580    -0.0050    -0.6060 H     1 <1>   0.0800 
 35 H        4.4500    -0.4670     1.0620 H     1 <1>   0.0800 
 36 H       -5.2840    -1.6620    -1.9360 H     1 <1>   0.0800 
 37 H       -6.9640    -1.3120    -1.6490 H     1 <1>   0.0800 
 38 H        4.3280     3.5880     1.0400 H     1 <1>   0.0800 
 39 H        4.5540     4.0520    -0.6290 H     1 <1>   0.0800 
 40 H        6.5700     0.8200     0.6220 H     1 <1>   0.0800 
 41 H        5.5570     1.6150     1.8040 H     1 <1>   0.0800 
 42 H       -5.7330     4.0310     0.9800 H     1 <1>   0.1500 
 43 H       -8.4480     0.2230    -0.6890 H     1 <1>   0.1500 
 44 H       -5.0510    -2.5720     0.3450 H     1 <1>   0.0800 
 45 H       -6.2510    -3.4260    -0.5690 H     1 <1>   0.0800 
 46 H       -9.5420     2.3250     0.0640 H     1 <1>   0.1500 
 47 H       -6.8430    -1.3270     1.5430 H     1 <1>   0.0800 
 48 H       -7.0790    -3.0470     1.6970 H     1 <1>   0.0800 
 49 H       -8.0560    -2.1350     0.5740 H     1 <1>   0.0800 
@<TRIPOS>BOND
  1   1   2  1   
  2   1   3  1   
  3   2   4  ar  
  4   2   5  ar  
  5   3   6  1   
  6   3  27  1   
  7   3  28  1   
  8   4   7  ar  
  9   5   8  ar  
 10   6   9  1   
 11   6  29  1   
 12   6  30  1   
 13   7  10  ar  
 14   8  10  ar  
 15   8  11  1   
 16   9  12  1   
 17   9  13  1   
 18   9  31  1   
 19  10  14  1   
 20  11  15  1   
 21  11  16  1   
 22  12  17  1   
 23  12  32  1   
 24  12  33  1   
 25  13  18  1   
 26  13  34  1   
 27  13  35  1   
 28  14  15  ar  
 29  14  19  ar  
 30  15  20  ar  
 31  16  21  1   
 32  16  36  1   
 33  16  37  1   
 34  17  22  1   
 35  17  38  1   
 36  17  39  1   
 37  18  22  1   
 38  18  40  1   
 39  18  41  1   
 40  19  23  ar  
 41  19  42  1   
 42  20  24  ar  
 43  20  43  1   
 44  21  25  1   
 45  21  44  1   
 46  21  45  1   
 47  23  24  ar  
 48  23  26  1   
 49  24  46  1   
 50  25  47  1   
 51  25  48  1   
 52  25  49  1   
@<TRIPOS>SUBSTRUCTURE
  1 ****   4 GROUP 4 **** **** 0

# MOE 2024.06 (io_trps.svl 2023.06)
