@<TRIPOS>MOLECULE
[4-(4-Chloro-3-methoxy-benzenesulfonyl)-piperazin-1-yl]-furan-2-yl-methanone
42 44 1 0 0 
SMALL
USER_CHARGES


@<TRIPOS>ATOM
  1 CL      -1.2220    -1.0160     2.5300 Cl    1 <1>  -0.1770 
  2 C       -2.5670    -0.6900     1.4590 C.ar  1 <1>   0.1770 
  3 C       -3.0600    -1.6840     0.6210 C.ar  1 <1>   0.0830 
  4 C       -3.1210     0.5740     1.4710 C.ar  1 <1>  -0.1500 
  5 O       -2.4700    -2.9080     0.6530 O.3   1 <1>  -0.3630 
  6 C       -4.1350    -1.3790    -0.2110 C.ar  1 <1>  -0.1500 
  7 C       -4.1890     0.8560     0.6360 C.ar  1 <1>  -0.1500 
  8 C       -2.8560    -3.9470    -0.2210 C.3   1 <1>   0.0400 
  9 C       -4.7140    -0.1140    -0.2140 C.ar  1 <1>  -0.0090 
 10 S       -6.1210     0.2680    -1.2960 S.o2  1 <1>   1.4470 
 11 O       -6.6280    -0.9460    -1.8970 O.2   1 <1>  -0.6500 
 12 O       -5.7780     1.3930    -2.1370 O.2   1 <1>  -0.6500 
 13 N       -7.3060     0.8110    -0.2120 N.am  1 <1>  -0.8490 
 14 C       -7.8550    -0.2840     0.6130 C.3   1 <1>   0.1960 
 15 C       -8.4000     1.4950    -0.9230 C.3   1 <1>   0.1960 
 16 C       -8.8600     0.2460     1.6470 C.3   1 <1>   0.1400 
 17 C       -9.4540     2.0650     0.0450 C.3   1 <1>   0.1400 
 18 N       -9.9570     1.0100     0.9770 N.am  1 <1>  -0.6600 
 19 C      -11.2590     0.5490     0.9610 C.2   1 <1>   0.7150 
 20 O      -11.4620    -0.6070     1.2910 O.2   1 <1>  -0.5700 
 21 C      -12.3590     1.4080     0.5720 C.2   1 <1>   0.0550 
 22 O      -13.3850     0.9380    -0.1330 O.3   1 <1>  -0.2800 
 23 C      -12.5770     2.7340     0.8050 C.2   1 <1>  -0.1500 
 24 C      -14.2370     1.9130    -0.3520 C.2   1 <1>  -0.0100 
 25 C      -13.7930     3.0590     0.2050 C.2   1 <1>  -0.1500 
 26 H       -2.7180     1.3260     2.1260 H     1 <1>   0.1500 
 27 H       -4.5420    -2.1220    -0.8720 H     1 <1>   0.1500 
 28 H       -4.6240     1.8420     0.6400 H     1 <1>   0.1500 
 29 H       -2.2250    -4.7960    -0.0280 H     1 <1>   0.0800 
 30 H       -2.7240    -3.6180    -1.2370 H     1 <1>   0.0800 
 31 H       -3.8820    -4.2050    -0.0280 H     1 <1>   0.0800 
 32 H       -7.0560    -0.7820     1.1350 H     1 <1>   0.0800 
 33 H       -8.3490    -1.0120    -0.0110 H     1 <1>   0.0800 
 34 H       -8.8780     0.8100    -1.6050 H     1 <1>   0.0800 
 35 H       -8.0000     2.3100    -1.5040 H     1 <1>   0.0800 
 36 H       -8.3500     0.8950     2.3370 H     1 <1>   0.0800 
 37 H       -9.2600    -0.5790     2.2110 H     1 <1>   0.0800 
 38 H      -10.2600     2.4790    -0.5350 H     1 <1>   0.0800 
 39 H       -9.0120     2.8620     0.6180 H     1 <1>   0.0800 
 40 H      -11.9500     3.4160     1.3520 H     1 <1>   0.1500 
 41 H      -15.1340     1.7060    -0.9100 H     1 <1>   0.1500 
 42 H      -14.2600     4.0290     0.2040 H     1 <1>   0.1500 
@<TRIPOS>BOND
  1   1   2  1   
  2   2   3  ar  
  3   2   4  ar  
  4   3   5  1   
  5   3   6  ar  
  6   4   7  ar  
  7   4  26  1   
  8   5   8  1   
  9   6   9  ar  
 10   6  27  1   
 11   7   9  ar  
 12   7  28  1   
 13   8  29  1   
 14   8  30  1   
 15   8  31  1   
 16   9  10  1   
 17  10  11  2   
 18  10  12  2   
 19  10  13  am  
 20  13  14  1   
 21  13  15  1   
 22  14  16  1   
 23  14  32  1   
 24  14  33  1   
 25  15  17  1   
 26  15  34  1   
 27  15  35  1   
 28  16  18  1   
 29  16  36  1   
 30  16  37  1   
 31  17  18  1   
 32  17  38  1   
 33  17  39  1   
 34  18  19  am  
 35  19  20  2   
 36  19  21  1   
 37  21  22  1   
 38  21  23  2   
 39  22  24  1   
 40  23  25  1   
 41  23  40  1   
 42  24  25  2   
 43  24  41  1   
 44  25  42  1   
@<TRIPOS>SUBSTRUCTURE
  1 ****  14 GROUP 4 **** **** 0

# MOE 2024.06 (io_trps.svl 2023.06)
