@<TRIPOS>MOLECULE
N-(5-Ethyl-[1,3,4]thiadiazol-2-yl)-2-(2-methoxy-phenyl)-acetamide
34 35 1 0 0 
SMALL
USER_CHARGES


@<TRIPOS>ATOM
  1 S       -1.9980    -0.4750    -0.9320 S.3   1 <1>  -0.0800 
  2 C       -2.7190    -0.2480     0.6280 C.2   1 <1>   0.4420 
  3 C       -0.8400     0.7330    -0.4950 C.2   1 <1>   0.1980 
  4 N       -2.1030     0.6380     1.3220 N.2   1 <1>  -0.3380 
  5 N       -3.8200    -1.0240     0.9120 N.am  1 <1>  -0.4940 
  6 N       -1.0320     1.1930     0.6750 N.2   1 <1>  -0.3380 
  7 C        0.2240     1.0830    -1.5240 C.3   1 <1>   0.0200 
  8 C       -4.6220    -1.0570     2.0130 C.2   1 <1>   0.5690 
  9 C        1.1980     2.1630    -1.0350 C.3   1 <1>  -0.2400 
 10 O       -4.4660    -0.3570     2.9810 O.2   1 <1>  -0.5700 
 11 C       -5.7690    -2.0530     2.0120 C.3   1 <1>   0.0440 
 12 C       -6.5800    -2.0140     0.7140 C.ar  1 <1>  -0.1430 
 13 C       -6.1490    -2.6730    -0.4360 C.ar  1 <1>   0.0820 
 14 C       -7.7710    -1.3060     0.6880 C.ar  1 <1>  -0.1500 
 15 O       -4.9620    -3.3350    -0.3800 O.3   1 <1>  -0.3630 
 16 C       -6.9240    -2.6230    -1.5920 C.ar  1 <1>  -0.1500 
 17 C       -8.5360    -1.2570    -0.4650 C.ar  1 <1>  -0.1500 
 18 C       -4.5600    -4.2150    -1.4080 C.3   1 <1>   0.0400 
 19 C       -8.1130    -1.9170    -1.6030 C.ar  1 <1>  -0.1500 
 20 H       -4.1050    -1.6750     0.1770 H     1 <1>   0.3700 
 21 H       -0.2640     1.4270    -2.4180 H     1 <1>   0.0800 
 22 H        0.7750     0.1920    -1.7650 H     1 <1>   0.0800 
 23 H        0.6630     3.0680    -0.8030 H     1 <1>   0.0800 
 24 H        1.9300     2.3770    -1.7930 H     1 <1>   0.0800 
 25 H        1.7060     1.8290    -0.1470 H     1 <1>   0.0800 
 26 H       -6.4090    -1.8380     2.8470 H     1 <1>   0.0800 
 27 H       -5.3690    -3.0370     2.1670 H     1 <1>   0.0800 
 28 H       -8.1140    -0.7840     1.5650 H     1 <1>   0.1500 
 29 H       -6.6200    -3.1200    -2.4940 H     1 <1>   0.1500 
 30 H       -9.4590    -0.7040    -0.4740 H     1 <1>   0.1500 
 31 H       -3.6470    -4.6940    -1.1020 H     1 <1>   0.0800 
 32 H       -4.3910    -3.6520    -2.3080 H     1 <1>   0.0800 
 33 H       -5.3270    -4.9550    -1.5550 H     1 <1>   0.0800 
 34 H       -8.7100    -1.8790    -2.4980 H     1 <1>   0.1500 
@<TRIPOS>BOND
  1   1   2  1   
  2   1   3  1   
  3   2   4  2   
  4   2   5  1   
  5   3   6  2   
  6   3   7  1   
  7   4   6  1   
  8   5   8  am  
  9   5  20  1   
 10   7   9  1   
 11   7  21  1   
 12   7  22  1   
 13   8  10  2   
 14   8  11  1   
 15   9  23  1   
 16   9  24  1   
 17   9  25  1   
 18  11  12  1   
 19  11  26  1   
 20  11  27  1   
 21  12  13  ar  
 22  12  14  ar  
 23  13  15  1   
 24  13  16  ar  
 25  14  17  ar  
 26  14  28  1   
 27  15  18  1   
 28  16  19  ar  
 29  16  29  1   
 30  17  19  ar  
 31  17  30  1   
 32  18  31  1   
 33  18  32  1   
 34  18  33  1   
 35  19  34  1   
@<TRIPOS>SUBSTRUCTURE
  1 ****   5 GROUP 4 **** **** 0

# MOE 2024.06 (io_trps.svl 2023.06)
