@<TRIPOS>MOLECULE
8-(2-Diethylamino-ethylamino)-7-(2-hydroxy-propyl)-3-methyl-3,7-dihydro-purine-2
52 53 1 0 0 
SMALL
USER_CHARGES


@<TRIPOS>ATOM
  1 O        0.5620     0.1990    -0.2960 O.2   1 <1>  -0.5750 
  2 C        1.6350     0.7530    -0.2440 C.2   1 <1>   0.6860 
  3 N        2.8230     0.0540    -0.0840 N.am  1 <1>  -0.4420 
  4 N        1.6710     2.1130    -0.3530 N.am  1 <1>  -0.4950 
  5 C        4.0010     0.7870    -0.0550 C.2   1 <1>   0.4200 
  6 C        2.8220    -1.4330     0.0460 C.3   1 <1>   0.0520 
  7 C        2.8210     2.8470    -0.3240 C.2   1 <1>   0.6990 
  8 N        5.2710     0.3160     0.0670 N.pl3 1 <1>  -0.7040 
  9 C        4.0550     2.1340    -0.1560 C.2   1 <1>   0.2700 
 10 O        2.7570     4.0530    -0.4520 O.2   1 <1>  -0.5750 
 11 C        6.1030     1.3540     0.0530 C.cat 1 <1>   1.0690 
 12 N        5.4180     2.4980    -0.0750 N.pl3 1 <1>  -0.7670 
 13 N        7.4330     1.2420     0.1540 N.pl3 1 <1>  -0.7180 
 14 C        5.7810     3.9600    -0.1860 C.3   1 <1>   0.3480 
 15 C        8.2700     0.0080     0.3070 C.3   1 <1>   0.1600 
 16 C        7.2390     4.3360     0.1600 C.3   1 <1>   0.1930 
 17 C        9.5440     0.0490    -0.5730 C.3   1 <1>   0.3370 
 18 O        7.4400     5.6760    -0.0960 O.3   1 <1>  -0.6840 
 19 C        7.5770     4.1510     1.6440 C.3   1 <1>  -0.2470 
 20 N       10.5000    -1.0770    -0.3060 N.4   1 <1>  -0.9610 
 21 C       11.7970    -0.8020    -0.9850 C.3   1 <1>   0.3370 
 22 C        9.9840    -2.4140    -0.7160 C.3   1 <1>   0.3370 
 23 C       12.9000    -1.6050    -0.3080 C.3   1 <1>  -0.2470 
 24 C        9.5620    -3.1770     0.5320 C.3   1 <1>  -0.2470 
 25 H        0.7820     2.5960    -0.4740 H     1 <1>   0.3640 
 26 H        1.8210    -1.8040     0.1930 H     1 <1>   0.0720 
 27 H        3.4150    -1.7320     0.8920 H     1 <1>   0.0720 
 28 H        3.2190    -1.8780    -0.8500 H     1 <1>   0.0720 
 29 H        5.5170    -0.6610     0.1790 H     1 <1>   0.4450 
 30 H        7.9260     2.1230     0.3140 H     1 <1>   0.4450 
 31 H        5.1370     4.5240     0.4700 H     1 <1>   0.0720 
 32 H        5.5750     4.2800    -1.1940 H     1 <1>   0.0720 
 33 H        7.6890    -0.8570     0.0410 H     1 <1>   0.0720 
 34 H        8.5620    -0.0780     1.3410 H     1 <1>   0.0720 
 35 H        7.9270     3.8020    -0.4700 H     1 <1>   0.0720 
 36 H       10.0570     0.9770    -0.3810 H     1 <1>   0.0720 
 37 H        9.2610     0.0310    -1.6130 H     1 <1>   0.0720 
 38 H        7.4330     5.8990    -1.0500 H     1 <1>   0.3940 
 39 H        7.3960     3.1530     1.9900 H     1 <1>   0.0720 
 40 H        6.9750     4.8150     2.2410 H     1 <1>   0.0720 
 41 H        8.6130     4.3900     1.8170 H     1 <1>   0.0720 
 42 H       10.7250    -1.1310     0.6980 H     1 <1>   0.4450 
 43 H       12.0380     0.2460    -0.9050 H     1 <1>   0.0720 
 44 H       11.7370    -1.0570    -2.0320 H     1 <1>   0.0720 
 45 H       10.7570    -2.9740    -1.2190 H     1 <1>   0.0720 
 46 H        9.1540    -2.3100    -1.3960 H     1 <1>   0.0720 
 47 H       12.9760    -1.3510     0.7340 H     1 <1>   0.0720 
 48 H       13.8420    -1.3710    -0.7740 H     1 <1>   0.0720 
 49 H       12.7420    -2.6640    -0.4110 H     1 <1>   0.0720 
 50 H       10.4030    -3.3230     1.1860 H     1 <1>   0.0720 
 51 H        9.2030    -4.1490     0.2430 H     1 <1>   0.0720 
 52 H        8.7740    -2.6790     1.0640 H     1 <1>   0.0720 
@<TRIPOS>BOND
  1   1   2  2   
  2   2   3  am  
  3   2   4  am  
  4   3   5  1   
  5   3   6  1   
  6   4   7  am  
  7   4  25  1   
  8   5   8  1   
  9   5   9  2   
 10   6  26  1   
 11   6  27  1   
 12   6  28  1   
 13   7   9  1   
 14   7  10  2   
 15   8  11  ar  
 16   8  29  1   
 17   9  12  1   
 18  11  12  ar  
 19  11  13  ar  
 20  12  14  1   
 21  13  15  1   
 22  13  30  1   
 23  14  16  1   
 24  14  31  1   
 25  14  32  1   
 26  15  17  1   
 27  15  33  1   
 28  15  34  1   
 29  16  18  1   
 30  16  19  1   
 31  16  35  1   
 32  17  20  1   
 33  17  36  1   
 34  17  37  1   
 35  18  38  1   
 36  19  39  1   
 37  19  40  1   
 38  19  41  1   
 39  20  21  1   
 40  20  22  1   
 41  20  42  1   
 42  21  23  1   
 43  21  43  1   
 44  21  44  1   
 45  22  24  1   
 46  22  45  1   
 47  22  46  1   
 48  23  47  1   
 49  23  48  1   
 50  23  49  1   
 51  24  50  1   
 52  24  51  1   
 53  24  52  1   
@<TRIPOS>SUBSTRUCTURE
  1 ****  11 GROUP 4 **** **** 0

# MOE 2024.06 (io_trps.svl 2023.06)
