@<TRIPOS>MOLECULE
8-(4-Chloro-phenyl)-3-(2-methoxy-ethyl)-1-methyl-5,6,7,8-tetrahydro-1H-1,3,4b,8,
48 51 1 0 0 
SMALL
USER_CHARGES


@<TRIPOS>ATOM
  1 CL      -0.4950    -0.0720    -1.0160 Cl    1 <1>  -0.1850 
  2 C       -1.3200     1.4170    -0.6390 C.ar  1 <1>   0.1690 
  3 C       -1.4280     2.3980    -1.6080 C.ar  1 <1>  -0.1580 
  4 C       -1.8570     1.5970     0.6230 C.ar  1 <1>  -0.1580 
  5 C       -2.0870     3.5780    -1.3070 C.ar  1 <1>  -0.1580 
  6 C       -2.5140     2.7790     0.9170 C.ar  1 <1>  -0.1580 
  7 C       -2.6380     3.7770    -0.0450 C.ar  1 <1>   0.3040 
  8 N       -3.3130     4.9650     0.2530 N.pl3 1 <1>  -0.5800 
  9 C       -4.6560     5.0810     0.2360 C.cat 1 <1>   1.0690 
 10 C       -2.4800     6.1650     0.5430 C.3   1 <1>   0.1600 
 11 N       -5.5370     4.1360    -0.0830 N.pl3 1 <1>  -0.7040 
 12 N       -5.2920     6.2050     0.5420 N.pl3 1 <1>  -0.7670 
 13 C       -3.2310     7.1380     1.4650 C.3   1 <1>  -0.1680 
 14 C       -6.7850     4.6770     0.0180 C.2   1 <1>   0.4200 
 15 C       -6.6670     5.9670     0.4020 C.2   1 <1>   0.2700 
 16 C       -4.6360     7.4650     0.9480 C.3   1 <1>   0.3480 
 17 N       -8.0010     4.0680    -0.2280 N.am  1 <1>  -0.4420 
 18 C       -7.8480     6.7580     0.5660 C.2   1 <1>   0.6990 
 19 C       -9.1550     4.8310    -0.0970 C.2   1 <1>   0.6860 
 20 C       -8.0770     2.6400    -0.6590 C.3   1 <1>   0.0520 
 21 O       -7.7740     7.9320     0.8870 O.2   1 <1>  -0.5750 
 22 N       -9.0740     6.1500     0.3370 N.am  1 <1>  -0.4260 
 23 O      -10.2310     4.3470    -0.3780 O.2   1 <1>  -0.5750 
 24 C      -10.3370     6.9260     0.5560 C.3   1 <1>   0.1320 
 25 C      -10.8140     7.5670    -0.7470 C.3   1 <1>   0.1120 
 26 O      -11.9440     8.3240    -0.4640 O.3   1 <1>  -0.5650 
 27 C      -12.5020     8.9390    -1.5790 C.3   1 <1>   0.0320 
 28 H       -0.9960     2.2320    -2.5810 H     1 <1>   0.1420 
 29 H       -1.7500     0.8170     1.3590 H     1 <1>   0.1420 
 30 H       -2.1680     4.3460    -2.0560 H     1 <1>   0.1420 
 31 H       -2.9230     2.9270     1.9020 H     1 <1>   0.1420 
 32 H       -2.2370     6.6550    -0.3860 H     1 <1>   0.0720 
 33 H       -1.5580     5.8640     1.0140 H     1 <1>   0.0720 
 34 H       -5.2930     3.1900    -0.3640 H     1 <1>   0.4440 
 35 H       -2.6680     8.0490     1.5610 H     1 <1>   0.0720 
 36 H       -3.3050     6.7090     2.4500 H     1 <1>   0.0720 
 37 H       -5.2100     7.9530     1.7190 H     1 <1>   0.0720 
 38 H       -4.5770     8.1240     0.0970 H     1 <1>   0.0720 
 39 H       -7.9320     2.5750    -1.7240 H     1 <1>   0.0720 
 40 H       -9.0410     2.2240    -0.4180 H     1 <1>   0.0720 
 41 H       -7.3270     2.0540    -0.1570 H     1 <1>   0.0720 
 42 H      -10.1750     7.6960     1.2910 H     1 <1>   0.0720 
 43 H      -11.1060     6.2700     0.9280 H     1 <1>   0.0720 
 44 H      -11.0790     6.8090    -1.4640 H     1 <1>   0.0720 
 45 H      -10.0590     8.2230    -1.1450 H     1 <1>   0.0720 
 46 H      -13.3640     9.4960    -1.2570 H     1 <1>   0.0720 
 47 H      -12.8010     8.1850    -2.2880 H     1 <1>   0.0720 
 48 H      -11.7810     9.6070    -2.0160 H     1 <1>   0.0720 
@<TRIPOS>BOND
  1   1   2  1   
  2   2   3  ar  
  3   2   4  ar  
  4   3   5  ar  
  5   3  28  1   
  6   4   6  ar  
  7   4  29  1   
  8   5   7  ar  
  9   5  30  1   
 10   6   7  ar  
 11   6  31  1   
 12   7   8  1   
 13   8   9  ar  
 14   8  10  1   
 15   9  11  ar  
 16   9  12  ar  
 17  10  13  1   
 18  10  32  1   
 19  10  33  1   
 20  11  14  1   
 21  11  34  1   
 22  12  15  1   
 23  12  16  1   
 24  13  16  1   
 25  13  35  1   
 26  13  36  1   
 27  14  15  2   
 28  14  17  1   
 29  15  18  1   
 30  16  37  1   
 31  16  38  1   
 32  17  19  am  
 33  17  20  1   
 34  18  21  2   
 35  18  22  am  
 36  19  22  am  
 37  19  23  2   
 38  20  39  1   
 39  20  40  1   
 40  20  41  1   
 41  22  24  1   
 42  24  25  1   
 43  24  42  1   
 44  24  43  1   
 45  25  26  1   
 46  25  44  1   
 47  25  45  1   
 48  26  27  1   
 49  27  46  1   
 50  27  47  1   
 51  27  48  1   
@<TRIPOS>SUBSTRUCTURE
  1 ****  14 GROUP 4 **** **** 0

# MOE 2024.06 (io_trps.svl 2023.06)
