@<TRIPOS>MOLECULE
4-[3-(4-Methoxy-phenyl)-[1,2,4]oxadiazol-5-yl]-N-methyl-butyramide
37 38 1 0 0 
SMALL
USER_CHARGES


@<TRIPOS>ATOM
  1 O       -1.0510    -0.6830     1.4670 O.2   1 <1>  -0.5700 
  2 C       -1.2690    -1.6410     0.7690 C.2   1 <1>   0.5690 
  3 N       -0.4230    -2.6970     0.8140 N.am  1 <1>  -0.7300 
  4 C       -2.4780    -1.6560    -0.1570 C.3   1 <1>  -0.0990 
  5 C       -0.4500    -3.9660     0.0410 C.3   1 <1>   0.0600 
  6 C       -3.5000    -0.5330     0.1230 C.3   1 <1>  -0.1600 
  7 C       -4.6590    -0.4920    -0.8880 C.3   1 <1>   0.0200 
  8 C       -5.4580    -1.7820    -0.9300 C.2   1 <1>   0.2980 
  9 O       -5.0520    -2.7500    -1.7090 O.3   1 <1>  -0.0190 
 10 N       -6.5110    -2.0220    -0.2670 N.2   1 <1>  -0.5650 
 11 N       -5.9170    -3.6940    -1.5170 N.2   1 <1>  -0.4100 
 12 C       -6.7840    -3.2690    -0.6660 C.2   1 <1>   0.4620 
 13 C       -7.9270    -4.0190    -0.1730 C.ar  1 <1>   0.0540 
 14 C       -8.7950    -3.4920     0.7870 C.ar  1 <1>  -0.1500 
 15 C       -8.2060    -5.3070    -0.6400 C.ar  1 <1>  -0.1500 
 16 C       -9.8790    -4.2110     1.2540 C.ar  1 <1>  -0.1500 
 17 C       -9.2890    -6.0330    -0.1770 C.ar  1 <1>  -0.1500 
 18 C      -10.1370    -5.4850     0.7790 C.ar  1 <1>   0.0820 
 19 O      -11.2190    -6.1240     1.2870 O.3   1 <1>  -0.3630 
 20 C      -11.5670    -7.4240     0.8700 C.3   1 <1>   0.0400 
 21 H        0.3460    -2.5930     1.4810 H     1 <1>   0.3700 
 22 H       -2.9650    -2.6070    -0.0440 H     1 <1>   0.0800 
 23 H       -2.1210    -1.5730    -1.1660 H     1 <1>   0.0800 
 24 H       -1.1780    -3.9230    -0.7490 H     1 <1>   0.0800 
 25 H       -0.6930    -4.7830     0.6980 H     1 <1>   0.0800 
 26 H        0.5190    -4.1420    -0.3940 H     1 <1>   0.0800 
 27 H       -2.9940     0.4170     0.1010 H     1 <1>   0.0800 
 28 H       -3.8990    -0.6630     1.1150 H     1 <1>   0.0800 
 29 H       -4.2810    -0.2800    -1.8720 H     1 <1>   0.0800 
 30 H       -5.3240     0.3090    -0.6160 H     1 <1>   0.0800 
 31 H       -8.6170    -2.5040     1.1730 H     1 <1>   0.1500 
 32 H       -7.5600    -5.7470    -1.3800 H     1 <1>   0.1500 
 33 H      -10.5350    -3.7870     1.9940 H     1 <1>   0.1500 
 34 H       -9.4560    -7.0170    -0.5700 H     1 <1>   0.1500 
 35 H      -12.4510    -7.7210     1.4050 H     1 <1>   0.0800 
 36 H      -10.7580    -8.0940     1.1010 H     1 <1>   0.0800 
 37 H      -11.7680    -7.4100    -0.1870 H     1 <1>   0.0800 
@<TRIPOS>BOND
  1   1   2  2   
  2   2   3  am  
  3   2   4  1   
  4   3   5  1   
  5   3  21  1   
  6   4   6  1   
  7   4  22  1   
  8   4  23  1   
  9   5  24  1   
 10   5  25  1   
 11   5  26  1   
 12   6   7  1   
 13   6  27  1   
 14   6  28  1   
 15   7   8  1   
 16   7  29  1   
 17   7  30  1   
 18   8   9  1   
 19   8  10  2   
 20   9  11  1   
 21  10  12  1   
 22  11  12  2   
 23  12  13  1   
 24  13  14  ar  
 25  13  15  ar  
 26  14  16  ar  
 27  14  31  1   
 28  15  17  ar  
 29  15  32  1   
 30  16  18  ar  
 31  16  33  1   
 32  17  18  ar  
 33  17  34  1   
 34  18  19  1   
 35  19  20  1   
 36  20  35  1   
 37  20  36  1   
 38  20  37  1   
@<TRIPOS>SUBSTRUCTURE
  1 ****  12 GROUP 4 **** **** 0

# MOE 2024.06 (io_trps.svl 2023.06)
