@<TRIPOS>MOLECULE
[8-(3-Chloro-phenyl)-1,6-dimethyl-2,4-dioxo-1,4,5,6,7,8-hexahydro-2H-1,3,4b,8,9-
53 56 1 0 0 
SMALL
USER_CHARGES


@<TRIPOS>ATOM
  1 CL      -4.5680    -2.2110    -3.2920 Cl    1 <1>  -0.1840 
  2 C       -4.2560    -1.3530    -1.8080 C.ar  1 <1>   0.1700 
  3 C       -5.0220    -0.2470    -1.5020 C.ar  1 <1>  -0.1570 
  4 C       -3.2550    -1.7940    -0.9630 C.ar  1 <1>  -0.1570 
  5 C       -4.7950     0.4340    -0.3140 C.ar  1 <1>   0.3050 
  6 C       -3.0170    -1.1100     0.2170 C.ar  1 <1>  -0.1570 
  7 N       -5.5870     1.5320     0.0320 N.pl3 1 <1>  -0.5800 
  8 C       -3.7850    -0.0030     0.5370 C.ar  1 <1>  -0.1570 
  9 C       -6.8860     1.4190     0.3750 C.cat 1 <1>   1.0690 
 10 C       -4.9890     2.8880    -0.1310 C.3   1 <1>   0.1610 
 11 N       -7.5850     0.2920     0.4950 N.pl3 1 <1>  -0.7040 
 12 N       -7.6620     2.4620     0.6340 N.pl3 1 <1>  -0.7670 
 13 C       -5.6970     3.9300     0.7580 C.3   1 <1>  -0.0870 
 14 C       -8.8640     0.6290     0.8240 C.2   1 <1>   0.4210 
 15 C       -8.9470     1.9740     0.9120 C.2   1 <1>   0.2710 
 16 C       -7.2260     3.8730     0.5860 C.3   1 <1>   0.3480 
 17 C       -5.1670     5.3400     0.4610 C.3   1 <1>  -0.2460 
 18 N       -9.9380    -0.2150     1.0340 N.am  1 <1>  -0.4410 
 19 C      -10.2070     2.5720     1.2260 C.2   1 <1>   0.6990 
 20 C      -11.1800     0.3600     1.2720 C.2   1 <1>   0.6860 
 21 C       -9.7930    -1.6960     0.9210 C.3   1 <1>   0.0530 
 22 O      -10.3220     3.7780     1.3670 O.2   1 <1>  -0.5740 
 23 N      -11.3040     1.7390     1.3660 N.am  1 <1>  -0.4250 
 24 O      -12.1620    -0.3420     1.3920 O.2   1 <1>  -0.5740 
 25 C      -12.6660     2.3430     1.1740 C.3   1 <1>   0.1940 
 26 C      -12.9720     2.5600    -0.3050 C.2   1 <1>   0.6550 
 27 O      -12.1400     2.3670    -1.1610 O.2   1 <1>  -0.5740 
 28 O      -14.1980     2.9760    -0.5850 O.3   1 <1>  -0.4350 
 29 C      -14.6160     3.2120    -1.9100 C.3   1 <1>   0.1130 
 30 C      -16.0680     3.6780    -1.8720 C.3   1 <1>  -0.2460 
 31 H       -5.7820     0.0740    -2.1900 H     1 <1>   0.1430 
 32 H       -2.6700    -2.6590    -1.2290 H     1 <1>   0.1430 
 33 H       -2.2350    -1.4430     0.8810 H     1 <1>   0.1430 
 34 H       -3.5960     0.5240     1.4560 H     1 <1>   0.1430 
 35 H       -5.0690     3.1780    -1.1660 H     1 <1>   0.0730 
 36 H       -3.9420     2.8560     0.1240 H     1 <1>   0.0730 
 37 H       -7.2100    -0.6410     0.3470 H     1 <1>   0.4450 
 38 H       -5.4660     3.7090     1.7860 H     1 <1>   0.0730 
 39 H       -7.7050     4.4350     1.3710 H     1 <1>   0.0730 
 40 H       -7.5140     4.2980    -0.3610 H     1 <1>   0.0730 
 41 H       -5.3640     5.6230    -0.5590 H     1 <1>   0.0730 
 42 H       -4.1030     5.3840     0.6260 H     1 <1>   0.0730 
 43 H       -5.6320     6.0620     1.1100 H     1 <1>   0.0730 
 44 H       -9.8590    -1.9890    -0.1130 H     1 <1>   0.0730 
 45 H      -10.5760    -2.1940     1.4690 H     1 <1>   0.0730 
 46 H       -8.8500    -2.0140     1.3270 H     1 <1>   0.0730 
 47 H      -12.7240     3.2890     1.6820 H     1 <1>   0.0730 
 48 H      -13.4220     1.7040     1.5940 H     1 <1>   0.0730 
 49 H      -14.5200     2.2950    -2.4670 H     1 <1>   0.0730 
 50 H      -13.9800     3.9670    -2.3400 H     1 <1>   0.0730 
 51 H      -16.6900     2.9200    -1.4320 H     1 <1>   0.0730 
 52 H      -16.4130     3.8660    -2.8720 H     1 <1>   0.0730 
 53 H      -16.1510     4.5880    -1.3050 H     1 <1>   0.0730 
@<TRIPOS>BOND
  1   1   2  1   
  2   2   3  ar  
  3   2   4  ar  
  4   3   5  ar  
  5   3  31  1   
  6   4   6  ar  
  7   4  32  1   
  8   5   7  1   
  9   5   8  ar  
 10   6   8  ar  
 11   6  33  1   
 12   7   9  ar  
 13   7  10  1   
 14   8  34  1   
 15   9  11  ar  
 16   9  12  ar  
 17  10  13  1   
 18  10  35  1   
 19  10  36  1   
 20  11  14  1   
 21  11  37  1   
 22  12  15  1   
 23  12  16  1   
 24  13  16  1   
 25  13  17  1   
 26  13  38  1   
 27  14  15  2   
 28  14  18  1   
 29  15  19  1   
 30  16  39  1   
 31  16  40  1   
 32  17  41  1   
 33  17  42  1   
 34  17  43  1   
 35  18  20  am  
 36  18  21  1   
 37  19  22  2   
 38  19  23  am  
 39  20  23  am  
 40  20  24  2   
 41  21  44  1   
 42  21  45  1   
 43  21  46  1   
 44  23  25  1   
 45  25  26  1   
 46  25  47  1   
 47  25  48  1   
 48  26  27  2   
 49  26  28  1   
 50  28  29  1   
 51  29  30  1   
 52  29  49  1   
 53  29  50  1   
 54  30  51  1   
 55  30  52  1   
 56  30  53  1   
@<TRIPOS>SUBSTRUCTURE
  1 ****  14 GROUP 4 **** **** 0

# MOE 2024.06 (io_trps.svl 2023.06)
