@<TRIPOS>MOLECULE
4-(2,5-Dimethyl-phenyl)-6-morpholin-4-ylmethyl-2-oxo-1,2,3,4-tetrahydro-pyrimidi
51 53 1 0 0 
SMALL
USER_CHARGES


@<TRIPOS>ATOM
  1 O       -0.4290     1.0050     1.3180 O.2   1 <1>  -0.5700 
  2 C       -1.5840     1.3630     1.3290 C.2   1 <1>   0.6900 
  3 N       -2.5900     0.4760     1.1490 N.am  1 <1>  -0.5390 
  4 N       -1.9020     2.6590     1.4760 N.am  1 <1>  -0.7300 
  5 C       -3.9230     0.8040     0.9920 C.2   1 <1>  -0.0290 
  6 C       -3.2740     3.1890     1.3620 C.3   1 <1>   0.5020 
  7 C       -4.3240     2.1020     1.0930 C.2   1 <1>  -0.1240 
  8 C       -4.8280    -0.4090     0.7300 C.3   1 <1>   0.2480 
  9 C       -3.2570     4.3230     0.3280 C.ar  1 <1>  -0.1430 
 10 C       -5.6580     2.6120     0.9960 C.2   1 <1>   0.7060 
 11 N       -4.1170    -1.4600    -0.0310 N.3   1 <1>  -0.8100 
 12 C       -3.1460     4.1360    -1.0520 C.ar  1 <1>  -0.1440 
 13 C       -3.3610     5.6200     0.8210 C.ar  1 <1>  -0.1500 
 14 O       -6.5670     2.0200     0.4490 O.2   1 <1>  -0.5700 
 15 O       -5.9290     3.7960     1.5610 O.3   1 <1>  -0.4300 
 16 C       -4.8780    -2.7250    -0.0120 C.3   1 <1>   0.1100 
 17 C       -3.8960    -1.0510    -1.4350 C.3   1 <1>   0.1100 
 18 C       -3.1500     5.2400    -1.8910 C.ar  1 <1>  -0.1500 
 19 C       -3.0200     2.7640    -1.7020 C.3   1 <1>  -0.0970 
 20 C       -3.3640     6.7170    -0.0210 C.ar  1 <1>  -0.1430 
 21 C       -7.2030     4.4020     1.4520 C.3   1 <1>   0.0400 
 22 C       -4.1780    -3.8040    -0.8580 C.3   1 <1>   0.1200 
 23 C       -3.2270    -2.1770    -2.2420 C.3   1 <1>   0.1200 
 24 C       -3.2570     6.5200    -1.3840 C.ar  1 <1>  -0.1500 
 25 C       -3.4800     8.1200     0.5470 C.3   1 <1>  -0.0970 
 26 O       -3.9860    -3.3510    -2.1680 O.3   1 <1>  -0.5600 
 27 H       -2.3150    -0.4960     0.9760 H     1 <1>   0.3700 
 28 H       -1.1480     3.3370     1.3910 H     1 <1>   0.3700 
 29 H       -3.5100     3.6120     2.3230 H     1 <1>   0.0800 
 30 H       -5.7230    -0.1370     0.2010 H     1 <1>   0.0800 
 31 H       -5.1180    -0.8100     1.6860 H     1 <1>   0.0800 
 32 H       -3.4450     5.7870     1.8800 H     1 <1>   0.1500 
 33 H       -5.8700    -2.5680    -0.3990 H     1 <1>   0.0800 
 34 H       -4.9630    -3.0770     1.0020 H     1 <1>   0.0800 
 35 H       -3.2620    -0.1830    -1.4640 H     1 <1>   0.0800 
 36 H       -4.8340    -0.7980    -1.9010 H     1 <1>   0.0800 
 37 H       -3.0680     5.1120    -2.9560 H     1 <1>   0.1500 
 38 H       -2.7700     2.8540    -2.7440 H     1 <1>   0.0800 
 39 H       -2.2420     2.1920    -1.2330 H     1 <1>   0.0800 
 40 H       -3.9500     2.2330    -1.6290 H     1 <1>   0.0800 
 41 H       -7.1770     5.3450     1.9680 H     1 <1>   0.0800 
 42 H       -7.9380     3.7540     1.8960 H     1 <1>   0.0800 
 43 H       -7.4240     4.5580     0.4100 H     1 <1>   0.0800 
 44 H       -4.7820    -4.6930    -0.9040 H     1 <1>   0.0800 
 45 H       -3.2210    -4.0540    -0.4350 H     1 <1>   0.0800 
 46 H       -2.2410    -2.3790    -1.8610 H     1 <1>   0.0800 
 47 H       -3.1510    -1.9000    -3.2780 H     1 <1>   0.0800 
 48 H       -3.2560     7.3600    -2.0560 H     1 <1>   0.1500 
 49 H       -4.1170     8.1240     1.4130 H     1 <1>   0.0800 
 50 H       -3.8990     8.7890    -0.1830 H     1 <1>   0.0800 
 51 H       -2.5070     8.4800     0.8280 H     1 <1>   0.0800 
@<TRIPOS>BOND
  1   1   2  2   
  2   2   3  am  
  3   2   4  am  
  4   3   5  1   
  5   3  27  1   
  6   4   6  1   
  7   4  28  1   
  8   5   7  2   
  9   5   8  1   
 10   6   7  1   
 11   6   9  1   
 12   6  29  1   
 13   7  10  1   
 14   8  11  1   
 15   8  30  1   
 16   8  31  1   
 17   9  12  ar  
 18   9  13  ar  
 19  10  14  2   
 20  10  15  1   
 21  11  16  1   
 22  11  17  1   
 23  12  18  ar  
 24  12  19  1   
 25  13  20  ar  
 26  13  32  1   
 27  15  21  1   
 28  16  22  1   
 29  16  33  1   
 30  16  34  1   
 31  17  23  1   
 32  17  35  1   
 33  17  36  1   
 34  18  24  ar  
 35  18  37  1   
 36  19  38  1   
 37  19  39  1   
 38  19  40  1   
 39  20  24  ar  
 40  20  25  1   
 41  21  41  1   
 42  21  42  1   
 43  21  43  1   
 44  22  26  1   
 45  22  44  1   
 46  22  45  1   
 47  23  26  1   
 48  23  46  1   
 49  23  47  1   
 50  24  48  1   
 51  25  49  1   
 52  25  50  1   
 53  25  51  1   
@<TRIPOS>SUBSTRUCTURE
  1 ****   7 GROUP 4 **** **** 0

# MOE 2024.06 (io_trps.svl 2023.06)
