@<TRIPOS>MOLECULE
8-(4-Methoxy-benzyl)-1,7-dimethyl-3-propyl-1H,8H-imidazo[2,1-f]purine-2,4-dione
52 55 1 0 0 
SMALL
USER_CHARGES


@<TRIPOS>ATOM
  1 O        2.7610     1.8060     2.1720 O.2   1 <1>  -0.5740 
  2 C        3.2900     2.0020     1.0970 C.2   1 <1>   0.6860 
  3 N        2.5500     2.5040     0.0290 N.am  1 <1>  -0.4250 
  4 N        4.6430     1.7270     0.9380 N.am  1 <1>  -0.4410 
  5 C        3.1400     2.7550    -1.2040 C.2   1 <1>   0.7000 
  6 C        1.1020     2.8110     0.2220 C.3   1 <1>   0.1330 
  7 C        5.2220     2.0010    -0.2820 C.2   1 <1>   0.4210 
  8 C        5.4580     1.1790     2.0650 C.3   1 <1>   0.0530 
  9 O        2.4910     3.1860    -2.1430 O.2   1 <1>  -0.5740 
 10 C        4.5340     2.4930    -1.3400 C.2   1 <1>   0.2710 
 11 C        0.9290     4.2580     0.6940 C.3   1 <1>  -0.1670 
 12 N        6.5250     1.8390    -0.6370 N.pl3 1 <1>  -0.7030 
 13 N        5.4640     2.6310    -2.3870 N.pl3 1 <1>  -0.6330 
 14 C       -0.5500     4.5980     0.9040 C.3   1 <1>  -0.2460 
 15 C        6.6360     2.2270    -1.9130 C.cat 1 <1>   1.0690 
 16 C        5.6690     3.0100    -3.6990 C.2   1 <1>   0.2230 
 17 N        7.6020     2.3180    -2.8420 N.pl3 1 <1>  -0.5720 
 18 C        6.9800     2.8170    -3.9770 C.2   1 <1>   0.1580 
 19 C        9.0430     1.9600    -2.6960 C.3   1 <1>   0.3050 
 20 C        7.7330     3.0710    -5.2700 C.3   1 <1>  -0.1090 
 21 C        9.2890     1.4920    -1.2730 C.ar  1 <1>  -0.1510 
 22 C        9.1000     0.1590    -0.9380 C.ar  1 <1>  -0.1570 
 23 C        9.6090     2.4090    -0.2820 C.ar  1 <1>  -0.1570 
 24 C        9.1740    -0.2390     0.3830 C.ar  1 <1>  -0.1570 
 25 C        9.6890     2.0090     1.0400 C.ar  1 <1>  -0.1570 
 26 C        9.4510     0.6810     1.3800 C.ar  1 <1>   0.0750 
 27 O        9.4620     0.2180     2.6510 O.3   1 <1>  -0.3680 
 28 C        9.9940     0.9890     3.7070 C.3   1 <1>   0.0320 
 29 H        0.6780     2.1380     0.9490 H     1 <1>   0.0730 
 30 H        0.5680     2.6630    -0.7020 H     1 <1>   0.0730 
 31 H        4.8300     0.6540     2.7650 H     1 <1>   0.0730 
 32 H        5.9510     1.9840     2.5830 H     1 <1>   0.0730 
 33 H        6.1970     0.4880     1.6980 H     1 <1>   0.0730 
 34 H        1.3390     4.9310    -0.0390 H     1 <1>   0.0730 
 35 H        1.4520     4.3980     1.6250 H     1 <1>   0.0730 
 36 H        7.3230     1.4940    -0.0900 H     1 <1>   0.4450 
 37 H       -1.0970     4.4840    -0.0160 H     1 <1>   0.0730 
 38 H       -0.6490     5.6160     1.2360 H     1 <1>   0.0730 
 39 H       -0.9830     3.9530     1.6490 H     1 <1>   0.0730 
 40 H        4.8720     3.3830    -4.3250 H     1 <1>   0.1430 
 41 H        9.6540     2.8200    -2.9130 H     1 <1>   0.0730 
 42 H        9.2950     1.1780    -3.3920 H     1 <1>   0.0730 
 43 H        7.0660     3.4550    -6.0220 H     1 <1>   0.0730 
 44 H        8.5160     3.7910    -5.1110 H     1 <1>   0.0730 
 45 H        8.1670     2.1570    -5.6350 H     1 <1>   0.0730 
 46 H        8.8800    -0.5770    -1.6950 H     1 <1>   0.1430 
 47 H        9.7870     3.4440    -0.5270 H     1 <1>   0.1430 
 48 H        9.0220    -1.2700     0.6540 H     1 <1>   0.1430 
 49 H        9.9320     2.7380     1.7910 H     1 <1>   0.1430 
 50 H        9.9930     0.3830     4.5960 H     1 <1>   0.0730 
 51 H        9.3750     1.8560     3.8580 H     1 <1>   0.0730 
 52 H       11.0020     1.2720     3.4600 H     1 <1>   0.0730 
@<TRIPOS>BOND
  1   1   2  2   
  2   2   3  am  
  3   2   4  am  
  4   3   5  am  
  5   3   6  1   
  6   4   7  1   
  7   4   8  1   
  8   5   9  2   
  9   5  10  1   
 10   6  11  1   
 11   6  29  1   
 12   6  30  1   
 13   7  10  2   
 14   7  12  1   
 15   8  31  1   
 16   8  32  1   
 17   8  33  1   
 18  10  13  1   
 19  11  14  1   
 20  11  34  1   
 21  11  35  1   
 22  12  15  ar  
 23  12  36  1   
 24  13  15  ar  
 25  13  16  1   
 26  14  37  1   
 27  14  38  1   
 28  14  39  1   
 29  15  17  ar  
 30  16  18  2   
 31  16  40  1   
 32  17  18  1   
 33  17  19  1   
 34  18  20  1   
 35  19  21  1   
 36  19  41  1   
 37  19  42  1   
 38  20  43  1   
 39  20  44  1   
 40  20  45  1   
 41  21  22  ar  
 42  21  23  ar  
 43  22  24  ar  
 44  22  46  1   
 45  23  25  ar  
 46  23  47  1   
 47  24  26  ar  
 48  24  48  1   
 49  25  26  ar  
 50  25  49  1   
 51  26  27  1   
 52  27  28  1   
 53  28  50  1   
 54  28  51  1   
 55  28  52  1   
@<TRIPOS>SUBSTRUCTURE
  1 ****  12 GROUP 4 **** **** 0

# MOE 2024.06 (io_trps.svl 2023.06)
