@<TRIPOS>MOLECULE
7-(2-Hydroxy-ethyl)-8-(2-hydroxy-propylamino)-3-methyl-3,7-dihydro-purine-2,6-di
38 39 1 0 0 
SMALL
USER_CHARGES


@<TRIPOS>ATOM
  1 O        0.4610     0.5800     0.1350 O.2   1 <1>  -0.5770 
  2 C        1.5760     1.0450     0.1480 C.2   1 <1>   0.6840 
  3 N        2.7100     0.2570     0.0060 N.am  1 <1>  -0.4440 
  4 N        1.7150     2.3940     0.3050 N.am  1 <1>  -0.4970 
  5 C        3.9420     0.8940     0.0290 C.2   1 <1>   0.4180 
  6 C        2.6080    -1.2210    -0.1690 C.3   1 <1>   0.0490 
  7 C        2.9200     3.0370     0.3260 C.2   1 <1>   0.6970 
  8 N        5.1740     0.3300    -0.0970 N.pl3 1 <1>  -0.7060 
  9 C        4.0950     2.2290     0.1850 C.2   1 <1>   0.2680 
 10 O        2.9440     4.2450     0.4510 O.2   1 <1>  -0.5770 
 11 C        6.0790     1.3000    -0.0180 C.cat 1 <1>   1.0680 
 12 N        5.4800     2.4750     0.1570 N.pl3 1 <1>  -0.7690 
 13 N        7.3860     1.1180    -0.1070 N.pl3 1 <1>  -0.7200 
 14 C        6.1010     3.8180     0.3460 C.3   1 <1>   0.3450 
 15 C        8.2060    -0.1100    -0.2190 C.3   1 <1>   0.1570 
 16 C        6.0540     4.6360    -0.9510 C.3   1 <1>   0.1090 
 17 C        9.6020     0.1600     0.3850 C.3   1 <1>   0.1900 
 18 O        6.9620     5.6770    -0.8470 O.3   1 <1>  -0.6860 
 19 O        9.9250     1.5000     0.2100 O.3   1 <1>  -0.6860 
 20 C       10.7000    -0.6660    -0.2770 C.3   1 <1>  -0.2500 
 21 H        0.8640     2.9440     0.4050 H     1 <1>   0.3610 
 22 H        1.5880    -1.5500    -0.0610 H     1 <1>   0.0690 
 23 H        3.2040    -1.7200     0.5740 H     1 <1>   0.0690 
 24 H        2.9510    -1.4960    -1.1510 H     1 <1>   0.0690 
 25 H        5.3900    -0.6510    -0.2430 H     1 <1>   0.4420 
 26 H        8.0210     1.9270    -0.0410 H     1 <1>   0.4420 
 27 H        7.1280     3.6990     0.6490 H     1 <1>   0.0690 
 28 H        5.5820     4.3520     1.1230 H     1 <1>   0.0690 
 29 H        8.3140    -0.3630    -1.2610 H     1 <1>   0.0690 
 30 H        7.7410    -0.9380     0.2870 H     1 <1>   0.0690 
 31 H        5.0740     5.0540    -1.1030 H     1 <1>   0.0690 
 32 H        6.3410     4.0370    -1.7970 H     1 <1>   0.0690 
 33 H        9.5860    -0.0360     1.4450 H     1 <1>   0.0690 
 34 H        6.8980     6.2830    -1.6150 H     1 <1>   0.3920 
 35 H       10.8680     1.6430     0.4390 H     1 <1>   0.3920 
 36 H       10.7690    -0.4380    -1.3270 H     1 <1>   0.0690 
 37 H       10.4850    -1.7140    -0.1710 H     1 <1>   0.0690 
 38 H       11.6490    -0.4740     0.1910 H     1 <1>   0.0690 
@<TRIPOS>BOND
  1   1   2  2   
  2   2   3  am  
  3   2   4  am  
  4   3   5  1   
  5   3   6  1   
  6   4   7  am  
  7   4  21  1   
  8   5   8  1   
  9   5   9  2   
 10   6  22  1   
 11   6  23  1   
 12   6  24  1   
 13   7   9  1   
 14   7  10  2   
 15   8  11  ar  
 16   8  25  1   
 17   9  12  1   
 18  11  12  ar  
 19  11  13  ar  
 20  12  14  1   
 21  13  15  1   
 22  13  26  1   
 23  14  16  1   
 24  14  27  1   
 25  14  28  1   
 26  15  17  1   
 27  15  29  1   
 28  15  30  1   
 29  16  18  1   
 30  16  31  1   
 31  16  32  1   
 32  17  19  1   
 33  17  20  1   
 34  17  33  1   
 35  18  34  1   
 36  19  35  1   
 37  20  36  1   
 38  20  37  1   
 39  20  38  1   
@<TRIPOS>SUBSTRUCTURE
  1 ****  12 GROUP 4 **** **** 0

# MOE 2024.06 (io_trps.svl 2023.06)
