@<TRIPOS>MOLECULE
2-Chloro-N-(2-methoxy-1-methyl-ethyl)-acetamide
22 21 1 0 0 
SMALL
USER_CHARGES


@<TRIPOS>ATOM
  1 CL      -3.5300    -0.0040    -2.4280 Cl    1 <1>  -0.2900 
  2 C       -2.3320    -0.5740    -1.2660 C.3   1 <1>   0.1910 
  3 C       -2.6680    -0.0960     0.1410 C.2   1 <1>   0.5690 
  4 O       -1.9020     0.6520     0.6940 O.2   1 <1>  -0.5700 
  5 N       -3.7830    -0.5010     0.8010 N.am  1 <1>  -0.7300 
  6 C       -4.8580    -1.4090     0.3500 C.3   1 <1>   0.2200 
  7 C       -6.1080    -0.5900    -0.0100 C.3   1 <1>   0.1200 
  8 C       -5.1130    -2.4070     1.4790 C.3   1 <1>  -0.2400 
  9 O       -7.1270    -1.4490    -0.4250 O.3   1 <1>  -0.5600 
 10 C       -8.2820    -0.7930    -0.8390 C.3   1 <1>   0.0400 
 11 H       -1.3790    -0.1840    -1.5700 H     1 <1>   0.0800 
 12 H       -2.3170    -1.6460    -1.3070 H     1 <1>   0.0800 
 13 H       -3.8990    -0.1170     1.7410 H     1 <1>   0.3700 
 14 H       -4.5400    -1.9420    -0.5290 H     1 <1>   0.0800 
 15 H       -5.8830     0.0860    -0.8170 H     1 <1>   0.0800 
 16 H       -6.4560    -0.0400     0.8460 H     1 <1>   0.0800 
 17 H       -5.4700    -1.9040     2.3600 H     1 <1>   0.0800 
 18 H       -4.2130    -2.9460     1.7110 H     1 <1>   0.0800 
 19 H       -5.8600    -3.1180     1.1720 H     1 <1>   0.0800 
 20 H       -9.0020    -1.5370    -1.1310 H     1 <1>   0.0800 
 21 H       -8.0500    -0.1630    -1.6810 H     1 <1>   0.0800 
 22 H       -8.6730    -0.2100    -0.0230 H     1 <1>   0.0800 
@<TRIPOS>BOND
  1   1   2  1   
  2   2   3  1   
  3   2  11  1   
  4   2  12  1   
  5   3   4  2   
  6   3   5  am  
  7   5   6  1   
  8   5  13  1   
  9   6   7  1   
 10   6   8  1   
 11   6  14  1   
 12   7   9  1   
 13   7  15  1   
 14   7  16  1   
 15   8  17  1   
 16   8  18  1   
 17   8  19  1   
 18   9  10  1   
 19  10  20  1   
 20  10  21  1   
 21  10  22  1   
@<TRIPOS>SUBSTRUCTURE
  1 ****   6 GROUP 4 **** **** 0

# MOE 2024.06 (io_trps.svl 2023.06)
