@<TRIPOS>MOLECULE
3-Cyclohexyl-N-[5-(2-ethoxy-ethyl)-[1,3,4]thiadiazol-2-yl]-propionamide
46 47 1 0 0 
SMALL
USER_CHARGES


@<TRIPOS>ATOM
  1 S       -0.6110    -0.1840    -0.3760 S.3   1 <1>  -0.0800 
  2 C       -1.9180     0.0260     0.7430 C.2   1 <1>   0.4420 
  3 C       -0.0660     1.3950     0.0740 C.2   1 <1>   0.1980 
  4 N       -1.8710     1.1640     1.3330 N.2   1 <1>  -0.3380 
  5 N       -2.8080    -1.0220     0.8510 N.am  1 <1>  -0.4940 
  6 N       -0.8130     1.9400     0.9470 N.2   1 <1>  -0.3380 
  7 C        1.1860     1.9250    -0.5970 C.3   1 <1>   0.0200 
  8 C       -3.9240    -1.1350     1.6260 C.2   1 <1>   0.5690 
  9 C        1.5390     3.3240    -0.0950 C.3   1 <1>   0.1200 
 10 O       -4.3160    -0.2780     2.3730 O.2   1 <1>  -0.5700 
 11 C       -4.7120    -2.4280     1.5300 C.3   1 <1>  -0.0990 
 12 O        2.6920     3.7390    -0.7510 O.3   1 <1>  -0.5600 
 13 C       -5.4620    -2.5510     0.1900 C.3   1 <1>  -0.1600 
 14 C        3.1220     5.0060    -0.3820 C.3   1 <1>   0.1200 
 15 C       -6.3770    -3.7870     0.1100 C.3   1 <1>  -0.0800 
 16 C        4.3820     5.3140    -1.1800 C.3   1 <1>  -0.2400 
 17 C       -5.5830    -5.1080     0.1590 C.3   1 <1>  -0.1600 
 18 C       -7.2190    -3.7200    -1.1780 C.3   1 <1>  -0.1600 
 19 C       -6.5020    -6.3280     0.0090 C.3   1 <1>  -0.1600 
 20 C       -8.1390    -4.9390    -1.3210 C.3   1 <1>  -0.1600 
 21 C       -7.3370    -6.2440    -1.2740 C.3   1 <1>  -0.1600 
 22 H       -2.6050    -1.8190     0.2560 H     1 <1>   0.3700 
 23 H        1.0250     1.9620    -1.6580 H     1 <1>   0.0800 
 24 H        2.0030     1.2590    -0.3870 H     1 <1>   0.0800 
 25 H        1.7270     3.3070     0.9660 H     1 <1>   0.0800 
 26 H        0.7430     4.0150    -0.3150 H     1 <1>   0.0800 
 27 H       -5.4220    -2.4510     2.3380 H     1 <1>   0.0800 
 28 H       -4.0340    -3.2490     1.6660 H     1 <1>   0.0800 
 29 H       -4.7580    -2.5740    -0.6240 H     1 <1>   0.0800 
 30 H       -6.0670    -1.6680     0.0690 H     1 <1>   0.0800 
 31 H        3.3310     5.0090     0.6750 H     1 <1>   0.0800 
 32 H        2.3450     5.7180    -0.6070 H     1 <1>   0.0800 
 33 H       -7.0540    -3.7650     0.9480 H     1 <1>   0.0800 
 34 H        5.1450     4.5900    -0.9580 H     1 <1>   0.0800 
 35 H        4.7480     6.2900    -0.9220 H     1 <1>   0.0800 
 36 H        4.1650     5.2940    -2.2330 H     1 <1>   0.0800 
 37 H       -5.0610    -5.1950     1.0950 H     1 <1>   0.0800 
 38 H       -4.8540    -5.1190    -0.6320 H     1 <1>   0.0800 
 39 H       -6.5660    -3.6720    -2.0330 H     1 <1>   0.0800 
 40 H       -7.8200    -2.8270    -1.1720 H     1 <1>   0.0800 
 41 H       -7.1620    -6.3830     0.8580 H     1 <1>   0.0800 
 42 H       -5.9100    -7.2270    -0.0060 H     1 <1>   0.0800 
 43 H       -8.6750    -4.8790    -2.2530 H     1 <1>   0.0800 
 44 H       -8.8630    -4.9360    -0.5240 H     1 <1>   0.0800 
 45 H       -8.0100    -7.0830    -1.3220 H     1 <1>   0.0800 
 46 H       -6.6850    -6.2940    -2.1290 H     1 <1>   0.0800 
@<TRIPOS>BOND
  1   1   2  1   
  2   1   3  1   
  3   2   4  2   
  4   2   5  1   
  5   3   6  2   
  6   3   7  1   
  7   4   6  1   
  8   5   8  am  
  9   5  22  1   
 10   7   9  1   
 11   7  23  1   
 12   7  24  1   
 13   8  10  2   
 14   8  11  1   
 15   9  12  1   
 16   9  25  1   
 17   9  26  1   
 18  11  13  1   
 19  11  27  1   
 20  11  28  1   
 21  12  14  1   
 22  13  15  1   
 23  13  29  1   
 24  13  30  1   
 25  14  16  1   
 26  14  31  1   
 27  14  32  1   
 28  15  17  1   
 29  15  18  1   
 30  15  33  1   
 31  16  34  1   
 32  16  35  1   
 33  16  36  1   
 34  17  19  1   
 35  17  37  1   
 36  17  38  1   
 37  18  20  1   
 38  18  39  1   
 39  18  40  1   
 40  19  21  1   
 41  19  41  1   
 42  19  42  1   
 43  20  21  1   
 44  20  43  1   
 45  20  44  1   
 46  21  45  1   
 47  21  46  1   
@<TRIPOS>SUBSTRUCTURE
  1 ****   5 GROUP 4 **** **** 0

# MOE 2024.06 (io_trps.svl 2023.06)
