@<TRIPOS>MOLECULE
(3-Amino-adamantan-1-yl)-acetic acid
34 36 1 0 0 
SMALL
USER_CHARGES


@<TRIPOS>ATOM
  1 O       -0.3010    -0.8650     2.0260 O.co2 1 <1>  -0.9000 
  2 C       -0.1320    -1.1380     0.8350 C.2   1 <1>   0.9060 
  3 O       -0.9150    -0.8000    -0.0560 O.co2 1 <1>  -0.9000 
  4 C        1.0980    -1.9220     0.4470 C.3   1 <1>  -0.2660 
  5 C        0.9090    -3.4530     0.4550 C.3   1 <1>   0.0000 
  6 C        2.2370    -4.1160     0.0430 C.3   1 <1>  -0.1600 
  7 C       -0.1890    -3.8900    -0.5420 C.3   1 <1>  -0.1600 
  8 C        0.5190    -3.9650     1.8610 C.3   1 <1>  -0.1600 
  9 C        2.0830    -5.6420     0.0400 C.3   1 <1>   0.5030 
 10 C       -0.3420    -5.4220    -0.5560 C.3   1 <1>  -0.0800 
 11 C        0.3730    -5.4980     1.8680 C.3   1 <1>  -0.0800 
 12 N        3.3510    -6.2370    -0.3520 N.4   1 <1>  -0.8530 
 13 C        0.9980    -6.0580    -0.9650 C.3   1 <1>  -0.1600 
 14 C        1.7100    -6.1330     1.4480 C.3   1 <1>  -0.1600 
 15 C       -0.7210    -5.9000     0.8590 C.3   1 <1>  -0.1600 
 16 H        1.8750    -1.6410     1.1320 H     1 <1>   0.0800 
 17 H        1.3840    -1.5890    -0.5310 H     1 <1>   0.0800 
 18 H        3.0030    -3.8170     0.7380 H     1 <1>   0.0800 
 19 H        2.5090    -3.7650    -0.9370 H     1 <1>   0.0800 
 20 H        0.0410    -3.5260    -1.5280 H     1 <1>   0.0800 
 21 H       -1.1310    -3.4450    -0.2610 H     1 <1>   0.0800 
 22 H        1.2540    -3.6550     2.5840 H     1 <1>   0.0800 
 23 H       -0.4160    -3.5210     2.1620 H     1 <1>   0.0800 
 24 H       -1.1160    -5.6990    -1.2530 H     1 <1>   0.0800 
 25 H        0.0950    -5.8280     2.8550 H     1 <1>   0.0800 
 26 H        4.0750    -5.9560     0.3130 H     1 <1>   0.4500 
 27 H        3.6040    -5.9060    -1.2860 H     1 <1>   0.4500 
 28 H        3.2680    -7.2560    -0.3600 H     1 <1>   0.4500 
 29 H        1.2510    -5.7210    -1.9560 H     1 <1>   0.0800 
 30 H        0.8850    -7.1270    -0.9830 H     1 <1>   0.0800 
 31 H        2.4650    -5.8500     2.1610 H     1 <1>   0.0800 
 32 H        1.6060    -7.2040     1.4620 H     1 <1>   0.0800 
 33 H       -0.8620    -6.9660     0.8670 H     1 <1>   0.0800 
 34 H       -1.6560    -5.4500     1.1490 H     1 <1>   0.0800 
@<TRIPOS>BOND
  1   1   2  ar  
  2   2   3  ar  
  3   2   4  1   
  4   4   5  1   
  5   4  16  1   
  6   4  17  1   
  7   5   6  1   
  8   5   7  1   
  9   5   8  1   
 10   6   9  1   
 11   6  18  1   
 12   6  19  1   
 13   7  10  1   
 14   7  20  1   
 15   7  21  1   
 16   8  11  1   
 17   8  22  1   
 18   8  23  1   
 19   9  12  1   
 20   9  13  1   
 21   9  14  1   
 22  10  13  1   
 23  10  15  1   
 24  10  24  1   
 25  11  14  1   
 26  11  15  1   
 27  11  25  1   
 28  12  26  1   
 29  12  27  1   
 30  12  28  1   
 31  13  29  1   
 32  13  30  1   
 33  14  31  1   
 34  14  32  1   
 35  15  33  1   
 36  15  34  1   
@<TRIPOS>SUBSTRUCTURE
  1 ****   5 GROUP 4 **** **** 0

# MOE 2024.06 (io_trps.svl 2023.06)
