@<TRIPOS>MOLECULE
5-Ethyl-3-ethylsulfanyl-8-fluoro-5H-[1,2,4]triazino[5,6-b]indole
32 34 1 0 0 
SMALL
USER_CHARGES


@<TRIPOS>ATOM
  1 S       -0.3410     0.1230    -0.1220 S.3   1 <1>  -0.3320 
  2 C       -2.0410     0.6870    -0.1570 C.ar  1 <1>   0.7220 
  3 C        0.6920     1.5600    -0.6600 C.3   1 <1>   0.0700 
  4 N       -2.2480     1.9570    -0.5850 N.ar  1 <1>  -0.3100 
  5 N       -2.9320    -0.1880     0.2340 N.ar  1 <1>  -0.5670 
  6 C        0.9270     2.4650     0.5490 C.3   1 <1>  -0.2400 
  7 N       -3.4570     2.4370    -0.6360 N.ar  1 <1>  -0.2560 
  8 C       -4.1660     0.3170     0.1750 C.ar  1 <1>   0.1050 
  9 C       -4.4310     1.6060    -0.2510 C.ar  1 <1>   0.2560 
 10 N       -5.3440    -0.3040     0.5040 N.pl3 1 <1>   0.0480 
 11 C       -5.8370     1.7910    -0.1810 C.ar  1 <1>   0.0000 
 12 C       -6.3790     0.5940     0.2900 C.ar  1 <1>  -0.1520 
 13 C       -5.4720    -1.6920     0.9980 C.3   1 <1>   0.0960 
 14 C       -6.6740     2.8680    -0.4770 C.ar  1 <1>  -0.1500 
 15 C       -7.7580     0.4480     0.4710 C.ar  1 <1>  -0.1500 
 16 C       -5.8240    -2.6420    -0.1510 C.3   1 <1>  -0.2400 
 17 C       -8.0260     2.7000    -0.2890 C.ar  1 <1>   0.1900 
 18 C       -8.5860     1.5110     0.1790 C.ar  1 <1>  -0.1500 
 19 F       -8.8310     3.6940    -0.5590 F     1 <1>  -0.1900 
 20 H        0.1780     2.0680    -1.4570 H     1 <1>   0.0800 
 21 H        1.6190     1.1560    -1.0270 H     1 <1>   0.0800 
 22 H       -0.0070     2.8510     0.9180 H     1 <1>   0.0800 
 23 H        1.5520     3.2940     0.2690 H     1 <1>   0.0800 
 24 H        1.4150     1.9150     1.3340 H     1 <1>   0.0800 
 25 H       -6.2340    -1.7230     1.7550 H     1 <1>   0.0800 
 26 H       -4.5390    -1.9890     1.4440 H     1 <1>   0.0800 
 27 H       -6.2670     3.7940    -0.8390 H     1 <1>   0.1500 
 28 H       -8.1660    -0.4800     0.8330 H     1 <1>   0.1500 
 29 H       -6.7580    -2.3590    -0.6030 H     1 <1>   0.0800 
 30 H       -5.9140    -3.6460     0.2210 H     1 <1>   0.0800 
 31 H       -5.0480    -2.6240    -0.8960 H     1 <1>   0.0800 
 32 H       -9.6510     1.4440     0.3030 H     1 <1>   0.1500 
@<TRIPOS>BOND
  1   1   2  1   
  2   1   3  1   
  3   2   4  ar  
  4   2   5  ar  
  5   3   6  1   
  6   3  20  1   
  7   3  21  1   
  8   4   7  ar  
  9   5   8  ar  
 10   6  22  1   
 11   6  23  1   
 12   6  24  1   
 13   7   9  ar  
 14   8   9  ar  
 15   8  10  1   
 16   9  11  1   
 17  10  12  1   
 18  10  13  1   
 19  11  12  ar  
 20  11  14  ar  
 21  12  15  ar  
 22  13  16  1   
 23  13  25  1   
 24  13  26  1   
 25  14  17  ar  
 26  14  27  1   
 27  15  18  ar  
 28  15  28  1   
 29  16  29  1   
 30  16  30  1   
 31  16  31  1   
 32  17  18  ar  
 33  17  19  1   
 34  18  32  1   
@<TRIPOS>SUBSTRUCTURE
  1 ****   9 GROUP 4 **** **** 0

# MOE 2024.06 (io_trps.svl 2023.06)
