@<TRIPOS>MOLECULE
2-(Benzo[1,3]dioxol-5-yl-methanesulfonyl-amino)-N-cyclohexyl-acetamide
46 48 1 0 0 
SMALL
USER_CHARGES


@<TRIPOS>ATOM
  1 S        0.7220     0.6040     1.6910 S.o2  1 <1>   1.3330 
  2 O        1.9270     0.8370     2.4540 O.2   1 <1>  -0.6500 
  3 O        0.7570    -0.2510     0.5320 O.2   1 <1>  -0.6500 
  4 N        0.1460     2.1600     1.2020 N.am  1 <1>  -0.6930 
  5 C       -0.5570     0.0640     2.8040 C.3   1 <1>  -0.1350 
  6 C       -0.9820     2.2820     0.3980 C.ar  1 <1>   0.1990 
  7 C        1.1650     3.2530     1.1080 C.3   1 <1>   0.2570 
  8 C       -0.9600     1.8800    -0.9360 C.ar  1 <1>  -0.1500 
  9 C       -2.1520     2.8230     0.9370 C.ar  1 <1>  -0.1500 
 10 C        2.2310     3.0330     0.0290 C.2   1 <1>   0.5690 
 11 C       -2.1110     2.0240    -1.6820 C.ar  1 <1>   0.0830 
 12 C       -3.3020     2.9620     0.1720 C.ar  1 <1>  -0.1500 
 13 O        2.1770     3.6870    -0.9860 O.2   1 <1>  -0.5700 
 14 N        3.2110     2.1160     0.2430 N.am  1 <1>  -0.7300 
 15 O       -2.3140     1.7050    -2.9650 O.3   1 <1>  -0.3630 
 16 C       -3.2490     2.5490    -1.1440 C.ar  1 <1>   0.0830 
 17 C        4.1840     1.6560    -0.7540 C.3   1 <1>   0.2200 
 18 C       -3.6640     2.0540    -3.2650 C.3   1 <1>   0.4000 
 19 O       -4.2230     2.5850    -2.0640 O.3   1 <1>  -0.3630 
 20 C        3.8180     0.2270    -1.1640 C.3   1 <1>  -0.1600 
 21 C        5.5870     1.7180    -0.1410 C.3   1 <1>  -0.1600 
 22 C        4.8640    -0.3630    -2.1210 C.3   1 <1>  -0.1600 
 23 C        6.6360     1.1330    -1.0980 C.3   1 <1>  -0.1600 
 24 C        6.2710    -0.2990    -1.5120 C.3   1 <1>  -0.1600 
 25 H       -0.3090    -0.8970     3.2090 H     1 <1>   0.0800 
 26 H       -1.4910    -0.0140     2.2820 H     1 <1>   0.0800 
 27 H       -0.6660     0.7620     3.6100 H     1 <1>   0.0800 
 28 H        1.6560     3.3630     2.0570 H     1 <1>   0.0800 
 29 H        0.6640     4.1800     0.8930 H     1 <1>   0.0800 
 30 H       -0.0700     1.4670    -1.3780 H     1 <1>   0.1500 
 31 H       -2.1550     3.1380     1.9650 H     1 <1>   0.1500 
 32 H       -4.2090     3.3760     0.5740 H     1 <1>   0.1500 
 33 H        3.1670     1.5390     1.0940 H     1 <1>   0.3700 
 34 H        4.1470     2.2950    -1.6220 H     1 <1>   0.0800 
 35 H       -4.2070     1.1730    -3.5580 H     1 <1>   0.0800 
 36 H       -3.6780     2.8070    -4.0330 H     1 <1>   0.0800 
 37 H        2.8550     0.2300    -1.6440 H     1 <1>   0.0800 
 38 H        3.7540    -0.3950    -0.2870 H     1 <1>   0.0800 
 39 H        5.6010     1.1590     0.7780 H     1 <1>   0.0800 
 40 H        5.8340     2.7420     0.0760 H     1 <1>   0.0800 
 41 H        4.8490     0.1890    -3.0460 H     1 <1>   0.0800 
 42 H        4.6110    -1.3850    -2.3440 H     1 <1>   0.0800 
 43 H        7.6010     1.1360    -0.6210 H     1 <1>   0.0800 
 44 H        6.7000     1.7520    -1.9770 H     1 <1>   0.0800 
 45 H        6.9900    -0.6630    -2.2270 H     1 <1>   0.0800 
 46 H        6.3130    -0.9410    -0.6480 H     1 <1>   0.0800 
@<TRIPOS>BOND
  1   1   2  2   
  2   1   3  2   
  3   1   4  am  
  4   1   5  1   
  5   4   6  1   
  6   4   7  1   
  7   5  25  1   
  8   5  26  1   
  9   5  27  1   
 10   6   8  ar  
 11   6   9  ar  
 12   7  10  1   
 13   7  28  1   
 14   7  29  1   
 15   8  11  ar  
 16   8  30  1   
 17   9  12  ar  
 18   9  31  1   
 19  10  13  2   
 20  10  14  am  
 21  11  15  1   
 22  11  16  ar  
 23  12  16  ar  
 24  12  32  1   
 25  14  17  1   
 26  14  33  1   
 27  15  18  1   
 28  16  19  1   
 29  17  20  1   
 30  17  21  1   
 31  17  34  1   
 32  18  19  1   
 33  18  35  1   
 34  18  36  1   
 35  20  22  1   
 36  20  37  1   
 37  20  38  1   
 38  21  23  1   
 39  21  39  1   
 40  21  40  1   
 41  22  24  1   
 42  22  41  1   
 43  22  42  1   
 44  23  24  1   
 45  23  43  1   
 46  23  44  1   
 47  24  45  1   
 48  24  46  1   
@<TRIPOS>SUBSTRUCTURE
  1 ****   4 GROUP 4 **** **** 0

# MOE 2024.06 (io_trps.svl 2023.06)
