@<TRIPOS>MOLECULE
4-(Methanesulfonyl-methyl-amino)-N-[4-(pyrrolidine-1-sulfonyl)-phenyl]-benzamide
52 54 1 0 0 
SMALL
USER_CHARGES


@<TRIPOS>ATOM
  1 S       -0.0660    -0.1890     0.6330 S.o2  1 <1>   1.4470 
  2 O        0.5460     0.0290     1.9280 O.2   1 <1>  -0.6500 
  3 O       -0.1070    -1.5280     0.0880 O.2   1 <1>  -0.6500 
  4 N        0.7830     0.7630    -0.4810 N.am  1 <1>  -0.8490 
  5 C       -1.7300     0.5320     0.6050 C.ar  1 <1>  -0.0090 
  6 C        1.0780     2.1130    -0.0310 C.3   1 <1>   0.1960 
  7 C        2.0630     0.1890    -0.8530 C.3   1 <1>   0.1960 
  8 C       -2.3920     0.8730     1.7800 C.ar  1 <1>  -0.1500 
  9 C       -2.3920     0.7630    -0.5950 C.ar  1 <1>  -0.1500 
 10 C        2.1400     2.6060    -1.0050 C.3   1 <1>  -0.1600 
 11 C        2.8210     1.3350    -1.5150 C.3   1 <1>  -0.1600 
 12 C       -3.6600     1.4260     1.7550 C.ar  1 <1>  -0.1500 
 13 C       -3.6590     1.3170    -0.6240 C.ar  1 <1>  -0.1500 
 14 C       -4.3170     1.6570     0.5530 C.ar  1 <1>   0.1170 
 15 N       -5.5920     2.2370     0.5800 N.am  1 <1>  -0.5470 
 16 C       -6.6180     2.2170    -0.3400 C.2   1 <1>   0.5440 
 17 O       -6.5520     1.4870    -1.3090 O.2   1 <1>  -0.5700 
 18 C       -7.7880     3.0430    -0.1260 C.ar  1 <1>   0.0860 
 19 C       -9.0390     2.6590    -0.6150 C.ar  1 <1>  -0.1500 
 20 C       -7.7290     4.2530     0.5720 C.ar  1 <1>  -0.1500 
 21 C      -10.1670     3.4310    -0.4100 C.ar  1 <1>  -0.1500 
 22 C       -8.8560     5.0220     0.7810 C.ar  1 <1>  -0.1500 
 23 C      -10.0970     4.6290     0.2920 C.ar  1 <1>   0.1990 
 24 N      -11.2330     5.4010     0.4900 N.am  1 <1>  -0.6930 
 25 S      -11.3580     7.0470    -0.0510 S.o2  1 <1>   1.3330 
 26 C      -12.4480     4.7950     1.0880 C.3   1 <1>   0.1160 
 27 O      -10.1510     7.7460     0.3170 O.2   1 <1>  -0.6500 
 28 O      -12.6530     7.5300     0.3660 O.2   1 <1>  -0.6500 
 29 C      -11.3920     6.8390    -1.8170 C.3   1 <1>  -0.1350 
 30 H        1.4890     2.0960     0.9660 H     1 <1>   0.0800 
 31 H        0.1960     2.7320    -0.0480 H     1 <1>   0.0800 
 32 H        1.9300    -0.6470    -1.5190 H     1 <1>   0.0800 
 33 H        2.5890    -0.1370     0.0310 H     1 <1>   0.0800 
 34 H       -1.9050     0.7010     2.7260 H     1 <1>   0.1500 
 35 H       -1.9050     0.5030    -1.5200 H     1 <1>   0.1500 
 36 H        2.8300     3.2720    -0.5180 H     1 <1>   0.0800 
 37 H        1.6650     3.1250    -1.8200 H     1 <1>   0.0800 
 38 H        2.7270     1.2630    -2.5840 H     1 <1>   0.0800 
 39 H        3.8630     1.3010    -1.2500 H     1 <1>   0.0800 
 40 H       -4.1440     1.6750     2.6820 H     1 <1>   0.1500 
 41 H       -4.1360     1.4860    -1.5730 H     1 <1>   0.1500 
 42 H       -5.8330     2.6880     1.4590 H     1 <1>   0.3700 
 43 H       -9.1170     1.7370    -1.1660 H     1 <1>   0.1500 
 44 H       -6.7860     4.6080     0.9510 H     1 <1>   0.1500 
 45 H      -11.1130     3.1060    -0.8030 H     1 <1>   0.1500 
 46 H       -8.7790     5.9430     1.3320 H     1 <1>   0.1500 
 47 H      -12.2390     3.8000     1.4410 H     1 <1>   0.0800 
 48 H      -13.2360     4.7560     0.3570 H     1 <1>   0.0800 
 49 H      -12.7750     5.3940     1.9210 H     1 <1>   0.0800 
 50 H      -10.4850     6.3750    -2.1520 H     1 <1>   0.0800 
 51 H      -11.4870     7.7930    -2.2970 H     1 <1>   0.0800 
 52 H      -12.2230     6.2250    -2.1020 H     1 <1>   0.0800 
@<TRIPOS>BOND
  1   1   2  2   
  2   1   3  2   
  3   1   4  am  
  4   1   5  1   
  5   4   6  1   
  6   4   7  1   
  7   5   8  ar  
  8   5   9  ar  
  9   6  10  1   
 10   6  30  1   
 11   6  31  1   
 12   7  11  1   
 13   7  32  1   
 14   7  33  1   
 15   8  12  ar  
 16   8  34  1   
 17   9  13  ar  
 18   9  35  1   
 19  10  11  1   
 20  10  36  1   
 21  10  37  1   
 22  11  38  1   
 23  11  39  1   
 24  12  14  ar  
 25  12  40  1   
 26  13  14  ar  
 27  13  41  1   
 28  14  15  1   
 29  15  16  am  
 30  15  42  1   
 31  16  17  2   
 32  16  18  1   
 33  18  19  ar  
 34  18  20  ar  
 35  19  21  ar  
 36  19  43  1   
 37  20  22  ar  
 38  20  44  1   
 39  21  23  ar  
 40  21  45  1   
 41  22  23  ar  
 42  22  46  1   
 43  23  24  1   
 44  24  25  am  
 45  24  26  1   
 46  25  27  2   
 47  25  28  2   
 48  25  29  1   
 49  26  47  1   
 50  26  48  1   
 51  26  49  1   
 52  29  50  1   
 53  29  51  1   
 54  29  52  1   
@<TRIPOS>SUBSTRUCTURE
  1 ****  15 GROUP 4 **** **** 0

# MOE 2024.06 (io_trps.svl 2023.06)
