@<TRIPOS>MOLECULE
6-(4-tert-Butyl-phenoxymethyl)-3-methyl-[1,2,4]triazolo[3,4-b][1,3,4]thiadiazole
39 41 1 0 0 
SMALL
USER_CHARGES


@<TRIPOS>ATOM
  1 S       -0.5280    -0.1850     0.6630 S.3   1 <1>  -0.1970 
  2 C        0.3630     1.3200     0.5870 C.2   1 <1>   0.2420 
  3 C       -2.0180     0.7350     0.3610 C.2   1 <1>   0.5300 
  4 N        1.5920     1.6780     0.6980 N.2   1 <1>  -0.3380 
  5 N       -0.4880     2.3050     0.3580 N.pl3 1 <1>   0.5050 
  6 N       -1.8430     1.9910     0.2270 N.2   1 <1>  -0.6520 
  7 C       -3.2870    -0.1060     0.3060 C.3   1 <1>   0.1810 
  8 N        1.5680     3.0150     0.5280 N.2   1 <1>  -0.3380 
  9 C        0.3340     3.3670     0.3290 C.2   1 <1>   0.0060 
 10 O       -4.4250     0.6980     0.0630 O.3   1 <1>  -0.3630 
 11 C       -0.1480     4.7840     0.0920 C.3   1 <1>  -0.0600 
 12 C       -5.6630     0.1540    -0.0250 C.ar  1 <1>   0.0830 
 13 C       -6.7110     1.0230    -0.2650 C.ar  1 <1>  -0.1500 
 14 C       -5.9290    -1.2040     0.1100 C.ar  1 <1>  -0.1500 
 15 C       -8.0080     0.5540    -0.3700 C.ar  1 <1>  -0.1500 
 16 C       -7.2290    -1.6660     0.0050 C.ar  1 <1>  -0.1500 
 17 C       -8.2940    -0.8030    -0.2370 C.ar  1 <1>  -0.1430 
 18 C       -9.7250    -1.3750    -0.3460 C.3   1 <1>   0.1430 
 19 C      -10.7900    -0.2980    -0.6140 C.3   1 <1>  -0.2400 
 20 C      -10.0990    -2.0780     0.9680 C.3   1 <1>  -0.2400 
 21 C       -9.7880    -2.3850    -1.5010 C.3   1 <1>  -0.2400 
 22 H       -3.4270    -0.6080     1.2460 H     1 <1>   0.0800 
 23 H       -3.2080    -0.8240    -0.4900 H     1 <1>   0.0800 
 24 H       -0.8470     5.0680     0.8580 H     1 <1>   0.0800 
 25 H       -0.6300     4.8530    -0.8660 H     1 <1>   0.0800 
 26 H        0.6850     5.4640     0.1130 H     1 <1>   0.0800 
 27 H       -6.5050     2.0730    -0.3700 H     1 <1>   0.1500 
 28 H       -5.1500    -1.9160     0.2970 H     1 <1>   0.1500 
 29 H       -8.7800     1.2750    -0.5570 H     1 <1>   0.1500 
 30 H       -7.4050    -2.7210     0.1140 H     1 <1>   0.1500 
 31 H      -11.7680    -0.7400    -0.6820 H     1 <1>   0.0800 
 32 H      -10.8060     0.4230     0.1840 H     1 <1>   0.0800 
 33 H      -10.5890     0.2090    -1.5410 H     1 <1>   0.0800 
 34 H      -10.0230    -1.3860     1.7880 H     1 <1>   0.0800 
 35 H       -9.4450    -2.9070     1.1650 H     1 <1>   0.0800 
 36 H      -11.1060    -2.4510     0.9270 H     1 <1>   0.0800 
 37 H       -9.4940    -1.9100    -2.4200 H     1 <1>   0.0800 
 38 H      -10.7860    -2.7670    -1.6180 H     1 <1>   0.0800 
 39 H       -9.1320    -3.2170    -1.3270 H     1 <1>   0.0800 
@<TRIPOS>BOND
  1   1   2  1   
  2   1   3  1   
  3   2   4  2   
  4   2   5  1   
  5   3   6  2   
  6   3   7  1   
  7   4   8  1   
  8   5   6  1   
  9   5   9  1   
 10   7  10  1   
 11   7  22  1   
 12   7  23  1   
 13   8   9  2   
 14   9  11  1   
 15  10  12  1   
 16  11  24  1   
 17  11  25  1   
 18  11  26  1   
 19  12  13  ar  
 20  12  14  ar  
 21  13  15  ar  
 22  13  27  1   
 23  14  16  ar  
 24  14  28  1   
 25  15  17  ar  
 26  15  29  1   
 27  16  17  ar  
 28  16  30  1   
 29  17  18  1   
 30  18  19  1   
 31  18  20  1   
 32  18  21  1   
 33  19  31  1   
 34  19  32  1   
 35  19  33  1   
 36  20  34  1   
 37  20  35  1   
 38  20  36  1   
 39  21  37  1   
 40  21  38  1   
 41  21  39  1   
@<TRIPOS>SUBSTRUCTURE
  1 ****  10 GROUP 4 **** **** 0

# MOE 2024.06 (io_trps.svl 2023.06)
