@<TRIPOS>MOLECULE
8-Benzyl-1,6,7-trimethyl-3-(2-oxo-propyl)-1H,8H-imidazo[2,1-f]purine-2,4-dione
50 53 1 0 0 
SMALL
USER_CHARGES


@<TRIPOS>ATOM
  1 O        0.9440    -0.3270    -0.5550 O.2   1 <1>  -0.5750 
  2 C        1.9020     0.4100    -0.6720 C.2   1 <1>   0.6860 
  3 N        1.7070     1.7540    -0.9590 N.am  1 <1>  -0.4260 
  4 N        3.1870    -0.0880    -0.5100 N.am  1 <1>  -0.4420 
  5 C        2.7770     2.6170    -1.1390 C.2   1 <1>   0.6990 
  6 C        0.4000     2.3650    -0.5630 C.3   1 <1>   0.1940 
  7 C        4.2390     0.8030    -0.5800 C.2   1 <1>   0.4200 
  8 C        3.4170    -1.5220    -0.1670 C.3   1 <1>   0.0520 
  9 O        2.5820     3.7650    -1.5050 O.2   1 <1>  -0.5750 
 10 C        4.0880     2.1150    -0.8860 C.2   1 <1>   0.2700 
 11 C        0.4320     2.7760     0.9090 C.2   1 <1>   0.4430 
 12 N        5.5560     0.5450    -0.3600 N.pl3 1 <1>  -0.7040 
 13 N        5.3770     2.6780    -0.8540 N.pl3 1 <1>  -0.6330 
 14 O        1.4360     2.7260     1.5590 O.2   1 <1>  -0.5750 
 15 C       -0.8690     3.2570     1.5130 C.3   1 <1>  -0.1860 
 16 C        6.2090     1.7000    -0.5230 C.cat 1 <1>   1.0690 
 17 C        6.1340     3.8230    -0.9790 C.2   1 <1>   0.2340 
 18 N        7.4760     2.1340    -0.4320 N.pl3 1 <1>  -0.5720 
 19 C        7.4230     3.4880    -0.7220 C.2   1 <1>   0.1580 
 20 C        5.4810     5.1420    -1.3410 C.3   1 <1>  -0.1090 
 21 C        8.6860     1.3430    -0.0760 C.3   1 <1>   0.3050 
 22 C        8.6750     4.3500    -0.7170 C.3   1 <1>  -0.1090 
 23 C        8.2870    -0.0960     0.2020 C.ar  1 <1>  -0.1510 
 24 C        7.8930    -0.4760     1.4760 C.ar  1 <1>  -0.1570 
 25 C        8.2440    -1.0200    -0.8320 C.ar  1 <1>  -0.1570 
 26 C        7.4350    -1.7600     1.7080 C.ar  1 <1>  -0.1570 
 27 C        7.7850    -2.3040    -0.5990 C.ar  1 <1>  -0.1570 
 28 C        7.3750    -2.6720     0.6700 C.ar  1 <1>  -0.1570 
 29 H       -0.4010     1.6650    -0.7220 H     1 <1>   0.0720 
 30 H        0.2010     3.2310    -1.1700 H     1 <1>   0.0720 
 31 H        2.6120    -2.1310    -0.5430 H     1 <1>   0.0720 
 32 H        3.4640    -1.6350     0.9020 H     1 <1>   0.0720 
 33 H        4.3350    -1.8720    -0.6040 H     1 <1>   0.0720 
 34 H        6.0310    -0.3200    -0.0750 H     1 <1>   0.4450 
 35 H       -1.6080     2.4780     1.4650 H     1 <1>   0.0720 
 36 H       -1.2260     4.1210     0.9840 H     1 <1>   0.0720 
 37 H       -0.7150     3.5220     2.5440 H     1 <1>   0.0720 
 38 H        4.9920     5.0590    -2.2960 H     1 <1>   0.0720 
 39 H        6.2060     5.9320    -1.3940 H     1 <1>   0.0720 
 40 H        4.7440     5.4010    -0.6020 H     1 <1>   0.0720 
 41 H        9.1510     1.7690     0.7970 H     1 <1>   0.0720 
 42 H        9.3920     1.3790    -0.8880 H     1 <1>   0.0720 
 43 H        9.3820     3.9810    -1.4370 H     1 <1>   0.0720 
 44 H        9.1290     4.3380     0.2580 H     1 <1>   0.0720 
 45 H        8.4400     5.3680    -0.9660 H     1 <1>   0.0720 
 46 H        7.9340     0.2210     2.2980 H     1 <1>   0.1430 
 47 H        8.5610    -0.7500    -1.8270 H     1 <1>   0.1430 
 48 H        7.1310    -2.0560     2.6990 H     1 <1>   0.1430 
 49 H        7.7540    -3.0220    -1.4020 H     1 <1>   0.1430 
 50 H        7.0240    -3.6750     0.8530 H     1 <1>   0.1430 
@<TRIPOS>BOND
  1   1   2  2   
  2   2   3  am  
  3   2   4  am  
  4   3   5  am  
  5   3   6  1   
  6   4   7  1   
  7   4   8  1   
  8   5   9  2   
  9   5  10  1   
 10   6  11  1   
 11   6  29  1   
 12   6  30  1   
 13   7  10  2   
 14   7  12  1   
 15   8  31  1   
 16   8  32  1   
 17   8  33  1   
 18  10  13  1   
 19  11  14  2   
 20  11  15  1   
 21  12  16  ar  
 22  12  34  1   
 23  13  16  ar  
 24  13  17  1   
 25  15  35  1   
 26  15  36  1   
 27  15  37  1   
 28  16  18  ar  
 29  17  19  2   
 30  17  20  1   
 31  18  19  1   
 32  18  21  1   
 33  19  22  1   
 34  20  38  1   
 35  20  39  1   
 36  20  40  1   
 37  21  23  1   
 38  21  41  1   
 39  21  42  1   
 40  22  43  1   
 41  22  44  1   
 42  22  45  1   
 43  23  24  ar  
 44  23  25  ar  
 45  24  26  ar  
 46  24  46  1   
 47  25  27  ar  
 48  25  47  1   
 49  26  28  ar  
 50  26  48  1   
 51  27  28  ar  
 52  27  49  1   
 53  28  50  1   
@<TRIPOS>SUBSTRUCTURE
  1 ****   7 GROUP 4 **** **** 0

# MOE 2024.06 (io_trps.svl 2023.06)
