@<TRIPOS>MOLECULE
[1-(2-Morpholin-4-yl-ethyl)-1H-benzoimidazol-2-yl]-pyridin-4-ylmethyl-amine
49 52 1 0 0 
SMALL
USER_CHARGES


@<TRIPOS>ATOM
  1 O        3.6730     1.5270     0.3900 O.3   1 <1>  -0.5650 
  2 C        3.7230     2.2910    -0.7790 C.3   1 <1>   0.1120 
  3 C        3.1680     2.2090     1.4970 C.3   1 <1>   0.1120 
  4 C        2.3270     2.8400    -1.1270 C.3   1 <1>   0.1020 
  5 C        1.7480     2.7230     1.2030 C.3   1 <1>   0.1020 
  6 N        1.7270     3.5940     0.0060 N.3   1 <1>  -0.8130 
  7 C        0.3410     4.0070    -0.2990 C.3   1 <1>   0.1020 
  8 C        0.2750     5.2920    -1.1470 C.3   1 <1>   0.3480 
  9 N        0.5690     6.5320    -0.3640 N.pl3 1 <1>  -0.7670 
 10 C        1.7100     6.8960     0.2330 C.cat 1 <1>   1.0690 
 11 C       -0.3090     7.6110    -0.2700 C.ar  1 <1>   0.3030 
 12 N        1.6200     8.1410     0.6810 N.pl3 1 <1>  -0.7040 
 13 N        2.7820     6.1420     0.3700 N.pl3 1 <1>  -0.7180 
 14 C        0.3630     8.6240     0.3890 C.ar  1 <1>   0.3030 
 15 C       -1.6210     7.8050    -0.6940 C.ar  1 <1>  -0.1170 
 16 C        4.1130     6.4710     0.9030 C.3   1 <1>   0.3050 
 17 C       -0.2410     9.8490     0.6440 C.ar  1 <1>  -0.1170 
 18 C       -2.2290     9.0210    -0.4440 C.ar  1 <1>  -0.1570 
 19 C        5.1490     5.7510     0.0670 C.ar  1 <1>  -0.1510 
 20 C       -1.5430    10.0390     0.2210 C.ar  1 <1>  -0.1570 
 21 C        5.2960     5.9930    -1.2860 C.ar  1 <1>  -0.1570 
 22 C        6.0020     4.8110     0.6140 C.ar  1 <1>  -0.1570 
 23 C        6.2500     5.2950    -2.0060 C.ar  1 <1>   0.1530 
 24 C        6.9220     4.1670    -0.1970 C.ar  1 <1>   0.1530 
 25 N        7.0590     4.3850    -1.4940 N.ar  1 <1>  -0.6240 
 26 H        4.0830     1.6550    -1.5690 H     1 <1>   0.0720 
 27 H        4.4240     3.0900    -0.6410 H     1 <1>   0.0720 
 28 H        3.8310     3.0220     1.7330 H     1 <1>   0.0720 
 29 H        3.1520     1.5210     2.3240 H     1 <1>   0.0720 
 30 H        1.6970     2.0070    -1.3910 H     1 <1>   0.0720 
 31 H        2.4160     3.4770    -1.9890 H     1 <1>   0.0720 
 32 H        1.3930     3.2730     2.0580 H     1 <1>   0.0720 
 33 H        1.0990     1.8760     1.0570 H     1 <1>   0.0720 
 34 H       -0.2030     4.1820     0.6140 H     1 <1>   0.0720 
 35 H       -0.1600     3.2090    -0.8210 H     1 <1>   0.0720 
 36 H       -0.7160     5.3630    -1.5580 H     1 <1>   0.0720 
 37 H        0.9560     5.2180    -1.9770 H     1 <1>   0.0720 
 38 H        2.3470     8.6430     1.1790 H     1 <1>   0.4450 
 39 H        2.6540     5.1380     0.1450 H     1 <1>   0.4450 
 40 H       -2.1590     7.0270    -1.2040 H     1 <1>   0.1430 
 41 H        4.1760     6.1490     1.9290 H     1 <1>   0.0720 
 42 H        4.2900     7.5320     0.8600 H     1 <1>   0.0720 
 43 H        0.2930    10.6290     1.1570 H     1 <1>   0.1430 
 44 H       -3.2450     9.1940    -0.7630 H     1 <1>   0.1430 
 45 H       -2.0400    10.9780     0.4030 H     1 <1>   0.1430 
 46 H        4.6820     6.7150    -1.7920 H     1 <1>   0.1430 
 47 H        5.9650     4.5620     1.6600 H     1 <1>   0.1430 
 48 H        6.3550     5.4940    -3.0600 H     1 <1>   0.1430 
 49 H        7.5750     3.4320     0.2430 H     1 <1>   0.1430 
@<TRIPOS>BOND
  1   1   2  1   
  2   1   3  1   
  3   2   4  1   
  4   2  26  1   
  5   2  27  1   
  6   3   5  1   
  7   3  28  1   
  8   3  29  1   
  9   4   6  1   
 10   4  30  1   
 11   4  31  1   
 12   5   6  1   
 13   5  32  1   
 14   5  33  1   
 15   6   7  1   
 16   7   8  1   
 17   7  34  1   
 18   7  35  1   
 19   8   9  1   
 20   8  36  1   
 21   8  37  1   
 22   9  10  ar  
 23   9  11  1   
 24  10  12  ar  
 25  10  13  ar  
 26  11  14  ar  
 27  11  15  ar  
 28  12  14  1   
 29  12  38  1   
 30  13  16  1   
 31  13  39  1   
 32  14  17  ar  
 33  15  18  ar  
 34  15  40  1   
 35  16  19  1   
 36  16  41  1   
 37  16  42  1   
 38  17  20  ar  
 39  17  43  1   
 40  18  20  ar  
 41  18  44  1   
 42  19  21  ar  
 43  19  22  ar  
 44  20  45  1   
 45  21  23  ar  
 46  21  46  1   
 47  22  24  ar  
 48  22  47  1   
 49  23  25  ar  
 50  23  48  1   
 51  24  25  ar  
 52  24  49  1   
@<TRIPOS>SUBSTRUCTURE
  1 ****  13 GROUP 4 **** **** 0

# MOE 2024.06 (io_trps.svl 2023.06)
