@<TRIPOS>MOLECULE
1-Methanesulfonyl-piperidine-3-carboxylic acid (benzo[1,3]dioxol-5-ylmethyl)-ami
43 45 1 0 0 
SMALL
USER_CHARGES


@<TRIPOS>ATOM
  1 S        0.6970    -0.0810     1.7140 S.o2  1 <1>   1.3330 
  2 O       -0.2760    -0.9760     2.2970 O.2   1 <1>  -0.6500 
  3 O        1.3600     0.9140     2.5240 O.2   1 <1>  -0.6500 
  4 N        1.8920    -1.0230     0.9680 N.am  1 <1>  -0.8490 
  5 C       -0.1010     0.7690     0.3650 C.3   1 <1>  -0.1350 
  6 C        2.9510    -0.2460     0.3100 C.3   1 <1>   0.1960 
  7 C        1.3780    -2.1240     0.1500 C.3   1 <1>   0.1960 
  8 C        4.1340    -1.1490    -0.0580 C.3   1 <1>  -0.0190 
  9 C        2.5190    -3.0760    -0.2260 C.3   1 <1>  -0.1600 
 10 C        5.2000    -0.3320    -0.7700 C.2   1 <1>   0.5690 
 11 C        3.6710    -2.3380    -0.9200 C.3   1 <1>  -0.1600 
 12 O        4.8790     0.4210    -1.6570 O.2   1 <1>  -0.5700 
 13 N        6.4930    -0.4710    -0.3930 N.am  1 <1>  -0.7300 
 14 C        7.6200     0.2320    -1.0240 C.3   1 <1>   0.2840 
 15 C        8.8900    -0.5230    -0.6780 C.ar  1 <1>  -0.1440 
 16 C        9.6240    -0.1690     0.4500 C.ar  1 <1>  -0.1500 
 17 C        9.3190    -1.5770    -1.4870 C.ar  1 <1>  -0.1500 
 18 C       10.7690    -0.8850     0.7340 C.ar  1 <1>   0.0820 
 19 C       10.4760    -2.2840    -1.1850 C.ar  1 <1>  -0.1500 
 20 O       11.6160    -0.7210     1.7560 O.3   1 <1>  -0.3620 
 21 C       11.1850    -1.9130    -0.0610 C.ar  1 <1>   0.0820 
 22 C       12.6410    -1.7010     1.5980 C.3   1 <1>   0.4000 
 23 O       12.3140    -2.4420     0.4230 O.3   1 <1>  -0.3630 
 24 H       -0.5300     0.0670    -0.3220 H     1 <1>   0.0800 
 25 H        0.5990     1.3910    -0.1560 H     1 <1>   0.0800 
 26 H       -0.8860     1.3910     0.7470 H     1 <1>   0.0800 
 27 H        3.3010     0.5270     0.9740 H     1 <1>   0.0800 
 28 H        2.5620     0.2230    -0.5790 H     1 <1>   0.0800 
 29 H        0.9170    -1.7370    -0.7430 H     1 <1>   0.0800 
 30 H        0.6370    -2.6750     0.7060 H     1 <1>   0.0800 
 31 H        4.5500    -1.5250     0.8590 H     1 <1>   0.0800 
 32 H        2.1390    -3.8480    -0.8720 H     1 <1>   0.0800 
 33 H        2.8780    -3.5510     0.6720 H     1 <1>   0.0800 
 34 H        4.4920    -3.0130    -1.0870 H     1 <1>   0.0800 
 35 H        3.3380    -1.9760    -1.8790 H     1 <1>   0.0800 
 36 H        6.7660    -1.1260     0.3410 H     1 <1>   0.3700 
 37 H        7.6680     1.2410    -0.6520 H     1 <1>   0.0800 
 38 H        7.4790     0.2680    -2.0910 H     1 <1>   0.0800 
 39 H        9.3230     0.6360     1.0970 H     1 <1>   0.1500 
 40 H        8.7470    -1.8510    -2.3570 H     1 <1>   0.1500 
 41 H       10.8200    -3.0970    -1.7990 H     1 <1>   0.1500 
 42 H       12.6460    -2.3580     2.4490 H     1 <1>   0.0800 
 43 H       13.5900    -1.2130     1.4640 H     1 <1>   0.0800 
@<TRIPOS>BOND
  1   1   2  2   
  2   1   3  2   
  3   1   4  am  
  4   1   5  1   
  5   4   6  1   
  6   4   7  1   
  7   5  24  1   
  8   5  25  1   
  9   5  26  1   
 10   6   8  1   
 11   6  27  1   
 12   6  28  1   
 13   7   9  1   
 14   7  29  1   
 15   7  30  1   
 16   8  10  1   
 17   8  11  1   
 18   8  31  1   
 19   9  11  1   
 20   9  32  1   
 21   9  33  1   
 22  10  12  2   
 23  10  13  am  
 24  11  34  1   
 25  11  35  1   
 26  13  14  1   
 27  13  36  1   
 28  14  15  1   
 29  14  37  1   
 30  14  38  1   
 31  15  16  ar  
 32  15  17  ar  
 33  16  18  ar  
 34  16  39  1   
 35  17  19  ar  
 36  17  40  1   
 37  18  20  1   
 38  18  21  ar  
 39  19  21  ar  
 40  19  41  1   
 41  20  22  1   
 42  21  23  1   
 43  22  23  1   
 44  22  42  1   
 45  22  43  1   
@<TRIPOS>SUBSTRUCTURE
  1 ****  13 GROUP 4 **** **** 0

# MOE 2024.06 (io_trps.svl 2023.06)
