@<TRIPOS>MOLECULE
5-Oxo-1-o-tolyl-pyrrolidine-3-carboxylic acid (5-methyl-isoxazol-3-yl)-amide
39 41 1 0 0 
SMALL
USER_CHARGES


@<TRIPOS>ATOM
  1 O        0.3600     0.1800     0.1210 O.2   1 <1>  -0.5700 
  2 C        1.4110    -0.3290     0.4240 C.2   1 <1>   0.5690 
  3 N        1.6100    -1.6160     0.8200 N.am  1 <1>  -0.4770 
  4 C        2.7060     0.4320     0.3880 C.3   1 <1>  -0.0990 
  5 C        0.6580    -2.6340     0.9690 C.ar  1 <1>   0.1170 
  6 C        3.0360    -1.8860     1.0680 C.3   1 <1>   0.1400 
  7 C        3.7660    -0.6850     0.4550 C.3   1 <1>  -0.0190 
  8 C        0.0650    -3.2600    -0.1300 C.ar  1 <1>  -0.1440 
  9 C        0.3070    -3.0450     2.2500 C.ar  1 <1>  -0.1500 
 10 C        5.0370    -0.3440     1.2300 C.2   1 <1>   0.5690 
 11 C       -0.8560    -4.2750     0.0720 C.ar  1 <1>  -0.1500 
 12 C        0.4130    -2.8430    -1.5530 C.3   1 <1>  -0.0970 
 13 C       -0.6120    -4.0590     2.4450 C.ar  1 <1>  -0.1500 
 14 O        4.9830     0.4660     2.1200 O.2   1 <1>  -0.5700 
 15 N        6.2360    -0.9200     0.9630 N.am  1 <1>  -0.4930 
 16 C       -1.1940    -4.6770     1.3530 C.ar  1 <1>  -0.1500 
 17 C        6.6120    -1.9660     0.1140 C.2   1 <1>   0.3520 
 18 N        5.8090    -2.7850    -0.4710 N.2   1 <1>  -0.4100 
 19 C        7.9370    -2.2730    -0.1970 C.2   1 <1>  -0.1500 
 20 O        6.5640    -3.6090    -1.1530 O.3   1 <1>  -0.0190 
 21 C        7.8330    -3.3320    -1.0100 C.2   1 <1>  -0.0400 
 22 C        8.8720    -4.1750    -1.7200 C.3   1 <1>  -0.0600 
 23 H        2.7340     1.0810     1.2430 H     1 <1>   0.0800 
 24 H        2.7870     1.0100    -0.5130 H     1 <1>   0.0800 
 25 H        3.3320    -2.8120     0.6050 H     1 <1>   0.0800 
 26 H        3.2030    -1.9400     2.1310 H     1 <1>   0.0800 
 27 H        4.0240    -0.9320    -0.5580 H     1 <1>   0.0800 
 28 H        0.7550    -2.5590     3.0960 H     1 <1>   0.1500 
 29 H       -1.3190    -4.7600    -0.7680 H     1 <1>   0.1500 
 30 H        1.4790    -2.8450    -1.6900 H     1 <1>   0.0800 
 31 H        0.0390    -1.8520    -1.7410 H     1 <1>   0.0800 
 32 H       -0.0220    -3.5140    -2.2710 H     1 <1>   0.0800 
 33 H       -0.8750    -4.3660     3.4420 H     1 <1>   0.1500 
 34 H        6.9840    -0.5340     1.5350 H     1 <1>   0.3700 
 35 H       -1.9110    -5.4660     1.4980 H     1 <1>   0.1500 
 36 H        8.8110    -1.7580     0.1530 H     1 <1>   0.1500 
 37 H        9.8600    -3.8160    -1.4970 H     1 <1>   0.0800 
 38 H        8.7160    -4.1280    -2.7830 H     1 <1>   0.0800 
 39 H        8.7920    -5.1980    -1.4010 H     1 <1>   0.0800 
@<TRIPOS>BOND
  1   1   2  2   
  2   2   3  am  
  3   2   4  1   
  4   3   5  1   
  5   3   6  1   
  6   4   7  1   
  7   4  23  1   
  8   4  24  1   
  9   5   8  ar  
 10   5   9  ar  
 11   6   7  1   
 12   6  25  1   
 13   6  26  1   
 14   7  10  1   
 15   7  27  1   
 16   8  11  ar  
 17   8  12  1   
 18   9  13  ar  
 19   9  28  1   
 20  10  14  2   
 21  10  15  am  
 22  11  16  ar  
 23  11  29  1   
 24  12  30  1   
 25  12  31  1   
 26  12  32  1   
 27  13  16  ar  
 28  13  33  1   
 29  15  17  1   
 30  15  34  1   
 31  16  35  1   
 32  17  18  2   
 33  17  19  1   
 34  18  20  1   
 35  19  21  2   
 36  19  36  1   
 37  20  21  1   
 38  21  22  1   
 39  22  37  1   
 40  22  38  1   
 41  22  39  1   
@<TRIPOS>SUBSTRUCTURE
  1 ****   6 GROUP 4 **** **** 0

# MOE 2024.06 (io_trps.svl 2023.06)
