@<TRIPOS>MOLECULE
N-tert-Butyl-N'-(2,4-dimethoxy-phenyl)-6-methoxy-[1,3,5]triazine-2,4-diamine
47 48 1 0 0 
SMALL
USER_CHARGES


@<TRIPOS>ATOM
  1 O        0.5930    -0.0310    -1.0840 O.3   1 <1>  -0.3630 
  2 C        1.6950    -0.7790    -0.9100 C.ar  1 <1>   0.7020 
  3 C        0.6540     1.3530    -1.3660 C.3   1 <1>   0.0400 
  4 N        2.8630    -0.1950    -0.9950 N.ar  1 <1>  -0.6200 
  5 N        1.4700    -2.0360    -0.6680 N.ar  1 <1>  -0.6200 
  6 C        3.8660    -1.0140    -0.8170 C.ar  1 <1>   0.7200 
  7 C        2.5580    -2.7390    -0.5000 C.ar  1 <1>   0.7200 
  8 N        3.7770    -2.2920    -0.5640 N.ar  1 <1>  -0.6200 
  9 N        5.0890    -0.4200    -0.8940 N.pl3 1 <1>  -0.6000 
 10 N        2.4750    -4.0620    -0.2380 N.pl3 1 <1>  -0.8690 
 11 C        6.4070    -0.8750    -0.7090 C.ar  1 <1>   0.1000 
 12 C        1.3660    -4.8640     0.2770 C.3   1 <1>   0.3690 
 13 C        7.3610     0.0180    -0.2070 C.ar  1 <1>   0.0830 
 14 C        6.8030    -2.1680    -1.0290 C.ar  1 <1>  -0.1500 
 15 C        0.8160    -4.2450     1.5620 C.3   1 <1>  -0.2400 
 16 C        0.2850    -5.0040    -0.7940 C.3   1 <1>  -0.2400 
 17 C        1.9540    -6.2380     0.5870 C.3   1 <1>  -0.2400 
 18 O        6.9350     1.2880     0.0720 O.3   1 <1>  -0.3630 
 19 C        8.6750    -0.3950    -0.0120 C.ar  1 <1>  -0.1500 
 20 C        8.1100    -2.5760    -0.8340 C.ar  1 <1>  -0.1500 
 21 C        7.7750     2.2220     0.7130 C.3   1 <1>   0.0400 
 22 C        9.0510    -1.6990    -0.3240 C.ar  1 <1>   0.0830 
 23 O       10.3110    -2.1860    -0.1650 O.3   1 <1>  -0.3620 
 24 C       11.3520    -1.3740     0.3310 C.3   1 <1>   0.0400 
 25 H       -0.3510     1.7220    -1.4640 H     1 <1>   0.0800 
 26 H        1.1930     1.4980    -2.2860 H     1 <1>   0.0800 
 27 H        1.1530     1.8530    -0.5530 H     1 <1>   0.0800 
 28 H        5.0130     0.5950    -0.8600 H     1 <1>   0.4000 
 29 H        3.3880    -4.4750    -0.0700 H     1 <1>   0.4000 
 30 H        6.0930    -2.8620    -1.4370 H     1 <1>   0.1500 
 31 H        1.6060    -4.0980     2.2760 H     1 <1>   0.0800 
 32 H        0.0770    -4.8940     1.9970 H     1 <1>   0.0800 
 33 H        0.3450    -3.3010     1.3610 H     1 <1>   0.0800 
 34 H       -0.1760    -4.0550    -0.9960 H     1 <1>   0.0800 
 35 H       -0.4810    -5.6790    -0.4610 H     1 <1>   0.0800 
 36 H        0.7100    -5.3860    -1.7040 H     1 <1>   0.0800 
 37 H        2.3640    -6.6800    -0.3030 H     1 <1>   0.0800 
 38 H        1.1880    -6.8910     0.9640 H     1 <1>   0.0800 
 39 H        2.7250    -6.1590     1.3320 H     1 <1>   0.0800 
 40 H        9.4020     0.2870     0.3740 H     1 <1>   0.1500 
 41 H        8.4070    -3.5790    -1.0790 H     1 <1>   0.1500 
 42 H        8.0970     1.8130     1.6550 H     1 <1>   0.0800 
 43 H        7.2090     3.1210     0.8810 H     1 <1>   0.0800 
 44 H        8.6140     2.4340     0.0750 H     1 <1>   0.0800 
 45 H       12.2480    -1.9670     0.3660 H     1 <1>   0.0800 
 46 H       11.0950    -1.0430     1.3220 H     1 <1>   0.0800 
 47 H       11.4910    -0.5400    -0.3330 H     1 <1>   0.0800 
@<TRIPOS>BOND
  1   1   2  1   
  2   1   3  1   
  3   2   4  ar  
  4   2   5  ar  
  5   3  25  1   
  6   3  26  1   
  7   3  27  1   
  8   4   6  ar  
  9   5   7  ar  
 10   6   8  ar  
 11   6   9  1   
 12   7   8  ar  
 13   7  10  1   
 14   9  11  1   
 15   9  28  1   
 16  10  12  1   
 17  10  29  1   
 18  11  13  ar  
 19  11  14  ar  
 20  12  15  1   
 21  12  16  1   
 22  12  17  1   
 23  13  18  1   
 24  13  19  ar  
 25  14  20  ar  
 26  14  30  1   
 27  15  31  1   
 28  15  32  1   
 29  15  33  1   
 30  16  34  1   
 31  16  35  1   
 32  16  36  1   
 33  17  37  1   
 34  17  38  1   
 35  17  39  1   
 36  18  21  1   
 37  19  22  ar  
 38  19  40  1   
 39  20  22  ar  
 40  20  41  1   
 41  21  42  1   
 42  21  43  1   
 43  21  44  1   
 44  22  23  1   
 45  23  24  1   
 46  24  45  1   
 47  24  46  1   
 48  24  47  1   
@<TRIPOS>SUBSTRUCTURE
  1 ****   8 GROUP 4 **** **** 0

# MOE 2024.06 (io_trps.svl 2023.06)
