@<TRIPOS>MOLECULE
1-Methanesulfonyl-piperidine-3-carboxylic acid (2-trifluoromethyl-phenyl)-amide
40 41 1 0 0 
SMALL
USER_CHARGES


@<TRIPOS>ATOM
  1 S        0.1600     0.1190     0.7250 S.o2  1 <1>   1.3330 
  2 O       -0.9100    -0.7710     1.1110 O.2   1 <1>  -0.6500 
  3 O        0.5310     1.2320     1.5660 O.2   1 <1>  -0.6500 
  4 N        1.5480    -0.8160     0.4580 N.am  1 <1>  -0.8490 
  5 C       -0.2460     0.7740    -0.8840 C.3   1 <1>  -0.1350 
  6 C        2.7210    -0.0450     0.0260 C.3   1 <1>   0.1960 
  7 C        1.3230    -2.0300    -0.3280 C.3   1 <1>   0.1960 
  8 C        3.9930    -0.9010     0.1180 C.3   1 <1>  -0.0190 
  9 C        2.5550    -2.9390    -0.2530 C.3   1 <1>  -0.1600 
 10 C        5.2020    -0.1110    -0.3610 C.2   1 <1>   0.5690 
 11 C        3.8320    -2.2060    -0.6840 C.3   1 <1>  -0.1600 
 12 O        5.0650     0.6870    -1.2570 O.2   1 <1>  -0.5700 
 13 N        6.4070    -0.3650     0.2340 N.am  1 <1>  -0.5470 
 14 C        7.6670     0.1970    -0.0400 C.ar  1 <1>   0.1170 
 15 C        8.8290    -0.5810    -0.0640 C.ar  1 <1>  -0.1440 
 16 C        7.7690     1.5650    -0.2760 C.ar  1 <1>  -0.1500 
 17 C       10.0550     0.0310    -0.3190 C.ar  1 <1>  -0.1500 
 18 C        8.7500    -2.0930     0.1720 C.3   1 <1>   1.1630 
 19 C        8.9890     2.1610    -0.5280 C.ar  1 <1>  -0.1500 
 20 C       10.1360     1.3920    -0.5490 C.ar  1 <1>  -0.1500 
 21 F        8.0920    -2.7220    -0.7940 F     1 <1>  -0.3400 
 22 F        9.9360    -2.6840     0.2570 F     1 <1>  -0.3400 
 23 F        8.1120    -2.3900     1.3020 F     1 <1>  -0.3400 
 24 H        0.5520     1.3860    -1.2540 H     1 <1>   0.0800 
 25 H       -1.1300     1.3780    -0.8120 H     1 <1>   0.0800 
 26 H       -0.4340    -0.0200    -1.5770 H     1 <1>   0.0800 
 27 H        2.8410     0.8200     0.6570 H     1 <1>   0.0800 
 28 H        2.5820     0.2930    -0.9870 H     1 <1>   0.0800 
 29 H        1.1210    -1.7740    -1.3550 H     1 <1>   0.0800 
 30 H        0.4740    -2.5660     0.0630 H     1 <1>   0.0800 
 31 H        4.1380    -1.1430     1.1560 H     1 <1>   0.0800 
 32 H        2.4010    -3.7990    -0.8810 H     1 <1>   0.0800 
 33 H        2.6590    -3.2900     0.7590 H     1 <1>   0.0800 
 34 H        4.6870    -2.8430    -0.5320 H     1 <1>   0.0800 
 35 H        3.7740    -1.9730    -1.7340 H     1 <1>   0.0800 
 36 H        6.3930    -1.0990     0.9460 H     1 <1>   0.3700 
 37 H        6.8820     2.1740    -0.2630 H     1 <1>   0.1500 
 38 H       10.9660    -0.5430    -0.3470 H     1 <1>   0.1500 
 39 H        9.0420     3.2200    -0.7090 H     1 <1>   0.1500 
 40 H       11.0890     1.8530    -0.7450 H     1 <1>   0.1500 
@<TRIPOS>BOND
  1   1   2  2   
  2   1   3  2   
  3   1   4  am  
  4   1   5  1   
  5   4   6  1   
  6   4   7  1   
  7   5  24  1   
  8   5  25  1   
  9   5  26  1   
 10   6   8  1   
 11   6  27  1   
 12   6  28  1   
 13   7   9  1   
 14   7  29  1   
 15   7  30  1   
 16   8  10  1   
 17   8  11  1   
 18   8  31  1   
 19   9  11  1   
 20   9  32  1   
 21   9  33  1   
 22  10  12  2   
 23  10  13  am  
 24  11  34  1   
 25  11  35  1   
 26  13  14  1   
 27  13  36  1   
 28  14  15  ar  
 29  14  16  ar  
 30  15  17  ar  
 31  15  18  1   
 32  16  19  ar  
 33  16  37  1   
 34  17  20  ar  
 35  17  38  1   
 36  18  21  1   
 37  18  22  1   
 38  18  23  1   
 39  19  20  ar  
 40  19  39  1   
 41  20  40  1   
@<TRIPOS>SUBSTRUCTURE
  1 ****  10 GROUP 4 **** **** 0

# MOE 2024.06 (io_trps.svl 2023.06)
