@<TRIPOS>MOLECULE
3-Methoxy-5,6,7,8-tetrahydro-naphthalene-2-carbaldehyde
28 29 1 0 0 
SMALL
USER_CHARGES


@<TRIPOS>ATOM
  1 O       -0.3520    -0.0060    -0.8780 O.2   1 <1>  -0.5700 
  2 C        0.2720     0.9960    -0.6290 C.2   1 <1>   0.4240 
  3 C       -0.3040     2.2970    -0.4000 C.ar  1 <1>   0.0860 
  4 C        0.4920     3.4120    -0.1140 C.ar  1 <1>   0.0820 
  5 C       -1.6850     2.4830    -0.4560 C.ar  1 <1>  -0.1500 
  6 O        1.8350     3.2310    -0.0580 O.3   1 <1>  -0.3630 
  7 C       -0.0980     4.6550     0.1000 C.ar  1 <1>  -0.1500 
  8 C       -2.2730     3.7160    -0.2430 C.ar  1 <1>  -0.1430 
  9 C        2.7370     4.2800     0.2240 C.3   1 <1>   0.0400 
 10 C       -1.4710     4.8160     0.0380 C.ar  1 <1>  -0.1430 
 11 C       -3.7930     3.8210    -0.3070 C.3   1 <1>  -0.0160 
 12 C       -2.0600     6.2040     0.2630 C.3   1 <1>  -0.0160 
 13 C       -4.2830     5.2670    -0.4470 C.3   1 <1>  -0.1600 
 14 C       -3.5640     6.1720     0.5570 C.3   1 <1>  -0.1600 
 15 H        1.3420     0.9090    -0.5740 H     1 <1>   0.0600 
 16 H       -2.3060     1.6290    -0.6710 H     1 <1>   0.1500 
 17 H        0.5030     5.5180     0.3150 H     1 <1>   0.1500 
 18 H        3.7330     3.8760     0.2110 H     1 <1>   0.0800 
 19 H        2.5160     4.6780     1.1980 H     1 <1>   0.0800 
 20 H        2.6410     5.0370    -0.5340 H     1 <1>   0.0800 
 21 H       -4.1960     3.4010     0.5980 H     1 <1>   0.0800 
 22 H       -4.1650     3.2410    -1.1330 H     1 <1>   0.0800 
 23 H       -1.8900     6.7880    -0.6240 H     1 <1>   0.0800 
 24 H       -1.5530     6.6890     1.0790 H     1 <1>   0.0800 
 25 H       -5.3460     5.3040    -0.2830 H     1 <1>   0.0800 
 26 H       -4.0870     5.6140    -1.4470 H     1 <1>   0.0800 
 27 H       -3.9630     7.1700     0.5050 H     1 <1>   0.0800 
 28 H       -3.7250     5.7980     1.5540 H     1 <1>   0.0800 
@<TRIPOS>BOND
  1   1   2  2   
  2   2   3  1   
  3   2  15  1   
  4   3   4  ar  
  5   3   5  ar  
  6   4   6  1   
  7   4   7  ar  
  8   5   8  ar  
  9   5  16  1   
 10   6   9  1   
 11   7  10  ar  
 12   7  17  1   
 13   8  10  ar  
 14   8  11  1   
 15   9  18  1   
 16   9  19  1   
 17   9  20  1   
 18  10  12  1   
 19  11  13  1   
 20  11  21  1   
 21  11  22  1   
 22  12  14  1   
 23  12  23  1   
 24  12  24  1   
 25  13  14  1   
 26  13  25  1   
 27  13  26  1   
 28  14  27  1   
 29  14  28  1   
@<TRIPOS>SUBSTRUCTURE
  1 ****   8 GROUP 4 **** **** 0

# MOE 2024.06 (io_trps.svl 2023.06)
