@<TRIPOS>MOLECULE
1-Benzo[1,2,3]thiadiazol-5-yl-3-isopropyl-urea
28 29 1 0 0 
SMALL
USER_CHARGES


@<TRIPOS>ATOM
  1 S       -0.0240    -0.1060    -0.5200 S.3   1 <1>   0.1810 
  2 N       -0.6680     1.4730    -0.4210 N.2   1 <1>  -0.2210 
  3 C        1.6130     0.4500    -0.3030 C.ar  1 <1>   0.0400 
  4 N        0.2390     2.3260    -0.2430 N.2   1 <1>  -0.2270 
  5 C        1.5290     1.8130    -0.1690 C.ar  1 <1>   0.2270 
  6 C        2.8030    -0.2500    -0.2620 C.ar  1 <1>  -0.1500 
  7 C        2.7000     2.5320     0.0210 C.ar  1 <1>  -0.1500 
  8 C        3.9620     0.4830    -0.0740 C.ar  1 <1>  -0.1500 
  9 C        3.9250     1.8760     0.0740 C.ar  1 <1>   0.1170 
 10 N        5.0870     2.6380     0.2560 N.am  1 <1>  -0.5470 
 11 C        6.3020     2.3070     0.7790 C.2   1 <1>   0.6900 
 12 O        6.5270     1.2300     1.2860 O.2   1 <1>  -0.5700 
 13 N        7.2970     3.2170     0.7580 N.am  1 <1>  -0.7300 
 14 C        7.4810     4.3270    -0.1820 C.3   1 <1>   0.2200 
 15 C        8.9110     4.2680    -0.7080 C.3   1 <1>  -0.2400 
 16 C        7.2170     5.6330     0.5600 C.3   1 <1>  -0.2400 
 17 H        2.8250    -1.3200    -0.3720 H     1 <1>   0.1500 
 18 H        2.6380     3.5980     0.1300 H     1 <1>   0.1500 
 19 H        4.9070    -0.0300    -0.0410 H     1 <1>   0.1500 
 20 H        4.9990     3.6350     0.0950 H     1 <1>   0.3700 
 21 H        8.1490     2.9000     1.2200 H     1 <1>   0.3700 
 22 H        6.7960     4.2290    -1.0080 H     1 <1>   0.0800 
 23 H        9.6190     4.3720     0.0950 H     1 <1>   0.0800 
 24 H        9.0740     5.0660    -1.4100 H     1 <1>   0.0800 
 25 H        9.0800     3.3350    -1.2150 H     1 <1>   0.0800 
 26 H        7.9000     5.7440     1.3840 H     1 <1>   0.0800 
 27 H        6.2100     5.6530     0.9350 H     1 <1>   0.0800 
 28 H        7.3470     6.4660    -0.1060 H     1 <1>   0.0800 
@<TRIPOS>BOND
  1   1   2  1   
  2   1   3  1   
  3   2   4  2   
  4   3   5  ar  
  5   3   6  ar  
  6   4   5  1   
  7   5   7  ar  
  8   6   8  ar  
  9   6  17  1   
 10   7   9  ar  
 11   7  18  1   
 12   8   9  ar  
 13   8  19  1   
 14   9  10  1   
 15  10  11  am  
 16  10  20  1   
 17  11  12  2   
 18  11  13  am  
 19  13  14  1   
 20  13  21  1   
 21  14  15  1   
 22  14  16  1   
 23  14  22  1   
 24  15  23  1   
 25  15  24  1   
 26  15  25  1   
 27  16  26  1   
 28  16  27  1   
 29  16  28  1   
@<TRIPOS>SUBSTRUCTURE
  1 ****   9 GROUP 4 **** **** 0

# MOE 2024.06 (io_trps.svl 2023.06)
