@<TRIPOS>MOLECULE
N-(3-Fluoro-4-methyl-phenyl)-2-[4-(2-fluoro-phenyl)-piperazin-1-yl]-acetamide
46 48 1 0 0 
SMALL
USER_CHARGES


@<TRIPOS>ATOM
  1 F       -1.5640     2.6720     0.7300 F     1 <1>  -0.1900 
  2 C       -0.4560     2.6590     0.0350 C.ar  1 <1>   0.1900 
  3 C       -0.3920     1.8900    -1.1180 C.ar  1 <1>  -0.1440 
  4 C        0.6040     3.4180     0.4890 C.ar  1 <1>  -0.1500 
  5 C        0.7970     1.9000    -1.8300 C.ar  1 <1>  -0.1500 
  6 C       -1.5800     1.0650    -1.5890 C.3   1 <1>  -0.0960 
  7 C        1.7950     3.4230    -0.2290 C.ar  1 <1>   0.1170 
  8 C        1.8710     2.6560    -1.3880 C.ar  1 <1>  -0.1500 
  9 N        2.9230     4.1600     0.1560 N.am  1 <1>  -0.5470 
 10 C        3.2210     4.9240     1.2490 C.2   1 <1>   0.5690 
 11 O        2.4720     5.1230     2.1740 O.2   1 <1>  -0.5700 
 12 C        4.6170     5.5500     1.2690 C.3   1 <1>   0.1710 
 13 N        5.6030     4.8270     0.4120 N.3   1 <1>  -0.8100 
 14 C        6.7950     5.6670     0.1500 C.3   1 <1>   0.1100 
 15 C        6.0340     3.5580     1.0560 C.3   1 <1>   0.1100 
 16 C        7.8340     4.9400    -0.7270 C.3   1 <1>   0.2090 
 17 C        7.0560     2.7890     0.1980 C.3   1 <1>   0.2090 
 18 N        8.2410     3.6420    -0.1120 N.pl3 1 <1>  -0.8380 
 19 C        9.3170     2.9890    -0.7260 C.ar  1 <1>   0.1000 
 20 C        9.2950     2.4350    -2.0120 C.ar  1 <1>   0.1900 
 21 C       10.5050     2.8730    -0.0150 C.ar  1 <1>  -0.1500 
 22 F        8.2030     2.5100    -2.7380 F     1 <1>  -0.1900 
 23 C       10.3850     1.7990    -2.5720 C.ar  1 <1>  -0.1500 
 24 C       11.6100     2.2380    -0.5600 C.ar  1 <1>  -0.1500 
 25 C       11.5550     1.7000    -1.8360 C.ar  1 <1>  -0.1500 
 26 H        0.4890     3.9930     1.3870 H     1 <1>   0.1500 
 27 H        0.8920     1.3190    -2.7310 H     1 <1>   0.1500 
 28 H       -1.8500     0.3490    -0.8330 H     1 <1>   0.0800 
 29 H       -1.3490     0.5360    -2.4960 H     1 <1>   0.0800 
 30 H       -2.4220     1.7080    -1.7710 H     1 <1>   0.0800 
 31 H        2.7830     2.6490    -1.9570 H     1 <1>   0.1500 
 32 H        3.7390     4.0930    -0.4620 H     1 <1>   0.3700 
 33 H        4.9680     5.5920     2.2850 H     1 <1>   0.0800 
 34 H        4.5110     6.5600     0.9150 H     1 <1>   0.0800 
 35 H        7.2640     5.9410     1.0800 H     1 <1>   0.0800 
 36 H        6.4930     6.5690    -0.3520 H     1 <1>   0.0800 
 37 H        5.1810     2.9240     1.2220 H     1 <1>   0.0800 
 38 H        6.4820     3.7670     2.0130 H     1 <1>   0.0800 
 39 H        8.7030     5.5630    -0.8450 H     1 <1>   0.0800 
 40 H        7.4120     4.7650    -1.7010 H     1 <1>   0.0800 
 41 H        6.5850     2.4740    -0.7160 H     1 <1>   0.0800 
 42 H        7.3820     1.9120     0.7290 H     1 <1>   0.0800 
 43 H       10.5510     3.2880     0.9750 H     1 <1>   0.1500 
 44 H       10.3190     1.3900    -3.5640 H     1 <1>   0.1500 
 45 H       12.5180     2.1630     0.0140 H     1 <1>   0.1500 
 46 H       12.4170     1.2090    -2.2540 H     1 <1>   0.1500 
@<TRIPOS>BOND
  1   1   2  1   
  2   2   3  ar  
  3   2   4  ar  
  4   3   5  ar  
  5   3   6  1   
  6   4   7  ar  
  7   4  26  1   
  8   5   8  ar  
  9   5  27  1   
 10   6  28  1   
 11   6  29  1   
 12   6  30  1   
 13   7   8  ar  
 14   7   9  1   
 15   8  31  1   
 16   9  10  am  
 17   9  32  1   
 18  10  11  2   
 19  10  12  1   
 20  12  13  1   
 21  12  33  1   
 22  12  34  1   
 23  13  14  1   
 24  13  15  1   
 25  14  16  1   
 26  14  35  1   
 27  14  36  1   
 28  15  17  1   
 29  15  37  1   
 30  15  38  1   
 31  16  18  1   
 32  16  39  1   
 33  16  40  1   
 34  17  18  1   
 35  17  41  1   
 36  17  42  1   
 37  18  19  1   
 38  19  20  ar  
 39  19  21  ar  
 40  20  22  1   
 41  20  23  ar  
 42  21  24  ar  
 43  21  43  1   
 44  23  25  ar  
 45  23  44  1   
 46  24  25  ar  
 47  24  45  1   
 48  25  46  1   
@<TRIPOS>SUBSTRUCTURE
  1 ****  15 GROUP 4 **** **** 0

# MOE 2024.06 (io_trps.svl 2023.06)
