@<TRIPOS>MOLECULE
4-[2-(3-Allyl-2,4-dioxo-thiazolidin-5-yl)-acetylamino]-benzoic acid ethyl ester
43 44 1 0 0 
SMALL
USER_CHARGES


@<TRIPOS>ATOM
  1 S        0.0870    -0.6750    -1.1990 S.3   1 <1>  -0.3710 
  2 C       -0.5210     0.8720    -1.7870 C.2   1 <1>   0.7710 
  3 C       -0.2550    -0.2920     0.5710 C.3   1 <1>   0.2110 
  4 O       -0.5190     1.1200    -2.9650 O.2   1 <1>  -0.5700 
  5 N       -0.9480     1.6490    -0.7540 N.am  1 <1>  -0.4200 
  6 C       -0.8500     1.1140     0.5030 C.2   1 <1>   0.5690 
  7 C        1.0590    -0.3710     1.3530 C.3   1 <1>  -0.0990 
  8 C       -1.4210     3.0250    -0.9890 C.3   1 <1>   0.2780 
  9 O       -1.1980     1.6930     1.5010 O.2   1 <1>  -0.5700 
 10 C        1.5030    -1.8070     1.5040 C.2   1 <1>   0.5690 
 11 C       -0.2660     3.9830    -0.7650 C.2   1 <1>  -0.2880 
 12 O        1.1330    -2.4060     2.4810 O.2   1 <1>  -0.5700 
 13 N        2.2770    -2.3540     0.5180 N.am  1 <1>  -0.5470 
 14 C        0.3450     4.6900    -1.7210 C.2   1 <1>  -0.3000 
 15 C        2.8740    -3.6140     0.4130 C.ar  1 <1>   0.1170 
 16 C        3.1450    -4.4260     1.5090 C.ar  1 <1>  -0.1500 
 17 C        3.2330    -4.0840    -0.8450 C.ar  1 <1>  -0.1500 
 18 C        3.7480    -5.6590     1.3500 C.ar  1 <1>  -0.1500 
 19 C        3.8370    -5.3160    -1.0010 C.ar  1 <1>  -0.1500 
 20 C        4.1140    -6.1440     0.0910 C.ar  1 <1>   0.0860 
 21 C        4.7490    -7.4380    -0.0580 C.2   1 <1>   0.6340 
 22 O        5.0040    -8.1700     0.8770 O.2   1 <1>  -0.5700 
 23 O        5.0710    -7.8420    -1.2920 O.3   1 <1>  -0.4300 
 24 C        5.6910    -9.0880    -1.5240 C.3   1 <1>   0.1200 
 25 C        5.9150    -9.2320    -3.0250 C.3   1 <1>  -0.2400 
 26 H       -0.9850    -0.9940     0.9340 H     1 <1>   0.0800 
 27 H        0.9030     0.0350     2.3370 H     1 <1>   0.0800 
 28 H        1.8240     0.2120     0.8750 H     1 <1>   0.0800 
 29 H       -2.2280     3.2560    -0.3150 H     1 <1>   0.0800 
 30 H       -1.7870     3.1160    -1.9980 H     1 <1>   0.0800 
 31 H        0.0220     4.0400     0.2730 H     1 <1>   0.1500 
 32 H        2.3510    -1.7850    -0.3250 H     1 <1>   0.3700 
 33 H        1.1620     5.3660    -1.5390 H     1 <1>   0.1500 
 34 H        0.0840     4.6520    -2.7660 H     1 <1>   0.1500 
 35 H        2.8870    -4.0950     2.4990 H     1 <1>   0.1500 
 36 H        3.0350    -3.4800    -1.7120 H     1 <1>   0.1500 
 37 H        3.9430    -6.2650     2.2190 H     1 <1>   0.1500 
 38 H        4.1000    -5.6470    -1.9920 H     1 <1>   0.1500 
 39 H        5.0440    -9.8650    -1.1520 H     1 <1>   0.0800 
 40 H        6.6250    -9.1080    -0.9880 H     1 <1>   0.0800 
 41 H        4.9750    -9.2000    -3.5460 H     1 <1>   0.0800 
 42 H        6.3880   -10.1750    -3.2310 H     1 <1>   0.0800 
 43 H        6.5530    -8.4440    -3.3820 H     1 <1>   0.0800 
@<TRIPOS>BOND
  1   1   2  1   
  2   1   3  1   
  3   2   4  2   
  4   2   5  am  
  5   3   6  1   
  6   3   7  1   
  7   3  26  1   
  8   5   6  am  
  9   5   8  1   
 10   6   9  2   
 11   7  10  1   
 12   7  27  1   
 13   7  28  1   
 14   8  11  1   
 15   8  29  1   
 16   8  30  1   
 17  10  12  2   
 18  10  13  am  
 19  11  14  2   
 20  11  31  1   
 21  13  15  1   
 22  13  32  1   
 23  14  33  1   
 24  14  34  1   
 25  15  16  ar  
 26  15  17  ar  
 27  16  18  ar  
 28  16  35  1   
 29  17  19  ar  
 30  17  36  1   
 31  18  20  ar  
 32  18  37  1   
 33  19  20  ar  
 34  19  38  1   
 35  20  21  1   
 36  21  22  2   
 37  21  23  1   
 38  23  24  1   
 39  24  25  1   
 40  24  39  1   
 41  24  40  1   
 42  25  41  1   
 43  25  42  1   
 44  25  43  1   
@<TRIPOS>SUBSTRUCTURE
  1 ****  13 GROUP 4 **** **** 0

# MOE 2024.06 (io_trps.svl 2023.06)
