@<TRIPOS>MOLECULE
Methyl-(1-methyl-2-pyridin-2-yl-ethyl)-amine
26 26 1 0 0 
SMALL
USER_CHARGES


@<TRIPOS>ATOM
  1 N       -0.0910     0.5440    -0.9420 N.ar  1 <1>  -0.6200 
  2 C        1.0620     0.8560    -0.3760 C.ar  1 <1>   0.1660 
  3 C       -1.1330     1.2700    -0.5660 C.ar  1 <1>   0.1600 
  4 C        1.2200     1.8700     0.5590 C.ar  1 <1>  -0.1500 
  5 C        2.2540     0.0290    -0.8140 C.3   1 <1>  -0.0160 
  6 C       -1.0800     2.2970     0.3600 C.ar  1 <1>  -0.1500 
  7 C        0.1260     2.6140     0.9450 C.ar  1 <1>  -0.1500 
  8 C        2.3820    -1.2610     0.0120 C.3   1 <1>   0.4230 
  9 N        3.6570    -1.9360    -0.3370 N.4   1 <1>  -0.9060 
 10 C        1.2430    -2.2550    -0.2330 C.3   1 <1>  -0.2400 
 11 C        4.1070    -2.9350     0.6810 C.3   1 <1>   0.2630 
 12 H       -2.0810     1.0340    -1.0190 H     1 <1>   0.1500 
 13 H        2.1820     2.0890     0.9840 H     1 <1>   0.1500 
 14 H        3.1380     0.6270    -0.6950 H     1 <1>   0.0800 
 15 H        2.1450    -0.2050    -1.8590 H     1 <1>   0.0800 
 16 H       -1.9720     2.8410     0.6150 H     1 <1>   0.1500 
 17 H        0.2080     3.4100     1.6670 H     1 <1>   0.1500 
 18 H        2.3940    -0.9910     1.0560 H     1 <1>   0.0800 
 19 H        4.3910    -1.2280    -0.4630 H     1 <1>   0.4500 
 20 H        3.5320    -2.3980    -1.2480 H     1 <1>   0.4500 
 21 H        1.1410    -2.4780    -1.2810 H     1 <1>   0.0800 
 22 H        0.3130    -1.8320     0.1010 H     1 <1>   0.0800 
 23 H        1.3820    -3.1670     0.3170 H     1 <1>   0.0800 
 24 H        4.2370    -2.4610     1.6410 H     1 <1>   0.0800 
 25 H        5.0480    -3.3730     0.3850 H     1 <1>   0.0800 
 26 H        3.3810    -3.7260     0.7820 H     1 <1>   0.0800 
@<TRIPOS>BOND
  1   1   2  ar  
  2   1   3  ar  
  3   2   4  ar  
  4   2   5  1   
  5   3   6  ar  
  6   3  12  1   
  7   4   7  ar  
  8   4  13  1   
  9   5   8  1   
 10   5  14  1   
 11   5  15  1   
 12   6   7  ar  
 13   6  16  1   
 14   7  17  1   
 15   8   9  1   
 16   8  10  1   
 17   8  18  1   
 18   9  11  1   
 19   9  19  1   
 20   9  20  1   
 21  10  21  1   
 22  10  22  1   
 23  10  23  1   
 24  11  24  1   
 25  11  25  1   
 26  11  26  1   
@<TRIPOS>SUBSTRUCTURE
  1 ****   2 GROUP 4 **** **** 0

# MOE 2024.06 (io_trps.svl 2023.06)
