@<TRIPOS>MOLECULE
N-Allyl-3-[3-(4-tert-butyl-phenyl)-[1,2,4]oxadiazol-5-yl]-propionamide
46 47 1 0 0 
SMALL
USER_CHARGES


@<TRIPOS>ATOM
  1 O       -0.4870    -0.0940    -0.3960 O.2   1 <1>  -0.5700 
  2 C        0.1620    -1.1090    -0.3550 C.2   1 <1>   0.5690 
  3 N        1.5130    -1.0950    -0.2790 N.am  1 <1>  -0.7300 
  4 C       -0.5570    -2.4390    -0.3850 C.3   1 <1>  -0.0990 
  5 C        2.3300     0.1230    -0.2310 C.3   1 <1>   0.2780 
  6 C       -1.5640    -2.5490     0.7680 C.3   1 <1>   0.0200 
  7 C        3.5330    -0.1780     0.6350 C.2   1 <1>  -0.2880 
  8 C       -2.2450    -3.9030     0.7750 C.2   1 <1>   0.2980 
  9 C        4.8030    -0.2040     0.2180 C.2   1 <1>  -0.3000 
 10 O       -1.5420    -4.9570     1.0960 O.3   1 <1>  -0.0190 
 11 N       -3.4590    -4.1240     0.4880 N.2   1 <1>  -0.5650 
 12 N       -2.3840    -5.9370     1.0040 N.2   1 <1>  -0.4100 
 13 C       -3.5210    -5.4500     0.6470 C.2   1 <1>   0.4620 
 14 C       -4.7400    -6.2110     0.4290 C.ar  1 <1>   0.0540 
 15 C       -4.7770    -7.5930     0.6090 C.ar  1 <1>  -0.1500 
 16 C       -5.9290    -5.6030     0.0310 C.ar  1 <1>  -0.1500 
 17 C       -5.9340    -8.3210     0.4030 C.ar  1 <1>  -0.1500 
 18 C       -7.0880    -6.3290    -0.1750 C.ar  1 <1>  -0.1500 
 19 C       -7.1160    -7.7080     0.0060 C.ar  1 <1>  -0.1430 
 20 C       -8.3830    -8.5640    -0.2120 C.3   1 <1>   0.1430 
 21 C       -9.6050    -7.7370    -0.6490 C.3   1 <1>  -0.2400 
 22 C       -8.7520    -9.2780     1.0970 C.3   1 <1>  -0.2400 
 23 C       -8.1160    -9.6080    -1.3060 C.3   1 <1>  -0.2400 
 24 H        2.0540    -1.9600    -0.2670 H     1 <1>   0.3700 
 25 H        0.1570    -3.2390    -0.3230 H     1 <1>   0.0800 
 26 H       -1.0770    -2.5230    -1.3220 H     1 <1>   0.0800 
 27 H        1.7630     0.9410     0.1820 H     1 <1>   0.0800 
 28 H        2.6390     0.3850    -1.2290 H     1 <1>   0.0800 
 29 H       -2.3130    -1.7820     0.6670 H     1 <1>   0.0800 
 30 H       -1.0650    -2.4040     1.7100 H     1 <1>   0.0800 
 31 H        3.2550    -0.3750     1.6570 H     1 <1>   0.1500 
 32 H        5.6410    -0.4200     0.8590 H     1 <1>   0.1500 
 33 H        5.1160    -0.0110    -0.7950 H     1 <1>   0.1500 
 34 H       -3.8830    -8.1080     0.9160 H     1 <1>   0.1500 
 35 H       -5.9490    -4.5370    -0.1200 H     1 <1>   0.1500 
 36 H       -5.9000    -9.3840     0.5580 H     1 <1>   0.1500 
 37 H       -7.9630    -5.7870    -0.4810 H     1 <1>   0.1500 
 38 H      -10.4610    -8.3710    -0.7880 H     1 <1>   0.0800 
 39 H       -9.4070    -7.2350    -1.5790 H     1 <1>   0.0800 
 40 H       -9.8510    -7.0050     0.0990 H     1 <1>   0.0800 
 41 H       -8.9060    -8.5550     1.8780 H     1 <1>   0.0800 
 42 H       -7.9700    -9.9470     1.4080 H     1 <1>   0.0800 
 43 H       -9.6530    -9.8510     0.9770 H     1 <1>   0.0800 
 44 H       -7.8220    -9.1180    -2.2170 H     1 <1>   0.0800 
 45 H       -8.9980   -10.1910    -1.4990 H     1 <1>   0.0800 
 46 H       -7.3290   -10.2800    -1.0170 H     1 <1>   0.0800 
@<TRIPOS>BOND
  1   1   2  2   
  2   2   3  am  
  3   2   4  1   
  4   3   5  1   
  5   3  24  1   
  6   4   6  1   
  7   4  25  1   
  8   4  26  1   
  9   5   7  1   
 10   5  27  1   
 11   5  28  1   
 12   6   8  1   
 13   6  29  1   
 14   6  30  1   
 15   7   9  2   
 16   7  31  1   
 17   8  10  1   
 18   8  11  2   
 19   9  32  1   
 20   9  33  1   
 21  10  12  1   
 22  11  13  1   
 23  12  13  2   
 24  13  14  1   
 25  14  15  ar  
 26  14  16  ar  
 27  15  17  ar  
 28  15  34  1   
 29  16  18  ar  
 30  16  35  1   
 31  17  19  ar  
 32  17  36  1   
 33  18  19  ar  
 34  18  37  1   
 35  19  20  1   
 36  20  21  1   
 37  20  22  1   
 38  20  23  1   
 39  21  38  1   
 40  21  39  1   
 41  21  40  1   
 42  22  41  1   
 43  22  42  1   
 44  22  43  1   
 45  23  44  1   
 46  23  45  1   
 47  23  46  1   
@<TRIPOS>SUBSTRUCTURE
  1 ****  11 GROUP 4 **** **** 0

# MOE 2024.06 (io_trps.svl 2023.06)
