@<TRIPOS>MOLECULE
3-[(2,3-Dihydro-benzo[1,4]dioxine-6-carbonyl)-amino]-4-(4-methyl-piperazin-1-yl)
56 59 1 0 0 
SMALL
USER_CHARGES


@<TRIPOS>ATOM
  1 O        0.3110    -0.0550     0.5470 O.2   1 <1>  -0.5700 
  2 C        1.0070    -0.9890     0.2040 C.2   1 <1>   0.6340 
  3 O        0.4090    -2.1110    -0.2160 O.3   1 <1>  -0.4300 
  4 C        2.4550    -0.9600     0.2260 C.ar  1 <1>   0.0860 
  5 C       -1.0000    -2.2250    -0.2730 C.3   1 <1>   0.0400 
  6 C        3.1500     0.2080     0.5520 C.ar  1 <1>  -0.1500 
  7 C        3.2240    -2.0900    -0.0700 C.ar  1 <1>  -0.1500 
  8 C        4.5310     0.2510     0.5830 C.ar  1 <1>   0.1170 
  9 C        4.6050    -2.0590    -0.0450 C.ar  1 <1>  -0.1500 
 10 N        5.2500     1.3990     0.9240 N.am  1 <1>  -0.5470 
 11 C        5.2850    -0.8920     0.2760 C.ar  1 <1>   0.1000 
 12 C        5.1120     2.6910     0.4940 C.2   1 <1>   0.5440 
 13 N        6.6870    -0.8480     0.2760 N.pl3 1 <1>  -0.8380 
 14 O        4.0140     3.1630     0.2890 O.2   1 <1>  -0.5700 
 15 C        6.3240     3.4550     0.2890 C.ar  1 <1>   0.0860 
 16 C        7.3860    -1.5090     1.4290 C.3   1 <1>   0.2090 
 17 C        7.3560    -1.0750    -1.0490 C.3   1 <1>   0.2090 
 18 C        7.4650     2.8310    -0.2220 C.ar  1 <1>  -0.1500 
 19 C        6.4120     4.8130     0.5970 C.ar  1 <1>  -0.1500 
 20 C        8.9320    -1.4280     1.3120 C.3   1 <1>   0.3430 
 21 C        8.8390    -0.6210    -1.0420 C.3   1 <1>   0.3430 
 22 C        8.6550     3.5120    -0.3750 C.ar  1 <1>   0.0830 
 23 C        7.5970     5.5120     0.4370 C.ar  1 <1>  -0.1500 
 24 N        9.3730    -0.3580     0.3460 N.4   1 <1>  -0.9590 
 25 O        9.7360     2.8480    -0.8620 O.3   1 <1>  -0.3630 
 26 C        8.7250     4.8650    -0.0380 C.ar  1 <1>   0.0830 
 27 C       10.8470    -0.1310     0.3480 C.3   1 <1>   0.2630 
 28 C       10.7700     3.6660    -1.3920 C.3   1 <1>   0.1200 
 29 O        9.8760     5.5610    -0.1720 O.3   1 <1>  -0.3630 
 30 C       11.0620     4.8420    -0.4470 C.3   1 <1>   0.1200 
 31 H       -1.2490    -3.2040    -0.6380 H     1 <1>   0.0800 
 32 H       -1.3820    -1.4700    -0.9390 H     1 <1>   0.0800 
 33 H       -1.4000    -2.0830     0.7170 H     1 <1>   0.0800 
 34 H        2.5930     1.0990     0.7870 H     1 <1>   0.1500 
 35 H        2.7270    -3.0110    -0.3240 H     1 <1>   0.1500 
 36 H        5.1570    -2.9500    -0.2800 H     1 <1>   0.1500 
 37 H        6.2060     1.1390     1.1490 H     1 <1>   0.3700 
 38 H        7.0850    -2.5410     1.4980 H     1 <1>   0.0800 
 39 H        7.0770    -1.0260     2.3400 H     1 <1>   0.0800 
 40 H        6.8230    -0.5430    -1.8200 H     1 <1>   0.0800 
 41 H        7.3110    -2.1220    -1.2940 H     1 <1>   0.0800 
 42 H        7.4100     1.8040    -0.5200 H     1 <1>   0.1500 
 43 H        5.5360     5.3190     0.9680 H     1 <1>   0.1500 
 44 H        9.3030    -2.3830     0.9800 H     1 <1>   0.0800 
 45 H        9.3460    -1.2420     2.2900 H     1 <1>   0.0800 
 46 H        8.9270     0.2780    -1.6310 H     1 <1>   0.0800 
 47 H        9.4310    -1.3800    -1.5270 H     1 <1>   0.0800 
 48 H        7.6530     6.5590     0.6810 H     1 <1>   0.1500 
 49 H        8.9070     0.5100     0.6510 H     1 <1>   0.4500 
 50 H       11.3650    -1.0150     0.0140 H     1 <1>   0.0800 
 51 H       11.1860     0.1140     1.3420 H     1 <1>   0.0800 
 52 H       11.0970     0.6870    -0.3080 H     1 <1>   0.0800 
 53 H       10.4480     4.0360    -2.3510 H     1 <1>   0.0800 
 54 H       11.6470     3.0600    -1.5270 H     1 <1>   0.0800 
 55 H       11.7650     5.5240    -0.8910 H     1 <1>   0.0800 
 56 H       11.4610     4.4870     0.4870 H     1 <1>   0.0800 
@<TRIPOS>BOND
  1   1   2  2   
  2   2   3  1   
  3   2   4  1   
  4   3   5  1   
  5   4   6  ar  
  6   4   7  ar  
  7   5  31  1   
  8   5  32  1   
  9   5  33  1   
 10   6   8  ar  
 11   6  34  1   
 12   7   9  ar  
 13   7  35  1   
 14   8  10  1   
 15   8  11  ar  
 16   9  11  ar  
 17   9  36  1   
 18  10  12  am  
 19  10  37  1   
 20  11  13  1   
 21  12  14  2   
 22  12  15  1   
 23  13  16  1   
 24  13  17  1   
 25  15  18  ar  
 26  15  19  ar  
 27  16  20  1   
 28  16  38  1   
 29  16  39  1   
 30  17  21  1   
 31  17  40  1   
 32  17  41  1   
 33  18  22  ar  
 34  18  42  1   
 35  19  23  ar  
 36  19  43  1   
 37  20  24  1   
 38  20  44  1   
 39  20  45  1   
 40  21  24  1   
 41  21  46  1   
 42  21  47  1   
 43  22  25  1   
 44  22  26  ar  
 45  23  26  ar  
 46  23  48  1   
 47  24  27  1   
 48  24  49  1   
 49  25  28  1   
 50  26  29  1   
 51  27  50  1   
 52  27  51  1   
 53  27  52  1   
 54  28  30  1   
 55  28  53  1   
 56  28  54  1   
 57  29  30  1   
 58  30  55  1   
 59  30  56  1   
@<TRIPOS>SUBSTRUCTURE
  1 ****  10 GROUP 4 **** **** 0

# MOE 2024.06 (io_trps.svl 2023.06)
