@<TRIPOS>MOLECULE
1'-Isobutyryl-[1,4']bipiperidinyl-4'-carboxylic acid amide
48 49 1 0 0 
SMALL
USER_CHARGES


@<TRIPOS>ATOM
  1 O        1.4410    -1.9120    -1.8600 O.2   1 <1>  -0.5700 
  2 C        0.6240    -1.2080    -1.3170 C.2   1 <1>   0.5690 
  3 N        0.8130     0.1340    -1.3480 N.am  1 <1>  -0.8000 
  4 C       -0.5970    -1.9120    -0.6200 C.3   1 <1>   0.5640 
  5 N       -0.1620    -3.3250    -0.2190 N.4   1 <1>  -0.9590 
  6 C       -1.0620    -1.0920     0.6100 C.3   1 <1>  -0.1600 
  7 C       -1.7420    -1.9730    -1.6710 C.3   1 <1>  -0.1600 
  8 C       -1.2190    -4.3300     0.1170 C.3   1 <1>   0.3430 
  9 C        0.9260    -3.3410     0.8060 C.3   1 <1>   0.3430 
 10 C       -2.3530    -1.6070     1.2570 C.3   1 <1>   0.1400 
 11 C       -3.1430    -1.6360    -1.1340 C.3   1 <1>   0.1400 
 12 C       -0.6150    -5.7340     0.1310 C.3   1 <1>  -0.1600 
 13 C        1.5810    -4.7230     0.8410 C.3   1 <1>  -0.1600 
 14 N       -3.2880    -2.1760     0.2390 N.am  1 <1>  -0.6600 
 15 C        0.5570    -5.8320     1.1140 C.3   1 <1>  -0.1600 
 16 C       -4.1540    -3.1850     0.5960 C.2   1 <1>   0.5690 
 17 O       -3.9230    -3.8550     1.5760 O.2   1 <1>  -0.5700 
 18 C       -5.3860    -3.5360    -0.2550 C.3   1 <1>  -0.0190 
 19 C       -6.5910    -3.9520     0.6070 C.3   1 <1>  -0.2400 
 20 C       -5.0670    -4.6550    -1.2620 C.3   1 <1>  -0.2400 
 21 H        1.6330     0.5020    -1.8420 H     1 <1>   0.3700 
 22 H        0.2000     0.8490    -0.9510 H     1 <1>   0.3700 
 23 H        0.3070    -3.6630    -1.0720 H     1 <1>   0.4500 
 24 H       -1.2650    -0.0850     0.2940 H     1 <1>   0.0800 
 25 H       -0.2870    -1.0170     1.3500 H     1 <1>   0.0800 
 26 H       -1.7570    -2.9280    -2.1610 H     1 <1>   0.0800 
 27 H       -1.5470    -1.2560    -2.4490 H     1 <1>   0.0800 
 28 H       -2.0200    -4.2970    -0.6010 H     1 <1>   0.0800 
 29 H       -1.6340    -4.1180     1.0880 H     1 <1>   0.0800 
 30 H        0.5180    -3.1120     1.7770 H     1 <1>   0.0800 
 31 H        1.6780    -2.6060     0.5650 H     1 <1>   0.0800 
 32 H       -2.8480    -0.8040     1.7770 H     1 <1>   0.0800 
 33 H       -2.1080    -2.3560     1.9920 H     1 <1>   0.0800 
 34 H       -3.8850    -2.0320    -1.8030 H     1 <1>   0.0800 
 35 H       -3.2800    -0.5670    -1.0970 H     1 <1>   0.0800 
 36 H       -0.2900    -5.9950    -0.8610 H     1 <1>   0.0800 
 37 H       -1.3780    -6.4370     0.4170 H     1 <1>   0.0800 
 38 H        2.3330    -4.7360     1.6110 H     1 <1>   0.0800 
 39 H        2.0790    -4.9040    -0.0960 H     1 <1>   0.0800 
 40 H        1.0280    -6.7970     1.0280 H     1 <1>   0.0800 
 41 H        0.1860    -5.7380     2.1220 H     1 <1>   0.0800 
 42 H       -5.6890    -2.6580    -0.7950 H     1 <1>   0.0800 
 43 H       -6.3730    -4.8520     1.1560 H     1 <1>   0.0800 
 44 H       -7.4560    -4.1270    -0.0090 H     1 <1>   0.0800 
 45 H       -6.8260    -3.1750     1.3130 H     1 <1>   0.0800 
 46 H       -4.7920    -5.5550    -0.7400 H     1 <1>   0.0800 
 47 H       -4.2550    -4.3710    -1.9060 H     1 <1>   0.0800 
 48 H       -5.9280    -4.8640    -1.8730 H     1 <1>   0.0800 
@<TRIPOS>BOND
  1   1   2  2   
  2   2   3  am  
  3   2   4  1   
  4   3  21  1   
  5   3  22  1   
  6   4   5  1   
  7   4   6  1   
  8   4   7  1   
  9   5   8  1   
 10   5   9  1   
 11   5  23  1   
 12   6  10  1   
 13   6  24  1   
 14   6  25  1   
 15   7  11  1   
 16   7  26  1   
 17   7  27  1   
 18   8  12  1   
 19   8  28  1   
 20   8  29  1   
 21   9  13  1   
 22   9  30  1   
 23   9  31  1   
 24  10  14  1   
 25  10  32  1   
 26  10  33  1   
 27  11  14  1   
 28  11  34  1   
 29  11  35  1   
 30  12  15  1   
 31  12  36  1   
 32  12  37  1   
 33  13  15  1   
 34  13  38  1   
 35  13  39  1   
 36  14  16  am  
 37  15  40  1   
 38  15  41  1   
 39  16  17  2   
 40  16  18  1   
 41  18  19  1   
 42  18  20  1   
 43  18  42  1   
 44  19  43  1   
 45  19  44  1   
 46  19  45  1   
 47  20  46  1   
 48  20  47  1   
 49  20  48  1   
@<TRIPOS>SUBSTRUCTURE
  1 ****   8 GROUP 4 **** **** 0

# MOE 2024.06 (io_trps.svl 2023.06)
