@<TRIPOS>MOLECULE
1-Pyridin-2-ylmethyl-piperidin-4-ylamine
33 34 1 0 0 
SMALL
USER_CHARGES


@<TRIPOS>ATOM
  1 N        1.8470    -0.3790     0.9720 N.ar  1 <1>  -0.6200 
  2 C        1.7330    -0.4070    -0.3550 C.ar  1 <1>   0.1660 
  3 C        1.1260    -1.2810     1.6260 C.ar  1 <1>   0.1600 
  4 C        0.9400    -1.3100    -1.0490 C.ar  1 <1>  -0.1500 
  5 C        2.5480     0.6330    -1.1240 C.3   1 <1>   0.4870 
  6 C        0.3080    -2.2190     1.0220 C.ar  1 <1>  -0.1500 
  7 C        0.2060    -2.2440    -0.3510 C.ar  1 <1>  -0.1500 
  8 N        3.7770     0.9600    -0.3240 N.4   1 <1>  -0.9590 
  9 C        4.2690     2.3420    -0.5530 C.3   1 <1>   0.3430 
 10 C        4.8040    -0.1080    -0.4500 C.3   1 <1>   0.3430 
 11 C        5.4150     2.6380     0.4180 C.3   1 <1>  -0.1600 
 12 C        5.9500     0.1740     0.5240 C.3   1 <1>  -0.1600 
 13 C        6.5190     1.5800     0.3170 C.3   1 <1>   0.4230 
 14 N        7.5550     1.8480     1.3360 N.4   1 <1>  -0.8530 
 15 H        1.1860    -1.2770     2.7030 H     1 <1>   0.1500 
 16 H        0.8810    -1.2940    -2.1240 H     1 <1>   0.1500 
 17 H        1.9380     1.5140    -1.2360 H     1 <1>   0.0800 
 18 H        2.8080     0.2630    -2.1020 H     1 <1>   0.0800 
 19 H       -0.2460    -2.9200     1.6230 H     1 <1>   0.1500 
 20 H       -0.4240    -2.9620    -0.8530 H     1 <1>   0.1500 
 21 H        3.3790     0.8750     0.6360 H     1 <1>   0.4500 
 22 H        3.4680     3.0490    -0.3940 H     1 <1>   0.0800 
 23 H        4.6110     2.4440    -1.5720 H     1 <1>   0.0800 
 24 H        5.1770    -0.1430    -1.4620 H     1 <1>   0.0800 
 25 H        4.3640    -1.0680    -0.2190 H     1 <1>   0.0800 
 26 H        5.0140     2.6760     1.4160 H     1 <1>   0.0800 
 27 H        5.8150     3.6080     0.1790 H     1 <1>   0.0800 
 28 H        6.7180    -0.5610     0.3600 H     1 <1>   0.0800 
 29 H        5.5790     0.0550     1.5280 H     1 <1>   0.0800 
 30 H        6.9640     1.6340    -0.6660 H     1 <1>   0.0800 
 31 H        7.1750     1.8070     2.2900 H     1 <1>   0.4500 
 32 H        7.9770     2.7770     1.2130 H     1 <1>   0.4500 
 33 H        8.3200     1.1630     1.2840 H     1 <1>   0.4500 
@<TRIPOS>BOND
  1   1   2  ar  
  2   1   3  ar  
  3   2   4  ar  
  4   2   5  1   
  5   3   6  ar  
  6   3  15  1   
  7   4   7  ar  
  8   4  16  1   
  9   5   8  1   
 10   5  17  1   
 11   5  18  1   
 12   6   7  ar  
 13   6  19  1   
 14   7  20  1   
 15   8   9  1   
 16   8  10  1   
 17   8  21  1   
 18   9  11  1   
 19   9  22  1   
 20   9  23  1   
 21  10  12  1   
 22  10  24  1   
 23  10  25  1   
 24  11  13  1   
 25  11  26  1   
 26  11  27  1   
 27  12  13  1   
 28  12  28  1   
 29  12  29  1   
 30  13  14  1   
 31  13  30  1   
 32  14  31  1   
 33  14  32  1   
 34  14  33  1   
@<TRIPOS>SUBSTRUCTURE
  1 ****   8 GROUP 4 **** **** 0

# MOE 2024.06 (io_trps.svl 2023.06)
