@<TRIPOS>MOLECULE
N-(2-{1-Methyl-5-[2-(4-methyl-1-oxo-1H-phthalazin-2-yl)-acetylamino]-1H-benzoimi
59 62 1 0 0 
SMALL
USER_CHARGES


@<TRIPOS>ATOM
  1 O        1.0940    -0.2010    -0.2310 O.2   1 <1>  -0.5700 
  2 C        0.9650    -1.4130    -0.3230 C.2   1 <1>   0.5440 
  3 N        1.6810    -2.1270    -1.2760 N.am  1 <1>  -0.2980 
  4 C        0.0750    -2.1430     0.5370 C.ar  1 <1>   0.0860 
  5 N        1.5920    -3.4910    -1.4320 N.2   1 <1>  -0.5120 
  6 C        2.6110    -1.4050    -2.2070 C.3   1 <1>   0.2010 
  7 C       -0.0190    -3.5340     0.3640 C.ar  1 <1>   0.0860 
  8 C       -0.6920    -1.5210     1.5270 C.ar  1 <1>  -0.1500 
  9 C        0.7900    -4.1390    -0.6630 C.2   1 <1>   0.3030 
 10 C        4.0790    -1.5660    -1.8280 C.2   1 <1>   0.5690 
 11 C       -0.8920    -4.2480     1.2000 C.ar  1 <1>  -0.1500 
 12 C       -1.5400    -2.2440     2.3350 C.ar  1 <1>  -0.1500 
 13 C        0.7200    -5.6420    -0.8750 C.3   1 <1>  -0.1790 
 14 O        4.8570    -0.7020    -2.1570 O.2   1 <1>  -0.5700 
 15 N        4.4440    -2.7070    -1.1690 N.am  1 <1>  -0.5470 
 16 C       -1.6400    -3.6160     2.1690 C.ar  1 <1>  -0.1500 
 17 C        5.6780    -3.1790    -0.6890 C.ar  1 <1>   0.1170 
 18 C        6.7970    -2.3790    -0.5450 C.ar  1 <1>  -0.1500 
 19 C        5.7580    -4.5360    -0.3310 C.ar  1 <1>  -0.1500 
 20 C        7.9800    -2.9240    -0.0540 C.ar  1 <1>   0.2270 
 21 C        6.9220    -5.0860     0.1550 C.ar  1 <1>  -0.1500 
 22 N        9.1820    -2.3230     0.1660 N.2   1 <1>  -0.5650 
 23 C        8.0410    -4.2610     0.2890 C.ar  1 <1>  -0.1520 
 24 C        9.9330    -3.2630     0.6210 C.2   1 <1>   0.0060 
 25 N        9.3130    -4.4740     0.7220 N.pl3 1 <1>   0.0480 
 26 C       11.3840    -3.0420     1.0010 C.3   1 <1>   0.0200 
 27 C        9.8550    -5.7650     1.1950 C.3   1 <1>   0.0160 
 28 C       12.2880    -3.4510    -0.1610 C.3   1 <1>   0.1400 
 29 N       13.6900    -3.5850     0.3010 N.am  1 <1>  -0.7300 
 30 C       14.1870    -4.6950     0.9020 C.2   1 <1>   0.5690 
 31 O       13.4900    -5.6470     1.1580 O.2   1 <1>  -0.5700 
 32 C       15.6580    -4.7250     1.2730 C.3   1 <1>  -0.0990 
 33 C       16.5760    -4.8580     0.0480 C.3   1 <1>  -0.2400 
 34 H        2.3770    -0.3560    -2.2370 H     1 <1>   0.0800 
 35 H        2.4760    -1.7950    -3.1980 H     1 <1>   0.0800 
 36 H       -0.6120    -0.4540     1.6540 H     1 <1>   0.1500 
 37 H       -0.9920    -5.3130     1.0950 H     1 <1>   0.1500 
 38 H       -2.1250    -1.7500     3.0940 H     1 <1>   0.1500 
 39 H       -0.2810    -5.9300    -1.1410 H     1 <1>   0.0800 
 40 H        1.0180    -6.1570     0.0190 H     1 <1>   0.0800 
 41 H        1.3770    -5.9400    -1.6730 H     1 <1>   0.0800 
 42 H        3.6440    -3.3320    -1.0240 H     1 <1>   0.3700 
 43 H       -2.3050    -4.1810     2.8010 H     1 <1>   0.1500 
 44 H        6.7890    -1.3370    -0.7960 H     1 <1>   0.1500 
 45 H        4.8860    -5.1530    -0.4460 H     1 <1>   0.1500 
 46 H        6.9780    -6.1250     0.4260 H     1 <1>   0.1500 
 47 H       11.6130    -3.6160     1.8800 H     1 <1>   0.0800 
 48 H       11.5370    -2.0010     1.2240 H     1 <1>   0.0800 
 49 H        9.5600    -5.9190     2.2160 H     1 <1>   0.0800 
 50 H       10.9260    -5.7660     1.1290 H     1 <1>   0.0800 
 51 H        9.4670    -6.5590     0.5840 H     1 <1>   0.0800 
 52 H       12.2240    -2.7230    -0.9510 H     1 <1>   0.0800 
 53 H       11.9620    -4.4000    -0.5550 H     1 <1>   0.0800 
 54 H       14.3070    -2.7940     0.1090 H     1 <1>   0.3700 
 55 H       15.8250    -5.5570     1.9330 H     1 <1>   0.0800 
 56 H       15.8980    -3.8270     1.8130 H     1 <1>   0.0800 
 57 H       16.3440    -5.7620    -0.4880 H     1 <1>   0.0800 
 58 H       17.6050    -4.8980     0.3590 H     1 <1>   0.0800 
 59 H       16.4480    -4.0220    -0.6160 H     1 <1>   0.0800 
@<TRIPOS>BOND
  1   1   2  2   
  2   2   3  am  
  3   2   4  1   
  4   3   5  1   
  5   3   6  1   
  6   4   7  ar  
  7   4   8  ar  
  8   5   9  2   
  9   6  10  1   
 10   6  34  1   
 11   6  35  1   
 12   7   9  1   
 13   7  11  ar  
 14   8  12  ar  
 15   8  36  1   
 16   9  13  1   
 17  10  14  2   
 18  10  15  am  
 19  11  16  ar  
 20  11  37  1   
 21  12  16  ar  
 22  12  38  1   
 23  13  39  1   
 24  13  40  1   
 25  13  41  1   
 26  15  17  1   
 27  15  42  1   
 28  16  43  1   
 29  17  18  ar  
 30  17  19  ar  
 31  18  20  ar  
 32  18  44  1   
 33  19  21  ar  
 34  19  45  1   
 35  20  22  1   
 36  20  23  ar  
 37  21  23  ar  
 38  21  46  1   
 39  22  24  2   
 40  23  25  1   
 41  24  25  1   
 42  24  26  1   
 43  25  27  1   
 44  26  28  1   
 45  26  47  1   
 46  26  48  1   
 47  27  49  1   
 48  27  50  1   
 49  27  51  1   
 50  28  29  1   
 51  28  52  1   
 52  28  53  1   
 53  29  30  am  
 54  29  54  1   
 55  30  31  2   
 56  30  32  1   
 57  32  33  1   
 58  32  55  1   
 59  32  56  1   
 60  33  57  1   
 61  33  58  1   
 62  33  59  1   
@<TRIPOS>SUBSTRUCTURE
  1 ****  17 GROUP 4 **** **** 0

# MOE 2024.06 (io_trps.svl 2023.06)
