@<TRIPOS>MOLECULE
1-(4-Chloro-benzyl)-pyrrolidine-2-carboxylic acid
30 31 1 0 0 
SMALL
USER_CHARGES


@<TRIPOS>ATOM
  1 CL      -0.2900    -0.0110    -0.6370 Cl    1 <1>  -0.1770 
  2 C        1.2510     0.7800    -0.4340 C.ar  1 <1>   0.1770 
  3 C        1.5590     1.3610     0.7810 C.ar  1 <1>  -0.1500 
  4 C        2.1400     0.8120    -1.4910 C.ar  1 <1>  -0.1500 
  5 C        2.7820     1.9910     0.9390 C.ar  1 <1>  -0.1500 
  6 C        3.3630     1.4430    -1.3290 C.ar  1 <1>  -0.1500 
  7 C        3.6850     2.0390    -0.1160 C.ar  1 <1>  -0.1430 
  8 C        5.0190     2.7430     0.0650 C.3   1 <1>   0.4870 
  9 N        4.9480     4.0700    -0.6090 N.4   1 <1>  -0.9590 
 10 C        6.2970     4.7670    -0.5860 C.3   1 <1>   0.3170 
 11 C        4.0520     4.9990     0.1120 C.3   1 <1>   0.3430 
 12 C        7.1350     4.5250     0.6990 C.2   1 <1>   0.9060 
 13 C        5.9380     6.2470    -0.7690 C.3   1 <1>  -0.1600 
 14 C        4.4550     6.3720    -0.4030 C.3   1 <1>  -0.1600 
 15 O        8.2900     4.1180     0.5730 O.co2 1 <1>  -0.9000 
 16 O        6.5670     4.6140     1.7970 O.co2 1 <1>  -0.9000 
 17 H        0.8500     1.3160     1.5890 H     1 <1>   0.1500 
 18 H        1.8740     0.3460    -2.4230 H     1 <1>   0.1500 
 19 H        3.0260     2.4400     1.8890 H     1 <1>   0.1500 
 20 H        4.0570     1.4600    -2.1530 H     1 <1>   0.1500 
 21 H        5.8080     2.1500    -0.3670 H     1 <1>   0.0800 
 22 H        5.2310     2.8690     1.1160 H     1 <1>   0.0800 
 23 H        4.6280     3.9580    -1.5720 H     1 <1>   0.4500 
 24 H        6.9040     4.4310    -1.4070 H     1 <1>   0.0800 
 25 H        4.2580     4.9430     1.1710 H     1 <1>   0.0800 
 26 H        3.0130     4.7800    -0.0700 H     1 <1>   0.0800 
 27 H        6.1080     6.5430    -1.7890 H     1 <1>   0.0800 
 28 H        6.5520     6.8620    -0.1310 H     1 <1>   0.0800 
 29 H        4.2940     7.1180     0.3550 H     1 <1>   0.0800 
 30 H        3.8700     6.6220    -1.2710 H     1 <1>   0.0800 
@<TRIPOS>BOND
  1   1   2  1   
  2   2   3  ar  
  3   2   4  ar  
  4   3   5  ar  
  5   3  17  1   
  6   4   6  ar  
  7   4  18  1   
  8   5   7  ar  
  9   5  19  1   
 10   6   7  ar  
 11   6  20  1   
 12   7   8  1   
 13   8   9  1   
 14   8  21  1   
 15   8  22  1   
 16   9  10  1   
 17   9  11  1   
 18   9  23  1   
 19  10  12  1   
 20  10  13  1   
 21  10  24  1   
 22  11  14  1   
 23  11  25  1   
 24  11  26  1   
 25  12  15  ar  
 26  12  16  ar  
 27  13  14  1   
 28  13  27  1   
 29  13  28  1   
 30  14  29  1   
 31  14  30  1   
@<TRIPOS>SUBSTRUCTURE
  1 ****   8 GROUP 4 **** **** 0

# MOE 2024.06 (io_trps.svl 2023.06)
