@<TRIPOS>MOLECULE
8-Cyclohexyl-1,6-dimethyl-3-(1-methyl-2-oxo-propyl)-5,6,7,8-tetrahydro-1H-1,3,4b
58 61 1 0 0 
SMALL
USER_CHARGES


@<TRIPOS>ATOM
  1 O        0.6850     0.8100     0.5370 O.2   1 <1>  -0.5740 
  2 C        1.7510     1.3400     0.2990 C.2   1 <1>   0.6870 
  3 N        1.7950     2.6540    -0.1640 N.am  1 <1>  -0.4250 
  4 N        2.9260     0.6210     0.4780 N.am  1 <1>  -0.4410 
  5 C        2.9940     3.2320    -0.5490 C.2   1 <1>   0.7000 
  6 C        0.6160     3.5520     0.0820 C.3   1 <1>   0.2760 
  7 C        4.1180     1.2290     0.1380 C.2   1 <1>   0.4210 
  8 C        2.8990    -0.7630     1.0370 C.3   1 <1>   0.0530 
  9 O        3.0260     4.3460    -1.0460 O.2   1 <1>  -0.5740 
 10 C        4.1970     2.4790    -0.3630 C.2   1 <1>   0.2710 
 11 C        0.2540     3.5420     1.5780 C.2   1 <1>   0.4430 
 12 C       -0.5160     3.2300    -0.9120 C.3   1 <1>  -0.2460 
 13 N        5.3780     0.7180     0.2300 N.pl3 1 <1>  -0.7030 
 14 N        5.5620     2.7220    -0.5850 N.pl3 1 <1>  -0.7670 
 15 O        1.1190     3.6410     2.4000 O.2   1 <1>  -0.5740 
 16 C       -1.1950     3.4070     2.0050 C.3   1 <1>  -0.1850 
 17 C        6.2360     1.6410    -0.2050 C.cat 1 <1>   1.0690 
 18 C        6.1750     3.9560    -1.1150 C.3   1 <1>   0.3490 
 19 N        7.5790     1.5580    -0.2680 N.pl3 1 <1>  -0.5960 
 20 C        7.5460     3.6120    -1.7160 C.3   1 <1>  -0.0870 
 21 C        8.4010     0.4070     0.2040 C.3   1 <1>   0.2420 
 22 C        8.3730     2.7210    -0.7690 C.3   1 <1>   0.1610 
 23 C        8.3250     4.8880    -2.0720 C.3   1 <1>  -0.2460 
 24 C        8.1160    -0.8560    -0.6230 C.3   1 <1>  -0.1660 
 25 C        8.2270     0.1760     1.7140 C.3   1 <1>  -0.1660 
 26 C        8.9690    -2.0340    -0.1320 C.3   1 <1>  -0.1660 
 27 C        9.0800    -1.0100     2.1850 C.3   1 <1>  -0.1660 
 28 C        8.7750    -2.2740     1.3710 C.3   1 <1>  -0.1660 
 29 H        0.9010     4.5700    -0.1200 H     1 <1>   0.0730 
 30 H        1.9990    -0.9230     1.6080 H     1 <1>   0.0730 
 31 H        3.7370    -0.9210     1.6910 H     1 <1>   0.0730 
 32 H        2.9270    -1.4790     0.2350 H     1 <1>   0.0730 
 33 H       -0.9400     2.2590    -0.7320 H     1 <1>   0.0730 
 34 H       -0.1420     3.2690    -1.9200 H     1 <1>   0.0730 
 35 H       -1.3000     3.9600    -0.8240 H     1 <1>   0.0730 
 36 H        5.6570    -0.1960     0.5740 H     1 <1>   0.4450 
 37 H       -1.5880     2.4620     1.6770 H     1 <1>   0.0730 
 38 H       -1.7820     4.2070     1.5950 H     1 <1>   0.0730 
 39 H       -1.2600     3.4480     3.0780 H     1 <1>   0.0730 
 40 H        6.2840     4.6680    -0.3130 H     1 <1>   0.0730 
 41 H        5.5410     4.3900    -1.8720 H     1 <1>   0.0730 
 42 H        7.3830     3.0690    -2.6320 H     1 <1>   0.0730 
 43 H        9.4410     0.6470     0.0500 H     1 <1>   0.0730 
 44 H        9.2410     2.3680    -1.3010 H     1 <1>   0.0730 
 45 H        8.7110     3.2970     0.0770 H     1 <1>   0.0730 
 46 H        8.5260     5.4780    -1.1930 H     1 <1>   0.0730 
 47 H        7.7640     5.4900    -2.7660 H     1 <1>   0.0730 
 48 H        9.2650     4.6380    -2.5350 H     1 <1>   0.0730 
 49 H        8.3490    -0.6690    -1.6570 H     1 <1>   0.0730 
 50 H        7.0850    -1.1450    -0.5550 H     1 <1>   0.0730 
 51 H        7.2050    -0.0350     1.9640 H     1 <1>   0.0730 
 52 H        8.5340     1.0560     2.2510 H     1 <1>   0.0730 
 53 H       10.0090    -1.8310    -0.3250 H     1 <1>   0.0730 
 54 H        8.7060    -2.9260    -0.6750 H     1 <1>   0.0730 
 55 H        8.8940    -1.2000     3.2280 H     1 <1>   0.0730 
 56 H       10.1250    -0.7670     2.0810 H     1 <1>   0.0730 
 57 H        9.4270    -3.0690     1.6910 H     1 <1>   0.0730 
 58 H        7.7630    -2.5900     1.5590 H     1 <1>   0.0730 
@<TRIPOS>BOND
  1   1   2  2   
  2   2   3  am  
  3   2   4  am  
  4   3   5  am  
  5   3   6  1   
  6   4   7  1   
  7   4   8  1   
  8   5   9  2   
  9   5  10  1   
 10   6  11  1   
 11   6  12  1   
 12   6  29  1   
 13   7  10  2   
 14   7  13  1   
 15   8  30  1   
 16   8  31  1   
 17   8  32  1   
 18  10  14  1   
 19  11  15  2   
 20  11  16  1   
 21  12  33  1   
 22  12  34  1   
 23  12  35  1   
 24  13  17  ar  
 25  13  36  1   
 26  14  17  ar  
 27  14  18  1   
 28  16  37  1   
 29  16  38  1   
 30  16  39  1   
 31  17  19  ar  
 32  18  20  1   
 33  18  40  1   
 34  18  41  1   
 35  19  21  1   
 36  19  22  1   
 37  20  22  1   
 38  20  23  1   
 39  20  42  1   
 40  21  24  1   
 41  21  25  1   
 42  21  43  1   
 43  22  44  1   
 44  22  45  1   
 45  23  46  1   
 46  23  47  1   
 47  23  48  1   
 48  24  26  1   
 49  24  49  1   
 50  24  50  1   
 51  25  27  1   
 52  25  51  1   
 53  25  52  1   
 54  26  28  1   
 55  26  53  1   
 56  26  54  1   
 57  27  28  1   
 58  27  55  1   
 59  27  56  1   
 60  28  57  1   
 61  28  58  1   
@<TRIPOS>SUBSTRUCTURE
  1 ****   7 GROUP 4 **** **** 0

# MOE 2024.06 (io_trps.svl 2023.06)
