@<TRIPOS>MOLECULE
4-(3-Fluoro-phenoxy)-piperidine
29 30 1 0 0 
SMALL
USER_CHARGES


@<TRIPOS>ATOM
  1 F       -0.7830     2.6210     1.5830 F     1 <1>  -0.1900 
  2 C       -1.6030     2.0700     0.7290 C.ar  1 <1>   0.1900 
  3 C       -2.5410     1.1690     1.1930 C.ar  1 <1>  -0.1500 
  4 C       -1.4980     2.4090    -0.6060 C.ar  1 <1>  -0.1500 
  5 C       -3.4090     0.5800     0.2880 C.ar  1 <1>   0.0820 
  6 C       -2.3710     1.8230    -1.5080 C.ar  1 <1>  -0.1500 
  7 O       -4.3040    -0.3030     0.8000 O.3   1 <1>  -0.3630 
  8 C       -3.3230     0.9150    -1.0650 C.ar  1 <1>  -0.1500 
  9 C       -5.0690    -1.1790     0.0100 C.3   1 <1>   0.2000 
 10 C       -6.1860    -1.7160     0.9070 C.3   1 <1>  -0.1600 
 11 C       -4.1640    -2.3150    -0.4840 C.3   1 <1>  -0.1600 
 12 C       -6.9650    -2.8340     0.2190 C.3   1 <1>   0.3430 
 13 C       -4.9750    -3.4270    -1.1440 C.3   1 <1>   0.3430 
 14 N       -6.0240    -3.9070    -0.2030 N.4   1 <1>  -0.9060 
 15 H       -2.5940     0.9320     2.2380 H     1 <1>   0.1500 
 16 H       -0.7530     3.1150    -0.9270 H     1 <1>   0.1500 
 17 H       -2.3090     2.0780    -2.5530 H     1 <1>   0.1500 
 18 H       -3.9850     0.4900    -1.7930 H     1 <1>   0.1500 
 19 H       -5.5030    -0.6280    -0.8070 H     1 <1>   0.0800 
 20 H       -6.8620    -0.9140     1.1460 H     1 <1>   0.0800 
 21 H       -5.7720    -2.0860     1.8290 H     1 <1>   0.0800 
 22 H       -3.6070    -2.7230     0.3420 H     1 <1>   0.0800 
 23 H       -3.4580    -1.9320    -1.2000 H     1 <1>   0.0800 
 24 H       -7.4790    -2.4370    -0.6430 H     1 <1>   0.0800 
 25 H       -7.7030    -3.2310     0.8990 H     1 <1>   0.0800 
 26 H       -4.3200    -4.2400    -1.4150 H     1 <1>   0.0800 
 27 H       -5.4360    -3.0520    -2.0440 H     1 <1>   0.0800 
 28 H       -6.5500    -4.6810    -0.6320 H     1 <1>   0.4500 
 29 H       -5.5660    -4.2920     0.6340 H     1 <1>   0.4500 
@<TRIPOS>BOND
  1   1   2  1   
  2   2   3  ar  
  3   2   4  ar  
  4   3   5  ar  
  5   3  15  1   
  6   4   6  ar  
  7   4  16  1   
  8   5   7  1   
  9   5   8  ar  
 10   6   8  ar  
 11   6  17  1   
 12   7   9  1   
 13   8  18  1   
 14   9  10  1   
 15   9  11  1   
 16   9  19  1   
 17  10  12  1   
 18  10  20  1   
 19  10  21  1   
 20  11  13  1   
 21  11  22  1   
 22  11  23  1   
 23  12  14  1   
 24  12  24  1   
 25  12  25  1   
 26  13  14  1   
 27  13  26  1   
 28  13  27  1   
 29  14  28  1   
 30  14  29  1   
@<TRIPOS>SUBSTRUCTURE
  1 ****   7 GROUP 4 **** **** 0

# MOE 2024.06 (io_trps.svl 2023.06)
