@<TRIPOS>MOLECULE
4-[2-(3-Ethyl-5-hydroxy-5-trifluoromethyl-4,5-dihydro-pyrazol-1-yl)-2-oxo-ethoxy
38 39 1 0 0 
SMALL
USER_CHARGES


@<TRIPOS>ATOM
  1 F       -0.2330    -1.9100    -1.8270 F     1 <1>  -0.3400 
  2 C        0.3570    -2.4390    -0.7560 C.3   1 <1>   1.0200 
  3 F        1.1180    -3.4270    -1.2140 F     1 <1>  -0.3400 
  4 F        1.2060    -1.5070    -0.3270 F     1 <1>  -0.3400 
  5 C       -0.6830    -2.8660     0.3630 C.3   1 <1>   0.5800 
  6 O       -0.1120    -3.5440     1.4470 O.3   1 <1>  -0.6800 
  7 N       -1.7930    -3.7310    -0.1360 N.am  1 <1>  -0.2980 
  8 C       -1.4480    -1.6550     0.9270 C.3   1 <1>  -0.0990 
  9 N       -3.0070    -3.0790    -0.0580 N.2   1 <1>  -0.5120 
 10 C       -1.6090    -5.0520    -0.4850 C.2   1 <1>   0.5690 
 11 C       -2.8630    -1.9680     0.5150 C.2   1 <1>   0.3280 
 12 O       -0.5230    -5.5820    -0.4130 O.2   1 <1>  -0.5700 
 13 C       -2.8000    -5.8700    -0.9660 C.3   1 <1>   0.1810 
 14 C       -3.9500    -0.9450     0.8200 C.3   1 <1>  -0.0990 
 15 O       -3.4790    -6.4480     0.1370 O.3   1 <1>  -0.3630 
 16 C       -5.3510    -1.3810     0.3640 C.3   1 <1>  -0.2400 
 17 C       -4.6640    -7.0810    -0.0150 C.ar  1 <1>   0.0830 
 18 C       -5.3190    -7.4620     1.1440 C.ar  1 <1>  -0.1500 
 19 C       -5.2450    -7.3560    -1.2490 C.ar  1 <1>  -0.1500 
 20 C       -6.5420    -8.1050     1.0790 C.ar  1 <1>  -0.1500 
 21 C       -6.4690    -7.9990    -1.3080 C.ar  1 <1>  -0.1500 
 22 C       -7.1360    -8.3820    -0.1480 C.ar  1 <1>   0.0730 
 23 C       -8.4050    -9.0460    -0.2160 C.1   1 <1>   0.4840 
 24 N       -9.4150    -9.5740    -0.2740 N.1   1 <1>  -0.5570 
 25 H        0.0920    -4.4590     1.1420 H     1 <1>   0.4000 
 26 H       -1.1330    -0.7290     0.4840 H     1 <1>   0.0800 
 27 H       -1.3700    -1.5920     1.9970 H     1 <1>   0.0800 
 28 H       -2.4600    -6.6640    -1.6040 H     1 <1>   0.0800 
 29 H       -3.4870    -5.2370    -1.4970 H     1 <1>   0.0800 
 30 H       -3.6990    -0.0190     0.3360 H     1 <1>   0.0800 
 31 H       -3.9690    -0.7720     1.8820 H     1 <1>   0.0800 
 32 H       -5.3650    -1.5390    -0.7010 H     1 <1>   0.0800 
 33 H       -6.0750    -0.6250     0.6100 H     1 <1>   0.0800 
 34 H       -5.6330    -2.2990     0.8500 H     1 <1>   0.0800 
 35 H       -4.8630    -7.2490     2.0940 H     1 <1>   0.1500 
 36 H       -4.7630    -7.0800    -2.1680 H     1 <1>   0.1500 
 37 H       -7.0370    -8.3930     1.9900 H     1 <1>   0.1500 
 38 H       -6.9130    -8.2070    -2.2670 H     1 <1>   0.1500 
@<TRIPOS>BOND
  1   1   2  1   
  2   2   3  1   
  3   2   4  1   
  4   2   5  1   
  5   5   6  1   
  6   5   7  1   
  7   5   8  1   
  8   6  25  1   
  9   7   9  1   
 10   7  10  am  
 11   8  11  1   
 12   8  26  1   
 13   8  27  1   
 14   9  11  2   
 15  10  12  2   
 16  10  13  1   
 17  11  14  1   
 18  13  15  1   
 19  13  28  1   
 20  13  29  1   
 21  14  16  1   
 22  14  30  1   
 23  14  31  1   
 24  15  17  1   
 25  16  32  1   
 26  16  33  1   
 27  16  34  1   
 28  17  18  ar  
 29  17  19  ar  
 30  18  20  ar  
 31  18  35  1   
 32  19  21  ar  
 33  19  36  1   
 34  20  22  ar  
 35  20  37  1   
 36  21  22  ar  
 37  21  38  1   
 38  22  23  1   
 39  23  24  3   
@<TRIPOS>SUBSTRUCTURE
  1 ****  13 GROUP 4 **** **** 0

# MOE 2024.06 (io_trps.svl 2023.06)
