@<TRIPOS>MOLECULE
1-Amino-5-morpholin-4-yl-6,7,8,9-tetrahydro-thieno[2,3-c]isoquinoline-2-carboxyl
56 60 1 0 0 
SMALL
USER_CHARGES


@<TRIPOS>ATOM
  1 S       -0.1700    -0.9370    -1.1500 S.3   1 <1>  -0.0800 
  2 C       -1.4250     0.1270    -0.5300 C.ar  1 <1>   0.2970 
  3 C        1.1380     0.1360    -0.5930 C.2   1 <1>  -0.0450 
  4 N       -2.6890    -0.2000    -0.6740 N.ar  1 <1>  -0.5670 
  5 C       -0.8630     1.2530     0.0610 C.ar  1 <1>   0.0000 
  6 C        0.5860     1.2100     0.0510 C.2   1 <1>   0.0830 
  7 C        2.4840    -0.2640    -0.8580 C.2   1 <1>   0.7150 
  8 C       -3.5250     0.6960    -0.1750 C.ar  1 <1>   0.4100 
  9 C       -1.7710     2.2040     0.5470 C.ar  1 <1>  -0.1430 
 10 N        1.3560     2.1630     0.6940 N.pl3 1 <1>  -0.8830 
 11 O        2.7620    -1.4290    -1.0980 O.2   1 <1>  -0.5700 
 12 N        3.5230     0.6580    -0.8410 N.am  1 <1>  -0.4770 
 13 N       -4.8630     0.3960    -0.3140 N.pl3 1 <1>  -0.8380 
 14 C       -3.1180     1.8950     0.4410 C.ar  1 <1>  -0.1430 
 15 C       -1.2990     3.5220     1.1620 C.3   1 <1>  -0.0170 
 16 C        4.6960     0.4740    -0.0800 C.ar  1 <1>   0.1170 
 17 C        3.4140     1.8460    -1.7340 C.3   1 <1>   0.0600 
 18 C       -5.3320    -0.9000     0.2530 C.3   1 <1>   0.2090 
 19 C       -5.4510     0.6350    -1.6600 C.3   1 <1>   0.2090 
 20 C       -4.2000     2.8420     0.9710 C.3   1 <1>  -0.0170 
 21 C       -2.4130     4.5620     1.3110 C.3   1 <1>  -0.1600 
 22 C        4.6430    -0.1890     1.1450 C.ar  1 <1>  -0.1500 
 23 C        5.9330     0.9540    -0.5080 C.ar  1 <1>  -0.1500 
 24 C       -6.8680    -0.9850     0.2120 C.3   1 <1>   0.1200 
 25 C       -6.9820     0.4830    -1.6180 C.3   1 <1>   0.1200 
 26 C       -3.6590     3.9170     1.9150 C.3   1 <1>  -0.1600 
 27 C        5.7760    -0.3530     1.9200 C.ar  1 <1>  -0.1500 
 28 C        7.0680     0.7920     0.2650 C.ar  1 <1>  -0.1500 
 29 O       -7.3560    -0.7590    -1.0840 O.3   1 <1>  -0.5600 
 30 C        6.9920     0.1400     1.4820 C.ar  1 <1>  -0.1500 
 31 H        0.9310     2.7250     1.4370 H     1 <1>   0.4000 
 32 H        2.3570     1.9800     0.8400 H     1 <1>   0.4000 
 33 H       -0.5310     3.9530     0.5440 H     1 <1>   0.0800 
 34 H       -0.8850     3.3140     2.1320 H     1 <1>   0.0800 
 35 H        2.3900     2.0240    -2.0120 H     1 <1>   0.0800 
 36 H        3.9880     1.6770    -2.6280 H     1 <1>   0.0800 
 37 H        3.7890     2.7180    -1.2280 H     1 <1>   0.0800 
 38 H       -4.9880    -0.9910     1.2680 H     1 <1>   0.0800 
 39 H       -4.9150    -1.7150    -0.3150 H     1 <1>   0.0800 
 40 H       -5.0400    -0.0720    -2.3600 H     1 <1>   0.0800 
 41 H       -5.1930     1.6250    -1.9930 H     1 <1>   0.0800 
 42 H       -4.9530     2.2780     1.4940 H     1 <1>   0.0800 
 43 H       -4.6730     3.3140     0.1280 H     1 <1>   0.0800 
 44 H       -2.6550     4.9680     0.3440 H     1 <1>   0.0800 
 45 H       -2.0740     5.3690     1.9370 H     1 <1>   0.0800 
 46 H        3.7080    -0.5850     1.4990 H     1 <1>   0.1500 
 47 H        6.0210     1.4510    -1.4550 H     1 <1>   0.1500 
 48 H       -7.2990    -0.2530     0.8730 H     1 <1>   0.0800 
 49 H       -7.1930    -1.9630     0.5190 H     1 <1>   0.0800 
 50 H       -7.3880     0.5480    -2.6110 H     1 <1>   0.0800 
 51 H       -7.4170     1.2600    -1.0130 H     1 <1>   0.0800 
 52 H       -3.4100     3.4690     2.8620 H     1 <1>   0.0800 
 53 H       -4.4170     4.6620     2.0850 H     1 <1>   0.0800 
 54 H        5.7140    -0.8690     2.8630 H     1 <1>   0.1500 
 55 H        8.0150     1.1700    -0.0810 H     1 <1>   0.1500 
 56 H        7.8750     0.0120     2.0840 H     1 <1>   0.1500 
@<TRIPOS>BOND
  1   1   2  1   
  2   1   3  1   
  3   2   4  ar  
  4   2   5  ar  
  5   3   6  2   
  6   3   7  1   
  7   4   8  ar  
  8   5   6  1   
  9   5   9  ar  
 10   6  10  1   
 11   7  11  2   
 12   7  12  am  
 13   8  13  1   
 14   8  14  ar  
 15   9  14  ar  
 16   9  15  1   
 17  10  31  1   
 18  10  32  1   
 19  12  16  1   
 20  12  17  1   
 21  13  18  1   
 22  13  19  1   
 23  14  20  1   
 24  15  21  1   
 25  15  33  1   
 26  15  34  1   
 27  16  22  ar  
 28  16  23  ar  
 29  17  35  1   
 30  17  36  1   
 31  17  37  1   
 32  18  24  1   
 33  18  38  1   
 34  18  39  1   
 35  19  25  1   
 36  19  40  1   
 37  19  41  1   
 38  20  26  1   
 39  20  42  1   
 40  20  43  1   
 41  21  26  1   
 42  21  44  1   
 43  21  45  1   
 44  22  27  ar  
 45  22  46  1   
 46  23  28  ar  
 47  23  47  1   
 48  24  29  1   
 49  24  48  1   
 50  24  49  1   
 51  25  29  1   
 52  25  50  1   
 53  25  51  1   
 54  26  52  1   
 55  26  53  1   
 56  27  30  ar  
 57  27  54  1   
 58  28  30  ar  
 59  28  55  1   
 60  30  56  1   
@<TRIPOS>SUBSTRUCTURE
  1 ****   5 GROUP 4 **** **** 0

# MOE 2024.06 (io_trps.svl 2023.06)
