@<TRIPOS>MOLECULE
8,8-Dimethyl-2-(2-morpholin-4-yl-2-oxo-ethyl)-8,9-dihydro-2H,6H-7-oxa-11-thia-2,
51 55 1 0 0 
SMALL
USER_CHARGES


@<TRIPOS>ATOM
  1 S        0.5940    -0.2350     0.5750 S.3   1 <1>  -0.0800 
  2 C       -0.3960     1.1930     0.2430 C.ar  1 <1>   0.2970 
  3 C        1.8920     0.3560    -0.4730 C.2   1 <1>  -0.0450 
  4 N       -1.5920     1.3550     0.7800 N.ar  1 <1>  -0.5670 
  5 C        0.2740     2.0470    -0.6250 C.ar  1 <1>   0.0000 
  6 C        3.1200    -0.2790    -0.7490 C.2   1 <1>   0.7150 
  7 C        1.5660     1.5530    -1.0150 C.2   1 <1>   0.1250 
  8 C       -2.1830     2.4830     0.4170 C.ar  1 <1>   0.1660 
  9 C       -0.3740     3.2170    -0.9830 C.ar  1 <1>  -0.1500 
 10 O        3.4610    -1.3500    -0.2630 O.2   1 <1>  -0.5700 
 11 N        3.9470     0.3940    -1.6190 N.am  1 <1>  -0.4200 
 12 N        2.4340     2.2020    -1.8580 N.2   1 <1>  -0.5750 
 13 C       -1.6270     3.4320    -0.4450 C.ar  1 <1>  -0.1430 
 14 C       -3.5660     2.7200     0.9860 C.3   1 <1>  -0.0170 
 15 C        3.5560     1.6210    -2.1150 C.2   1 <1>   0.4500 
 16 C        5.2880    -0.1480    -1.9930 C.3   1 <1>   0.2010 
 17 C       -2.3800     4.7120    -0.7870 C.3   1 <1>   0.2640 
 18 C       -3.9810     4.1980     0.9180 C.3   1 <1>   0.2800 
 19 C        6.4110     0.6040    -1.2820 C.2   1 <1>   0.5690 
 20 O       -3.7140     4.6770    -0.3640 O.3   1 <1>  -0.5600 
 21 C       -5.4930     4.3380     1.1020 C.3   1 <1>  -0.2400 
 22 C       -3.2630     5.0660     1.9650 C.3   1 <1>  -0.2400 
 23 O        6.7930     1.6170    -1.8210 O.2   1 <1>  -0.5700 
 24 N        6.9470     0.1820    -0.0900 N.am  1 <1>  -0.6600 
 25 C        7.8960     1.0410     0.6820 C.3   1 <1>   0.1400 
 26 C        6.5670    -1.0450     0.6790 C.3   1 <1>   0.1400 
 27 C        7.3320     1.3230     2.0860 C.3   1 <1>   0.1200 
 28 C        6.0540    -0.6540     2.0740 C.3   1 <1>   0.1200 
 29 O        7.0050     0.1280     2.7410 O.3   1 <1>  -0.5600 
 30 H        0.1020     3.9140    -1.6510 H     1 <1>   0.1500 
 31 H       -3.5990     2.3850     2.0070 H     1 <1>   0.0800 
 32 H       -4.2610     2.1220     0.4260 H     1 <1>   0.0800 
 33 H        4.2560     2.1150    -2.7670 H     1 <1>   0.0600 
 34 H        5.4240    -0.0220    -3.0520 H     1 <1>   0.0800 
 35 H        5.3480    -1.2010    -1.7950 H     1 <1>   0.0800 
 36 H       -2.3890     4.8600    -1.8520 H     1 <1>   0.0800 
 37 H       -1.9030     5.5610    -0.3300 H     1 <1>   0.0800 
 38 H       -6.0140     3.7840     0.3420 H     1 <1>   0.0800 
 39 H       -5.7800     5.3720     1.0350 H     1 <1>   0.0800 
 40 H       -5.7900     3.9620     2.0640 H     1 <1>   0.0800 
 41 H       -2.1980     4.9290     1.9310 H     1 <1>   0.0800 
 42 H       -3.5900     4.7900     2.9510 H     1 <1>   0.0800 
 43 H       -3.4970     6.1040     1.8110 H     1 <1>   0.0800 
 44 H        8.0680     1.9750     0.1760 H     1 <1>   0.0800 
 45 H        8.8410     0.5360     0.7730 H     1 <1>   0.0800 
 46 H        7.4360    -1.6690     0.7940 H     1 <1>   0.0800 
 47 H        5.8220    -1.6230     0.1730 H     1 <1>   0.0800 
 48 H        6.4480     1.9340     2.0220 H     1 <1>   0.0800 
 49 H        8.0640     1.8360     2.6840 H     1 <1>   0.0800 
 50 H        5.8780    -1.5350     2.6650 H     1 <1>   0.0800 
 51 H        5.1340    -0.0990     2.0000 H     1 <1>   0.0800 
@<TRIPOS>BOND
  1   1   2  1   
  2   1   3  1   
  3   2   4  ar  
  4   2   5  ar  
  5   3   6  1   
  6   3   7  2   
  7   4   8  ar  
  8   5   7  1   
  9   5   9  ar  
 10   6  10  2   
 11   6  11  am  
 12   7  12  1   
 13   8  13  ar  
 14   8  14  1   
 15   9  13  ar  
 16   9  30  1   
 17  11  15  1   
 18  11  16  1   
 19  12  15  2   
 20  13  17  1   
 21  14  18  1   
 22  14  31  1   
 23  14  32  1   
 24  15  33  1   
 25  16  19  1   
 26  16  34  1   
 27  16  35  1   
 28  17  20  1   
 29  17  36  1   
 30  17  37  1   
 31  18  20  1   
 32  18  21  1   
 33  18  22  1   
 34  19  23  2   
 35  19  24  am  
 36  21  38  1   
 37  21  39  1   
 38  21  40  1   
 39  22  41  1   
 40  22  42  1   
 41  22  43  1   
 42  24  25  1   
 43  24  26  1   
 44  25  27  1   
 45  25  44  1   
 46  25  45  1   
 47  26  28  1   
 48  26  46  1   
 49  26  47  1   
 50  27  29  1   
 51  27  48  1   
 52  27  49  1   
 53  28  29  1   
 54  28  50  1   
 55  28  51  1   
@<TRIPOS>SUBSTRUCTURE
  1 ****   7 GROUP 4 **** **** 0

# MOE 2024.06 (io_trps.svl 2023.06)
