@<TRIPOS>MOLECULE
8-Cyclohexyl-3-(2-methoxy-ethyl)-1,6-dimethyl-5,6,7,8-tetrahydro-1H-1,3,4b,8,9-p
57 60 1 0 0 
SMALL
USER_CHARGES


@<TRIPOS>ATOM
  1 O        0.8370     0.5670    -0.0920 O.2   1 <1>  -0.5740 
  2 C        1.8840     1.1420     0.1240 C.2   1 <1>   0.6870 
  3 N        1.8750     2.4510     0.5930 N.am  1 <1>  -0.4250 
  4 N        3.0900     0.4910    -0.1070 N.am  1 <1>  -0.4410 
  5 C        3.0570     3.1490     0.7990 C.2   1 <1>   0.7000 
  6 C        0.5650     3.1150     0.8850 C.3   1 <1>   0.1340 
  7 C        4.2590     1.1830     0.1420 C.2   1 <1>   0.4210 
  8 C        3.1220    -0.9210    -0.5950 C.3   1 <1>   0.0530 
  9 O        3.0470     4.3150     1.1550 O.2   1 <1>  -0.5740 
 10 C        4.2900     2.4610     0.5720 C.2   1 <1>   0.2710 
 11 C       -0.0140     3.7520    -0.3780 C.3   1 <1>   0.1140 
 12 N        5.5410     0.7390     0.0080 N.pl3 1 <1>  -0.7030 
 13 N        5.6480     2.7960     0.6930 N.pl3 1 <1>  -0.7670 
 14 O       -1.1860     4.4100    -0.0280 O.3   1 <1>  -0.5640 
 15 C        6.3640     1.7300     0.3490 C.cat 1 <1>   1.0690 
 16 C        6.2130     4.0890     1.1300 C.3   1 <1>   0.3490 
 17 C       -1.8370     5.0100    -1.1000 C.3   1 <1>   0.0330 
 18 N        7.7110     1.7180     0.3710 N.pl3 1 <1>  -0.5960 
 19 C        7.6400     4.2220     0.5770 C.3   1 <1>  -0.0870 
 20 C        8.5750     0.5420     0.0630 C.3   1 <1>   0.2420 
 21 C        8.4590     2.9370     0.8060 C.3   1 <1>   0.1610 
 22 C        8.3560     5.4340     1.1920 C.3   1 <1>  -0.2460 
 23 C        8.4250     0.1140    -1.4060 C.3   1 <1>  -0.1660 
 24 C        8.3200    -0.6150     1.0430 C.3   1 <1>  -0.1660 
 25 C        9.3220    -1.0930    -1.7140 C.3   1 <1>  -0.1660 
 26 C        9.2190    -1.8140     0.7140 C.3   1 <1>  -0.1660 
 27 C        9.0510    -2.2520    -0.7470 C.3   1 <1>  -0.1660 
 28 H        0.6940     3.8760     1.6360 H     1 <1>   0.0730 
 29 H       -0.1340     2.3900     1.2670 H     1 <1>   0.0730 
 30 H        2.1790    -1.1940    -1.0390 H     1 <1>   0.0730 
 31 H        3.3170    -1.5850     0.2290 H     1 <1>   0.0730 
 32 H        3.8870    -1.0400    -1.3420 H     1 <1>   0.0730 
 33 H       -0.2510     2.9950    -1.1060 H     1 <1>   0.0730 
 34 H        0.6700     4.4750    -0.7870 H     1 <1>   0.0730 
 35 H        5.8570    -0.1800    -0.2890 H     1 <1>   0.4450 
 36 H        6.2230     4.1230     2.2070 H     1 <1>   0.0730 
 37 H        5.6030     4.9020     0.7700 H     1 <1>   0.0730 
 38 H       -2.7260     5.4880    -0.7270 H     1 <1>   0.0730 
 39 H       -2.1060     4.2560    -1.8200 H     1 <1>   0.0730 
 40 H       -1.1890     5.7460    -1.5440 H     1 <1>   0.0730 
 41 H        7.5730     4.3930    -0.4850 H     1 <1>   0.0730 
 42 H        9.6050     0.8330     0.1960 H     1 <1>   0.0730 
 43 H        9.3810     3.0150     0.2530 H     1 <1>   0.0730 
 44 H        8.7040     2.8380     1.8510 H     1 <1>   0.0730 
 45 H        8.4600     5.3240     2.2580 H     1 <1>   0.0730 
 46 H        7.8040     6.3380     0.9950 H     1 <1>   0.0730 
 47 H        9.3380     5.5470     0.7640 H     1 <1>   0.0730 
 48 H        8.7100     0.9290    -2.0490 H     1 <1>   0.0730 
 49 H        7.4140    -0.1610    -1.6330 H     1 <1>   0.0730 
 50 H        7.3010    -0.9470     1.0020 H     1 <1>   0.0730 
 51 H        8.5320    -0.2900     2.0470 H     1 <1>   0.0730 
 52 H       10.3570    -0.8020    -1.6360 H     1 <1>   0.0730 
 53 H        9.1540    -1.4220    -2.7260 H     1 <1>   0.0730 
 54 H        8.9800    -2.6370     1.3660 H     1 <1>   0.0730 
 55 H       10.2490    -1.5510     0.8880 H     1 <1>   0.0730 
 56 H        9.7350    -3.0580    -0.9570 H     1 <1>   0.0730 
 57 H        8.0530    -2.6260    -0.9000 H     1 <1>   0.0730 
@<TRIPOS>BOND
  1   1   2  2   
  2   2   3  am  
  3   2   4  am  
  4   3   5  am  
  5   3   6  1   
  6   4   7  1   
  7   4   8  1   
  8   5   9  2   
  9   5  10  1   
 10   6  11  1   
 11   6  28  1   
 12   6  29  1   
 13   7  10  2   
 14   7  12  1   
 15   8  30  1   
 16   8  31  1   
 17   8  32  1   
 18  10  13  1   
 19  11  14  1   
 20  11  33  1   
 21  11  34  1   
 22  12  15  ar  
 23  12  35  1   
 24  13  15  ar  
 25  13  16  1   
 26  14  17  1   
 27  15  18  ar  
 28  16  19  1   
 29  16  36  1   
 30  16  37  1   
 31  17  38  1   
 32  17  39  1   
 33  17  40  1   
 34  18  20  1   
 35  18  21  1   
 36  19  21  1   
 37  19  22  1   
 38  19  41  1   
 39  20  23  1   
 40  20  24  1   
 41  20  42  1   
 42  21  43  1   
 43  21  44  1   
 44  22  45  1   
 45  22  46  1   
 46  22  47  1   
 47  23  25  1   
 48  23  48  1   
 49  23  49  1   
 50  24  26  1   
 51  24  50  1   
 52  24  51  1   
 53  25  27  1   
 54  25  52  1   
 55  25  53  1   
 56  26  27  1   
 57  26  54  1   
 58  26  55  1   
 59  27  56  1   
 60  27  57  1   
@<TRIPOS>SUBSTRUCTURE
  1 ****   7 GROUP 4 **** **** 0

# MOE 2024.06 (io_trps.svl 2023.06)
