@<TRIPOS>MOLECULE
[4-(Morpholine-4-sulfonyl)-piperazin-1-yl]-phenyl-methanone
44 46 1 0 0 
SMALL
USER_CHARGES


@<TRIPOS>ATOM
  1 S       -0.0390     0.0780    -1.1560 S.o2  1 <1>   1.5760 
  2 O        0.1530    -1.1370    -1.9140 O.2   1 <1>  -0.6500 
  3 O       -0.6210     1.2480    -1.7730 O.2   1 <1>  -0.6500 
  4 N       -0.9250    -0.2810     0.2300 N.am  1 <1>  -0.8490 
  5 N        1.4330     0.5040    -0.4540 N.am  1 <1>  -0.8490 
  6 C       -1.1270     0.8920     1.1040 C.3   1 <1>   0.1960 
  7 C       -2.2000    -0.9250    -0.0840 C.3   1 <1>   0.1960 
  8 C        2.3170     1.1360    -1.4480 C.3   1 <1>   0.1960 
  9 C        2.0940    -0.6650     0.1530 C.3   1 <1>   0.1960 
 10 C       -2.3500     0.7660     2.0410 C.3   1 <1>   0.1200 
 11 C       -2.9440    -1.3600     1.2010 C.3   1 <1>   0.1200 
 12 C        3.6610     1.5640    -0.8350 C.3   1 <1>   0.1400 
 13 C        3.4230    -0.2810     0.8230 C.3   1 <1>   0.1400 
 14 O       -2.6380    -0.5710     2.3250 O.3   1 <1>  -0.5600 
 15 N        4.3190     0.4100    -0.1530 N.am  1 <1>  -0.6600 
 16 C        5.6220     0.0450    -0.4190 C.2   1 <1>   0.5440 
 17 O        6.3280     0.8080    -1.0500 O.2   1 <1>  -0.5700 
 18 C        6.1650    -1.2200     0.0350 C.ar  1 <1>   0.0860 
 19 C        5.6240    -2.4340    -0.3890 C.ar  1 <1>  -0.1500 
 20 C        7.2470    -1.2620     0.9120 C.ar  1 <1>  -0.1500 
 21 C        6.1290    -3.6410     0.0600 C.ar  1 <1>  -0.1500 
 22 C        7.7570    -2.4660     1.3640 C.ar  1 <1>  -0.1500 
 23 C        7.1960    -3.6580     0.9410 C.ar  1 <1>  -0.1500 
 24 H       -1.2520     1.7880     0.5200 H     1 <1>   0.0800 
 25 H       -0.2420     1.0260     1.7020 H     1 <1>   0.0800 
 26 H       -2.0360    -1.7930    -0.7000 H     1 <1>   0.0800 
 27 H       -2.8200    -0.2430    -0.6420 H     1 <1>   0.0800 
 28 H        1.8330     2.0090    -1.8540 H     1 <1>   0.0800 
 29 H        2.5030     0.4540    -2.2610 H     1 <1>   0.0800 
 30 H        2.2850    -1.4160    -0.5950 H     1 <1>   0.0800 
 31 H        1.4480    -1.1000     0.8970 H     1 <1>   0.0800 
 32 H       -3.2190     1.2070     1.5840 H     1 <1>   0.0800 
 33 H       -2.1620     1.2730     2.9710 H     1 <1>   0.0800 
 34 H       -2.6750    -2.3720     1.4470 H     1 <1>   0.0800 
 35 H       -4.0070    -1.3230     1.0430 H     1 <1>   0.0800 
 36 H        3.4940     2.3500    -0.1190 H     1 <1>   0.0800 
 37 H        4.2940     1.9550    -1.6130 H     1 <1>   0.0800 
 38 H        3.8900    -1.1600     1.2250 H     1 <1>   0.0800 
 39 H        3.2200     0.3860     1.6430 H     1 <1>   0.0800 
 40 H        4.8010    -2.4240    -1.0810 H     1 <1>   0.1500 
 41 H        7.6880    -0.3350     1.2340 H     1 <1>   0.1500 
 42 H        5.6970    -4.5670    -0.2780 H     1 <1>   0.1500 
 43 H        8.5920    -2.4760     2.0440 H     1 <1>   0.1500 
 44 H        7.5920    -4.5950     1.2920 H     1 <1>   0.1500 
@<TRIPOS>BOND
  1   1   2  2   
  2   1   3  2   
  3   1   4  am  
  4   1   5  am  
  5   4   6  1   
  6   4   7  1   
  7   5   8  1   
  8   5   9  1   
  9   6  10  1   
 10   6  24  1   
 11   6  25  1   
 12   7  11  1   
 13   7  26  1   
 14   7  27  1   
 15   8  12  1   
 16   8  28  1   
 17   8  29  1   
 18   9  13  1   
 19   9  30  1   
 20   9  31  1   
 21  10  14  1   
 22  10  32  1   
 23  10  33  1   
 24  11  14  1   
 25  11  34  1   
 26  11  35  1   
 27  12  15  1   
 28  12  36  1   
 29  12  37  1   
 30  13  15  1   
 31  13  38  1   
 32  13  39  1   
 33  15  16  am  
 34  16  17  2   
 35  16  18  1   
 36  18  19  ar  
 37  18  20  ar  
 38  19  21  ar  
 39  19  40  1   
 40  20  22  ar  
 41  20  41  1   
 42  21  23  ar  
 43  21  42  1   
 44  22  23  ar  
 45  22  43  1   
 46  23  44  1   
@<TRIPOS>SUBSTRUCTURE
  1 ****   9 GROUP 4 **** **** 0

# MOE 2024.06 (io_trps.svl 2023.06)
