@<TRIPOS>MOLECULE
Naphthalene-2-sulfonic acid methyl-(2-morpholin-4-yl-2-oxo-ethyl)-amide
44 46 1 0 0 
SMALL
USER_CHARGES


@<TRIPOS>ATOM
  1 S       -0.2400    -1.5080     0.9960 S.o2  1 <1>   1.4470 
  2 O        0.9230    -2.2470     1.4420 O.2   1 <1>  -0.6500 
  3 O       -1.4640    -1.6660     1.7490 O.2   1 <1>  -0.6500 
  4 N       -0.5620    -2.0210    -0.5940 N.am  1 <1>  -0.8490 
  5 C        0.1480     0.2660     0.9250 C.ar  1 <1>  -0.0090 
  6 C        0.6570    -2.3320    -1.3940 C.3   1 <1>   0.2570 
  7 C       -1.4990    -3.1480    -0.6390 C.3   1 <1>   0.1160 
  8 C       -0.1330     1.0570    -0.1610 C.ar  1 <1>  -0.1500 
  9 C        0.7450     0.8810     2.0410 C.ar  1 <1>  -0.1500 
 10 C        1.5270    -1.1220    -1.7840 C.2   1 <1>   0.5690 
 11 C        0.1990     2.4240    -0.2110 C.ar  1 <1>   0.0000 
 12 C        1.0580     2.2120     2.0400 C.ar  1 <1>  -0.1500 
 13 O        1.1050    -0.4250    -2.6790 O.2   1 <1>  -0.5700 
 14 N        2.7260    -0.8280    -1.1760 N.am  1 <1>  -0.6600 
 15 C        0.8030     3.0190     0.9150 C.ar  1 <1>   0.0000 
 16 C       -0.0400     3.2170    -1.3500 C.ar  1 <1>  -0.1500 
 17 C        3.5020    -1.6990    -0.2370 C.3   1 <1>   0.1400 
 18 C        3.4330     0.4590    -1.4680 C.3   1 <1>   0.1400 
 19 C        1.1330     4.3880     0.8650 C.ar  1 <1>  -0.1500 
 20 C        0.2940     4.5430    -1.3740 C.ar  1 <1>  -0.1500 
 21 C        3.9580    -0.9030     0.9950 C.3   1 <1>   0.1200 
 22 C        3.9160     1.1310    -0.1720 C.3   1 <1>   0.1200 
 23 C        0.8850     5.1360    -0.2530 C.ar  1 <1>  -0.1500 
 24 O        4.6660     0.2390     0.6050 O.3   1 <1>  -0.5600 
 25 H        0.3410    -2.7640    -2.3280 H     1 <1>   0.0800 
 26 H        1.2410    -3.0820    -0.8980 H     1 <1>   0.0800 
 27 H       -2.4350    -2.8690    -0.1820 H     1 <1>   0.0800 
 28 H       -1.0950    -3.9950    -0.1090 H     1 <1>   0.0800 
 29 H       -1.7020    -3.4280    -1.6580 H     1 <1>   0.0800 
 30 H       -0.6180     0.6330    -1.0240 H     1 <1>   0.1500 
 31 H        0.9520     0.2760     2.9080 H     1 <1>   0.1500 
 32 H        1.5110     2.6660     2.9030 H     1 <1>   0.1500 
 33 H       -0.4910     2.7530    -2.2100 H     1 <1>   0.1500 
 34 H        4.3740    -2.0700    -0.7470 H     1 <1>   0.0800 
 35 H        2.9330    -2.5470     0.0870 H     1 <1>   0.0800 
 36 H        2.7800     1.1420    -1.9850 H     1 <1>   0.0800 
 37 H        4.2780     0.2640    -2.1030 H     1 <1>   0.0800 
 38 H        1.5880     4.8380     1.7290 H     1 <1>   0.1500 
 39 H        0.1070     5.1430    -2.2480 H     1 <1>   0.1500 
 40 H        4.6120    -1.5020     1.6030 H     1 <1>   0.0800 
 41 H        3.1140    -0.6030     1.5910 H     1 <1>   0.0800 
 42 H        3.0790     1.4740     0.4060 H     1 <1>   0.0800 
 43 H        4.5410     1.9750    -0.4030 H     1 <1>   0.0800 
 44 H        1.1390     6.1810    -0.2870 H     1 <1>   0.1500 
@<TRIPOS>BOND
  1   1   2  2   
  2   1   3  2   
  3   1   4  am  
  4   1   5  1   
  5   4   6  1   
  6   4   7  1   
  7   5   8  ar  
  8   5   9  ar  
  9   6  10  1   
 10   6  25  1   
 11   6  26  1   
 12   7  27  1   
 13   7  28  1   
 14   7  29  1   
 15   8  11  ar  
 16   8  30  1   
 17   9  12  ar  
 18   9  31  1   
 19  10  13  2   
 20  10  14  am  
 21  11  15  ar  
 22  11  16  ar  
 23  12  15  ar  
 24  12  32  1   
 25  14  17  1   
 26  14  18  1   
 27  15  19  ar  
 28  16  20  ar  
 29  16  33  1   
 30  17  21  1   
 31  17  34  1   
 32  17  35  1   
 33  18  22  1   
 34  18  36  1   
 35  18  37  1   
 36  19  23  ar  
 37  19  38  1   
 38  20  23  ar  
 39  20  39  1   
 40  21  24  1   
 41  21  40  1   
 42  21  41  1   
 43  22  24  1   
 44  22  42  1   
 45  22  43  1   
 46  23  44  1   
@<TRIPOS>SUBSTRUCTURE
  1 ****   5 GROUP 4 **** **** 0

# MOE 2024.06 (io_trps.svl 2023.06)
