@<TRIPOS>MOLECULE
2-(2,3-Dimethyl-phenoxy)-N-[2-(4-isobutyryl-piperazin-1-yl)-phenyl]-acetamide
61 63 1 0 0 
SMALL
USER_CHARGES


@<TRIPOS>ATOM
  1 O       -4.0900     2.3950    -2.5500 O.2   1 <1>  -0.5700 
  2 C       -3.8100     2.3760    -1.3720 C.2   1 <1>   0.5690 
  3 N       -2.8890     3.2570    -0.8580 N.am  1 <1>  -0.6600 
  4 C       -4.5250     1.3550    -0.4680 C.3   1 <1>  -0.0190 
  5 C       -2.7600     3.6440     0.5790 C.3   1 <1>   0.1400 
  6 C       -2.1440     4.2030    -1.7430 C.3   1 <1>   0.1400 
  7 C       -4.8420     0.0380    -1.2010 C.3   1 <1>  -0.2400 
  8 C       -5.8230     1.9290     0.1250 C.3   1 <1>  -0.2400 
  9 C       -3.3530     5.0430     0.8070 C.3   1 <1>   0.2090 
 10 C       -2.6860     5.6360    -1.5990 C.3   1 <1>   0.2090 
 11 N       -2.8260     6.0570    -0.1660 N.pl3 1 <1>  -0.8380 
 12 C       -2.1990     7.2200     0.3180 C.ar  1 <1>   0.1000 
 13 C       -2.9530     8.2260     0.9420 C.ar  1 <1>   0.1170 
 14 C       -0.8260     7.3860     0.1980 C.ar  1 <1>  -0.1500 
 15 N       -4.3360     8.0160     1.0160 N.am  1 <1>  -0.5470 
 16 C       -2.3240     9.3590     1.4350 C.ar  1 <1>  -0.1500 
 17 C       -0.2040     8.5210     0.6890 C.ar  1 <1>  -0.1500 
 18 C       -5.3460     8.4960     1.7940 C.2   1 <1>   0.5690 
 19 C       -0.9520     9.5070     1.3090 C.ar  1 <1>  -0.1500 
 20 O       -5.2340     9.4450     2.5330 O.2   1 <1>  -0.5700 
 21 C       -6.6800     7.7610     1.7280 C.3   1 <1>   0.1810 
 22 O       -6.5090     6.4930     1.1030 O.3   1 <1>  -0.3630 
 23 C       -7.5890     5.7670     0.7360 C.ar  1 <1>   0.0820 
 24 C       -7.6090     5.1700    -0.5250 C.ar  1 <1>  -0.1440 
 25 C       -8.6520     5.5970     1.6130 C.ar  1 <1>  -0.1500 
 26 C       -8.7030     4.3890    -0.8900 C.ar  1 <1>  -0.1440 
 27 C       -6.4470     5.3720    -1.4990 C.3   1 <1>  -0.0970 
 28 C       -9.7380     4.8310     1.2390 C.ar  1 <1>  -0.1500 
 29 C       -9.7600     4.2300    -0.0060 C.ar  1 <1>  -0.1500 
 30 C       -8.7820     3.6950    -2.2450 C.3   1 <1>  -0.0970 
 31 H       -3.8610     1.0990     0.3360 H     1 <1>   0.0800 
 32 H       -1.7190     3.6560     0.8500 H     1 <1>   0.0800 
 33 H       -3.2580     2.9450     1.2240 H     1 <1>   0.0800 
 34 H       -2.2160     3.8970    -2.7720 H     1 <1>   0.0800 
 35 H       -1.1030     4.1920    -1.4730 H     1 <1>   0.0800 
 36 H       -5.5330     0.2140    -2.0070 H     1 <1>   0.0800 
 37 H       -5.2740    -0.6780    -0.5250 H     1 <1>   0.0800 
 38 H       -3.9400    -0.3780    -1.6140 H     1 <1>   0.0800 
 39 H       -6.5250     2.1460    -0.6600 H     1 <1>   0.0800 
 40 H       -5.6310     2.8400     0.6630 H     1 <1>   0.0800 
 41 H       -6.2740     1.2240     0.8010 H     1 <1>   0.0800 
 42 H       -3.1350     5.3630     1.8120 H     1 <1>   0.0800 
 43 H       -4.4220     4.9840     0.7060 H     1 <1>   0.0800 
 44 H       -3.6490     5.6850    -2.0730 H     1 <1>   0.0800 
 45 H       -2.0360     6.3200    -2.1170 H     1 <1>   0.0800 
 46 H       -0.2450     6.6180    -0.2750 H     1 <1>   0.1500 
 47 H       -4.5840     7.1810     0.4740 H     1 <1>   0.3700 
 48 H       -2.9030    10.1270     1.9140 H     1 <1>   0.1500 
 49 H        0.8610     8.6370     0.5910 H     1 <1>   0.1500 
 50 H       -0.4720    10.3900     1.6940 H     1 <1>   0.1500 
 51 H       -7.3830     8.3350     1.1530 H     1 <1>   0.0800 
 52 H       -7.0520     7.6110     2.7240 H     1 <1>   0.0800 
 53 H       -8.6380     6.0440     2.5890 H     1 <1>   0.1500 
 54 H       -5.8460     6.2220    -1.2350 H     1 <1>   0.0800 
 55 H       -6.8130     5.5410    -2.4950 H     1 <1>   0.0800 
 56 H       -5.8200     4.5000    -1.5070 H     1 <1>   0.0800 
 57 H      -10.5650     4.6970     1.9140 H     1 <1>   0.1500 
 58 H      -10.6110     3.6340    -0.2830 H     1 <1>   0.1500 
 59 H       -7.8620     3.1820    -2.4610 H     1 <1>   0.0800 
 60 H       -8.9660     4.4210    -3.0160 H     1 <1>   0.0800 
 61 H       -9.5770     2.9720    -2.2610 H     1 <1>   0.0800 
@<TRIPOS>BOND
  1   1   2  2   
  2   2   3  am  
  3   2   4  1   
  4   3   5  1   
  5   3   6  1   
  6   4   7  1   
  7   4   8  1   
  8   4  31  1   
  9   5   9  1   
 10   5  32  1   
 11   5  33  1   
 12   6  10  1   
 13   6  34  1   
 14   6  35  1   
 15   7  36  1   
 16   7  37  1   
 17   7  38  1   
 18   8  39  1   
 19   8  40  1   
 20   8  41  1   
 21   9  11  1   
 22   9  42  1   
 23   9  43  1   
 24  10  11  1   
 25  10  44  1   
 26  10  45  1   
 27  11  12  1   
 28  12  13  ar  
 29  12  14  ar  
 30  13  15  1   
 31  13  16  ar  
 32  14  17  ar  
 33  14  46  1   
 34  15  18  am  
 35  15  47  1   
 36  16  19  ar  
 37  16  48  1   
 38  17  19  ar  
 39  17  49  1   
 40  18  20  2   
 41  18  21  1   
 42  19  50  1   
 43  21  22  1   
 44  21  51  1   
 45  21  52  1   
 46  22  23  1   
 47  23  24  ar  
 48  23  25  ar  
 49  24  26  ar  
 50  24  27  1   
 51  25  28  ar  
 52  25  53  1   
 53  26  29  ar  
 54  26  30  1   
 55  27  54  1   
 56  27  55  1   
 57  27  56  1   
 58  28  29  ar  
 59  28  57  1   
 60  29  58  1   
 61  30  59  1   
 62  30  60  1   
 63  30  61  1   
@<TRIPOS>SUBSTRUCTURE
  1 ****   9 GROUP 4 **** **** 0

# MOE 2024.06 (io_trps.svl 2023.06)
