@<TRIPOS>MOLECULE
2-(8-Cyclohexyl-1,7-dimethyl-2,4-dioxo-1,2,4,8-tetrahydro-imidazo[2,1-f]purin-3-
49 52 1 0 0 
SMALL
USER_CHARGES


@<TRIPOS>ATOM
  1 O        0.7370    -0.0190    -0.3330 O.2   1 <1>  -0.5750 
  2 C        1.6840     0.6650    -0.0040 C.2   1 <1>   0.6860 
  3 N        1.4680     1.9360     0.5100 N.am  1 <1>  -0.4260 
  4 N        2.9780     0.1800    -0.1520 N.am  1 <1>  -0.4420 
  5 C        2.5220     2.7280     0.9370 C.2   1 <1>   0.6990 
  6 C        0.2070     2.6370     0.1080 C.3   1 <1>   0.1940 
  7 C        4.0260     1.0200     0.1710 C.2   1 <1>   0.4200 
  8 C        3.2190    -1.1750    -0.7280 C.3   1 <1>   0.0520 
  9 O        2.3120     3.7930     1.4950 O.2   1 <1>  -0.5750 
 10 C        3.8440     2.2520     0.7060 C.2   1 <1>   0.2700 
 11 C        0.3390     3.2230    -1.3010 C.2   1 <1>   0.5640 
 12 N        5.3630     0.7860     0.0210 N.pl3 1 <1>  -0.7040 
 13 N        5.1260     2.7900     0.8980 N.pl3 1 <1>  -0.6330 
 14 O        1.4330     3.3480    -1.7990 O.2   1 <1>  -0.5750 
 15 N       -0.7560     3.5970    -1.9930 N.am  1 <1>  -0.8030 
 16 C        5.9910     1.8840     0.4640 C.cat 1 <1>   1.0690 
 17 C        5.8590     3.8830     1.3110 C.2   1 <1>   0.2220 
 18 N        7.2540     2.3120     0.5780 N.pl3 1 <1>  -0.5720 
 19 C        7.1640     3.5900     1.1170 C.2   1 <1>   0.1570 
 20 C        8.4880     1.5860     0.1940 C.3   1 <1>   0.2410 
 21 C        8.3810     4.4490     1.4070 C.3   1 <1>  -0.1100 
 22 C        8.4940     1.3170    -1.3180 C.3   1 <1>  -0.1680 
 23 C        8.6180     0.2910     1.0090 C.3   1 <1>  -0.1680 
 24 C        9.7400     0.5210    -1.7290 C.3   1 <1>  -0.1680 
 25 C        9.8640    -0.4990     0.5870 C.3   1 <1>  -0.1680 
 26 C        9.8590    -0.7780    -0.9210 C.3   1 <1>  -0.1680 
 27 H       -0.0100     3.4330     0.7980 H     1 <1>   0.0720 
 28 H       -0.6200     1.9500     0.1320 H     1 <1>   0.0720 
 29 H        2.3810    -1.8230    -0.5260 H     1 <1>   0.0720 
 30 H        4.0960    -1.6200    -0.2940 H     1 <1>   0.0720 
 31 H        3.3430    -1.0980    -1.7940 H     1 <1>   0.0720 
 32 H        5.8270    -0.0240    -0.3830 H     1 <1>   0.4440 
 33 H       -0.6430     3.9760    -2.9350 H     1 <1>   0.3640 
 34 H       -1.7180     3.5020    -1.6650 H     1 <1>   0.3640 
 35 H        5.3950     4.7750     1.7060 H     1 <1>   0.1420 
 36 H        9.3430     2.2000     0.4190 H     1 <1>   0.0720 
 37 H        8.9330     4.6300     0.5010 H     1 <1>   0.0720 
 38 H        9.0230     3.9570     2.1150 H     1 <1>   0.0720 
 39 H        8.0820     5.3970     1.8190 H     1 <1>   0.0720 
 40 H        8.4890     2.2520    -1.8520 H     1 <1>   0.0720 
 41 H        7.6270     0.7530    -1.6100 H     1 <1>   0.0720 
 42 H        7.7600    -0.3400     0.8650 H     1 <1>   0.0720 
 43 H        8.6960     0.5290     2.0560 H     1 <1>   0.0720 
 44 H       10.6200     1.1200    -1.5670 H     1 <1>   0.0720 
 45 H        9.6940     0.2880    -2.7790 H     1 <1>   0.0720 
 46 H        9.9030    -1.4320     1.1250 H     1 <1>   0.0720 
 47 H       10.7490     0.0600     0.8410 H     1 <1>   0.0720 
 48 H       10.7710    -1.2840    -1.1920 H     1 <1>   0.0720 
 49 H        9.0400    -1.4320    -1.1650 H     1 <1>   0.0720 
@<TRIPOS>BOND
  1   1   2  2   
  2   2   3  am  
  3   2   4  am  
  4   3   5  am  
  5   3   6  1   
  6   4   7  1   
  7   4   8  1   
  8   5   9  2   
  9   5  10  1   
 10   6  11  1   
 11   6  27  1   
 12   6  28  1   
 13   7  10  2   
 14   7  12  1   
 15   8  29  1   
 16   8  30  1   
 17   8  31  1   
 18  10  13  1   
 19  11  14  2   
 20  11  15  am  
 21  12  16  ar  
 22  12  32  1   
 23  13  16  ar  
 24  13  17  1   
 25  15  33  1   
 26  15  34  1   
 27  16  18  ar  
 28  17  19  2   
 29  17  35  1   
 30  18  19  1   
 31  18  20  1   
 32  19  21  1   
 33  20  22  1   
 34  20  23  1   
 35  20  36  1   
 36  21  37  1   
 37  21  38  1   
 38  21  39  1   
 39  22  24  1   
 40  22  40  1   
 41  22  41  1   
 42  23  25  1   
 43  23  42  1   
 44  23  43  1   
 45  24  26  1   
 46  24  44  1   
 47  24  45  1   
 48  25  26  1   
 49  25  46  1   
 50  25  47  1   
 51  26  48  1   
 52  26  49  1   
@<TRIPOS>SUBSTRUCTURE
  1 ****   7 GROUP 4 **** **** 0

# MOE 2024.06 (io_trps.svl 2023.06)
