@<TRIPOS>MOLECULE
3-[3-(4-tert-Butyl-phenyl)-[1,2,4]oxadiazol-5-yl]-1-morpholin-4-yl-propan-1-one
50 52 1 0 0 
SMALL
USER_CHARGES


@<TRIPOS>ATOM
  1 O        0.2090    -0.4060    -0.5040 O.2   1 <1>  -0.5700 
  2 C        0.6720    -1.4630    -0.1460 C.2   1 <1>   0.5690 
  3 N        1.8920    -1.5390     0.4730 N.am  1 <1>  -0.6600 
  4 C       -0.1370    -2.7260    -0.4030 C.3   1 <1>  -0.0990 
  5 C        2.6850    -0.3090     0.7830 C.3   1 <1>   0.1400 
  6 C        2.5900    -2.7950     0.8900 C.3   1 <1>   0.1400 
  7 C       -1.5540    -2.4470    -0.9320 C.3   1 <1>   0.0200 
  8 C        4.1340    -0.4560     0.2930 C.3   1 <1>   0.1200 
  9 C        4.0470    -2.7980     0.3940 C.3   1 <1>   0.1200 
 10 C       -2.3140    -3.7380    -1.1570 C.2   1 <1>   0.2980 
 11 O        4.7080    -1.6320     0.7920 O.3   1 <1>  -0.5600 
 12 O       -1.9510    -4.5180    -2.1410 O.3   1 <1>  -0.0190 
 13 N       -3.2890    -4.1540    -0.4630 N.2   1 <1>  -0.5650 
 14 N       -2.7670    -5.5210    -2.0660 N.2   1 <1>  -0.4100 
 15 C       -3.5640    -5.3100    -1.0780 C.2   1 <1>   0.4620 
 16 C       -4.6370    -6.1920    -0.6490 C.ar  1 <1>   0.0540 
 17 C       -4.8950    -7.3950    -1.3030 C.ar  1 <1>  -0.1500 
 18 C       -5.4580    -5.8830     0.4340 C.ar  1 <1>  -0.1500 
 19 C       -5.9120    -8.2420    -0.9020 C.ar  1 <1>  -0.1500 
 20 C       -6.4760    -6.7270     0.8370 C.ar  1 <1>  -0.1500 
 21 C       -6.7280    -7.9260     0.1800 C.ar  1 <1>  -0.1430 
 22 C       -7.8770    -8.8360     0.6680 C.3   1 <1>   0.1430 
 23 C       -9.2070    -8.0740     0.5820 C.3   1 <1>  -0.2400 
 24 C       -8.0240   -10.1220    -0.1630 C.3   1 <1>  -0.2400 
 25 C       -7.6190    -9.2520     2.1240 C.3   1 <1>  -0.2400 
 26 H       -0.2190    -3.2740     0.5170 H     1 <1>   0.0800 
 27 H        0.3940    -3.3270    -1.1170 H     1 <1>   0.0800 
 28 H        2.6860    -0.1480     1.8460 H     1 <1>   0.0800 
 29 H        2.2440     0.5560     0.3190 H     1 <1>   0.0800 
 30 H        2.0920    -3.6650     0.5050 H     1 <1>   0.0800 
 31 H        2.5880    -2.8580     1.9650 H     1 <1>   0.0800 
 32 H       -1.5040    -1.9050    -1.8600 H     1 <1>   0.0800 
 33 H       -2.0910    -1.8430    -0.2220 H     1 <1>   0.0800 
 34 H        4.7280     0.3710     0.6380 H     1 <1>   0.0800 
 35 H        4.1680    -0.4830    -0.7820 H     1 <1>   0.0800 
 36 H        4.0820    -2.8650    -0.6800 H     1 <1>   0.0800 
 37 H        4.5800    -3.6350     0.8100 H     1 <1>   0.0800 
 38 H       -4.2860    -7.6750    -2.1450 H     1 <1>   0.1500 
 39 H       -5.2990    -4.9640     0.9710 H     1 <1>   0.1500 
 40 H       -6.0480    -9.1500    -1.4580 H     1 <1>   0.1500 
 41 H       -7.0770    -6.4340     1.6790 H     1 <1>   0.1500 
 42 H       -9.2010    -7.2080     1.2180 H     1 <1>   0.0800 
 43 H      -10.0260    -8.7020     0.8830 H     1 <1>   0.0800 
 44 H       -9.3790    -7.7480    -0.4280 H     1 <1>   0.0800 
 45 H       -8.2330    -9.8850    -1.1910 H     1 <1>   0.0800 
 46 H       -8.8330   -10.7240     0.2110 H     1 <1>   0.0800 
 47 H       -7.1240   -10.7080    -0.1140 H     1 <1>   0.0800 
 48 H       -7.5980    -8.3970     2.7740 H     1 <1>   0.0800 
 49 H       -6.6720    -9.7550     2.2000 H     1 <1>   0.0800 
 50 H       -8.3900    -9.9160     2.4720 H     1 <1>   0.0800 
@<TRIPOS>BOND
  1   1   2  2   
  2   2   3  am  
  3   2   4  1   
  4   3   5  1   
  5   3   6  1   
  6   4   7  1   
  7   4  26  1   
  8   4  27  1   
  9   5   8  1   
 10   5  28  1   
 11   5  29  1   
 12   6   9  1   
 13   6  30  1   
 14   6  31  1   
 15   7  10  1   
 16   7  32  1   
 17   7  33  1   
 18   8  11  1   
 19   8  34  1   
 20   8  35  1   
 21   9  11  1   
 22   9  36  1   
 23   9  37  1   
 24  10  12  1   
 25  10  13  2   
 26  12  14  1   
 27  13  15  1   
 28  14  15  2   
 29  15  16  1   
 30  16  17  ar  
 31  16  18  ar  
 32  17  19  ar  
 33  17  38  1   
 34  18  20  ar  
 35  18  39  1   
 36  19  21  ar  
 37  19  40  1   
 38  20  21  ar  
 39  20  41  1   
 40  21  22  1   
 41  22  23  1   
 42  22  24  1   
 43  22  25  1   
 44  23  42  1   
 45  23  43  1   
 46  23  44  1   
 47  24  45  1   
 48  24  46  1   
 49  24  47  1   
 50  25  48  1   
 51  25  49  1   
 52  25  50  1   
@<TRIPOS>SUBSTRUCTURE
  1 ****  13 GROUP 4 **** **** 0

# MOE 2024.06 (io_trps.svl 2023.06)
