@<TRIPOS>MOLECULE
2,3-Dihydro-benzo[1,4]dioxine-6-carboxylic acid [2-(4-methanesulfonyl-piperazin-
52 55 1 0 0 
SMALL
USER_CHARGES


@<TRIPOS>ATOM
  1 S        0.4690     0.2520    -0.7020 S.o2  1 <1>   1.3330 
  2 O        0.0020    -0.1920    -1.9950 O.2   1 <1>  -0.6500 
  3 O        1.8210     0.7400    -0.5520 O.2   1 <1>  -0.6500 
  4 N       -0.5990     1.4380    -0.1370 N.am  1 <1>  -0.8490 
  5 C        0.2040    -1.0780     0.4510 C.3   1 <1>  -0.1350 
  6 C       -0.0030     2.2860     0.9190 C.3   1 <1>   0.1960 
  7 C       -1.1060     2.2860    -1.2380 C.3   1 <1>   0.1960 
  8 C       -0.9920     3.3450     1.4490 C.3   1 <1>   0.2090 
  9 C       -2.1080     3.3550    -0.7530 C.3   1 <1>   0.2090 
 10 N       -1.5120     4.1910     0.3320 N.pl3 1 <1>  -0.8380 
 11 C       -2.2180     5.3570     0.6910 C.ar  1 <1>   0.1000 
 12 C       -1.6880     6.6140     0.3680 C.ar  1 <1>   0.1170 
 13 C       -3.4270     5.2930     1.3710 C.ar  1 <1>  -0.1500 
 14 N       -0.4760     6.6020    -0.3260 N.am  1 <1>  -0.5470 
 15 C       -2.3600     7.7700     0.7330 C.ar  1 <1>  -0.1500 
 16 C       -4.0970     6.4510     1.7310 C.ar  1 <1>  -0.1500 
 17 C        0.6270     7.4080    -0.2650 C.2   1 <1>   0.5440 
 18 C       -3.5630     7.6890     1.4140 C.ar  1 <1>  -0.1500 
 19 O        0.5180     8.6070    -0.1000 O.2   1 <1>  -0.5700 
 20 C        1.9150     6.7690    -0.4180 C.ar  1 <1>   0.0860 
 21 C        2.1310     5.5110     0.1460 C.ar  1 <1>  -0.1500 
 22 C        2.9600     7.3410    -1.1470 C.ar  1 <1>  -0.1500 
 23 C        3.3080     4.8250    -0.0580 C.ar  1 <1>   0.0820 
 24 C        4.1540     6.6650    -1.3460 C.ar  1 <1>  -0.1500 
 25 O        3.4340     3.5840     0.4700 O.3   1 <1>  -0.3630 
 26 C        4.3310     5.3990    -0.8130 C.ar  1 <1>   0.0820 
 27 C        4.4070     2.7520    -0.1300 C.3   1 <1>   0.1200 
 28 O        5.4900     4.7360    -1.0380 O.3   1 <1>  -0.3630 
 29 C        5.7170     3.5330    -0.3210 C.3   1 <1>   0.1200 
 30 H       -0.8250    -1.3790     0.4330 H     1 <1>   0.0800 
 31 H        0.4590    -0.7680     1.4440 H     1 <1>   0.0800 
 32 H        0.8130    -1.9190     0.1850 H     1 <1>   0.0800 
 33 H        0.8660     2.7910     0.5320 H     1 <1>   0.0800 
 34 H        0.3170     1.6690     1.7390 H     1 <1>   0.0800 
 35 H       -1.6040     1.6700    -1.9670 H     1 <1>   0.0800 
 36 H       -0.2810     2.7750    -1.7290 H     1 <1>   0.0800 
 37 H       -0.4960     3.9730     2.1680 H     1 <1>   0.0800 
 38 H       -1.8110     2.8520     1.9420 H     1 <1>   0.0800 
 39 H       -2.9960     2.8690    -0.3890 H     1 <1>   0.0800 
 40 H       -2.3860     3.9870    -1.5780 H     1 <1>   0.0800 
 41 H       -3.8440     4.3360     1.6190 H     1 <1>   0.1500 
 42 H       -0.2720     5.6300    -0.5730 H     1 <1>   0.3700 
 43 H       -1.9420     8.7290     0.4830 H     1 <1>   0.1500 
 44 H       -5.0330     6.3910     2.2580 H     1 <1>   0.1500 
 45 H       -4.0810     8.5900     1.6940 H     1 <1>   0.1500 
 46 H        1.3690     5.0550     0.7490 H     1 <1>   0.1500 
 47 H        2.8210     8.3230    -1.5650 H     1 <1>   0.1500 
 48 H        4.9490     7.1120    -1.9160 H     1 <1>   0.1500 
 49 H        4.0230     2.4160    -1.0780 H     1 <1>   0.0800 
 50 H        4.5540     1.8990     0.5070 H     1 <1>   0.0800 
 51 H        6.4310     2.9500    -0.8720 H     1 <1>   0.0800 
 52 H        6.1360     3.7920     0.6350 H     1 <1>   0.0800 
@<TRIPOS>BOND
  1   1   2  2   
  2   1   3  2   
  3   1   4  am  
  4   1   5  1   
  5   4   6  1   
  6   4   7  1   
  7   5  30  1   
  8   5  31  1   
  9   5  32  1   
 10   6   8  1   
 11   6  33  1   
 12   6  34  1   
 13   7   9  1   
 14   7  35  1   
 15   7  36  1   
 16   8  10  1   
 17   8  37  1   
 18   8  38  1   
 19   9  10  1   
 20   9  39  1   
 21   9  40  1   
 22  10  11  1   
 23  11  12  ar  
 24  11  13  ar  
 25  12  14  1   
 26  12  15  ar  
 27  13  16  ar  
 28  13  41  1   
 29  14  17  am  
 30  14  42  1   
 31  15  18  ar  
 32  15  43  1   
 33  16  18  ar  
 34  16  44  1   
 35  17  19  2   
 36  17  20  1   
 37  18  45  1   
 38  20  21  ar  
 39  20  22  ar  
 40  21  23  ar  
 41  21  46  1   
 42  22  24  ar  
 43  22  47  1   
 44  23  25  1   
 45  23  26  ar  
 46  24  26  ar  
 47  24  48  1   
 48  25  27  1   
 49  26  28  1   
 50  27  29  1   
 51  27  49  1   
 52  27  50  1   
 53  28  29  1   
 54  29  51  1   
 55  29  52  1   
@<TRIPOS>SUBSTRUCTURE
  1 ****  21 GROUP 4 **** **** 0

# MOE 2024.06 (io_trps.svl 2023.06)
