@<TRIPOS>MOLECULE
5-(3,4-Dimethoxy-phenyl)-2-methyl-furan-3-carboxylic acid (2-hydroxy-ethyl)-amid
41 42 1 0 0 
SMALL
USER_CHARGES


@<TRIPOS>ATOM
  1 O        0.2230    -0.4580    -0.9290 O.2   1 <1>  -0.5700 
  2 C        0.6900    -1.3270    -0.2200 C.2   1 <1>   0.7160 
  3 N        1.8670    -1.0810     0.4240 N.am  1 <1>  -0.7300 
  4 C        0.0080    -2.5870    -0.0400 C.2   1 <1>  -0.0860 
  5 C        2.6200     0.1960     0.3600 C.3   1 <1>   0.1400 
  6 C        0.4620    -3.8300     0.2850 C.2   1 <1>  -0.0400 
  7 C       -1.3800    -2.7630    -0.1830 C.2   1 <1>  -0.1500 
  8 C        3.5030     0.2270    -0.8900 C.3   1 <1>   0.1200 
  9 O       -0.5300    -4.6810     0.3620 O.3   1 <1>  -0.2800 
 10 C        1.8540    -4.3760     0.5390 C.3   1 <1>  -0.0600 
 11 C       -1.6660    -4.0640     0.0780 C.2   1 <1>   0.0870 
 12 O        4.2010     1.4240    -0.9290 O.3   1 <1>  -0.6800 
 13 C       -2.9170    -4.7900     0.0830 C.ar  1 <1>   0.0530 
 14 C       -4.1220    -4.1530    -0.2130 C.ar  1 <1>  -0.1500 
 15 C       -2.9690    -6.1510     0.3890 C.ar  1 <1>  -0.1500 
 16 C       -5.3260    -4.8340    -0.2060 C.ar  1 <1>   0.0830 
 17 C       -4.1630    -6.8490     0.3840 C.ar  1 <1>  -0.1500 
 18 O       -6.4490    -4.1220    -0.4670 O.3   1 <1>  -0.3630 
 19 C       -5.3470    -6.2050     0.0710 C.ar  1 <1>   0.0830 
 20 C       -7.3560    -3.9770     0.6030 C.3   1 <1>   0.0400 
 21 O       -6.4780    -6.9500     0.0450 O.3   1 <1>  -0.3630 
 22 C       -7.1170    -7.0840    -1.2050 C.3   1 <1>   0.0400 
 23 H        2.1940    -1.7680     1.1020 H     1 <1>   0.3700 
 24 H        3.2320     0.2930     1.2400 H     1 <1>   0.0800 
 25 H        1.9220     1.0160     0.3270 H     1 <1>   0.0800 
 26 H       -2.0580    -1.9740    -0.4550 H     1 <1>   0.1500 
 27 H        2.9080     0.1520    -1.7850 H     1 <1>   0.0800 
 28 H        4.2240    -0.5720    -0.8620 H     1 <1>   0.0800 
 29 H        2.6100    -3.6550     0.2940 H     1 <1>   0.0800 
 30 H        2.0100    -5.2470    -0.0710 H     1 <1>   0.0800 
 31 H        1.9510    -4.6580     1.5720 H     1 <1>   0.0800 
 32 H        3.6010     2.1640    -1.1520 H     1 <1>   0.4000 
 33 H       -4.1320    -3.1060    -0.4490 H     1 <1>   0.1500 
 34 H       -2.0590    -6.6700     0.6310 H     1 <1>   0.1500 
 35 H       -4.1820    -7.8990     0.6170 H     1 <1>   0.1500 
 36 H       -6.8360    -3.5520     1.4440 H     1 <1>   0.0800 
 37 H       -7.7600    -4.9390     0.8620 H     1 <1>   0.0800 
 38 H       -8.1470    -3.3200     0.2880 H     1 <1>   0.0800 
 39 H       -7.9170    -7.7930    -1.0990 H     1 <1>   0.0800 
 40 H       -6.4010    -7.4390    -1.9250 H     1 <1>   0.0800 
 41 H       -7.5110    -6.1310    -1.5090 H     1 <1>   0.0800 
@<TRIPOS>BOND
  1   1   2  2   
  2   2   3  am  
  3   2   4  1   
  4   3   5  1   
  5   3  23  1   
  6   4   6  2   
  7   4   7  1   
  8   5   8  1   
  9   5  24  1   
 10   5  25  1   
 11   6   9  1   
 12   6  10  1   
 13   7  11  2   
 14   7  26  1   
 15   8  12  1   
 16   8  27  1   
 17   8  28  1   
 18   9  11  1   
 19  10  29  1   
 20  10  30  1   
 21  10  31  1   
 22  11  13  1   
 23  12  32  1   
 24  13  14  ar  
 25  13  15  ar  
 26  14  16  ar  
 27  14  33  1   
 28  15  17  ar  
 29  15  34  1   
 30  16  18  1   
 31  16  19  ar  
 32  17  19  ar  
 33  17  35  1   
 34  18  20  1   
 35  19  21  1   
 36  20  36  1   
 37  20  37  1   
 38  20  38  1   
 39  21  22  1   
 40  22  39  1   
 41  22  40  1   
 42  22  41  1   
@<TRIPOS>SUBSTRUCTURE
  1 ****  11 GROUP 4 **** **** 0

# MOE 2024.06 (io_trps.svl 2023.06)
