@<TRIPOS>MOLECULE
2-{2-[4-(3-Chloro-phenyl)-piperazin-1-yl]-acetylamino}-4,5-dimethyl-thiophene-3-
55 57 1 0 0 
SMALL
USER_CHARGES


@<TRIPOS>ATOM
  1 CL       4.9820    -6.2160    -3.8030 Cl    1 <1>  -0.1770 
  2 C        4.1530    -5.3180    -2.5550 C.ar  1 <1>   0.1770 
  3 C        4.8750    -4.8190    -1.4900 C.ar  1 <1>  -0.1500 
  4 C        2.7880    -5.1230    -2.6580 C.ar  1 <1>  -0.1500 
  5 C        4.2240    -4.1010    -0.4940 C.ar  1 <1>   0.1000 
  6 C        2.1340    -4.4090    -1.6670 C.ar  1 <1>  -0.1500 
  7 N        4.9120    -3.5800     0.5950 N.pl3 1 <1>  -0.8380 
  8 C        2.8520    -3.9050    -0.5960 C.ar  1 <1>  -0.1500 
  9 C        5.9580    -2.5610     0.2770 C.3   1 <1>   0.2090 
 10 C        5.4050    -4.5810     1.5870 C.3   1 <1>   0.2090 
 11 C        6.5170    -1.9180     1.5610 C.3   1 <1>   0.1100 
 12 C        5.9790    -3.8930     2.8420 C.3   1 <1>   0.1100 
 13 N        7.0540    -2.9350     2.5010 N.3   1 <1>  -0.8100 
 14 C        7.6350    -2.3070     3.7260 C.3   1 <1>   0.1710 
 15 C        9.0120    -1.6750     3.5010 C.2   1 <1>   0.5690 
 16 O        9.4580    -0.9330     4.3410 O.2   1 <1>  -0.5700 
 17 N        9.6410    -2.0050     2.3300 N.am  1 <1>  -0.4940 
 18 C       10.8490    -1.6620     1.7430 C.2   1 <1>   0.1040 
 19 S       12.0300    -0.7610     2.6700 S.3   1 <1>  -0.0800 
 20 C       11.3150    -1.9350     0.4840 C.2   1 <1>  -0.0860 
 21 C       13.1650    -0.7500     1.3360 C.2   1 <1>  -0.1400 
 22 C       12.6490    -1.3950     0.2700 C.2   1 <1>  -0.1810 
 23 C       10.5260    -2.6680    -0.4780 C.2   1 <1>   0.8060 
 24 C       14.4720    -0.0350     1.6250 C.3   1 <1>  -0.0600 
 25 C       13.3890    -1.5400    -1.0550 C.3   1 <1>  -0.0590 
 26 O        9.3270    -2.8490    -0.3510 O.2   1 <1>  -0.5700 
 27 O       11.1190    -3.1960    -1.5550 O.3   1 <1>  -0.4300 
 28 C       10.4000    -3.9370    -2.5160 C.3   1 <1>   0.1200 
 29 C       11.3770    -4.3740    -3.6020 C.3   1 <1>  -0.2400 
 30 H        5.9330    -4.9850    -1.4320 H     1 <1>   0.1500 
 31 H        2.2500    -5.5230    -3.4990 H     1 <1>   0.1500 
 32 H        1.0720    -4.2460    -1.7280 H     1 <1>   0.1500 
 33 H        2.3570    -3.3490     0.1790 H     1 <1>   0.1500 
 34 H        5.5290    -1.7970    -0.3480 H     1 <1>   0.0800 
 35 H        6.7630    -3.0240    -0.2640 H     1 <1>   0.0800 
 36 H        6.1710    -5.1870     1.1370 H     1 <1>   0.0800 
 37 H        4.5910    -5.2250     1.8720 H     1 <1>   0.0800 
 38 H        5.7280    -1.3590     2.0350 H     1 <1>   0.0800 
 39 H        7.2930    -1.2260     1.2820 H     1 <1>   0.0800 
 40 H        6.3700    -4.6510     3.4980 H     1 <1>   0.0800 
 41 H        5.1800    -3.3830     3.3530 H     1 <1>   0.0800 
 42 H        7.7610    -3.0580     4.4840 H     1 <1>   0.0800 
 43 H        6.9660    -1.5590     4.1110 H     1 <1>   0.0800 
 44 H        9.0210    -2.5910     1.7490 H     1 <1>   0.3700 
 45 H       14.2760     0.9960     1.8570 H     1 <1>   0.0800 
 46 H       15.1410    -0.0780     0.7870 H     1 <1>   0.0800 
 47 H       14.9540    -0.4920     2.4700 H     1 <1>   0.0800 
 48 H       12.7840    -1.1620    -1.8590 H     1 <1>   0.0800 
 49 H       13.6170    -2.5740    -1.2390 H     1 <1>   0.0800 
 50 H       14.3120    -0.9930    -1.0540 H     1 <1>   0.0800 
 51 H        9.6250    -3.3100    -2.9250 H     1 <1>   0.0800 
 52 H        9.9570    -4.7900    -2.0300 H     1 <1>   0.0800 
 53 H       11.8180    -3.5140    -4.0730 H     1 <1>   0.0800 
 54 H       10.8570    -4.9450    -4.3500 H     1 <1>   0.0800 
 55 H       12.1510    -4.9900    -3.1790 H     1 <1>   0.0800 
@<TRIPOS>BOND
  1   1   2  1   
  2   2   3  ar  
  3   2   4  ar  
  4   3   5  ar  
  5   3  30  1   
  6   4   6  ar  
  7   4  31  1   
  8   5   7  1   
  9   5   8  ar  
 10   6   8  ar  
 11   6  32  1   
 12   7   9  1   
 13   7  10  1   
 14   8  33  1   
 15   9  11  1   
 16   9  34  1   
 17   9  35  1   
 18  10  12  1   
 19  10  36  1   
 20  10  37  1   
 21  11  13  1   
 22  11  38  1   
 23  11  39  1   
 24  12  13  1   
 25  12  40  1   
 26  12  41  1   
 27  13  14  1   
 28  14  15  1   
 29  14  42  1   
 30  14  43  1   
 31  15  16  2   
 32  15  17  am  
 33  17  18  1   
 34  17  44  1   
 35  18  19  1   
 36  18  20  2   
 37  19  21  1   
 38  20  22  1   
 39  20  23  1   
 40  21  22  2   
 41  21  24  1   
 42  22  25  1   
 43  23  26  2   
 44  23  27  1   
 45  24  45  1   
 46  24  46  1   
 47  24  47  1   
 48  25  48  1   
 49  25  49  1   
 50  25  50  1   
 51  27  28  1   
 52  28  29  1   
 53  28  51  1   
 54  28  52  1   
 55  29  53  1   
 56  29  54  1   
 57  29  55  1   
@<TRIPOS>SUBSTRUCTURE
  1 ****  26 GROUP 4 **** **** 0

# MOE 2024.06 (io_trps.svl 2023.06)
