@<TRIPOS>MOLECULE
N-[3-(4-tert-Butyl-phenyl)-[1,2,4]oxadiazol-5-ylmethyl]-4-methyl-benzenesulfonam
50 52 1 0 0 
SMALL
USER_CHARGES


@<TRIPOS>ATOM
  1 S       -0.6040    -0.4960     1.5000 S.o2  1 <1>   1.4470 
  2 O       -0.7390    -1.8790     1.1120 O.2   1 <1>  -0.6500 
  3 O        0.3150    -0.1330     2.5540 O.2   1 <1>  -0.6500 
  4 N       -2.1220    -0.0560     2.0530 N.am  1 <1>  -0.9140 
  5 C       -0.3700     0.5630     0.0480 C.ar  1 <1>  -0.0090 
  6 C       -2.4640    -0.7650     3.2840 C.3   1 <1>   0.3760 
  7 C       -0.4610     0.0510    -1.2410 C.ar  1 <1>  -0.1500 
  8 C       -0.1150     1.9220     0.1880 C.ar  1 <1>  -0.1500 
  9 C       -3.2630    -2.0290     2.9790 C.2   1 <1>   0.2980 
 10 C       -0.3000     0.8640    -2.3500 C.ar  1 <1>  -0.1500 
 11 C        0.0470     2.7410    -0.9160 C.ar  1 <1>  -0.1500 
 12 O       -3.3480    -2.9510     3.8990 O.3   1 <1>  -0.0190 
 13 N       -3.8790    -2.2770     1.8940 N.2   1 <1>  -0.5650 
 14 C       -0.0440     2.2150    -2.1930 C.ar  1 <1>  -0.1430 
 15 N       -4.0730    -3.8740     3.3510 N.2   1 <1>  -0.4100 
 16 C       -4.3820    -3.4870     2.1640 C.2   1 <1>   0.4620 
 17 C        0.1320     3.1100    -3.4060 C.3   1 <1>  -0.0970 
 18 C       -5.1760    -4.2360     1.2040 C.ar  1 <1>   0.0540 
 19 C       -5.6930    -5.4930     1.5120 C.ar  1 <1>  -0.1500 
 20 C       -5.4590    -3.7400    -0.0670 C.ar  1 <1>  -0.1500 
 21 C       -6.4490    -6.2130     0.6050 C.ar  1 <1>  -0.1500 
 22 C       -6.2140    -4.4580    -0.9750 C.ar  1 <1>  -0.1500 
 23 C       -6.7270    -5.7110    -0.6620 C.ar  1 <1>  -0.1430 
 24 C       -7.5640    -6.4750    -1.7110 C.3   1 <1>   0.1440 
 25 C       -8.8010    -5.6450    -2.0840 C.3   1 <1>  -0.2400 
 26 C       -6.7140    -6.7190    -2.9670 C.3   1 <1>  -0.2400 
 27 C       -8.0570    -7.8440    -1.2110 C.3   1 <1>  -0.2400 
 28 H       -2.7560    -0.4750     1.3660 H     1 <1>   0.4200 
 29 H       -3.0770    -0.1240     3.8920 H     1 <1>   0.0800 
 30 H       -1.5850    -1.0160     3.8540 H     1 <1>   0.0800 
 31 H       -0.6580    -0.9990    -1.3830 H     1 <1>   0.1500 
 32 H       -0.0420     2.3440     1.1770 H     1 <1>   0.1500 
 33 H       -0.3750     0.4390    -3.3360 H     1 <1>   0.1500 
 34 H        0.2430     3.7900    -0.7750 H     1 <1>   0.1500 
 35 H        0.5510     2.5540    -4.2260 H     1 <1>   0.0800 
 36 H        0.7930     3.9270    -3.1790 H     1 <1>   0.0800 
 37 H       -0.8210     3.5070    -3.7060 H     1 <1>   0.0800 
 38 H       -5.5000    -5.9170     2.4820 H     1 <1>   0.1500 
 39 H       -5.0810    -2.7750    -0.3530 H     1 <1>   0.1500 
 40 H       -6.8110    -7.1750     0.9180 H     1 <1>   0.1500 
 41 H       -6.3980    -4.0230    -1.9410 H     1 <1>   0.1500 
 42 H       -8.5200    -4.7070    -2.5260 H     1 <1>   0.0800 
 43 H       -9.3850    -5.4410    -1.2040 H     1 <1>   0.0800 
 44 H       -9.4160    -6.1740    -2.7890 H     1 <1>   0.0800 
 45 H       -5.8280    -7.2700    -2.7080 H     1 <1>   0.0800 
 46 H       -6.4140    -5.7920    -3.4180 H     1 <1>   0.0800 
 47 H       -7.2680    -7.2820    -3.6970 H     1 <1>   0.0800 
 48 H       -7.2240    -8.4760    -0.9600 H     1 <1>   0.0800 
 49 H       -8.6340    -8.3390    -1.9710 H     1 <1>   0.0800 
 50 H       -8.6820    -7.7260    -0.3430 H     1 <1>   0.0800 
@<TRIPOS>BOND
  1   1   2  2   
  2   1   3  2   
  3   1   4  am  
  4   1   5  1   
  5   4   6  1   
  6   4  28  1   
  7   5   7  ar  
  8   5   8  ar  
  9   6   9  1   
 10   6  29  1   
 11   6  30  1   
 12   7  10  ar  
 13   7  31  1   
 14   8  11  ar  
 15   8  32  1   
 16   9  12  1   
 17   9  13  2   
 18  10  14  ar  
 19  10  33  1   
 20  11  14  ar  
 21  11  34  1   
 22  12  15  1   
 23  13  16  1   
 24  14  17  1   
 25  15  16  2   
 26  16  18  1   
 27  17  35  1   
 28  17  36  1   
 29  17  37  1   
 30  18  19  ar  
 31  18  20  ar  
 32  19  21  ar  
 33  19  38  1   
 34  20  22  ar  
 35  20  39  1   
 36  21  23  ar  
 37  21  40  1   
 38  22  23  ar  
 39  22  41  1   
 40  23  24  1   
 41  24  25  1   
 42  24  26  1   
 43  24  27  1   
 44  25  42  1   
 45  25  43  1   
 46  25  44  1   
 47  26  45  1   
 48  26  46  1   
 49  26  47  1   
 50  27  48  1   
 51  27  49  1   
 52  27  50  1   
@<TRIPOS>SUBSTRUCTURE
  1 ****  13 GROUP 4 **** **** 0

# MOE 2024.06 (io_trps.svl 2023.06)
