@<TRIPOS>MOLECULE
3-Allyl-8-(2-methoxy-phenyl)-1,6-dimethyl-5,6,7,8-tetrahydro-1H-1,3,4b,8,9-penta
52 55 1 0 0 
SMALL
USER_CHARGES


@<TRIPOS>ATOM
  1 O        1.5090     0.3750     1.7480 O.2   1 <1>  -0.5740 
  2 C        2.3340     1.0830     1.2070 C.2   1 <1>   0.6860 
  3 N        2.0370     2.4070     0.9110 N.am  1 <1>  -0.4250 
  4 N        3.5880     0.5690     0.9020 N.am  1 <1>  -0.4410 
  5 C        3.0010     3.2740     0.4230 C.2   1 <1>   0.6990 
  6 C        0.6320     2.8790     1.0140 C.3   1 <1>   0.2720 
  7 C        4.5300     1.4280     0.3720 C.2   1 <1>   0.4210 
  8 C        3.9170    -0.8630     1.1660 C.3   1 <1>   0.0520 
  9 O        2.7650     4.4600     0.2640 O.2   1 <1>  -0.5740 
 10 C        4.2930     2.7360     0.1290 C.2   1 <1>   0.2710 
 11 C       -0.0980     2.7280    -0.3160 C.2   1 <1>  -0.2940 
 12 N        5.8170     1.1510     0.0280 N.pl3 1 <1>  -0.7040 
 13 N        5.4890     3.2600    -0.3800 N.pl3 1 <1>  -0.7670 
 14 C        0.3300     2.1460    -1.4430 C.2   1 <1>  -0.3060 
 15 C        6.3780     2.2740    -0.4130 C.cat 1 <1>   1.0690 
 16 C        5.7600     4.6590    -0.7740 C.3   1 <1>   0.3480 
 17 N        7.6430     2.4350    -0.8450 N.pl3 1 <1>  -0.5800 
 18 C        7.0050     4.7010    -1.6790 C.3   1 <1>  -0.0880 
 19 C        8.5730     1.3790    -0.9360 C.ar  1 <1>   0.3050 
 20 C        8.1350     3.8150    -1.1220 C.3   1 <1>   0.1610 
 21 C        7.4960     6.1450    -1.8680 C.3   1 <1>  -0.2460 
 22 C        8.9390     0.6100     0.1790 C.ar  1 <1>   0.0750 
 23 C        9.1360     1.0820    -2.1710 C.ar  1 <1>  -0.1570 
 24 O        8.3660     0.9050     1.3830 O.3   1 <1>  -0.3680 
 25 C        9.8560    -0.4270     0.0350 C.ar  1 <1>  -0.1570 
 26 C       10.0460     0.0500    -2.3070 C.ar  1 <1>  -0.1570 
 27 C        8.9660     0.4810     2.5920 C.3   1 <1>   0.0320 
 28 C       10.4050    -0.7030    -1.2040 C.ar  1 <1>  -0.1570 
 29 H        0.6200     3.9140     1.3100 H     1 <1>   0.0720 
 30 H        0.1060     2.3270     1.7750 H     1 <1>   0.0720 
 31 H        3.0180    -1.4560     1.2100 H     1 <1>   0.0720 
 32 H        4.4310    -0.9480     2.1080 H     1 <1>   0.0720 
 33 H        4.5370    -1.2560     0.3810 H     1 <1>   0.0720 
 34 H       -1.0800     3.1680    -0.2620 H     1 <1>   0.1430 
 35 H        6.3550     0.3040     0.1940 H     1 <1>   0.4450 
 36 H       -0.2660     2.0900    -2.3390 H     1 <1>   0.1430 
 37 H        1.2860     1.6760    -1.5830 H     1 <1>   0.1430 
 38 H        5.9250     5.2460     0.1140 H     1 <1>   0.0720 
 39 H        4.9110     5.0660    -1.2970 H     1 <1>   0.0720 
 40 H        6.7280     4.3250    -2.6500 H     1 <1>   0.0720 
 41 H        8.9460     3.7830    -1.8300 H     1 <1>   0.0720 
 42 H        8.5130     4.2360    -0.2040 H     1 <1>   0.0720 
 43 H        7.7950     6.5780    -0.9290 H     1 <1>   0.0720 
 44 H        6.7170     6.7550    -2.2920 H     1 <1>   0.0720 
 45 H        8.3390     6.1700    -2.5370 H     1 <1>   0.0720 
 46 H        8.8630     1.6570    -3.0370 H     1 <1>   0.1430 
 47 H       10.1560    -1.0360     0.8680 H     1 <1>   0.1430 
 48 H       10.4790    -0.1710    -3.2700 H     1 <1>   0.1430 
 49 H        8.4540     0.9570     3.4090 H     1 <1>   0.0720 
 50 H       10.0020     0.7750     2.5930 H     1 <1>   0.0720 
 51 H        8.8730    -0.5870     2.6790 H     1 <1>   0.0720 
 52 H       11.1160    -1.5060    -1.3120 H     1 <1>   0.1430 
@<TRIPOS>BOND
  1   1   2  2   
  2   2   3  am  
  3   2   4  am  
  4   3   5  am  
  5   3   6  1   
  6   4   7  1   
  7   4   8  1   
  8   5   9  2   
  9   5  10  1   
 10   6  11  1   
 11   6  29  1   
 12   6  30  1   
 13   7  10  2   
 14   7  12  1   
 15   8  31  1   
 16   8  32  1   
 17   8  33  1   
 18  10  13  1   
 19  11  14  2   
 20  11  34  1   
 21  12  15  ar  
 22  12  35  1   
 23  13  15  ar  
 24  13  16  1   
 25  14  36  1   
 26  14  37  1   
 27  15  17  ar  
 28  16  18  1   
 29  16  38  1   
 30  16  39  1   
 31  17  19  1   
 32  17  20  1   
 33  18  20  1   
 34  18  21  1   
 35  18  40  1   
 36  19  22  ar  
 37  19  23  ar  
 38  20  41  1   
 39  20  42  1   
 40  21  43  1   
 41  21  44  1   
 42  21  45  1   
 43  22  24  1   
 44  22  25  ar  
 45  23  26  ar  
 46  23  46  1   
 47  24  27  1   
 48  25  28  ar  
 49  25  47  1   
 50  26  28  ar  
 51  26  48  1   
 52  27  49  1   
 53  27  50  1   
 54  27  51  1   
 55  28  52  1   
@<TRIPOS>SUBSTRUCTURE
  1 ****  12 GROUP 4 **** **** 0

# MOE 2024.06 (io_trps.svl 2023.06)
