@<TRIPOS>MOLECULE
2-(4-Ethoxy-benzylamino)-4,5,6,7-tetrahydro-cyclopenta[d][1,2,4]triazolo[1,5-a]p
43 46 1 0 0 
SMALL
USER_CHARGES


@<TRIPOS>ATOM
  1 O       -0.8130    -1.9920    -2.0310 O.2   1 <1>  -0.5700 
  2 C       -0.0610    -2.5130    -1.2160 C.2   1 <1>   0.5650 
  3 N       -0.1560    -3.8770    -0.8400 N.pl3 1 <1>   0.5610 
  4 C        0.9750    -1.7660    -0.5730 C.2   1 <1>  -0.1240 
  5 N       -0.9940    -4.8760    -1.2200 N.2   1 <1>  -0.7070 
  6 C        0.6930    -4.4050     0.0870 C.2   1 <1>   0.2700 
  7 C        1.7990    -2.3180     0.3340 C.2   1 <1>  -0.0380 
  8 C        1.2910    -0.3060    -0.7920 C.3   1 <1>  -0.0220 
  9 C       -0.5670    -5.8590    -0.5190 C.2   1 <1>   0.5990 
 10 N        0.4570    -5.6420     0.3150 N.2   1 <1>  -0.5650 
 11 N        1.6830    -3.6380     0.6890 N.pl3 1 <1>  -0.5840 
 12 C        2.8130    -1.3530     0.8850 C.3   1 <1>  -0.0220 
 13 C        2.5560    -0.0710     0.0640 C.3   1 <1>  -0.1600 
 14 N       -1.1580    -7.0790    -0.6260 N.pl3 1 <1>  -0.8520 
 15 C       -1.6970    -7.6210     0.6310 C.3   1 <1>   0.3530 
 16 C       -3.2010    -7.7690     0.4740 C.ar  1 <1>  -0.1430 
 17 C       -3.7880    -9.0250     0.4130 C.ar  1 <1>  -0.1500 
 18 C       -4.0020    -6.6400     0.3860 C.ar  1 <1>  -0.1500 
 19 C       -5.1600    -9.1530     0.2720 C.ar  1 <1>  -0.1500 
 20 C       -5.3730    -6.7660     0.2440 C.ar  1 <1>  -0.1500 
 21 C       -5.9620    -8.0180     0.1880 C.ar  1 <1>   0.0830 
 22 O       -7.3100    -8.0530     0.0490 O.3   1 <1>  -0.3630 
 23 C       -8.0070    -9.2730    -0.0400 C.3   1 <1>   0.1200 
 24 C       -9.4920    -8.9580    -0.1990 C.3   1 <1>  -0.2400 
 25 H        0.4720     0.3040    -0.4520 H     1 <1>   0.0800 
 26 H        1.4800    -0.1060    -1.8330 H     1 <1>   0.0800 
 27 H        2.2980    -4.1020     1.3680 H     1 <1>   0.4000 
 28 H        3.8140    -1.7170     0.7370 H     1 <1>   0.0800 
 29 H        2.6330    -1.1850     1.9330 H     1 <1>   0.0800 
 30 H        2.4270     0.7790     0.7100 H     1 <1>   0.0800 
 31 H        3.3960     0.1120    -0.5840 H     1 <1>   0.0800 
 32 H       -1.9380    -6.9620    -1.2760 H     1 <1>   0.4000 
 33 H       -1.4830    -6.9690     1.4620 H     1 <1>   0.0800 
 34 H       -1.2390    -8.5760     0.8260 H     1 <1>   0.0800 
 35 H       -3.1790    -9.9100     0.4730 H     1 <1>   0.1500 
 36 H       -3.5610    -5.6580     0.4220 H     1 <1>   0.1500 
 37 H       -5.5820   -10.1390     0.2300 H     1 <1>   0.1500 
 38 H       -5.9950    -5.8920     0.1750 H     1 <1>   0.1500 
 39 H       -7.8310    -9.8330     0.8620 H     1 <1>   0.0800 
 40 H       -7.6390    -9.8130    -0.8950 H     1 <1>   0.0800 
 41 H       -9.8440    -8.4040     0.6530 H     1 <1>   0.0800 
 42 H      -10.0530    -9.8720    -0.2710 H     1 <1>   0.0800 
 43 H       -9.6530    -8.3840    -1.0930 H     1 <1>   0.0800 
@<TRIPOS>BOND
  1   1   2  2   
  2   2   3  1   
  3   2   4  1   
  4   3   5  1   
  5   3   6  1   
  6   4   7  2   
  7   4   8  1   
  8   5   9  2   
  9   6  10  2   
 10   6  11  1   
 11   7  11  1   
 12   7  12  1   
 13   8  13  1   
 14   8  25  1   
 15   8  26  1   
 16   9  10  1   
 17   9  14  1   
 18  11  27  1   
 19  12  13  1   
 20  12  28  1   
 21  12  29  1   
 22  13  30  1   
 23  13  31  1   
 24  14  15  1   
 25  14  32  1   
 26  15  16  1   
 27  15  33  1   
 28  15  34  1   
 29  16  17  ar  
 30  16  18  ar  
 31  17  19  ar  
 32  17  35  1   
 33  18  20  ar  
 34  18  36  1   
 35  19  21  ar  
 36  19  37  1   
 37  20  21  ar  
 38  20  38  1   
 39  21  22  1   
 40  22  23  1   
 41  23  24  1   
 42  23  39  1   
 43  23  40  1   
 44  24  41  1   
 45  24  42  1   
 46  24  43  1   
@<TRIPOS>SUBSTRUCTURE
  1 ****   5 GROUP 4 **** **** 0

# MOE 2024.06 (io_trps.svl 2023.06)
