@<TRIPOS>MOLECULE
1-(4-Methanesulfonylamino-benzoyl)-piperidine-4-carboxylic acid ethyl ester
46 47 1 0 0 
SMALL
USER_CHARGES


@<TRIPOS>ATOM
  1 S        0.2420    -0.0570     0.6260 S.o2  1 <1>   1.3330 
  2 O        0.2650    -1.3750     1.2040 O.2   1 <1>  -0.6500 
  3 O       -0.9450     0.4790     0.0120 O.2   1 <1>  -0.6500 
  4 N        1.4150     0.0080    -0.6250 N.am  1 <1>  -0.7570 
  5 C        0.8690     1.1350     1.7890 C.3   1 <1>  -0.1350 
  6 C        2.7050    -0.4920    -0.6760 C.ar  1 <1>   0.1990 
  7 C        3.4640    -0.2690    -1.8200 C.ar  1 <1>  -0.1500 
  8 C        3.2940    -1.2060     0.3640 C.ar  1 <1>  -0.1500 
  9 C        4.7640    -0.7270    -1.9160 C.ar  1 <1>  -0.1500 
 10 C        4.5940    -1.6630     0.2660 C.ar  1 <1>  -0.1500 
 11 C        5.3680    -1.4260    -0.8700 C.ar  1 <1>   0.0860 
 12 C        6.7330    -1.9000    -0.9550 C.2   1 <1>   0.5440 
 13 O        6.9610    -3.0770    -0.7480 O.2   1 <1>  -0.5700 
 14 N        7.7880    -1.0560    -1.2540 N.am  1 <1>  -0.6600 
 15 C        7.7240     0.4250    -1.1190 C.3   1 <1>   0.1400 
 16 C        9.1510    -1.5870    -1.5350 C.3   1 <1>   0.1400 
 17 C        8.6710     0.8770    -0.0050 C.3   1 <1>  -0.1600 
 18 C       10.1060    -1.1590    -0.4180 C.3   1 <1>  -0.1600 
 19 C       10.1120     0.3700    -0.2300 C.3   1 <1>  -0.0190 
 20 C       11.0680     0.7840     0.8880 C.2   1 <1>   0.6590 
 21 O       10.6860     1.2340     1.9380 O.2   1 <1>  -0.5700 
 22 O       12.3580     0.6220     0.6220 O.3   1 <1>  -0.4300 
 23 C       13.3490     0.9580     1.5640 C.3   1 <1>   0.1200 
 24 C       14.7100     0.6440     0.9510 C.3   1 <1>  -0.2400 
 25 H        0.9790     0.3410    -1.4800 H     1 <1>   0.4200 
 26 H        0.1970     1.2230     2.6200 H     1 <1>   0.0800 
 27 H        0.9650     2.0950     1.3210 H     1 <1>   0.0800 
 28 H        1.8290     0.8290     2.1540 H     1 <1>   0.0800 
 29 H        3.0290     0.2670    -2.6440 H     1 <1>   0.1500 
 30 H        2.7390    -1.4230     1.2570 H     1 <1>   0.1500 
 31 H        5.3310    -0.5500    -2.8130 H     1 <1>   0.1500 
 32 H        5.0310    -2.2220     1.0760 H     1 <1>   0.1500 
 33 H        6.7270     0.7510    -0.8830 H     1 <1>   0.0800 
 34 H        8.0120     0.8750    -2.0540 H     1 <1>   0.0800 
 35 H        9.4900    -1.1990    -2.4790 H     1 <1>   0.0800 
 36 H        9.1370    -2.6620    -1.6080 H     1 <1>   0.0800 
 37 H        8.2990     0.5060     0.9350 H     1 <1>   0.0800 
 38 H        8.6710     1.9510     0.0480 H     1 <1>   0.0800 
 39 H       11.0980    -1.5020    -0.6560 H     1 <1>   0.0800 
 40 H        9.8040    -1.6400     0.4970 H     1 <1>   0.0800 
 41 H       10.4820     0.8170    -1.1350 H     1 <1>   0.0800 
 42 H       13.1830     0.3770     2.4560 H     1 <1>   0.0800 
 43 H       13.2600     2.0060     1.7950 H     1 <1>   0.0800 
 44 H       14.7790    -0.4030     0.7180 H     1 <1>   0.0800 
 45 H       15.4880     0.8900     1.6520 H     1 <1>   0.0800 
 46 H       14.8580     1.2240     0.0580 H     1 <1>   0.0800 
@<TRIPOS>BOND
  1   1   2  2   
  2   1   3  2   
  3   1   4  am  
  4   1   5  1   
  5   4   6  1   
  6   4  25  1   
  7   5  26  1   
  8   5  27  1   
  9   5  28  1   
 10   6   7  ar  
 11   6   8  ar  
 12   7   9  ar  
 13   7  29  1   
 14   8  10  ar  
 15   8  30  1   
 16   9  11  ar  
 17   9  31  1   
 18  10  11  ar  
 19  10  32  1   
 20  11  12  1   
 21  12  13  2   
 22  12  14  am  
 23  14  15  1   
 24  14  16  1   
 25  15  17  1   
 26  15  33  1   
 27  15  34  1   
 28  16  18  1   
 29  16  35  1   
 30  16  36  1   
 31  17  19  1   
 32  17  37  1   
 33  17  38  1   
 34  18  19  1   
 35  18  39  1   
 36  18  40  1   
 37  19  20  1   
 38  19  41  1   
 39  20  21  2   
 40  20  22  1   
 41  22  23  1   
 42  23  24  1   
 43  23  42  1   
 44  23  43  1   
 45  24  44  1   
 46  24  45  1   
 47  24  46  1   
@<TRIPOS>SUBSTRUCTURE
  1 ****  11 GROUP 4 **** **** 0

# MOE 2024.06 (io_trps.svl 2023.06)
