@<TRIPOS>MOLECULE
2-Methoxy-5,N-dimethyl-N-[2-(4-methyl-piperidin-1-yl)-2-oxo-ethyl]-benzenesulfon
50 51 1 0 0 
SMALL
USER_CHARGES


@<TRIPOS>ATOM
  1 S       -0.3440    -0.5110     0.6170 S.o2  1 <1>   1.4470 
  2 O       -1.6560    -0.8640     0.1150 O.2   1 <1>  -0.6500 
  3 O        0.1110    -1.1510     1.8330 O.2   1 <1>  -0.6500 
  4 N        0.7400    -0.9400    -0.6140 N.am  1 <1>  -0.8490 
  5 C       -0.2050     1.2920     0.7500 C.ar  1 <1>  -0.0090 
  6 C        0.9730    -2.4060    -0.6320 C.3   1 <1>   0.2570 
  7 C        0.3390    -0.4670    -1.9430 C.3   1 <1>   0.1160 
  8 C        0.9970     1.9040     1.0970 C.ar  1 <1>   0.0830 
  9 C       -1.3090     2.1000     0.5010 C.ar  1 <1>  -0.1500 
 10 C        2.1790    -2.8490    -1.4740 C.2   1 <1>   0.5690 
 11 O        2.0690     1.1090     1.3440 O.3   1 <1>  -0.3630 
 12 C        1.0760     3.2930     1.1830 C.ar  1 <1>  -0.1500 
 13 C       -1.2380     3.4800     0.5890 C.ar  1 <1>  -0.1440 
 14 O        1.9470    -3.4920    -2.4740 O.2   1 <1>  -0.5700 
 15 N        3.4670    -2.5250    -1.1060 N.am  1 <1>  -0.6600 
 16 C        3.2400     1.6000     1.9580 C.3   1 <1>   0.0400 
 17 C       -0.0360     4.0730     0.9300 C.ar  1 <1>  -0.1500 
 18 C       -2.4620     4.3340     0.3130 C.3   1 <1>  -0.0970 
 19 C        3.8120    -1.6570     0.0580 C.3   1 <1>   0.1400 
 20 C        4.6390    -2.9570    -1.9160 C.3   1 <1>   0.1400 
 21 C        4.8220    -2.3720     0.9600 C.3   1 <1>  -0.1600 
 22 C        5.6510    -3.6810    -1.0220 C.3   1 <1>  -0.1600 
 23 C        6.0670    -2.8160     0.1780 C.3   1 <1>  -0.0800 
 24 C        7.0320    -3.5840     1.0880 C.3   1 <1>  -0.2400 
 25 H        0.0920    -2.9050    -0.9960 H     1 <1>   0.0800 
 26 H        1.1490    -2.7630     0.3670 H     1 <1>   0.0800 
 27 H        0.2010     0.6010    -1.9300 H     1 <1>   0.0800 
 28 H       -0.5840    -0.9340    -2.2490 H     1 <1>   0.0800 
 29 H        1.1020    -0.6970    -2.6670 H     1 <1>   0.0800 
 30 H       -2.2450     1.6380     0.2340 H     1 <1>   0.1500 
 31 H        1.9930     3.7850     1.4420 H     1 <1>   0.1500 
 32 H        3.8870     0.7660     2.1590 H     1 <1>   0.0800 
 33 H        2.9730     2.0840     2.8810 H     1 <1>   0.0800 
 34 H        3.7260     2.2860     1.2880 H     1 <1>   0.0800 
 35 H        0.0380     5.1450     1.0000 H     1 <1>   0.1500 
 36 H       -3.3620     3.7870     0.5290 H     1 <1>   0.0800 
 37 H       -2.4750     4.6300    -0.7210 H     1 <1>   0.0800 
 38 H       -2.4500     5.2180     0.9260 H     1 <1>   0.0800 
 39 H        2.9430    -1.4070     0.6400 H     1 <1>   0.0800 
 40 H        4.2350    -0.7380    -0.3090 H     1 <1>   0.0800 
 41 H        5.0950    -2.0890    -2.3590 H     1 <1>   0.0800 
 42 H        4.3300    -3.6140    -2.7120 H     1 <1>   0.0800 
 43 H        4.3400    -3.2270     1.4030 H     1 <1>   0.0800 
 44 H        5.1090    -1.7100     1.7570 H     1 <1>   0.0800 
 45 H        6.5170    -3.9310    -1.6080 H     1 <1>   0.0800 
 46 H        5.2090    -4.6000    -0.6800 H     1 <1>   0.0800 
 47 H        6.5710    -1.9380    -0.1910 H     1 <1>   0.0800 
 48 H        6.5620    -4.4700     1.4770 H     1 <1>   0.0800 
 49 H        7.3380    -2.9670     1.9140 H     1 <1>   0.0800 
 50 H        7.9110    -3.8740     0.5400 H     1 <1>   0.0800 
@<TRIPOS>BOND
  1   1   2  2   
  2   1   3  2   
  3   1   4  am  
  4   1   5  1   
  5   4   6  1   
  6   4   7  1   
  7   5   8  ar  
  8   5   9  ar  
  9   6  10  1   
 10   6  25  1   
 11   6  26  1   
 12   7  27  1   
 13   7  28  1   
 14   7  29  1   
 15   8  11  1   
 16   8  12  ar  
 17   9  13  ar  
 18   9  30  1   
 19  10  14  2   
 20  10  15  am  
 21  11  16  1   
 22  12  17  ar  
 23  12  31  1   
 24  13  17  ar  
 25  13  18  1   
 26  15  19  1   
 27  15  20  1   
 28  16  32  1   
 29  16  33  1   
 30  16  34  1   
 31  17  35  1   
 32  18  36  1   
 33  18  37  1   
 34  18  38  1   
 35  19  21  1   
 36  19  39  1   
 37  19  40  1   
 38  20  22  1   
 39  20  41  1   
 40  20  42  1   
 41  21  23  1   
 42  21  43  1   
 43  21  44  1   
 44  22  23  1   
 45  22  45  1   
 46  22  46  1   
 47  23  24  1   
 48  23  47  1   
 49  24  48  1   
 50  24  49  1   
 51  24  50  1   
@<TRIPOS>SUBSTRUCTURE
  1 ****   4 GROUP 4 **** **** 0

# MOE 2024.06 (io_trps.svl 2023.06)
