@<TRIPOS>MOLECULE
3-(3-Hydroxy-propyl)-8-(2-methoxy-5-methyl-phenyl)-1,7-dimethyl-1H,8H-imidazo[2,
53 56 1 0 0 
SMALL
USER_CHARGES


@<TRIPOS>ATOM
  1 O        0.8110    -0.5240     0.4340 O.2   1 <1>  -0.5740 
  2 C        1.7360     0.2440     0.2640 C.2   1 <1>   0.6860 
  3 N        1.4920     1.5490    -0.1570 N.am  1 <1>  -0.4250 
  4 N        3.0380    -0.1870     0.4880 N.am  1 <1>  -0.4410 
  5 C        2.5340     2.4390    -0.3790 C.2   1 <1>   0.7000 
  6 C        0.0830     2.0020    -0.3550 C.3   1 <1>   0.1330 
  7 C        4.0690     0.7030     0.2580 C.2   1 <1>   0.4210 
  8 C        3.3130    -1.5800     0.9520 C.3   1 <1>   0.0530 
  9 O        2.3200     3.5790    -0.7570 O.2   1 <1>  -0.5740 
 10 C        3.8640     1.9760    -0.1580 C.2   1 <1>   0.2710 
 11 C       -0.4900     2.5290     0.9630 C.3   1 <1>  -0.1670 
 12 N        5.4100     0.4810     0.3820 N.pl3 1 <1>  -0.7030 
 13 N        5.1340     2.5560    -0.2930 N.pl3 1 <1>  -0.6330 
 14 C       -1.9340     2.9870     0.7750 C.3   1 <1>   0.1130 
 15 C        6.0150     1.6200     0.0330 C.cat 1 <1>   1.0690 
 16 C        5.8570     3.6620    -0.6910 C.2   1 <1>   0.2230 
 17 O       -2.3920     3.4740     1.9820 O.3   1 <1>  -0.6840 
 18 N        7.2760     2.0520    -0.0890 N.pl3 1 <1>  -0.5550 
 19 C        7.1670     3.3520    -0.5720 C.2   1 <1>   0.1580 
 20 C        8.4320     1.2660     0.1290 C.ar  1 <1>   0.3050 
 21 C        8.3810     4.2000    -0.9060 C.3   1 <1>  -0.1090 
 22 C        8.6170     0.0460    -0.5340 C.ar  1 <1>   0.0750 
 23 C        9.3920     1.7010     1.0300 C.ar  1 <1>  -0.1570 
 24 O        7.6430    -0.3780    -1.3930 O.3   1 <1>  -0.3680 
 25 C        9.7680    -0.6980    -0.2950 C.ar  1 <1>  -0.1570 
 26 C       10.5350     0.9580     1.2700 C.ar  1 <1>  -0.1500 
 27 C        7.9070    -1.3880    -2.3460 C.3   1 <1>   0.0320 
 28 C       10.7180    -0.2390     0.6000 C.ar  1 <1>  -0.1570 
 29 C       11.5850     1.4440     2.2530 C.3   1 <1>  -0.1040 
 30 H       -0.5170     1.1810    -0.7110 H     1 <1>   0.0730 
 31 H        0.0440     2.7750    -1.1050 H     1 <1>   0.0730 
 32 H        2.4610    -1.9770     1.4780 H     1 <1>   0.0730 
 33 H        4.1530    -1.5950     1.6220 H     1 <1>   0.0730 
 34 H        3.5170    -2.2100     0.1040 H     1 <1>   0.0730 
 35 H        0.0980     3.3670     1.2960 H     1 <1>   0.0730 
 36 H       -0.4610     1.7470     1.7010 H     1 <1>   0.0730 
 37 H        5.9180    -0.3860     0.5510 H     1 <1>   0.4450 
 38 H       -2.5720     2.1730     0.4730 H     1 <1>   0.0730 
 39 H       -1.9990     3.7830     0.0520 H     1 <1>   0.0730 
 40 H        5.3840     4.5710    -1.0330 H     1 <1>   0.1430 
 41 H       -2.3880     2.7710     2.6600 H     1 <1>   0.3950 
 42 H        9.0150     3.6810    -1.6030 H     1 <1>   0.0730 
 43 H        8.9460     4.4160    -0.0170 H     1 <1>   0.0730 
 44 H        8.0780     5.1320    -1.3490 H     1 <1>   0.0730 
 45 H        9.2480     2.6290     1.5530 H     1 <1>   0.1430 
 46 H        9.9490    -1.6360    -0.7870 H     1 <1>   0.1430 
 47 H        7.0600    -1.4620    -3.0050 H     1 <1>   0.0730 
 48 H        8.0530    -2.3250    -1.8380 H     1 <1>   0.0730 
 49 H        8.7830    -1.1190    -2.9110 H     1 <1>   0.0730 
 50 H       11.6060    -0.8230     0.7770 H     1 <1>   0.1430 
 51 H       11.1700     2.1630     2.9360 H     1 <1>   0.0730 
 52 H       12.3990     1.9030     1.7200 H     1 <1>   0.0730 
 53 H       11.9710     0.6190     2.8250 H     1 <1>   0.0730 
@<TRIPOS>BOND
  1   1   2  2   
  2   2   3  am  
  3   2   4  am  
  4   3   5  am  
  5   3   6  1   
  6   4   7  1   
  7   4   8  1   
  8   5   9  2   
  9   5  10  1   
 10   6  11  1   
 11   6  30  1   
 12   6  31  1   
 13   7  10  2   
 14   7  12  1   
 15   8  32  1   
 16   8  33  1   
 17   8  34  1   
 18  10  13  1   
 19  11  14  1   
 20  11  35  1   
 21  11  36  1   
 22  12  15  ar  
 23  12  37  1   
 24  13  15  ar  
 25  13  16  1   
 26  14  17  1   
 27  14  38  1   
 28  14  39  1   
 29  15  18  ar  
 30  16  19  2   
 31  16  40  1   
 32  17  41  1   
 33  18  19  1   
 34  18  20  1   
 35  19  21  1   
 36  20  22  ar  
 37  20  23  ar  
 38  21  42  1   
 39  21  43  1   
 40  21  44  1   
 41  22  24  1   
 42  22  25  ar  
 43  23  26  ar  
 44  23  45  1   
 45  24  27  1   
 46  25  28  ar  
 47  25  46  1   
 48  26  28  ar  
 49  26  29  1   
 50  27  47  1   
 51  27  48  1   
 52  27  49  1   
 53  28  50  1   
 54  29  51  1   
 55  29  52  1   
 56  29  53  1   
@<TRIPOS>SUBSTRUCTURE
  1 ****  15 GROUP 4 **** **** 0

# MOE 2024.06 (io_trps.svl 2023.06)
