@<TRIPOS>MOLECULE
1-Methyl-3-(2-oxo-propyl)-8-m-tolyl-5,6,7,8-tetrahydro-1H-1,3,4b,8,9-pentaaza-fl
49 52 1 0 0 
SMALL
USER_CHARGES


@<TRIPOS>ATOM
  1 O        1.1090     0.1690    -1.6990 O.2   1 <1>  -0.5750 
  2 C        2.0200     0.9080    -1.3850 C.2   1 <1>   0.6860 
  3 N        1.7980     2.2750    -1.3000 N.am  1 <1>  -0.4260 
  4 N        3.2760     0.3850    -1.1070 N.am  1 <1>  -0.4420 
  5 C        2.8200     3.1510    -0.9710 C.2   1 <1>   0.6990 
  6 C        0.3940     2.7440    -1.0750 C.3   1 <1>   0.1940 
  7 C        4.2610     1.2580    -0.6840 C.2   1 <1>   0.4200 
  8 C        3.5230    -1.0850    -1.1710 C.3   1 <1>   0.0520 
  9 O        2.6360     4.3570    -0.9990 O.2   1 <1>  -0.5750 
 10 C        4.0860     2.5960    -0.6070 C.2   1 <1>   0.2700 
 11 C        0.0490     2.7010     0.4130 C.2   1 <1>   0.4420 
 12 N        5.5290     0.9610    -0.2840 N.pl3 1 <1>  -0.7040 
 13 N        5.3000     3.1220    -0.1440 N.pl3 1 <1>  -0.7670 
 14 O        0.8770     2.4720     1.2480 O.2   1 <1>  -0.5750 
 15 C       -1.3920     2.9660     0.7900 C.3   1 <1>  -0.1860 
 16 C        6.1300     2.1040     0.0390 C.cat 1 <1>   1.0690 
 17 C        5.6150     4.5320     0.1530 C.3   1 <1>   0.3480 
 18 N        7.3900     2.2520     0.4890 N.pl3 1 <1>  -0.5800 
 19 C        6.7760     4.5710     1.1540 C.3   1 <1>  -0.1680 
 20 C        8.2670     1.1730     0.6260 C.ar  1 <1>   0.3050 
 21 C        7.9170     3.6160     0.7680 C.3   1 <1>   0.1600 
 22 C        8.8210     0.5760    -0.4990 C.ar  1 <1>  -0.1580 
 23 C        8.5670     0.6660     1.8820 C.ar  1 <1>  -0.1580 
 24 C        9.6500    -0.5250    -0.3780 C.ar  1 <1>  -0.1510 
 25 C        9.3990    -0.4300     2.0100 C.ar  1 <1>  -0.1580 
 26 C        9.9360    -1.0250     0.8810 C.ar  1 <1>  -0.1580 
 27 C       10.2570    -1.1790    -1.6070 C.3   1 <1>  -0.1040 
 28 H       -0.2960     2.1250    -1.6200 H     1 <1>   0.0720 
 29 H        0.2820     3.7510    -1.4360 H     1 <1>   0.0720 
 30 H        2.8350    -1.5530    -1.8550 H     1 <1>   0.0720 
 31 H        3.3830    -1.5180    -0.1950 H     1 <1>   0.0720 
 32 H        4.5220    -1.2850    -1.5140 H     1 <1>   0.0720 
 33 H        5.9660     0.0460    -0.2030 H     1 <1>   0.4440 
 34 H       -1.6870     3.9430     0.4570 H     1 <1>   0.0720 
 35 H       -1.5020     2.9160     1.8590 H     1 <1>   0.0720 
 36 H       -2.0310     2.2270     0.3430 H     1 <1>   0.0720 
 37 H        4.7520     5.0270     0.5680 H     1 <1>   0.0720 
 38 H        5.8910     5.0330    -0.7600 H     1 <1>   0.0720 
 39 H        6.4090     4.3090     2.1320 H     1 <1>   0.0720 
 40 H        7.1550     5.5760     1.2190 H     1 <1>   0.0720 
 41 H        8.4190     3.9810    -0.1130 H     1 <1>   0.0720 
 42 H        8.6370     3.5720     1.5690 H     1 <1>   0.0720 
 43 H        8.6090     0.9770    -1.4740 H     1 <1>   0.1420 
 44 H        8.1510     1.1240     2.7610 H     1 <1>   0.1420 
 45 H        9.6350    -0.8250     2.9850 H     1 <1>   0.1420 
 46 H       10.5850    -1.8780     0.9890 H     1 <1>   0.1420 
 47 H        9.6920    -0.9410    -2.4900 H     1 <1>   0.0720 
 48 H       10.2720    -2.2480    -1.4920 H     1 <1>   0.0720 
 49 H       11.2670    -0.8340    -1.7410 H     1 <1>   0.0720 
@<TRIPOS>BOND
  1   1   2  2   
  2   2   3  am  
  3   2   4  am  
  4   3   5  am  
  5   3   6  1   
  6   4   7  1   
  7   4   8  1   
  8   5   9  2   
  9   5  10  1   
 10   6  11  1   
 11   6  28  1   
 12   6  29  1   
 13   7  10  2   
 14   7  12  1   
 15   8  30  1   
 16   8  31  1   
 17   8  32  1   
 18  10  13  1   
 19  11  14  2   
 20  11  15  1   
 21  12  16  ar  
 22  12  33  1   
 23  13  16  ar  
 24  13  17  1   
 25  15  34  1   
 26  15  35  1   
 27  15  36  1   
 28  16  18  ar  
 29  17  19  1   
 30  17  37  1   
 31  17  38  1   
 32  18  20  1   
 33  18  21  1   
 34  19  21  1   
 35  19  39  1   
 36  19  40  1   
 37  20  22  ar  
 38  20  23  ar  
 39  21  41  1   
 40  21  42  1   
 41  22  24  ar  
 42  22  43  1   
 43  23  25  ar  
 44  23  44  1   
 45  24  26  ar  
 46  24  27  1   
 47  25  26  ar  
 48  25  45  1   
 49  26  46  1   
 50  27  47  1   
 51  27  48  1   
 52  27  49  1   
@<TRIPOS>SUBSTRUCTURE
  1 ****  12 GROUP 4 **** **** 0

# MOE 2024.06 (io_trps.svl 2023.06)
