@<TRIPOS>MOLECULE
1-(4-Ethoxy-3-methyl-benzenesulfonyl)-piperidine-3-carboxylic acid (2-methoxy-et
54 55 1 0 0 
SMALL
USER_CHARGES


@<TRIPOS>ATOM
  1 S       -0.1350    -1.6050     1.7660 S.o2  1 <1>   1.4470 
  2 O       -0.9250    -2.7060     2.2700 O.2   1 <1>  -0.6500 
  3 O        0.8190    -0.9620     2.6450 O.2   1 <1>  -0.6500 
  4 N        0.7560    -2.2020     0.4520 N.am  1 <1>  -0.8490 
  5 C       -1.2280    -0.3700     1.0080 C.ar  1 <1>  -0.0090 
  6 C        1.7060    -1.2170    -0.1150 C.3   1 <1>   0.1960 
  7 C        1.3280    -3.5250     0.7490 C.3   1 <1>   0.1960 
  8 C       -1.9650    -0.6720    -0.1300 C.ar  1 <1>  -0.1500 
  9 C       -1.3590     0.9040     1.5470 C.ar  1 <1>  -0.1500 
 10 C        3.1500    -1.4720     0.3430 C.3   1 <1>  -0.0190 
 11 C        2.4630    -3.8750    -0.2180 C.3   1 <1>  -0.1600 
 12 C       -2.8000     0.2590    -0.7270 C.ar  1 <1>  -0.1430 
 13 C       -2.1890     1.8470     0.9670 C.ar  1 <1>  -0.1500 
 14 C        4.0690    -0.3700    -0.1600 C.2   1 <1>   0.5690 
 15 C        3.6260    -2.8680    -0.1200 C.3   1 <1>  -0.1600 
 16 C       -2.9160     1.5320    -0.1770 C.ar  1 <1>   0.0830 
 17 C       -3.5830    -0.1180    -1.9760 C.3   1 <1>  -0.0960 
 18 O        3.9590     0.0210    -1.2970 O.2   1 <1>  -0.5700 
 19 N        5.0060     0.1370     0.6820 N.am  1 <1>  -0.7300 
 20 O       -3.7440     2.4140    -0.7930 O.3   1 <1>  -0.3630 
 21 C        5.9430     1.2390     0.3370 C.3   1 <1>   0.1400 
 22 C       -3.9290     3.7240    -0.3130 C.3   1 <1>   0.1200 
 23 C        7.0830     0.7230    -0.5420 C.3   1 <1>   0.1200 
 24 C       -4.9150     4.4310    -1.2380 C.3   1 <1>  -0.2400 
 25 O        8.0390     1.7300    -0.6620 O.3   1 <1>  -0.5600 
 26 C        9.0900     1.4080    -1.5150 C.3   1 <1>   0.0400 
 27 H        1.4130    -0.2130     0.1410 H     1 <1>   0.0800 
 28 H        1.6710    -1.2910    -1.1900 H     1 <1>   0.0800 
 29 H        0.5480    -4.2670     0.6870 H     1 <1>   0.0800 
 30 H        1.7130    -3.5370     1.7570 H     1 <1>   0.0800 
 31 H       -1.8750    -1.6580    -0.5530 H     1 <1>   0.1500 
 32 H       -0.8030     1.1610     2.4330 H     1 <1>   0.1500 
 33 H        3.1550    -1.4380     1.4170 H     1 <1>   0.0800 
 34 H        2.0660    -3.8800    -1.2180 H     1 <1>   0.0800 
 35 H        2.8250    -4.8670    -0.0090 H     1 <1>   0.0800 
 36 H       -2.2550     2.8170     1.4210 H     1 <1>   0.1500 
 37 H        4.3660    -3.2280     0.5730 H     1 <1>   0.0800 
 38 H        4.0930    -2.7950    -1.0880 H     1 <1>   0.0800 
 39 H       -3.3830    -1.1320    -2.2720 H     1 <1>   0.0800 
 40 H       -3.3130     0.5360    -2.7850 H     1 <1>   0.0800 
 41 H       -4.6370    -0.0160    -1.7890 H     1 <1>   0.0800 
 42 H        5.0700    -0.2120     1.6400 H     1 <1>   0.3700 
 43 H        6.3460     1.6560     1.2430 H     1 <1>   0.0800 
 44 H        5.4080     2.0070    -0.1950 H     1 <1>   0.0800 
 45 H       -2.9770     4.2260    -0.3170 H     1 <1>   0.0800 
 46 H       -4.3200     3.6680     0.6880 H     1 <1>   0.0800 
 47 H        6.7090     0.4760    -1.5210 H     1 <1>   0.0800 
 48 H        7.5490    -0.1340    -0.0900 H     1 <1>   0.0800 
 49 H       -4.5230     4.4670    -2.2390 H     1 <1>   0.0800 
 50 H       -5.0780     5.4380    -0.8970 H     1 <1>   0.0800 
 51 H       -5.8570     3.9130    -1.2400 H     1 <1>   0.0800 
 52 H        9.7710     2.2400    -1.5370 H     1 <1>   0.0800 
 53 H        8.7030     1.2300    -2.5030 H     1 <1>   0.0800 
 54 H        9.5960     0.5340    -1.1420 H     1 <1>   0.0800 
@<TRIPOS>BOND
  1   1   2  2   
  2   1   3  2   
  3   1   4  am  
  4   1   5  1   
  5   4   6  1   
  6   4   7  1   
  7   5   8  ar  
  8   5   9  ar  
  9   6  10  1   
 10   6  27  1   
 11   6  28  1   
 12   7  11  1   
 13   7  29  1   
 14   7  30  1   
 15   8  12  ar  
 16   8  31  1   
 17   9  13  ar  
 18   9  32  1   
 19  10  14  1   
 20  10  15  1   
 21  10  33  1   
 22  11  15  1   
 23  11  34  1   
 24  11  35  1   
 25  12  16  ar  
 26  12  17  1   
 27  13  16  ar  
 28  13  36  1   
 29  14  18  2   
 30  14  19  am  
 31  15  37  1   
 32  15  38  1   
 33  16  20  1   
 34  17  39  1   
 35  17  40  1   
 36  17  41  1   
 37  19  21  1   
 38  19  42  1   
 39  20  22  1   
 40  21  23  1   
 41  21  43  1   
 42  21  44  1   
 43  22  24  1   
 44  22  45  1   
 45  22  46  1   
 46  23  25  1   
 47  23  47  1   
 48  23  48  1   
 49  24  49  1   
 50  24  50  1   
 51  24  51  1   
 52  25  26  1   
 53  26  52  1   
 54  26  53  1   
 55  26  54  1   
@<TRIPOS>SUBSTRUCTURE
  1 ****   6 GROUP 4 **** **** 0

# MOE 2024.06 (io_trps.svl 2023.06)
