@<TRIPOS>MOLECULE
1-(3,5-Dimethyl-phenyl)-5-oxo-pyrrolidine-3-carboxylic acid (2-methoxy-phenyl)-a
47 49 1 0 0 
SMALL
USER_CHARGES


@<TRIPOS>ATOM
  1 O        0.1350    -0.2880     1.3990 O.2   1 <1>  -0.5700 
  2 C        1.2760    -0.3370     1.0100 C.2   1 <1>   0.5690 
  3 N        1.9310    -1.4220     0.4990 N.am  1 <1>  -0.4770 
  4 C        2.1580     0.8800     1.0190 C.3   1 <1>  -0.0990 
  5 C        1.4390    -2.7240     0.2750 C.ar  1 <1>   0.1170 
  6 C        3.3110    -1.0560     0.1170 C.3   1 <1>   0.1400 
  7 C        3.3000     0.4770     0.0780 C.3   1 <1>  -0.0190 
  8 C        2.2600    -3.8350     0.4400 C.ar  1 <1>  -0.1500 
  9 C        0.1250    -2.9340    -0.1320 C.ar  1 <1>  -0.1500 
 10 C        4.6410     1.0830     0.4520 C.2   1 <1>   0.5690 
 11 C        1.7940    -5.1160     0.1980 C.ar  1 <1>  -0.1440 
 12 C       -0.3570    -4.2080    -0.3760 C.ar  1 <1>  -0.1440 
 13 O        5.2050     0.6840     1.4420 O.2   1 <1>  -0.5700 
 14 N        5.1500     2.0630    -0.3480 N.am  1 <1>  -0.5470 
 15 C        0.4840    -5.2970    -0.2130 C.ar  1 <1>  -0.1500 
 16 C        2.7020    -6.3190     0.3800 C.3   1 <1>  -0.0970 
 17 C       -1.7940    -4.4170    -0.8180 C.3   1 <1>  -0.0970 
 18 C        6.4550     2.5760    -0.3080 C.ar  1 <1>   0.1170 
 19 C        7.5630     1.7930    -0.6510 C.ar  1 <1>   0.0830 
 20 C        6.6610     3.8960     0.0670 C.ar  1 <1>  -0.1500 
 21 O        7.3860     0.5030    -1.0340 O.3   1 <1>  -0.3630 
 22 C        8.8400     2.3340    -0.6230 C.ar  1 <1>  -0.1500 
 23 C        7.9370     4.4330     0.1000 C.ar  1 <1>  -0.1500 
 24 C        7.9220    -0.4750    -0.1710 C.3   1 <1>   0.0400 
 25 C        9.0270     3.6530    -0.2460 C.ar  1 <1>  -0.1500 
 26 H        2.5110     1.0390     2.0230 H     1 <1>   0.0800 
 27 H        1.6290     1.7470     0.6700 H     1 <1>   0.0800 
 28 H        3.5690    -1.4740    -0.8400 H     1 <1>   0.0800 
 29 H        3.9880    -1.4220     0.8700 H     1 <1>   0.0800 
 30 H        3.0420     0.7700    -0.9240 H     1 <1>   0.0800 
 31 H        3.2730    -3.6980     0.7680 H     1 <1>   0.1500 
 32 H       -0.5240    -2.0870    -0.2580 H     1 <1>   0.1500 
 33 H        4.5970     2.3570    -1.1500 H     1 <1>   0.3700 
 34 H        0.1150    -6.2890    -0.4050 H     1 <1>   0.1500 
 35 H        3.5430    -6.0710     1.0010 H     1 <1>   0.0800 
 36 H        3.0620    -6.6500    -0.5770 H     1 <1>   0.0800 
 37 H        2.1610    -7.1230     0.8460 H     1 <1>   0.0800 
 38 H       -2.3910    -3.5540    -0.5860 H     1 <1>   0.0800 
 39 H       -2.2160    -5.2670    -0.3140 H     1 <1>   0.0800 
 40 H       -1.8270    -4.5870    -1.8790 H     1 <1>   0.0800 
 41 H        5.8190     4.5060     0.3400 H     1 <1>   0.1500 
 42 H        9.6830     1.7300    -0.9020 H     1 <1>   0.1500 
 43 H        8.0830     5.4580     0.3950 H     1 <1>   0.1500 
 44 H        7.5950    -1.4400    -0.5120 H     1 <1>   0.0800 
 45 H        7.5600    -0.2950     0.8260 H     1 <1>   0.0800 
 46 H        8.9950    -0.4200    -0.1970 H     1 <1>   0.0800 
 47 H       10.0180     4.0710    -0.2230 H     1 <1>   0.1500 
@<TRIPOS>BOND
  1   1   2  2   
  2   2   3  am  
  3   2   4  1   
  4   3   5  1   
  5   3   6  1   
  6   4   7  1   
  7   4  26  1   
  8   4  27  1   
  9   5   8  ar  
 10   5   9  ar  
 11   6   7  1   
 12   6  28  1   
 13   6  29  1   
 14   7  10  1   
 15   7  30  1   
 16   8  11  ar  
 17   8  31  1   
 18   9  12  ar  
 19   9  32  1   
 20  10  13  2   
 21  10  14  am  
 22  11  15  ar  
 23  11  16  1   
 24  12  15  ar  
 25  12  17  1   
 26  14  18  1   
 27  14  33  1   
 28  15  34  1   
 29  16  35  1   
 30  16  36  1   
 31  16  37  1   
 32  17  38  1   
 33  17  39  1   
 34  17  40  1   
 35  18  19  ar  
 36  18  20  ar  
 37  19  21  1   
 38  19  22  ar  
 39  20  23  ar  
 40  20  41  1   
 41  21  24  1   
 42  22  25  ar  
 43  22  42  1   
 44  23  25  ar  
 45  23  43  1   
 46  24  44  1   
 47  24  45  1   
 48  24  46  1   
 49  25  47  1   
@<TRIPOS>SUBSTRUCTURE
  1 ****   6 GROUP 4 **** **** 0

# MOE 2024.06 (io_trps.svl 2023.06)
