@<TRIPOS>MOLECULE
8-(3-Chloro-2-methyl-phenyl)-3-(2-methoxy-ethyl)-1,6-dimethyl-5,6,7,8-tetrahydro
54 57 1 0 0 
SMALL
USER_CHARGES


@<TRIPOS>ATOM
  1 CL      -2.1550    -1.4320     2.0900 Cl    1 <1>  -0.1840 
  2 C       -2.8560    -0.9180     0.5740 C.ar  1 <1>   0.1700 
  3 C       -3.7200     0.1670     0.5320 C.ar  1 <1>  -0.1500 
  4 C       -2.5240    -1.6360    -0.5590 C.ar  1 <1>  -0.1570 
  5 C       -4.2860     0.5100    -0.6990 C.ar  1 <1>   0.3050 
  6 C       -4.0130     0.9440     1.8200 C.3   1 <1>  -0.1040 
  7 C       -3.0670    -1.2750    -1.7780 C.ar  1 <1>  -0.1570 
  8 N       -5.2250     1.5420    -0.8140 N.pl3 1 <1>  -0.5790 
  9 C       -3.9440    -0.2080    -1.8410 C.ar  1 <1>  -0.1570 
 10 C       -6.4920     1.4220    -0.3780 C.cat 1 <1>   1.0690 
 11 C       -4.7900     2.8090    -1.4680 C.3   1 <1>   0.1610 
 12 N       -7.0520     0.3390     0.1560 N.pl3 1 <1>  -0.7030 
 13 N       -7.3730     2.4110    -0.4230 N.pl3 1 <1>  -0.7670 
 14 C       -5.5760     4.0160    -0.9200 C.3   1 <1>  -0.0870 
 15 C       -8.3430     0.6460     0.4640 C.2   1 <1>   0.4210 
 16 C       -8.5750     1.9310     0.1170 C.2   1 <1>   0.2710 
 17 C       -7.0950     3.7650    -0.9480 C.3   1 <1>   0.3490 
 18 C       -5.2180     5.2900    -1.7010 C.3   1 <1>  -0.2460 
 19 N       -9.2970    -0.1720     1.0360 N.am  1 <1>  -0.4410 
 20 C       -9.8700     2.4910     0.3520 C.2   1 <1>   0.7000 
 21 C      -10.5520     0.3660     1.2920 C.2   1 <1>   0.6870 
 22 C       -8.9830    -1.5890     1.3900 C.3   1 <1>   0.0530 
 23 O      -10.1250     3.6350     0.0150 O.2   1 <1>  -0.5740 
 24 N      -10.8230     1.6920     0.9670 N.am  1 <1>  -0.4250 
 25 O      -11.4130    -0.3250     1.7940 O.2   1 <1>  -0.5740 
 26 C      -12.1670     2.2660     1.2970 C.3   1 <1>   0.1330 
 27 C      -13.1730     1.9650     0.1870 C.3   1 <1>   0.1130 
 28 O      -14.3730     2.5810     0.5170 O.3   1 <1>  -0.5640 
 29 C      -15.3920     2.3570    -0.4020 C.3   1 <1>   0.0330 
 30 H       -1.8440    -2.4680    -0.4850 H     1 <1>   0.1430 
 31 H       -4.6910     0.3890     2.4430 H     1 <1>   0.0730 
 32 H       -4.4300     1.9150     1.6280 H     1 <1>   0.0730 
 33 H       -3.1020     1.1010     2.3720 H     1 <1>   0.0730 
 34 H       -2.8060    -1.8250    -2.6680 H     1 <1>   0.1430 
 35 H       -4.3670     0.0650    -2.7910 H     1 <1>   0.1430 
 36 H       -4.9450     2.7220    -2.5310 H     1 <1>   0.0730 
 37 H       -3.7370     2.9600    -1.2960 H     1 <1>   0.0730 
 38 H       -6.5680    -0.5440     0.3000 H     1 <1>   0.4450 
 39 H       -5.2800     4.1740     0.1030 H     1 <1>   0.0730 
 40 H       -7.6000     4.5060    -0.3500 H     1 <1>   0.0730 
 41 H       -7.4670     3.8340    -1.9570 H     1 <1>   0.0730 
 42 H       -5.4840     5.1960    -2.7410 H     1 <1>   0.0730 
 43 H       -4.1600     5.4840    -1.6380 H     1 <1>   0.0730 
 44 H       -5.7350     6.1410    -1.2920 H     1 <1>   0.0730 
 45 H       -8.4550    -1.6210     2.3270 H     1 <1>   0.0730 
 46 H       -8.3810    -2.0430     0.6220 H     1 <1>   0.0730 
 47 H       -9.8860    -2.1680     1.4870 H     1 <1>   0.0730 
 48 H      -12.0930     3.3320     1.4270 H     1 <1>   0.0730 
 49 H      -12.5250     1.8440     2.2210 H     1 <1>   0.0730 
 50 H      -13.3420     0.9040     0.1090 H     1 <1>   0.0730 
 51 H      -12.8330     2.3670    -0.7520 H     1 <1>   0.0730 
 52 H      -16.2720     2.8720    -0.0580 H     1 <1>   0.0730 
 53 H      -15.5910     1.3010    -0.4630 H     1 <1>   0.0730 
 54 H      -15.0980     2.7450    -1.3620 H     1 <1>   0.0730 
@<TRIPOS>BOND
  1   1   2  1   
  2   2   3  ar  
  3   2   4  ar  
  4   3   5  ar  
  5   3   6  1   
  6   4   7  ar  
  7   4  30  1   
  8   5   8  1   
  9   5   9  ar  
 10   6  31  1   
 11   6  32  1   
 12   6  33  1   
 13   7   9  ar  
 14   7  34  1   
 15   8  10  ar  
 16   8  11  1   
 17   9  35  1   
 18  10  12  ar  
 19  10  13  ar  
 20  11  14  1   
 21  11  36  1   
 22  11  37  1   
 23  12  15  1   
 24  12  38  1   
 25  13  16  1   
 26  13  17  1   
 27  14  17  1   
 28  14  18  1   
 29  14  39  1   
 30  15  16  2   
 31  15  19  1   
 32  16  20  1   
 33  17  40  1   
 34  17  41  1   
 35  18  42  1   
 36  18  43  1   
 37  18  44  1   
 38  19  21  am  
 39  19  22  1   
 40  20  23  2   
 41  20  24  am  
 42  21  24  am  
 43  21  25  2   
 44  22  45  1   
 45  22  46  1   
 46  22  47  1   
 47  24  26  1   
 48  26  27  1   
 49  26  48  1   
 50  26  49  1   
 51  27  28  1   
 52  27  50  1   
 53  27  51  1   
 54  28  29  1   
 55  29  52  1   
 56  29  53  1   
 57  29  54  1   
@<TRIPOS>SUBSTRUCTURE
  1 ****  12 GROUP 4 **** **** 0

# MOE 2024.06 (io_trps.svl 2023.06)
