@<TRIPOS>MOLECULE
6-(4-Ethoxy-phenyl)-3-ethyl-[1,2,4]triazolo[3,4-b][1,3,4]thiadiazole
33 35 1 0 0 
SMALL
USER_CHARGES


@<TRIPOS>ATOM
  1 S       -0.4200    -0.1970    -0.0010 S.3   1 <1>  -0.1970 
  2 C        0.5080     1.2800     0.0030 C.2   1 <1>   0.2420 
  3 C       -1.9250     0.7730     0.0040 C.2   1 <1>   0.5050 
  4 N        1.7530     1.5970     0.0020 N.2   1 <1>  -0.3380 
  5 N       -0.3300     2.2980     0.0070 N.pl3 1 <1>   0.5050 
  6 N       -1.7000     2.0410     0.0080 N.2   1 <1>  -0.6520 
  7 C       -3.2010     0.0840     0.0030 C.ar  1 <1>   0.0860 
  8 N        1.7540     2.9450     0.0060 N.2   1 <1>  -0.3380 
  9 C        0.5150     3.3430     0.0090 C.2   1 <1>   0.0060 
 10 C       -3.3240    -1.3110    -0.0010 C.ar  1 <1>  -0.1500 
 11 C       -4.3900     0.8190     0.0070 C.ar  1 <1>  -0.1500 
 12 C        0.0150     4.7810     0.0150 C.3   1 <1>   0.0200 
 13 C       -4.5610    -1.9270    -0.0020 C.ar  1 <1>  -0.1500 
 14 C       -5.6310     0.2100     0.0070 C.ar  1 <1>  -0.1500 
 15 C        1.1490     5.8140     0.0130 C.3   1 <1>  -0.2400 
 16 C       -5.7240    -1.1780     0.0020 C.ar  1 <1>   0.0830 
 17 O       -6.8930    -1.8600     0.0010 O.3   1 <1>  -0.3630 
 18 C       -8.1370    -1.1990     0.0050 C.3   1 <1>   0.1200 
 19 C       -9.2340    -2.2600     0.0030 C.3   1 <1>  -0.2400 
 20 H       -2.4510    -1.9390    -0.0040 H     1 <1>   0.1500 
 21 H       -4.3400     1.8950     0.0110 H     1 <1>   0.1500 
 22 H       -0.5970     4.9320     0.8870 H     1 <1>   0.0800 
 23 H       -0.6030     4.9360    -0.8530 H     1 <1>   0.0800 
 24 H       -4.6370    -3.0000    -0.0050 H     1 <1>   0.1500 
 25 H       -6.5110     0.8250     0.0100 H     1 <1>   0.1500 
 26 H        1.7670     5.6860     0.8850 H     1 <1>   0.0800 
 27 H        0.7460     6.8100     0.0170 H     1 <1>   0.0800 
 28 H        1.7620     5.6900    -0.8620 H     1 <1>   0.0800 
 29 H       -8.2000    -0.5850    -0.8760 H     1 <1>   0.0800 
 30 H       -8.1980    -0.5910     0.8910 H     1 <1>   0.0800 
 31 H       -9.1540    -2.8720    -0.8770 H     1 <1>   0.0800 
 32 H      -10.1990    -1.7870     0.0060 H     1 <1>   0.0800 
 33 H       -9.1510    -2.8780     0.8790 H     1 <1>   0.0800 
@<TRIPOS>BOND
  1   1   2  1   
  2   1   3  1   
  3   2   4  2   
  4   2   5  1   
  5   3   6  2   
  6   3   7  1   
  7   4   8  1   
  8   5   6  1   
  9   5   9  1   
 10   7  10  ar  
 11   7  11  ar  
 12   8   9  2   
 13   9  12  1   
 14  10  13  ar  
 15  10  20  1   
 16  11  14  ar  
 17  11  21  1   
 18  12  15  1   
 19  12  22  1   
 20  12  23  1   
 21  13  16  ar  
 22  13  24  1   
 23  14  16  ar  
 24  14  25  1   
 25  15  26  1   
 26  15  27  1   
 27  15  28  1   
 28  16  17  1   
 29  17  18  1   
 30  18  19  1   
 31  18  29  1   
 32  18  30  1   
 33  19  31  1   
 34  19  32  1   
 35  19  33  1   
@<TRIPOS>SUBSTRUCTURE
  1 ****   3 GROUP 4 **** **** 0

# MOE 2024.06 (io_trps.svl 2023.06)
