@<TRIPOS>MOLECULE
3-[3-(4-Chloro-phenyl)-[1,2,4]oxadiazol-5-yl]-N-(2-methoxy-ethyl)-propionamide
37 38 1 0 0 
SMALL
USER_CHARGES


@<TRIPOS>ATOM
  1 CL       0.9280     0.1690     1.5460 Cl    1 <1>  -0.1770 
  2 C        2.2250     1.1670     0.9440 C.ar  1 <1>   0.1770 
  3 C        2.4100     2.4320     1.4650 C.ar  1 <1>  -0.1500 
  4 C        3.0550     0.6800    -0.0470 C.ar  1 <1>  -0.1500 
  5 C        3.4410     3.2190     0.9840 C.ar  1 <1>  -0.1500 
  6 C        4.0830     1.4760    -0.5200 C.ar  1 <1>  -0.1500 
  7 C        4.3040     2.7640    -0.0200 C.ar  1 <1>   0.0540 
  8 C        5.3880     3.5910    -0.5260 C.2   1 <1>   0.4620 
  9 N        6.2310     3.2500    -1.4360 N.2   1 <1>  -0.4100 
 10 N        5.6240     4.8280    -0.0760 N.2   1 <1>  -0.5650 
 11 O        7.0420     4.2420    -1.6200 O.3   1 <1>  -0.0190 
 12 C        6.6280     5.1520    -0.7780 C.2   1 <1>   0.2980 
 13 C        7.3670     6.4730    -0.7140 C.3   1 <1>   0.0200 
 14 C        8.7620     6.2960    -0.1010 C.3   1 <1>  -0.0990 
 15 C        9.5220     7.6020    -0.1100 C.2   1 <1>   0.5690 
 16 O        9.0800     8.5360     0.5090 O.2   1 <1>  -0.5700 
 17 N       10.6770     7.6830    -0.8150 N.am  1 <1>  -0.7300 
 18 C       11.4920     8.9190    -0.9490 C.3   1 <1>   0.1400 
 19 C       12.2690     9.1950     0.3380 C.3   1 <1>   0.1200 
 20 O       13.1730    10.2260     0.0910 O.3   1 <1>  -0.5600 
 21 C       13.8820    10.6320     1.2170 C.3   1 <1>   0.0400 
 22 H        1.7530     2.7930     2.2370 H     1 <1>   0.1500 
 23 H        2.8950    -0.3080    -0.4390 H     1 <1>   0.1500 
 24 H        3.5820     4.2060     1.3930 H     1 <1>   0.1500 
 25 H        4.7270     1.0930    -1.2940 H     1 <1>   0.1500 
 26 H        6.7970     7.1660    -0.1180 H     1 <1>   0.0800 
 27 H        7.4480     6.8770    -1.7070 H     1 <1>   0.0800 
 28 H        9.3110     5.5520    -0.6480 H     1 <1>   0.0800 
 29 H        8.6660     5.9640     0.9170 H     1 <1>   0.0800 
 30 H       11.0400     6.8640    -1.3050 H     1 <1>   0.3700 
 31 H       10.8430     9.7540    -1.1540 H     1 <1>   0.0800 
 32 H       12.1810     8.8020    -1.7670 H     1 <1>   0.0800 
 33 H       12.8230     8.3240     0.6390 H     1 <1>   0.0800 
 34 H       11.5930     9.5010     1.1180 H     1 <1>   0.0800 
 35 H       14.5520    11.4210     0.9240 H     1 <1>   0.0800 
 36 H       14.4460     9.8000     1.6020 H     1 <1>   0.0800 
 37 H       13.1920    10.9990     1.9580 H     1 <1>   0.0800 
@<TRIPOS>BOND
  1   1   2  1   
  2   2   3  ar  
  3   2   4  ar  
  4   3   5  ar  
  5   3  22  1   
  6   4   6  ar  
  7   4  23  1   
  8   5   7  ar  
  9   5  24  1   
 10   6   7  ar  
 11   6  25  1   
 12   7   8  1   
 13   8   9  2   
 14   8  10  1   
 15   9  11  1   
 16  10  12  2   
 17  11  12  1   
 18  12  13  1   
 19  13  14  1   
 20  13  26  1   
 21  13  27  1   
 22  14  15  1   
 23  14  28  1   
 24  14  29  1   
 25  15  16  2   
 26  15  17  am  
 27  17  18  1   
 28  17  30  1   
 29  18  19  1   
 30  18  31  1   
 31  18  32  1   
 32  19  20  1   
 33  19  33  1   
 34  19  34  1   
 35  20  21  1   
 36  21  35  1   
 37  21  36  1   
 38  21  37  1   
@<TRIPOS>SUBSTRUCTURE
  1 ****  12 GROUP 4 **** **** 0

# MOE 2024.06 (io_trps.svl 2023.06)
