@<TRIPOS>MOLECULE
Adamantane-1-carboxylic acid quinolin-5-ylamide
45 49 1 0 0 
SMALL
USER_CHARGES


@<TRIPOS>ATOM
  1 O        0.1680    -0.7700     1.3000 O.2   1 <1>  -0.5700 
  2 C        0.0670    -1.7290     0.5730 C.2   1 <1>   0.5690 
  3 N       -1.1240    -2.0840    -0.0090 N.am  1 <1>  -0.5470 
  4 C        1.3190    -2.5930     0.3030 C.3   1 <1>   0.0610 
  5 C       -2.3960    -1.4930     0.0340 C.ar  1 <1>   0.1170 
  6 C        1.8740    -3.1450     1.6400 C.3   1 <1>  -0.1600 
  7 C        2.4190    -1.7260    -0.3590 C.3   1 <1>  -0.1600 
  8 C        1.0380    -3.8040    -0.6330 C.3   1 <1>  -0.1600 
  9 C       -3.5430    -2.3080    -0.1760 C.ar  1 <1>   0.0000 
 10 C       -2.5560    -0.1410     0.2460 C.ar  1 <1>  -0.1500 
 11 C        3.1560    -3.9690     1.4120 C.3   1 <1>  -0.0800 
 12 C        3.7030    -2.5430    -0.5970 C.3   1 <1>  -0.0800 
 13 C        2.3150    -4.6300    -0.8720 C.3   1 <1>  -0.0800 
 14 C       -4.8230    -1.7030    -0.1870 C.ar  1 <1>   0.3100 
 15 C       -3.4960    -3.7040    -0.3690 C.ar  1 <1>  -0.1500 
 16 C       -3.8170     0.4490     0.2520 C.ar  1 <1>  -0.1500 
 17 C        4.2200    -3.0730     0.7530 C.3   1 <1>  -0.1600 
 18 C        2.8390    -5.1520     0.4790 C.3   1 <1>  -0.1600 
 19 C        3.3840    -3.7320    -1.5200 C.3   1 <1>  -0.1600 
 20 N       -5.9700    -2.3970    -0.4010 N.ar  1 <1>  -0.6200 
 21 C       -4.9260    -0.3230     0.0350 C.ar  1 <1>  -0.1500 
 22 C       -4.6620    -4.3790    -0.5740 C.ar  1 <1>  -0.1500 
 23 C       -5.8720    -3.6770    -0.5840 C.ar  1 <1>   0.1600 
 24 H       -1.0780    -2.9440    -0.5470 H     1 <1>   0.3700 
 25 H        2.0930    -2.3270     2.3050 H     1 <1>   0.0800 
 26 H        1.1300    -3.7570     2.1190 H     1 <1>   0.0800 
 27 H        2.6460    -0.8850     0.2740 H     1 <1>   0.0800 
 28 H        2.0600    -1.3350    -1.2950 H     1 <1>   0.0800 
 29 H        0.6690    -3.4580    -1.5830 H     1 <1>   0.0800 
 30 H        0.2920    -4.4440    -0.1930 H     1 <1>   0.0800 
 31 H       -1.7020     0.4930     0.4070 H     1 <1>   0.1500 
 32 H        3.5240    -4.3370     2.3550 H     1 <1>   0.0800 
 33 H        4.4530    -1.9180    -1.0530 H     1 <1>   0.0800 
 34 H        2.0980    -5.4610    -1.5210 H     1 <1>   0.0800 
 35 H       -2.5620    -4.2330    -0.3480 H     1 <1>   0.1500 
 36 H       -3.9050     1.5080     0.4240 H     1 <1>   0.1500 
 37 H        5.1260    -3.6350     0.6010 H     1 <1>   0.0800 
 38 H        4.4540    -2.2480     1.4030 H     1 <1>   0.0800 
 39 H        3.7280    -5.7380     0.3220 H     1 <1>   0.0800 
 40 H        2.1050    -5.7910     0.9360 H     1 <1>   0.0800 
 41 H        3.0330    -3.3720    -2.4720 H     1 <1>   0.0800 
 42 H        4.2790    -4.3030    -1.6990 H     1 <1>   0.0800 
 43 H       -5.9090     0.1100     0.0310 H     1 <1>   0.1500 
 44 H       -4.6770    -5.4430    -0.7270 H     1 <1>   0.1500 
 45 H       -6.7780    -4.2350    -0.7520 H     1 <1>   0.1500 
@<TRIPOS>BOND
  1   1   2  2   
  2   2   3  am  
  3   2   4  1   
  4   3   5  1   
  5   3  24  1   
  6   4   6  1   
  7   4   7  1   
  8   4   8  1   
  9   5   9  ar  
 10   5  10  ar  
 11   6  11  1   
 12   6  25  1   
 13   6  26  1   
 14   7  12  1   
 15   7  27  1   
 16   7  28  1   
 17   8  13  1   
 18   8  29  1   
 19   8  30  1   
 20   9  14  ar  
 21   9  15  ar  
 22  10  16  ar  
 23  10  31  1   
 24  11  17  1   
 25  11  18  1   
 26  11  32  1   
 27  12  17  1   
 28  12  19  1   
 29  12  33  1   
 30  13  18  1   
 31  13  19  1   
 32  13  34  1   
 33  14  20  ar  
 34  14  21  ar  
 35  15  22  ar  
 36  15  35  1   
 37  16  21  ar  
 38  16  36  1   
 39  17  37  1   
 40  17  38  1   
 41  18  39  1   
 42  18  40  1   
 43  19  41  1   
 44  19  42  1   
 45  20  23  ar  
 46  21  43  1   
 47  22  23  ar  
 48  22  44  1   
 49  23  45  1   
@<TRIPOS>SUBSTRUCTURE
  1 ****   3 GROUP 4 **** **** 0

# MOE 2024.06 (io_trps.svl 2023.06)
