@<TRIPOS>MOLECULE
2-(2,4-Dichloro-phenoxy)-N-(2-ethyl-2H-tetrazol-5-yl)-propionamide
34 35 1 0 0 
SMALL
USER_CHARGES


@<TRIPOS>ATOM
  1 CL      -2.3290     0.2800    -0.5010 Cl    1 <1>  -0.1770 
  2 C       -1.4910     1.8140    -0.5710 C.ar  1 <1>   0.1770 
  3 C       -2.1860     3.0090    -0.3970 C.ar  1 <1>   0.0830 
  4 C       -0.1300     1.8100    -0.8130 C.ar  1 <1>  -0.1500 
  5 O       -3.5190     3.0350    -0.1640 O.3   1 <1>  -0.3630 
  6 C       -1.5070     4.2170    -0.4860 C.ar  1 <1>  -0.1500 
  7 C        0.5290     3.0230    -0.8870 C.ar  1 <1>   0.1770 
  8 C       -3.9740     2.6020     1.1160 C.3   1 <1>   0.2610 
  9 C       -0.1420     4.2240    -0.7290 C.ar  1 <1>  -0.1500 
 10 CL       2.2480     3.0400    -1.1900 Cl    1 <1>  -0.1770 
 11 C       -5.1720     1.6520     0.9690 C.2   1 <1>   0.5690 
 12 C       -4.3120     3.8600     1.9250 C.3   1 <1>  -0.2400 
 13 O       -5.5840     1.1010     1.9620 O.2   1 <1>  -0.5700 
 14 N       -5.6920     1.4690    -0.2760 N.am  1 <1>  -0.4930 
 15 C       -6.7620     0.7020    -0.7140 C.2   1 <1>   0.5790 
 16 N       -6.9030     0.4380    -2.0100 N.2   1 <1>  -0.2270 
 17 N       -7.6810     0.2150     0.0280 N.2   1 <1>  -0.7070 
 18 N       -7.9620    -0.2650    -2.1090 N.2   1 <1>  -0.4180 
 19 N       -8.4200    -0.3950    -0.8740 N.pl3 1 <1>   0.5800 
 20 C       -9.6390    -1.1540    -0.5290 C.3   1 <1>   0.0960 
 21 C      -10.8790    -0.2490    -0.4890 C.3   1 <1>  -0.2400 
 22 H        0.4030     0.8870    -0.9440 H     1 <1>   0.1500 
 23 H       -2.0460     5.1410    -0.3670 H     1 <1>   0.1500 
 24 H       -3.1820     2.0620     1.6050 H     1 <1>   0.0800 
 25 H        0.4010     5.1500    -0.7980 H     1 <1>   0.1500 
 26 H       -5.0970     4.4140     1.4420 H     1 <1>   0.0800 
 27 H       -3.4420     4.4810     2.0330 H     1 <1>   0.0800 
 28 H       -4.6520     3.5760     2.9050 H     1 <1>   0.0800 
 29 H       -5.1810     1.9150    -1.0340 H     1 <1>   0.3700 
 30 H       -9.4840    -1.6100     0.4320 H     1 <1>   0.0800 
 31 H       -9.7700    -1.9300    -1.2600 H     1 <1>   0.0800 
 32 H      -10.7520     0.5210     0.2520 H     1 <1>   0.0800 
 33 H      -11.7480    -0.8290    -0.2330 H     1 <1>   0.0800 
 34 H      -11.0410     0.2060    -1.4510 H     1 <1>   0.0800 
@<TRIPOS>BOND
  1   1   2  1   
  2   2   3  ar  
  3   2   4  ar  
  4   3   5  1   
  5   3   6  ar  
  6   4   7  ar  
  7   4  22  1   
  8   5   8  1   
  9   6   9  ar  
 10   6  23  1   
 11   7   9  ar  
 12   7  10  1   
 13   8  11  1   
 14   8  12  1   
 15   8  24  1   
 16   9  25  1   
 17  11  13  2   
 18  11  14  am  
 19  12  26  1   
 20  12  27  1   
 21  12  28  1   
 22  14  15  1   
 23  14  29  1   
 24  15  16  1   
 25  15  17  2   
 26  16  18  2   
 27  17  19  1   
 28  18  19  1   
 29  19  20  1   
 30  20  21  1   
 31  20  30  1   
 32  20  31  1   
 33  21  32  1   
 34  21  33  1   
 35  21  34  1   
@<TRIPOS>SUBSTRUCTURE
  1 ****  14 GROUP 4 **** **** 0

# MOE 2024.06 (io_trps.svl 2023.06)
