@<TRIPOS>MOLECULE
(4-Ethoxy-3-methoxy-phenyl)-piperidin-1-yl-methanone
40 41 1 0 0 
SMALL
USER_CHARGES


@<TRIPOS>ATOM
  1 O        0.3000    -0.4800     0.7980 O.2   1 <1>  -0.5700 
  2 C        0.1060    -1.6350     0.4640 C.2   1 <1>   0.5440 
  3 N       -1.1940    -2.0750     0.3160 N.am  1 <1>  -0.6600 
  4 C        1.2450    -2.5000     0.2210 C.ar  1 <1>   0.0860 
  5 C       -2.3260    -1.2150     0.7740 C.3   1 <1>   0.1400 
  6 C       -1.5430    -3.3140    -0.4450 C.3   1 <1>   0.1400 
  7 C        1.3410    -3.7660     0.7990 C.ar  1 <1>  -0.1500 
  8 C        2.2900    -2.0880    -0.6060 C.ar  1 <1>  -0.1500 
  9 C       -3.5880    -2.0540     1.0020 C.3   1 <1>  -0.1600 
 10 C       -2.8580    -3.1250    -1.2060 C.3   1 <1>  -0.1600 
 11 C        2.4160    -4.5980     0.5500 C.ar  1 <1>   0.0830 
 12 C        3.3820    -2.9010    -0.8490 C.ar  1 <1>  -0.1500 
 13 C       -4.0350    -2.7960    -0.2700 C.3   1 <1>  -0.1600 
 14 O        2.3930    -5.8290     1.1190 O.3   1 <1>  -0.3630 
 15 C        3.4640    -4.1530    -0.2650 C.ar  1 <1>   0.0830 
 16 C        2.3630    -6.9350     0.2430 C.3   1 <1>   0.0400 
 17 O        4.5730    -4.8860    -0.5100 O.3   1 <1>  -0.3630 
 18 C        5.4210    -5.1440     0.5850 C.3   1 <1>   0.1200 
 19 C        6.6430    -5.8980     0.0700 C.3   1 <1>  -0.2400 
 20 H       -2.5150    -0.4610     0.0290 H     1 <1>   0.0800 
 21 H       -2.0510    -0.7180     1.6900 H     1 <1>   0.0800 
 22 H       -1.6410    -4.1330     0.2460 H     1 <1>   0.0800 
 23 H       -0.7600    -3.5480    -1.1460 H     1 <1>   0.0800 
 24 H        0.5600    -4.1060     1.4540 H     1 <1>   0.1500 
 25 H        2.2380    -1.1100    -1.0550 H     1 <1>   0.1500 
 26 H       -4.3840    -1.4200     1.3500 H     1 <1>   0.0800 
 27 H       -3.3780    -2.7650     1.7820 H     1 <1>   0.0800 
 28 H       -3.0830    -4.0130    -1.7700 H     1 <1>   0.0800 
 29 H       -2.7240    -2.3220    -1.9110 H     1 <1>   0.0800 
 30 H        4.1810    -2.5660    -1.4860 H     1 <1>   0.1500 
 31 H       -4.7450    -2.1940    -0.8090 H     1 <1>   0.0800 
 32 H       -4.5330    -3.7050     0.0200 H     1 <1>   0.0800 
 33 H        2.1980    -7.8220     0.8270 H     1 <1>   0.0800 
 34 H        3.3030    -7.0090    -0.2730 H     1 <1>   0.0800 
 35 H        1.5600    -6.8010    -0.4600 H     1 <1>   0.0800 
 36 H        4.8880    -5.7340     1.3100 H     1 <1>   0.0800 
 37 H        5.7050    -4.2030     1.0230 H     1 <1>   0.0800 
 38 H        6.3430    -6.8290    -0.3750 H     1 <1>   0.0800 
 39 H        7.3120    -6.1060     0.8850 H     1 <1>   0.0800 
 40 H        7.1640    -5.3020    -0.6590 H     1 <1>   0.0800 
@<TRIPOS>BOND
  1   1   2  2   
  2   2   3  am  
  3   2   4  1   
  4   3   5  1   
  5   3   6  1   
  6   4   7  ar  
  7   4   8  ar  
  8   5   9  1   
  9   5  20  1   
 10   5  21  1   
 11   6  10  1   
 12   6  22  1   
 13   6  23  1   
 14   7  11  ar  
 15   7  24  1   
 16   8  12  ar  
 17   8  25  1   
 18   9  13  1   
 19   9  26  1   
 20   9  27  1   
 21  10  13  1   
 22  10  28  1   
 23  10  29  1   
 24  11  14  1   
 25  11  15  ar  
 26  12  15  ar  
 27  12  30  1   
 28  13  31  1   
 29  13  32  1   
 30  14  16  1   
 31  15  17  1   
 32  16  33  1   
 33  16  34  1   
 34  16  35  1   
 35  17  18  1   
 36  18  19  1   
 37  18  36  1   
 38  18  37  1   
 39  19  38  1   
 40  19  39  1   
 41  19  40  1   
@<TRIPOS>SUBSTRUCTURE
  1 ****   7 GROUP 4 **** **** 0

# MOE 2024.06 (io_trps.svl 2023.06)
