@<TRIPOS>MOLECULE
1-(4-Methoxy-3-methyl-benzenesulfonyl)-piperidine-4-carboxylic acid (2,4,6-trime
60 62 1 0 0 
SMALL
USER_CHARGES


@<TRIPOS>ATOM
  1 S        0.0210    -0.1500     1.9000 S.o2  1 <1>   1.4470 
  2 O        0.6900    -1.1430     2.7160 O.2   1 <1>  -0.6500 
  3 O       -0.7300     0.9020     2.5490 O.2   1 <1>  -0.6500 
  4 N        1.2320     0.5950     0.9750 N.am  1 <1>  -0.8490 
  5 C       -1.0230    -0.9610     0.6580 C.ar  1 <1>  -0.0090 
  6 C        2.1400    -0.3840     0.3690 C.3   1 <1>   0.1960 
  7 C        1.9590     1.5950     1.7580 C.3   1 <1>   0.1960 
  8 C       -1.3960    -0.2980    -0.5050 C.ar  1 <1>  -0.1500 
  9 C       -1.4820    -2.2600     0.8390 C.ar  1 <1>  -0.1500 
 10 C        3.1130     0.3170    -0.5790 C.3   1 <1>  -0.1600 
 11 C        2.9400     2.3590     0.8650 C.3   1 <1>  -0.1600 
 12 C       -2.1880    -0.9030    -1.4680 C.ar  1 <1>  -0.1430 
 13 C       -2.2750    -2.8800    -0.1090 C.ar  1 <1>  -0.1500 
 14 C        3.9150     1.4070     0.1540 C.3   1 <1>  -0.0190 
 15 C       -2.6340    -2.2060    -1.2720 C.ar  1 <1>   0.0830 
 16 C       -2.5640    -0.1350    -2.7270 C.3   1 <1>  -0.0970 
 17 C        4.8470     2.1770    -0.7810 C.2   1 <1>   0.5690 
 18 O       -3.4080    -2.7630    -2.2390 O.3   1 <1>  -0.3630 
 19 O        4.4470     2.5100    -1.8700 O.2   1 <1>  -0.5700 
 20 N        6.1030     2.4620    -0.3280 N.am  1 <1>  -0.5470 
 21 C       -3.9320    -4.0660    -2.1160 C.3   1 <1>   0.0400 
 22 C        7.1310     3.1570    -0.9840 C.ar  1 <1>   0.1170 
 23 C        7.0170     4.5200    -1.2760 C.ar  1 <1>  -0.1430 
 24 C        8.3050     2.4820    -1.3220 C.ar  1 <1>  -0.1430 
 25 C        8.0640     5.1790    -1.8980 C.ar  1 <1>  -0.1500 
 26 C        5.7650     5.3160    -0.9280 C.3   1 <1>  -0.0970 
 27 C        9.3410     3.1620    -1.9390 C.ar  1 <1>  -0.1500 
 28 C        8.4710     0.9940    -1.0370 C.3   1 <1>  -0.0970 
 29 C        9.2290     4.5100    -2.2290 C.ar  1 <1>  -0.1430 
 30 C       10.3680     5.2460    -2.9110 C.3   1 <1>  -0.0970 
 31 H        1.5730    -1.1100    -0.1910 H     1 <1>   0.0800 
 32 H        2.6870    -0.9070     1.1380 H     1 <1>   0.0800 
 33 H        2.4830     1.1140     2.5680 H     1 <1>   0.0800 
 34 H        1.2630     2.3010     2.1820 H     1 <1>   0.0800 
 35 H       -1.0530     0.7120    -0.6520 H     1 <1>   0.1500 
 36 H       -1.2110    -2.7930     1.7360 H     1 <1>   0.1500 
 37 H        2.5520     0.7530    -1.3880 H     1 <1>   0.0800 
 38 H        3.7870    -0.4060    -1.0030 H     1 <1>   0.0800 
 39 H        3.4880     3.0660     1.4620 H     1 <1>   0.0800 
 40 H        2.3790     2.9150     0.1330 H     1 <1>   0.0800 
 41 H       -2.6030    -3.8850     0.0770 H     1 <1>   0.1500 
 42 H        4.5160     0.9220     0.9020 H     1 <1>   0.0800 
 43 H       -2.1220     0.8440    -2.7340 H     1 <1>   0.0800 
 44 H       -3.6330    -0.0320    -2.7830 H     1 <1>   0.0800 
 45 H       -2.2250    -0.6720    -3.5950 H     1 <1>   0.0800 
 46 H        6.3760     2.0530     0.5610 H     1 <1>   0.3700 
 47 H       -4.5160    -4.2750    -2.9940 H     1 <1>   0.0800 
 48 H       -4.5570    -4.1090    -1.2420 H     1 <1>   0.0800 
 49 H       -3.1170    -4.7640    -2.0450 H     1 <1>   0.0800 
 50 H        7.9750     6.2250    -2.1300 H     1 <1>   0.1500 
 51 H        5.4270     5.0730     0.0620 H     1 <1>   0.0800 
 52 H        4.9850     5.0880    -1.6310 H     1 <1>   0.0800 
 53 H        5.9590     6.3730    -0.9650 H     1 <1>   0.0800 
 54 H       10.2450     2.6420    -2.2020 H     1 <1>   0.1500 
 55 H        7.6590     0.4450    -1.4810 H     1 <1>   0.0800 
 56 H        8.4790     0.8190     0.0230 H     1 <1>   0.0800 
 57 H        9.3910     0.6220    -1.4500 H     1 <1>   0.0800 
 58 H       10.2390     5.2030    -3.9770 H     1 <1>   0.0800 
 59 H       11.3120     4.7990    -2.6560 H     1 <1>   0.0800 
 60 H       10.3860     6.2760    -2.6040 H     1 <1>   0.0800 
@<TRIPOS>BOND
  1   1   2  2   
  2   1   3  2   
  3   1   4  am  
  4   1   5  1   
  5   4   6  1   
  6   4   7  1   
  7   5   8  ar  
  8   5   9  ar  
  9   6  10  1   
 10   6  31  1   
 11   6  32  1   
 12   7  11  1   
 13   7  33  1   
 14   7  34  1   
 15   8  12  ar  
 16   8  35  1   
 17   9  13  ar  
 18   9  36  1   
 19  10  14  1   
 20  10  37  1   
 21  10  38  1   
 22  11  14  1   
 23  11  39  1   
 24  11  40  1   
 25  12  15  ar  
 26  12  16  1   
 27  13  15  ar  
 28  13  41  1   
 29  14  17  1   
 30  14  42  1   
 31  15  18  1   
 32  16  43  1   
 33  16  44  1   
 34  16  45  1   
 35  17  19  2   
 36  17  20  am  
 37  18  21  1   
 38  20  22  1   
 39  20  46  1   
 40  21  47  1   
 41  21  48  1   
 42  21  49  1   
 43  22  23  ar  
 44  22  24  ar  
 45  23  25  ar  
 46  23  26  1   
 47  24  27  ar  
 48  24  28  1   
 49  25  29  ar  
 50  25  50  1   
 51  26  51  1   
 52  26  52  1   
 53  26  53  1   
 54  27  29  ar  
 55  27  54  1   
 56  28  55  1   
 57  28  56  1   
 58  28  57  1   
 59  29  30  1   
 60  30  58  1   
 61  30  59  1   
 62  30  60  1   
@<TRIPOS>SUBSTRUCTURE
  1 ****  10 GROUP 4 **** **** 0

# MOE 2024.06 (io_trps.svl 2023.06)
