@<TRIPOS>MOLECULE
3-Methyl-6-(3,4,5-triethoxy-phenyl)-[1,2,4]triazolo[3,4-b][1,3,4]thiadiazole
44 46 1 0 0 
SMALL
USER_CHARGES


@<TRIPOS>ATOM
  1 S       -0.5250    -0.1970    -0.4670 S.3   1 <1>  -0.1970 
  2 C        0.4160     1.2690    -0.3590 C.2   1 <1>   0.2420 
  3 C       -2.0170     0.7690    -0.2510 C.2   1 <1>   0.5050 
  4 N        1.6610     1.5820    -0.4070 N.2   1 <1>  -0.3380 
  5 N       -0.4110     2.2810    -0.1840 N.pl3 1 <1>   0.5050 
  6 N       -1.7810     2.0270    -0.1200 N.2   1 <1>  -0.6520 
  7 C       -3.2970     0.0870    -0.2420 C.ar  1 <1>   0.0860 
  8 N        1.6760     2.9210    -0.2510 N.2   1 <1>  -0.3380 
  9 C        0.4460     3.3150    -0.1210 C.2   1 <1>   0.0060 
 10 C       -3.4310    -1.2920    -0.4120 C.ar  1 <1>  -0.1500 
 11 C       -4.4720     0.8190    -0.0530 C.ar  1 <1>  -0.1500 
 12 C        0.0040     4.7520     0.0770 C.3   1 <1>  -0.0600 
 13 C       -4.6630    -1.9200    -0.3930 C.ar  1 <1>   0.0830 
 14 C       -5.7240     0.2160    -0.0380 C.ar  1 <1>   0.0830 
 15 O       -4.6320    -3.2710    -0.5600 O.3   1 <1>  -0.3630 
 16 C       -5.8270    -1.1640    -0.2210 C.ar  1 <1>   0.0830 
 17 O       -6.8740     0.9260     0.1500 O.3   1 <1>  -0.3630 
 18 C       -5.4920    -4.0950     0.1960 C.3   1 <1>   0.1200 
 19 O       -7.0500    -1.7550    -0.2280 O.3   1 <1>  -0.3630 
 20 C       -6.8620     2.2830     0.5290 C.3   1 <1>   0.1200 
 21 C       -4.8570    -5.4790     0.2890 C.3   1 <1>  -0.2400 
 22 C       -7.7980    -1.6150    -1.4120 C.3   1 <1>   0.1200 
 23 C       -8.3060     2.7190     0.7540 C.3   1 <1>  -0.2400 
 24 C       -9.0870    -2.4150    -1.2540 C.3   1 <1>  -0.2400 
 25 H       -2.5700    -1.9170    -0.5610 H     1 <1>   0.1500 
 26 H       -4.3810     1.8800     0.0800 H     1 <1>   0.1500 
 27 H       -0.5230     4.8490     1.0090 H     1 <1>   0.0800 
 28 H       -0.6430     5.0520    -0.7270 H     1 <1>   0.0800 
 29 H        0.8620     5.4000     0.0940 H     1 <1>   0.0800 
 30 H       -6.4410    -4.1480    -0.3070 H     1 <1>   0.0800 
 31 H       -5.6170    -3.6630     1.1740 H     1 <1>   0.0800 
 32 H       -6.4130     2.8570    -0.2630 H     1 <1>   0.0800 
 33 H       -6.2900     2.3800     1.4360 H     1 <1>   0.0800 
 34 H       -4.7270    -5.8920    -0.6950 H     1 <1>   0.0800 
 35 H       -5.4940    -6.1320     0.8560 H     1 <1>   0.0800 
 36 H       -3.9040    -5.4150     0.7820 H     1 <1>   0.0800 
 37 H       -7.2090    -1.9900    -2.2310 H     1 <1>   0.0800 
 38 H       -8.0120    -0.5720    -1.5630 H     1 <1>   0.0800 
 39 H       -8.8730     2.6030    -0.1520 H     1 <1>   0.0800 
 40 H       -8.3350     3.7520     1.0490 H     1 <1>   0.0800 
 41 H       -8.7520     2.1260     1.5340 H     1 <1>   0.0800 
 42 H       -8.8620    -3.4540    -1.0970 H     1 <1>   0.0800 
 43 H       -9.6830    -2.3230    -2.1440 H     1 <1>   0.0800 
 44 H       -9.6530    -2.0380    -0.4210 H     1 <1>   0.0800 
@<TRIPOS>BOND
  1   1   2  1   
  2   1   3  1   
  3   2   4  2   
  4   2   5  1   
  5   3   6  2   
  6   3   7  1   
  7   4   8  1   
  8   5   6  1   
  9   5   9  1   
 10   7  10  ar  
 11   7  11  ar  
 12   8   9  2   
 13   9  12  1   
 14  10  13  ar  
 15  10  25  1   
 16  11  14  ar  
 17  11  26  1   
 18  12  27  1   
 19  12  28  1   
 20  12  29  1   
 21  13  15  1   
 22  13  16  ar  
 23  14  16  ar  
 24  14  17  1   
 25  15  18  1   
 26  16  19  1   
 27  17  20  1   
 28  18  21  1   
 29  18  30  1   
 30  18  31  1   
 31  19  22  1   
 32  20  23  1   
 33  20  32  1   
 34  20  33  1   
 35  21  34  1   
 36  21  35  1   
 37  21  36  1   
 38  22  24  1   
 39  22  37  1   
 40  22  38  1   
 41  23  39  1   
 42  23  40  1   
 43  23  41  1   
 44  24  42  1   
 45  24  43  1   
 46  24  44  1   
@<TRIPOS>SUBSTRUCTURE
  1 ****   7 GROUP 4 **** **** 0

# MOE 2024.06 (io_trps.svl 2023.06)
