@<TRIPOS>MOLECULE
3-(3,4-Dichloro-benzyl)-8-(2-methoxy-ethyl)-1,7-dimethyl-1H,8H-imidazo[2,1-f]pur
49 52 1 0 0 
SMALL
USER_CHARGES


@<TRIPOS>ATOM
  1 CL       0.9270    -5.3830    -0.7430 Cl    1 <1>  -0.1840 
  2 C        1.9490    -3.9650    -0.6840 C.ar  1 <1>   0.1700 
  3 C        1.8930    -3.0090    -1.6840 C.ar  1 <1>   0.1700 
  4 C        2.8190    -3.8140     0.3810 C.ar  1 <1>  -0.1570 
  5 CL       0.7980    -3.1870    -3.0370 Cl    1 <1>  -0.1840 
  6 C        2.7070    -1.8930    -1.6270 C.ar  1 <1>  -0.1570 
  7 C        3.6400    -2.6950     0.4480 C.ar  1 <1>  -0.1510 
  8 C        3.5790    -1.7390    -0.5600 C.ar  1 <1>  -0.1570 
  9 C        4.5970    -2.5170     1.6180 C.3   1 <1>   0.2770 
 10 N        5.8940    -3.1740     1.3020 N.am  1 <1>  -0.4260 
 11 C        6.0690    -4.5140     1.6200 C.2   1 <1>   0.6860 
 12 C        6.8730    -2.4540     0.6350 C.2   1 <1>   0.6990 
 13 O        5.2300    -5.1020     2.2700 O.2   1 <1>  -0.5750 
 14 N        7.2170    -5.1820     1.2100 N.am  1 <1>  -0.4420 
 15 O        6.7310    -1.2650     0.4010 O.2   1 <1>  -0.5750 
 16 C        8.0600    -3.1450     0.2500 C.2   1 <1>   0.2700 
 17 C        8.1860    -4.4630     0.5390 C.2   1 <1>   0.4200 
 18 C        7.3990    -6.6350     1.5000 C.3   1 <1>   0.0520 
 19 N        9.2530    -2.7660    -0.3870 N.pl3 1 <1>  -0.6330 
 20 N        9.3960    -4.9020     0.0940 N.pl3 1 <1>  -0.7040 
 21 C       10.0140    -3.8520    -0.4420 C.cat 1 <1>   1.0690 
 22 C        9.9870    -1.7370    -0.9440 C.2   1 <1>   0.2220 
 23 N       11.2030    -3.6000    -1.0080 N.pl3 1 <1>  -0.5720 
 24 C       11.1790    -2.2490    -1.3270 C.2   1 <1>   0.1570 
 25 C       12.2760    -4.5970    -1.3140 C.3   1 <1>   0.1600 
 26 C       12.3440    -1.5410    -1.9940 C.3   1 <1>  -0.1100 
 27 C       12.8090    -5.3250    -0.0690 C.3   1 <1>   0.1120 
 28 O       11.7840    -6.0490     0.5490 O.3   1 <1>  -0.5650 
 29 C       12.2300    -6.8200     1.6240 C.3   1 <1>   0.0320 
 30 H        2.8470    -4.5700     1.1470 H     1 <1>   0.1430 
 31 H        2.6560    -1.1540    -2.4070 H     1 <1>   0.1430 
 32 H        4.2100    -0.8650    -0.5190 H     1 <1>   0.1430 
 33 H        4.1680    -2.9450     2.5090 H     1 <1>   0.0720 
 34 H        4.7470    -1.4690     1.8140 H     1 <1>   0.0720 
 35 H        6.4430    -7.1270     1.5630 H     1 <1>   0.0720 
 36 H        7.9100    -6.7550     2.4390 H     1 <1>   0.0720 
 37 H        7.9670    -7.1080     0.7190 H     1 <1>   0.0720 
 38 H        9.9460    -5.7430     0.3200 H     1 <1>   0.4450 
 39 H        9.6040    -0.7300    -1.0240 H     1 <1>   0.1430 
 40 H       13.1010    -4.0990    -1.7910 H     1 <1>   0.0720 
 41 H       11.8970    -5.3250    -2.0110 H     1 <1>   0.0720 
 42 H       13.2250    -1.6150    -1.3820 H     1 <1>   0.0720 
 43 H       12.1170    -0.5000    -2.1400 H     1 <1>   0.0720 
 44 H       12.5470    -1.9820    -2.9540 H     1 <1>   0.0720 
 45 H       13.2160    -4.6200     0.6360 H     1 <1>   0.0720 
 46 H       13.5830    -6.0150    -0.3630 H     1 <1>   0.0720 
 47 H       11.3870    -7.3360     2.0490 H     1 <1>   0.0720 
 48 H       12.6730    -6.1780     2.3670 H     1 <1>   0.0720 
 49 H       12.9510    -7.5390     1.2730 H     1 <1>   0.0720 
@<TRIPOS>BOND
  1   1   2  1   
  2   2   3  ar  
  3   2   4  ar  
  4   3   5  1   
  5   3   6  ar  
  6   4   7  ar  
  7   4  30  1   
  8   6   8  ar  
  9   6  31  1   
 10   7   8  ar  
 11   7   9  1   
 12   8  32  1   
 13   9  10  1   
 14   9  33  1   
 15   9  34  1   
 16  10  11  am  
 17  10  12  am  
 18  11  13  2   
 19  11  14  am  
 20  12  15  2   
 21  12  16  1   
 22  14  17  1   
 23  14  18  1   
 24  16  17  2   
 25  16  19  1   
 26  17  20  1   
 27  18  35  1   
 28  18  36  1   
 29  18  37  1   
 30  19  21  ar  
 31  19  22  1   
 32  20  21  ar  
 33  20  38  1   
 34  21  23  ar  
 35  22  24  2   
 36  22  39  1   
 37  23  24  1   
 38  23  25  1   
 39  24  26  1   
 40  25  27  1   
 41  25  40  1   
 42  25  41  1   
 43  26  42  1   
 44  26  43  1   
 45  26  44  1   
 46  27  28  1   
 47  27  45  1   
 48  27  46  1   
 49  28  29  1   
 50  29  47  1   
 51  29  48  1   
 52  29  49  1   
@<TRIPOS>SUBSTRUCTURE
  1 ****  16 GROUP 4 **** **** 0

# MOE 2024.06 (io_trps.svl 2023.06)
