@<TRIPOS>MOLECULE
1-(3,5-Dimethyl-[1,2,4]triazol-1-yl)-3-(naphthalen-2-yloxy)-propan-2-ol
42 44 1 0 0 
SMALL
USER_CHARGES


@<TRIPOS>ATOM
  1 O        0.4360     0.8420    -0.7920 O.3   1 <1>  -0.3630 
  2 C        1.5000     0.0150    -0.6520 C.ar  1 <1>   0.0830 
  3 C        0.2760     1.9710     0.0400 C.3   1 <1>   0.1200 
  4 C        2.5280     0.2120     0.2400 C.ar  1 <1>  -0.1500 
  5 C        1.5180    -1.1090    -1.4880 C.ar  1 <1>  -0.1500 
  6 C       -1.0470     2.6480    -0.3260 C.3   1 <1>   0.2000 
  7 C        3.5980    -0.7000     0.3350 C.ar  1 <1>   0.0000 
  8 C        2.5450    -2.0080    -1.4170 C.ar  1 <1>  -0.1500 
  9 O       -1.3070     3.6720     0.5880 O.3   1 <1>  -0.6800 
 10 C       -2.2170     1.6370    -0.4070 C.3   1 <1>   0.3540 
 11 C        3.6070    -1.8320    -0.5080 C.ar  1 <1>   0.0000 
 12 C        4.6630    -0.5240     1.2420 C.ar  1 <1>  -0.1500 
 13 N       -3.5680     2.2490    -0.2120 N.pl3 1 <1>  -0.4570 
 14 C        4.6780    -2.7430    -0.4090 C.ar  1 <1>  -0.1500 
 15 C        5.6900    -1.4250     1.3170 C.ar  1 <1>  -0.1500 
 16 N       -4.4320     1.7110     0.6880 N.2   1 <1>  -0.2600 
 17 C       -4.1150     3.3090    -0.7840 C.cat 1 <1>   0.6560 
 18 C        5.6970    -2.5470     0.4810 C.ar  1 <1>  -0.1500 
 19 C       -5.4690     2.4680     0.6280 C.2   1 <1>   0.4850 
 20 N       -5.3110     3.4660    -0.2720 N.pl3 1 <1>  -0.7000 
 21 C       -3.5190     4.2070    -1.8460 C.3   1 <1>  -0.0960 
 22 C       -6.7310     2.3000     1.4420 C.3   1 <1>  -0.0720 
 23 H        1.1030     2.6380    -0.1300 H     1 <1>   0.0800 
 24 H        0.2650     1.6310     1.0610 H     1 <1>   0.0800 
 25 H        2.5570     1.0620     0.8930 H     1 <1>   0.1500 
 26 H        0.7100    -1.2470    -2.1840 H     1 <1>   0.1500 
 27 H       -0.9220     3.1170    -1.2860 H     1 <1>   0.0800 
 28 H        2.5580    -2.8710    -2.0580 H     1 <1>   0.1500 
 29 H       -1.3710     3.3320     1.5050 H     1 <1>   0.4000 
 30 H       -2.0750     0.8840     0.3490 H     1 <1>   0.0800 
 31 H       -2.1880     1.1320    -1.3560 H     1 <1>   0.0800 
 32 H        4.6560     0.3390     1.8830 H     1 <1>   0.1500 
 33 H        4.6800    -3.6040    -1.0530 H     1 <1>   0.1500 
 34 H        6.5000    -1.2850     2.0110 H     1 <1>   0.1500 
 35 H        6.5120    -3.2470     0.5520 H     1 <1>   0.1500 
 36 H       -5.9940     4.1910    -0.4900 H     1 <1>   0.4500 
 37 H       -2.9980     3.6200    -2.5790 H     1 <1>   0.0800 
 38 H       -2.8330     4.8990    -1.3920 H     1 <1>   0.0800 
 39 H       -4.2930     4.7640    -2.3400 H     1 <1>   0.0800 
 40 H       -6.6410     1.4460     2.0890 H     1 <1>   0.0800 
 41 H       -7.5720     2.1510     0.7900 H     1 <1>   0.0800 
 42 H       -6.8990     3.1740     2.0450 H     1 <1>   0.0800 
@<TRIPOS>BOND
  1   1   2  1   
  2   1   3  1   
  3   2   4  ar  
  4   2   5  ar  
  5   3   6  1   
  6   3  23  1   
  7   3  24  1   
  8   4   7  ar  
  9   4  25  1   
 10   5   8  ar  
 11   5  26  1   
 12   6   9  1   
 13   6  10  1   
 14   6  27  1   
 15   7  11  ar  
 16   7  12  ar  
 17   8  11  ar  
 18   8  28  1   
 19   9  29  1   
 20  10  13  1   
 21  10  30  1   
 22  10  31  1   
 23  11  14  ar  
 24  12  15  ar  
 25  12  32  1   
 26  13  16  1   
 27  13  17  ar  
 28  14  18  ar  
 29  14  33  1   
 30  15  18  ar  
 31  15  34  1   
 32  16  19  2   
 33  17  20  ar  
 34  17  21  1   
 35  18  35  1   
 36  19  20  1   
 37  19  22  1   
 38  20  36  1   
 39  21  37  1   
 40  21  38  1   
 41  21  39  1   
 42  22  40  1   
 43  22  41  1   
 44  22  42  1   
@<TRIPOS>SUBSTRUCTURE
  1 ****   1 GROUP 4 **** **** 0

# MOE 2024.06 (io_trps.svl 2023.06)
