@<TRIPOS>MOLECULE
2,4-Dimethoxy-N-(2-morpholin-4-yl-5-trifluoromethyl-phenyl)-benzamide
50 52 1 0 0 
SMALL
USER_CHARGES


@<TRIPOS>ATOM
  1 F       -0.5360    -0.7790     0.1930 F     1 <1>  -0.3400 
  2 C       -1.8260    -0.4980     0.3480 C.3   1 <1>   1.1640 
  3 F       -2.1210     0.3920    -0.5920 F     1 <1>  -0.3400 
  4 F       -1.9280     0.1350     1.5090 F     1 <1>  -0.3400 
  5 C       -2.7230    -1.7440     0.2870 C.ar  1 <1>  -0.1440 
  6 C       -4.0950    -1.6030     0.1070 C.ar  1 <1>  -0.1500 
  7 C       -2.2020    -3.0270     0.4160 C.ar  1 <1>  -0.1500 
  8 C       -4.9380    -2.7040     0.0540 C.ar  1 <1>   0.1170 
  9 C       -3.0310    -4.1330     0.3580 C.ar  1 <1>  -0.1500 
 10 N       -6.3280    -2.6010    -0.1280 N.am  1 <1>  -0.5470 
 11 C       -4.4000    -3.9950     0.1710 C.ar  1 <1>   0.1000 
 12 C       -7.2590    -1.6240     0.1150 C.2   1 <1>   0.5440 
 13 N       -5.2440    -5.1190     0.1160 N.pl3 1 <1>  -0.8380 
 14 O       -6.8690    -0.5070     0.4050 O.2   1 <1>  -0.5700 
 15 C       -8.6880    -1.9060     0.0750 C.ar  1 <1>   0.0860 
 16 C       -4.8050    -6.3200    -0.6540 C.3   1 <1>   0.2090 
 17 C       -5.9000    -5.5010     1.4010 C.3   1 <1>   0.2090 
 18 C       -9.2660    -3.0500    -0.5110 C.ar  1 <1>   0.0830 
 19 C       -9.5690    -0.9880     0.6610 C.ar  1 <1>  -0.1500 
 20 C       -5.9670    -7.3170    -0.8050 C.3   1 <1>   0.1200 
 21 C       -7.0120    -6.5350     1.1500 C.3   1 <1>   0.1200 
 22 O       -8.4640    -3.9650    -1.1140 O.3   1 <1>  -0.3630 
 23 C      -10.6450    -3.2410    -0.4800 C.ar  1 <1>  -0.1500 
 24 C      -10.9360    -1.1760     0.6830 C.ar  1 <1>  -0.1500 
 25 O       -6.5210    -7.6420     0.4420 O.3   1 <1>  -0.5600 
 26 C       -8.9580    -4.9360    -2.0120 C.3   1 <1>   0.0400 
 27 C      -11.4850    -2.3160     0.1090 C.ar  1 <1>   0.0830 
 28 O      -12.8100    -2.5860     0.0880 O.3   1 <1>  -0.3620 
 29 C      -13.7580    -1.6960     0.6360 C.3   1 <1>   0.0400 
 30 H       -4.5140    -0.6180     0.0030 H     1 <1>   0.1500 
 31 H       -1.1450    -3.1780     0.5640 H     1 <1>   0.1500 
 32 H       -2.6060    -5.1120     0.4690 H     1 <1>   0.1500 
 33 H       -6.7270    -3.5160    -0.3730 H     1 <1>   0.3700 
 34 H       -3.9940    -6.8080    -0.1420 H     1 <1>   0.0800 
 35 H       -4.4600    -6.0150    -1.6260 H     1 <1>   0.0800 
 36 H       -6.3200    -4.6270     1.8670 H     1 <1>   0.0800 
 37 H       -5.1680    -5.9190     2.0700 H     1 <1>   0.0800 
 38 H       -9.1670    -0.0970     1.1150 H     1 <1>   0.1500 
 39 H       -5.6180    -8.2280    -1.2560 H     1 <1>   0.0800 
 40 H       -6.7400    -6.8980    -1.4240 H     1 <1>   0.0800 
 41 H       -7.8130    -6.0910     0.5860 H     1 <1>   0.0800 
 42 H       -7.4040    -6.8920     2.0860 H     1 <1>   0.0800 
 43 H      -11.1050    -4.1100    -0.9070 H     1 <1>   0.1500 
 44 H      -11.5550    -0.4330     1.1490 H     1 <1>   0.1500 
 45 H       -8.1190    -5.4010    -2.4960 H     1 <1>   0.0800 
 46 H       -9.5760    -4.4520    -2.7480 H     1 <1>   0.0800 
 47 H       -9.5170    -5.6710    -1.4610 H     1 <1>   0.0800 
 48 H      -14.7360    -2.1200     0.4910 H     1 <1>   0.0800 
 49 H      -13.6900    -0.7530     0.1240 H     1 <1>   0.0800 
 50 H      -13.5630    -1.5810     1.6870 H     1 <1>   0.0800 
@<TRIPOS>BOND
  1   1   2  1   
  2   2   3  1   
  3   2   4  1   
  4   2   5  1   
  5   5   6  ar  
  6   5   7  ar  
  7   6   8  ar  
  8   6  30  1   
  9   7   9  ar  
 10   7  31  1   
 11   8  10  1   
 12   8  11  ar  
 13   9  11  ar  
 14   9  32  1   
 15  10  12  am  
 16  10  33  1   
 17  11  13  1   
 18  12  14  2   
 19  12  15  1   
 20  13  16  1   
 21  13  17  1   
 22  15  18  ar  
 23  15  19  ar  
 24  16  20  1   
 25  16  34  1   
 26  16  35  1   
 27  17  21  1   
 28  17  36  1   
 29  17  37  1   
 30  18  22  1   
 31  18  23  ar  
 32  19  24  ar  
 33  19  38  1   
 34  20  25  1   
 35  20  39  1   
 36  20  40  1   
 37  21  25  1   
 38  21  41  1   
 39  21  42  1   
 40  22  26  1   
 41  23  27  ar  
 42  23  43  1   
 43  24  27  ar  
 44  24  44  1   
 45  26  45  1   
 46  26  46  1   
 47  26  47  1   
 48  27  28  1   
 49  28  29  1   
 50  29  48  1   
 51  29  49  1   
 52  29  50  1   
@<TRIPOS>SUBSTRUCTURE
  1 ****  10 GROUP 4 **** **** 0

# MOE 2024.06 (io_trps.svl 2023.06)
