@<TRIPOS>MOLECULE
1-(4-Ethoxy-3-methyl-benzenesulfonyl)-piperidine-4-carboxylic acid isopropylamid
53 54 1 0 0 
SMALL
USER_CHARGES


@<TRIPOS>ATOM
  1 S       -0.0730    -0.1860    -2.8470 S.o2  1 <1>   1.4470 
  2 O        0.4920    -1.3090    -3.5640 O.2   1 <1>  -0.6500 
  3 O       -0.7650     0.8510    -3.5840 O.2   1 <1>  -0.6500 
  4 N        1.2080     0.5790    -2.0390 N.am  1 <1>  -0.8490 
  5 C       -1.1070    -0.8020    -1.4900 C.ar  1 <1>  -0.0090 
  6 C        0.7690     1.8020    -1.3580 C.3   1 <1>   0.1960 
  7 C        2.3150     0.8600    -2.9570 C.3   1 <1>   0.1960 
  8 C       -2.3630    -0.2650    -1.2350 C.ar  1 <1>  -0.1500 
  9 C       -0.6550    -1.8160    -0.6550 C.ar  1 <1>  -0.1500 
 10 C        1.9070     2.3530    -0.4990 C.3   1 <1>  -0.1600 
 11 C        3.5210     1.3820    -2.1740 C.3   1 <1>  -0.1600 
 12 C       -3.1480    -0.7130    -0.1850 C.ar  1 <1>  -0.1430 
 13 C       -1.4240    -2.2790     0.3980 C.ar  1 <1>  -0.1500 
 14 C        3.1600     2.6300    -1.3490 C.3   1 <1>  -0.0190 
 15 C       -2.6780    -1.7280     0.6420 C.ar  1 <1>   0.0830 
 16 C       -4.5180    -0.0940     0.0540 C.3   1 <1>  -0.0970 
 17 C        4.3290     3.1100    -0.4970 C.2   1 <1>   0.5690 
 18 O       -3.4790    -2.1350     1.6600 O.3   1 <1>  -0.3630 
 19 O        4.7770     4.2130    -0.6920 O.2   1 <1>  -0.5700 
 20 N        4.8290     2.2820     0.4560 N.am  1 <1>  -0.7300 
 21 C       -3.1180    -3.1930     2.5170 C.3   1 <1>   0.1200 
 22 C        5.9400     2.5920     1.3570 C.3   1 <1>   0.2200 
 23 C       -4.2540    -3.4010     3.5140 C.3   1 <1>  -0.2400 
 24 C        7.0490     1.5760     1.1100 C.3   1 <1>  -0.2400 
 25 C        5.4240     2.5160     2.7890 C.3   1 <1>  -0.2400 
 26 H       -0.0720     1.5860    -0.7210 H     1 <1>   0.0800 
 27 H        0.4630     2.5410    -2.0820 H     1 <1>   0.0800 
 28 H        2.0060     1.5820    -3.6960 H     1 <1>   0.0800 
 29 H        2.6040    -0.0420    -3.4700 H     1 <1>   0.0800 
 30 H       -2.7300     0.5200    -1.8760 H     1 <1>   0.1500 
 31 H        0.3160    -2.2470    -0.8360 H     1 <1>   0.1500 
 32 H        2.1280     1.6390     0.2750 H     1 <1>   0.0800 
 33 H        1.5880     3.2640    -0.0250 H     1 <1>   0.0800 
 34 H        4.3140     1.6230    -2.8600 H     1 <1>   0.0800 
 35 H        3.8730     0.5950    -1.5300 H     1 <1>   0.0800 
 36 H       -1.0300    -3.0650     1.0130 H     1 <1>   0.1500 
 37 H        2.9210     3.4220    -2.0380 H     1 <1>   0.0800 
 38 H       -4.7340     0.6720    -0.6690 H     1 <1>   0.0800 
 39 H       -4.5550     0.3400     1.0370 H     1 <1>   0.0800 
 40 H       -5.2760    -0.8530    -0.0130 H     1 <1>   0.0800 
 41 H        4.4160     1.3580     0.5800 H     1 <1>   0.3700 
 42 H       -2.2090    -2.9240     3.0260 H     1 <1>   0.0800 
 43 H       -2.9670    -4.0770     1.9210 H     1 <1>   0.0800 
 44 H        6.3090     3.5870     1.1570 H     1 <1>   0.0800 
 45 H       -4.4070    -2.5070     4.0910 H     1 <1>   0.0800 
 46 H       -4.0080    -4.2050     4.1840 H     1 <1>   0.0800 
 47 H       -5.1610    -3.6530     2.9940 H     1 <1>   0.0800 
 48 H        6.7060     0.5770     1.3050 H     1 <1>   0.0800 
 49 H        7.8830     1.7850     1.7560 H     1 <1>   0.0800 
 50 H        7.3880     1.6470     0.0920 H     1 <1>   0.0800 
 51 H        5.0520     1.5330     3.0120 H     1 <1>   0.0800 
 52 H        4.6390     3.2370     2.9330 H     1 <1>   0.0800 
 53 H        6.2190     2.7450     3.4750 H     1 <1>   0.0800 
@<TRIPOS>BOND
  1   1   2  2   
  2   1   3  2   
  3   1   4  am  
  4   1   5  1   
  5   4   6  1   
  6   4   7  1   
  7   5   8  ar  
  8   5   9  ar  
  9   6  10  1   
 10   6  26  1   
 11   6  27  1   
 12   7  11  1   
 13   7  28  1   
 14   7  29  1   
 15   8  12  ar  
 16   8  30  1   
 17   9  13  ar  
 18   9  31  1   
 19  10  14  1   
 20  10  32  1   
 21  10  33  1   
 22  11  14  1   
 23  11  34  1   
 24  11  35  1   
 25  12  15  ar  
 26  12  16  1   
 27  13  15  ar  
 28  13  36  1   
 29  14  17  1   
 30  14  37  1   
 31  15  18  1   
 32  16  38  1   
 33  16  39  1   
 34  16  40  1   
 35  17  19  2   
 36  17  20  am  
 37  18  21  1   
 38  20  22  1   
 39  20  41  1   
 40  21  23  1   
 41  21  42  1   
 42  21  43  1   
 43  22  24  1   
 44  22  25  1   
 45  22  44  1   
 46  23  45  1   
 47  23  46  1   
 48  23  47  1   
 49  24  48  1   
 50  24  49  1   
 51  24  50  1   
 52  25  51  1   
 53  25  52  1   
 54  25  53  1   
@<TRIPOS>SUBSTRUCTURE
  1 ****   4 GROUP 4 **** **** 0

# MOE 2024.06 (io_trps.svl 2023.06)
