@<TRIPOS>MOLECULE
4-(2-Methoxy-phenyl)-4,7,8,9-tetrahydro-6H-1,2,3,3a,9-pentaaza-cyclopenta[b]naph
37 40 1 0 0 
SMALL
USER_CHARGES


@<TRIPOS>ATOM
  1 O        0.1890    -0.6530     1.2030 O.2   1 <1>  -0.5700 
  2 C       -0.2170    -1.6030     0.5770 C.2   1 <1>   0.4950 
  3 C       -1.5730    -2.0190     0.5540 C.2   1 <1>  -0.1240 
  4 C        0.7920    -2.4310    -0.2010 C.3   1 <1>  -0.0990 
  5 C       -1.9830    -3.2150     0.0440 C.2   1 <1>  -0.0380 
  6 C       -2.5840    -1.0270     1.1560 C.3   1 <1>   0.4570 
  7 C        0.4400    -3.9290    -0.1560 C.3   1 <1>  -0.1600 
  8 N       -3.3010    -3.6040     0.0910 N.pl3 1 <1>  -0.5840 
  9 C       -1.0080    -4.1900    -0.6010 C.3   1 <1>  -0.0220 
 10 N       -3.9420    -1.6260     1.2270 N.pl3 1 <1>   0.3140 
 11 C       -2.6260     0.2940     0.3780 C.ar  1 <1>  -0.1440 
 12 C       -4.2510    -2.8050     0.7160 C.2   1 <1>   0.2700 
 13 N       -5.0400    -1.1260     1.7740 N.2   1 <1>  -0.4180 
 14 C       -3.0850     0.3620    -0.9360 C.ar  1 <1>   0.0830 
 15 C       -2.2010     1.4630     0.9960 C.ar  1 <1>  -0.1500 
 16 N       -5.4920    -3.0560     0.9040 N.2   1 <1>  -0.3380 
 17 N       -5.9640    -1.9970     1.5650 N.2   1 <1>   0.0000 
 18 O       -3.4920    -0.7630    -1.5610 O.3   1 <1>  -0.3630 
 19 C       -3.1140     1.5740    -1.6110 C.ar  1 <1>  -0.1500 
 20 C       -2.2360     2.6730     0.3240 C.ar  1 <1>  -0.1500 
 21 C       -4.8230    -0.7990    -2.0290 C.3   1 <1>   0.0400 
 22 C       -2.6930     2.7300    -0.9800 C.ar  1 <1>  -0.1500 
 23 H        1.7720    -2.2770     0.2130 H     1 <1>   0.0800 
 24 H        0.8010    -2.0840    -1.2190 H     1 <1>   0.0800 
 25 H       -2.2880    -0.8240     2.1680 H     1 <1>   0.0800 
 26 H        0.5590    -4.2780     0.8560 H     1 <1>   0.0800 
 27 H        1.1200    -4.4850    -0.7780 H     1 <1>   0.0800 
 28 H       -3.6340    -4.4900    -0.3010 H     1 <1>   0.4000 
 29 H       -1.0830    -4.0900    -1.6710 H     1 <1>   0.0800 
 30 H       -1.2730    -5.2010    -0.3420 H     1 <1>   0.0800 
 31 H       -1.8310     1.4410     2.0070 H     1 <1>   0.1500 
 32 H       -3.4550     1.6160    -2.6280 H     1 <1>   0.1500 
 33 H       -1.9030     3.5700     0.8170 H     1 <1>   0.1500 
 34 H       -5.0490    -1.8090    -2.3210 H     1 <1>   0.0800 
 35 H       -4.9210    -0.1420    -2.8740 H     1 <1>   0.0800 
 36 H       -5.4810    -0.4950    -1.2330 H     1 <1>   0.0800 
 37 H       -2.7160     3.6710    -1.5020 H     1 <1>   0.1500 
@<TRIPOS>BOND
  1   1   2  2   
  2   2   3  1   
  3   2   4  1   
  4   3   5  2   
  5   3   6  1   
  6   4   7  1   
  7   4  23  1   
  8   4  24  1   
  9   5   8  1   
 10   5   9  1   
 11   6  10  1   
 12   6  11  1   
 13   6  25  1   
 14   7   9  1   
 15   7  26  1   
 16   7  27  1   
 17   8  12  1   
 18   8  28  1   
 19   9  29  1   
 20   9  30  1   
 21  10  12  1   
 22  10  13  1   
 23  11  14  ar  
 24  11  15  ar  
 25  12  16  2   
 26  13  17  2   
 27  14  18  1   
 28  14  19  ar  
 29  15  20  ar  
 30  15  31  1   
 31  16  17  1   
 32  18  21  1   
 33  19  22  ar  
 34  19  32  1   
 35  20  22  ar  
 36  20  33  1   
 37  21  34  1   
 38  21  35  1   
 39  21  36  1   
 40  22  37  1   
@<TRIPOS>SUBSTRUCTURE
  1 ****   6 GROUP 4 **** **** 0

# MOE 2024.06 (io_trps.svl 2023.06)
