@<TRIPOS>MOLECULE
4-Methoxy-2,3,5-trimethyl-N-(2,2,6,6-tetramethyl-piperidin-4-yl)-benzenesulfonam
58 59 1 0 0 
SMALL
USER_CHARGES


@<TRIPOS>ATOM
  1 S       -0.1240     0.1400    -2.2340 S.o2  1 <1>   1.4470 
  2 O        0.4620     1.2760    -2.9020 O.2   1 <1>  -0.6500 
  3 O       -0.9540    -0.7700    -2.9930 O.2   1 <1>  -0.6500 
  4 N       -1.1680     0.8360    -1.1130 N.am  1 <1>  -0.9140 
  5 C        1.0920    -0.7770    -1.2300 C.ar  1 <1>  -0.0090 
  6 C       -2.3000     0.0350    -0.6950 C.3   1 <1>   0.2760 
  7 C        1.7980    -0.2360    -0.1460 C.ar  1 <1>  -0.1440 
  8 C        1.2900    -2.1180    -1.5400 C.ar  1 <1>  -0.1500 
  9 C       -3.2110     0.9430     0.1270 C.3   1 <1>  -0.1600 
 10 C       -1.8300    -1.1240     0.1880 C.3   1 <1>  -0.1600 
 11 C        2.6200    -1.0510     0.6360 C.ar  1 <1>  -0.1440 
 12 C        1.6710     1.2530     0.1940 C.3   1 <1>  -0.0970 
 13 C        2.1200    -2.9320    -0.7970 C.ar  1 <1>  -0.1440 
 14 C       -4.4140     0.1990     0.7200 C.3   1 <1>   0.5030 
 15 C       -2.9850    -1.9270     0.7910 C.3   1 <1>   0.5030 
 16 C        2.7900    -2.3910     0.2900 C.ar  1 <1>   0.0820 
 17 C        3.3340    -0.5010     1.8750 C.3   1 <1>  -0.0970 
 18 C        2.2770    -4.3980    -1.1820 C.3   1 <1>  -0.0960 
 19 N       -3.9950    -1.0420     1.3890 N.4   1 <1>  -0.9060 
 20 C       -5.0540     1.0550     1.8120 C.3   1 <1>  -0.2400 
 21 C       -5.4820    -0.1020    -0.3340 C.3   1 <1>  -0.2400 
 22 C       -3.6360    -2.8530    -0.2400 C.3   1 <1>  -0.2400 
 23 C       -2.4620    -2.7870     1.9390 C.3   1 <1>  -0.2400 
 24 O        3.6020    -3.1910     1.0140 O.3   1 <1>  -0.3620 
 25 C        4.9600    -3.2010     0.6360 C.3   1 <1>   0.0400 
 26 H       -1.5070     1.6480    -1.6270 H     1 <1>   0.4200 
 27 H       -2.8340    -0.3290    -1.5580 H     1 <1>   0.0800 
 28 H        0.7730    -2.5390    -2.3850 H     1 <1>   0.1500 
 29 H       -3.5660     1.7490    -0.4910 H     1 <1>   0.0800 
 30 H       -2.6340     1.3800     0.9250 H     1 <1>   0.0800 
 31 H       -1.2080    -0.7340     0.9750 H     1 <1>   0.0800 
 32 H       -1.2330    -1.8060    -0.3870 H     1 <1>   0.0800 
 33 H        0.8830     1.4010     0.9090 H     1 <1>   0.0800 
 34 H        1.4650     1.8480    -0.6740 H     1 <1>   0.0800 
 35 H        2.5850     1.6410     0.6010 H     1 <1>   0.0800 
 36 H        4.2090     0.0480     1.5790 H     1 <1>   0.0800 
 37 H        3.6360    -1.2860     2.5430 H     1 <1>   0.0800 
 38 H        2.6840     0.1470     2.4330 H     1 <1>   0.0800 
 39 H        1.4880    -4.7120    -1.8410 H     1 <1>   0.0800 
 40 H        2.2490    -5.0180    -0.3030 H     1 <1>   0.0800 
 41 H        3.2180    -4.5460    -1.6780 H     1 <1>   0.0800 
 42 H       -4.8290    -1.5990     1.5830 H     1 <1>   0.4500 
 43 H       -3.6210    -0.7640     2.2980 H     1 <1>   0.4500 
 44 H       -4.3540     1.2780     2.5990 H     1 <1>   0.0800 
 45 H       -5.9150     0.5670     2.2350 H     1 <1>   0.0800 
 46 H       -5.3830     1.9930     1.3990 H     1 <1>   0.0800 
 47 H       -5.0790    -0.5720    -1.2080 H     1 <1>   0.0800 
 48 H       -5.9310     0.8190    -0.6660 H     1 <1>   0.0800 
 49 H       -6.2680    -0.7160     0.0700 H     1 <1>   0.0800 
 50 H       -3.8790    -2.3480    -1.1530 H     1 <1>   0.0800 
 51 H       -4.5190    -3.3220     0.1560 H     1 <1>   0.0800 
 52 H       -2.9460    -3.6360    -0.5060 H     1 <1>   0.0800 
 53 H       -2.0140    -2.1850     2.7100 H     1 <1>   0.0800 
 54 H       -1.7010    -3.4590     1.5770 H     1 <1>   0.0800 
 55 H       -3.2450    -3.3860     2.3690 H     1 <1>   0.0800 
 56 H        5.4860    -3.8740     1.2880 H     1 <1>   0.0800 
 57 H        5.3580    -2.2070     0.7300 H     1 <1>   0.0800 
 58 H        5.0370    -3.5370    -0.3830 H     1 <1>   0.0800 
@<TRIPOS>BOND
  1   1   2  2   
  2   1   3  2   
  3   1   4  am  
  4   1   5  1   
  5   4   6  1   
  6   4  26  1   
  7   5   7  ar  
  8   5   8  ar  
  9   6   9  1   
 10   6  10  1   
 11   6  27  1   
 12   7  11  ar  
 13   7  12  1   
 14   8  13  ar  
 15   8  28  1   
 16   9  14  1   
 17   9  29  1   
 18   9  30  1   
 19  10  15  1   
 20  10  31  1   
 21  10  32  1   
 22  11  16  ar  
 23  11  17  1   
 24  12  33  1   
 25  12  34  1   
 26  12  35  1   
 27  13  16  ar  
 28  13  18  1   
 29  14  19  1   
 30  14  20  1   
 31  14  21  1   
 32  15  19  1   
 33  15  22  1   
 34  15  23  1   
 35  16  24  1   
 36  17  36  1   
 37  17  37  1   
 38  17  38  1   
 39  18  39  1   
 40  18  40  1   
 41  18  41  1   
 42  19  42  1   
 43  19  43  1   
 44  20  44  1   
 45  20  45  1   
 46  20  46  1   
 47  21  47  1   
 48  21  48  1   
 49  21  49  1   
 50  22  50  1   
 51  22  51  1   
 52  22  52  1   
 53  23  53  1   
 54  23  54  1   
 55  23  55  1   
 56  24  25  1   
 57  25  56  1   
 58  25  57  1   
 59  25  58  1   
@<TRIPOS>SUBSTRUCTURE
  1 ****  10 GROUP 4 **** **** 0

# MOE 2024.06 (io_trps.svl 2023.06)
