@<TRIPOS>MOLECULE
N-(2,5-Dichloro-phenyl)-N-(1-methyl-2-morpholin-4-yl-2-oxo-ethyl)-methanesulfona
41 42 1 0 0 
SMALL
USER_CHARGES


@<TRIPOS>ATOM
  1 CL       1.3000    -2.6130     2.4080 Cl    1 <1>  -0.1770 
  2 C       -0.2400    -2.0940     1.7540 C.ar  1 <1>   0.1770 
  3 C       -0.6070    -2.4310     0.4450 C.ar  1 <1>   0.1990 
  4 C       -1.0620    -1.3450     2.5770 C.ar  1 <1>  -0.1500 
  5 N        0.2030    -3.1900    -0.4070 N.am  1 <1>  -0.6930 
  6 C       -1.8440    -1.9890    -0.0120 C.ar  1 <1>  -0.1500 
  7 C       -2.2890    -0.9120     2.1030 C.ar  1 <1>  -0.1500 
  8 S        0.3030    -4.9080    -0.2280 S.o2  1 <1>   1.3330 
  9 C        1.1630    -2.5090    -1.3360 C.3   1 <1>   0.3370 
 10 C       -2.6620    -1.2420     0.8130 C.ar  1 <1>   0.1770 
 11 O       -0.1280    -5.2410     1.1050 O.2   1 <1>  -0.6500 
 12 O        1.5890    -5.3300    -0.7280 O.2   1 <1>  -0.6500 
 13 C       -0.9490    -5.4590    -1.3660 C.3   1 <1>  -0.1350 
 14 C        1.9560    -1.3490    -0.6740 C.2   1 <1>   0.5690 
 15 C        0.3920    -2.0510    -2.5830 C.3   1 <1>  -0.2400 
 16 CL      -4.2080    -0.7030     0.2100 Cl    1 <1>  -0.1770 
 17 O        1.4200    -0.2620    -0.6160 O.2   1 <1>  -0.5700 
 18 N        3.2340    -1.5250    -0.1900 N.am  1 <1>  -0.6600 
 19 C        4.0320    -0.3670     0.3230 C.3   1 <1>   0.1400 
 20 C        3.9590    -2.8340    -0.0850 C.3   1 <1>   0.1400 
 21 C        4.6830    -0.6960     1.6740 C.3   1 <1>   0.1200 
 22 C        4.6660    -2.9960     1.2730 C.3   1 <1>   0.1200 
 23 O        5.4360    -1.8700     1.5750 O.3   1 <1>  -0.5600 
 24 H       -0.7420    -1.1070     3.5760 H     1 <1>   0.1500 
 25 H       -2.1690    -2.2240    -1.0060 H     1 <1>   0.1500 
 26 H       -2.9480    -0.3270     2.7210 H     1 <1>   0.1500 
 27 H        1.8850    -3.2170    -1.6900 H     1 <1>   0.0800 
 28 H       -0.7130    -5.1470    -2.3630 H     1 <1>   0.0800 
 29 H       -1.9030    -5.0550    -1.0890 H     1 <1>   0.0800 
 30 H       -1.0130    -6.5290    -1.3470 H     1 <1>   0.0800 
 31 H       -0.3250    -1.2910    -2.3280 H     1 <1>   0.0800 
 32 H       -0.1080    -2.8790    -3.0480 H     1 <1>   0.0800 
 33 H        1.0810    -1.6270    -3.2910 H     1 <1>   0.0800 
 34 H        3.4100     0.5030     0.4410 H     1 <1>   0.0800 
 35 H        4.8020    -0.1270    -0.3880 H     1 <1>   0.0800 
 36 H        4.6940    -2.8930    -0.8680 H     1 <1>   0.0800 
 37 H        3.2840    -3.6590    -0.1980 H     1 <1>   0.0800 
 38 H        3.9330    -0.8250     2.4360 H     1 <1>   0.0800 
 39 H        5.3470     0.0960     1.9690 H     1 <1>   0.0800 
 40 H        5.3240    -3.8470     1.2460 H     1 <1>   0.0800 
 41 H        3.9500    -3.1460     2.0610 H     1 <1>   0.0800 
@<TRIPOS>BOND
  1   1   2  1   
  2   2   3  ar  
  3   2   4  ar  
  4   3   5  1   
  5   3   6  ar  
  6   4   7  ar  
  7   4  24  1   
  8   5   8  am  
  9   5   9  1   
 10   6  10  ar  
 11   6  25  1   
 12   7  10  ar  
 13   7  26  1   
 14   8  11  2   
 15   8  12  2   
 16   8  13  1   
 17   9  14  1   
 18   9  15  1   
 19   9  27  1   
 20  10  16  1   
 21  13  28  1   
 22  13  29  1   
 23  13  30  1   
 24  14  17  2   
 25  14  18  am  
 26  15  31  1   
 27  15  32  1   
 28  15  33  1   
 29  18  19  1   
 30  18  20  1   
 31  19  21  1   
 32  19  34  1   
 33  19  35  1   
 34  20  22  1   
 35  20  36  1   
 36  20  37  1   
 37  21  23  1   
 38  21  38  1   
 39  21  39  1   
 40  22  23  1   
 41  22  40  1   
 42  22  41  1   
@<TRIPOS>SUBSTRUCTURE
  1 ****   5 GROUP 4 **** **** 0

# MOE 2024.06 (io_trps.svl 2023.06)
