@<TRIPOS>MOLECULE
NONAME
46 49 1 0 0 
SMALL
USER_CHARGES


@<TRIPOS>ATOM
  1 O       -0.4980     0.5410    -0.7190 O.2   1 <1>  -0.5700 
  2 C       -1.4870     1.1680    -0.3860 C.2   1 <1>   0.6340 
  3 O       -2.6530     0.5380    -0.5150 O.3   1 <1>  -0.2330 
  4 C       -1.4740     2.5310     0.0760 C.ar  1 <1>   0.0860 
  5 C       -3.8040     0.9870     0.0320 C.ar  1 <1>   0.0820 
  6 C       -0.2910     3.2760     0.2000 C.ar  1 <1>   0.4270 
  7 C       -2.6920     3.1540     0.3450 C.ar  1 <1>   0.0000 
  8 C       -4.9120     0.1350     0.1370 C.ar  1 <1>   0.0830 
  9 C       -3.8250     2.2770     0.5750 C.ar  1 <1>   0.0000 
 10 N       -0.2840     4.5820     0.3810 N.ar  1 <1>  -0.6200 
 11 N        0.9490     2.6640     0.1010 N.am  1 <1>  -0.5470 
 12 C       -2.6750     4.5540     0.3640 C.ar  1 <1>  -0.1430 
 13 O       -5.0130    -1.0990    -0.4290 O.3   1 <1>  -0.3630 
 14 C       -5.9990     0.5330     0.8910 C.ar  1 <1>  -0.1500 
 15 C       -4.9150     2.6070     1.3860 C.ar  1 <1>  -0.1500 
 16 C       -1.4470     5.2000     0.4350 C.ar  1 <1>   0.1670 
 17 C        2.1460     2.9530     0.6870 C.2   1 <1>   0.5690 
 18 C       -3.9560     5.3920     0.2430 C.3   1 <1>  -0.0160 
 19 C       -4.3770    -1.4050    -1.6520 C.3   1 <1>   0.0400 
 20 C       -5.9940     1.7580     1.5320 C.ar  1 <1>  -0.1500 
 21 C       -1.3310     6.7100     0.6020 C.3   1 <1>  -0.0160 
 22 O        2.3150     3.7890     1.5370 O.2   1 <1>  -0.5700 
 23 C        3.3270     2.1180     0.2600 C.3   1 <1>  -0.1790 
 24 C       -3.9610     6.2810    -1.0120 C.3   1 <1>  -0.1600 
 25 C       -1.7100     7.4760    -0.6700 C.3   1 <1>  -0.1600 
 26 C       -3.2250     7.6170    -0.8520 C.3   1 <1>  -0.1600 
 27 H        0.9260     1.7760    -0.4090 H     1 <1>   0.3700 
 28 H       -6.8440    -0.1260     0.9860 H     1 <1>   0.1500 
 29 H       -4.9210     3.5360     1.9260 H     1 <1>   0.1500 
 30 H       -4.1130     5.9790     1.1300 H     1 <1>   0.0800 
 31 H       -4.8080     4.7550     0.1230 H     1 <1>   0.0800 
 32 H       -4.8690    -2.2600    -2.0790 H     1 <1>   0.0800 
 33 H       -3.3460    -1.6410    -1.4610 H     1 <1>   0.0800 
 34 H       -4.4630    -0.5630    -2.3160 H     1 <1>   0.0800 
 35 H       -6.8310     2.0430     2.1460 H     1 <1>   0.1500 
 36 H       -0.3100     6.9490     0.8490 H     1 <1>   0.0800 
 37 H       -1.9310     7.0350     1.4320 H     1 <1>   0.0800 
 38 H        3.4810     2.2220    -0.7980 H     1 <1>   0.0800 
 39 H        3.1510     1.0870     0.5000 H     1 <1>   0.0800 
 40 H        4.2100     2.4500     0.7740 H     1 <1>   0.0800 
 41 H       -4.9860     6.5060    -1.2540 H     1 <1>   0.0800 
 42 H       -3.5530     5.7340    -1.8450 H     1 <1>   0.0800 
 43 H       -1.2740     6.9880    -1.5250 H     1 <1>   0.0800 
 44 H       -1.2840     8.4620    -0.6100 H     1 <1>   0.0800 
 45 H       -3.6390     8.1610    -0.0200 H     1 <1>   0.0800 
 46 H       -3.4010     8.2080    -1.7360 H     1 <1>   0.0800 
@<TRIPOS>BOND
  1   1   2  2   
  2   2   3  1   
  3   2   4  1   
  4   3   5  1   
  5   4   6  ar  
  6   4   7  ar  
  7   5   8  ar  
  8   5   9  ar  
  9   6  10  ar  
 10   6  11  1   
 11   7   9  1   
 12   7  12  ar  
 13   8  13  1   
 14   8  14  ar  
 15   9  15  ar  
 16  10  16  ar  
 17  11  17  am  
 18  11  27  1   
 19  12  16  ar  
 20  12  18  1   
 21  13  19  1   
 22  14  20  ar  
 23  14  28  1   
 24  15  20  ar  
 25  15  29  1   
 26  16  21  1   
 27  17  22  2   
 28  17  23  1   
 29  18  24  1   
 30  18  30  1   
 31  18  31  1   
 32  19  32  1   
 33  19  33  1   
 34  19  34  1   
 35  20  35  1   
 36  21  25  1   
 37  21  36  1   
 38  21  37  1   
 39  23  38  1   
 40  23  39  1   
 41  23  40  1   
 42  24  26  1   
 43  24  41  1   
 44  24  42  1   
 45  25  26  1   
 46  25  43  1   
 47  25  44  1   
 48  26  45  1   
 49  26  46  1   
@<TRIPOS>SUBSTRUCTURE
  1 ****   7 GROUP 4 **** **** 0

# MOE 2024.06 (io_trps.svl 2023.06)
