@<TRIPOS>MOLECULE
7-(4-Fluoro-benzyl)-3-methyl-8-(4-methyl-piperazin-1-yl)-3,7-dihydro-purine-2,6-
50 53 1 0 0 
SMALL
USER_CHARGES


@<TRIPOS>ATOM
  1 F       -1.3460     0.6090    -2.2840 F     1 <1>  -0.1970 
  2 C       -2.3560     0.2340    -1.5500 C.ar  1 <1>   0.1830 
  3 C       -2.3520     0.5400    -0.2040 C.ar  1 <1>  -0.1580 
  4 C       -3.3910    -0.4600    -2.1440 C.ar  1 <1>  -0.1580 
  5 C       -3.4140     0.1180     0.5770 C.ar  1 <1>  -0.1580 
  6 C       -4.4490    -0.8780    -1.3550 C.ar  1 <1>  -0.1580 
  7 C       -4.4570    -0.6130     0.0130 C.ar  1 <1>  -0.1510 
  8 C       -5.5940    -1.0970     0.9040 C.3   1 <1>   0.4920 
  9 N       -5.9700    -2.5180     0.6120 N.pl3 1 <1>  -0.7670 
 10 C       -5.2400    -3.5830     0.2350 C.cat 1 <1>   1.0690 
 11 C       -7.3300    -2.8700     0.4540 C.2   1 <1>   0.2700 
 12 N       -6.0630    -4.5450    -0.1930 N.pl3 1 <1>  -0.7040 
 13 N       -3.8900    -3.7640     0.2700 N.pl3 1 <1>  -0.5970 
 14 C       -8.5920    -2.2330     0.7090 C.2   1 <1>   0.6990 
 15 C       -7.3460    -4.1210    -0.0540 C.2   1 <1>   0.4200 
 16 C       -2.9660    -3.0400     1.2100 C.3   1 <1>   0.1600 
 17 C       -3.1550    -4.6290    -0.7200 C.3   1 <1>   0.1600 
 18 O       -8.6970    -1.1200     1.1830 O.2   1 <1>  -0.5750 
 19 N       -9.7230    -2.9340     0.4090 N.am  1 <1>  -0.4950 
 20 N       -8.5040    -4.8210    -0.3580 N.am  1 <1>  -0.4420 
 21 C       -1.9330    -3.9800     1.8700 C.3   1 <1>   0.3370 
 22 C       -2.1000    -5.5460    -0.0540 C.3   1 <1>   0.3370 
 23 C       -9.7180    -4.1980    -0.1040 C.2   1 <1>   0.6860 
 24 C       -8.4620    -6.2010    -0.9270 C.3   1 <1>   0.0520 
 25 N       -1.1780    -4.7860     0.8540 N.4   1 <1>  -0.9610 
 26 O      -10.7770    -4.7390    -0.3160 O.2   1 <1>  -0.5750 
 27 C       -0.2120    -5.7120     1.5250 C.3   1 <1>   0.2560 
 28 H       -1.5360     1.1050     0.2140 H     1 <1>   0.1420 
 29 H       -3.3650    -0.6550    -3.2020 H     1 <1>   0.1420 
 30 H       -3.4150     0.3710     1.6250 H     1 <1>   0.1420 
 31 H       -5.2660    -1.3990    -1.8250 H     1 <1>   0.1420 
 32 H       -6.4310    -0.4440     0.7310 H     1 <1>   0.0720 
 33 H       -5.3260    -1.0070     1.9430 H     1 <1>   0.0720 
 34 H       -5.7970    -5.4700    -0.5120 H     1 <1>   0.4440 
 35 H       -3.5280    -2.5530     1.9870 H     1 <1>   0.0720 
 36 H       -2.4260    -2.2890     0.6610 H     1 <1>   0.0720 
 37 H       -2.6530    -3.9890    -1.4270 H     1 <1>   0.0720 
 38 H       -3.8390    -5.2400    -1.2820 H     1 <1>   0.0720 
 39 H      -10.6310    -2.5060     0.5880 H     1 <1>   0.3640 
 40 H       -2.4450    -4.6420     2.5490 H     1 <1>   0.0720 
 41 H       -1.2400    -3.3900     2.4500 H     1 <1>   0.0720 
 42 H       -1.5240    -6.0380    -0.8220 H     1 <1>   0.0720 
 43 H       -2.6080    -6.3090     0.5120 H     1 <1>   0.0720 
 44 H       -8.1930    -6.9050    -0.1590 H     1 <1>   0.0720 
 45 H       -7.7490    -6.2510    -1.7310 H     1 <1>   0.0720 
 46 H       -9.4260    -6.4800    -1.3210 H     1 <1>   0.0720 
 47 H       -0.6210    -4.1340     0.2770 H     1 <1>   0.4440 
 48 H       -0.7370    -6.4190     2.1470 H     1 <1>   0.0720 
 49 H        0.4740    -5.1540     2.1420 H     1 <1>   0.0720 
 50 H        0.3580    -6.2560     0.7890 H     1 <1>   0.0720 
@<TRIPOS>BOND
  1   1   2  1   
  2   2   3  ar  
  3   2   4  ar  
  4   3   5  ar  
  5   3  28  1   
  6   4   6  ar  
  7   4  29  1   
  8   5   7  ar  
  9   5  30  1   
 10   6   7  ar  
 11   6  31  1   
 12   7   8  1   
 13   8   9  1   
 14   8  32  1   
 15   8  33  1   
 16   9  10  ar  
 17   9  11  1   
 18  10  12  ar  
 19  10  13  ar  
 20  11  14  1   
 21  11  15  2   
 22  12  15  1   
 23  12  34  1   
 24  13  16  1   
 25  13  17  1   
 26  14  18  2   
 27  14  19  am  
 28  15  20  1   
 29  16  21  1   
 30  16  35  1   
 31  16  36  1   
 32  17  22  1   
 33  17  37  1   
 34  17  38  1   
 35  19  23  am  
 36  19  39  1   
 37  20  23  am  
 38  20  24  1   
 39  21  25  1   
 40  21  40  1   
 41  21  41  1   
 42  22  25  1   
 43  22  42  1   
 44  22  43  1   
 45  23  26  2   
 46  24  44  1   
 47  24  45  1   
 48  24  46  1   
 49  25  27  1   
 50  25  47  1   
 51  27  48  1   
 52  27  49  1   
 53  27  50  1   
@<TRIPOS>SUBSTRUCTURE
  1 ****  10 GROUP 4 **** **** 0

# MOE 2024.06 (io_trps.svl 2023.06)
