@<TRIPOS>MOLECULE
4-(2-Methoxy-phenyl)-6-(4-methyl-piperazin-1-ylmethyl)-2-oxo-1,2,3,4-tetrahydro-
57 59 1 0 0 
SMALL
USER_CHARGES


@<TRIPOS>ATOM
  1 O        0.4810     0.4310     0.3520 O.2   1 <1>  -0.5700 
  2 C        0.1770     1.5990     0.4280 C.2   1 <1>   0.6900 
  3 N       -0.8280     2.0940    -0.3300 N.am  1 <1>  -0.5390 
  4 N        0.8340     2.4310     1.2490 N.am  1 <1>  -0.7300 
  5 C       -1.1900     3.4280    -0.3840 C.2   1 <1>  -0.0290 
  6 C        0.6860     3.8980     1.2000 C.3   1 <1>   0.5020 
  7 C       -0.5270     4.3520     0.3720 C.2   1 <1>  -0.1240 
  8 C       -2.3480     3.7060    -1.3470 C.3   1 <1>   0.2480 
  9 C        2.0240     4.4830     0.7410 C.ar  1 <1>  -0.1430 
 10 C       -0.8350     5.7440     0.5220 C.2   1 <1>   0.7060 
 11 N       -3.6160     3.1460    -0.8310 N.3   1 <1>  -0.8100 
 12 C        2.4560     4.4220    -0.5830 C.ar  1 <1>   0.0830 
 13 C        2.8460     5.0930     1.6800 C.ar  1 <1>  -0.1500 
 14 O       -1.8310     6.2690     0.0610 O.2   1 <1>  -0.5700 
 15 O       -0.0240     6.5060     1.2610 O.3   1 <1>  -0.4300 
 16 C       -4.0280     3.8420     0.4170 C.3   1 <1>   0.1100 
 17 C       -4.6900     3.2510    -1.8450 C.3   1 <1>   0.1100 
 18 O        1.6850     3.8350    -1.5230 O.3   1 <1>  -0.3620 
 19 C        3.6760     4.9730    -0.9520 C.ar  1 <1>  -0.1500 
 20 C        4.0660     5.6360     1.3130 C.ar  1 <1>  -0.1500 
 21 C       -0.2210     7.8940     1.4110 C.3   1 <1>   0.1200 
 22 C       -5.4070     3.3720     0.9400 C.3   1 <1>   0.3430 
 23 C       -6.0380     2.6780    -1.3390 C.3   1 <1>   0.3430 
 24 C        2.2110     2.6960    -2.1680 C.3   1 <1>   0.0400 
 25 C        4.4810     5.5770    -0.0050 C.ar  1 <1>  -0.1500 
 26 C        0.9340     8.4430     2.2410 C.3   1 <1>  -0.2400 
 27 N       -5.9480     2.2550     0.0990 N.4   1 <1>  -0.9590 
 28 C       -7.2120     1.6690     0.6290 C.3   1 <1>   0.2630 
 29 H       -1.3260     1.3910    -0.8750 H     1 <1>   0.3700 
 30 H        1.7130     2.0860     1.6290 H     1 <1>   0.3700 
 31 H        0.5120     4.2150     2.2140 H     1 <1>   0.0800 
 32 H       -2.1100     3.2320    -2.2850 H     1 <1>   0.0800 
 33 H       -2.4610     4.7530    -1.5570 H     1 <1>   0.0800 
 34 H        2.5430     5.1570     2.7110 H     1 <1>   0.1500 
 35 H       -4.0630     4.9060     0.2520 H     1 <1>   0.0800 
 36 H       -3.2960     3.6620     1.1860 H     1 <1>   0.0800 
 37 H       -4.3990     2.7170    -2.7340 H     1 <1>   0.0800 
 38 H       -4.8300     4.2830    -2.1220 H     1 <1>   0.0800 
 39 H        3.9910     4.9370    -1.9780 H     1 <1>   0.1500 
 40 H        4.6910     6.1060     2.0520 H     1 <1>   0.1500 
 41 H       -1.1660     8.0570     1.9020 H     1 <1>   0.0800 
 42 H       -0.2380     8.3440     0.4320 H     1 <1>   0.0800 
 43 H       -6.0900     4.2050     0.9300 H     1 <1>   0.0800 
 44 H       -5.3000     3.0480     1.9620 H     1 <1>   0.0800 
 45 H       -6.3080     1.8330    -1.9500 H     1 <1>   0.0800 
 46 H       -6.8050     3.4260    -1.4570 H     1 <1>   0.0800 
 47 H        3.0350     2.9880    -2.7920 H     1 <1>   0.0800 
 48 H        1.4320     2.2600    -2.7660 H     1 <1>   0.0800 
 49 H        2.5330     1.9910    -1.4210 H     1 <1>   0.0800 
 50 H        5.4270     6.0030    -0.2920 H     1 <1>   0.1500 
 51 H        0.9450     7.9840     3.2130 H     1 <1>   0.0800 
 52 H        0.8200     9.5040     2.3640 H     1 <1>   0.0800 
 53 H        1.8690     8.2540     1.7420 H     1 <1>   0.0800 
 54 H       -5.1860     1.5560     0.1040 H     1 <1>   0.4500 
 55 H       -7.9990     2.4050     0.6210 H     1 <1>   0.0800 
 56 H       -7.0690     1.3260     1.6410 H     1 <1>   0.0800 
 57 H       -7.5170     0.8300     0.0240 H     1 <1>   0.0800 
@<TRIPOS>BOND
  1   1   2  2   
  2   2   3  am  
  3   2   4  am  
  4   3   5  1   
  5   3  29  1   
  6   4   6  1   
  7   4  30  1   
  8   5   7  2   
  9   5   8  1   
 10   6   7  1   
 11   6   9  1   
 12   6  31  1   
 13   7  10  1   
 14   8  11  1   
 15   8  32  1   
 16   8  33  1   
 17   9  12  ar  
 18   9  13  ar  
 19  10  14  2   
 20  10  15  1   
 21  11  16  1   
 22  11  17  1   
 23  12  18  1   
 24  12  19  ar  
 25  13  20  ar  
 26  13  34  1   
 27  15  21  1   
 28  16  22  1   
 29  16  35  1   
 30  16  36  1   
 31  17  23  1   
 32  17  37  1   
 33  17  38  1   
 34  18  24  1   
 35  19  25  ar  
 36  19  39  1   
 37  20  25  ar  
 38  20  40  1   
 39  21  26  1   
 40  21  41  1   
 41  21  42  1   
 42  22  27  1   
 43  22  43  1   
 44  22  44  1   
 45  23  27  1   
 46  23  45  1   
 47  23  46  1   
 48  24  47  1   
 49  24  48  1   
 50  24  49  1   
 51  25  50  1   
 52  26  51  1   
 53  26  52  1   
 54  26  53  1   
 55  27  28  1   
 56  27  54  1   
 57  28  55  1   
 58  28  56  1   
 59  28  57  1   
@<TRIPOS>SUBSTRUCTURE
  1 ****   7 GROUP 4 **** **** 0

# MOE 2024.06 (io_trps.svl 2023.06)
