@<TRIPOS>MOLECULE
3-Benzyl-8-(2,4-dimethoxy-phenyl)-1-methyl-5,6,7,8-tetrahydro-1H-1,3,4b,8,9-pent
59 63 1 0 0 
SMALL
USER_CHARGES


@<TRIPOS>ATOM
  1 O        1.1670     0.9130    -1.2140 O.2   1 <1>  -0.5740 
  2 C        2.0260     1.3920    -0.5030 C.2   1 <1>   0.6870 
  3 N        1.7130     2.4170     0.3780 N.am  1 <1>  -0.4250 
  4 N        3.3230     0.8970    -0.5600 N.am  1 <1>  -0.4410 
  5 C        2.6410     2.9020     1.2840 C.2   1 <1>   0.7000 
  6 C        0.4290     3.1470     0.2080 C.3   1 <1>   0.2780 
  7 C        4.2540     1.4130     0.3210 C.2   1 <1>   0.4210 
  8 C        3.6970    -0.1730    -1.5310 C.3   1 <1>   0.0530 
  9 O        2.3320     3.7350     2.1210 O.2   1 <1>  -0.5740 
 10 C        3.9710     2.3790     1.2220 C.2   1 <1>   0.2720 
 11 C        0.6560     4.3060    -0.7500 C.ar  1 <1>  -0.1500 
 12 N        5.5650     1.0720     0.4500 N.pl3 1 <1>  -0.7030 
 13 N        5.1660     2.6300     1.9120 N.pl3 1 <1>  -0.7670 
 14 C        0.5580     4.1090    -2.1190 C.ar  1 <1>  -0.1560 
 15 C        0.9700     5.5670    -0.2650 C.ar  1 <1>  -0.1560 
 16 C        6.0970     1.8250     1.4100 C.cat 1 <1>   1.0690 
 17 C        5.3990     3.6370     2.9640 C.3   1 <1>   0.3490 
 18 C        0.7740     5.1590    -2.9940 C.ar  1 <1>  -0.1560 
 19 C        1.1860     6.6180    -1.1400 C.ar  1 <1>  -0.1560 
 20 N        7.3710     1.8040     1.8530 N.pl3 1 <1>  -0.5790 
 21 C        6.8930     3.9710     2.9900 C.3   1 <1>  -0.1660 
 22 C        1.0880     6.4140    -2.5050 C.ar  1 <1>  -0.1560 
 23 C        8.3760     0.9740     1.3050 C.ar  1 <1>   0.3060 
 24 C        7.7690     2.7100     2.9680 C.3   1 <1>   0.1620 
 25 C        8.7100     1.0100    -0.0580 C.ar  1 <1>   0.0760 
 26 C        9.0560     0.0960     2.1380 C.ar  1 <1>  -0.1560 
 27 O        8.0230     1.8710    -0.8650 O.3   1 <1>  -0.3670 
 28 C        9.7100     0.1790    -0.5560 C.ar  1 <1>  -0.1560 
 29 C       10.0480    -0.7270     1.6390 C.ar  1 <1>  -0.1560 
 30 C        8.5670     2.3030    -2.0970 C.3   1 <1>   0.0330 
 31 C       10.3810    -0.6900     0.2970 C.ar  1 <1>   0.0760 
 32 O       11.3670    -1.5330    -0.1030 O.3   1 <1>  -0.3670 
 33 C       11.8450    -1.5340    -1.4300 C.3   1 <1>   0.0330 
 34 H        0.0790     3.5150     1.1570 H     1 <1>   0.0730 
 35 H       -0.3310     2.4930    -0.1820 H     1 <1>   0.0730 
 36 H        2.9940    -0.2080    -2.3460 H     1 <1>   0.0730 
 37 H        3.6960    -1.1290    -1.0360 H     1 <1>   0.0730 
 38 H        4.6730     0.0190    -1.9410 H     1 <1>   0.0730 
 39 H        6.1250     0.4600    -0.1390 H     1 <1>   0.4460 
 40 H        0.3130     3.1360    -2.5130 H     1 <1>   0.1440 
 41 H        1.0470     5.7410     0.7950 H     1 <1>   0.1440 
 42 H        5.0870     3.2370     3.9140 H     1 <1>   0.0730 
 43 H        4.8250     4.5280     2.7620 H     1 <1>   0.0730 
 44 H        0.6940     5.0000    -4.0550 H     1 <1>   0.1440 
 45 H        1.4280     7.5950    -0.7590 H     1 <1>   0.1440 
 46 H        7.1130     4.5470     3.8720 H     1 <1>   0.0730 
 47 H        7.1360     4.5880     2.1420 H     1 <1>   0.0730 
 48 H        1.2540     7.2320    -3.1850 H     1 <1>   0.1440 
 49 H        8.8020     2.9950     2.8520 H     1 <1>   0.0730 
 50 H        7.6690     2.1810     3.9010 H     1 <1>   0.0730 
 51 H        8.8150     0.0460     3.1840 H     1 <1>   0.1440 
 52 H        9.9640     0.2000    -1.5960 H     1 <1>   0.1440 
 53 H       10.5750    -1.4070     2.2870 H     1 <1>   0.1440 
 54 H        7.9580     3.1060    -2.4720 H     1 <1>   0.0730 
 55 H        8.5570     1.4850    -2.7960 H     1 <1>   0.0730 
 56 H        9.5710     2.6560    -1.9350 H     1 <1>   0.0730 
 57 H       12.6390    -2.2560    -1.4980 H     1 <1>   0.0730 
 58 H       12.2220    -0.5550    -1.6670 H     1 <1>   0.0730 
 59 H       11.0440    -1.8120    -2.0910 H     1 <1>   0.0730 
@<TRIPOS>BOND
  1   1   2  2   
  2   2   3  am  
  3   2   4  am  
  4   3   5  am  
  5   3   6  1   
  6   4   7  1   
  7   4   8  1   
  8   5   9  2   
  9   5  10  1   
 10   6  11  1   
 11   6  34  1   
 12   6  35  1   
 13   7  10  2   
 14   7  12  1   
 15   8  36  1   
 16   8  37  1   
 17   8  38  1   
 18  10  13  1   
 19  11  14  ar  
 20  11  15  ar  
 21  12  16  ar  
 22  12  39  1   
 23  13  16  ar  
 24  13  17  1   
 25  14  18  ar  
 26  14  40  1   
 27  15  19  ar  
 28  15  41  1   
 29  16  20  ar  
 30  17  21  1   
 31  17  42  1   
 32  17  43  1   
 33  18  22  ar  
 34  18  44  1   
 35  19  22  ar  
 36  19  45  1   
 37  20  23  1   
 38  20  24  1   
 39  21  24  1   
 40  21  46  1   
 41  21  47  1   
 42  22  48  1   
 43  23  25  ar  
 44  23  26  ar  
 45  24  49  1   
 46  24  50  1   
 47  25  27  1   
 48  25  28  ar  
 49  26  29  ar  
 50  26  51  1   
 51  27  30  1   
 52  28  31  ar  
 53  28  52  1   
 54  29  31  ar  
 55  29  53  1   
 56  30  54  1   
 57  30  55  1   
 58  30  56  1   
 59  31  32  1   
 60  32  33  1   
 61  33  57  1   
 62  33  58  1   
 63  33  59  1   
@<TRIPOS>SUBSTRUCTURE
  1 ****  12 GROUP 4 **** **** 0

# MOE 2024.06 (io_trps.svl 2023.06)
