@<TRIPOS>MOLECULE
1-Morpholin-4-yl-4-(3-p-tolyl-[1,2,4]oxadiazol-5-yl)-butan-1-one
44 46 1 0 0 
SMALL
USER_CHARGES


@<TRIPOS>ATOM
  1 O       -0.9160    -0.8780     1.2760 O.2   1 <1>  -0.5700 
  2 C       -1.1040    -1.6910     0.4020 C.2   1 <1>   0.5690 
  3 N       -0.2060    -2.6980     0.1550 N.am  1 <1>  -0.6600 
  4 C       -2.3720    -1.5790    -0.4370 C.3   1 <1>  -0.0990 
  5 C        1.0310    -2.8570     0.9790 C.3   1 <1>   0.1400 
  6 C       -0.3410    -3.7650    -0.8840 C.3   1 <1>   0.1400 
  7 C       -3.3420    -0.4620     0.0070 C.3   1 <1>  -0.1600 
  8 C        1.1500    -4.2980     1.5020 C.3   1 <1>   0.1200 
  9 C       -0.1530    -5.1550    -0.2530 C.3   1 <1>   0.1200 
 10 C       -4.5610    -0.3060    -0.9190 C.3   1 <1>   0.0200 
 11 O        1.0550    -5.2180     0.4490 O.3   1 <1>  -0.5600 
 12 C       -5.3440    -1.5960    -1.0830 C.2   1 <1>   0.2980 
 13 O       -4.9970    -2.4250    -2.0330 O.3   1 <1>  -0.0190 
 14 N       -6.3220    -1.9670    -0.3680 N.2   1 <1>  -0.5650 
 15 N       -5.8170    -3.4180    -1.9010 N.2   1 <1>  -0.4100 
 16 C       -6.6060    -3.1520    -0.9190 C.2   1 <1>   0.4620 
 17 C       -7.6760    -4.0090    -0.4340 C.ar  1 <1>   0.0540 
 18 C       -8.4660    -3.6510     0.6600 C.ar  1 <1>  -0.1500 
 19 C       -7.9560    -5.2330    -1.0430 C.ar  1 <1>  -0.1500 
 20 C       -9.4800    -4.4710     1.1210 C.ar  1 <1>  -0.1500 
 21 C       -8.9680    -6.0570    -0.5860 C.ar  1 <1>  -0.1500 
 22 C       -9.7390    -5.6800     0.5000 C.ar  1 <1>  -0.1440 
 23 C      -10.8500    -6.5820     1.0060 C.3   1 <1>  -0.0970 
 24 H       -2.8830    -2.5220    -0.3730 H     1 <1>   0.0800 
 25 H       -2.0810    -1.4120    -1.4570 H     1 <1>   0.0800 
 26 H        1.0230    -2.1790     1.8150 H     1 <1>   0.0800 
 27 H        1.8910    -2.6260     0.3760 H     1 <1>   0.0800 
 28 H        0.4140    -3.6190    -1.6370 H     1 <1>   0.0800 
 29 H       -1.2990    -3.7270    -1.3670 H     1 <1>   0.0800 
 30 H       -2.8130     0.4750     0.0410 H     1 <1>   0.0800 
 31 H       -3.6840    -0.6770     1.0060 H     1 <1>   0.0800 
 32 H        0.3710    -4.5060     2.2140 H     1 <1>   0.0800 
 33 H        2.1020    -4.4420     1.9790 H     1 <1>   0.0800 
 34 H       -0.1270    -5.9100    -1.0180 H     1 <1>   0.0800 
 35 H       -0.9590    -5.3760     0.4250 H     1 <1>   0.0800 
 36 H       -4.2440     0.0360    -1.8880 H     1 <1>   0.0800 
 37 H       -5.2160     0.4400    -0.5070 H     1 <1>   0.0800 
 38 H       -8.2840    -2.7160     1.1590 H     1 <1>   0.1500 
 39 H       -7.3700    -5.5470    -1.8900 H     1 <1>   0.1500 
 40 H      -10.0670    -4.1630     1.9690 H     1 <1>   0.1500 
 41 H       -9.1540    -6.9940    -1.0800 H     1 <1>   0.1500 
 42 H      -11.6400    -5.9980     1.4410 H     1 <1>   0.0800 
 43 H      -10.4620    -7.2530     1.7510 H     1 <1>   0.0800 
 44 H      -11.2620    -7.1600     0.1980 H     1 <1>   0.0800 
@<TRIPOS>BOND
  1   1   2  2   
  2   2   3  am  
  3   2   4  1   
  4   3   5  1   
  5   3   6  1   
  6   4   7  1   
  7   4  24  1   
  8   4  25  1   
  9   5   8  1   
 10   5  26  1   
 11   5  27  1   
 12   6   9  1   
 13   6  28  1   
 14   6  29  1   
 15   7  10  1   
 16   7  30  1   
 17   7  31  1   
 18   8  11  1   
 19   8  32  1   
 20   8  33  1   
 21   9  11  1   
 22   9  34  1   
 23   9  35  1   
 24  10  12  1   
 25  10  36  1   
 26  10  37  1   
 27  12  13  1   
 28  12  14  2   
 29  13  15  1   
 30  14  16  1   
 31  15  16  2   
 32  16  17  1   
 33  17  18  ar  
 34  17  19  ar  
 35  18  20  ar  
 36  18  38  1   
 37  19  21  ar  
 38  19  39  1   
 39  20  22  ar  
 40  20  40  1   
 41  21  22  ar  
 42  21  41  1   
 43  22  23  1   
 44  23  42  1   
 45  23  43  1   
 46  23  44  1   
@<TRIPOS>SUBSTRUCTURE
  1 ****  13 GROUP 4 **** **** 0

# MOE 2024.06 (io_trps.svl 2023.06)
