@<TRIPOS>MOLECULE
[2-(4-Chloro-phenyl)-imidazo[1,2-a]pyrazin-3-yl]-cyclohexyl-amine
43 46 1 0 0 
SMALL
USER_CHARGES


@<TRIPOS>ATOM
  1 CL      -0.6120    -1.3800     0.8050 Cl    1 <1>  -0.1770 
  2 C       -2.3080    -1.0310     0.6070 C.ar  1 <1>   0.1770 
  3 C       -3.2370    -1.7190     1.3650 C.ar  1 <1>  -0.1500 
  4 C       -2.7040    -0.0710    -0.3040 C.ar  1 <1>  -0.1500 
  5 C       -4.5830    -1.4400     1.2040 C.ar  1 <1>  -0.1500 
  6 C       -4.0520     0.2020    -0.4600 C.ar  1 <1>  -0.1500 
  7 C       -5.0160    -0.4780     0.2880 C.ar  1 <1>   0.0410 
  8 C       -6.4150    -0.1940     0.1200 C.2   1 <1>   0.3090 
  9 N       -6.9920     0.9960     0.5100 N.pl3 1 <1>  -0.7000 
 10 C       -7.4200    -0.9610    -0.4120 C.2   1 <1>   0.4460 
 11 C       -8.3080     0.9500     0.2200 C.cat 1 <1>   0.7510 
 12 N       -8.5760    -0.2490    -0.3470 N.pl3 1 <1>  -0.6290 
 13 N       -7.4500    -2.2220    -0.9800 N.pl3 1 <1>  -0.8650 
 14 C       -9.3710     1.8860     0.3960 C.2   1 <1>   0.4390 
 15 C       -9.8690    -0.4960    -0.7650 C.2   1 <1>   0.2290 
 16 C       -7.5040    -3.3790    -0.0670 C.3   1 <1>   0.2890 
 17 N      -10.6030     1.6690     0.0270 N.2   1 <1>  -0.6210 
 18 C      -10.8290     0.4560    -0.5650 C.2   1 <1>   0.0210 
 19 C       -6.3230    -4.3030    -0.3830 C.3   1 <1>  -0.1600 
 20 C       -8.8370    -4.1060    -0.2590 C.3   1 <1>  -0.1600 
 21 C       -6.3730    -5.5760     0.4750 C.3   1 <1>  -0.1600 
 22 C       -8.9000    -5.3860     0.5890 C.3   1 <1>  -0.1600 
 23 C       -7.7100    -6.3080     0.2960 C.3   1 <1>  -0.1600 
 24 H       -2.9010    -2.4590     2.0700 H     1 <1>   0.1500 
 25 H       -1.9590     0.4500    -0.8810 H     1 <1>   0.1500 
 26 H       -5.3000    -1.9750     1.8030 H     1 <1>   0.1500 
 27 H       -4.3540     0.9480    -1.1750 H     1 <1>   0.1500 
 28 H       -6.4830     1.7660     0.9540 H     1 <1>   0.4500 
 29 H       -6.6900    -2.3820    -1.6510 H     1 <1>   0.4000 
 30 H       -9.1330     2.8250     0.8620 H     1 <1>   0.0600 
 31 H      -10.0740    -1.4410    -1.2430 H     1 <1>   0.1500 
 32 H       -7.4330    -3.0500     0.9570 H     1 <1>   0.0800 
 33 H      -11.8440     0.2740    -0.8850 H     1 <1>   0.1500 
 34 H       -5.3940    -3.7950    -0.2000 H     1 <1>   0.0800 
 35 H       -6.3580    -4.5890    -1.4200 H     1 <1>   0.0800 
 36 H       -8.9570    -4.3670    -1.2960 H     1 <1>   0.0800 
 37 H       -9.6460    -3.4590     0.0270 H     1 <1>   0.0800 
 38 H       -6.2430    -5.3190     1.5130 H     1 <1>   0.0800 
 39 H       -5.5660    -6.2320     0.1960 H     1 <1>   0.0800 
 40 H       -9.8180    -5.9100     0.3840 H     1 <1>   0.0800 
 41 H       -8.8990    -5.1260     1.6340 H     1 <1>   0.0800 
 42 H       -7.7440    -7.1610     0.9530 H     1 <1>   0.0800 
 43 H       -7.7830    -6.6730    -0.7150 H     1 <1>   0.0800 
@<TRIPOS>BOND
  1   1   2  1   
  2   2   3  ar  
  3   2   4  ar  
  4   3   5  ar  
  5   3  24  1   
  6   4   6  ar  
  7   4  25  1   
  8   5   7  ar  
  9   5  26  1   
 10   6   7  ar  
 11   6  27  1   
 12   7   8  1   
 13   8   9  1   
 14   8  10  2   
 15   9  11  ar  
 16   9  28  1   
 17  10  12  1   
 18  10  13  1   
 19  11  12  ar  
 20  11  14  1   
 21  12  15  1   
 22  13  16  1   
 23  13  29  1   
 24  14  17  2   
 25  14  30  1   
 26  15  18  2   
 27  15  31  1   
 28  16  19  1   
 29  16  20  1   
 30  16  32  1   
 31  17  18  1   
 32  18  33  1   
 33  19  21  1   
 34  19  34  1   
 35  19  35  1   
 36  20  22  1   
 37  20  36  1   
 38  20  37  1   
 39  21  23  1   
 40  21  38  1   
 41  21  39  1   
 42  22  23  1   
 43  22  40  1   
 44  22  41  1   
 45  23  42  1   
 46  23  43  1   
@<TRIPOS>SUBSTRUCTURE
  1 ****  10 GROUP 4 **** **** 0

# MOE 2024.06 (io_trps.svl 2023.06)
