@<TRIPOS>MOLECULE
N-(2-Bromo-phenyl)-2-[4-(5-chloro-2-methyl-phenyl)-piperazin-1-yl]-acetamide
46 48 1 0 0 
SMALL
USER_CHARGES


@<TRIPOS>ATOM
  1 BR       4.1670    -3.5690    -1.8990 Br    1 <1>  -0.1110 
  2 C        2.5730    -3.1980    -0.8720 C.ar  1 <1>   0.1110 
  3 C        2.6200    -2.2180     0.1170 C.ar  1 <1>   0.1170 
  4 C        1.4370    -3.9300    -1.1570 C.ar  1 <1>  -0.1500 
  5 N        3.8100    -1.5070     0.3460 N.am  1 <1>  -0.5470 
  6 C        1.4490    -1.9900     0.8330 C.ar  1 <1>  -0.1500 
  7 C        0.2860    -3.6820    -0.4270 C.ar  1 <1>  -0.1500 
  8 C        4.2630    -0.7560     1.3920 C.2   1 <1>   0.5690 
  9 C        0.2970    -2.7140     0.5650 C.ar  1 <1>  -0.1500 
 10 O        3.6280    -0.5300     2.3940 O.2   1 <1>  -0.5700 
 11 C        5.6770    -0.1890     1.2550 C.3   1 <1>   0.1710 
 12 N        6.5220    -0.9230     0.2640 N.3   1 <1>  -0.8100 
 13 C        6.9660    -2.2340     0.8040 C.3   1 <1>   0.1100 
 14 C        7.7070    -0.1200    -0.1160 C.3   1 <1>   0.1100 
 15 C        7.8310    -3.0240    -0.1980 C.3   1 <1>   0.2090 
 16 C        8.6000    -0.8380    -1.1480 C.3   1 <1>   0.2090 
 17 N        8.9750    -2.2150    -0.7130 N.pl3 1 <1>  -0.8380 
 18 C       10.2380    -2.4220    -0.1620 C.ar  1 <1>   0.1000 
 19 C       11.2310    -3.0960    -0.8790 C.ar  1 <1>  -0.1430 
 20 C       10.5280    -1.9580     1.1150 C.ar  1 <1>  -0.1500 
 21 C       12.4840    -3.2960    -0.3190 C.ar  1 <1>  -0.1500 
 22 C       10.9430    -3.6150    -2.2800 C.3   1 <1>  -0.0970 
 23 C       11.7780    -2.1660     1.6560 C.ar  1 <1>   0.1770 
 24 C       12.7640    -2.8310     0.9550 C.ar  1 <1>  -0.1500 
 25 CL      12.1230    -1.5760     3.2630 Cl    1 <1>  -0.1770 
 26 H        1.4510    -4.6760    -1.9310 H     1 <1>   0.1500 
 27 H        4.5470    -1.6330    -0.3590 H     1 <1>   0.3700 
 28 H        1.4290    -1.2420     1.6050 H     1 <1>   0.1500 
 29 H       -0.6130    -4.2380    -0.6290 H     1 <1>   0.1500 
 30 H       -0.5970    -2.5200     1.1330 H     1 <1>   0.1500 
 31 H        6.1510    -0.1940     2.2210 H     1 <1>   0.0800 
 32 H        5.5730     0.8350     0.9440 H     1 <1>   0.0800 
 33 H        6.1090    -2.8340     1.0560 H     1 <1>   0.0800 
 34 H        7.5340    -2.0850     1.7050 H     1 <1>   0.0800 
 35 H        8.2950     0.1010     0.7580 H     1 <1>   0.0800 
 36 H        7.3820     0.8130    -0.5410 H     1 <1>   0.0800 
 37 H        7.2200    -3.3280    -1.0290 H     1 <1>   0.0800 
 38 H        8.2080    -3.9130     0.2770 H     1 <1>   0.0800 
 39 H        9.4930    -0.2600    -1.3130 H     1 <1>   0.0800 
 40 H        8.0730    -0.9020    -2.0840 H     1 <1>   0.0800 
 41 H        9.7830    -1.4400     1.6840 H     1 <1>   0.1500 
 42 H       13.2480    -3.8150    -0.8710 H     1 <1>   0.1500 
 43 H       10.6750    -2.7950    -2.9210 H     1 <1>   0.0800 
 44 H       10.1200    -4.3070    -2.2480 H     1 <1>   0.0800 
 45 H       11.7970    -4.1150    -2.6970 H     1 <1>   0.0800 
 46 H       13.7320    -2.9810     1.3980 H     1 <1>   0.1500 
@<TRIPOS>BOND
  1   1   2  1   
  2   2   3  ar  
  3   2   4  ar  
  4   3   5  1   
  5   3   6  ar  
  6   4   7  ar  
  7   4  26  1   
  8   5   8  am  
  9   5  27  1   
 10   6   9  ar  
 11   6  28  1   
 12   7   9  ar  
 13   7  29  1   
 14   8  10  2   
 15   8  11  1   
 16   9  30  1   
 17  11  12  1   
 18  11  31  1   
 19  11  32  1   
 20  12  13  1   
 21  12  14  1   
 22  13  15  1   
 23  13  33  1   
 24  13  34  1   
 25  14  16  1   
 26  14  35  1   
 27  14  36  1   
 28  15  17  1   
 29  15  37  1   
 30  15  38  1   
 31  16  17  1   
 32  16  39  1   
 33  16  40  1   
 34  17  18  1   
 35  18  19  ar  
 36  18  20  ar  
 37  19  21  ar  
 38  19  22  1   
 39  20  23  ar  
 40  20  41  1   
 41  21  24  ar  
 42  21  42  1   
 43  22  43  1   
 44  22  44  1   
 45  22  45  1   
 46  23  24  ar  
 47  23  25  1   
 48  24  46  1   
@<TRIPOS>SUBSTRUCTURE
  1 ****  13 GROUP 4 **** **** 0

# MOE 2024.06 (io_trps.svl 2023.06)
