@<TRIPOS>MOLECULE
6-(4-Methyl-piperazin-1-ylmethyl)-2-oxo-4-p-tolyl-1,2,3,4-tetrahydro-pyrimidine-
53 55 1 0 0 
SMALL
USER_CHARGES


@<TRIPOS>ATOM
  1 O       -0.7810     0.5550     0.7420 O.2   1 <1>  -0.5700 
  2 C       -1.8470     1.1130     0.6260 C.2   1 <1>   0.6900 
  3 N       -2.8030     0.5980    -0.1810 N.am  1 <1>  -0.5390 
  4 N       -2.1190     2.2440     1.2930 N.am  1 <1>  -0.7300 
  5 C       -4.0690     1.1240    -0.3460 C.2   1 <1>  -0.0290 
  6 C       -3.3370     3.0500     1.0730 C.3   1 <1>   0.5020 
  7 C       -4.3960     2.3100     0.2420 C.2   1 <1>  -0.1240 
  8 C       -4.9920     0.2560    -1.2120 C.3   1 <1>   0.2480 
  9 C       -2.9110     4.3530     0.4030 C.ar  1 <1>  -0.1430 
 10 C       -5.6500     3.0000     0.1720 C.2   1 <1>   0.7060 
 11 N       -4.7970    -1.1900    -0.9330 N.3   1 <1>  -0.8100 
 12 C       -2.3270     4.3460    -0.8560 C.ar  1 <1>  -0.1500 
 13 C       -3.1040     5.5680     1.0460 C.ar  1 <1>  -0.1500 
 14 O       -6.5190     2.7270    -0.6320 O.2   1 <1>  -0.5700 
 15 O       -5.8940     3.9810     1.0510 O.3   1 <1>  -0.4300 
 16 C       -5.2420    -1.5430     0.4410 C.3   1 <1>   0.1100 
 17 C       -5.5150    -2.0220    -1.9290 C.3   1 <1>   0.1100 
 18 C       -1.9440     5.5310    -1.4610 C.ar  1 <1>  -0.1500 
 19 C       -2.7210     6.7520     0.4410 C.ar  1 <1>  -0.1500 
 20 C       -7.0840     4.7450     1.0070 C.3   1 <1>   0.0400 
 21 C       -5.0570    -3.0480     0.7580 C.3   1 <1>   0.3430 
 22 C       -5.3970    -3.5400    -1.6380 C.3   1 <1>   0.3430 
 23 C       -2.1380     6.7400    -0.8150 C.ar  1 <1>  -0.1430 
 24 N       -4.5410    -3.8030    -0.4340 N.4   1 <1>  -0.9590 
 25 C       -1.7190     8.0390    -1.4790 C.3   1 <1>  -0.0970 
 26 C       -4.3210    -5.2530    -0.1640 C.3   1 <1>   0.2630 
 27 H       -2.5650    -0.2880    -0.6260 H     1 <1>   0.3700 
 28 H       -1.3260     2.7340     1.7030 H     1 <1>   0.3700 
 29 H       -3.7490     3.2670     2.0440 H     1 <1>   0.0800 
 30 H       -4.7530     0.4520    -2.2440 H     1 <1>   0.0800 
 31 H       -6.0270     0.5020    -1.0640 H     1 <1>   0.0800 
 32 H       -2.1640     3.4160    -1.3730 H     1 <1>   0.1500 
 33 H       -3.5570     5.6040     2.0210 H     1 <1>   0.1500 
 34 H       -6.2800    -1.2830     0.5660 H     1 <1>   0.0800 
 35 H       -4.6820    -0.9730     1.1630 H     1 <1>   0.0800 
 36 H       -5.1130    -1.8260    -2.9100 H     1 <1>   0.0800 
 37 H       -6.5570    -1.7510    -1.9500 H     1 <1>   0.0800 
 38 H       -1.4940     5.5050    -2.4370 H     1 <1>   0.1500 
 39 H       -2.8790     7.6860     0.9520 H     1 <1>   0.1500 
 40 H       -7.0520     5.4740     1.7960 H     1 <1>   0.0800 
 41 H       -7.9270     4.0890     1.1410 H     1 <1>   0.0800 
 42 H       -7.1460     5.2380     0.0510 H     1 <1>   0.0800 
 43 H       -6.0000    -3.4590     1.0760 H     1 <1>   0.0800 
 44 H       -4.3650    -3.1460     1.5780 H     1 <1>   0.0800 
 45 H       -4.9760    -4.0290    -2.5020 H     1 <1>   0.0800 
 46 H       -6.3830    -3.9460    -1.4820 H     1 <1>   0.0800 
 47 H       -3.6460    -3.3350    -0.6540 H     1 <1>   0.4500 
 48 H       -0.8830     7.8750    -2.1350 H     1 <1>   0.0800 
 49 H       -1.4300     8.7630    -0.7380 H     1 <1>   0.0800 
 50 H       -2.5380     8.4350    -2.0520 H     1 <1>   0.0800 
 51 H       -5.2560    -5.7370     0.0670 H     1 <1>   0.0800 
 52 H       -3.6500    -5.3810     0.6700 H     1 <1>   0.0800 
 53 H       -3.8880    -5.7320    -1.0270 H     1 <1>   0.0800 
@<TRIPOS>BOND
  1   1   2  2   
  2   2   3  am  
  3   2   4  am  
  4   3   5  1   
  5   3  27  1   
  6   4   6  1   
  7   4  28  1   
  8   5   7  2   
  9   5   8  1   
 10   6   7  1   
 11   6   9  1   
 12   6  29  1   
 13   7  10  1   
 14   8  11  1   
 15   8  30  1   
 16   8  31  1   
 17   9  12  ar  
 18   9  13  ar  
 19  10  14  2   
 20  10  15  1   
 21  11  16  1   
 22  11  17  1   
 23  12  18  ar  
 24  12  32  1   
 25  13  19  ar  
 26  13  33  1   
 27  15  20  1   
 28  16  21  1   
 29  16  34  1   
 30  16  35  1   
 31  17  22  1   
 32  17  36  1   
 33  17  37  1   
 34  18  23  ar  
 35  18  38  1   
 36  19  23  ar  
 37  19  39  1   
 38  20  40  1   
 39  20  41  1   
 40  20  42  1   
 41  21  24  1   
 42  21  43  1   
 43  21  44  1   
 44  22  24  1   
 45  22  45  1   
 46  22  46  1   
 47  23  25  1   
 48  24  26  1   
 49  24  47  1   
 50  25  48  1   
 51  25  49  1   
 52  25  50  1   
 53  26  51  1   
 54  26  52  1   
 55  26  53  1   
@<TRIPOS>SUBSTRUCTURE
  1 ****   5 GROUP 4 **** **** 0

# MOE 2024.06 (io_trps.svl 2023.06)
