@<TRIPOS>MOLECULE
4-(2,4-Dimethyl-phenyl)-6-(4-ethyl-piperazin-1-ylmethyl)-2-oxo-1,2,3,4-tetrahydr
59 61 1 0 0 
SMALL
USER_CHARGES


@<TRIPOS>ATOM
  1 O       -0.2570     0.7310     0.7490 O.2   1 <1>  -0.5700 
  2 C       -0.2250     1.9380     0.7130 C.2   1 <1>   0.6900 
  3 N       -1.1600     2.6260     0.0180 N.am  1 <1>  -0.5390 
  4 N        0.7310     2.6320     1.3510 N.am  1 <1>  -0.7300 
  5 C       -1.2200     4.0020    -0.0870 C.2   1 <1>  -0.0290 
  6 C        0.8540     4.1020     1.3100 C.3   1 <1>   0.5020 
  7 C       -0.2710     4.7760     0.5120 C.2   1 <1>  -0.1240 
  8 C       -2.4080     4.5180    -0.9110 C.3   1 <1>   0.2480 
  9 C        2.2690     4.4540     0.8310 C.ar  1 <1>  -0.1430 
 10 C       -0.1810     6.2030     0.4890 C.2   1 <1>   0.7060 
 11 N       -3.6340     3.7140    -0.6720 N.3   1 <1>  -0.8100 
 12 C        2.7250     4.2980    -0.4800 C.ar  1 <1>  -0.1440 
 13 C        3.1450     4.9630     1.7840 C.ar  1 <1>  -0.1500 
 14 O       -0.7250     6.8910    -0.3530 O.2   1 <1>  -0.5700 
 15 O        0.5120     6.8160     1.4570 O.3   1 <1>  -0.4300 
 16 C       -4.1330     3.8810     0.7170 C.3   1 <1>   0.1100 
 17 C       -4.6960     4.0810    -1.6400 C.3   1 <1>   0.1100 
 18 C        4.0260     4.6600    -0.7990 C.ar  1 <1>  -0.1500 
 19 C        1.8620     3.7410    -1.6060 C.3   1 <1>  -0.0970 
 20 C        4.4390     5.3180     1.4540 C.ar  1 <1>  -0.1500 
 21 C        0.7150     8.2160     1.4570 C.3   1 <1>   0.0400 
 22 C       -5.4120     3.0510     0.9920 C.3   1 <1>   0.3430 
 23 C       -6.0350     3.3460    -1.3760 C.3   1 <1>   0.3430 
 24 C        4.8870     5.1700     0.1560 C.ar  1 <1>  -0.1430 
 25 N       -5.9090     2.3630    -0.2470 N.4   1 <1>  -0.9590 
 26 C        6.3050     5.5560    -0.2210 C.3   1 <1>  -0.0970 
 27 C       -7.1230     1.5470     0.0040 C.3   1 <1>   0.3430 
 28 C       -7.3570     0.5940    -1.1620 C.3   1 <1>  -0.2400 
 29 H       -1.8760     2.0550    -0.4320 H     1 <1>   0.3700 
 30 H        1.5480     2.1180     1.6750 H     1 <1>   0.3700 
 31 H        0.7530     4.4380     2.3280 H     1 <1>   0.0800 
 32 H       -2.1380     4.4490    -1.9520 H     1 <1>   0.0800 
 33 H       -2.6180     5.5500    -0.6940 H     1 <1>   0.0800 
 34 H        2.8260     5.0950     2.8030 H     1 <1>   0.1500 
 35 H       -4.3420     4.9210     0.9060 H     1 <1>   0.0800 
 36 H       -3.3740     3.5770     1.4180 H     1 <1>   0.0800 
 37 H       -4.3620     3.8420    -2.6370 H     1 <1>   0.0800 
 38 H       -4.8720     5.1440    -1.6090 H     1 <1>   0.0800 
 39 H        4.3820     4.5440    -1.8070 H     1 <1>   0.1500 
 40 H        1.4370     2.7960    -1.3250 H     1 <1>   0.0800 
 41 H        2.4450     3.5790    -2.4940 H     1 <1>   0.0800 
 42 H        1.0760     4.4300    -1.8510 H     1 <1>   0.0800 
 43 H        5.0940     5.7090     2.2120 H     1 <1>   0.1500 
 44 H        1.3080     8.4750     2.3160 H     1 <1>   0.0800 
 45 H       -0.2400     8.7090     1.5030 H     1 <1>   0.0800 
 46 H        1.2340     8.4910     0.5550 H     1 <1>   0.0800 
 47 H       -6.1750     3.7030     1.3850 H     1 <1>   0.0800 
 48 H       -5.1890     2.3170     1.7490 H     1 <1>   0.0800 
 49 H       -6.3320     2.8380    -2.2780 H     1 <1>   0.0800 
 50 H       -6.7960     4.0730    -1.1450 H     1 <1>   0.0800 
 51 H       -5.1290     1.7500    -0.5250 H     1 <1>   0.4500 
 52 H        6.9320     4.6820    -0.2160 H     1 <1>   0.0800 
 53 H        6.7020     6.2730     0.4750 H     1 <1>   0.0800 
 54 H        6.3240     5.9920    -1.2040 H     1 <1>   0.0800 
 55 H       -7.9810     2.1860     0.1390 H     1 <1>   0.0800 
 56 H       -6.9890     0.9680     0.9040 H     1 <1>   0.0800 
 57 H       -7.5970     1.1250    -2.0640 H     1 <1>   0.0800 
 58 H       -8.1900    -0.0460    -0.9300 H     1 <1>   0.0800 
 59 H       -6.4960    -0.0300    -1.3240 H     1 <1>   0.0800 
@<TRIPOS>BOND
  1   1   2  2   
  2   2   3  am  
  3   2   4  am  
  4   3   5  1   
  5   3  29  1   
  6   4   6  1   
  7   4  30  1   
  8   5   7  2   
  9   5   8  1   
 10   6   7  1   
 11   6   9  1   
 12   6  31  1   
 13   7  10  1   
 14   8  11  1   
 15   8  32  1   
 16   8  33  1   
 17   9  12  ar  
 18   9  13  ar  
 19  10  14  2   
 20  10  15  1   
 21  11  16  1   
 22  11  17  1   
 23  12  18  ar  
 24  12  19  1   
 25  13  20  ar  
 26  13  34  1   
 27  15  21  1   
 28  16  22  1   
 29  16  35  1   
 30  16  36  1   
 31  17  23  1   
 32  17  37  1   
 33  17  38  1   
 34  18  24  ar  
 35  18  39  1   
 36  19  40  1   
 37  19  41  1   
 38  19  42  1   
 39  20  24  ar  
 40  20  43  1   
 41  21  44  1   
 42  21  45  1   
 43  21  46  1   
 44  22  25  1   
 45  22  47  1   
 46  22  48  1   
 47  23  25  1   
 48  23  49  1   
 49  23  50  1   
 50  24  26  1   
 51  25  27  1   
 52  25  51  1   
 53  26  52  1   
 54  26  53  1   
 55  26  54  1   
 56  27  28  1   
 57  27  55  1   
 58  27  56  1   
 59  28  57  1   
 60  28  58  1   
 61  28  59  1   
@<TRIPOS>SUBSTRUCTURE
  1 ****   5 GROUP 4 **** **** 0

# MOE 2024.06 (io_trps.svl 2023.06)
