@<TRIPOS>MOLECULE
8-(2,6-Dimethyl-morpholin-4-ylmethyl)-1,3-dimethyl-7-naphthalen-1-ylmethyl-3,7-d
63 67 1 0 0 
SMALL
USER_CHARGES


@<TRIPOS>ATOM
  1 O        0.3180    -0.5890    -0.0010 O.2   1 <1>  -0.5700 
  2 C        1.2540     0.1530     0.2130 C.2   1 <1>   0.6900 
  3 N        1.0940     1.2480     1.0560 N.am  1 <1>  -0.4200 
  4 N        2.4800    -0.0890    -0.3900 N.am  1 <1>  -0.4360 
  5 C        2.1270     2.1520     1.2650 C.2   1 <1>   0.7030 
  6 C       -0.2350     1.4680     1.7090 C.3   1 <1>   0.0600 
  7 C        3.5040     0.8140    -0.1690 C.2   1 <1>   0.4260 
  8 C        2.6750    -1.2700    -1.2830 C.3   1 <1>   0.0600 
  9 O        1.9580     3.1330     1.9690 O.2   1 <1>  -0.5700 
 10 C        3.3870     1.9060     0.6250 C.2   1 <1>   0.2770 
 11 N        4.7620     0.7880    -0.6810 N.pl3 1 <1>  -0.7000 
 12 N        4.6260     2.5500     0.5900 N.pl3 1 <1>  -0.7640 
 13 C        5.4200     1.8470    -0.2120 C.cat 1 <1>   0.6560 
 14 C        4.9750     3.8160     1.2990 C.3   1 <1>   0.4970 
 15 C        6.8840     2.1650    -0.5590 C.3   1 <1>   0.2540 
 16 C        5.0070     4.9570     0.2860 C.ar  1 <1>  -0.1430 
 17 N        7.8090     2.1490     0.6130 N.3   1 <1>  -0.8100 
 18 C        6.2020     5.6660    -0.0260 C.ar  1 <1>   0.0000 
 19 C        3.8270     5.2860    -0.3340 C.ar  1 <1>  -0.1500 
 20 C        9.1920     2.4610     0.1780 C.3   1 <1>   0.1100 
 21 C        7.8450     0.8540     1.3370 C.3   1 <1>   0.1100 
 22 C        6.1430     6.6620    -1.0320 C.ar  1 <1>   0.0000 
 23 C        7.4580     5.4630     0.6000 C.ar  1 <1>  -0.1500 
 24 C        3.7750     6.2860    -1.3060 C.ar  1 <1>  -0.1500 
 25 C        9.8800     1.3150    -0.6170 C.3   1 <1>   0.2000 
 26 C        8.5990    -0.2840     0.5950 C.3   1 <1>   0.2000 
 27 C        4.9130     6.9510    -1.6510 C.ar  1 <1>  -0.1500 
 28 C        7.3130     7.3600    -1.3930 C.ar  1 <1>  -0.1500 
 29 C        8.5750     6.1620     0.2370 C.ar  1 <1>  -0.1500 
 30 O        9.1050     0.1440    -0.6360 O.3   1 <1>  -0.5600 
 31 C       11.2800     0.9780    -0.0970 C.3   1 <1>  -0.2400 
 32 C        7.6980    -1.4810     0.3000 C.3   1 <1>  -0.2400 
 33 C        8.5060     7.1180    -0.7770 C.ar  1 <1>  -0.1500 
 34 H       -0.6680     0.5250     1.9980 H     1 <1>   0.0800 
 35 H       -0.9000     1.9560     1.0170 H     1 <1>   0.0800 
 36 H       -0.1390     2.0760     2.5910 H     1 <1>   0.0800 
 37 H        1.9250    -2.0200    -1.0920 H     1 <1>   0.0800 
 38 H        3.6390    -1.7150    -1.1120 H     1 <1>   0.0800 
 39 H        2.5970    -0.9650    -2.3120 H     1 <1>   0.0800 
 40 H        5.1380     0.0820    -1.3160 H     1 <1>   0.4500 
 41 H        5.9090     3.6860     1.8090 H     1 <1>   0.0800 
 42 H        4.2390     4.0370     2.0520 H     1 <1>   0.0800 
 43 H        6.9120     3.1410    -1.0100 H     1 <1>   0.0800 
 44 H        7.2130     1.4650    -1.3040 H     1 <1>   0.0800 
 45 H        2.9060     4.7840    -0.0900 H     1 <1>   0.1500 
 46 H        9.7810     2.6780     1.0530 H     1 <1>   0.0800 
 47 H        9.2000     3.3580    -0.4190 H     1 <1>   0.0800 
 48 H        6.8490     0.5380     1.5900 H     1 <1>   0.0800 
 49 H        8.3480     1.0120     2.2750 H     1 <1>   0.0800 
 50 H        7.5650     4.7470     1.3900 H     1 <1>   0.1500 
 51 H        2.8340     6.5210    -1.7740 H     1 <1>   0.1500 
 52 H        9.9760     1.6250    -1.6430 H     1 <1>   0.0800 
 53 H        9.4260    -0.6190     1.1980 H     1 <1>   0.0800 
 54 H        4.8840     7.7200    -2.4030 H     1 <1>   0.1500 
 55 H        7.2490     8.1020    -2.1700 H     1 <1>   0.1500 
 56 H        9.5190     5.9930     0.7260 H     1 <1>   0.1500 
 57 H       11.2580     0.7160     0.9450 H     1 <1>   0.0800 
 58 H       11.9250     1.8300    -0.2140 H     1 <1>   0.0800 
 59 H       11.6940     0.1630    -0.6630 H     1 <1>   0.0800 
 60 H        6.8850    -1.1950    -0.3380 H     1 <1>   0.0800 
 61 H        7.3030    -1.8810     1.2160 H     1 <1>   0.0800 
 62 H        8.2720    -2.2520    -0.1830 H     1 <1>   0.0800 
 63 H        9.3950     7.6590    -1.0550 H     1 <1>   0.1500 
@<TRIPOS>BOND
  1   1   2  2   
  2   2   3  am  
  3   2   4  am  
  4   3   5  am  
  5   3   6  1   
  6   4   7  1   
  7   4   8  1   
  8   5   9  2   
  9   5  10  1   
 10   6  34  1   
 11   6  35  1   
 12   6  36  1   
 13   7  10  2   
 14   7  11  1   
 15   8  37  1   
 16   8  38  1   
 17   8  39  1   
 18  10  12  1   
 19  11  13  ar  
 20  11  40  1   
 21  12  13  ar  
 22  12  14  1   
 23  13  15  1   
 24  14  16  1   
 25  14  41  1   
 26  14  42  1   
 27  15  17  1   
 28  15  43  1   
 29  15  44  1   
 30  16  18  ar  
 31  16  19  ar  
 32  17  20  1   
 33  17  21  1   
 34  18  22  ar  
 35  18  23  ar  
 36  19  24  ar  
 37  19  45  1   
 38  20  25  1   
 39  20  46  1   
 40  20  47  1   
 41  21  26  1   
 42  21  48  1   
 43  21  49  1   
 44  22  27  ar  
 45  22  28  ar  
 46  23  29  ar  
 47  23  50  1   
 48  24  27  ar  
 49  24  51  1   
 50  25  30  1   
 51  25  31  1   
 52  25  52  1   
 53  26  30  1   
 54  26  32  1   
 55  26  53  1   
 56  27  54  1   
 57  28  33  ar  
 58  28  55  1   
 59  29  33  ar  
 60  29  56  1   
 61  31  57  1   
 62  31  58  1   
 63  31  59  1   
 64  32  60  1   
 65  32  61  1   
 66  32  62  1   
 67  33  63  1   
@<TRIPOS>SUBSTRUCTURE
  1 ****  13 GROUP 4 **** **** 0

# MOE 2024.06 (io_trps.svl 2023.06)
