@<TRIPOS>MOLECULE
1-(4-Methoxy-3-methyl-benzenesulfonyl)-piperidine-4-carboxylic acid (2-cyclohex-
61 63 1 0 0 
SMALL
USER_CHARGES


@<TRIPOS>ATOM
  1 S        0.2920    -0.2770     2.3910 S.o2  1 <1>   1.4470 
  2 O        0.5710    -1.5060     3.1020 O.2   1 <1>  -0.6500 
  3 O       -0.1130     0.8950     3.1390 O.2   1 <1>  -0.6500 
  4 N        1.7070     0.1540     1.5600 N.am  1 <1>  -0.8490 
  5 C       -0.8840    -0.6140     1.0530 C.ar  1 <1>  -0.0090 
  6 C        2.8780     0.1040     2.4380 C.3   1 <1>   0.1960 
  7 C        1.5800     1.4580     0.9020 C.3   1 <1>   0.1960 
  8 C       -2.1350    -0.0090     1.0190 C.ar  1 <1>  -0.1500 
  9 C       -0.5590    -1.4870     0.0230 C.ar  1 <1>  -0.1500 
 10 C        4.1580     0.3480     1.6330 C.3   1 <1>  -0.1600 
 11 C        2.8110     1.7360     0.0370 C.3   1 <1>  -0.1600 
 12 C       -3.0360    -0.2530    -0.0050 C.ar  1 <1>  -0.1430 
 13 C       -1.4440    -1.7450    -1.0080 C.ar  1 <1>  -0.1500 
 14 C        4.1010     1.6830     0.8730 C.3   1 <1>  -0.0190 
 15 C       -2.6910    -1.1280    -1.0300 C.ar  1 <1>   0.0830 
 16 C       -4.3930     0.4350     0.0020 C.3   1 <1>  -0.0970 
 17 C        5.3450     1.8900     0.0110 C.2   1 <1>   0.5690 
 18 O       -3.6010    -1.3380    -2.0160 O.3   1 <1>  -0.3630 
 19 O        5.5400     1.1660    -0.9350 O.2   1 <1>  -0.5700 
 20 N        6.2040     2.8900     0.3400 N.am  1 <1>  -0.7300 
 21 C       -3.3500    -2.2240    -3.0840 C.3   1 <1>   0.0400 
 22 C        7.4480     3.2200    -0.4000 C.3   1 <1>   0.1400 
 23 C        8.6690     2.9500     0.4820 C.3   1 <1>  -0.0220 
 24 C       10.0030     3.3250    -0.1640 C.2   1 <1>  -0.2760 
 25 C       10.1560     3.8510    -1.3870 C.2   1 <1>  -0.2880 
 26 C       11.1940     3.0250     0.7420 C.3   1 <1>  -0.0220 
 27 C       11.4980     4.1870    -2.0190 C.3   1 <1>  -0.0220 
 28 C       12.4800     3.7090     0.2570 C.3   1 <1>  -0.1600 
 29 C       12.6590     3.5380    -1.2550 C.3   1 <1>  -0.1600 
 30 H        2.9460    -0.8680     2.9000 H     1 <1>   0.0800 
 31 H        2.7800     0.8400     3.2200 H     1 <1>   0.0800 
 32 H        1.4680     2.2350     1.6410 H     1 <1>   0.0800 
 33 H        0.7050     1.4650     0.2720 H     1 <1>   0.0800 
 34 H       -2.4030     0.6670     1.8140 H     1 <1>   0.1500 
 35 H        0.4050    -1.9690     0.0320 H     1 <1>   0.1500 
 36 H        4.2850    -0.4620     0.9340 H     1 <1>   0.0800 
 37 H        5.0040     0.3430     2.2960 H     1 <1>   0.0800 
 38 H        2.7160     2.7030    -0.4230 H     1 <1>   0.0800 
 39 H        2.8540     1.0020    -0.7500 H     1 <1>   0.0800 
 40 H       -1.1440    -2.4270    -1.7810 H     1 <1>   0.1500 
 41 H        4.0580     2.4770     1.5970 H     1 <1>   0.0800 
 42 H       -4.5040     1.0760     0.8570 H     1 <1>   0.0800 
 43 H       -5.1740    -0.3040     0.0230 H     1 <1>   0.0800 
 44 H       -4.5050     1.0270    -0.8890 H     1 <1>   0.0800 
 45 H        6.0080     3.4820     1.1470 H     1 <1>   0.3700 
 46 H       -4.2130    -2.2260    -3.7250 H     1 <1>   0.0800 
 47 H       -3.1860    -3.2100    -2.6890 H     1 <1>   0.0800 
 48 H       -2.4910    -1.8780    -3.6300 H     1 <1>   0.0800 
 49 H        7.4230     4.2580    -0.6840 H     1 <1>   0.0800 
 50 H        7.5150     2.6240    -1.2960 H     1 <1>   0.0800 
 51 H        8.6870     1.9010     0.7220 H     1 <1>   0.0800 
 52 H        8.5640     3.5070     1.3950 H     1 <1>   0.0800 
 53 H        9.3400     4.0880    -2.0470 H     1 <1>   0.1500 
 54 H       11.3440     1.9590     0.7710 H     1 <1>   0.0800 
 55 H       10.9890     3.3580     1.7440 H     1 <1>   0.0800 
 56 H       11.6180     5.2560    -2.0270 H     1 <1>   0.0800 
 57 H       11.5130     3.8410    -3.0380 H     1 <1>   0.0800 
 58 H       13.3260     3.2950     0.7780 H     1 <1>   0.0800 
 59 H       12.4280     4.7590     0.4880 H     1 <1>   0.0800 
 60 H       13.5890     3.9770    -1.5710 H     1 <1>   0.0800 
 61 H       12.6890     2.4870    -1.4880 H     1 <1>   0.0800 
@<TRIPOS>BOND
  1   1   2  2   
  2   1   3  2   
  3   1   4  am  
  4   1   5  1   
  5   4   6  1   
  6   4   7  1   
  7   5   8  ar  
  8   5   9  ar  
  9   6  10  1   
 10   6  30  1   
 11   6  31  1   
 12   7  11  1   
 13   7  32  1   
 14   7  33  1   
 15   8  12  ar  
 16   8  34  1   
 17   9  13  ar  
 18   9  35  1   
 19  10  14  1   
 20  10  36  1   
 21  10  37  1   
 22  11  14  1   
 23  11  38  1   
 24  11  39  1   
 25  12  15  ar  
 26  12  16  1   
 27  13  15  ar  
 28  13  40  1   
 29  14  17  1   
 30  14  41  1   
 31  15  18  1   
 32  16  42  1   
 33  16  43  1   
 34  16  44  1   
 35  17  19  2   
 36  17  20  am  
 37  18  21  1   
 38  20  22  1   
 39  20  45  1   
 40  21  46  1   
 41  21  47  1   
 42  21  48  1   
 43  22  23  1   
 44  22  49  1   
 45  22  50  1   
 46  23  24  1   
 47  23  51  1   
 48  23  52  1   
 49  24  25  2   
 50  24  26  1   
 51  25  27  1   
 52  25  53  1   
 53  26  28  1   
 54  26  54  1   
 55  26  55  1   
 56  27  29  1   
 57  27  56  1   
 58  27  57  1   
 59  28  29  1   
 60  28  58  1   
 61  28  59  1   
 62  29  60  1   
 63  29  61  1   
@<TRIPOS>SUBSTRUCTURE
  1 ****  11 GROUP 4 **** **** 0

# MOE 2024.06 (io_trps.svl 2023.06)
