@<TRIPOS>MOLECULE
N-Isopropyl-3,4-dimethoxy-N-(3-p-tolyl-[1,2,4]oxadiazol-5-ylmethyl)-benzamide
54 56 1 0 0 
SMALL
USER_CHARGES


@<TRIPOS>ATOM
  1 O        0.6270     0.6970     1.4980 O.2   1 <1>  -0.5700 
  2 C        0.3670     1.8740     1.3490 C.2   1 <1>   0.5440 
  3 N        1.2960     2.8430     1.6860 N.am  1 <1>  -0.6600 
  4 C       -0.9340     2.2300     0.8250 C.ar  1 <1>   0.0860 
  5 C        2.7360     2.5730     1.9710 C.3   1 <1>   0.2200 
  6 C        0.9220     4.2900     1.7940 C.3   1 <1>   0.3200 
  7 C       -1.0780     2.7160    -0.4730 C.ar  1 <1>  -0.1500 
  8 C       -2.0790     2.1120     1.6050 C.ar  1 <1>  -0.1500 
  9 C        3.4050     1.8900     0.7790 C.3   1 <1>  -0.2400 
 10 C        2.8970     1.7790     3.2670 C.3   1 <1>  -0.2400 
 11 C        1.5530     5.1260     0.6880 C.2   1 <1>   0.2980 
 12 C       -2.3100     3.1160    -0.9790 C.ar  1 <1>   0.0820 
 13 C       -3.3140     2.4870     1.1150 C.ar  1 <1>  -0.1500 
 14 O        1.1710     4.9210    -0.5430 O.3   1 <1>  -0.0190 
 15 N        2.4380     6.0240     0.8400 N.2   1 <1>  -0.5650 
 16 O       -2.4060     3.6310    -2.2390 O.3   1 <1>  -0.3630 
 17 C       -3.4540     2.9900    -0.1690 C.ar  1 <1>   0.0820 
 18 N        1.8730     5.7570    -1.2380 N.2   1 <1>  -0.4100 
 19 C        2.6270     6.4120    -0.4260 C.2   1 <1>   0.4620 
 20 C       -1.2840     4.1480    -2.9250 C.3   1 <1>   0.0400 
 21 O       -4.7320     3.3150    -0.5050 O.3   1 <1>  -0.3630 
 22 C        3.5780     7.4460    -0.7990 C.ar  1 <1>   0.0540 
 23 C       -5.1520     3.5510    -1.8300 C.3   1 <1>   0.0400 
 24 C        3.7720     7.8060    -2.1340 C.ar  1 <1>  -0.1500 
 25 C        4.3380     8.1250     0.1560 C.ar  1 <1>  -0.1500 
 26 C        4.6750     8.7880    -2.4970 C.ar  1 <1>  -0.1500 
 27 C        5.2420     9.1080    -0.2020 C.ar  1 <1>  -0.1500 
 28 C        5.4160     9.4480    -1.5330 C.ar  1 <1>  -0.1430 
 29 C        6.4080    10.5260    -1.9280 C.3   1 <1>  -0.0970 
 30 H        3.2410     3.5150     2.1150 H     1 <1>   0.0800 
 31 H        1.2590     4.6640     2.7440 H     1 <1>   0.0800 
 32 H       -0.1440     4.4200     1.7610 H     1 <1>   0.0800 
 33 H       -0.1920     2.7630    -1.0750 H     1 <1>   0.1500 
 34 H       -1.9930     1.7170     2.6030 H     1 <1>   0.1500 
 35 H        3.0100     0.9020     0.6270 H     1 <1>   0.0800 
 36 H        4.4610     1.8030     0.9570 H     1 <1>   0.0800 
 37 H        3.2590     2.4740    -0.1110 H     1 <1>   0.0800 
 38 H        2.5050     0.7840     3.1630 H     1 <1>   0.0800 
 39 H        2.3910     2.2770     4.0740 H     1 <1>   0.0800 
 40 H        3.9400     1.7000     3.5160 H     1 <1>   0.0800 
 41 H       -4.1910     2.3890     1.7300 H     1 <1>   0.1500 
 42 H       -1.6320     4.6150    -3.8280 H     1 <1>   0.0800 
 43 H       -0.6160     3.3420    -3.1700 H     1 <1>   0.0800 
 44 H       -0.7990     4.8790    -2.3030 H     1 <1>   0.0800 
 45 H       -6.2250     3.6030    -1.8370 H     1 <1>   0.0800 
 46 H       -4.8190     2.7380    -2.4520 H     1 <1>   0.0800 
 47 H       -4.7390     4.4850    -2.1650 H     1 <1>   0.0800 
 48 H        3.2080     7.3070    -2.9020 H     1 <1>   0.1500 
 49 H        4.2220     7.8800     1.1960 H     1 <1>   0.1500 
 50 H        4.7990     9.0380    -3.5370 H     1 <1>   0.1500 
 51 H        5.8120     9.6090     0.5610 H     1 <1>   0.1500 
 52 H        6.0850    11.0250    -2.8240 H     1 <1>   0.0800 
 53 H        7.3730    10.0850    -2.1050 H     1 <1>   0.0800 
 54 H        6.4990    11.2590    -1.1470 H     1 <1>   0.0800 
@<TRIPOS>BOND
  1   1   2  2   
  2   2   3  am  
  3   2   4  1   
  4   3   5  1   
  5   3   6  1   
  6   4   7  ar  
  7   4   8  ar  
  8   5   9  1   
  9   5  10  1   
 10   5  30  1   
 11   6  11  1   
 12   6  31  1   
 13   6  32  1   
 14   7  12  ar  
 15   7  33  1   
 16   8  13  ar  
 17   8  34  1   
 18   9  35  1   
 19   9  36  1   
 20   9  37  1   
 21  10  38  1   
 22  10  39  1   
 23  10  40  1   
 24  11  14  1   
 25  11  15  2   
 26  12  16  1   
 27  12  17  ar  
 28  13  17  ar  
 29  13  41  1   
 30  14  18  1   
 31  15  19  1   
 32  16  20  1   
 33  17  21  1   
 34  18  19  2   
 35  19  22  1   
 36  20  42  1   
 37  20  43  1   
 38  20  44  1   
 39  21  23  1   
 40  22  24  ar  
 41  22  25  ar  
 42  23  45  1   
 43  23  46  1   
 44  23  47  1   
 45  24  26  ar  
 46  24  48  1   
 47  25  27  ar  
 48  25  49  1   
 49  26  28  ar  
 50  26  50  1   
 51  27  28  ar  
 52  27  51  1   
 53  28  29  1   
 54  29  52  1   
 55  29  53  1   
 56  29  54  1   
@<TRIPOS>SUBSTRUCTURE
  1 ****  14 GROUP 4 **** **** 0

# MOE 2024.06 (io_trps.svl 2023.06)
