@<TRIPOS>MOLECULE
N-(2-Hydroxy-7-methyl-quinolin-3-ylmethyl)-N-methyl-methanesulfonamide
35 36 1 0 0 
SMALL
USER_CHARGES


@<TRIPOS>ATOM
  1 S        0.3790     0.3330     0.8120 S.o2  1 <1>   1.3330 
  2 O        1.5860     0.9470     1.3140 O.2   1 <1>  -0.6500 
  3 O       -0.5780    -0.2350     1.7320 O.2   1 <1>  -0.6500 
  4 N        0.8330    -0.8500    -0.3140 N.am  1 <1>  -0.8490 
  5 C       -0.4890     1.5110    -0.2010 C.3   1 <1>  -0.1350 
  6 C        0.9130    -2.1790     0.3120 C.3   1 <1>   0.3340 
  7 C        2.0880    -0.5330    -1.0050 C.3   1 <1>   0.1160 
  8 C       -0.4100    -2.9340     0.2640 C.2   1 <1>  -0.1240 
  9 C       -0.4190    -4.1700     0.9840 C.2   1 <1>   0.6160 
 10 C       -1.5250    -2.5260    -0.4000 C.2   1 <1>  -0.1780 
 11 O        0.5550    -4.6180     1.5630 O.2   1 <1>  -0.5700 
 12 N       -1.5680    -4.9000     1.0030 N.am  1 <1>  -0.5470 
 13 C       -2.7250    -3.3070    -0.3790 C.ar  1 <1>   0.0280 
 14 C       -2.7290    -4.5110     0.3430 C.ar  1 <1>   0.1170 
 15 C       -3.8900    -2.9240    -1.0440 C.ar  1 <1>  -0.1500 
 16 C       -3.8810    -5.2910     0.3860 C.ar  1 <1>  -0.1500 
 17 C       -5.0240    -3.7070    -0.9940 C.ar  1 <1>  -0.1500 
 18 C       -5.0260    -4.8970    -0.2760 C.ar  1 <1>  -0.1440 
 19 C       -6.2880    -5.7410    -0.2340 C.3   1 <1>  -0.0970 
 20 H        0.1600     1.9040    -0.9570 H     1 <1>   0.0800 
 21 H       -0.8430     2.3220     0.4050 H     1 <1>   0.0800 
 22 H       -1.3300     1.0410    -0.6710 H     1 <1>   0.0800 
 23 H        1.2460    -2.0870     1.3340 H     1 <1>   0.0800 
 24 H        1.6390    -2.7850    -0.2030 H     1 <1>   0.0800 
 25 H        2.0260     0.4400    -1.4620 H     1 <1>   0.0800 
 26 H        2.2780    -1.2580    -1.7790 H     1 <1>   0.0800 
 27 H        2.9140    -0.5350    -0.3110 H     1 <1>   0.0800 
 28 H       -1.5510    -1.6080    -0.9570 H     1 <1>   0.1500 
 29 H       -1.5310    -5.7620     1.5420 H     1 <1>   0.3700 
 30 H       -3.8980    -2.0040    -1.5990 H     1 <1>   0.1500 
 31 H       -3.8670    -6.2080     0.9450 H     1 <1>   0.1500 
 32 H       -5.9140    -3.3950    -1.5120 H     1 <1>   0.1500 
 33 H       -6.1400    -6.6260     0.3580 H     1 <1>   0.0800 
 34 H       -6.5630    -6.0380    -1.2300 H     1 <1>   0.0800 
 35 H       -7.0930    -5.1730     0.1950 H     1 <1>   0.0800 
@<TRIPOS>BOND
  1   1   2  2   
  2   1   3  2   
  3   1   4  am  
  4   1   5  1   
  5   4   6  1   
  6   4   7  1   
  7   5  20  1   
  8   5  21  1   
  9   5  22  1   
 10   6   8  1   
 11   6  23  1   
 12   6  24  1   
 13   7  25  1   
 14   7  26  1   
 15   7  27  1   
 16   8   9  1   
 17   8  10  2   
 18   9  11  2   
 19   9  12  am  
 20  10  13  1   
 21  10  28  1   
 22  12  14  1   
 23  12  29  1   
 24  13  14  ar  
 25  13  15  ar  
 26  14  16  ar  
 27  15  17  ar  
 28  15  30  1   
 29  16  18  ar  
 30  16  31  1   
 31  17  18  ar  
 32  17  32  1   
 33  18  19  1   
 34  19  33  1   
 35  19  34  1   
 36  19  35  1   
@<TRIPOS>SUBSTRUCTURE
  1 ****  10 GROUP 4 **** **** 0

# MOE 2024.06 (io_trps.svl 2023.06)
