@<TRIPOS>MOLECULE
N-[2-Ethoxy-5-(4-methyl-piperazine-1-sulfonyl)-phenyl]-acetamide
47 48 1 0 0 
SMALL
USER_CHARGES


@<TRIPOS>ATOM
  1 S        0.1570    -0.3170    -2.0650 S.o2  1 <1>   1.4470 
  2 O       -0.1910     0.8540    -2.8390 O.2   1 <1>  -0.6500 
  3 O        1.1430    -1.2410    -2.5760 O.2   1 <1>  -0.6500 
  4 N        0.8140     0.3070    -0.6240 N.am  1 <1>  -0.8490 
  5 C       -1.3290    -1.2070    -1.5290 C.ar  1 <1>  -0.0090 
  6 C       -0.0700     1.3020     0.0300 C.3   1 <1>   0.1960 
  7 C        2.1520     0.8670    -0.8850 C.3   1 <1>   0.1960 
  8 C       -2.4660    -0.4950    -1.1840 C.ar  1 <1>  -0.1500 
  9 C       -1.3660    -2.5890    -1.3850 C.ar  1 <1>  -0.1500 
 10 C        0.5530     1.9130     1.3010 C.3   1 <1>   0.3430 
 11 C        2.8010     1.4560     0.3860 C.3   1 <1>   0.3430 
 12 C       -3.5710    -1.0960    -0.6070 C.ar  1 <1>   0.1170 
 13 C       -2.4950    -3.2280    -0.8930 C.ar  1 <1>  -0.1500 
 14 N        1.9230     2.4860     1.0470 N.4   1 <1>  -0.9590 
 15 N       -4.6180    -0.3120    -0.1030 N.am  1 <1>  -0.5470 
 16 C       -3.6050    -2.4880    -0.4990 C.ar  1 <1>   0.0830 
 17 C        2.5340     2.9950     2.3120 C.3   1 <1>   0.2630 
 18 C       -4.5380     0.8900     0.5400 C.2   1 <1>   0.5690 
 19 O       -4.7420    -3.0460     0.0070 O.3   1 <1>  -0.3630 
 20 O       -3.4990     1.4840     0.7240 O.2   1 <1>  -0.5700 
 21 C       -5.8190     1.4860     1.0640 C.3   1 <1>  -0.1790 
 22 C       -4.8670    -4.4420     0.1610 C.3   1 <1>   0.1200 
 23 C       -6.2480    -4.7300     0.7420 C.3   1 <1>  -0.2400 
 24 H       -0.9840     0.8290     0.3370 H     1 <1>   0.0800 
 25 H       -0.3220     2.0940    -0.6570 H     1 <1>   0.0800 
 26 H        2.0900     1.6310    -1.6430 H     1 <1>   0.0800 
 27 H        2.7960     0.0890    -1.2620 H     1 <1>   0.0800 
 28 H       -2.4840     0.5680    -1.3460 H     1 <1>   0.1500 
 29 H       -0.5020    -3.1720    -1.6590 H     1 <1>   0.1500 
 30 H        0.6170     1.1370     2.0470 H     1 <1>   0.0800 
 31 H       -0.1050     2.6780     1.6790 H     1 <1>   0.0800 
 32 H        3.7490     1.8950     0.1240 H     1 <1>   0.0800 
 33 H        2.9890     0.6460     1.0710 H     1 <1>   0.0800 
 34 H       -2.4810    -4.3000    -0.8180 H     1 <1>   0.1500 
 35 H        1.8110     3.2720     0.3900 H     1 <1>   0.4500 
 36 H       -5.5020    -0.8180    -0.0230 H     1 <1>   0.3700 
 37 H        2.6560     2.1900     3.0190 H     1 <1>   0.0800 
 38 H        1.9040     3.7500     2.7550 H     1 <1>   0.0800 
 39 H        3.5000     3.4300     2.1130 H     1 <1>   0.0800 
 40 H       -5.6290     2.4650     1.4660 H     1 <1>   0.0800 
 41 H       -6.2180     0.8620     1.8420 H     1 <1>   0.0800 
 42 H       -6.5340     1.5720     0.2680 H     1 <1>   0.0800 
 43 H       -4.0960    -4.7830     0.8290 H     1 <1>   0.0800 
 44 H       -4.7580    -4.9040    -0.8050 H     1 <1>   0.0800 
 45 H       -6.3550    -4.2530     1.7000 H     1 <1>   0.0800 
 46 H       -6.3740    -5.7900     0.8720 H     1 <1>   0.0800 
 47 H       -7.0140    -4.3740     0.0750 H     1 <1>   0.0800 
@<TRIPOS>BOND
  1   1   2  2   
  2   1   3  2   
  3   1   4  am  
  4   1   5  1   
  5   4   6  1   
  6   4   7  1   
  7   5   8  ar  
  8   5   9  ar  
  9   6  10  1   
 10   6  24  1   
 11   6  25  1   
 12   7  11  1   
 13   7  26  1   
 14   7  27  1   
 15   8  12  ar  
 16   8  28  1   
 17   9  13  ar  
 18   9  29  1   
 19  10  14  1   
 20  10  30  1   
 21  10  31  1   
 22  11  14  1   
 23  11  32  1   
 24  11  33  1   
 25  12  15  1   
 26  12  16  ar  
 27  13  16  ar  
 28  13  34  1   
 29  14  17  1   
 30  14  35  1   
 31  15  18  am  
 32  15  36  1   
 33  16  19  1   
 34  17  37  1   
 35  17  38  1   
 36  17  39  1   
 37  18  20  2   
 38  18  21  1   
 39  19  22  1   
 40  21  40  1   
 41  21  41  1   
 42  21  42  1   
 43  22  23  1   
 44  22  43  1   
 45  22  44  1   
 46  23  45  1   
 47  23  46  1   
 48  23  47  1   
@<TRIPOS>SUBSTRUCTURE
  1 ****   8 GROUP 4 **** **** 0

# MOE 2024.06 (io_trps.svl 2023.06)
