@<TRIPOS>MOLECULE
3-Azepan-1-ylmethyl-phenylamine
36 37 1 0 0 
SMALL
USER_CHARGES


@<TRIPOS>ATOM
  1 N        0.1100    -0.0930    -0.2340 N.4   1 <1>  -0.9590 
  2 C       -0.1540    -1.5630    -0.2490 C.3   1 <1>   0.3430 
  3 C       -1.0400     0.7480    -0.6640 C.3   1 <1>   0.3430 
  4 C        1.3260     0.2320    -1.0290 C.3   1 <1>   0.4860 
  5 C       -1.2540    -1.9700     0.7340 C.3   1 <1>  -0.1600 
  6 C       -1.9940     0.9650     0.5100 C.3   1 <1>  -0.1600 
  7 C        2.5260    -0.4090    -0.3620 C.ar  1 <1>  -0.1440 
  8 C       -2.6590    -1.5510     0.2820 C.3   1 <1>  -0.1600 
  9 C       -3.0600    -0.1280     0.6940 C.3   1 <1>  -0.1600 
 10 C        3.0970    -1.5480    -0.9070 C.ar  1 <1>  -0.1500 
 11 C        3.0510     0.1280     0.8060 C.ar  1 <1>  -0.1500 
 12 C        4.1710    -2.1700    -0.2880 C.ar  1 <1>   0.1000 
 13 C        4.1250    -0.4860     1.4280 C.ar  1 <1>  -0.1500 
 14 N        4.7220    -3.3130    -0.8310 N.pl3 1 <1>  -0.9000 
 15 C        4.6770    -1.6310     0.8870 C.ar  1 <1>  -0.1500 
 16 H        0.3360     0.1460     0.7390 H     1 <1>   0.4500 
 17 H        0.7460    -2.0890     0.0260 H     1 <1>   0.0800 
 18 H       -0.4280    -1.8780    -1.2430 H     1 <1>   0.0800 
 19 H       -1.5580     0.2990    -1.4960 H     1 <1>   0.0800 
 20 H       -0.6740     1.7130    -0.9770 H     1 <1>   0.0800 
 21 H        1.4730     1.2990    -1.0650 H     1 <1>   0.0800 
 22 H        1.2230    -0.1340    -2.0380 H     1 <1>   0.0800 
 23 H       -1.0380    -1.6120     1.7260 H     1 <1>   0.0800 
 24 H       -1.2390    -3.0450     0.7850 H     1 <1>   0.0800 
 25 H       -2.5120     1.8940     0.3510 H     1 <1>   0.0800 
 26 H       -1.4310     1.0830     1.4200 H     1 <1>   0.0800 
 27 H       -3.3760    -2.2280     0.7190 H     1 <1>   0.0800 
 28 H       -2.7470    -1.6620    -0.7860 H     1 <1>   0.0800 
 29 H       -3.9370     0.1420     0.1290 H     1 <1>   0.0800 
 30 H       -3.3570    -0.1360     1.7300 H     1 <1>   0.0800 
 31 H        2.7180    -1.9810    -1.8150 H     1 <1>   0.1500 
 32 H        2.6410     1.0220     1.2440 H     1 <1>   0.1500 
 33 H        4.5330    -0.0740     2.3360 H     1 <1>   0.1500 
 34 H        5.6270    -3.6050    -0.4480 H     1 <1>   0.4000 
 35 H        4.7100    -3.3960    -1.8520 H     1 <1>   0.4000 
 36 H        5.5050    -2.1110     1.3760 H     1 <1>   0.1500 
@<TRIPOS>BOND
  1   1   2  1   
  2   1   3  1   
  3   1   4  1   
  4   1  16  1   
  5   2   5  1   
  6   2  17  1   
  7   2  18  1   
  8   3   6  1   
  9   3  19  1   
 10   3  20  1   
 11   4   7  1   
 12   4  21  1   
 13   4  22  1   
 14   5   8  1   
 15   5  23  1   
 16   5  24  1   
 17   6   9  1   
 18   6  25  1   
 19   6  26  1   
 20   7  10  ar  
 21   7  11  ar  
 22   8   9  1   
 23   8  27  1   
 24   8  28  1   
 25   9  29  1   
 26   9  30  1   
 27  10  12  ar  
 28  10  31  1   
 29  11  13  ar  
 30  11  32  1   
 31  12  14  1   
 32  12  15  ar  
 33  13  15  ar  
 34  13  33  1   
 35  14  34  1   
 36  14  35  1   
 37  15  36  1   
@<TRIPOS>SUBSTRUCTURE
  1 ****   1 GROUP 4 **** **** 0

# MOE 2024.06 (io_trps.svl 2023.06)
