@<TRIPOS>MOLECULE
{1-[(Z)-3-(2-Methoxy-phenyl)-allyl]-3-oxo-piperazin-2-yl}-acetic acid ethyl este
48 49 1 0 0 
SMALL
USER_CHARGES


@<TRIPOS>ATOM
  1 O       -1.4640    -1.3860    -2.7940 O.2   1 <1>  -0.5700 
  2 C       -1.9730    -1.8760    -1.8150 C.2   1 <1>   0.5690 
  3 N       -2.9420    -1.2020    -1.1510 N.am  1 <1>  -0.7300 
  4 C       -1.5060    -3.2650    -1.3130 C.3   1 <1>   0.2510 
  5 C       -3.6960    -1.7960    -0.0280 C.3   1 <1>   0.1400 
  6 N       -2.3990    -3.9300    -0.2950 N.3   1 <1>  -0.8100 
  7 C       -0.1100    -3.0930    -0.7020 C.3   1 <1>  -0.0990 
  8 C       -3.7460    -3.3240    -0.1880 C.3   1 <1>   0.1100 
  9 C       -2.5220    -5.3780    -0.5250 C.3   1 <1>   0.2480 
 10 C        0.5350    -4.4120    -0.3710 C.2   1 <1>   0.6590 
 11 C       -2.9440    -6.0380     0.7720 C.2   1 <1>  -0.2880 
 12 O        0.8940    -5.1670    -1.2380 O.2   1 <1>  -0.5700 
 13 O        0.6730    -4.6940     0.9170 O.3   1 <1>  -0.4300 
 14 C       -4.0070    -6.8350     0.9840 C.2   1 <1>  -0.1780 
 15 C        1.2100    -5.9220     1.3460 C.3   1 <1>   0.1200 
 16 C       -5.0070    -7.2980     0.0470 C.ar  1 <1>   0.0280 
 17 C        1.1370    -5.9600     2.8690 C.3   1 <1>  -0.2400 
 18 C       -6.3730    -7.2920     0.3630 C.ar  1 <1>   0.0820 
 19 C       -4.6390    -7.8020    -1.1990 C.ar  1 <1>  -0.1500 
 20 O       -6.8170    -6.8440     1.5560 O.3   1 <1>  -0.3620 
 21 C       -7.3170    -7.7650    -0.5350 C.ar  1 <1>  -0.1500 
 22 C       -5.5810    -8.2630    -2.1010 C.ar  1 <1>  -0.1500 
 23 C       -6.8570    -5.4480     1.7400 C.3   1 <1>   0.0400 
 24 C       -6.9250    -8.2450    -1.7700 C.ar  1 <1>  -0.1500 
 25 H       -3.1940    -0.2710    -1.4870 H     1 <1>   0.3700 
 26 H       -1.4300    -3.8900    -2.1860 H     1 <1>   0.0800 
 27 H       -3.2180    -1.5440     0.9030 H     1 <1>   0.0800 
 28 H       -4.6980    -1.4030    -0.0200 H     1 <1>   0.0800 
 29 H       -0.1750    -2.4860     0.1810 H     1 <1>   0.0800 
 30 H        0.5260    -2.5890    -1.4060 H     1 <1>   0.0800 
 31 H       -4.3250    -3.5600    -1.0660 H     1 <1>   0.0800 
 32 H       -4.2550    -3.7400     0.6630 H     1 <1>   0.0800 
 33 H       -3.2320    -5.5630    -1.3120 H     1 <1>   0.0800 
 34 H       -1.5800    -5.8000    -0.8260 H     1 <1>   0.0800 
 35 H       -2.2690    -5.7780     1.5690 H     1 <1>   0.1500 
 36 H       -4.1870    -7.2000     1.9820 H     1 <1>   0.1500 
 37 H        0.6280    -6.7180     0.9130 H     1 <1>   0.0800 
 38 H        2.2280    -5.9880     1.0020 H     1 <1>   0.0800 
 39 H        0.1150    -5.8780     3.1930 H     1 <1>   0.0800 
 40 H        1.7140    -5.1550     3.2880 H     1 <1>   0.0800 
 41 H        1.5370    -6.8910     3.2280 H     1 <1>   0.0800 
 42 H       -3.5980    -7.8460    -1.4600 H     1 <1>   0.1500 
 43 H       -8.3550    -7.7560    -0.2580 H     1 <1>   0.1500 
 44 H       -5.2700    -8.6430    -3.0580 H     1 <1>   0.1500 
 45 H       -7.3360    -5.2480     2.6810 H     1 <1>   0.0800 
 46 H       -7.4210    -5.0080     0.9370 H     1 <1>   0.0800 
 47 H       -5.8530    -5.0660     1.7510 H     1 <1>   0.0800 
 48 H       -7.6600    -8.6090    -2.4670 H     1 <1>   0.1500 
@<TRIPOS>BOND
  1   1   2  2   
  2   2   3  am  
  3   2   4  1   
  4   3   5  1   
  5   3  25  1   
  6   4   6  1   
  7   4   7  1   
  8   4  26  1   
  9   5   8  1   
 10   5  27  1   
 11   5  28  1   
 12   6   8  1   
 13   6   9  1   
 14   7  10  1   
 15   7  29  1   
 16   7  30  1   
 17   8  31  1   
 18   8  32  1   
 19   9  11  1   
 20   9  33  1   
 21   9  34  1   
 22  10  12  2   
 23  10  13  1   
 24  11  14  2   
 25  11  35  1   
 26  13  15  1   
 27  14  16  1   
 28  14  36  1   
 29  15  17  1   
 30  15  37  1   
 31  15  38  1   
 32  16  18  ar  
 33  16  19  ar  
 34  17  39  1   
 35  17  40  1   
 36  17  41  1   
 37  18  20  1   
 38  18  21  ar  
 39  19  22  ar  
 40  19  42  1   
 41  20  23  1   
 42  21  24  ar  
 43  21  43  1   
 44  22  24  ar  
 45  22  44  1   
 46  23  45  1   
 47  23  46  1   
 48  23  47  1   
 49  24  48  1   
@<TRIPOS>SUBSTRUCTURE
  1 ****   9 GROUP 4 **** **** 0

# MOE 2024.06 (io_trps.svl 2023.06)
