@<TRIPOS>MOLECULE
N-Isopropyl-2-(2-methoxy-phenoxy)-N-(3-p-tolyl-[1,2,4]oxadiazol-5-ylmethyl)-acet
54 56 1 0 0 
SMALL
USER_CHARGES


@<TRIPOS>ATOM
  1 O        1.0730     0.1300    -0.0690 O.2   1 <1>  -0.5700 
  2 C        0.6110     1.2340    -0.2490 C.2   1 <1>   0.5690 
  3 N        1.2270     2.1680    -1.0600 N.am  1 <1>  -0.6600 
  4 C       -0.6750     1.5580     0.5070 C.3   1 <1>   0.1810 
  5 C        2.5610     1.9680    -1.6990 C.3   1 <1>   0.2200 
  6 C        0.6550     3.5310    -1.3070 C.3   1 <1>   0.3200 
  7 O       -1.7680     1.7340    -0.3840 O.3   1 <1>  -0.3630 
  8 C        2.5140     0.8230    -2.7100 C.3   1 <1>  -0.2400 
  9 C        3.6460     1.7690    -0.6400 C.3   1 <1>  -0.2400 
 10 C        1.3620     4.5910    -0.4780 C.2   1 <1>   0.2980 
 11 C       -2.8360     2.5160    -0.0580 C.ar  1 <1>   0.0820 
 12 O        1.2000     4.5750     0.8190 O.3   1 <1>  -0.0190 
 13 N        2.1150     5.5110    -0.9230 N.2   1 <1>  -0.5650 
 14 C       -3.2990     2.7750     1.2440 C.ar  1 <1>   0.0820 
 15 C       -3.4870     3.0860    -1.1410 C.ar  1 <1>  -0.1500 
 16 N        1.9160     5.5690     1.2380 N.2   1 <1>  -0.4100 
 17 C        2.4610     6.1260     0.2140 C.2   1 <1>   0.4620 
 18 O       -2.6930     2.1790     2.3120 O.3   1 <1>  -0.3630 
 19 C       -4.3880     3.6290     1.4130 C.ar  1 <1>  -0.1500 
 20 C       -4.5700     3.9260    -0.9590 C.ar  1 <1>  -0.1500 
 21 C        3.3480     7.2770     0.2460 C.ar  1 <1>   0.0540 
 22 C       -3.2250     2.2570     3.6170 C.3   1 <1>   0.0400 
 23 C       -5.0170     4.2000     0.3200 C.ar  1 <1>  -0.1500 
 24 C        3.7020     7.8860     1.4520 C.ar  1 <1>  -0.1500 
 25 C        3.8870     7.8240    -0.9200 C.ar  1 <1>  -0.1500 
 26 C        4.5460     8.9800     1.4920 C.ar  1 <1>  -0.1500 
 27 C        4.7320     8.9190    -0.8850 C.ar  1 <1>  -0.1500 
 28 C        5.0660     9.5060     0.3230 C.ar  1 <1>  -0.1440 
 29 C        5.9940    10.7070     0.3640 C.3   1 <1>  -0.0970 
 30 H       -0.5350     2.4590     1.0750 H     1 <1>   0.0800 
 31 H       -0.9190     0.7500     1.1720 H     1 <1>   0.0800 
 32 H        2.8190     2.8600    -2.2450 H     1 <1>   0.0800 
 33 H       -0.3940     3.5690    -1.0890 H     1 <1>   0.0800 
 34 H        0.7650     3.7730    -2.3490 H     1 <1>   0.0800 
 35 H        2.3630    -0.1210    -2.2200 H     1 <1>   0.0800 
 36 H        3.4440     0.7740    -3.2460 H     1 <1>   0.0800 
 37 H        1.7210     0.9840    -3.4170 H     1 <1>   0.0800 
 38 H        3.5070     0.8450    -0.1100 H     1 <1>   0.0800 
 39 H        3.6360     2.5850     0.0590 H     1 <1>   0.0800 
 40 H        4.6110     1.7400    -1.1120 H     1 <1>   0.0800 
 41 H       -3.1400     2.8660    -2.1350 H     1 <1>   0.1500 
 42 H       -4.7680     3.8650     2.3880 H     1 <1>   0.1500 
 43 H       -5.0640     4.3630    -1.8090 H     1 <1>   0.1500 
 44 H       -2.6180     1.6480     4.2620 H     1 <1>   0.0800 
 45 H       -4.2340     1.8840     3.6070 H     1 <1>   0.0800 
 46 H       -3.1930     3.2800     3.9480 H     1 <1>   0.0800 
 47 H       -5.8570     4.8570     0.4650 H     1 <1>   0.1500 
 48 H        3.3100     7.4950     2.3750 H     1 <1>   0.1500 
 49 H        3.6420     7.3870    -1.8710 H     1 <1>   0.1500 
 50 H        4.7970     9.4220     2.4410 H     1 <1>   0.1500 
 51 H        5.1290     9.3120    -1.8040 H     1 <1>   0.1500 
 52 H        5.7600    11.3340     1.2050 H     1 <1>   0.0800 
 53 H        5.8930    11.2910    -0.5330 H     1 <1>   0.0800 
 54 H        7.0130    10.3750     0.4500 H     1 <1>   0.0800 
@<TRIPOS>BOND
  1   1   2  2   
  2   2   3  am  
  3   2   4  1   
  4   3   5  1   
  5   3   6  1   
  6   4   7  1   
  7   4  30  1   
  8   4  31  1   
  9   5   8  1   
 10   5   9  1   
 11   5  32  1   
 12   6  10  1   
 13   6  33  1   
 14   6  34  1   
 15   7  11  1   
 16   8  35  1   
 17   8  36  1   
 18   8  37  1   
 19   9  38  1   
 20   9  39  1   
 21   9  40  1   
 22  10  12  1   
 23  10  13  2   
 24  11  14  ar  
 25  11  15  ar  
 26  12  16  1   
 27  13  17  1   
 28  14  18  1   
 29  14  19  ar  
 30  15  20  ar  
 31  15  41  1   
 32  16  17  2   
 33  17  21  1   
 34  18  22  1   
 35  19  23  ar  
 36  19  42  1   
 37  20  23  ar  
 38  20  43  1   
 39  21  24  ar  
 40  21  25  ar  
 41  22  44  1   
 42  22  45  1   
 43  22  46  1   
 44  23  47  1   
 45  24  26  ar  
 46  24  48  1   
 47  25  27  ar  
 48  25  49  1   
 49  26  28  ar  
 50  26  50  1   
 51  27  28  ar  
 52  27  51  1   
 53  28  29  1   
 54  29  52  1   
 55  29  53  1   
 56  29  54  1   
@<TRIPOS>SUBSTRUCTURE
  1 ****  10 GROUP 4 **** **** 0

# MOE 2024.06 (io_trps.svl 2023.06)
