@<TRIPOS>MOLECULE
2-(2,3-Dimethyl-phenoxy)-ethylamine
28 28 1 0 0 
SMALL
USER_CHARGES


@<TRIPOS>ATOM
  1 O       -0.2320     0.3230     0.2930 O.3   1 <1>  -0.3630 
  2 C       -1.5340     0.6850     0.1320 C.ar  1 <1>   0.0830 
  3 C        0.8220     1.2620     0.2030 C.3   1 <1>   0.1200 
  4 C       -2.5130    -0.3040     0.2560 C.ar  1 <1>  -0.1440 
  5 C       -1.9040     1.9960    -0.1600 C.ar  1 <1>  -0.1500 
  6 C        2.1420     0.4940     0.3270 C.3   1 <1>   0.3430 
  7 C       -3.8510     0.0280     0.0550 C.ar  1 <1>  -0.1440 
  8 C       -2.1290    -1.7420     0.6080 C.3   1 <1>  -0.0970 
  9 C       -3.2340     2.3170    -0.3440 C.ar  1 <1>  -0.1500 
 10 N        2.0660    -0.7630    -0.4680 N.4   1 <1>  -0.8530 
 11 C       -4.2000     1.3360    -0.2400 C.ar  1 <1>  -0.1500 
 12 C       -4.9690    -1.0040     0.1490 C.3   1 <1>  -0.0970 
 13 H        0.7160     1.9820     0.9970 H     1 <1>   0.0800 
 14 H        0.7630     1.7560    -0.7510 H     1 <1>   0.0800 
 15 H       -1.1870     2.7890    -0.2490 H     1 <1>   0.1500 
 16 H        2.2980     0.2560     1.3670 H     1 <1>   0.0800 
 17 H        2.9640     1.1090    -0.0020 H     1 <1>   0.0800 
 18 H       -1.1780    -1.7930     1.1030 H     1 <1>   0.0800 
 19 H       -2.0930    -2.3370    -0.2860 H     1 <1>   0.0800 
 20 H       -2.8490    -2.1730     1.2800 H     1 <1>   0.0800 
 21 H       -3.5220     3.3290    -0.5700 H     1 <1>   0.1500 
 22 H        1.1350    -1.1730    -0.2880 H     1 <1>   0.4500 
 23 H        2.7880    -1.4430    -0.2070 H     1 <1>   0.4500 
 24 H        2.1150    -0.5800    -1.4760 H     1 <1>   0.4500 
 25 H       -5.2310     1.6020    -0.3910 H     1 <1>   0.1500 
 26 H       -4.7310    -1.8690    -0.4430 H     1 <1>   0.0800 
 27 H       -5.8980    -0.6020    -0.2130 H     1 <1>   0.0800 
 28 H       -5.1080    -1.3030     1.1720 H     1 <1>   0.0800 
@<TRIPOS>BOND
  1   1   2  1   
  2   1   3  1   
  3   2   4  ar  
  4   2   5  ar  
  5   3   6  1   
  6   3  13  1   
  7   3  14  1   
  8   4   7  ar  
  9   4   8  1   
 10   5   9  ar  
 11   5  15  1   
 12   6  10  1   
 13   6  16  1   
 14   6  17  1   
 15   7  11  ar  
 16   7  12  1   
 17   8  18  1   
 18   8  19  1   
 19   8  20  1   
 20   9  11  ar  
 21   9  21  1   
 22  10  22  1   
 23  10  23  1   
 24  10  24  1   
 25  11  25  1   
 26  12  26  1   
 27  12  27  1   
 28  12  28  1   
@<TRIPOS>SUBSTRUCTURE
  1 ****   2 GROUP 4 **** **** 0

# MOE 2024.06 (io_trps.svl 2023.06)
