@<TRIPOS>MOLECULE
1-[(E)-2-(4-Ethoxy-phenyl)-1-(pyrrolidine-1-carbonyl)-vinyl]-1H-pyridin-2-one
47 49 1 0 0 
SMALL
USER_CHARGES


@<TRIPOS>ATOM
  1 O       -0.1080     0.0610    -1.1210 O.2   1 <1>  -0.5700 
  2 C       -1.2170    -0.1800    -0.6610 C.2   1 <1>   0.6160 
  3 N       -2.0290     0.8360    -0.1530 N.am  1 <1>  -0.2780 
  4 C       -1.6910    -1.5210    -0.6140 C.2   1 <1>  -0.1360 
  5 C       -1.6620     2.2030    -0.2540 C.2   1 <1>   0.1230 
  6 C       -3.2690     0.4950     0.3800 C.2   1 <1>  -0.0410 
  7 C       -2.9020    -1.8330    -0.0860 C.2   1 <1>  -0.1500 
  8 C       -2.6170     3.0610    -0.9340 C.2   1 <1>   0.6160 
  9 C       -0.4880     2.6310     0.2890 C.2   1 <1>  -0.1780 
 10 C       -3.7090    -0.7900     0.4250 C.2   1 <1>  -0.1500 
 11 O       -2.8480     2.8970    -2.1200 O.2   1 <1>  -0.5700 
 12 N       -3.3040     4.0560    -0.2710 N.am  1 <1>  -0.6600 
 13 C        0.1030     3.9400     0.2780 C.ar  1 <1>   0.0280 
 14 C       -4.2470     4.9640    -0.9570 C.3   1 <1>   0.1400 
 15 C       -3.1890     4.3910     1.1660 C.3   1 <1>   0.1400 
 16 C       -0.0280     4.8200    -0.7970 C.ar  1 <1>  -0.1500 
 17 C        0.8440     4.3740     1.3760 C.ar  1 <1>  -0.1500 
 18 C       -4.9230     5.7430     0.1650 C.3   1 <1>  -0.1600 
 19 C       -3.9130     5.7240     1.3090 C.3   1 <1>  -0.1600 
 20 C        0.5260     6.0850    -0.7680 C.ar  1 <1>  -0.1500 
 21 C        1.4030     5.6360     1.4130 C.ar  1 <1>  -0.1500 
 22 C        1.2460     6.5060     0.3460 C.ar  1 <1>   0.0830 
 23 O        1.8180     7.7270     0.4610 O.3   1 <1>  -0.3620 
 24 C        1.7470     8.6720    -0.5800 C.3   1 <1>   0.1200 
 25 C        2.4970     9.9240    -0.1340 C.3   1 <1>  -0.2400 
 26 H       -1.0340    -2.2670    -1.0200 H     1 <1>   0.1500 
 27 H       -3.8760     1.3010     0.7560 H     1 <1>   0.1500 
 28 H       -3.2690    -2.8450    -0.0460 H     1 <1>   0.1500 
 29 H        0.1130     1.9050     0.8070 H     1 <1>   0.1500 
 30 H       -4.6710    -1.0410     0.8390 H     1 <1>   0.1500 
 31 H       -3.6890     5.6260    -1.5980 H     1 <1>   0.0800 
 32 H       -4.9580     4.4080    -1.5440 H     1 <1>   0.0800 
 33 H       -3.6830     3.6320     1.7470 H     1 <1>   0.0800 
 34 H       -2.1630     4.4780     1.4760 H     1 <1>   0.0800 
 35 H       -0.5660     4.5100    -1.6750 H     1 <1>   0.1500 
 36 H        0.9790     3.7140     2.2140 H     1 <1>   0.1500 
 37 H       -5.1790     6.7420    -0.1410 H     1 <1>   0.0800 
 38 H       -5.8190     5.2250     0.4580 H     1 <1>   0.0800 
 39 H       -4.3790     5.8260     2.2730 H     1 <1>   0.0800 
 40 H       -3.2000     6.5200     1.1800 H     1 <1>   0.0800 
 41 H        0.3910     6.7240    -1.6190 H     1 <1>   0.1500 
 42 H        1.9680     5.9600     2.2680 H     1 <1>   0.1500 
 43 H        2.2030     8.2470    -1.4570 H     1 <1>   0.0800 
 44 H        0.7110     8.8960    -0.7680 H     1 <1>   0.0800 
 45 H        3.5260     9.6850     0.0670 H     1 <1>   0.0800 
 46 H        2.0430    10.3300     0.7520 H     1 <1>   0.0800 
 47 H        2.4610    10.6660    -0.9100 H     1 <1>   0.0800 
@<TRIPOS>BOND
  1   1   2  2   
  2   2   3  am  
  3   2   4  1   
  4   3   5  1   
  5   3   6  1   
  6   4   7  2   
  7   4  26  1   
  8   5   8  1   
  9   5   9  2   
 10   6  10  2   
 11   6  27  1   
 12   7  10  1   
 13   7  28  1   
 14   8  11  2   
 15   8  12  am  
 16   9  13  1   
 17   9  29  1   
 18  10  30  1   
 19  12  14  1   
 20  12  15  1   
 21  13  16  ar  
 22  13  17  ar  
 23  14  18  1   
 24  14  31  1   
 25  14  32  1   
 26  15  19  1   
 27  15  33  1   
 28  15  34  1   
 29  16  20  ar  
 30  16  35  1   
 31  17  21  ar  
 32  17  36  1   
 33  18  19  1   
 34  18  37  1   
 35  18  38  1   
 36  19  39  1   
 37  19  40  1   
 38  20  22  ar  
 39  20  41  1   
 40  21  22  ar  
 41  21  42  1   
 42  22  23  1   
 43  23  24  1   
 44  24  25  1   
 45  24  43  1   
 46  24  44  1   
 47  25  45  1   
 48  25  46  1   
 49  25  47  1   
@<TRIPOS>SUBSTRUCTURE
  1 ****   9 GROUP 4 **** **** 0

# MOE 2024.06 (io_trps.svl 2023.06)
