@<TRIPOS>MOLECULE
3-Isopropyl-isoxazole-5-carboxylic acid
19 19 1 0 0 
SMALL
USER_CHARGES


@<TRIPOS>ATOM
  1 O       -0.0960    -1.2070     1.0090 O.co2 1 <1>  -0.9000 
  2 C       -0.5070    -1.6880    -0.0650 C.2   1 <1>   1.0320 
  3 O        0.3280    -2.1300    -0.8750 O.co2 1 <1>  -0.9000 
  4 C       -1.9280    -1.7150    -0.3300 C.2   1 <1>  -0.0920 
  5 O       -2.4390    -2.2060    -1.4390 O.3   1 <1>  -0.0190 
  6 C       -2.9750    -1.2910     0.4100 C.2   1 <1>  -0.1500 
  7 N       -3.7410    -2.1310    -1.4720 N.2   1 <1>  -0.4100 
  8 C       -4.0910    -1.5800    -0.3620 C.2   1 <1>   0.1080 
  9 C       -5.5270    -1.2830     0.0540 C.3   1 <1>   0.1010 
 10 C       -6.3440    -2.5760     0.1530 C.3   1 <1>  -0.2400 
 11 C       -6.1870    -0.3040    -0.9250 C.3   1 <1>  -0.2400 
 12 H       -2.9380    -0.8330     1.3810 H     1 <1>   0.1500 
 13 H       -5.5030    -0.8230     1.0270 H     1 <1>   0.0800 
 14 H       -6.3920    -3.0590    -0.8070 H     1 <1>   0.0800 
 15 H       -7.3430    -2.3670     0.4900 H     1 <1>   0.0800 
 16 H       -5.8770    -3.2500     0.8490 H     1 <1>   0.0800 
 17 H       -6.2310    -0.7380    -1.9090 H     1 <1>   0.0800 
 18 H       -5.6090     0.6010    -0.9790 H     1 <1>   0.0800 
 19 H       -7.1830    -0.0620    -0.6040 H     1 <1>   0.0800 
@<TRIPOS>BOND
  1   1   2  ar  
  2   2   3  ar  
  3   2   4  1   
  4   4   5  1   
  5   4   6  2   
  6   5   7  1   
  7   6   8  1   
  8   6  12  1   
  9   7   8  2   
 10   8   9  1   
 11   9  10  1   
 12   9  11  1   
 13   9  13  1   
 14  10  14  1   
 15  10  15  1   
 16  10  16  1   
 17  11  17  1   
 18  11  18  1   
 19  11  19  1   
@<TRIPOS>SUBSTRUCTURE
  1 ****   6 GROUP 4 **** **** 0

# MOE 2024.06 (io_trps.svl 2023.06)
