@<TRIPOS>MOLECULE
2-(3-Allyl-4-oxo-3,4-dihydro-quinazolin-2-ylsulfanyl)-N,N-diethyl-acetamide
44 45 1 0 0 
SMALL
USER_CHARGES


@<TRIPOS>ATOM
  1 S        0.8650     2.9430     1.4260 S.3   1 <1>  -0.3710 
  2 C       -0.8510     2.4560     1.3080 C.2   1 <1>   0.6510 
  3 C        1.7550     1.4130     2.0120 C.3   1 <1>   0.1310 
  4 N       -1.1790     1.3610     1.8780 N.2   1 <1>  -0.6290 
  5 N       -1.7040     3.2980     0.6300 N.am  1 <1>  -0.4200 
  6 C        1.8410     0.3580     0.9110 C.2   1 <1>   0.5690 
  7 C       -2.4870     0.9470     1.7980 C.ar  1 <1>   0.1790 
  8 C       -3.0380     2.9620     0.5700 C.2   1 <1>   0.5440 
  9 C       -1.2200     4.4990    -0.0990 C.3   1 <1>   0.2780 
 10 O        1.2290    -0.6700     1.0890 O.2   1 <1>  -0.5700 
 11 N        2.6040     0.5470    -0.2230 N.am  1 <1>  -0.6600 
 12 C       -3.4610     1.7210     1.1570 C.ar  1 <1>   0.0860 
 13 C       -2.8440    -0.2700     2.3690 C.ar  1 <1>  -0.1500 
 14 O       -3.8390     3.7140     0.0370 O.2   1 <1>  -0.5700 
 15 C       -0.6730     4.0820    -1.4550 C.2   1 <1>  -0.2880 
 16 C        2.4530    -0.3860    -1.3760 C.3   1 <1>   0.1400 
 17 C        3.5190     1.7020    -0.4440 C.3   1 <1>   0.1400 
 18 C       -4.7770     1.2510     1.1190 C.ar  1 <1>  -0.1500 
 19 C       -4.1470    -0.7220     2.3210 C.ar  1 <1>  -0.1500 
 20 C       -1.2020     4.4250    -2.6340 C.2   1 <1>  -0.3000 
 21 C        3.5790    -1.4160    -1.3820 C.3   1 <1>  -0.2400 
 22 C        4.8540     1.4670     0.2620 C.3   1 <1>  -0.2400 
 23 C       -5.1190     0.0450     1.6950 C.ar  1 <1>  -0.1500 
 24 H        1.2120     1.0280     2.8550 H     1 <1>   0.0800 
 25 H        2.7320     1.7160     2.3290 H     1 <1>   0.0800 
 26 H       -0.4640     5.0090     0.4690 H     1 <1>   0.0800 
 27 H       -2.0260     5.1990    -0.2380 H     1 <1>   0.0800 
 28 H       -2.0780    -0.8560     2.8470 H     1 <1>   0.1500 
 29 H        0.2040     3.4620    -1.3770 H     1 <1>   0.1500 
 30 H        2.4490     0.1680    -2.2990 H     1 <1>   0.0800 
 31 H        1.5080    -0.8990    -1.3050 H     1 <1>   0.0800 
 32 H        3.0710     2.6080    -0.0780 H     1 <1>   0.0800 
 33 H        3.6900     1.8340    -1.4990 H     1 <1>   0.0800 
 34 H       -5.5290     1.8470     0.6290 H     1 <1>   0.1500 
 35 H       -4.4100    -1.6660     2.7670 H     1 <1>   0.1500 
 36 H       -0.8020     4.1180    -3.5850 H     1 <1>   0.1500 
 37 H       -2.0830     5.0350    -2.7470 H     1 <1>   0.1500 
 38 H        4.5220    -0.9500    -1.5920 H     1 <1>   0.0800 
 39 H        3.3890    -2.1490    -2.1450 H     1 <1>   0.0800 
 40 H        3.6220    -1.9190    -0.4320 H     1 <1>   0.0800 
 41 H        4.7150     1.3350     1.3180 H     1 <1>   0.0800 
 42 H        5.4940     2.3170     0.1090 H     1 <1>   0.0800 
 43 H        5.3480     0.6010    -0.1370 H     1 <1>   0.0800 
 44 H       -6.1360    -0.3070     1.6580 H     1 <1>   0.1500 
@<TRIPOS>BOND
  1   1   2  1   
  2   1   3  1   
  3   2   4  2   
  4   2   5  1   
  5   3   6  1   
  6   3  24  1   
  7   3  25  1   
  8   4   7  1   
  9   5   8  am  
 10   5   9  1   
 11   6  10  2   
 12   6  11  am  
 13   7  12  ar  
 14   7  13  ar  
 15   8  12  1   
 16   8  14  2   
 17   9  15  1   
 18   9  26  1   
 19   9  27  1   
 20  11  16  1   
 21  11  17  1   
 22  12  18  ar  
 23  13  19  ar  
 24  13  28  1   
 25  15  20  2   
 26  15  29  1   
 27  16  21  1   
 28  16  30  1   
 29  16  31  1   
 30  17  22  1   
 31  17  32  1   
 32  17  33  1   
 33  18  23  ar  
 34  18  34  1   
 35  19  23  ar  
 36  19  35  1   
 37  20  36  1   
 38  20  37  1   
 39  21  38  1   
 40  21  39  1   
 41  21  40  1   
 42  22  41  1   
 43  22  42  1   
 44  22  43  1   
 45  23  44  1   
@<TRIPOS>SUBSTRUCTURE
  1 ****   2 GROUP 4 **** **** 0

# MOE 2024.06 (io_trps.svl 2023.06)
