@<TRIPOS>MOLECULE
2-(3-Aminomethyl-piperidin-1-yl)-ethanol
31 31 1 0 0 
SMALL
USER_CHARGES


@<TRIPOS>ATOM
  1 O        2.2070     0.3350    -1.9370 O.3   1 <1>  -0.6800 
  2 C        2.3540    -0.5390    -0.8520 C.3   1 <1>   0.1200 
  3 C        1.9600     0.1710     0.4620 C.3   1 <1>   0.3430 
  4 N        2.1500     1.6510     0.3390 N.4   1 <1>  -0.9590 
  5 C        3.5840     2.0740     0.3550 C.3   1 <1>   0.3430 
  6 C        1.2900     2.4210     1.2770 C.3   1 <1>   0.3430 
  7 C        3.7510     3.6150     0.3350 C.3   1 <1>  -0.0800 
  8 C        1.2810     3.9020     0.8750 C.3   1 <1>  -0.1600 
  9 C        2.4370     4.3240    -0.0530 C.3   1 <1>  -0.1600 
 10 C        4.8710     4.0760    -0.6210 C.3   1 <1>   0.3430 
 11 N        6.2350     3.9230    -0.0360 N.4   1 <1>  -0.8530 
 12 H        2.2310    -0.1610    -2.7880 H     1 <1>   0.4000 
 13 H        3.3800    -0.8630    -0.8170 H     1 <1>   0.0800 
 14 H        1.7250    -1.3990    -1.0110 H     1 <1>   0.0800 
 15 H        2.5230    -0.2280     1.2900 H     1 <1>   0.0800 
 16 H        0.9190    -0.0380     0.6470 H     1 <1>   0.0800 
 17 H        1.8020     1.8280    -0.6240 H     1 <1>   0.4500 
 18 H        4.0680     1.6470    -0.5100 H     1 <1>   0.0800 
 19 H        4.0640     1.6770     1.2340 H     1 <1>   0.0800 
 20 H        1.6720     2.3210     2.2800 H     1 <1>   0.0800 
 21 H        0.2800     2.0400     1.2630 H     1 <1>   0.0800 
 22 H        3.9970     3.9410     1.3310 H     1 <1>   0.0800 
 23 H        1.3070     4.4890     1.7770 H     1 <1>   0.0800 
 24 H        0.3440     4.1270     0.3940 H     1 <1>   0.0800 
 25 H        2.1760     4.0750    -1.0690 H     1 <1>   0.0800 
 26 H        2.5500     5.3960    -0.0040 H     1 <1>   0.0800 
 27 H        4.7140     5.1200    -0.8460 H     1 <1>   0.0800 
 28 H        4.8010     3.5350    -1.5530 H     1 <1>   0.0800 
 29 H        6.3340     4.4500     0.8420 H     1 <1>   0.4500 
 30 H        6.9380     4.3140    -0.6800 H     1 <1>   0.4500 
 31 H        6.5110     2.9500     0.1360 H     1 <1>   0.4500 
@<TRIPOS>BOND
  1   1   2  1   
  2   1  12  1   
  3   2   3  1   
  4   2  13  1   
  5   2  14  1   
  6   3   4  1   
  7   3  15  1   
  8   3  16  1   
  9   4   5  1   
 10   4   6  1   
 11   4  17  1   
 12   5   7  1   
 13   5  18  1   
 14   5  19  1   
 15   6   8  1   
 16   6  20  1   
 17   6  21  1   
 18   7   9  1   
 19   7  10  1   
 20   7  22  1   
 21   8   9  1   
 22   8  23  1   
 23   8  24  1   
 24   9  25  1   
 25   9  26  1   
 26  10  11  1   
 27  10  27  1   
 28  10  28  1   
 29  11  29  1   
 30  11  30  1   
 31  11  31  1   
@<TRIPOS>SUBSTRUCTURE
  1 ****   5 GROUP 4 **** **** 0

# MOE 2024.06 (io_trps.svl 2023.06)
