@<TRIPOS>MOLECULE
2-(3-Acetyl-7-ethyl-indol-1-yl)-1-piperidin-1-yl-ethanone
47 49 1 0 0 
SMALL
USER_CHARGES


@<TRIPOS>ATOM
  1 O        1.0080     1.8270     2.0170 O.2   1 <1>  -0.5700 
  2 C        1.2310     1.6550     0.8410 C.2   1 <1>   0.5690 
  3 N        2.1840     0.7480     0.4260 N.am  1 <1>  -0.6600 
  4 C        0.4420     2.4930    -0.1590 C.3   1 <1>   0.1570 
  5 C        2.8410    -0.1630     1.4100 C.3   1 <1>   0.1400 
  6 C        2.7190     0.5980    -0.9610 C.3   1 <1>   0.1400 
  7 N       -0.9840     2.6560     0.2130 N.pl3 1 <1>   0.0480 
  8 C        4.3500     0.0970     1.4330 C.3   1 <1>  -0.1600 
  9 C        4.2290     0.8610    -0.9650 C.3   1 <1>  -0.1600 
 10 C       -2.0780     1.8680    -0.1190 C.ar  1 <1>  -0.1520 
 11 C       -1.4520     3.8230     0.7110 C.2   1 <1>  -0.3020 
 12 C        4.9660    -0.0390     0.0350 C.3   1 <1>  -0.1600 
 13 C       -2.1850     0.5590    -0.6360 C.ar  1 <1>  -0.1430 
 14 C       -3.2260     2.6180     0.1550 C.ar  1 <1>   0.0000 
 15 C       -2.8160     3.8580     0.7270 C.2   1 <1>  -0.0860 
 16 C       -3.4460     0.0810    -0.9340 C.ar  1 <1>  -0.1500 
 17 C       -0.9420    -0.3140    -0.8350 C.3   1 <1>  -0.0170 
 18 C       -4.4850     2.1040    -0.1740 C.ar  1 <1>  -0.1500 
 19 C       -3.6160     4.9420     1.2290 C.2   1 <1>   0.5950 
 20 C       -4.5880     0.8490    -0.7150 C.ar  1 <1>  -0.1500 
 21 C       -1.1920    -1.7800    -1.2090 C.3   1 <1>  -0.2400 
 22 O       -3.1920     6.0660     1.3510 O.2   1 <1>  -0.5700 
 23 C       -5.0450     4.7180     1.6700 C.3   1 <1>  -0.1790 
 24 H        0.4710     2.0750    -1.1410 H     1 <1>   0.0800 
 25 H        0.8940     3.4650    -0.2010 H     1 <1>   0.0800 
 26 H        2.6500    -1.1830     1.1240 H     1 <1>   0.0800 
 27 H        2.4380    -0.0200     2.3990 H     1 <1>   0.0800 
 28 H        2.2520     1.2790    -1.6460 H     1 <1>   0.0800 
 29 H        2.5250    -0.4050    -1.3020 H     1 <1>   0.0800 
 30 H        4.8190    -0.5990     2.1050 H     1 <1>   0.0800 
 31 H        4.5230     1.0880     1.8160 H     1 <1>   0.0800 
 32 H        4.4040     1.8940    -0.7170 H     1 <1>   0.0800 
 33 H        4.6170     0.6930    -1.9540 H     1 <1>   0.0800 
 34 H       -0.7960     4.6090     1.0480 H     1 <1>   0.1500 
 35 H        4.8970    -1.0650    -0.2880 H     1 <1>   0.0800 
 36 H        6.0080     0.2290     0.0690 H     1 <1>   0.0800 
 37 H       -3.5960    -0.9010    -1.3420 H     1 <1>   0.1500 
 38 H       -0.3910    -0.3150     0.0870 H     1 <1>   0.0800 
 39 H       -0.3310     0.1200    -1.6040 H     1 <1>   0.0800 
 40 H       -5.3720     2.6840    -0.0160 H     1 <1>   0.1500 
 41 H       -5.5510     0.4420    -0.9710 H     1 <1>   0.1500 
 42 H       -1.8060    -2.2550    -0.4640 H     1 <1>   0.0800 
 43 H       -0.2560    -2.3070    -1.2630 H     1 <1>   0.0800 
 44 H       -1.6740    -1.8490    -2.1680 H     1 <1>   0.0800 
 45 H       -5.1560     3.7360     2.0880 H     1 <1>   0.0800 
 46 H       -5.7040     4.8420     0.8320 H     1 <1>   0.0800 
 47 H       -5.3040     5.4400     2.4230 H     1 <1>   0.0800 
@<TRIPOS>BOND
  1   1   2  2   
  2   2   3  am  
  3   2   4  1   
  4   3   5  1   
  5   3   6  1   
  6   4   7  1   
  7   4  24  1   
  8   4  25  1   
  9   5   8  1   
 10   5  26  1   
 11   5  27  1   
 12   6   9  1   
 13   6  28  1   
 14   6  29  1   
 15   7  10  1   
 16   7  11  1   
 17   8  12  1   
 18   8  30  1   
 19   8  31  1   
 20   9  12  1   
 21   9  32  1   
 22   9  33  1   
 23  10  13  ar  
 24  10  14  ar  
 25  11  15  2   
 26  11  34  1   
 27  12  35  1   
 28  12  36  1   
 29  13  16  ar  
 30  13  17  1   
 31  14  15  1   
 32  14  18  ar  
 33  15  19  1   
 34  16  20  ar  
 35  16  37  1   
 36  17  21  1   
 37  17  38  1   
 38  17  39  1   
 39  18  20  ar  
 40  18  40  1   
 41  19  22  2   
 42  19  23  1   
 43  20  41  1   
 44  21  42  1   
 45  21  43  1   
 46  21  44  1   
 47  23  45  1   
 48  23  46  1   
 49  23  47  1   
@<TRIPOS>SUBSTRUCTURE
  1 ****   7 GROUP 4 **** **** 0

# MOE 2024.06 (io_trps.svl 2023.06)
