@<TRIPOS>MOLECULE
Ethanesulfonic acid [4-(5-furan-2-yl-1-propionyl-4,5-dihydro-1H-pyrazol-3-yl)-ph
47 49 1 0 0 
SMALL
USER_CHARGES


@<TRIPOS>ATOM
  1 S        0.0600     0.2830    -0.4880 S.o2  1 <1>   1.3330 
  2 O       -0.2100    -1.1310    -0.5520 O.2   1 <1>  -0.6500 
  3 O       -0.8300     1.2410    -1.0930 O.2   1 <1>  -0.6500 
  4 N        1.5600     0.5720    -1.2710 N.am  1 <1>  -0.7570 
  5 C        0.3870     0.7680     1.2150 C.3   1 <1>  -0.0550 
  6 C        2.7820    -0.0700    -1.1390 C.ar  1 <1>   0.1990 
  7 C        0.8670     2.2200     1.4040 C.3   1 <1>  -0.2400 
  8 C        2.9550    -1.2430    -0.4130 C.ar  1 <1>  -0.1500 
  9 C        3.9000     0.4820    -1.7520 C.ar  1 <1>  -0.1500 
 10 C        4.2010    -1.8270    -0.2960 C.ar  1 <1>  -0.1500 
 11 C        5.1450    -0.1060    -1.6350 C.ar  1 <1>  -0.1500 
 12 C        5.3370    -1.2790    -0.8970 C.ar  1 <1>   0.0860 
 13 C        6.6260    -1.9150    -0.7460 C.2   1 <1>   0.3030 
 14 N        6.8680    -2.9670    -0.0740 N.2   1 <1>  -0.5120 
 15 C        7.8630    -1.3620    -1.4140 C.3   1 <1>  -0.0990 
 16 N        8.2050    -3.3000    -0.1270 N.am  1 <1>  -0.2980 
 17 C        8.9600    -2.2730    -0.8750 C.3   1 <1>   0.4000 
 18 C        8.7670    -4.4520     0.4150 C.2   1 <1>   0.5690 
 19 C        9.8990    -1.4920     0.0350 C.2   1 <1>  -0.0400 
 20 O        8.1270    -5.2350     1.0770 O.2   1 <1>  -0.5700 
 21 C       10.2330    -4.8210     0.1810 C.3   1 <1>  -0.0990 
 22 O       10.9050    -0.8360    -0.5100 O.3   1 <1>  -0.2800 
 23 C        9.8950    -1.3190     1.3760 C.2   1 <1>  -0.1500 
 24 C       11.0890    -4.7290     1.4550 C.3   1 <1>  -0.2400 
 25 C       11.5650    -0.2380     0.4620 C.2   1 <1>  -0.0100 
 26 C       10.9920    -0.4960     1.6570 C.2   1 <1>  -0.1500 
 27 H        1.4650     1.3460    -1.9220 H     1 <1>   0.4200 
 28 H        1.1260     0.1090     1.6280 H     1 <1>   0.0800 
 29 H       -0.5130     0.6330     1.7830 H     1 <1>   0.0800 
 30 H        1.8020     2.3770     0.8970 H     1 <1>   0.0800 
 31 H        1.0050     2.4300     2.4500 H     1 <1>   0.0800 
 32 H        0.1380     2.9070     1.0090 H     1 <1>   0.0800 
 33 H        2.1170    -1.7190     0.0610 H     1 <1>   0.1500 
 34 H        3.7910     1.3840    -2.3260 H     1 <1>   0.1500 
 35 H        4.3020    -2.7370     0.2740 H     1 <1>   0.1500 
 36 H        5.9760     0.3630    -2.1290 H     1 <1>   0.1500 
 37 H        8.0360    -0.3370    -1.1400 H     1 <1>   0.0800 
 38 H        7.7920    -1.4520    -2.4810 H     1 <1>   0.0800 
 39 H        9.5010    -2.7290    -1.6850 H     1 <1>   0.0800 
 40 H       10.6810    -4.2240    -0.5870 H     1 <1>   0.0800 
 41 H       10.2510    -5.8390    -0.1650 H     1 <1>   0.0800 
 42 H        9.2030    -1.7170     2.1000 H     1 <1>   0.1500 
 43 H       11.1230    -3.7190     1.8190 H     1 <1>   0.0800 
 44 H       12.0930    -5.0550     1.2510 H     1 <1>   0.0800 
 45 H       10.6730    -5.3570     2.2240 H     1 <1>   0.0800 
 46 H       12.4310     0.3530     0.2180 H     1 <1>   0.1500 
 47 H       11.2850    -0.1590     2.6350 H     1 <1>   0.1500 
@<TRIPOS>BOND
  1   1   2  2   
  2   1   3  2   
  3   1   4  am  
  4   1   5  1   
  5   4   6  1   
  6   4  27  1   
  7   5   7  1   
  8   5  28  1   
  9   5  29  1   
 10   6   8  ar  
 11   6   9  ar  
 12   7  30  1   
 13   7  31  1   
 14   7  32  1   
 15   8  10  ar  
 16   8  33  1   
 17   9  11  ar  
 18   9  34  1   
 19  10  12  ar  
 20  10  35  1   
 21  11  12  ar  
 22  11  36  1   
 23  12  13  1   
 24  13  14  2   
 25  13  15  1   
 26  14  16  1   
 27  15  17  1   
 28  15  37  1   
 29  15  38  1   
 30  16  17  1   
 31  16  18  am  
 32  17  19  1   
 33  17  39  1   
 34  18  20  2   
 35  18  21  1   
 36  19  22  1   
 37  19  23  2   
 38  21  24  1   
 39  21  40  1   
 40  21  41  1   
 41  22  25  1   
 42  23  26  1   
 43  23  42  1   
 44  24  43  1   
 45  24  44  1   
 46  24  45  1   
 47  25  26  2   
 48  25  46  1   
 49  26  47  1   
@<TRIPOS>SUBSTRUCTURE
  1 ****  12 GROUP 4 **** **** 0

# MOE 2024.06 (io_trps.svl 2023.06)
