@<TRIPOS>MOLECULE
3-Ethoxy-N-(5-methoxymethyl-[1,3,4]thiadiazol-2-yl)-propionamide
31 31 1 0 0 
SMALL
USER_CHARGES


@<TRIPOS>ATOM
  1 S       -0.0360    -0.2830    -0.0030 S.3   1 <1>  -0.0800 
  2 C       -1.7410     0.0330     0.0050 C.2   1 <1>   0.4420 
  3 C        0.2160     1.4300     0.0030 C.2   1 <1>   0.1980 
  4 N       -1.9980     1.2880     0.0110 N.2   1 <1>  -0.3380 
  5 N       -2.5700    -1.0710     0.0040 N.am  1 <1>  -0.4940 
  6 N       -0.8800     2.0780     0.0100 N.2   1 <1>  -0.3380 
  7 C        1.6670     1.9010    -0.0010 C.3   1 <1>   0.3000 
  8 C       -3.9330    -1.1310     0.0100 C.2   1 <1>   0.5690 
  9 O        1.7600     3.2950     0.0030 O.3   1 <1>  -0.5600 
 10 O       -4.6450    -0.1600     0.0170 O.2   1 <1>  -0.5700 
 11 C       -4.5520    -2.5140     0.0060 C.3   1 <1>  -0.0990 
 12 C        3.0610     3.7880     0.0000 C.3   1 <1>   0.0400 
 13 C       -6.0790    -2.4760     0.0040 C.3   1 <1>   0.1200 
 14 O       -6.5300    -3.7910    -0.0010 O.3   1 <1>  -0.5600 
 15 C       -7.9130    -3.9070    -0.0020 C.3   1 <1>   0.1200 
 16 C       -8.2480    -5.3930    -0.0070 C.3   1 <1>  -0.2400 
 17 H       -2.0890    -1.9640    -0.0020 H     1 <1>   0.3700 
 18 H        2.1590     1.5330    -0.8840 H     1 <1>   0.0800 
 19 H        2.1660     1.5270     0.8750 H     1 <1>   0.0800 
 20 H       -4.2220    -3.0420     0.8810 H     1 <1>   0.0800 
 21 H       -4.2200    -3.0390    -0.8710 H     1 <1>   0.0800 
 22 H        3.0090     4.8630     0.0040 H     1 <1>   0.0800 
 23 H        3.5670     3.4550    -0.8900 H     1 <1>   0.0800 
 24 H        3.5740     3.4480     0.8830 H     1 <1>   0.0800 
 25 H       -6.4460    -1.9750    -0.8760 H     1 <1>   0.0800 
 26 H       -6.4480    -1.9810     0.8870 H     1 <1>   0.0800 
 27 H       -8.3030    -3.4260    -0.8830 H     1 <1>   0.0800 
 28 H       -8.3040    -3.4320     0.8820 H     1 <1>   0.0800 
 29 H       -7.8410    -5.8590    -0.8870 H     1 <1>   0.0800 
 30 H       -9.3140    -5.5260    -0.0090 H     1 <1>   0.0800 
 31 H       -7.8420    -5.8660     0.8690 H     1 <1>   0.0800 
@<TRIPOS>BOND
  1   1   2  1   
  2   1   3  1   
  3   2   4  2   
  4   2   5  1   
  5   3   6  2   
  6   3   7  1   
  7   4   6  1   
  8   5   8  am  
  9   5  17  1   
 10   7   9  1   
 11   7  18  1   
 12   7  19  1   
 13   8  10  2   
 14   8  11  1   
 15   9  12  1   
 16  11  13  1   
 17  11  20  1   
 18  11  21  1   
 19  12  22  1   
 20  12  23  1   
 21  12  24  1   
 22  13  14  1   
 23  13  25  1   
 24  13  26  1   
 25  14  15  1   
 26  15  16  1   
 27  15  27  1   
 28  15  28  1   
 29  16  29  1   
 30  16  30  1   
 31  16  31  1   
@<TRIPOS>SUBSTRUCTURE
  1 ****   5 GROUP 4 **** **** 0

# MOE 2024.06 (io_trps.svl 2023.06)
