@<TRIPOS>MOLECULE
1-(2,4,6-Trimethyl-benzenesulfonyl)-piperidine-3-carboxylic acid (pyridin-2-ylme
55 57 1 0 0 
SMALL
USER_CHARGES


@<TRIPOS>ATOM
  1 S        0.3390    -1.5980     1.3520 S.o2  1 <1>   1.4470 
  2 O        1.5020    -2.0060     2.1130 O.2   1 <1>  -0.6500 
  3 O       -0.9540    -2.0260     1.8430 O.2   1 <1>  -0.6500 
  4 N        0.5420    -2.3420    -0.1610 N.am  1 <1>  -0.8490 
  5 C        0.3180     0.1970     0.9420 C.ar  1 <1>  -0.0090 
  6 C        1.8300    -2.0070    -0.7980 C.3   1 <1>   0.1960 
  7 C        0.2410    -3.7840    -0.0990 C.3   1 <1>   0.1960 
  8 C       -0.7290     0.7360     0.1800 C.ar  1 <1>  -0.1440 
  9 C        1.3400     1.0770     1.3380 C.ar  1 <1>  -0.1440 
 10 C        2.8730    -3.1100    -0.6000 C.3   1 <1>  -0.0190 
 11 C        0.8710    -4.5460    -1.2740 C.3   1 <1>  -0.1600 
 12 C       -0.7430     2.0770    -0.1710 C.ar  1 <1>  -0.1500 
 13 C       -1.9100    -0.1030    -0.3040 C.3   1 <1>  -0.0970 
 14 C        1.3080     2.4140     0.9720 C.ar  1 <1>  -0.1500 
 15 C        2.5390     0.6500     2.1800 C.3   1 <1>  -0.0970 
 16 C        4.2140    -2.5750    -1.0670 C.2   1 <1>   0.5690 
 17 C        2.4080    -4.4060    -1.3030 C.3   1 <1>  -0.1600 
 18 C        0.2740     2.9230     0.2170 C.ar  1 <1>  -0.1440 
 19 O        4.4350    -2.4490    -2.2480 O.2   1 <1>  -0.5700 
 20 N        5.0960    -2.1590    -0.1280 N.am  1 <1>  -0.7300 
 21 C        0.2480     4.3890    -0.1750 C.3   1 <1>  -0.0970 
 22 C        6.2410    -1.2660    -0.4190 C.3   1 <1>   0.2840 
 23 C        5.8430     0.1720    -0.1120 C.ar  1 <1>   0.1670 
 24 N        6.2240     0.6680     1.0590 N.ar  1 <1>  -0.6200 
 25 C        5.0980     0.8770    -1.0460 C.ar  1 <1>  -0.1500 
 26 C        5.8620     1.9200     1.2950 C.ar  1 <1>   0.1600 
 27 C        4.7190     2.1750    -0.7810 C.ar  1 <1>  -0.1500 
 28 C        5.1220     2.7030     0.4260 C.ar  1 <1>  -0.1500 
 29 H        2.2090    -1.0710    -0.4230 H     1 <1>   0.0800 
 30 H        1.6660    -1.8760    -1.8550 H     1 <1>   0.0800 
 31 H       -0.8280    -3.9180    -0.0990 H     1 <1>   0.0800 
 32 H        0.6230    -4.1960     0.8220 H     1 <1>   0.0800 
 33 H        2.9560    -3.3090     0.4520 H     1 <1>   0.0800 
 34 H        0.4540    -4.1590    -2.1870 H     1 <1>   0.0800 
 35 H        0.6040    -5.5870    -1.2140 H     1 <1>   0.0800 
 36 H       -1.5550     2.4740    -0.7540 H     1 <1>   0.1500 
 37 H       -1.5720    -0.9470    -0.8770 H     1 <1>   0.0800 
 38 H       -2.5660     0.4710    -0.9330 H     1 <1>   0.0800 
 39 H       -2.4860    -0.4540     0.5340 H     1 <1>   0.0800 
 40 H        2.0970     3.0760     1.2800 H     1 <1>   0.1500 
 41 H        3.1470    -0.0540     1.6420 H     1 <1>   0.0800 
 42 H        2.2100     0.2080     3.1040 H     1 <1>   0.0800 
 43 H        3.1610     1.4880     2.4330 H     1 <1>   0.0800 
 44 H        2.8650    -5.2470    -0.8110 H     1 <1>   0.0800 
 45 H        2.7330    -4.4130    -2.3290 H     1 <1>   0.0800 
 46 H        4.8370    -2.1840     0.8610 H     1 <1>   0.3700 
 47 H       -0.2190     4.5130    -1.1350 H     1 <1>   0.0800 
 48 H        1.2460     4.7840    -0.2300 H     1 <1>   0.0800 
 49 H       -0.3070     4.9500     0.5560 H     1 <1>   0.0800 
 50 H        6.5250    -1.3510    -1.4540 H     1 <1>   0.0800 
 51 H        7.0830    -1.5500     0.1870 H     1 <1>   0.0800 
 52 H        4.8140     0.4070    -1.9720 H     1 <1>   0.1500 
 53 H        6.1710     2.3440     2.2350 H     1 <1>   0.1500 
 54 H        4.1370     2.7460    -1.4840 H     1 <1>   0.1500 
 55 H        4.8670     3.7120     0.6930 H     1 <1>   0.1500 
@<TRIPOS>BOND
  1   1   2  2   
  2   1   3  2   
  3   1   4  am  
  4   1   5  1   
  5   4   6  1   
  6   4   7  1   
  7   5   8  ar  
  8   5   9  ar  
  9   6  10  1   
 10   6  29  1   
 11   6  30  1   
 12   7  11  1   
 13   7  31  1   
 14   7  32  1   
 15   8  12  ar  
 16   8  13  1   
 17   9  14  ar  
 18   9  15  1   
 19  10  16  1   
 20  10  17  1   
 21  10  33  1   
 22  11  17  1   
 23  11  34  1   
 24  11  35  1   
 25  12  18  ar  
 26  12  36  1   
 27  13  37  1   
 28  13  38  1   
 29  13  39  1   
 30  14  18  ar  
 31  14  40  1   
 32  15  41  1   
 33  15  42  1   
 34  15  43  1   
 35  16  19  2   
 36  16  20  am  
 37  17  44  1   
 38  17  45  1   
 39  18  21  1   
 40  20  22  1   
 41  20  46  1   
 42  21  47  1   
 43  21  48  1   
 44  21  49  1   
 45  22  23  1   
 46  22  50  1   
 47  22  51  1   
 48  23  24  ar  
 49  23  25  ar  
 50  24  26  ar  
 51  25  27  ar  
 52  25  52  1   
 53  26  28  ar  
 54  26  53  1   
 55  27  28  ar  
 56  27  54  1   
 57  28  55  1   
@<TRIPOS>SUBSTRUCTURE
  1 ****   6 GROUP 4 **** **** 0

# MOE 2024.06 (io_trps.svl 2023.06)
