@<TRIPOS>MOLECULE
4-(2-Fluoro-phenyl)-tetrahydro-pyran-4-carboxylic acid
28 29 1 0 0 
SMALL
USER_CHARGES


@<TRIPOS>ATOM
  1 F        0.6490    -0.3910    -1.2140 F     1 <1>  -0.1900 
  2 C        1.5280     0.5310    -0.9260 C.ar  1 <1>   0.1900 
  3 C        2.7000     0.2160    -0.2360 C.ar  1 <1>  -0.1440 
  4 C        1.2170     1.8090    -1.3560 C.ar  1 <1>  -0.1500 
  5 C        3.5710     1.2810    -0.0070 C.ar  1 <1>  -0.1500 
  6 C        3.0640    -1.2230     0.2460 C.3   1 <1>   0.0380 
  7 C        2.1020     2.8400    -1.1040 C.ar  1 <1>  -0.1500 
  8 C        3.2780     2.5690    -0.4300 C.ar  1 <1>  -0.1500 
  9 C        4.2950    -1.2040     1.2070 C.2   1 <1>   0.9060 
 10 C        3.3790    -2.0730    -1.0130 C.3   1 <1>  -0.1600 
 11 C        1.8840    -1.9000     1.0140 C.3   1 <1>  -0.1600 
 12 O        4.1630    -0.7700     2.3620 O.co2 1 <1>  -0.9000 
 13 O        5.4070    -1.5870     0.8120 O.co2 1 <1>  -0.9000 
 14 C        3.3980    -3.5650    -0.6550 C.3   1 <1>   0.1200 
 15 C        1.2220    -3.0600     0.2530 C.3   1 <1>   0.1200 
 16 O        2.1640    -4.0140    -0.1520 O.3   1 <1>  -0.5600 
 17 H        0.2970     1.9870    -1.8800 H     1 <1>   0.1500 
 18 H        4.5040     1.1340     0.5120 H     1 <1>   0.1500 
 19 H        1.8810     3.8410    -1.4290 H     1 <1>   0.1500 
 20 H        3.9780     3.3600    -0.2260 H     1 <1>   0.1500 
 21 H        4.3350    -1.7880    -1.4150 H     1 <1>   0.0800 
 22 H        2.6550    -1.9130    -1.7900 H     1 <1>   0.0800 
 23 H        1.1460    -1.1660     1.2780 H     1 <1>   0.0800 
 24 H        2.2380    -2.3110     1.9430 H     1 <1>   0.0800 
 25 H        4.1440    -3.7530     0.1000 H     1 <1>   0.0800 
 26 H        3.6340    -4.1580    -1.5200 H     1 <1>   0.0800 
 27 H        0.7150    -2.7120    -0.6280 H     1 <1>   0.0800 
 28 H        0.5060    -3.5580     0.8810 H     1 <1>   0.0800 
@<TRIPOS>BOND
  1   1   2  1   
  2   2   3  ar  
  3   2   4  ar  
  4   3   5  ar  
  5   3   6  1   
  6   4   7  ar  
  7   4  17  1   
  8   5   8  ar  
  9   5  18  1   
 10   6   9  1   
 11   6  10  1   
 12   6  11  1   
 13   7   8  ar  
 14   7  19  1   
 15   8  20  1   
 16   9  12  ar  
 17   9  13  ar  
 18  10  14  1   
 19  10  21  1   
 20  10  22  1   
 21  11  15  1   
 22  11  23  1   
 23  11  24  1   
 24  14  16  1   
 25  14  25  1   
 26  14  26  1   
 27  15  16  1   
 28  15  27  1   
 29  15  28  1   
@<TRIPOS>SUBSTRUCTURE
  1 ****   6 GROUP 4 **** **** 0

# MOE 2024.06 (io_trps.svl 2023.06)
