@<TRIPOS>MOLECULE
1-Allyl-4-hydroxy-6,7-dimethoxy-2-oxo-1,2-dihydro-quinoline-3-carboxylic acid pr
46 47 1 0 0 
SMALL
USER_CHARGES


@<TRIPOS>ATOM
  1 O       -0.2660     0.4020    -0.7870 O.2   1 <1>  -0.5700 
  2 C       -1.3070     1.0350    -0.5830 C.2   1 <1>   0.5350 
  3 N       -2.5140     0.3610    -0.7350 N.am  1 <1>  -0.4770 
  4 C       -1.2860     2.3880    -0.2040 C.3   1 <1>  -0.7150 
  5 C       -3.7340     0.9480    -0.3450 C.ar  1 <1>   0.1170 
  6 C       -2.4970    -0.9500    -1.4490 C.3   1 <1>   0.2780 
  7 C       -2.4790     2.9720     0.2500 C.2   1 <1>   0.3890 
  8 C       -0.1070     3.1470    -0.2920 C.2   1 <1>   0.5350 
  9 C       -3.7300     2.2630     0.1440 C.ar  1 <1>   0.0860 
 10 C       -4.9500     0.2610    -0.4170 C.ar  1 <1>  -0.1500 
 11 C       -2.6620    -2.1390    -0.5020 C.2   1 <1>  -0.2880 
 12 O       -2.4930     4.0870     0.7840 O.2   1 <1>  -0.5700 
 13 O       -0.0490     4.2430    -0.8440 O.2   1 <1>  -0.5700 
 14 N        1.0440     2.6070     0.1860 N.am  1 <1>  -0.7300 
 15 C       -4.9450     2.8510     0.5110 C.ar  1 <1>  -0.1500 
 16 C       -6.1400     0.8470    -0.0400 C.ar  1 <1>   0.0820 
 17 C       -2.7160    -2.1080     0.8350 C.2   1 <1>  -0.3000 
 18 C        2.3650     3.1120    -0.2100 C.3   1 <1>   0.1400 
 19 C       -6.1380     2.1720     0.4090 C.ar  1 <1>   0.0820 
 20 O       -7.2670     0.1000    -0.1260 O.3   1 <1>  -0.3630 
 21 C        3.4470     2.2530     0.4440 C.3   1 <1>  -0.1600 
 22 O       -7.2820     2.8220     0.7440 O.3   1 <1>  -0.3630 
 23 C       -7.9650    -0.1510     1.0740 C.3   1 <1>   0.0400 
 24 C        4.8510     2.7410     0.0700 C.3   1 <1>  -0.2400 
 25 C       -8.0710     3.2340    -0.3480 C.3   1 <1>   0.0400 
 26 H       -1.5820    -1.0660    -2.0020 H     1 <1>   0.0800 
 27 H       -3.2900    -0.9540    -2.1740 H     1 <1>   0.0800 
 28 H       -4.9900    -0.7540    -0.7560 H     1 <1>   0.1500 
 29 H       -2.7260    -3.0630    -1.0470 H     1 <1>   0.1500 
 30 H        0.9440     1.5860     0.1770 H     1 <1>   0.3700 
 31 H       -4.9430     3.8620     0.8760 H     1 <1>   0.1500 
 32 H       -2.8300    -2.9770     1.4570 H     1 <1>   0.1500 
 33 H       -2.6420    -1.2040     1.4170 H     1 <1>   0.1500 
 34 H        2.4510     4.1390     0.1040 H     1 <1>   0.0800 
 35 H        2.4440     3.0730    -1.2830 H     1 <1>   0.0800 
 36 H        3.3260     1.2330     0.1230 H     1 <1>   0.0800 
 37 H        3.3260     2.2950     1.5120 H     1 <1>   0.0800 
 38 H       -7.2650    -0.4830     1.8210 H     1 <1>   0.0800 
 39 H       -8.6940    -0.9170     0.8850 H     1 <1>   0.0800 
 40 H       -8.4560     0.7490     1.3960 H     1 <1>   0.0800 
 41 H        4.9920     2.6930    -0.9950 H     1 <1>   0.0800 
 42 H        5.5920     2.1220     0.5440 H     1 <1>   0.0800 
 43 H        4.9920     3.7570     0.3950 H     1 <1>   0.0800 
 44 H       -7.4850     3.8840    -0.9730 H     1 <1>   0.0800 
 45 H       -8.9270     3.7610     0.0340 H     1 <1>   0.0800 
 46 H       -8.3870     2.3670    -0.9010 H     1 <1>   0.0800 
@<TRIPOS>BOND
  1   1   2  2   
  2   2   3  am  
  3   2   4  1   
  4   3   5  1   
  5   3   6  1   
  6   4   7  1   
  7   4   8  1   
  8   5   9  ar  
  9   5  10  ar  
 10   6  11  1   
 11   6  26  1   
 12   6  27  1   
 13   7   9  1   
 14   7  12  2   
 15   8  13  2   
 16   8  14  am  
 17   9  15  ar  
 18  10  16  ar  
 19  10  28  1   
 20  11  17  2   
 21  11  29  1   
 22  14  18  1   
 23  14  30  1   
 24  15  19  ar  
 25  15  31  1   
 26  16  19  ar  
 27  16  20  1   
 28  17  32  1   
 29  17  33  1   
 30  18  21  1   
 31  18  34  1   
 32  18  35  1   
 33  19  22  1   
 34  20  23  1   
 35  21  24  1   
 36  21  36  1   
 37  21  37  1   
 38  22  25  1   
 39  23  38  1   
 40  23  39  1   
 41  23  40  1   
 42  24  41  1   
 43  24  42  1   
 44  24  43  1   
 45  25  44  1   
 46  25  45  1   
 47  25  46  1   
@<TRIPOS>SUBSTRUCTURE
  1 ****   5 GROUP 4 **** **** 0

# MOE 2024.06 (io_trps.svl 2023.06)
