@<TRIPOS>MOLECULE
1-Cyclohexyl-5-oxo-pyrrolidine-3-carboxylic acid (3,5-difluoro-phenyl)-amide
43 45 1 0 0 
SMALL
USER_CHARGES


@<TRIPOS>ATOM
  1 F       -3.4030     2.8390     1.1430 F     1 <1>  -0.1900 
  2 C       -3.4230     1.7010     0.5040 C.ar  1 <1>   0.1900 
  3 C       -2.5130     1.4970    -0.5130 C.ar  1 <1>  -0.1500 
  4 C       -4.3570     0.7510     0.8730 C.ar  1 <1>  -0.1500 
  5 C       -2.5760     0.2800    -1.1610 C.ar  1 <1>   0.1900 
  6 C       -4.4020    -0.4710     0.2090 C.ar  1 <1>   0.1170 
  7 F       -1.7360     0.0470    -2.1330 F     1 <1>  -0.1900 
  8 C       -3.4940    -0.6990    -0.8250 C.ar  1 <1>  -0.1500 
  9 N       -5.3700    -1.4100     0.5980 N.am  1 <1>  -0.5470 
 10 C       -5.4160    -2.7680     0.4270 C.2   1 <1>   0.5690 
 11 O       -4.5180    -3.4010    -0.0700 O.2   1 <1>  -0.5700 
 12 C       -6.6480    -3.5100     0.9280 C.3   1 <1>  -0.0190 
 13 C       -6.8150    -4.9070     0.3060 C.3   1 <1>   0.1400 
 14 C       -7.9850    -2.7910     0.6590 C.3   1 <1>  -0.0990 
 15 N       -8.2800    -5.0840     0.2370 N.am  1 <1>  -0.6600 
 16 C       -8.9430    -3.9230     0.4280 C.2   1 <1>   0.5690 
 17 C       -8.9270    -6.3820    -0.0720 C.3   1 <1>   0.2200 
 18 O      -10.1380    -3.7690     0.4220 O.2   1 <1>  -0.5700 
 19 C       -8.7090    -7.3730     1.0790 C.3   1 <1>  -0.1600 
 20 C       -8.4070    -6.9460    -1.4010 C.3   1 <1>  -0.1600 
 21 C       -9.3620    -8.7280     0.7670 C.3   1 <1>  -0.1600 
 22 C       -9.0610    -8.3000    -1.7150 C.3   1 <1>  -0.1600 
 23 C       -8.8540    -9.2960    -0.5650 C.3   1 <1>  -0.1600 
 24 H       -1.7940     2.2450    -0.7870 H     1 <1>   0.1500 
 25 H       -5.0370     0.9700     1.6750 H     1 <1>   0.1500 
 26 H       -3.4930    -1.6220    -1.3730 H     1 <1>   0.1500 
 27 H       -6.1520    -1.0180     1.1200 H     1 <1>   0.3700 
 28 H       -6.5390    -3.6470     1.9890 H     1 <1>   0.0800 
 29 H       -6.3510    -5.6620     0.9150 H     1 <1>   0.0800 
 30 H       -6.4090    -4.9420    -0.6910 H     1 <1>   0.0800 
 31 H       -7.9480    -2.1990    -0.2370 H     1 <1>   0.0800 
 32 H       -8.3020    -2.1920     1.4930 H     1 <1>   0.0800 
 33 H       -9.9880    -6.2160    -0.1720 H     1 <1>   0.0800 
 34 H       -9.1380    -6.9690     1.9790 H     1 <1>   0.0800 
 35 H       -7.6570    -7.5250     1.2370 H     1 <1>   0.0800 
 36 H       -7.3420    -7.0840    -1.3490 H     1 <1>   0.0800 
 37 H       -8.6270    -6.2520    -2.1920 H     1 <1>   0.0800 
 38 H      -10.4310    -8.6040     0.7170 H     1 <1>   0.0800 
 39 H       -9.1490    -9.4230     1.5610 H     1 <1>   0.0800 
 40 H       -8.6420    -8.7020    -2.6220 H     1 <1>   0.0800 
 41 H      -10.1160    -8.1560    -1.8760 H     1 <1>   0.0800 
 42 H       -9.3730   -10.2130    -0.7870 H     1 <1>   0.0800 
 43 H       -7.8050    -9.5250    -0.4780 H     1 <1>   0.0800 
@<TRIPOS>BOND
  1   1   2  1   
  2   2   3  ar  
  3   2   4  ar  
  4   3   5  ar  
  5   3  24  1   
  6   4   6  ar  
  7   4  25  1   
  8   5   7  1   
  9   5   8  ar  
 10   6   8  ar  
 11   6   9  1   
 12   8  26  1   
 13   9  10  am  
 14   9  27  1   
 15  10  11  2   
 16  10  12  1   
 17  12  13  1   
 18  12  14  1   
 19  12  28  1   
 20  13  15  1   
 21  13  29  1   
 22  13  30  1   
 23  14  16  1   
 24  14  31  1   
 25  14  32  1   
 26  15  16  am  
 27  15  17  1   
 28  16  18  2   
 29  17  19  1   
 30  17  20  1   
 31  17  33  1   
 32  19  21  1   
 33  19  34  1   
 34  19  35  1   
 35  20  22  1   
 36  20  36  1   
 37  20  37  1   
 38  21  23  1   
 39  21  38  1   
 40  21  39  1   
 41  22  23  1   
 42  22  40  1   
 43  22  41  1   
 44  23  42  1   
 45  23  43  1   
@<TRIPOS>SUBSTRUCTURE
  1 ****  10 GROUP 4 **** **** 0

# MOE 2024.06 (io_trps.svl 2023.06)
