@<TRIPOS>MOLECULE
NONAME
50 52 1 0 0 
SMALL
USER_CHARGES


@<TRIPOS>ATOM
  1 O        3.6180    -1.8440     2.3420 O.2   1 <1>  -0.5700 
  2 C        3.8260    -0.9860     1.5190 C.2   1 <1>   0.5690 
  3 N        4.0740     0.3130     1.8270 N.am  1 <1>  -0.5390 
  4 C        3.8770    -1.1620    -0.0100 C.3   1 <1>   0.4810 
  5 C        4.3740     1.0330     0.7000 C.2   1 <1>  -0.0290 
  6 C        4.8520    -2.2810    -0.4150 C.2   1 <1>  -0.1240 
  7 C        2.4480    -1.3880    -0.5210 C.ar  1 <1>  -0.1440 
  8 C        4.3090     0.2590    -0.4140 C.2   1 <1>  -0.1240 
  9 C        4.7260     2.4990     0.8810 C.3   1 <1>  -0.1020 
 10 C        4.3740    -3.3320    -1.1490 C.2   1 <1>   0.1770 
 11 C        6.2080    -2.1650     0.0140 C.2   1 <1>   0.7060 
 12 C        2.1560    -2.5200    -1.2680 C.ar  1 <1>   0.0830 
 13 C        1.4240    -0.4830    -0.2590 C.ar  1 <1>  -0.1500 
 14 C        4.5390     0.5230    -1.7970 C.2   1 <1>   0.7060 
 15 O        3.1040    -3.4370    -1.5490 O.3   1 <1>  -0.1590 
 16 N        5.1200    -4.3950    -1.5610 N.pl3 1 <1>  -0.9000 
 17 O        7.0690    -3.0090    -0.1950 O.2   1 <1>  -0.5700 
 18 O        6.5900    -1.0700     0.6850 O.3   1 <1>  -0.4300 
 19 C        0.8760    -2.7440    -1.7480 C.ar  1 <1>  -0.1500 
 20 C        0.1440    -0.7050    -0.7370 C.ar  1 <1>  -0.1500 
 21 O        4.5250    -0.3370    -2.6530 O.2   1 <1>  -0.5700 
 22 O        4.7880     1.7810    -2.1680 O.3   1 <1>  -0.4300 
 23 C        7.8840    -0.8950     1.2130 C.3   1 <1>   0.2000 
 24 C       -0.1320    -1.8370    -1.4840 C.ar  1 <1>  -0.1500 
 25 C        5.0220     2.1190    -3.5170 C.3   1 <1>   0.1200 
 26 C        7.9500    -1.5980     2.5680 C.3   1 <1>  -0.2400 
 27 C        8.1090     0.6080     1.3560 C.3   1 <1>  -0.2400 
 28 C        5.2720     3.6210    -3.5900 C.3   1 <1>  -0.2400 
 29 H        4.1050     0.6240     2.8000 H     1 <1>   0.3700 
 30 H        3.8740     3.0340     1.2610 H     1 <1>   0.0800 
 31 H        5.0270     2.9580    -0.0410 H     1 <1>   0.0800 
 32 H        5.5350     2.5990     1.5820 H     1 <1>   0.0800 
 33 H        1.6060     0.4060     0.3200 H     1 <1>   0.1500 
 34 H        6.1240    -4.4500    -1.3320 H     1 <1>   0.4000 
 35 H        4.7430    -5.1480    -2.1410 H     1 <1>   0.4000 
 36 H        0.6770    -3.6280    -2.3260 H     1 <1>   0.1500 
 37 H       -0.6400     0.0020    -0.5280 H     1 <1>   0.1500 
 38 H        8.6070    -1.3060     0.5260 H     1 <1>   0.0800 
 39 H       -1.1270    -2.0100    -1.8560 H     1 <1>   0.1500 
 40 H        4.1550     1.8410    -4.0940 H     1 <1>   0.0800 
 41 H        5.8790     1.5660    -3.8640 H     1 <1>   0.0800 
 42 H        7.1950    -1.2150     3.2310 H     1 <1>   0.0800 
 43 H        8.9150    -1.4420     3.0160 H     1 <1>   0.0800 
 44 H        7.8090    -2.6570     2.4430 H     1 <1>   0.0800 
 45 H        7.3980     1.0280     2.0430 H     1 <1>   0.0800 
 46 H        8.0110     1.0860     0.3980 H     1 <1>   0.0800 
 47 H        9.0990     0.7950     1.7300 H     1 <1>   0.0800 
 48 H        4.4120     4.1580    -3.2310 H     1 <1>   0.0800 
 49 H        5.4530     3.9080    -4.6100 H     1 <1>   0.0800 
 50 H        6.1340     3.8830    -3.0030 H     1 <1>   0.0800 
@<TRIPOS>BOND
  1   1   2  2   
  2   2   3  am  
  3   2   4  1   
  4   3   5  1   
  5   3  29  1   
  6   4   6  1   
  7   4   7  1   
  8   4   8  1   
  9   5   8  2   
 10   5   9  1   
 11   6  10  2   
 12   6  11  1   
 13   7  12  ar  
 14   7  13  ar  
 15   8  14  1   
 16   9  30  1   
 17   9  31  1   
 18   9  32  1   
 19  10  15  1   
 20  10  16  1   
 21  11  17  2   
 22  11  18  1   
 23  12  15  1   
 24  12  19  ar  
 25  13  20  ar  
 26  13  33  1   
 27  14  21  2   
 28  14  22  1   
 29  16  34  1   
 30  16  35  1   
 31  18  23  1   
 32  19  24  ar  
 33  19  36  1   
 34  20  24  ar  
 35  20  37  1   
 36  22  25  1   
 37  23  26  1   
 38  23  27  1   
 39  23  38  1   
 40  24  39  1   
 41  25  28  1   
 42  25  40  1   
 43  25  41  1   
 44  26  42  1   
 45  26  43  1   
 46  26  44  1   
 47  27  45  1   
 48  27  46  1   
 49  27  47  1   
 50  28  48  1   
 51  28  49  1   
 52  28  50  1   
@<TRIPOS>SUBSTRUCTURE
  1 ****   4 GROUP 4 **** **** 0

# MOE 2024.06 (io_trps.svl 2023.06)
