@<TRIPOS>MOLECULE
8-(2,4-Dimethoxy-phenyl)-1,6-dimethyl-3-propyl-5,6,7,8-tetrahydro-1H-1,3,4b,8,9-
58 61 1 0 0 
SMALL
USER_CHARGES


@<TRIPOS>ATOM
  1 O        1.1980     0.0380     1.2310 O.2   1 <1>  -0.5740 
  2 C        2.0870     0.8190     0.9580 C.2   1 <1>   0.6870 
  3 N        1.8270     2.1860     0.9020 N.am  1 <1>  -0.4250 
  4 N        3.3650     0.3410     0.6980 N.am  1 <1>  -0.4410 
  5 C        2.8240     3.0950     0.5740 C.2   1 <1>   0.7000 
  6 C        0.4440     2.6800     1.1700 C.3   1 <1>   0.1340 
  7 C        4.3420     1.2530     0.3500 C.2   1 <1>   0.4210 
  8 C        3.6660    -1.1200     0.7550 C.3   1 <1>   0.0530 
  9 O        2.6000     4.2940     0.5360 O.2   1 <1>  -0.5740 
 10 C        4.1280     2.5840     0.2820 C.2   1 <1>   0.2720 
 11 C       -0.3580     2.7330    -0.1350 C.3   1 <1>  -0.1660 
 12 N        5.6430     1.0070     0.0350 N.pl3 1 <1>  -0.7030 
 13 N        5.3550     3.1570    -0.0830 N.pl3 1 <1>  -0.7670 
 14 C       -1.7830     3.2380     0.1120 C.3   1 <1>  -0.2460 
 15 C        6.2370     2.1720    -0.2090 C.cat 1 <1>   1.0690 
 16 C        5.6560     4.5930    -0.2600 C.3   1 <1>   0.3490 
 17 N        7.5260     2.3760    -0.5440 N.pl3 1 <1>  -0.5790 
 18 C        6.9410     4.7440    -1.0930 C.3   1 <1>  -0.0870 
 19 C        8.4690     1.3340    -0.6850 C.ar  1 <1>   0.3060 
 20 C        8.0380     3.7750    -0.6120 C.3   1 <1>   0.1620 
 21 C        7.4500     6.1930    -1.0600 C.3   1 <1>  -0.2460 
 22 C        8.7690     0.4540     0.3660 C.ar  1 <1>   0.0760 
 23 C        9.1170     1.1730    -1.9020 C.ar  1 <1>  -0.1560 
 24 O        8.1080     0.6210     1.5490 O.3   1 <1>  -0.3670 
 25 C        9.7080    -0.5570     0.1830 C.ar  1 <1>  -0.1560 
 26 C       10.0480     0.1670    -2.0780 C.ar  1 <1>  -0.1560 
 27 C        8.6340     0.0980     2.7540 C.3   1 <1>   0.0330 
 28 C       10.3500    -0.6990    -1.0420 C.ar  1 <1>   0.0760 
 29 O       11.2760    -1.6550    -1.3060 O.3   1 <1>  -0.3670 
 30 C       11.7200    -2.5500    -0.3090 C.3   1 <1>   0.0330 
 31 H        0.4830     3.6610     1.6130 H     1 <1>   0.0730 
 32 H       -0.0500     2.0300     1.8730 H     1 <1>   0.0730 
 33 H        2.9390    -1.6350     1.3610 H     1 <1>   0.0730 
 34 H        4.6370    -1.2850     1.1890 H     1 <1>   0.0730 
 35 H        3.6410    -1.5350    -0.2370 H     1 <1>   0.0730 
 36 H       -0.4080     1.7480    -0.5670 H     1 <1>   0.0730 
 37 H        0.1280     3.3940    -0.8330 H     1 <1>   0.0730 
 38 H        6.1560     0.1300     0.0870 H     1 <1>   0.4460 
 39 H       -2.3010     2.5840     0.7920 H     1 <1>   0.0730 
 40 H       -2.3280     3.2660    -0.8150 H     1 <1>   0.0730 
 41 H       -1.7660     4.2300     0.5280 H     1 <1>   0.0730 
 42 H        5.7860     5.0450     0.7100 H     1 <1>   0.0730 
 43 H        4.8360     5.0850    -0.7570 H     1 <1>   0.0730 
 44 H        6.7080     4.5070    -2.1180 H     1 <1>   0.0730 
 45 H        8.8790     3.8260    -1.2840 H     1 <1>   0.0730 
 46 H        8.3800     4.0640     0.3680 H     1 <1>   0.0730 
 47 H        7.7080     6.4900    -0.0580 H     1 <1>   0.0730 
 48 H        6.6950     6.8660    -1.4310 H     1 <1>   0.0730 
 49 H        8.3230     6.2990    -1.6810 H     1 <1>   0.0730 
 50 H        8.8960     1.8330    -2.7220 H     1 <1>   0.1440 
 51 H        9.9380    -1.2340     0.9810 H     1 <1>   0.1440 
 52 H       10.5510     0.0440    -3.0230 H     1 <1>   0.1440 
 53 H        8.0590     0.4930     3.5730 H     1 <1>   0.0730 
 54 H        9.6620     0.4040     2.8520 H     1 <1>   0.0730 
 55 H        8.5530    -0.9740     2.7400 H     1 <1>   0.0730 
 56 H       12.4690    -3.1870    -0.7430 H     1 <1>   0.0730 
 57 H       10.8870    -3.1430     0.0250 H     1 <1>   0.0730 
 58 H       12.1460    -1.9870     0.5020 H     1 <1>   0.0730 
@<TRIPOS>BOND
  1   1   2  2   
  2   2   3  am  
  3   2   4  am  
  4   3   5  am  
  5   3   6  1   
  6   4   7  1   
  7   4   8  1   
  8   5   9  2   
  9   5  10  1   
 10   6  11  1   
 11   6  31  1   
 12   6  32  1   
 13   7  10  2   
 14   7  12  1   
 15   8  33  1   
 16   8  34  1   
 17   8  35  1   
 18  10  13  1   
 19  11  14  1   
 20  11  36  1   
 21  11  37  1   
 22  12  15  ar  
 23  12  38  1   
 24  13  15  ar  
 25  13  16  1   
 26  14  39  1   
 27  14  40  1   
 28  14  41  1   
 29  15  17  ar  
 30  16  18  1   
 31  16  42  1   
 32  16  43  1   
 33  17  19  1   
 34  17  20  1   
 35  18  20  1   
 36  18  21  1   
 37  18  44  1   
 38  19  22  ar  
 39  19  23  ar  
 40  20  45  1   
 41  20  46  1   
 42  21  47  1   
 43  21  48  1   
 44  21  49  1   
 45  22  24  1   
 46  22  25  ar  
 47  23  26  ar  
 48  23  50  1   
 49  24  27  1   
 50  25  28  ar  
 51  25  51  1   
 52  26  28  ar  
 53  26  52  1   
 54  27  53  1   
 55  27  54  1   
 56  27  55  1   
 57  28  29  1   
 58  29  30  1   
 59  30  56  1   
 60  30  57  1   
 61  30  58  1   
@<TRIPOS>SUBSTRUCTURE
  1 ****  12 GROUP 4 **** **** 0

# MOE 2024.06 (io_trps.svl 2023.06)
