@<TRIPOS>MOLECULE
1-(2-Cyano-ethyl)-3-(3,4-dimethyl-phenyl)-1H-pyrazole-4-carboxylic acid isopropy
44 45 1 0 0 
SMALL
USER_CHARGES


@<TRIPOS>ATOM
  1 O        0.9340    -0.1910    -0.8120 O.2   1 <1>  -0.5700 
  2 C        1.3830    -1.2130    -0.3390 C.2   1 <1>   0.8060 
  3 O        2.7040    -1.3140    -0.1540 O.3   1 <1>  -0.4300 
  4 C        0.5960    -2.3570     0.0410 C.2   1 <1>  -0.0860 
  5 C        3.6020    -0.2720    -0.4600 C.3   1 <1>   0.2000 
  6 C       -0.8080    -2.4760     0.1010 C.2   1 <1>   0.2350 
  7 C        1.0390    -3.5910     0.4120 C.2   1 <1>  -0.3020 
  8 C        4.9640    -0.9110    -0.7130 C.3   1 <1>  -0.2400 
  9 C        3.6490     0.6920     0.7250 C.3   1 <1>  -0.2400 
 10 N       -1.1630    -3.6860     0.4520 N.2   1 <1>  -0.7070 
 11 C       -1.7880    -1.4450    -0.1690 C.ar  1 <1>   0.0540 
 12 N       -0.0270    -4.3590     0.6490 N.pl3 1 <1>   0.3140 
 13 C       -1.7640    -0.2140     0.4810 C.ar  1 <1>  -0.1500 
 14 C       -2.8140    -1.6680    -1.0810 C.ar  1 <1>  -0.1500 
 15 C       -0.0290    -5.7720     1.0680 C.3   1 <1>   0.0960 
 16 C       -2.7090     0.7680     0.2280 C.ar  1 <1>  -0.1430 
 17 C       -3.7640    -0.6990    -1.3430 C.ar  1 <1>  -0.1500 
 18 C       -0.9380    -6.6000     0.1570 C.3   1 <1>   0.0400 
 19 C       -3.7200     0.5250    -0.6950 C.ar  1 <1>  -0.1430 
 20 C       -2.6100     2.0950     0.9670 C.3   1 <1>  -0.0970 
 21 C       -0.8530    -8.0340     0.5320 C.1   1 <1>   0.3570 
 22 C       -4.7810     1.5690    -1.0100 C.3   1 <1>  -0.0970 
 23 N       -0.7590    -9.1240     0.8370 N.1   1 <1>  -0.5570 
 24 H        3.2670     0.2320    -1.3530 H     1 <1>   0.0800 
 25 H        2.0530    -3.9340     0.5070 H     1 <1>   0.1500 
 26 H        5.3010    -1.4400     0.1610 H     1 <1>   0.0800 
 27 H        5.6860    -0.1520    -0.9540 H     1 <1>   0.0800 
 28 H        4.9020    -1.5930    -1.5420 H     1 <1>   0.0800 
 29 H        3.9460     0.1760     1.6200 H     1 <1>   0.0800 
 30 H        2.6850     1.1450     0.8750 H     1 <1>   0.0800 
 31 H        4.3580     1.4760     0.5290 H     1 <1>   0.0800 
 32 H       -0.9830    -0.0300     1.1950 H     1 <1>   0.1500 
 33 H       -2.8620    -2.6160    -1.5840 H     1 <1>   0.1500 
 34 H       -0.3790    -5.8200     2.0830 H     1 <1>   0.0800 
 35 H        0.9790    -6.1440     1.0290 H     1 <1>   0.0800 
 36 H       -4.5410    -0.9070    -2.0570 H     1 <1>   0.1500 
 37 H       -0.6340    -6.4930    -0.8690 H     1 <1>   0.0800 
 38 H       -1.9590    -6.2790     0.2570 H     1 <1>   0.0800 
 39 H       -1.7660     2.1040     1.6320 H     1 <1>   0.0800 
 40 H       -3.5000     2.2600     1.5470 H     1 <1>   0.0800 
 41 H       -2.4920     2.8980     0.2640 H     1 <1>   0.0800 
 42 H       -4.3170     2.4560    -1.4020 H     1 <1>   0.0800 
 43 H       -5.3260     1.8210    -0.1180 H     1 <1>   0.0800 
 44 H       -5.4780     1.2020    -1.7400 H     1 <1>   0.0800 
@<TRIPOS>BOND
  1   1   2  2   
  2   2   3  1   
  3   2   4  1   
  4   3   5  1   
  5   4   6  1   
  6   4   7  2   
  7   5   8  1   
  8   5   9  1   
  9   5  24  1   
 10   6  10  2   
 11   6  11  1   
 12   7  12  1   
 13   7  25  1   
 14   8  26  1   
 15   8  27  1   
 16   8  28  1   
 17   9  29  1   
 18   9  30  1   
 19   9  31  1   
 20  10  12  1   
 21  11  13  ar  
 22  11  14  ar  
 23  12  15  1   
 24  13  16  ar  
 25  13  32  1   
 26  14  17  ar  
 27  14  33  1   
 28  15  18  1   
 29  15  34  1   
 30  15  35  1   
 31  16  19  ar  
 32  16  20  1   
 33  17  19  ar  
 34  17  36  1   
 35  18  21  1   
 36  18  37  1   
 37  18  38  1   
 38  19  22  1   
 39  20  39  1   
 40  20  40  1   
 41  20  41  1   
 42  21  23  3   
 43  22  42  1   
 44  22  43  1   
 45  22  44  1   
@<TRIPOS>SUBSTRUCTURE
  1 ****   6 GROUP 4 **** **** 0

# MOE 2024.06 (io_trps.svl 2023.06)
