@<TRIPOS>MOLECULE
2-Methyl-quinoline-4-carboxylic acid (2-dimethylamino-ethyl)-amide
39 40 1 0 0 
SMALL
USER_CHARGES


@<TRIPOS>ATOM
  1 O        2.1710     0.2500    -1.4820 O.2   1 <1>  -0.5700 
  2 C        1.7800    -0.4050    -0.5360 C.2   1 <1>   0.5440 
  3 N        1.5990     0.2470     0.6540 N.am  1 <1>  -0.7300 
  4 C        1.5850    -1.8340    -0.6430 C.ar  1 <1>   0.0860 
  5 C        1.4280     1.7200     0.8450 C.3   1 <1>   0.1400 
  6 C        0.4020    -2.4850    -0.2090 C.ar  1 <1>   0.0000 
  7 C        2.5720    -2.6330    -1.1620 C.ar  1 <1>  -0.1500 
  8 C        2.7720     2.4770     0.9010 C.3   1 <1>   0.3430 
  9 C        0.3730    -3.8970    -0.2520 C.ar  1 <1>   0.3100 
 10 C       -0.7570    -1.8130     0.2460 C.ar  1 <1>  -0.1500 
 11 C        2.4340    -4.0220    -1.1910 C.ar  1 <1>   0.1660 
 12 N        3.5070     2.3970    -0.3980 N.4   1 <1>  -0.9590 
 13 N        1.3920    -4.6420    -0.7400 N.ar  1 <1>  -0.6200 
 14 C       -0.7660    -4.5700     0.2190 C.ar  1 <1>  -0.1500 
 15 C       -1.8570    -2.4980     0.6890 C.ar  1 <1>  -0.1500 
 16 C        3.5450    -4.8780    -1.7620 C.3   1 <1>  -0.0970 
 17 C        4.9860     2.4560    -0.2240 C.3   1 <1>   0.2630 
 18 C        3.0250     3.3960    -1.3980 C.3   1 <1>   0.2630 
 19 C       -1.8600    -3.8940     0.6840 C.ar  1 <1>  -0.1500 
 20 H        1.3210    -0.3320     1.4560 H     1 <1>   0.3700 
 21 H        0.8990     1.8850     1.7680 H     1 <1>   0.0800 
 22 H        0.8210     2.1160     0.0490 H     1 <1>   0.0800 
 23 H        3.4740    -2.1930    -1.5460 H     1 <1>   0.1500 
 24 H        3.3680     2.0420     1.6850 H     1 <1>   0.0800 
 25 H        2.5960     3.5100     1.1530 H     1 <1>   0.0800 
 26 H       -0.7900    -0.7390     0.2360 H     1 <1>   0.1500 
 27 H        3.2530     1.4610    -0.7950 H     1 <1>   0.4500 
 28 H       -0.7510    -5.6440     0.1950 H     1 <1>   0.1500 
 29 H       -2.7320    -1.9760     1.0380 H     1 <1>   0.1500 
 30 H        4.3400    -4.2760    -2.1610 H     1 <1>   0.0800 
 31 H        3.1520    -5.4960    -2.5490 H     1 <1>   0.0800 
 32 H        3.9410    -5.5140    -0.9910 H     1 <1>   0.0800 
 33 H        5.2790     3.4090     0.1840 H     1 <1>   0.0800 
 34 H        5.4770     2.3200    -1.1750 H     1 <1>   0.0800 
 35 H        5.3130     1.6750     0.4430 H     1 <1>   0.0800 
 36 H        3.2080     4.3990    -1.0490 H     1 <1>   0.0800 
 37 H        1.9690     3.2690    -1.5700 H     1 <1>   0.0800 
 38 H        3.5370     3.2550    -2.3370 H     1 <1>   0.0800 
 39 H       -2.7280    -4.4230     1.0400 H     1 <1>   0.1500 
@<TRIPOS>BOND
  1   1   2  2   
  2   2   3  am  
  3   2   4  1   
  4   3   5  1   
  5   3  20  1   
  6   4   6  ar  
  7   4   7  ar  
  8   5   8  1   
  9   5  21  1   
 10   5  22  1   
 11   6   9  ar  
 12   6  10  ar  
 13   7  11  ar  
 14   7  23  1   
 15   8  12  1   
 16   8  24  1   
 17   8  25  1   
 18   9  13  ar  
 19   9  14  ar  
 20  10  15  ar  
 21  10  26  1   
 22  11  13  ar  
 23  11  16  1   
 24  12  17  1   
 25  12  18  1   
 26  12  27  1   
 27  14  19  ar  
 28  14  28  1   
 29  15  19  ar  
 30  15  29  1   
 31  16  30  1   
 32  16  31  1   
 33  16  32  1   
 34  17  33  1   
 35  17  34  1   
 36  17  35  1   
 37  18  36  1   
 38  18  37  1   
 39  18  38  1   
 40  19  39  1   
@<TRIPOS>SUBSTRUCTURE
  1 ****   4 GROUP 4 **** **** 0

# MOE 2024.06 (io_trps.svl 2023.06)
