@<TRIPOS>MOLECULE
2-(3-Methoxy-benzylamino)-4,5,6,7-tetrahydro-cyclopenta[d][1,2,4]triazolo[1,5-a]
40 43 1 0 0 
SMALL
USER_CHARGES


@<TRIPOS>ATOM
  1 O        0.1850    -0.6300     1.4010 O.2   1 <1>  -0.5700 
  2 C       -0.1640    -1.5070     0.6200 C.2   1 <1>   0.5650 
  3 N       -1.5010    -1.6520     0.1700 N.pl3 1 <1>   0.5610 
  4 C        0.7670    -2.4630     0.1070 C.2   1 <1>  -0.1240 
  5 N       -2.6370    -0.9580     0.4350 N.2   1 <1>  -0.7070 
  6 C       -1.8440    -2.6550    -0.6870 C.2   1 <1>   0.2700 
  7 C        0.3980    -3.4390    -0.7410 C.2   1 <1>  -0.0380 
  8 C        2.2440    -2.5260     0.4130 C.3   1 <1>  -0.0220 
  9 C       -3.5040    -1.5870    -0.2760 C.2   1 <1>   0.5990 
 10 N       -3.0900    -2.6430    -0.9790 N.2   1 <1>  -0.5650 
 11 N       -0.9030    -3.5640    -1.1580 N.pl3 1 <1>  -0.5840 
 12 C        1.5360    -4.3290    -1.1590 C.3   1 <1>  -0.0220 
 13 C        2.7150    -3.8080    -0.3090 C.3   1 <1>  -0.1600 
 14 N       -4.8190    -1.2370    -0.3450 N.pl3 1 <1>  -0.8520 
 15 C       -5.4370    -0.8110     0.9220 C.3   1 <1>   0.3530 
 16 C       -6.8640    -1.3310     0.9470 C.ar  1 <1>  -0.1440 
 17 C       -7.8030    -0.8170     0.0650 C.ar  1 <1>  -0.1500 
 18 C       -7.2400    -2.3210     1.8430 C.ar  1 <1>  -0.1500 
 19 C       -9.1130    -1.2860     0.0760 C.ar  1 <1>   0.0820 
 20 C       -8.5420    -2.7900     1.8600 C.ar  1 <1>  -0.1500 
 21 O      -10.0830    -0.8360    -0.7590 O.3   1 <1>  -0.3620 
 22 C       -9.4740    -2.2730     0.9790 C.ar  1 <1>  -0.1500 
 23 C       -9.8050     0.1290    -1.7490 C.3   1 <1>   0.0400 
 24 H        2.4140    -2.5880     1.4740 H     1 <1>   0.0800 
 25 H        2.7380    -1.6540     0.0200 H     1 <1>   0.0800 
 26 H       -1.2270    -4.2890    -1.8090 H     1 <1>   0.4000 
 27 H        1.7330    -4.2110    -2.2100 H     1 <1>   0.0800 
 28 H        1.3230    -5.3610    -0.9380 H     1 <1>   0.0800 
 29 H        2.9840    -4.5500     0.4230 H     1 <1>   0.0800 
 30 H        3.5730    -3.6060    -0.9260 H     1 <1>   0.0800 
 31 H       -5.3350    -2.0310    -0.7250 H     1 <1>   0.4000 
 32 H       -5.4310     0.2640     0.9750 H     1 <1>   0.0800 
 33 H       -4.8860    -1.1970     1.7640 H     1 <1>   0.0800 
 34 H       -7.4930    -0.0550    -0.6260 H     1 <1>   0.1500 
 35 H       -6.5210    -2.7340     2.5310 H     1 <1>   0.1500 
 36 H       -8.8300    -3.5580     2.5570 H     1 <1>   0.1500 
 37 H      -10.4870    -2.6310     0.9840 H     1 <1>   0.1500 
 38 H      -10.7090     0.3110    -2.3010 H     1 <1>   0.0800 
 39 H       -9.0460    -0.2560    -2.4070 H     1 <1>   0.0800 
 40 H       -9.4780     1.0350    -1.2720 H     1 <1>   0.0800 
@<TRIPOS>BOND
  1   1   2  2   
  2   2   3  1   
  3   2   4  1   
  4   3   5  1   
  5   3   6  1   
  6   4   7  2   
  7   4   8  1   
  8   5   9  2   
  9   6  10  2   
 10   6  11  1   
 11   7  11  1   
 12   7  12  1   
 13   8  13  1   
 14   8  24  1   
 15   8  25  1   
 16   9  10  1   
 17   9  14  1   
 18  11  26  1   
 19  12  13  1   
 20  12  27  1   
 21  12  28  1   
 22  13  29  1   
 23  13  30  1   
 24  14  15  1   
 25  14  31  1   
 26  15  16  1   
 27  15  32  1   
 28  15  33  1   
 29  16  17  ar  
 30  16  18  ar  
 31  17  19  ar  
 32  17  34  1   
 33  18  20  ar  
 34  18  35  1   
 35  19  21  1   
 36  19  22  ar  
 37  20  22  ar  
 38  20  36  1   
 39  21  23  1   
 40  22  37  1   
 41  23  38  1   
 42  23  39  1   
 43  23  40  1   
@<TRIPOS>SUBSTRUCTURE
  1 ****   9 GROUP 4 **** **** 0

# MOE 2024.06 (io_trps.svl 2023.06)
