@<TRIPOS>MOLECULE
1-(4-Chloro-naphthalene-1-sulfonyl)-piperidine-4-carboxylic acid ethyl ester
45 47 1 0 0 
SMALL
USER_CHARGES


@<TRIPOS>ATOM
  1 CL      -2.0800    -0.5400     3.8130 Cl    1 <1>  -0.1770 
  2 C       -3.1140    -0.3200     2.4210 C.ar  1 <1>   0.1770 
  3 C       -3.5130    -1.4340     1.6520 C.ar  1 <1>   0.0000 
  4 C       -3.5120     0.9450     2.1190 C.ar  1 <1>  -0.1500 
  5 C       -4.3500    -1.2160     0.5230 C.ar  1 <1>   0.0000 
  6 C       -3.1080    -2.7480     1.9770 C.ar  1 <1>  -0.1500 
  7 C       -4.3390     1.1500     1.0150 C.ar  1 <1>  -0.1500 
  8 C       -4.7620     0.1190     0.2090 C.ar  1 <1>  -0.0090 
  9 C       -4.7220    -2.3700    -0.2150 C.ar  1 <1>  -0.1500 
 10 C       -3.4960    -3.8240     1.2340 C.ar  1 <1>  -0.1500 
 11 S       -5.8650     0.5650    -1.1770 S.o2  1 <1>   1.4470 
 12 C       -4.3130    -3.6280     0.1230 C.ar  1 <1>  -0.1500 
 13 O       -5.9020    -0.4070    -2.2480 O.2   1 <1>  -0.6500 
 14 O       -5.5890     1.9390    -1.5380 O.2   1 <1>  -0.6500 
 15 N       -7.4090     0.5570    -0.4710 N.am  1 <1>  -0.8490 
 16 C       -7.8860    -0.7980    -0.1820 C.3   1 <1>   0.1960 
 17 C       -8.3690     1.2970    -1.2980 C.3   1 <1>   0.1960 
 18 C       -9.2110    -0.7460     0.5810 C.3   1 <1>  -0.1600 
 19 C       -9.7150     1.4150    -0.5790 C.3   1 <1>  -0.1600 
 20 C      -10.2790     0.0320    -0.2060 C.3   1 <1>  -0.0190 
 21 C      -11.5960     0.1060     0.5660 C.2   1 <1>   0.6590 
 22 O      -12.0230     1.1330     1.0300 O.2   1 <1>  -0.5700 
 23 O      -12.2460    -1.0440     0.6900 O.3   1 <1>  -0.4300 
 24 C      -13.4730    -1.1230     1.3770 C.3   1 <1>   0.1200 
 25 C      -13.9390    -2.5750     1.3450 C.3   1 <1>  -0.2400 
 26 H       -3.1990     1.7800     2.7200 H     1 <1>   0.1500 
 27 H       -2.4760    -2.9090     2.8320 H     1 <1>   0.1500 
 28 H       -4.6460     2.1620     0.8050 H     1 <1>   0.1500 
 29 H       -5.3460    -2.2920    -1.0800 H     1 <1>   0.1500 
 30 H       -3.1800    -4.8210     1.4900 H     1 <1>   0.1500 
 31 H       -4.6110    -4.4830    -0.4610 H     1 <1>   0.1500 
 32 H       -7.1660    -1.3160     0.4280 H     1 <1>   0.0800 
 33 H       -8.0120    -1.3500    -1.1000 H     1 <1>   0.0800 
 34 H       -8.4930     0.8000    -2.2470 H     1 <1>   0.0800 
 35 H       -8.0000     2.2920    -1.4870 H     1 <1>   0.0800 
 36 H       -9.0460    -0.2770     1.5360 H     1 <1>   0.0800 
 37 H       -9.5530    -1.7500     0.7620 H     1 <1>   0.0800 
 38 H      -10.4130     1.9320    -1.2130 H     1 <1>   0.0800 
 39 H       -9.5790     2.0090     0.3080 H     1 <1>   0.0800 
 40 H      -10.4830    -0.5010    -1.1170 H     1 <1>   0.0800 
 41 H      -14.1820    -0.4770     0.8860 H     1 <1>   0.0800 
 42 H      -13.3200    -0.7880     2.3890 H     1 <1>   0.0800 
 43 H      -14.0770    -2.8980     0.3290 H     1 <1>   0.0800 
 44 H      -14.8770    -2.6650     1.8620 H     1 <1>   0.0800 
 45 H      -13.2190    -3.2080     1.8310 H     1 <1>   0.0800 
@<TRIPOS>BOND
  1   1   2  1   
  2   2   3  ar  
  3   2   4  ar  
  4   3   5  ar  
  5   3   6  ar  
  6   4   7  ar  
  7   4  26  1   
  8   5   8  ar  
  9   5   9  ar  
 10   6  10  ar  
 11   6  27  1   
 12   7   8  ar  
 13   7  28  1   
 14   8  11  1   
 15   9  12  ar  
 16   9  29  1   
 17  10  12  ar  
 18  10  30  1   
 19  11  13  2   
 20  11  14  2   
 21  11  15  am  
 22  12  31  1   
 23  15  16  1   
 24  15  17  1   
 25  16  18  1   
 26  16  32  1   
 27  16  33  1   
 28  17  19  1   
 29  17  34  1   
 30  17  35  1   
 31  18  20  1   
 32  18  36  1   
 33  18  37  1   
 34  19  20  1   
 35  19  38  1   
 36  19  39  1   
 37  20  21  1   
 38  20  40  1   
 39  21  22  2   
 40  21  23  1   
 41  23  24  1   
 42  24  25  1   
 43  24  41  1   
 44  24  42  1   
 45  25  43  1   
 46  25  44  1   
 47  25  45  1   
@<TRIPOS>SUBSTRUCTURE
  1 ****  16 GROUP 4 **** **** 0

# MOE 2024.06 (io_trps.svl 2023.06)
