@<TRIPOS>MOLECULE
2-(2-Diethylamino-ethyl)-8,8-dimethyl-3-propyl-8,9-dihydro-2H,6H-7-oxa-11-thia-2
63 66 1 0 0 
SMALL
USER_CHARGES


@<TRIPOS>ATOM
  1 S        0.2000    -1.7280    -0.2600 S.3   1 <1>  -0.0800 
  2 C       -1.1840    -0.6420    -0.0690 C.ar  1 <1>   0.2970 
  3 C        1.3340    -0.4380     0.1680 C.2   1 <1>  -0.0450 
  4 N       -2.4240    -1.0490    -0.2710 N.ar  1 <1>  -0.5670 
  5 C       -0.7500     0.6230     0.3040 C.ar  1 <1>   0.0000 
  6 C        2.7360    -0.5220     0.2360 C.2   1 <1>   0.7150 
  7 C        0.6780     0.7120     0.4310 C.2   1 <1>   0.1250 
  8 C       -3.3260    -0.0980    -0.0830 C.ar  1 <1>   0.1660 
  9 C       -1.7200     1.5930     0.4920 C.ar  1 <1>  -0.1500 
 10 O        3.3730    -1.5340    -0.0300 O.2   1 <1>  -0.5700 
 11 N        3.4030     0.6390     0.5920 N.am  1 <1>  -0.4200 
 12 N        1.3700     1.8410     0.7810 N.2   1 <1>  -0.5750 
 13 C       -3.0330     1.2160     0.2910 C.ar  1 <1>  -0.1430 
 14 C       -4.7710    -0.5050    -0.2840 C.3   1 <1>  -0.0170 
 15 C        2.6540     1.7870     0.8580 C.2   1 <1>   0.4490 
 16 C        4.8960     0.5540     0.7110 C.3   1 <1>   0.1400 
 17 C       -4.1430     2.2460     0.4630 C.3   1 <1>   0.2640 
 18 C       -5.6910     0.7030    -0.5150 C.3   1 <1>   0.2800 
 19 C        3.3510     3.0830     1.2650 C.3   1 <1>  -0.0990 
 20 C        5.5440     0.3260    -0.6700 C.3   1 <1>   0.3430 
 21 O       -5.4170     1.6650     0.4560 O.3   1 <1>  -0.5600 
 22 C       -5.5330     1.3110    -1.9190 C.3   1 <1>  -0.2400 
 23 C       -7.1540     0.3100    -0.3010 C.3   1 <1>  -0.2400 
 24 C        4.0030     3.8080     0.0750 C.3   1 <1>  -0.1600 
 25 N        7.0280     0.1030    -0.5840 N.4   1 <1>  -0.9590 
 26 C        4.7110     5.0880     0.5280 C.3   1 <1>  -0.2400 
 27 C        7.7320     0.9820    -1.5570 C.3   1 <1>   0.3430 
 28 C        7.3780    -1.3320    -0.8190 C.3   1 <1>   0.3430 
 29 C        9.1910     1.1380    -1.1410 C.3   1 <1>  -0.2400 
 30 C        6.9760    -2.1830     0.3790 C.3   1 <1>  -0.2400 
 31 H       -1.4380     2.5910     0.7810 H     1 <1>   0.1500 
 32 H       -5.0890    -1.0410     0.5910 H     1 <1>   0.0800 
 33 H       -4.8440    -1.1770    -1.1200 H     1 <1>   0.0800 
 34 H        5.1300    -0.2700     1.3630 H     1 <1>   0.0800 
 35 H        5.3050     1.4420     1.1490 H     1 <1>   0.0800 
 36 H       -4.1010     2.9760    -0.3250 H     1 <1>   0.0800 
 37 H       -4.0310     2.7530     1.4050 H     1 <1>   0.0800 
 38 H        4.0610     2.8980     2.0480 H     1 <1>   0.0800 
 39 H        2.6110     3.7430     1.6880 H     1 <1>   0.0800 
 40 H        5.3420     1.1880    -1.2830 H     1 <1>   0.0800 
 41 H        5.0860    -0.5280    -1.1430 H     1 <1>   0.0800 
 42 H       -4.5040     1.5200    -2.1470 H     1 <1>   0.0800 
 43 H       -6.1090     2.2150    -2.0000 H     1 <1>   0.0800 
 44 H       -5.8900     0.6170    -2.6580 H     1 <1>   0.0800 
 45 H       -7.2980    -0.0650     0.6960 H     1 <1>   0.0800 
 46 H       -7.4420    -0.4550    -0.9990 H     1 <1>   0.0800 
 47 H       -7.7920     1.1630    -0.4460 H     1 <1>   0.0800 
 48 H        3.2380     4.0640    -0.6400 H     1 <1>   0.0800 
 49 H        4.7140     3.1730    -0.4180 H     1 <1>   0.0800 
 50 H        7.3670     0.3550     0.3540 H     1 <1>   0.4500 
 51 H        4.0100     5.7610     0.9920 H     1 <1>   0.0800 
 52 H        5.1450     5.5910    -0.3190 H     1 <1>   0.0800 
 53 H        5.4930     4.8680     1.2330 H     1 <1>   0.0800 
 54 H        7.2730     1.9580    -1.5670 H     1 <1>   0.0800 
 55 H        7.6680     0.5690    -2.5520 H     1 <1>   0.0800 
 56 H        8.4430    -1.4290    -0.9620 H     1 <1>   0.0800 
 57 H        6.8890    -1.6960    -1.7100 H     1 <1>   0.0800 
 58 H        9.2670     1.5480    -0.1500 H     1 <1>   0.0800 
 59 H        9.6760     1.8200    -1.8170 H     1 <1>   0.0800 
 60 H        9.7210     0.2040    -1.1900 H     1 <1>   0.0800 
 61 H        7.3980    -1.7980     1.2900 H     1 <1>   0.0800 
 62 H        7.3510    -3.1810     0.2370 H     1 <1>   0.0800 
 63 H        5.9070    -2.2570     0.4670 H     1 <1>   0.0800 
@<TRIPOS>BOND
  1   1   2  1   
  2   1   3  1   
  3   2   4  ar  
  4   2   5  ar  
  5   3   6  1   
  6   3   7  2   
  7   4   8  ar  
  8   5   7  1   
  9   5   9  ar  
 10   6  10  2   
 11   6  11  am  
 12   7  12  1   
 13   8  13  ar  
 14   8  14  1   
 15   9  13  ar  
 16   9  31  1   
 17  11  15  1   
 18  11  16  1   
 19  12  15  2   
 20  13  17  1   
 21  14  18  1   
 22  14  32  1   
 23  14  33  1   
 24  15  19  1   
 25  16  20  1   
 26  16  34  1   
 27  16  35  1   
 28  17  21  1   
 29  17  36  1   
 30  17  37  1   
 31  18  21  1   
 32  18  22  1   
 33  18  23  1   
 34  19  24  1   
 35  19  38  1   
 36  19  39  1   
 37  20  25  1   
 38  20  40  1   
 39  20  41  1   
 40  22  42  1   
 41  22  43  1   
 42  22  44  1   
 43  23  45  1   
 44  23  46  1   
 45  23  47  1   
 46  24  26  1   
 47  24  48  1   
 48  24  49  1   
 49  25  27  1   
 50  25  28  1   
 51  25  50  1   
 52  26  51  1   
 53  26  52  1   
 54  26  53  1   
 55  27  29  1   
 56  27  54  1   
 57  27  55  1   
 58  28  30  1   
 59  28  56  1   
 60  28  57  1   
 61  29  58  1   
 62  29  59  1   
 63  29  60  1   
 64  30  61  1   
 65  30  62  1   
 66  30  63  1   
@<TRIPOS>SUBSTRUCTURE
  1 ****   7 GROUP 4 **** **** 0

# MOE 2024.06 (io_trps.svl 2023.06)
