@<TRIPOS>MOLECULE
1-[2-Isopropyl-3-(toluene-4-sulfonyl)-imidazolidin-1-yl]-ethanone
43 44 1 0 0 
SMALL
USER_CHARGES


@<TRIPOS>ATOM
  1 S        0.3070     1.0190     0.6480 S.o2  1 <1>   1.4470 
  2 O       -0.2810     2.2640     0.2030 O.2   1 <1>  -0.6500 
  3 O        1.0330     1.0110     1.9000 O.2   1 <1>  -0.6500 
  4 N        1.3700     0.5550    -0.5800 N.am  1 <1>  -0.8490 
  5 C       -0.9560    -0.2840     0.6270 C.ar  1 <1>  -0.0090 
  6 C        1.9860    -0.7220    -0.2730 C.3   1 <1>   0.5760 
  7 C        2.4570     1.5100    -0.7690 C.3   1 <1>   0.1960 
  8 C       -0.9670    -1.2960     1.5810 C.ar  1 <1>  -0.1500 
  9 C       -1.9220    -0.3250    -0.3700 C.ar  1 <1>  -0.1500 
 10 N        3.2520    -0.3810     0.3880 N.am  1 <1>  -0.6600 
 11 C        2.2130    -1.5330    -1.5770 C.3   1 <1>  -0.0800 
 12 C        3.6000     1.0230     0.1080 C.3   1 <1>   0.1400 
 13 C       -1.9060    -2.3110     1.5400 C.ar  1 <1>  -0.1500 
 14 C       -2.8660    -1.3370    -0.4170 C.ar  1 <1>  -0.1500 
 15 C        3.6540    -1.0830     1.4830 C.2   1 <1>   0.5690 
 16 C        0.8830    -1.8350    -2.2940 C.3   1 <1>  -0.2400 
 17 C        2.9420    -2.8660    -1.3280 C.3   1 <1>  -0.2400 
 18 C       -2.8620    -2.3360     0.5400 C.ar  1 <1>  -0.1430 
 19 O        3.1240    -2.1170     1.8120 O.2   1 <1>  -0.5700 
 20 C        4.7990    -0.5750     2.3270 C.3   1 <1>  -0.1790 
 21 C       -3.8920    -3.4510     0.4930 C.3   1 <1>  -0.0970 
 22 H        1.3720    -1.3100     0.3880 H     1 <1>   0.0800 
 23 H        2.1650     2.5180    -0.5240 H     1 <1>   0.0800 
 24 H        2.7680     1.4880    -1.7990 H     1 <1>   0.0800 
 25 H       -0.2270    -1.2940     2.3660 H     1 <1>   0.1500 
 26 H       -1.9330     0.4470    -1.1220 H     1 <1>   0.1500 
 27 H        2.8230    -0.9440    -2.2390 H     1 <1>   0.0800 
 28 H        3.6290     1.5910     1.0220 H     1 <1>   0.0800 
 29 H        4.5440     1.0950    -0.4030 H     1 <1>   0.0800 
 30 H       -1.8870    -3.0820     2.2910 H     1 <1>   0.1500 
 31 H       -3.6010    -1.3420    -1.2030 H     1 <1>   0.1500 
 32 H        0.2290    -2.4030    -1.6550 H     1 <1>   0.0800 
 33 H        1.0590    -2.3980    -3.1930 H     1 <1>   0.0800 
 34 H        0.3840    -0.9220    -2.5680 H     1 <1>   0.0800 
 35 H        2.3900    -3.4740    -0.6320 H     1 <1>   0.0800 
 36 H        3.9220    -2.6920    -0.9200 H     1 <1>   0.0800 
 37 H        3.0580    -3.4120    -2.2470 H     1 <1>   0.0800 
 38 H        4.4680     0.2640     2.9100 H     1 <1>   0.0800 
 39 H        5.6200    -0.2850     1.7010 H     1 <1>   0.0800 
 40 H        5.1280    -1.3510     2.9920 H     1 <1>   0.0800 
 41 H       -3.4960    -4.2880    -0.0530 H     1 <1>   0.0800 
 42 H       -4.7910    -3.1140     0.0110 H     1 <1>   0.0800 
 43 H       -4.1420    -3.7720     1.4880 H     1 <1>   0.0800 
@<TRIPOS>BOND
  1   1   2  2   
  2   1   3  2   
  3   1   4  am  
  4   1   5  1   
  5   4   6  1   
  6   4   7  1   
  7   5   8  ar  
  8   5   9  ar  
  9   6  10  1   
 10   6  11  1   
 11   6  22  1   
 12   7  12  1   
 13   7  23  1   
 14   7  24  1   
 15   8  13  ar  
 16   8  25  1   
 17   9  14  ar  
 18   9  26  1   
 19  10  12  1   
 20  10  15  am  
 21  11  16  1   
 22  11  17  1   
 23  11  27  1   
 24  12  28  1   
 25  12  29  1   
 26  13  18  ar  
 27  13  30  1   
 28  14  18  ar  
 29  14  31  1   
 30  15  19  2   
 31  15  20  1   
 32  16  32  1   
 33  16  33  1   
 34  16  34  1   
 35  17  35  1   
 36  17  36  1   
 37  17  37  1   
 38  18  21  1   
 39  20  38  1   
 40  20  39  1   
 41  20  40  1   
 42  21  41  1   
 43  21  42  1   
 44  21  43  1   
@<TRIPOS>SUBSTRUCTURE
  1 ****   6 GROUP 4 **** **** 0

# MOE 2024.06 (io_trps.svl 2023.06)
