@<TRIPOS>MOLECULE
2-Methoxy-5,N-dimethyl-N-[2-(4-methyl-piperazin-1-yl)-2-oxo-ethyl]-benzenesulfon
50 51 1 0 0 
SMALL
USER_CHARGES


@<TRIPOS>ATOM
  1 S       -0.3250    -0.5420    -0.4270 S.o2  1 <1>   1.4470 
  2 O       -1.6990    -0.9190    -0.1750 O.2   1 <1>  -0.6500 
  3 O        0.3330    -1.0620    -1.6090 O.2   1 <1>  -0.6500 
  4 N        0.5580    -1.1250     0.8980 N.am  1 <1>  -0.8490 
  5 C       -0.1280     1.2540    -0.3150 C.ar  1 <1>  -0.0090 
  6 C        0.7270    -2.5990     0.8320 C.3   1 <1>   0.2570 
  7 C       -0.0010    -0.7380     2.2000 C.3   1 <1>   0.1160 
  8 C        1.0790     1.8780    -0.6210 C.ar  1 <1>   0.0830 
  9 C       -1.1820     2.0560     0.1110 C.ar  1 <1>  -0.1500 
 10 C        1.9850    -3.1030     1.5580 C.2   1 <1>   0.5690 
 11 O        2.1380     1.1600    -1.0550 O.3   1 <1>  -0.3630 
 12 C        1.2250     3.2510    -0.4880 C.ar  1 <1>  -0.1500 
 13 C       -1.0490     3.4290     0.2400 C.ar  1 <1>  -0.1440 
 14 O        1.8390    -3.9440     2.4130 O.2   1 <1>  -0.5700 
 15 N        3.2420    -2.6180     1.2540 N.am  1 <1>  -0.6600 
 16 C        2.4090     1.2600    -2.4380 C.3   1 <1>   0.0400 
 17 C        0.1630     4.0250    -0.0610 C.ar  1 <1>  -0.1500 
 18 C       -2.2220     4.2740     0.7040 C.3   1 <1>  -0.0970 
 19 C        4.4230    -2.9950     2.0920 C.3   1 <1>   0.1400 
 20 C        3.4950    -1.5620     0.2170 C.3   1 <1>   0.1400 
 21 C        5.6720    -3.2560     1.2320 C.3   1 <1>   0.3430 
 22 C        4.7830    -1.8280    -0.5830 C.3   1 <1>   0.3430 
 23 N        5.9660    -2.1080     0.3050 N.4   1 <1>  -0.9590 
 24 C        7.1980    -2.3660    -0.5010 C.3   1 <1>   0.2630 
 25 H        0.8150    -2.9250    -0.1880 H     1 <1>   0.0800 
 26 H       -0.1410    -3.0860     1.2420 H     1 <1>   0.0800 
 27 H       -0.0450     0.3350     2.2810 H     1 <1>   0.0800 
 28 H        0.6210    -1.1090     2.9970 H     1 <1>   0.0800 
 29 H       -0.9950    -1.1370     2.3200 H     1 <1>   0.0800 
 30 H       -2.1270     1.5940     0.3460 H     1 <1>   0.1500 
 31 H        2.1680     3.7140    -0.7170 H     1 <1>   0.1500 
 32 H        3.2340     0.6130    -2.6730 H     1 <1>   0.0800 
 33 H        2.6580     2.2790    -2.6780 H     1 <1>   0.0800 
 34 H        1.5360     0.9510    -2.9870 H     1 <1>   0.0800 
 35 H        0.2830     5.0910     0.0360 H     1 <1>   0.1500 
 36 H       -2.8750     3.7010     1.3380 H     1 <1>   0.0800 
 37 H       -2.7820     4.6180    -0.1480 H     1 <1>   0.0800 
 38 H       -1.8750     5.1280     1.2580 H     1 <1>   0.0800 
 39 H        4.2100    -3.8830     2.6630 H     1 <1>   0.0800 
 40 H        4.6230    -2.2030     2.7920 H     1 <1>   0.0800 
 41 H        3.5530    -0.6010     0.6980 H     1 <1>   0.0800 
 42 H        2.6840    -1.5190    -0.4870 H     1 <1>   0.0800 
 43 H        5.5070    -4.1540     0.6580 H     1 <1>   0.0800 
 44 H        6.5130    -3.4300     1.8820 H     1 <1>   0.0800 
 45 H        4.9850    -0.9730    -1.2080 H     1 <1>   0.0800 
 46 H        4.6090    -2.6730    -1.2290 H     1 <1>   0.0800 
 47 H        6.1160    -1.2710     0.8880 H     1 <1>   0.4500 
 48 H        7.0650    -3.2380    -1.1210 H     1 <1>   0.0800 
 49 H        8.0430    -2.5320     0.1490 H     1 <1>   0.0800 
 50 H        7.4150    -1.5220    -1.1350 H     1 <1>   0.0800 
@<TRIPOS>BOND
  1   1   2  2   
  2   1   3  2   
  3   1   4  am  
  4   1   5  1   
  5   4   6  1   
  6   4   7  1   
  7   5   8  ar  
  8   5   9  ar  
  9   6  10  1   
 10   6  25  1   
 11   6  26  1   
 12   7  27  1   
 13   7  28  1   
 14   7  29  1   
 15   8  11  1   
 16   8  12  ar  
 17   9  13  ar  
 18   9  30  1   
 19  10  14  2   
 20  10  15  am  
 21  11  16  1   
 22  12  17  ar  
 23  12  31  1   
 24  13  17  ar  
 25  13  18  1   
 26  15  19  1   
 27  15  20  1   
 28  16  32  1   
 29  16  33  1   
 30  16  34  1   
 31  17  35  1   
 32  18  36  1   
 33  18  37  1   
 34  18  38  1   
 35  19  21  1   
 36  19  39  1   
 37  19  40  1   
 38  20  22  1   
 39  20  41  1   
 40  20  42  1   
 41  21  23  1   
 42  21  43  1   
 43  21  44  1   
 44  22  23  1   
 45  22  45  1   
 46  22  46  1   
 47  23  24  1   
 48  23  47  1   
 49  24  48  1   
 50  24  49  1   
 51  24  50  1   
@<TRIPOS>SUBSTRUCTURE
  1 ****   4 GROUP 4 **** **** 0

# MOE 2024.06 (io_trps.svl 2023.06)
