@<TRIPOS>MOLECULE
2-(4-Isopropyl-benzylamino)-5-propyl-4H-[1,2,4]triazolo[1,5-a]pyrimidin-7-one
47 49 1 0 0 
SMALL
USER_CHARGES


@<TRIPOS>ATOM
  1 O       -0.0860    -0.5590    -1.2810 O.2   1 <1>  -0.5700 
  2 C       -0.4380    -1.6790    -0.9370 C.2   1 <1>   0.5650 
  3 N       -1.7610    -2.1470    -1.0990 N.pl3 1 <1>   0.5610 
  4 C        0.4950    -2.5800    -0.3390 C.2   1 <1>  -0.1360 
  5 N       -2.8850    -1.5840    -1.6100 N.2   1 <1>  -0.7070 
  6 C       -2.0980    -3.3920    -0.6810 C.2   1 <1>   0.2700 
  7 C        0.1410    -3.8300     0.0720 C.2   1 <1>  -0.0380 
  8 C       -3.7440    -2.5280    -1.4620 C.2   1 <1>   0.5990 
  9 N       -3.3330    -3.6610    -0.8870 N.2   1 <1>  -0.5650 
 10 N       -1.1640    -4.2340    -0.0990 N.pl3 1 <1>  -0.5840 
 11 C        1.0660    -4.8570     0.7180 C.3   1 <1>  -0.0220 
 12 N       -5.0450    -2.4360    -1.8580 N.pl3 1 <1>  -0.8520 
 13 C        2.5160    -4.3840     0.9000 C.3   1 <1>  -0.1600 
 14 C       -5.7180    -1.1540    -1.5870 C.3   1 <1>   0.3530 
 15 C        3.3790    -5.4690     1.5540 C.3   1 <1>  -0.2400 
 16 C       -7.0600    -1.4610    -0.9480 C.ar  1 <1>  -0.1430 
 17 C       -8.1640    -1.7400    -1.7360 C.ar  1 <1>  -0.1500 
 18 C       -7.1940    -1.4730     0.4310 C.ar  1 <1>  -0.1500 
 19 C       -9.3880    -2.0200    -1.1530 C.ar  1 <1>  -0.1500 
 20 C       -8.4180    -1.7530     1.0130 C.ar  1 <1>  -0.1500 
 21 C       -9.5280    -2.0290     0.2280 C.ar  1 <1>  -0.1430 
 22 C      -10.8710    -2.3350     0.8870 C.3   1 <1>   0.0630 
 23 C      -11.3450    -3.7480     0.5340 C.3   1 <1>  -0.2400 
 24 C      -11.9230    -1.2930     0.4940 C.3   1 <1>  -0.2400 
 25 H        1.4910    -2.1960    -0.2370 H     1 <1>   0.1500 
 26 H       -1.5000    -5.1640     0.1810 H     1 <1>   0.4000 
 27 H        1.0660    -5.7460     0.1110 H     1 <1>   0.0800 
 28 H        0.6640    -5.1190     1.6820 H     1 <1>   0.0800 
 29 H       -5.5680    -3.1870    -1.4050 H     1 <1>   0.4000 
 30 H        2.5350    -3.5040     1.5200 H     1 <1>   0.0800 
 31 H        2.9380    -4.1350    -0.0590 H     1 <1>   0.0800 
 32 H       -5.8560    -0.6240    -2.5140 H     1 <1>   0.0800 
 33 H       -5.1300    -0.5370    -0.9290 H     1 <1>   0.0800 
 34 H        2.9950    -5.7240     2.5260 H     1 <1>   0.0800 
 35 H        4.3880    -5.1140     1.6700 H     1 <1>   0.0800 
 36 H        3.3990    -6.3560     0.9440 H     1 <1>   0.0800 
 37 H       -8.0730    -1.7440    -2.8080 H     1 <1>   0.1500 
 38 H       -6.3450    -1.2660     1.0590 H     1 <1>   0.1500 
 39 H      -10.2320    -2.2330    -1.7830 H     1 <1>   0.1500 
 40 H       -8.5000    -1.7560     2.0850 H     1 <1>   0.1500 
 41 H      -10.7480    -2.2890     1.9560 H     1 <1>   0.0800 
 42 H      -11.5310    -3.8370    -0.5210 H     1 <1>   0.0800 
 43 H      -12.2510    -3.9810     1.0640 H     1 <1>   0.0800 
 44 H      -10.5920    -4.4640     0.8100 H     1 <1>   0.0800 
 45 H      -12.1230    -1.3290    -0.5620 H     1 <1>   0.0800 
 46 H      -11.5710    -0.3080     0.7420 H     1 <1>   0.0800 
 47 H      -12.8410    -1.4720     1.0240 H     1 <1>   0.0800 
@<TRIPOS>BOND
  1   1   2  2   
  2   2   3  1   
  3   2   4  1   
  4   3   5  1   
  5   3   6  1   
  6   4   7  2   
  7   4  25  1   
  8   5   8  2   
  9   6   9  2   
 10   6  10  1   
 11   7  10  1   
 12   7  11  1   
 13   8   9  1   
 14   8  12  1   
 15  10  26  1   
 16  11  13  1   
 17  11  27  1   
 18  11  28  1   
 19  12  14  1   
 20  12  29  1   
 21  13  15  1   
 22  13  30  1   
 23  13  31  1   
 24  14  16  1   
 25  14  32  1   
 26  14  33  1   
 27  15  34  1   
 28  15  35  1   
 29  15  36  1   
 30  16  17  ar  
 31  16  18  ar  
 32  17  19  ar  
 33  17  37  1   
 34  18  20  ar  
 35  18  38  1   
 36  19  21  ar  
 37  19  39  1   
 38  20  21  ar  
 39  20  40  1   
 40  21  22  1   
 41  22  23  1   
 42  22  24  1   
 43  22  41  1   
 44  23  42  1   
 45  23  43  1   
 46  23  44  1   
 47  24  45  1   
 48  24  46  1   
 49  24  47  1   
@<TRIPOS>SUBSTRUCTURE
  1 ****   8 GROUP 4 **** **** 0

# MOE 2024.06 (io_trps.svl 2023.06)
