@<TRIPOS>MOLECULE
N-Cyclopentyl-4-(3-p-tolyl-[1,2,4]oxadiazol-5-yl)-butyramide
46 48 1 0 0 
SMALL
USER_CHARGES


@<TRIPOS>ATOM
  1 O        0.0130    -1.8670     1.3470 O.2   1 <1>  -0.5700 
  2 C       -1.1500    -2.1730     1.2880 C.2   1 <1>   0.5690 
  3 N       -1.5040    -3.4200     0.8990 N.am  1 <1>  -0.7300 
  4 C       -2.2000    -1.1350     1.6430 C.3   1 <1>  -0.0990 
  5 C       -2.8470    -4.0090     0.7260 C.3   1 <1>   0.2200 
  6 C       -2.7930    -0.4720     0.3820 C.3   1 <1>  -0.1600 
  7 C       -2.8820    -5.3680     1.4110 C.3   1 <1>  -0.1600 
  8 C       -3.0550    -4.3510    -0.7430 C.3   1 <1>  -0.1600 
  9 C       -4.2010     0.1020     0.6050 C.3   1 <1>   0.0200 
 10 C       -2.2480    -6.3520     0.4220 C.3   1 <1>  -0.1600 
 11 C       -2.3570    -5.6970    -0.9610 C.3   1 <1>  -0.1600 
 12 C       -5.2010    -1.0100     0.8700 C.2   1 <1>   0.2980 
 13 O       -5.6270    -1.2030     2.0900 O.3   1 <1>  -0.0190 
 14 N       -5.6460    -1.8200     0.0020 N.2   1 <1>  -0.5650 
 15 N       -6.3950    -2.2410     1.9930 N.2   1 <1>  -0.4100 
 16 C       -6.4110    -2.6100     0.7610 C.2   1 <1>   0.4620 
 17 C       -7.1240    -3.7580     0.2250 C.ar  1 <1>   0.0540 
 18 C       -7.1360    -4.0430    -1.1420 C.ar  1 <1>  -0.1500 
 19 C       -7.8180    -4.6340     1.0610 C.ar  1 <1>  -0.1500 
 20 C       -7.8020    -5.1450    -1.6460 C.ar  1 <1>  -0.1500 
 21 C       -8.4850    -5.7370     0.5610 C.ar  1 <1>  -0.1500 
 22 C       -8.4820    -6.0010    -0.7970 C.ar  1 <1>  -0.1440 
 23 C       -9.2120    -7.2120    -1.3490 C.3   1 <1>  -0.0970 
 24 H       -0.7350    -4.0450     0.6560 H     1 <1>   0.3700 
 25 H       -1.7450    -0.3830     2.2610 H     1 <1>   0.0800 
 26 H       -2.9540    -1.6130     2.2370 H     1 <1>   0.0800 
 27 H       -3.6150    -3.3580     1.1000 H     1 <1>   0.0800 
 28 H       -2.8480    -1.1950    -0.4140 H     1 <1>   0.0800 
 29 H       -2.1280     0.3090     0.0550 H     1 <1>   0.0800 
 30 H       -3.9120    -5.6430     1.5630 H     1 <1>   0.0800 
 31 H       -2.3850    -5.3570     2.3660 H     1 <1>   0.0800 
 32 H       -2.6880    -3.5800    -1.3980 H     1 <1>   0.0800 
 33 H       -4.1100    -4.4730    -0.9150 H     1 <1>   0.0800 
 34 H       -4.5110     0.6290    -0.2800 H     1 <1>   0.0800 
 35 H       -4.1990     0.7980     1.4250 H     1 <1>   0.0800 
 36 H       -2.7550    -7.3010     0.4480 H     1 <1>   0.0800 
 37 H       -1.2120    -6.5050     0.6700 H     1 <1>   0.0800 
 38 H       -1.3710    -5.5360    -1.3640 H     1 <1>   0.0800 
 39 H       -2.9160    -6.3120    -1.6460 H     1 <1>   0.0800 
 40 H       -6.6170    -3.3920    -1.8220 H     1 <1>   0.1500 
 41 H       -7.8360    -4.4490     2.1210 H     1 <1>   0.1500 
 42 H       -7.7890    -5.3350    -2.7060 H     1 <1>   0.1500 
 43 H       -9.0090    -6.3920     1.2360 H     1 <1>   0.1500 
 44 H       -9.5730    -7.0140    -2.3420 H     1 <1>   0.0800 
 45 H      -10.0520    -7.4610    -0.7270 H     1 <1>   0.0800 
 46 H       -8.5440    -8.0540    -1.3840 H     1 <1>   0.0800 
@<TRIPOS>BOND
  1   1   2  2   
  2   2   3  am  
  3   2   4  1   
  4   3   5  1   
  5   3  24  1   
  6   4   6  1   
  7   4  25  1   
  8   4  26  1   
  9   5   7  1   
 10   5   8  1   
 11   5  27  1   
 12   6   9  1   
 13   6  28  1   
 14   6  29  1   
 15   7  10  1   
 16   7  30  1   
 17   7  31  1   
 18   8  11  1   
 19   8  32  1   
 20   8  33  1   
 21   9  12  1   
 22   9  34  1   
 23   9  35  1   
 24  10  11  1   
 25  10  36  1   
 26  10  37  1   
 27  11  38  1   
 28  11  39  1   
 29  12  13  1   
 30  12  14  2   
 31  13  15  1   
 32  14  16  1   
 33  15  16  2   
 34  16  17  1   
 35  17  18  ar  
 36  17  19  ar  
 37  18  20  ar  
 38  18  40  1   
 39  19  21  ar  
 40  19  41  1   
 41  20  22  ar  
 42  20  42  1   
 43  21  22  ar  
 44  21  43  1   
 45  22  23  1   
 46  23  44  1   
 47  23  45  1   
 48  23  46  1   
@<TRIPOS>SUBSTRUCTURE
  1 ****  16 GROUP 4 **** **** 0

# MOE 2024.06 (io_trps.svl 2023.06)
