@<TRIPOS>MOLECULE
1-Benzo[1,3]dioxol-5-ylmethyl-4-(3,4-dimethyl-benzenesulfonyl)-piperazine
52 55 1 0 0 
SMALL
USER_CHARGES


@<TRIPOS>ATOM
  1 S        0.2540    -0.8230     1.8780 S.o2  1 <1>   1.4470 
  2 O        1.1690    -1.9220     2.0810 O.2   1 <1>  -0.6500 
  3 O       -0.4620    -0.2640     3.0030 O.2   1 <1>  -0.6500 
  4 N       -0.9640    -1.4330     0.8610 N.am  1 <1>  -0.8490 
  5 C        1.0200     0.4740     0.8690 C.ar  1 <1>  -0.0090 
  6 C       -2.0370    -0.4480     0.6220 C.3   1 <1>   0.1960 
  7 C       -1.5060    -2.6900     1.4050 C.3   1 <1>   0.1960 
  8 C        0.8400     1.8190     1.1660 C.ar  1 <1>  -0.1500 
  9 C        1.7780     0.1530    -0.2480 C.ar  1 <1>  -0.1500 
 10 C       -3.1190    -1.0080    -0.3260 C.3   1 <1>   0.3430 
 11 C       -2.5820    -3.2970     0.4790 C.3   1 <1>   0.3430 
 12 C        1.3840     2.8200     0.3760 C.ar  1 <1>  -0.1440 
 13 C        2.3280     1.1400    -1.0440 C.ar  1 <1>  -0.1500 
 14 N       -3.6820    -2.3200     0.1610 N.4   1 <1>  -0.9590 
 15 C        2.1340     2.4780    -0.7420 C.ar  1 <1>  -0.1430 
 16 C        1.1500     4.2750     0.7600 C.3   1 <1>  -0.0970 
 17 C       -4.6620    -2.8900    -0.8040 C.3   1 <1>   0.4860 
 18 C        2.7550     3.5370    -1.6410 C.3   1 <1>  -0.0970 
 19 C       -5.8310    -1.9330    -0.9270 C.ar  1 <1>  -0.1430 
 20 C       -6.7610    -1.8380     0.1060 C.ar  1 <1>  -0.1500 
 21 C       -5.9760    -1.1460    -2.0720 C.ar  1 <1>  -0.1500 
 22 C       -7.8020    -0.9440    -0.0370 C.ar  1 <1>   0.0830 
 23 C       -7.0340    -0.2540    -2.1940 C.ar  1 <1>  -0.1500 
 24 O       -8.7930    -0.6890     0.8210 O.3   1 <1>  -0.3620 
 25 C       -7.9360    -0.1730    -1.1530 C.ar  1 <1>   0.0830 
 26 C       -9.6240     0.2970     0.2060 C.3   1 <1>   0.4000 
 27 O       -9.0180     0.6040    -1.0490 O.3   1 <1>  -0.3620 
 28 H       -1.6190     0.4390     0.1760 H     1 <1>   0.0800 
 29 H       -2.4970    -0.1600     1.5540 H     1 <1>   0.0800 
 30 H       -1.9210    -2.5200     2.3850 H     1 <1>   0.0800 
 31 H       -0.7100    -3.4090     1.5100 H     1 <1>   0.0800 
 32 H        0.2640     2.0860     2.0360 H     1 <1>   0.1500 
 33 H        1.9420    -0.8820    -0.4980 H     1 <1>   0.1500 
 34 H       -2.6760    -1.1420    -1.2990 H     1 <1>   0.0800 
 35 H       -3.9110    -0.2820    -0.4220 H     1 <1>   0.0800 
 36 H       -2.9930    -4.1760     0.9490 H     1 <1>   0.0800 
 37 H       -2.0980    -3.6060    -0.4330 H     1 <1>   0.0800 
 38 H        2.9140     0.8590    -1.9030 H     1 <1>   0.1500 
 39 H       -4.2030    -2.1190     1.0250 H     1 <1>   0.4500 
 40 H        0.5580     4.3520     1.6540 H     1 <1>   0.0800 
 41 H        0.6350     4.7890    -0.0320 H     1 <1>   0.0800 
 42 H        2.0910     4.7640     0.9390 H     1 <1>   0.0800 
 43 H       -5.0210    -3.8440    -0.4520 H     1 <1>   0.0800 
 44 H       -4.1990    -3.0330    -1.7670 H     1 <1>   0.0800 
 45 H        3.4470     4.1380    -1.0780 H     1 <1>   0.0800 
 46 H        1.9900     4.1720    -2.0480 H     1 <1>   0.0800 
 47 H        3.2890     3.0870    -2.4580 H     1 <1>   0.0800 
 48 H       -6.7070    -2.4320     1.0010 H     1 <1>   0.1500 
 49 H       -5.2730    -1.2190    -2.8850 H     1 <1>   0.1500 
 50 H       -7.1650     0.3600    -3.0680 H     1 <1>   0.1500 
 51 H       -9.6550     1.1800     0.8190 H     1 <1>   0.0800 
 52 H      -10.6070    -0.1090     0.0430 H     1 <1>   0.0800 
@<TRIPOS>BOND
  1   1   2  2   
  2   1   3  2   
  3   1   4  am  
  4   1   5  1   
  5   4   6  1   
  6   4   7  1   
  7   5   8  ar  
  8   5   9  ar  
  9   6  10  1   
 10   6  28  1   
 11   6  29  1   
 12   7  11  1   
 13   7  30  1   
 14   7  31  1   
 15   8  12  ar  
 16   8  32  1   
 17   9  13  ar  
 18   9  33  1   
 19  10  14  1   
 20  10  34  1   
 21  10  35  1   
 22  11  14  1   
 23  11  36  1   
 24  11  37  1   
 25  12  15  ar  
 26  12  16  1   
 27  13  15  ar  
 28  13  38  1   
 29  14  17  1   
 30  14  39  1   
 31  15  18  1   
 32  16  40  1   
 33  16  41  1   
 34  16  42  1   
 35  17  19  1   
 36  17  43  1   
 37  17  44  1   
 38  18  45  1   
 39  18  46  1   
 40  18  47  1   
 41  19  20  ar  
 42  19  21  ar  
 43  20  22  ar  
 44  20  48  1   
 45  21  23  ar  
 46  21  49  1   
 47  22  24  1   
 48  22  25  ar  
 49  23  25  ar  
 50  23  50  1   
 51  24  26  1   
 52  25  27  1   
 53  26  27  1   
 54  26  51  1   
 55  26  52  1   
@<TRIPOS>SUBSTRUCTURE
  1 ****   6 GROUP 4 **** **** 0

# MOE 2024.06 (io_trps.svl 2023.06)
