@<TRIPOS>MOLECULE
N-Cyclohexyl-2-[3-(3,4,5-trimethoxy-phenyl)-[1,2,4]oxadiazol-5-yl]-benzamide
59 62 1 0 0 
SMALL
USER_CHARGES


@<TRIPOS>ATOM
  1 O        2.7700     2.4510     1.5790 O.2   1 <1>  -0.5700 
  2 C        2.6240     1.6800     0.6510 C.2   1 <1>   0.5440 
  3 N        1.3640     1.4700     0.1750 N.am  1 <1>  -0.7300 
  4 C        3.7770     1.0200     0.0610 C.ar  1 <1>   0.0860 
  5 C        0.1100     1.9330     0.7860 C.3   1 <1>   0.2200 
  6 C        3.8060    -0.3490    -0.2770 C.ar  1 <1>   0.0530 
  7 C        4.9260     1.7770    -0.1720 C.ar  1 <1>  -0.1500 
  8 C       -0.3260     0.9120     1.8450 C.3   1 <1>  -0.1600 
  9 C       -0.9360     2.0650    -0.3280 C.3   1 <1>  -0.1600 
 10 C        2.6850    -1.2230    -0.0550 C.2   1 <1>   0.4250 
 11 C        4.9670    -0.8860    -0.8340 C.ar  1 <1>  -0.1500 
 12 C        6.0660     1.2290    -0.7250 C.ar  1 <1>  -0.1500 
 13 C       -1.7240     1.2220     2.3970 C.3   1 <1>  -0.1600 
 14 C       -2.3330     2.3700     0.2300 C.3   1 <1>  -0.1600 
 15 O        2.7070    -2.1160     0.8900 O.3   1 <1>  -0.0190 
 16 N        1.5650    -1.2560    -0.6810 N.2   1 <1>  -0.5650 
 17 C        6.0860    -0.1110    -1.0600 C.ar  1 <1>  -0.1500 
 18 C       -2.7540     1.3180     1.2640 C.3   1 <1>  -0.1600 
 19 N        1.5830    -2.7250     0.9500 N.2   1 <1>  -0.4100 
 20 C        0.8770    -2.1820     0.0170 C.2   1 <1>   0.4620 
 21 C       -0.5320    -2.4380    -0.2340 C.ar  1 <1>   0.0540 
 22 C       -1.2670    -3.2890     0.5900 C.ar  1 <1>  -0.1500 
 23 C       -1.2140    -1.8090    -1.2760 C.ar  1 <1>  -0.1500 
 24 C       -2.6220    -3.4940     0.4100 C.ar  1 <1>   0.0830 
 25 C       -2.5800    -1.9810    -1.4700 C.ar  1 <1>   0.0830 
 26 O       -3.2160    -4.3520     1.2810 O.3   1 <1>  -0.3630 
 27 C       -3.2950    -2.8170    -0.6120 C.ar  1 <1>   0.0830 
 28 O       -3.2620    -1.3480    -2.4690 O.3   1 <1>  -0.3630 
 29 C       -4.1040    -5.3290     0.7800 C.3   1 <1>   0.0400 
 30 O       -4.6380    -2.9540    -0.7710 O.3   1 <1>  -0.3630 
 31 C       -2.6050    -0.5710    -3.4460 C.3   1 <1>   0.0400 
 32 C       -5.4180    -1.9250    -0.2080 C.3   1 <1>   0.0400 
 33 H        1.2300     0.7170    -0.5060 H     1 <1>   0.3700 
 34 H        0.2660     2.8920     1.2540 H     1 <1>   0.0800 
 35 H        4.9190     2.8210     0.0940 H     1 <1>   0.1500 
 36 H        0.3850     0.9170     2.6530 H     1 <1>   0.0800 
 37 H       -0.3410    -0.0710     1.4140 H     1 <1>   0.0800 
 38 H       -0.9840     1.1440    -0.8810 H     1 <1>   0.0800 
 39 H       -0.6410     2.8520    -0.9990 H     1 <1>   0.0800 
 40 H        4.9910    -1.9310    -1.0940 H     1 <1>   0.1500 
 41 H        6.9360     1.8410    -0.8930 H     1 <1>   0.1500 
 42 H       -1.6960     2.1540     2.9370 H     1 <1>   0.0800 
 43 H       -2.0170     0.4490     3.0870 H     1 <1>   0.0800 
 44 H       -3.0470     2.3890    -0.5750 H     1 <1>   0.0800 
 45 H       -2.3280     3.3430     0.6920 H     1 <1>   0.0800 
 46 H        6.9720    -0.5460    -1.4920 H     1 <1>   0.1500 
 47 H       -3.7160     1.5790     1.6730 H     1 <1>   0.0800 
 48 H       -2.8490     0.3590     0.7840 H     1 <1>   0.0800 
 49 H       -0.7790    -3.8030     1.3990 H     1 <1>   0.1500 
 50 H       -0.6550    -1.1680    -1.9290 H     1 <1>   0.1500 
 51 H       -4.1360    -6.1430     1.4800 H     1 <1>   0.0800 
 52 H       -3.7480    -5.6750    -0.1740 H     1 <1>   0.0800 
 53 H       -5.0830    -4.8950     0.6840 H     1 <1>   0.0800 
 54 H       -1.8790    -1.1830    -3.9500 H     1 <1>   0.0800 
 55 H       -2.1380     0.2720    -2.9680 H     1 <1>   0.0800 
 56 H       -3.3430    -0.2280    -4.1490 H     1 <1>   0.0800 
 57 H       -5.1650    -0.9930    -0.6820 H     1 <1>   0.0800 
 58 H       -5.2190    -1.8780     0.8480 H     1 <1>   0.0800 
 59 H       -6.4530    -2.1560    -0.3800 H     1 <1>   0.0800 
@<TRIPOS>BOND
  1   1   2  2   
  2   2   3  am  
  3   2   4  1   
  4   3   5  1   
  5   3  33  1   
  6   4   6  ar  
  7   4   7  ar  
  8   5   8  1   
  9   5   9  1   
 10   5  34  1   
 11   6  10  1   
 12   6  11  ar  
 13   7  12  ar  
 14   7  35  1   
 15   8  13  1   
 16   8  36  1   
 17   8  37  1   
 18   9  14  1   
 19   9  38  1   
 20   9  39  1   
 21  10  15  1   
 22  10  16  2   
 23  11  17  ar  
 24  11  40  1   
 25  12  17  ar  
 26  12  41  1   
 27  13  18  1   
 28  13  42  1   
 29  13  43  1   
 30  14  18  1   
 31  14  44  1   
 32  14  45  1   
 33  15  19  1   
 34  16  20  1   
 35  17  46  1   
 36  18  47  1   
 37  18  48  1   
 38  19  20  2   
 39  20  21  1   
 40  21  22  ar  
 41  21  23  ar  
 42  22  24  ar  
 43  22  49  1   
 44  23  25  ar  
 45  23  50  1   
 46  24  26  1   
 47  24  27  ar  
 48  25  27  ar  
 49  25  28  1   
 50  26  29  1   
 51  27  30  1   
 52  28  31  1   
 53  29  51  1   
 54  29  52  1   
 55  29  53  1   
 56  30  32  1   
 57  31  54  1   
 58  31  55  1   
 59  31  56  1   
 60  32  57  1   
 61  32  58  1   
 62  32  59  1   
@<TRIPOS>SUBSTRUCTURE
  1 ****  20 GROUP 4 **** **** 0

# MOE 2024.06 (io_trps.svl 2023.06)
