@<TRIPOS>MOLECULE
1-Cyclopropyl-4-hydroxy-2-oxo-1,2,5,6,7,8-hexahydro-quinoline-3-carboxylic acid
42 45 1 0 0 
SMALL
USER_CHARGES


@<TRIPOS>ATOM
  1 O       -0.3650     0.4120    -0.9920 O.3   1 <1>  -0.8500 
  2 C       -1.3450     0.9800    -0.5010 C.2   1 <1>  -0.0500 
  3 N       -2.5110     0.2340    -0.3130 N.pl3 1 <1>  -0.3690 
  4 C       -1.3090     2.3600    -0.1580 C.2   1 <1>   0.0290 
  5 C       -3.7270     0.8900    -0.1230 C.2   1 <1>  -0.0380 
  6 C       -2.4230    -1.2530    -0.4210 C.3   1 <1>   0.0690 
  7 C       -2.5090     2.9470     0.2940 C.2   1 <1>   0.5410 
  8 C       -0.1130     3.1210    -0.2620 C.2   1 <1>   0.6160 
  9 C       -3.7380     2.2190     0.1600 C.2   1 <1>  -0.1240 
 10 C       -5.0240     0.0900    -0.2930 C.3   1 <1>  -0.0220 
 11 C       -2.8150    -2.1130     0.7480 C.3   1 <1>  -0.2000 
 12 C       -1.3800    -1.9900     0.3700 C.3   1 <1>  -0.2000 
 13 O       -2.5640     4.0650     0.8360 O.2   1 <1>  -0.5700 
 14 O       -0.0980     4.3460    -0.3970 O.2   1 <1>  -0.5700 
 15 N        1.1060     2.4820    -0.2470 N.am  1 <1>  -0.5470 
 16 C       -5.0360     3.0090     0.3390 C.3   1 <1>  -0.0220 
 17 C       -6.2760     0.8370     0.1840 C.3   1 <1>  -0.1600 
 18 C        2.4110     2.9150    -0.1620 C.ar  1 <1>   0.4270 
 19 C       -6.2470     2.2960    -0.2690 C.3   1 <1>  -0.1600 
 20 N        3.3220     2.0430    -0.5800 N.ar  1 <1>  -0.6200 
 21 C        2.7540     4.1670     0.3510 C.ar  1 <1>  -0.1500 
 22 C        4.5830     2.4260    -0.5050 C.ar  1 <1>   0.1600 
 23 C        4.0720     4.5550     0.4260 C.ar  1 <1>  -0.1500 
 24 C        5.0110     3.6490    -0.0210 C.ar  1 <1>  -0.1500 
 25 H       -2.5720    -1.5850    -1.4320 H     1 <1>   0.1000 
 26 H       -4.9820    -0.8310     0.2520 H     1 <1>   0.0800 
 27 H       -5.1240    -0.1490    -1.3360 H     1 <1>   0.0800 
 28 H       -3.3110    -3.0470     0.5620 H     1 <1>   0.1000 
 29 H       -3.1350    -1.6330     1.6550 H     1 <1>   0.1000 
 30 H       -0.7070    -1.3800     0.9460 H     1 <1>   0.1000 
 31 H       -0.8780    -2.8010    -0.1230 H     1 <1>   0.1000 
 32 H        0.9610     1.4890    -0.5170 H     1 <1>   0.3700 
 33 H       -4.9390     3.9740    -0.1280 H     1 <1>   0.0800 
 34 H       -5.1940     3.1680     1.3910 H     1 <1>   0.0800 
 35 H       -6.3170     0.8030     1.2590 H     1 <1>   0.0800 
 36 H       -7.1540     0.3480    -0.1990 H     1 <1>   0.0800 
 37 H       -6.1810     2.3360    -1.3430 H     1 <1>   0.0800 
 38 H       -7.1500     2.7970     0.0320 H     1 <1>   0.0800 
 39 H        1.9820     4.8290     0.6930 H     1 <1>   0.1500 
 40 H        5.3190     1.7210    -0.8510 H     1 <1>   0.1500 
 41 H        4.3530     5.5180     0.8150 H     1 <1>   0.1500 
 42 H        6.0580     3.8870     0.0060 H     1 <1>   0.1500 
@<TRIPOS>BOND
  1   1   2  1   
  2   2   3  1   
  3   2   4  2   
  4   3   5  1   
  5   3   6  1   
  6   4   7  1   
  7   4   8  1   
  8   5   9  2   
  9   5  10  1   
 10   6  11  1   
 11   6  12  1   
 12   6  25  1   
 13   7   9  1   
 14   7  13  2   
 15   8  14  2   
 16   8  15  am  
 17   9  16  1   
 18  10  17  1   
 19  10  26  1   
 20  10  27  1   
 21  11  12  1   
 22  11  28  1   
 23  11  29  1   
 24  12  30  1   
 25  12  31  1   
 26  15  18  1   
 27  15  32  1   
 28  16  19  1   
 29  16  33  1   
 30  16  34  1   
 31  17  19  1   
 32  17  35  1   
 33  17  36  1   
 34  18  20  ar  
 35  18  21  ar  
 36  19  37  1   
 37  19  38  1   
 38  20  22  ar  
 39  21  23  ar  
 40  21  39  1   
 41  22  24  ar  
 42  22  40  1   
 43  23  24  ar  
 44  23  41  1   
 45  24  42  1   
@<TRIPOS>SUBSTRUCTURE
  1 ****   4 GROUP 4 **** **** 0

# MOE 2024.06 (io_trps.svl 2023.06)
