@<TRIPOS>MOLECULE
1-Methanesulfonyl-piperidine-3-carboxylic acid 4-chloro-benzylamide
40 41 1 0 0 
SMALL
USER_CHARGES


@<TRIPOS>ATOM
  1 CL      -0.5920    -0.0040    -1.2260 Cl    1 <1>  -0.1770 
  2 C       -1.9670     0.9440    -0.7230 C.ar  1 <1>   0.1770 
  3 C       -2.6760     0.5670     0.4020 C.ar  1 <1>  -0.1500 
  4 C       -2.3280     2.0580    -1.4570 C.ar  1 <1>  -0.1500 
  5 C       -3.7680     1.3210     0.7980 C.ar  1 <1>  -0.1500 
  6 C       -3.4210     2.8090    -1.0570 C.ar  1 <1>  -0.1500 
  7 C       -4.1440     2.4450     0.0720 C.ar  1 <1>  -0.1430 
  8 C       -5.3430     3.2660     0.5130 C.3   1 <1>   0.2840 
  9 N       -6.5560     2.6330    -0.0280 N.am  1 <1>  -0.7300 
 10 C       -7.7900     2.7640     0.5140 C.2   1 <1>   0.5690 
 11 O       -7.9820     3.4520     1.4870 O.2   1 <1>  -0.5700 
 12 C       -8.9550     2.0170    -0.1160 C.3   1 <1>  -0.0190 
 13 C      -10.1780     2.9390    -0.2060 C.3   1 <1>   0.1960 
 14 C       -9.2900     0.7370     0.6730 C.3   1 <1>  -0.1600 
 15 N      -11.3260     2.2240    -0.7790 N.am  1 <1>  -0.8490 
 16 C      -10.5370     0.0630     0.0820 C.3   1 <1>  -0.1600 
 17 S      -12.6140     3.2250    -1.2370 S.o2  1 <1>   1.3330 
 18 C      -11.7160     1.0370    -0.0160 C.3   1 <1>   0.1960 
 19 O      -12.0740     4.3060    -2.0280 O.2   1 <1>  -0.6500 
 20 O      -13.6670     2.3850    -1.7590 O.2   1 <1>  -0.6500 
 21 C      -13.1980     3.9220     0.2970 C.3   1 <1>  -0.1350 
 22 H       -2.3750    -0.3040     0.9560 H     1 <1>   0.1500 
 23 H       -1.7590     2.3290    -2.3280 H     1 <1>   0.1500 
 24 H       -4.3260     1.0320     1.6730 H     1 <1>   0.1500 
 25 H       -3.7050     3.6770    -1.6280 H     1 <1>   0.1500 
 26 H       -5.2680     4.2730     0.1410 H     1 <1>   0.0800 
 27 H       -5.3970     3.3040     1.5890 H     1 <1>   0.0800 
 28 H       -6.3920     2.0240    -0.8310 H     1 <1>   0.3700 
 29 H       -8.6810     1.7470    -1.1200 H     1 <1>   0.0800 
 30 H       -9.9270     3.7830    -0.8280 H     1 <1>   0.0800 
 31 H      -10.4290     3.3060     0.7750 H     1 <1>   0.0800 
 32 H       -9.4750     0.9920     1.7030 H     1 <1>   0.0800 
 33 H       -8.4560     0.0580     0.6410 H     1 <1>   0.0800 
 34 H      -10.8180    -0.7760     0.6930 H     1 <1>   0.0800 
 35 H      -10.3170    -0.3090    -0.9040 H     1 <1>   0.0800 
 36 H      -12.5350     0.5380    -0.5110 H     1 <1>   0.0800 
 37 H      -12.0370     1.3220     0.9720 H     1 <1>   0.0800 
 38 H      -12.4250     4.4940     0.7690 H     1 <1>   0.0800 
 39 H      -13.5220     3.1480     0.9630 H     1 <1>   0.0800 
 40 H      -14.0280     4.5720     0.1030 H     1 <1>   0.0800 
@<TRIPOS>BOND
  1   1   2  1   
  2   2   3  ar  
  3   2   4  ar  
  4   3   5  ar  
  5   3  22  1   
  6   4   6  ar  
  7   4  23  1   
  8   5   7  ar  
  9   5  24  1   
 10   6   7  ar  
 11   6  25  1   
 12   7   8  1   
 13   8   9  1   
 14   8  26  1   
 15   8  27  1   
 16   9  10  am  
 17   9  28  1   
 18  10  11  2   
 19  10  12  1   
 20  12  13  1   
 21  12  14  1   
 22  12  29  1   
 23  13  15  1   
 24  13  30  1   
 25  13  31  1   
 26  14  16  1   
 27  14  32  1   
 28  14  33  1   
 29  15  17  am  
 30  15  18  1   
 31  16  18  1   
 32  16  34  1   
 33  16  35  1   
 34  17  19  2   
 35  17  20  2   
 36  17  21  1   
 37  18  36  1   
 38  18  37  1   
 39  21  38  1   
 40  21  39  1   
 41  21  40  1   
@<TRIPOS>SUBSTRUCTURE
  1 ****  10 GROUP 4 **** **** 0

# MOE 2024.06 (io_trps.svl 2023.06)
