@<TRIPOS>MOLECULE
(E)-3-(3,4-Dimethoxy-phenyl)-N,N-diethyl-2-(2-oxo-2H-pyridin-1-yl)-acrylamide
50 51 1 0 0 
SMALL
USER_CHARGES


@<TRIPOS>ATOM
  1 O       -1.8600     1.1410    -2.1350 O.2   1 <1>  -0.5700 
  2 C       -2.2330     0.6230    -1.0890 C.2   1 <1>   0.6160 
  3 N       -2.1470     1.3090     0.1220 N.am  1 <1>  -0.2780 
  4 C       -2.7770    -0.6920    -1.0920 C.2   1 <1>  -0.1360 
  5 C       -1.6270     2.6250     0.2010 C.2   1 <1>   0.1230 
  6 C       -2.6080     0.6890     1.2780 C.2   1 <1>  -0.0410 
  7 C       -3.2190    -1.2830     0.0480 C.2   1 <1>  -0.1500 
  8 C       -2.5400     3.6290     0.7170 C.2   1 <1>   0.6160 
  9 C       -0.3320     2.8530    -0.1550 C.2   1 <1>  -0.1780 
 10 C       -3.1310    -0.5650     1.2650 C.2   1 <1>  -0.1500 
 11 O       -2.4760     3.9280     1.8970 O.2   1 <1>  -0.5700 
 12 N       -3.4860     4.2500    -0.0810 N.am  1 <1>  -0.6600 
 13 C        0.4490     4.0610    -0.1600 C.ar  1 <1>   0.0280 
 14 C       -3.6220     3.9770    -1.5370 C.3   1 <1>   0.1400 
 15 C       -4.4080     5.2760     0.4770 C.3   1 <1>   0.1400 
 16 C        1.8310     3.9770     0.0080 C.ar  1 <1>  -0.1500 
 17 C       -0.0950     5.3320    -0.3410 C.ar  1 <1>  -0.1500 
 18 C       -4.7940     3.0280    -1.7780 C.3   1 <1>  -0.2400 
 19 C       -3.7790     6.6600     0.3370 C.3   1 <1>  -0.2400 
 20 C        2.6430     5.1050     0.0120 C.ar  1 <1>   0.0830 
 21 C        0.6940     6.4660    -0.3370 C.ar  1 <1>  -0.1500 
 22 O        3.9960     5.0350     0.1800 O.3   1 <1>  -0.3630 
 23 C        2.0700     6.3680    -0.1590 C.ar  1 <1>   0.0830 
 24 C        4.6540     3.8120     0.4210 C.3   1 <1>   0.0400 
 25 O        2.8880     7.4570    -0.1460 O.3   1 <1>  -0.3630 
 26 C        2.3840     8.7690    -0.2500 C.3   1 <1>   0.0400 
 27 H       -2.8190    -1.1850    -2.0450 H     1 <1>   0.1500 
 28 H       -2.5320     1.2540     2.1950 H     1 <1>   0.1500 
 29 H       -3.6340    -2.2770     0.0590 H     1 <1>   0.1500 
 30 H        0.2310     1.9990    -0.4850 H     1 <1>   0.1500 
 31 H       -3.4850    -1.0350     2.1660 H     1 <1>   0.1500 
 32 H       -3.7860     4.9010    -2.0640 H     1 <1>   0.0800 
 33 H       -2.7170     3.5430    -1.9240 H     1 <1>   0.0800 
 34 H       -5.3500     5.2450    -0.0420 H     1 <1>   0.0800 
 35 H       -4.5990     5.0690     1.5170 H     1 <1>   0.0800 
 36 H        2.2540     3.0020     0.1400 H     1 <1>   0.1500 
 37 H       -1.1490     5.4480    -0.4960 H     1 <1>   0.1500 
 38 H       -5.7250     3.4950    -1.5120 H     1 <1>   0.0800 
 39 H       -4.6740     2.1280    -1.2030 H     1 <1>   0.0800 
 40 H       -4.8320     2.7630    -2.8190 H     1 <1>   0.0800 
 41 H       -3.5860     6.8890    -0.6950 H     1 <1>   0.0800 
 42 H       -2.8600     6.7020     0.8950 H     1 <1>   0.0800 
 43 H       -4.4480     7.4010     0.7340 H     1 <1>   0.0800 
 44 H        0.2180     7.4170    -0.4770 H     1 <1>   0.1500 
 45 H        5.7020     4.0170     0.5430 H     1 <1>   0.0800 
 46 H        4.5040     3.1630    -0.4230 H     1 <1>   0.0800 
 47 H        4.2590     3.3760     1.3220 H     1 <1>   0.0800 
 48 H        3.2130     9.4490    -0.1870 H     1 <1>   0.0800 
 49 H        1.7030     8.9460     0.5640 H     1 <1>   0.0800 
 50 H        1.8910     8.8790    -1.1990 H     1 <1>   0.0800 
@<TRIPOS>BOND
  1   1   2  2   
  2   2   3  am  
  3   2   4  1   
  4   3   5  1   
  5   3   6  1   
  6   4   7  2   
  7   4  27  1   
  8   5   8  1   
  9   5   9  2   
 10   6  10  2   
 11   6  28  1   
 12   7  10  1   
 13   7  29  1   
 14   8  11  2   
 15   8  12  am  
 16   9  13  1   
 17   9  30  1   
 18  10  31  1   
 19  12  14  1   
 20  12  15  1   
 21  13  16  ar  
 22  13  17  ar  
 23  14  18  1   
 24  14  32  1   
 25  14  33  1   
 26  15  19  1   
 27  15  34  1   
 28  15  35  1   
 29  16  20  ar  
 30  16  36  1   
 31  17  21  ar  
 32  17  37  1   
 33  18  38  1   
 34  18  39  1   
 35  18  40  1   
 36  19  41  1   
 37  19  42  1   
 38  19  43  1   
 39  20  22  1   
 40  20  23  ar  
 41  21  23  ar  
 42  21  44  1   
 43  22  24  1   
 44  23  25  1   
 45  24  45  1   
 46  24  46  1   
 47  24  47  1   
 48  25  26  1   
 49  26  48  1   
 50  26  49  1   
 51  26  50  1   
@<TRIPOS>SUBSTRUCTURE
  1 ****   9 GROUP 4 **** **** 0

# MOE 2024.06 (io_trps.svl 2023.06)
