@<TRIPOS>MOLECULE
8-Dimethylamino-7-(2-hydroxy-3-m-tolyloxy-propyl)-1,3-dimethyl-3,7-dihydro-purin
54 56 1 0 0 
SMALL
USER_CHARGES


@<TRIPOS>ATOM
  1 O        0.4860     0.0760     0.4110 O.2   1 <1>  -0.5740 
  2 C        1.4850     0.7670     0.4340 C.2   1 <1>   0.6870 
  3 N        1.4630     2.0010     1.0750 N.am  1 <1>  -0.4250 
  4 N        2.6470     0.3210    -0.1810 N.am  1 <1>  -0.4410 
  5 C        2.5980     2.7990     1.1340 C.2   1 <1>   0.7000 
  6 C        0.1970     2.4500     1.7350 C.3   1 <1>   0.0530 
  7 C        3.7550     1.1460    -0.1470 C.2   1 <1>   0.4210 
  8 C        2.6870    -0.9980    -0.8790 C.3   1 <1>   0.0530 
  9 O        2.5830     3.8600     1.7370 O.2   1 <1>  -0.5740 
 10 C        3.7840     2.3410     0.4720 C.2   1 <1>   0.2710 
 11 N        4.9700     0.9270    -0.7120 N.pl3 1 <1>  -0.7030 
 12 N        5.0770     2.8650     0.2760 N.pl3 1 <1>  -0.7670 
 13 C        5.7590     1.9770    -0.4710 C.cat 1 <1>   1.0690 
 14 C        5.4220     4.2500     0.7290 C.3   1 <1>   0.3490 
 15 N        7.0380     2.0230    -0.9390 N.pl3 1 <1>  -0.5960 
 16 C        4.8150     5.3290    -0.1970 C.3   1 <1>   0.1940 
 17 C        7.8870     3.2480    -1.0230 C.3   1 <1>   0.0800 
 18 C        7.7420     0.8270    -1.4970 C.3   1 <1>   0.0800 
 19 O        5.0130     4.9870    -1.5340 O.3   1 <1>  -0.6830 
 20 C        5.4140     6.7200     0.0550 C.3   1 <1>   0.1130 
 21 O        5.0070     7.5890    -0.9820 O.3   1 <1>  -0.3680 
 22 C        5.4540     8.8690    -1.0400 C.ar  1 <1>   0.0750 
 23 C        6.2570     9.4560    -0.0640 C.ar  1 <1>  -0.1570 
 24 C        5.0760     9.6110    -2.1480 C.ar  1 <1>  -0.1570 
 25 C        6.6770    10.7700    -0.2010 C.ar  1 <1>  -0.1500 
 26 C        5.4960    10.9220    -2.2880 C.ar  1 <1>  -0.1570 
 27 C        6.2960    11.4980    -1.3160 C.ar  1 <1>  -0.1570 
 28 C        7.5530    11.4150     0.8570 C.3   1 <1>  -0.1040 
 29 H        0.1080     1.9830     2.7000 H     1 <1>   0.0730 
 30 H       -0.6530     2.1710     1.1350 H     1 <1>   0.0730 
 31 H        0.1820     3.5190     1.8590 H     1 <1>   0.0730 
 32 H        1.9030    -1.6430    -0.5180 H     1 <1>   0.0730 
 33 H        3.6270    -1.4890    -0.7010 H     1 <1>   0.0730 
 34 H        2.5500    -0.8530    -1.9370 H     1 <1>   0.0730 
 35 H        5.2350     0.1400    -1.2920 H     1 <1>   0.4450 
 36 H        6.4870     4.3730     0.7830 H     1 <1>   0.0730 
 37 H        5.0520     4.4020     1.7290 H     1 <1>   0.0730 
 38 H        3.7530     5.3840    -0.0340 H     1 <1>   0.0730 
 39 H        7.2960     4.1090    -1.2720 H     1 <1>   0.0730 
 40 H        8.6280     3.1370    -1.7960 H     1 <1>   0.0730 
 41 H        8.3920     3.4110    -0.0860 H     1 <1>   0.0730 
 42 H        7.2810    -0.0910    -1.1770 H     1 <1>   0.0730 
 43 H        8.7650     0.8140    -1.1570 H     1 <1>   0.0730 
 44 H        7.7380     0.8700    -2.5730 H     1 <1>   0.0730 
 45 H        4.8300     5.7900    -2.0770 H     1 <1>   0.3950 
 46 H        6.4890     6.6770     0.0540 H     1 <1>   0.0730 
 47 H        5.0630     7.1190     0.9910 H     1 <1>   0.0730 
 48 H        6.5620     8.9100     0.8060 H     1 <1>   0.1430 
 49 H        4.4540     9.1600    -2.8990 H     1 <1>   0.1430 
 50 H        5.2010    11.4930    -3.1500 H     1 <1>   0.1430 
 51 H        6.6190    12.5170    -1.4320 H     1 <1>   0.1430 
 52 H        7.4620    10.8970     1.7950 H     1 <1>   0.0730 
 53 H        7.2620    12.4390     1.0070 H     1 <1>   0.0730 
 54 H        8.5810    11.3890     0.5440 H     1 <1>   0.0730 
@<TRIPOS>BOND
  1   1   2  2   
  2   2   3  am  
  3   2   4  am  
  4   3   5  am  
  5   3   6  1   
  6   4   7  1   
  7   4   8  1   
  8   5   9  2   
  9   5  10  1   
 10   6  29  1   
 11   6  30  1   
 12   6  31  1   
 13   7  10  2   
 14   7  11  1   
 15   8  32  1   
 16   8  33  1   
 17   8  34  1   
 18  10  12  1   
 19  11  13  ar  
 20  11  35  1   
 21  12  13  ar  
 22  12  14  1   
 23  13  15  ar  
 24  14  16  1   
 25  14  36  1   
 26  14  37  1   
 27  15  17  1   
 28  15  18  1   
 29  16  19  1   
 30  16  20  1   
 31  16  38  1   
 32  17  39  1   
 33  17  40  1   
 34  17  41  1   
 35  18  42  1   
 36  18  43  1   
 37  18  44  1   
 38  19  45  1   
 39  20  21  1   
 40  20  46  1   
 41  20  47  1   
 42  21  22  1   
 43  22  23  ar  
 44  22  24  ar  
 45  23  25  ar  
 46  23  48  1   
 47  24  26  ar  
 48  24  49  1   
 49  25  27  ar  
 50  25  28  1   
 51  26  27  ar  
 52  26  50  1   
 53  27  51  1   
 54  28  52  1   
 55  28  53  1   
 56  28  54  1   
@<TRIPOS>SUBSTRUCTURE
  1 ****  16 GROUP 4 **** **** 0

# MOE 2024.06 (io_trps.svl 2023.06)
