@<TRIPOS>MOLECULE
4-(2,4-Dimethyl-phenyl)-6-(4-methyl-piperazin-1-ylmethyl)-2-oxo-1,2,3,4-tetrahyd
56 58 1 0 0 
SMALL
USER_CHARGES


@<TRIPOS>ATOM
  1 O       -0.1090     1.3070    -2.4730 O.2   1 <1>  -0.5700 
  2 C       -0.0270     2.1380    -1.5990 C.2   1 <1>   0.6900 
  3 N       -1.0220     3.0360    -1.4190 N.am  1 <1>  -0.5390 
  4 N        1.0370     2.1900    -0.7820 N.am  1 <1>  -0.7300 
  5 C       -1.0540     3.9900    -0.4200 C.2   1 <1>  -0.0290 
  6 C        1.2650     3.2710     0.2000 C.3   1 <1>   0.5020 
  7 C        0.0250     4.1510     0.3970 C.2   1 <1>  -0.1240 
  8 C       -2.3690     4.7730    -0.3380 C.3   1 <1>   0.2480 
  9 C        2.4580     4.0950    -0.2940 C.ar  1 <1>  -0.1430 
 10 C        0.1890     5.0780     1.4700 C.2   1 <1>   0.7060 
 11 N       -3.5390     3.8830    -0.5480 N.3   1 <1>  -0.8100 
 12 C        3.6750     4.1410     0.3850 C.ar  1 <1>  -0.1440 
 13 C        2.3180     4.8230    -1.4700 C.ar  1 <1>  -0.1500 
 14 O        0.8770     4.8470     2.4450 O.2   1 <1>  -0.5700 
 15 O       -0.4530     6.2500     1.4040 O.3   1 <1>  -0.4300 
 16 C       -3.6800     2.8890     0.5500 C.3   1 <1>   0.1100 
 17 C       -4.7910     4.6630    -0.6960 C.3   1 <1>   0.1100 
 18 C        4.7110     4.9150    -0.1180 C.ar  1 <1>  -0.1500 
 19 C        3.9220     3.3670     1.6750 C.3   1 <1>  -0.0970 
 20 C        3.3570     5.5900    -1.9620 C.ar  1 <1>  -0.1500 
 21 C       -0.2760     7.2460     2.3940 C.3   1 <1>   0.0400 
 22 C       -4.8900     1.9440     0.3450 C.3   1 <1>   0.3430 
 23 C       -6.0410     3.7610    -0.8720 C.3   1 <1>   0.3430 
 24 C        4.5610     5.6420    -1.2850 C.ar  1 <1>  -0.1430 
 25 N       -5.6700     2.3060    -0.8860 N.4   1 <1>  -0.9590 
 26 C        5.7090     6.4810    -1.8160 C.3   1 <1>  -0.0970 
 27 C       -6.8290     1.4010    -1.1370 C.3   1 <1>   0.2630 
 28 H       -1.8290     2.9160    -2.0300 H     1 <1>   0.3700 
 29 H        1.8670     1.6820    -1.0800 H     1 <1>   0.3700 
 30 H        1.4920     2.8010     1.1390 H     1 <1>   0.0800 
 31 H       -2.3550     5.5250    -1.1090 H     1 <1>   0.0800 
 32 H       -2.4700     5.2700     0.6090 H     1 <1>   0.0800 
 33 H        1.3920     4.7940    -2.0180 H     1 <1>   0.1500 
 34 H       -3.7880     3.3990     1.4930 H     1 <1>   0.0800 
 35 H       -2.7890     2.2870     0.6140 H     1 <1>   0.0800 
 36 H       -4.7080     5.3080    -1.5550 H     1 <1>   0.0800 
 37 H       -4.9360     5.2930     0.1660 H     1 <1>   0.0800 
 38 H        5.6500     4.9560     0.4030 H     1 <1>   0.1500 
 39 H        3.2800     3.7330     2.4560 H     1 <1>   0.0800 
 40 H        4.9390     3.4800     2.0040 H     1 <1>   0.0800 
 41 H        3.7370     2.3190     1.5230 H     1 <1>   0.0800 
 42 H        3.2230     6.1420    -2.8750 H     1 <1>   0.1500 
 43 H       -0.8710     8.1010     2.1300 H     1 <1>   0.0800 
 44 H        0.7660     7.5180     2.4310 H     1 <1>   0.0800 
 45 H       -0.5890     6.8540     3.3470 H     1 <1>   0.0800 
 46 H       -5.5260     1.9940     1.2130 H     1 <1>   0.0800 
 47 H       -4.5290     0.9320     0.2620 H     1 <1>   0.0800 
 48 H       -6.5320     4.0230    -1.7950 H     1 <1>   0.0800 
 49 H       -6.7310     3.9560    -0.0680 H     1 <1>   0.0800 
 50 H       -4.9780     2.2280    -1.6500 H     1 <1>   0.4500 
 51 H        6.3880     5.8580    -2.3700 H     1 <1>   0.0800 
 52 H        6.2420     6.9390    -1.0030 H     1 <1>   0.0800 
 53 H        5.3450     7.2580    -2.4630 H     1 <1>   0.0800 
 54 H       -7.5480     1.4830    -0.3390 H     1 <1>   0.0800 
 55 H       -6.4970     0.3780    -1.2010 H     1 <1>   0.0800 
 56 H       -7.3120     1.6620    -2.0660 H     1 <1>   0.0800 
@<TRIPOS>BOND
  1   1   2  2   
  2   2   3  am  
  3   2   4  am  
  4   3   5  1   
  5   3  28  1   
  6   4   6  1   
  7   4  29  1   
  8   5   7  2   
  9   5   8  1   
 10   6   7  1   
 11   6   9  1   
 12   6  30  1   
 13   7  10  1   
 14   8  11  1   
 15   8  31  1   
 16   8  32  1   
 17   9  12  ar  
 18   9  13  ar  
 19  10  14  2   
 20  10  15  1   
 21  11  16  1   
 22  11  17  1   
 23  12  18  ar  
 24  12  19  1   
 25  13  20  ar  
 26  13  33  1   
 27  15  21  1   
 28  16  22  1   
 29  16  34  1   
 30  16  35  1   
 31  17  23  1   
 32  17  36  1   
 33  17  37  1   
 34  18  24  ar  
 35  18  38  1   
 36  19  39  1   
 37  19  40  1   
 38  19  41  1   
 39  20  24  ar  
 40  20  42  1   
 41  21  43  1   
 42  21  44  1   
 43  21  45  1   
 44  22  25  1   
 45  22  46  1   
 46  22  47  1   
 47  23  25  1   
 48  23  48  1   
 49  23  49  1   
 50  24  26  1   
 51  25  27  1   
 52  25  50  1   
 53  26  51  1   
 54  26  52  1   
 55  26  53  1   
 56  27  54  1   
 57  27  55  1   
 58  27  56  1   
@<TRIPOS>SUBSTRUCTURE
  1 ****   7 GROUP 4 **** **** 0

# MOE 2024.06 (io_trps.svl 2023.06)
