@<TRIPOS>MOLECULE
8,8-Dimethyl-5-pyridin-3-yl-5,8,9,10-tetrahydro-1H,7H-pyrimido[4,5-b]quinoline-2
43 46 1 0 0 
SMALL
USER_CHARGES


@<TRIPOS>ATOM
  1 O       -0.8780     0.1230    -0.1710 O.2   1 <1>  -0.5700 
  2 C       -1.8470    -0.5960    -0.1030 C.2   1 <1>   0.6900 
  3 N       -3.0100    -0.2550    -0.7230 N.am  1 <1>  -0.5390 
  4 N       -1.8160    -1.7500     0.6080 N.am  1 <1>  -0.4900 
  5 C       -4.1230    -1.0520    -0.6460 C.2   1 <1>   0.2090 
  6 C       -2.8970    -2.5730     0.7300 C.2   1 <1>   0.6160 
  7 N       -5.3350    -0.5410    -1.0650 N.pl3 1 <1>  -0.6000 
  8 C       -4.0530    -2.2740    -0.0380 C.2   1 <1>  -0.1240 
  9 O       -2.8030    -3.4780     1.5350 O.2   1 <1>  -0.5700 
 10 C       -6.4820    -1.0100    -0.4440 C.2   1 <1>  -0.0380 
 11 C       -5.3080    -3.1420    -0.2240 C.3   1 <1>   0.3400 
 12 C       -6.5010    -2.2360     0.1530 C.2   1 <1>  -0.1240 
 13 C       -7.6560    -0.0460    -0.3590 C.3   1 <1>  -0.0220 
 14 C       -5.3330    -4.6880    -0.1300 C.ar  1 <1>  -0.1430 
 15 C       -7.5200    -2.5990     1.0850 C.2   1 <1>   0.4950 
 16 C       -8.9680    -0.7700     0.0160 C.3   1 <1>   0.0000 
 17 C       -4.1710    -5.4580    -0.1410 C.ar  1 <1>   0.1600 
 18 C       -6.5320    -5.3830    -0.1610 C.ar  1 <1>  -0.1500 
 19 O       -7.4780    -3.5470     1.8280 O.2   1 <1>  -0.5700 
 20 C       -8.7240    -1.6820     1.2370 C.3   1 <1>  -0.0990 
 21 C      -10.0480     0.2680     0.3620 C.3   1 <1>  -0.2400 
 22 C       -9.4740    -1.6070    -1.1740 C.3   1 <1>  -0.2400 
 23 N       -4.1100    -6.7810    -0.1260 N.ar  1 <1>  -0.6200 
 24 C       -6.4960    -6.7590    -0.1290 C.ar  1 <1>  -0.1500 
 25 C       -5.2740    -7.4020    -0.1040 C.ar  1 <1>   0.1600 
 26 H       -3.0070     0.6480    -1.1920 H     1 <1>   0.3700 
 27 H       -0.9860    -1.9640     1.1500 H     1 <1>   0.3700 
 28 H       -5.3510     0.3670    -1.5420 H     1 <1>   0.4000 
 29 H       -5.3910    -3.1140    -1.2980 H     1 <1>   0.0800 
 30 H       -7.7840     0.4560    -1.3020 H     1 <1>   0.0800 
 31 H       -7.4250     0.7000     0.3810 H     1 <1>   0.0800 
 32 H       -3.2150    -4.9770    -0.1940 H     1 <1>   0.1500 
 33 H       -7.4850    -4.8920    -0.2150 H     1 <1>   0.1500 
 34 H       -8.5540    -1.0800     2.1120 H     1 <1>   0.0800 
 35 H       -9.5950    -2.2840     1.4250 H     1 <1>   0.0800 
 36 H       -9.7410     0.8780     1.1940 H     1 <1>   0.0800 
 37 H      -10.9700    -0.2200     0.6260 H     1 <1>   0.0800 
 38 H      -10.2370     0.9140    -0.4780 H     1 <1>   0.0800 
 39 H       -8.7560    -2.3500    -1.4720 H     1 <1>   0.0800 
 40 H       -9.6700    -0.9760    -2.0240 H     1 <1>   0.0800 
 41 H      -10.3890    -2.1130    -0.9180 H     1 <1>   0.0800 
 42 H       -7.4060    -7.3300    -0.1260 H     1 <1>   0.1500 
 43 H       -5.2530    -8.4770    -0.0730 H     1 <1>   0.1500 
@<TRIPOS>BOND
  1   1   2  2   
  2   2   3  am  
  3   2   4  am  
  4   3   5  1   
  5   3  26  1   
  6   4   6  am  
  7   4  27  1   
  8   5   7  1   
  9   5   8  2   
 10   6   8  1   
 11   6   9  2   
 12   7  10  1   
 13   7  28  1   
 14   8  11  1   
 15  10  12  2   
 16  10  13  1   
 17  11  12  1   
 18  11  14  1   
 19  11  29  1   
 20  12  15  1   
 21  13  16  1   
 22  13  30  1   
 23  13  31  1   
 24  14  17  ar  
 25  14  18  ar  
 26  15  19  2   
 27  15  20  1   
 28  16  20  1   
 29  16  21  1   
 30  16  22  1   
 31  17  23  ar  
 32  17  32  1   
 33  18  24  ar  
 34  18  33  1   
 35  20  34  1   
 36  20  35  1   
 37  21  36  1   
 38  21  37  1   
 39  21  38  1   
 40  22  39  1   
 41  22  40  1   
 42  22  41  1   
 43  23  25  ar  
 44  24  25  ar  
 45  24  42  1   
 46  25  43  1   
@<TRIPOS>SUBSTRUCTURE
  1 ****  11 GROUP 4 **** **** 0

# MOE 2024.06 (io_trps.svl 2023.06)
