@<TRIPOS>MOLECULE
2-[2-(3,5-Dimethyl-[1,2,4]triazol-1-yl)-ethyl]-1H-benzoimidazole
34 36 1 0 0 
SMALL
USER_CHARGES


@<TRIPOS>ATOM
  1 N       -0.2720    -0.1260    -0.3290 N.2   1 <1>  -0.2600 
  2 N       -1.0660    -0.9660     0.3870 N.pl3 1 <1>  -0.4570 
  3 C        0.8850    -0.6850    -0.3030 C.2   1 <1>   0.4850 
  4 C       -0.3630    -1.9960     0.8190 C.cat 1 <1>   0.6560 
  5 C       -2.5050    -0.6610     0.6210 C.3   1 <1>   0.3540 
  6 N        0.8680    -1.8450     0.3960 N.pl3 1 <1>  -0.7000 
  7 C        2.1380    -0.1480    -0.9560 C.3   1 <1>  -0.0720 
  8 C       -0.8610    -3.1530     1.6550 C.3   1 <1>  -0.0960 
  9 C       -3.2870    -0.6400    -0.6980 C.3   1 <1>   0.0200 
 10 C       -4.7730    -0.4890    -0.4320 C.2   1 <1>   0.0060 
 11 N       -5.3050    -0.6260     0.7320 N.2   1 <1>  -0.5650 
 12 N       -5.6670    -0.2000    -1.4140 N.pl3 1 <1>   0.0330 
 13 C       -6.6360    -0.4160     0.5240 C.ar  1 <1>   0.2270 
 14 C       -6.8790    -0.1500    -0.8090 C.ar  1 <1>  -0.1520 
 15 C       -7.6930    -0.4400     1.4330 C.ar  1 <1>  -0.1500 
 16 C       -8.1720     0.1000    -1.2760 C.ar  1 <1>  -0.1500 
 17 C       -8.9720    -0.1950     0.9830 C.ar  1 <1>  -0.1500 
 18 C       -9.2100     0.0740    -0.3710 C.ar  1 <1>  -0.1500 
 19 H       -2.5920     0.2980     1.1030 H     1 <1>   0.0800 
 20 H       -2.9270    -1.4010     1.2780 H     1 <1>   0.0800 
 21 H        1.6660    -2.4590     0.5550 H     1 <1>   0.4500 
 22 H        1.9240     0.7820    -1.4530 H     1 <1>   0.0800 
 23 H        2.5060    -0.8500    -1.6810 H     1 <1>   0.0800 
 24 H        2.8950     0.0260    -0.2130 H     1 <1>   0.0800 
 25 H       -1.6720    -3.6470     1.1510 H     1 <1>   0.0800 
 26 H       -1.2070    -2.7930     2.6070 H     1 <1>   0.0800 
 27 H       -0.0730    -3.8650     1.8200 H     1 <1>   0.0800 
 28 H       -3.1240    -1.5590    -1.2310 H     1 <1>   0.0800 
 29 H       -2.9480     0.1840    -1.3000 H     1 <1>   0.0800 
 30 H       -5.4880    -0.0470    -2.4100 H     1 <1>   0.2700 
 31 H       -7.4840    -0.6490     2.4650 H     1 <1>   0.1500 
 32 H       -8.3470     0.3060    -2.3170 H     1 <1>   0.1500 
 33 H       -9.8010    -0.2090     1.6700 H     1 <1>   0.1500 
 34 H      -10.2190     0.2620    -0.6970 H     1 <1>   0.1500 
@<TRIPOS>BOND
  1   1   2  1   
  2   1   3  2   
  3   2   4  ar  
  4   2   5  1   
  5   3   6  1   
  6   3   7  1   
  7   4   6  ar  
  8   4   8  1   
  9   5   9  1   
 10   5  19  1   
 11   5  20  1   
 12   6  21  1   
 13   7  22  1   
 14   7  23  1   
 15   7  24  1   
 16   8  25  1   
 17   8  26  1   
 18   8  27  1   
 19   9  10  1   
 20   9  28  1   
 21   9  29  1   
 22  10  11  2   
 23  10  12  1   
 24  11  13  1   
 25  12  14  1   
 26  12  30  1   
 27  13  14  ar  
 28  13  15  ar  
 29  14  16  ar  
 30  15  17  ar  
 31  15  31  1   
 32  16  18  ar  
 33  16  32  1   
 34  17  18  ar  
 35  17  33  1   
 36  18  34  1   
@<TRIPOS>SUBSTRUCTURE
  1 ****   9 GROUP 4 **** **** 0

# MOE 2024.06 (io_trps.svl 2023.06)
