@<TRIPOS>MOLECULE
2-Cyclopropyl-5-methyl-furan-3-carboxylic acid
21 22 1 0 0 
SMALL
USER_CHARGES


@<TRIPOS>ATOM
  1 O        0.1140    -0.2580     0.7000 O.co2 1 <1>  -0.9000 
  2 C        0.5850    -1.3000     0.2090 C.2   1 <1>   1.0330 
  3 O        1.7570    -1.2830    -0.2070 O.co2 1 <1>  -0.9000 
  4 C       -0.2390    -2.4880     0.1140 C.2   1 <1>  -0.2330 
  5 C        0.0720    -3.7820    -0.1750 C.2   1 <1>   0.0550 
  6 C       -1.6360    -2.5070     0.3050 C.2   1 <1>  -0.1500 
  7 O       -1.0070    -4.5370    -0.1880 O.3   1 <1>  -0.2800 
  8 C        1.4010    -4.4550    -0.4690 C.3   1 <1>  -0.0150 
  9 C       -2.0380    -3.7770     0.1050 C.2   1 <1>  -0.0400 
 10 C        1.9190    -5.5150     0.4540 C.3   1 <1>  -0.2000 
 11 C        2.6090    -4.1880     0.3750 C.3   1 <1>  -0.2000 
 12 C       -3.4110    -4.4030     0.1680 C.3   1 <1>  -0.0600 
 13 H       -2.2070    -1.6320     0.5600 H     1 <1>   0.1500 
 14 H        1.5570    -4.5900    -1.5230 H     1 <1>   0.1000 
 15 H        2.3930    -6.3790     0.0250 H     1 <1>   0.1000 
 16 H        1.3390    -5.7460     1.3300 H     1 <1>   0.1000 
 17 H        2.4990    -3.4740     1.1740 H     1 <1>   0.1000 
 18 H        3.5470    -4.0810    -0.1370 H     1 <1>   0.1000 
 19 H       -4.1440    -3.6590     0.4180 H     1 <1>   0.0800 
 20 H       -3.4210    -5.1750     0.9150 H     1 <1>   0.0800 
 21 H       -3.6540    -4.8340    -0.7860 H     1 <1>   0.0800 
@<TRIPOS>BOND
  1   1   2  ar  
  2   2   3  ar  
  3   2   4  1   
  4   4   5  2   
  5   4   6  1   
  6   5   7  1   
  7   5   8  1   
  8   6   9  2   
  9   6  13  1   
 10   7   9  1   
 11   8  10  1   
 12   8  11  1   
 13   8  14  1   
 14   9  12  1   
 15  10  11  1   
 16  10  15  1   
 17  10  16  1   
 18  11  17  1   
 19  11  18  1   
 20  12  19  1   
 21  12  20  1   
 22  12  21  1   
@<TRIPOS>SUBSTRUCTURE
  1 ****   5 GROUP 4 **** **** 0

# MOE 2024.06 (io_trps.svl 2023.06)
