@<TRIPOS>MOLECULE
2-[(2-Methoxy-5-methyl-benzenesulfonyl)-methyl-amino]-N-pyridin-2-ylmethyl-aceta
46 47 1 0 0 
SMALL
USER_CHARGES


@<TRIPOS>ATOM
  1 S        0.6460    -0.5170     0.1160 S.o2  1 <1>   1.4470 
  2 O       -0.5880    -1.2730     0.1550 O.2   1 <1>  -0.6500 
  3 O        1.7210    -1.0320    -0.7070 O.2   1 <1>  -0.6500 
  4 N        1.1970    -0.4580     1.7250 N.am  1 <1>  -0.8490 
  5 C        0.2940     1.2110    -0.2880 C.ar  1 <1>  -0.0090 
  6 C        2.1470    -1.5500     2.0600 C.3   1 <1>   0.2570 
  7 C        0.1180    -0.3530     2.7100 C.3   1 <1>   0.1160 
  8 C        1.2980     2.1730    -0.2650 C.ar  1 <1>   0.0830 
  9 C       -0.9940     1.6220    -0.6120 C.ar  1 <1>  -0.1500 
 10 C        3.6300    -1.1800     1.8850 C.2   1 <1>   0.5690 
 11 O        2.5640     1.8160     0.0330 O.3   1 <1>  -0.3630 
 12 C        1.0210     3.5000    -0.5630 C.ar  1 <1>  -0.1500 
 13 C       -1.2840     2.9460    -0.9030 C.ar  1 <1>  -0.1440 
 14 O        4.3230    -1.0690     2.8700 O.2   1 <1>  -0.5700 
 15 N        4.1450    -1.0010     0.6450 N.am  1 <1>  -0.7300 
 16 C        3.1200     2.3310     1.2230 C.3   1 <1>   0.0400 
 17 C       -0.2680     3.8850    -0.8780 C.ar  1 <1>  -0.1500 
 18 C       -2.7010     3.3620    -1.2550 C.3   1 <1>  -0.0970 
 19 C        5.5440    -0.6300     0.3310 C.3   1 <1>   0.2840 
 20 C        6.3550    -1.8480    -0.0940 C.ar  1 <1>   0.1670 
 21 N        6.7170    -1.9230    -1.3690 N.ar  1 <1>  -0.6200 
 22 C        6.6790    -2.8030     0.8590 C.ar  1 <1>  -0.1500 
 23 C        7.4210    -2.9930    -1.7020 C.ar  1 <1>   0.1600 
 24 C        7.4160    -3.9110     0.4970 C.ar  1 <1>  -0.1500 
 25 C        7.7920    -3.9980    -0.8250 C.ar  1 <1>  -0.1500 
 26 H        1.9320    -2.4240     1.4700 H     1 <1>   0.0800 
 27 H        2.0250    -1.8300     3.0910 H     1 <1>   0.0800 
 28 H       -0.4700    -1.2570     2.7240 H     1 <1>   0.0800 
 29 H       -0.5260     0.4760     2.4660 H     1 <1>   0.0800 
 30 H        0.5280    -0.1840     3.6920 H     1 <1>   0.0800 
 31 H       -1.7850     0.8910    -0.6380 H     1 <1>   0.1500 
 32 H        1.8130     4.2260    -0.5570 H     1 <1>   0.1500 
 33 H        3.5110    -1.0590    -0.1690 H     1 <1>   0.3700 
 34 H        4.0800     1.8710     1.3730 H     1 <1>   0.0800 
 35 H        2.4700     2.0860     2.0450 H     1 <1>   0.0800 
 36 H        3.2320     3.3960     1.1320 H     1 <1>   0.0800 
 37 H       -0.4750     4.9160    -1.1090 H     1 <1>   0.1500 
 38 H       -3.4150     2.7060    -0.7910 H     1 <1>   0.0800 
 39 H       -2.8370     3.3250    -2.3210 H     1 <1>   0.0800 
 40 H       -2.8940     4.3650    -0.9160 H     1 <1>   0.0800 
 41 H        6.0050    -0.1860     1.1950 H     1 <1>   0.0800 
 42 H        5.5450     0.0990    -0.4600 H     1 <1>   0.0800 
 43 H        6.3520    -2.6770     1.8760 H     1 <1>   0.1500 
 44 H        7.7190    -3.0740    -2.7340 H     1 <1>   0.1500 
 45 H        7.6820    -4.6680     1.2140 H     1 <1>   0.1500 
 46 H        8.3660    -4.8360    -1.1770 H     1 <1>   0.1500 
@<TRIPOS>BOND
  1   1   2  2   
  2   1   3  2   
  3   1   4  am  
  4   1   5  1   
  5   4   6  1   
  6   4   7  1   
  7   5   8  ar  
  8   5   9  ar  
  9   6  10  1   
 10   6  26  1   
 11   6  27  1   
 12   7  28  1   
 13   7  29  1   
 14   7  30  1   
 15   8  11  1   
 16   8  12  ar  
 17   9  13  ar  
 18   9  31  1   
 19  10  14  2   
 20  10  15  am  
 21  11  16  1   
 22  12  17  ar  
 23  12  32  1   
 24  13  17  ar  
 25  13  18  1   
 26  15  19  1   
 27  15  33  1   
 28  16  34  1   
 29  16  35  1   
 30  16  36  1   
 31  17  37  1   
 32  18  38  1   
 33  18  39  1   
 34  18  40  1   
 35  19  20  1   
 36  19  41  1   
 37  19  42  1   
 38  20  21  ar  
 39  20  22  ar  
 40  21  23  ar  
 41  22  24  ar  
 42  22  43  1   
 43  23  25  ar  
 44  23  44  1   
 45  24  25  ar  
 46  24  45  1   
 47  25  46  1   
@<TRIPOS>SUBSTRUCTURE
  1 ****   3 GROUP 4 **** **** 0

# MOE 2024.06 (io_trps.svl 2023.06)
