@<TRIPOS>MOLECULE
[2-(2-Ethoxy-benzylamino)-5-methyl-7-oxo-4,7-dihydro-[1,2,4]triazolo[1,5-a]pyrim
48 50 1 0 0 
SMALL
USER_CHARGES


@<TRIPOS>ATOM
  1 O       -1.0410    -1.3530     2.0030 O.2   1 <1>  -0.5700 
  2 C       -0.6030    -2.1540     1.1840 C.2   1 <1>   0.5650 
  3 N       -1.1950    -3.4240     1.0100 N.pl3 1 <1>   0.5610 
  4 C        0.5380    -1.8370     0.3660 C.2   1 <1>  -0.1240 
  5 N       -2.2960    -4.0050     1.5490 N.2   1 <1>  -0.7070 
  6 C       -0.6860    -4.2960     0.1090 C.2   1 <1>   0.2700 
  7 C        1.0300    -2.7450    -0.5310 C.2   1 <1>  -0.0380 
  8 C        1.1200    -0.4300     0.5600 C.3   1 <1>   0.0390 
  9 C       -2.3340    -5.1220     0.9230 C.2   1 <1>   0.5990 
 10 N       -1.3690    -5.3740     0.0300 N.2   1 <1>  -0.5650 
 11 N        0.4360    -3.9810    -0.6330 N.pl3 1 <1>  -0.5840 
 12 C        2.1920    -2.5400    -1.4900 C.3   1 <1>  -0.1020 
 13 C        0.2670     0.6350    -0.1070 C.2   1 <1>   0.6590 
 14 N       -3.3500    -5.9960     1.1550 N.pl3 1 <1>  -0.8520 
 15 O       -0.5210     0.3730    -0.9810 O.2   1 <1>  -0.5700 
 16 O        0.4630     1.8760     0.3180 O.3   1 <1>  -0.4300 
 17 C       -4.1760    -6.2810    -0.0340 C.3   1 <1>   0.3530 
 18 C       -0.2710     2.9640    -0.2050 C.3   1 <1>   0.0400 
 19 C       -5.5380    -5.6450     0.1790 C.ar  1 <1>  -0.1430 
 20 C       -5.8440    -4.4080    -0.3790 C.ar  1 <1>   0.0820 
 21 C       -6.4900    -6.2930     0.9530 C.ar  1 <1>  -0.1500 
 22 O       -4.9200    -3.7710    -1.1330 O.3   1 <1>  -0.3620 
 23 C       -7.0940    -3.8390    -0.1740 C.ar  1 <1>  -0.1500 
 24 C       -7.7340    -5.7210     1.1620 C.ar  1 <1>  -0.1500 
 25 C       -4.5030    -2.4930    -0.7070 C.3   1 <1>   0.1200 
 26 C       -8.0370    -4.4940     0.5970 C.ar  1 <1>  -0.1500 
 27 C       -3.3400    -2.0560    -1.5930 C.3   1 <1>  -0.2400 
 28 H        2.1170    -0.3520     0.1780 H     1 <1>   0.0800 
 29 H        1.1790    -0.2050     1.6090 H     1 <1>   0.0800 
 30 H        0.7530    -4.6960    -1.2990 H     1 <1>   0.4000 
 31 H        3.0560    -3.0750    -1.1380 H     1 <1>   0.0800 
 32 H        2.4490    -1.5050    -1.6110 H     1 <1>   0.0800 
 33 H        1.9310    -2.9150    -2.4640 H     1 <1>   0.0800 
 34 H       -3.9530    -5.5260     1.8310 H     1 <1>   0.4000 
 35 H       -4.2800    -7.3470    -0.1390 H     1 <1>   0.0800 
 36 H       -3.7160    -5.9060    -0.9330 H     1 <1>   0.0800 
 37 H        0.0530     3.8640     0.2860 H     1 <1>   0.0800 
 38 H       -1.3180     2.7970    -0.0200 H     1 <1>   0.0800 
 39 H       -0.0880     3.0320    -1.2640 H     1 <1>   0.0800 
 40 H       -6.2630    -7.2460     1.3980 H     1 <1>   0.1500 
 41 H       -7.3320    -2.8920    -0.6220 H     1 <1>   0.1500 
 42 H       -8.4660    -6.2310     1.7640 H     1 <1>   0.1500 
 43 H       -4.1990    -2.5610     0.3230 H     1 <1>   0.0800 
 44 H       -5.3270    -1.8090    -0.7980 H     1 <1>   0.0800 
 45 H       -9.0050    -4.0520     0.7570 H     1 <1>   0.1500 
 46 H       -2.5510    -2.7840    -1.5600 H     1 <1>   0.0800 
 47 H       -2.9540    -1.1120    -1.2510 H     1 <1>   0.0800 
 48 H       -3.6740    -1.9410    -2.6080 H     1 <1>   0.0800 
@<TRIPOS>BOND
  1   1   2  2   
  2   2   3  1   
  3   2   4  1   
  4   3   5  1   
  5   3   6  1   
  6   4   7  2   
  7   4   8  1   
  8   5   9  2   
  9   6  10  2   
 10   6  11  1   
 11   7  11  1   
 12   7  12  1   
 13   8  13  1   
 14   8  28  1   
 15   8  29  1   
 16   9  10  1   
 17   9  14  1   
 18  11  30  1   
 19  12  31  1   
 20  12  32  1   
 21  12  33  1   
 22  13  15  2   
 23  13  16  1   
 24  14  17  1   
 25  14  34  1   
 26  16  18  1   
 27  17  19  1   
 28  17  35  1   
 29  17  36  1   
 30  18  37  1   
 31  18  38  1   
 32  18  39  1   
 33  19  20  ar  
 34  19  21  ar  
 35  20  22  1   
 36  20  23  ar  
 37  21  24  ar  
 38  21  40  1   
 39  22  25  1   
 40  23  26  ar  
 41  23  41  1   
 42  24  26  ar  
 43  24  42  1   
 44  25  27  1   
 45  25  43  1   
 46  25  44  1   
 47  26  45  1   
 48  27  46  1   
 49  27  47  1   
 50  27  48  1   
@<TRIPOS>SUBSTRUCTURE
  1 ****   3 GROUP 4 **** **** 0

# MOE 2024.06 (io_trps.svl 2023.06)
