@<TRIPOS>MOLECULE
2-(3,4-Dimethoxy-phenyl)-5-methyl-7-phenyl-1,3-diaza-tricyclo[3.3.1.1*3,7*]decan
55 59 1 0 0 
SMALL
USER_CHARGES


@<TRIPOS>ATOM
  1 O        0.3840     0.0880    -0.9680 O.2   1 <1>  -0.5700 
  2 C        0.9790    -0.8970    -0.6500 C.2   1 <1>   0.4480 
  3 C        0.3590    -2.3000    -0.6170 C.3   1 <1>   0.2040 
  4 C        2.4770    -0.8700    -0.3400 C.3   1 <1>   0.0610 
  5 C       -1.1710    -2.3490    -0.7860 C.ar  1 <1>  -0.1440 
  6 C        1.1100    -3.0730    -1.7180 C.3   1 <1>   0.3430 
  7 C        0.7330    -2.9580     0.7250 C.3   1 <1>   0.1100 
  8 C        3.1340    -1.6940    -1.4550 C.3   1 <1>   0.3430 
  9 C        2.7040    -1.5960     0.9950 C.3   1 <1>   0.1100 
 10 C        3.0740     0.5520    -0.2880 C.3   1 <1>  -0.2400 
 11 C       -1.9610    -1.5100    -0.0090 C.ar  1 <1>  -0.1500 
 12 C       -1.8080    -3.2200    -1.6690 C.ar  1 <1>  -0.1500 
 13 N        2.5920    -3.0960    -1.4440 N.4   1 <1>  -0.9590 
 14 N        2.2050    -2.9810     0.8880 N.3   1 <1>  -0.8100 
 15 C       -3.3410    -1.5330    -0.1070 C.ar  1 <1>  -0.1500 
 16 C       -3.1880    -3.2430    -1.7670 C.ar  1 <1>  -0.1500 
 17 C        2.8240    -3.7980    -0.1610 C.3   1 <1>   0.8360 
 18 C       -3.9560    -2.4010    -0.9870 C.ar  1 <1>  -0.1500 
 19 C        4.2830    -4.2170     0.0460 C.ar  1 <1>  -0.1440 
 20 C        5.3740    -3.3590     0.1380 C.ar  1 <1>  -0.1500 
 21 C        4.5330    -5.5800     0.1350 C.ar  1 <1>  -0.1500 
 22 C        6.6700    -3.8210     0.2920 C.ar  1 <1>   0.0820 
 23 C        5.8190    -6.0670     0.2910 C.ar  1 <1>  -0.1500 
 24 O        7.6000    -2.8250     0.3540 O.3   1 <1>  -0.3620 
 25 C        6.9080    -5.2040     0.3640 C.ar  1 <1>   0.0820 
 26 C        8.9140    -3.0280     0.8260 C.3   1 <1>   0.0400 
 27 O        8.1790    -5.6810     0.4890 O.3   1 <1>  -0.3630 
 28 C        8.4690    -7.0570     0.6060 C.3   1 <1>   0.0400 
 29 H        0.7360    -4.0820    -1.7570 H     1 <1>   0.0800 
 30 H        0.9160    -2.6050    -2.6700 H     1 <1>   0.0800 
 31 H        0.3440    -3.9620     0.7680 H     1 <1>   0.0800 
 32 H        0.2870    -2.4100     1.5400 H     1 <1>   0.0800 
 33 H        4.2020    -1.7000    -1.3350 H     1 <1>   0.0800 
 34 H        2.9200    -1.2290    -2.4040 H     1 <1>   0.0800 
 35 H        3.7390    -1.5910     1.2810 H     1 <1>   0.0800 
 36 H        2.1700    -1.0830     1.7810 H     1 <1>   0.0800 
 37 H        4.1290     0.5230    -0.0770 H     1 <1>   0.0800 
 38 H        2.5900     1.1300     0.4800 H     1 <1>   0.0800 
 39 H        2.9250     1.0620    -1.2250 H     1 <1>   0.0800 
 40 H       -1.5170    -0.8150     0.6830 H     1 <1>   0.1500 
 41 H       -1.2730    -3.9030    -2.3020 H     1 <1>   0.1500 
 42 H        3.0900    -3.6510    -2.1490 H     1 <1>   0.4500 
 43 H       -3.9360    -0.8720     0.5000 H     1 <1>   0.1500 
 44 H       -3.6720    -3.9170    -2.4540 H     1 <1>   0.1500 
 45 H        2.2690    -4.7230    -0.1910 H     1 <1>   0.0800 
 46 H       -5.0300    -2.4190    -1.0650 H     1 <1>   0.1500 
 47 H        5.2760    -2.2950     0.1020 H     1 <1>   0.1500 
 48 H        3.7280    -6.2950     0.0880 H     1 <1>   0.1500 
 49 H        5.9500    -7.1310     0.3520 H     1 <1>   0.1500 
 50 H        9.4620    -3.5990     0.0980 H     1 <1>   0.0800 
 51 H        8.8730    -3.5460     1.7680 H     1 <1>   0.0800 
 52 H        9.3780    -2.0670     0.9560 H     1 <1>   0.0800 
 53 H        9.5330    -7.1660     0.7120 H     1 <1>   0.0800 
 54 H        8.1400    -7.5630    -0.2840 H     1 <1>   0.0800 
 55 H        7.9760    -7.4460     1.4800 H     1 <1>   0.0800 
@<TRIPOS>BOND
  1   1   2  2   
  2   2   3  1   
  3   2   4  1   
  4   3   5  1   
  5   3   6  1   
  6   3   7  1   
  7   4   8  1   
  8   4   9  1   
  9   4  10  1   
 10   5  11  ar  
 11   5  12  ar  
 12   6  13  1   
 13   6  29  1   
 14   6  30  1   
 15   7  14  1   
 16   7  31  1   
 17   7  32  1   
 18   8  13  1   
 19   8  33  1   
 20   8  34  1   
 21   9  14  1   
 22   9  35  1   
 23   9  36  1   
 24  10  37  1   
 25  10  38  1   
 26  10  39  1   
 27  11  15  ar  
 28  11  40  1   
 29  12  16  ar  
 30  12  41  1   
 31  13  17  1   
 32  13  42  1   
 33  14  17  1   
 34  15  18  ar  
 35  15  43  1   
 36  16  18  ar  
 37  16  44  1   
 38  17  19  1   
 39  17  45  1   
 40  18  46  1   
 41  19  20  ar  
 42  19  21  ar  
 43  20  22  ar  
 44  20  47  1   
 45  21  23  ar  
 46  21  48  1   
 47  22  24  1   
 48  22  25  ar  
 49  23  25  ar  
 50  23  49  1   
 51  24  26  1   
 52  25  27  1   
 53  26  50  1   
 54  26  51  1   
 55  26  52  1   
 56  27  28  1   
 57  28  53  1   
 58  28  54  1   
 59  28  55  1   
@<TRIPOS>SUBSTRUCTURE
  1 ****  17 GROUP 4 **** **** 0

# MOE 2024.06 (io_trps.svl 2023.06)
