@<TRIPOS>MOLECULE
N-(2,3-Dihydro-benzo[1,4]dioxin-6-yl)-2-[(2-methoxy-5-methyl-benzenesulfonyl)-me
50 52 1 0 0 
SMALL
USER_CHARGES


@<TRIPOS>ATOM
  1 S        0.1470    -0.4290     0.5980 S.o2  1 <1>   1.4470 
  2 O       -1.1580    -0.9740     0.9010 O.2   1 <1>  -0.6500 
  3 O        1.2090    -0.6420     1.5600 O.2   1 <1>  -0.6500 
  4 N        0.6300    -1.1820    -0.8470 N.am  1 <1>  -0.8490 
  5 C        0.0130     1.3260     0.1770 C.ar  1 <1>  -0.0090 
  6 C        1.2650    -2.5100    -0.6250 C.3   1 <1>   0.2570 
  7 C       -0.4380    -1.2560    -1.8480 C.3   1 <1>   0.1160 
  8 C        1.1300     2.0510    -0.2320 C.ar  1 <1>   0.0830 
  9 C       -1.2120     1.9810     0.2440 C.ar  1 <1>  -0.1500 
 10 C        2.8010    -2.4920    -0.5950 C.2   1 <1>   0.5690 
 11 O        2.3170     1.3970    -0.2940 O.3   1 <1>  -0.3630 
 12 C        1.0080     3.3980    -0.5620 C.ar  1 <1>  -0.1500 
 13 C       -1.3400     3.3190    -0.0860 C.ar  1 <1>  -0.1440 
 14 O        3.3900    -3.3310    -1.2370 O.2   1 <1>  -0.5700 
 15 N        3.4330    -1.5460     0.1630 N.am  1 <1>  -0.5470 
 16 C        3.4630     1.9670    -0.8900 C.3   1 <1>   0.0400 
 17 C       -0.2210     4.0260    -0.4890 C.ar  1 <1>  -0.1500 
 18 C       -2.6900     4.0080     0.0000 C.3   1 <1>  -0.0970 
 19 C        4.7790    -1.2080     0.3540 C.ar  1 <1>   0.1170 
 20 C        5.8050    -1.6510    -0.4750 C.ar  1 <1>  -0.1500 
 21 C        5.0900    -0.3630     1.4140 C.ar  1 <1>  -0.1500 
 22 C        7.1090    -1.2540    -0.2470 C.ar  1 <1>   0.0830 
 23 C        6.3930     0.0420     1.6470 C.ar  1 <1>  -0.1500 
 24 O        8.0880    -1.7130    -1.0700 O.3   1 <1>  -0.3620 
 25 C        7.4060    -0.3960     0.8140 C.ar  1 <1>   0.0830 
 26 C        9.4190    -1.5670    -0.6180 C.3   1 <1>   0.1200 
 27 O        8.6770     0.0280     1.0470 O.3   1 <1>  -0.3630 
 28 C        9.6150    -0.1790     0.0080 C.3   1 <1>   0.1200 
 29 H        0.9860    -3.1800    -1.4190 H     1 <1>   0.0800 
 30 H        0.9060    -2.9460     0.2910 H     1 <1>   0.0800 
 31 H       -0.8430    -0.2750    -2.0300 H     1 <1>   0.0800 
 32 H       -1.2310    -1.9030    -1.5100 H     1 <1>   0.0800 
 33 H       -0.0470    -1.6350    -2.7780 H     1 <1>   0.0800 
 34 H       -2.0810     1.4300     0.5640 H     1 <1>   0.1500 
 35 H        1.8580     3.9760    -0.8740 H     1 <1>   0.1500 
 36 H        2.7800    -0.9570     0.6970 H     1 <1>   0.3700 
 37 H        4.2350     1.2200    -0.9170 H     1 <1>   0.0800 
 38 H        3.7870     2.8040    -0.2980 H     1 <1>   0.0800 
 39 H        3.2210     2.2720    -1.8930 H     1 <1>   0.0800 
 40 H       -0.3040     5.0680    -0.7450 H     1 <1>   0.1500 
 41 H       -3.4880     3.2980    -0.1290 H     1 <1>   0.0800 
 42 H       -2.7790     4.7580    -0.7660 H     1 <1>   0.0800 
 43 H       -2.7980     4.4790     0.9600 H     1 <1>   0.0800 
 44 H        5.5990    -2.3040    -1.3020 H     1 <1>   0.1500 
 45 H        4.3030    -0.0180     2.0610 H     1 <1>   0.1500 
 46 H        6.6280     0.6960     2.4670 H     1 <1>   0.1500 
 47 H       10.0720    -1.7030    -1.4610 H     1 <1>   0.0800 
 48 H        9.6120    -2.3360     0.1090 H     1 <1>   0.0800 
 49 H        9.4680     0.5880    -0.7320 H     1 <1>   0.0800 
 50 H       10.6000    -0.0830     0.4270 H     1 <1>   0.0800 
@<TRIPOS>BOND
  1   1   2  2   
  2   1   3  2   
  3   1   4  am  
  4   1   5  1   
  5   4   6  1   
  6   4   7  1   
  7   5   8  ar  
  8   5   9  ar  
  9   6  10  1   
 10   6  29  1   
 11   6  30  1   
 12   7  31  1   
 13   7  32  1   
 14   7  33  1   
 15   8  11  1   
 16   8  12  ar  
 17   9  13  ar  
 18   9  34  1   
 19  10  14  2   
 20  10  15  am  
 21  11  16  1   
 22  12  17  ar  
 23  12  35  1   
 24  13  17  ar  
 25  13  18  1   
 26  15  19  1   
 27  15  36  1   
 28  16  37  1   
 29  16  38  1   
 30  16  39  1   
 31  17  40  1   
 32  18  41  1   
 33  18  42  1   
 34  18  43  1   
 35  19  20  ar  
 36  19  21  ar  
 37  20  22  ar  
 38  20  44  1   
 39  21  23  ar  
 40  21  45  1   
 41  22  24  1   
 42  22  25  ar  
 43  23  25  ar  
 44  23  46  1   
 45  24  26  1   
 46  25  27  1   
 47  26  28  1   
 48  26  47  1   
 49  26  48  1   
 50  27  28  1   
 51  28  49  1   
 52  28  50  1   
@<TRIPOS>SUBSTRUCTURE
  1 ****  11 GROUP 4 **** **** 0

# MOE 2024.06 (io_trps.svl 2023.06)
