@<TRIPOS>MOLECULE
8-Methyl-3-(2-morpholin-4-yl-ethylsulfanyl)-5-propyl-5H-[1,2,4]triazino[5,6-b]in
52 55 1 0 0 
SMALL
USER_CHARGES


@<TRIPOS>ATOM
  1 S       -0.4700    -0.5520    -0.3760 S.3   1 <1>  -0.3320 
  2 C       -2.0730     0.2400    -0.2800 C.ar  1 <1>   0.7220 
  3 C        0.7270     0.7680     0.1030 C.3   1 <1>   0.0700 
  4 N       -2.0540     1.5460     0.0800 N.ar  1 <1>  -0.3100 
  5 N       -3.1000    -0.5130    -0.5670 N.ar  1 <1>  -0.5670 
  6 C        2.1320     0.1730    -0.0200 C.3   1 <1>   0.3430 
  7 N       -3.1720     2.2040     0.1730 N.ar  1 <1>  -0.2560 
  8 C       -4.2410     0.1760    -0.4620 C.ar  1 <1>   0.1050 
  9 N        3.1970     1.1440     0.3810 N.4   1 <1>  -0.9590 
 10 C       -4.2850     1.5110    -0.1020 C.ar  1 <1>   0.2560 
 11 N       -5.5170    -0.2770    -0.6800 N.pl3 1 <1>   0.0480 
 12 C        3.2760     2.3750    -0.4840 C.3   1 <1>   0.3430 
 13 C        4.5500     0.4950     0.4750 C.3   1 <1>   0.3430 
 14 C       -5.6500     1.9010    -0.1020 C.ar  1 <1>   0.0000 
 15 C       -6.3890     0.7780    -0.4640 C.ar  1 <1>  -0.1520 
 16 C       -5.8740    -1.6520    -1.0970 C.3   1 <1>   0.0960 
 17 C        4.4300     3.3050    -0.0410 C.3   1 <1>   0.1200 
 18 C        5.6400     1.5120     0.8890 C.3   1 <1>   0.1200 
 19 C       -6.3000     3.1040     0.1750 C.ar  1 <1>  -0.1500 
 20 C       -7.7800     0.8480    -0.5510 C.ar  1 <1>  -0.1500 
 21 C       -5.9060    -2.6200     0.0970 C.3   1 <1>  -0.1600 
 22 O        5.0950     2.7900     1.0810 O.3   1 <1>  -0.5600 
 23 C       -7.6750     3.1750     0.0880 C.ar  1 <1>  -0.1430 
 24 C       -8.4090     2.0430    -0.2760 C.ar  1 <1>  -0.1500 
 25 C       -6.9720    -2.2620     1.1410 C.3   1 <1>  -0.2400 
 26 C       -8.4090     4.4710     0.3830 C.3   1 <1>  -0.0970 
 27 H        0.4960     1.0510     1.1150 H     1 <1>   0.0800 
 28 H        0.5720     1.5890    -0.5740 H     1 <1>   0.0800 
 29 H        2.2910    -0.1440    -1.0380 H     1 <1>   0.0800 
 30 H        2.1860    -0.7000     0.6120 H     1 <1>   0.0800 
 31 H        3.0140     1.4980     1.3340 H     1 <1>   0.4500 
 32 H        2.3510     2.9250    -0.4330 H     1 <1>   0.0800 
 33 H        3.4300     2.0950    -1.5130 H     1 <1>   0.0800 
 34 H        4.8190     0.0640    -0.4750 H     1 <1>   0.0800 
 35 H        4.5260    -0.3050     1.1980 H     1 <1>   0.0800 
 36 H       -5.1410    -1.9880    -1.8090 H     1 <1>   0.0800 
 37 H       -6.8300    -1.6350    -1.5860 H     1 <1>   0.0800 
 38 H        4.0450     4.2750     0.2230 H     1 <1>   0.0800 
 39 H        5.1450     3.4340    -0.8360 H     1 <1>   0.0800 
 40 H        6.4100     1.5740     0.1390 H     1 <1>   0.0800 
 41 H        6.0980     1.2090     1.8150 H     1 <1>   0.0800 
 42 H       -5.7100     3.9590     0.4530 H     1 <1>   0.1500 
 43 H       -8.3530    -0.0180    -0.8280 H     1 <1>   0.1500 
 44 H       -4.9340    -2.6430     0.5620 H     1 <1>   0.0800 
 45 H       -6.1060    -3.6100    -0.2740 H     1 <1>   0.0800 
 46 H       -9.4810     2.1090    -0.3400 H     1 <1>   0.1500 
 47 H       -6.7660    -1.3040     1.5860 H     1 <1>   0.0800 
 48 H       -6.9800    -3.0000     1.9240 H     1 <1>   0.0800 
 49 H       -7.9490    -2.2320     0.6920 H     1 <1>   0.0800 
 50 H       -7.7190     5.2520     0.6470 H     1 <1>   0.0800 
 51 H       -9.0930     4.3260     1.2000 H     1 <1>   0.0800 
 52 H       -8.9640     4.7820    -0.4840 H     1 <1>   0.0800 
@<TRIPOS>BOND
  1   1   2  1   
  2   1   3  1   
  3   2   4  ar  
  4   2   5  ar  
  5   3   6  1   
  6   3  27  1   
  7   3  28  1   
  8   4   7  ar  
  9   5   8  ar  
 10   6   9  1   
 11   6  29  1   
 12   6  30  1   
 13   7  10  ar  
 14   8  10  ar  
 15   8  11  1   
 16   9  12  1   
 17   9  13  1   
 18   9  31  1   
 19  10  14  1   
 20  11  15  1   
 21  11  16  1   
 22  12  17  1   
 23  12  32  1   
 24  12  33  1   
 25  13  18  1   
 26  13  34  1   
 27  13  35  1   
 28  14  15  ar  
 29  14  19  ar  
 30  15  20  ar  
 31  16  21  1   
 32  16  36  1   
 33  16  37  1   
 34  17  22  1   
 35  17  38  1   
 36  17  39  1   
 37  18  22  1   
 38  18  40  1   
 39  18  41  1   
 40  19  23  ar  
 41  19  42  1   
 42  20  24  ar  
 43  20  43  1   
 44  21  25  1   
 45  21  44  1   
 46  21  45  1   
 47  23  24  ar  
 48  23  26  1   
 49  24  46  1   
 50  25  47  1   
 51  25  48  1   
 52  25  49  1   
 53  26  50  1   
 54  26  51  1   
 55  26  52  1   
@<TRIPOS>SUBSTRUCTURE
  1 ****   4 GROUP 4 **** **** 0

# MOE 2024.06 (io_trps.svl 2023.06)
