@<TRIPOS>MOLECULE
1-(5-Chloro-2-ethoxy-benzenesulfonyl)-piperidine-4-carboxylic acid amide
41 42 1 0 0 
SMALL
USER_CHARGES


@<TRIPOS>ATOM
  1 CL       0.7340     0.1810     1.3850 Cl    1 <1>  -0.1770 
  2 C        0.5820     1.8810     1.0210 C.ar  1 <1>   0.1770 
  3 C        1.4050     2.4450     0.0650 C.ar  1 <1>  -0.1500 
  4 C       -0.3540     2.6360     1.6970 C.ar  1 <1>  -0.1500 
  5 C        1.3100     3.7960    -0.2540 C.ar  1 <1>  -0.0090 
  6 C       -0.4610     3.9820     1.4010 C.ar  1 <1>  -0.1500 
  7 S        2.4400     4.5030    -1.4880 S.o2  1 <1>   1.4470 
  8 C        0.3540     4.5520     0.4310 C.ar  1 <1>   0.0830 
  9 O        1.8990     5.6660    -2.1580 O.2   1 <1>  -0.6500 
 10 O        2.9120     3.4140    -2.3170 O.2   1 <1>  -0.6500 
 11 N        3.7800     5.0320    -0.5890 N.am  1 <1>  -0.8490 
 12 O        0.2140     5.8740     0.2060 O.3   1 <1>  -0.3630 
 13 C        3.4700     6.2200     0.2140 C.3   1 <1>   0.1960 
 14 C        4.9250     5.2820    -1.4710 C.3   1 <1>   0.1960 
 15 C       -0.6900     6.2790    -0.8030 C.3   1 <1>   0.1200 
 16 C        4.6580     6.5810     1.1080 C.3   1 <1>  -0.1600 
 17 C        6.1710     5.6070    -0.6460 C.3   1 <1>  -0.1600 
 18 C       -2.0400     6.6130    -0.1710 C.3   1 <1>  -0.2400 
 19 C        5.9290     6.8140     0.2760 C.3   1 <1>  -0.0190 
 20 C        7.1390     7.1210     1.1530 C.2   1 <1>   0.5690 
 21 O        7.6850     8.1890     1.0620 O.2   1 <1>  -0.5700 
 22 N        7.5970     6.2050     2.0260 N.am  1 <1>  -0.8000 
 23 H        2.1280     1.8210    -0.4330 H     1 <1>   0.1500 
 24 H       -0.9810     2.1770     2.4420 H     1 <1>   0.1500 
 25 H       -1.1740     4.5950     1.9240 H     1 <1>   0.1500 
 26 H        2.6230     6.0240     0.8480 H     1 <1>   0.0800 
 27 H        3.2230     7.0510    -0.4290 H     1 <1>   0.0800 
 28 H        4.6990     6.0950    -2.1430 H     1 <1>   0.0800 
 29 H        5.1300     4.4060    -2.0640 H     1 <1>   0.0800 
 30 H       -0.7820     5.4960    -1.5370 H     1 <1>   0.0800 
 31 H       -0.2710     7.1510    -1.2760 H     1 <1>   0.0800 
 32 H        4.8110     5.7830     1.8130 H     1 <1>   0.0800 
 33 H        4.4250     7.4720     1.6640 H     1 <1>   0.0800 
 34 H        6.9900     5.8210    -1.3090 H     1 <1>   0.0800 
 35 H        6.4330     4.7390    -0.0680 H     1 <1>   0.0800 
 36 H       -2.4920     5.7310     0.2430 H     1 <1>   0.0800 
 37 H       -2.6990     7.0070    -0.9230 H     1 <1>   0.0800 
 38 H       -1.9170     7.3550     0.5970 H     1 <1>   0.0800 
 39 H        5.7630     7.6760    -0.3470 H     1 <1>   0.0800 
 40 H        8.4070     6.4300     2.6050 H     1 <1>   0.3700 
 41 H        7.1830     5.2820     2.1490 H     1 <1>   0.3700 
@<TRIPOS>BOND
  1   1   2  1   
  2   2   3  ar  
  3   2   4  ar  
  4   3   5  ar  
  5   3  23  1   
  6   4   6  ar  
  7   4  24  1   
  8   5   7  1   
  9   5   8  ar  
 10   6   8  ar  
 11   6  25  1   
 12   7   9  2   
 13   7  10  2   
 14   7  11  am  
 15   8  12  1   
 16  11  13  1   
 17  11  14  1   
 18  12  15  1   
 19  13  16  1   
 20  13  26  1   
 21  13  27  1   
 22  14  17  1   
 23  14  28  1   
 24  14  29  1   
 25  15  18  1   
 26  15  30  1   
 27  15  31  1   
 28  16  19  1   
 29  16  32  1   
 30  16  33  1   
 31  17  19  1   
 32  17  34  1   
 33  17  35  1   
 34  18  36  1   
 35  18  37  1   
 36  18  38  1   
 37  19  20  1   
 38  19  39  1   
 39  20  21  2   
 40  20  22  am  
 41  22  40  1   
 42  22  41  1   
@<TRIPOS>SUBSTRUCTURE
  1 ****  11 GROUP 4 **** **** 0

# MOE 2024.06 (io_trps.svl 2023.06)
