@<TRIPOS>MOLECULE
Furan-2-carboxylic acid [3-chloro-2-(4-ethyl-piperazin-1-yl)-phenyl]-amide
44 46 1 0 0 
SMALL
USER_CHARGES


@<TRIPOS>ATOM
  1 CL       1.2620     0.6350     0.9660 Cl    1 <1>  -0.1770 
  2 C        1.6670    -1.0580     0.7430 C.ar  1 <1>   0.1770 
  3 C        2.9830    -1.4430     0.4730 C.ar  1 <1>   0.1000 
  4 C        0.6320    -1.9700     0.8360 C.ar  1 <1>  -0.1500 
  5 N        4.0420    -0.5080     0.3910 N.pl3 1 <1>  -0.8380 
  6 C        3.2260    -2.8150     0.2690 C.ar  1 <1>   0.1170 
  7 C        0.8930    -3.3140     0.6480 C.ar  1 <1>  -0.1500 
  8 C        4.2610     0.1540    -0.9350 C.3   1 <1>   0.2090 
  9 C        4.5160     0.2040     1.6180 C.3   1 <1>   0.2090 
 10 N        4.5130    -3.3030    -0.0170 N.am  1 <1>  -0.5470 
 11 C        2.1830    -3.7260     0.3640 C.ar  1 <1>  -0.1500 
 12 C        3.9930     1.6690    -0.8880 C.3   1 <1>   0.3430 
 13 C        4.2940     1.7330     1.5570 C.3   1 <1>   0.3430 
 14 C        5.2740    -3.0240    -1.1230 C.2   1 <1>   0.7150 
 15 N        4.7190     2.3470     0.2450 N.4   1 <1>  -0.9590 
 16 O        4.7390    -2.5520    -2.1120 O.2   1 <1>  -0.5700 
 17 C        6.6960    -3.2800    -1.0790 C.2   1 <1>   0.0550 
 18 C        4.4960     3.8130     0.2040 C.3   1 <1>   0.3430 
 19 O        7.5190    -2.7290    -1.9680 O.3   1 <1>  -0.2800 
 20 C        7.4440    -4.0350    -0.2210 C.2   1 <1>  -0.1500 
 21 C        5.5070     4.5120     1.1050 C.3   1 <1>  -0.2400 
 22 C        8.7480    -3.1090    -1.7100 C.2   1 <1>  -0.0100 
 23 C        8.7730    -3.9220    -0.6330 C.2   1 <1>  -0.1500 
 24 H       -0.3660    -1.6310     1.0500 H     1 <1>   0.1500 
 25 H        0.0960    -4.0370     0.7160 H     1 <1>   0.1500 
 26 H        3.6120    -0.2920    -1.6710 H     1 <1>   0.0800 
 27 H        5.2730    -0.0250    -1.2540 H     1 <1>   0.0800 
 28 H        5.5650     0.0050     1.7440 H     1 <1>   0.0800 
 29 H        4.0070    -0.1920     2.4810 H     1 <1>   0.0800 
 30 H        5.0100    -3.7160     0.7650 H     1 <1>   0.3700 
 31 H        2.3810    -4.7720     0.2060 H     1 <1>   0.1500 
 32 H        2.9320     1.8190    -0.7790 H     1 <1>   0.0800 
 33 H        4.2920     2.1010    -1.8290 H     1 <1>   0.0800 
 34 H        4.8360     2.1890     2.3690 H     1 <1>   0.0800 
 35 H        3.2480     1.9300     1.7190 H     1 <1>   0.0800 
 36 H        5.7220     2.1590     0.1190 H     1 <1>   0.4500 
 37 H        3.4910     4.0470     0.5190 H     1 <1>   0.0800 
 38 H        4.6240     4.1710    -0.8050 H     1 <1>   0.0800 
 39 H        7.1160    -4.6230     0.6160 H     1 <1>   0.1500 
 40 H        5.3570     4.2600     2.1390 H     1 <1>   0.0800 
 41 H        5.3840     5.5770     1.0100 H     1 <1>   0.0800 
 42 H        6.5140     4.2700     0.8130 H     1 <1>   0.0800 
 43 H        9.5480    -2.7590    -2.3400 H     1 <1>   0.1500 
 44 H        9.6210    -4.3970    -0.1730 H     1 <1>   0.1500 
@<TRIPOS>BOND
  1   1   2  1   
  2   2   3  ar  
  3   2   4  ar  
  4   3   5  1   
  5   3   6  ar  
  6   4   7  ar  
  7   4  24  1   
  8   5   8  1   
  9   5   9  1   
 10   6  10  1   
 11   6  11  ar  
 12   7  11  ar  
 13   7  25  1   
 14   8  12  1   
 15   8  26  1   
 16   8  27  1   
 17   9  13  1   
 18   9  28  1   
 19   9  29  1   
 20  10  14  am  
 21  10  30  1   
 22  11  31  1   
 23  12  15  1   
 24  12  32  1   
 25  12  33  1   
 26  13  15  1   
 27  13  34  1   
 28  13  35  1   
 29  14  16  2   
 30  14  17  1   
 31  15  18  1   
 32  15  36  1   
 33  17  19  1   
 34  17  20  2   
 35  18  21  1   
 36  18  37  1   
 37  18  38  1   
 38  19  22  1   
 39  20  23  1   
 40  20  39  1   
 41  21  40  1   
 42  21  41  1   
 43  21  42  1   
 44  22  23  2   
 45  22  43  1   
 46  23  44  1   
@<TRIPOS>SUBSTRUCTURE
  1 ****   5 GROUP 4 **** **** 0

# MOE 2024.06 (io_trps.svl 2023.06)
