@<TRIPOS>MOLECULE
N-(6,7,8,9-Tetrahydro-5H-carbazol-3-ylmethyl)-acetamide
36 38 1 0 0 
SMALL
USER_CHARGES


@<TRIPOS>ATOM
  1 O        1.7050     0.6770     2.2400 O.2   1 <1>  -0.5700 
  2 C        2.2240     1.0200     1.2110 C.2   1 <1>   0.5690 
  3 N        3.5290     0.7650     0.9870 N.am  1 <1>  -0.7300 
  4 C        1.3950     1.7400     0.1750 C.3   1 <1>  -0.1790 
  5 C        4.3290     1.0320    -0.2190 C.3   1 <1>   0.2840 
  6 C        5.4970     0.0650    -0.2470 C.ar  1 <1>  -0.1430 
  7 C        6.7880     0.5140    -0.0670 C.ar  1 <1>  -0.1500 
  8 C        5.2550    -1.3010    -0.4570 C.ar  1 <1>  -0.1500 
  9 C        7.8510    -0.3930    -0.1000 C.ar  1 <1>   0.0000 
 10 C        6.2910    -2.2060    -0.4900 C.ar  1 <1>  -0.1500 
 11 C        7.5960    -1.7450    -0.3110 C.ar  1 <1>  -0.1520 
 12 C        9.2500    -0.2750     0.0410 C.2   1 <1>  -0.1810 
 13 N        8.7920    -2.4190    -0.2970 N.pl3 1 <1>   0.0330 
 14 C        9.7860    -1.5090    -0.0760 C.2   1 <1>  -0.3320 
 15 C       10.0600     0.9820     0.2870 C.3   1 <1>   0.0210 
 16 C       11.2660    -1.8270     0.0150 C.3   1 <1>   0.0200 
 17 C       11.5520     0.7150     0.0060 C.3   1 <1>  -0.1600 
 18 C       12.0230    -0.6240     0.6080 C.3   1 <1>  -0.1600 
 19 H        4.0290     0.2600     1.7230 H     1 <1>   0.3700 
 20 H        1.8690     2.6630    -0.0980 H     1 <1>   0.0800 
 21 H        0.4240     1.9560     0.5800 H     1 <1>   0.0800 
 22 H        1.2790     1.1180    -0.6920 H     1 <1>   0.0800 
 23 H        4.6860     2.0480    -0.1900 H     1 <1>   0.0800 
 24 H        3.7280     0.9010    -1.1020 H     1 <1>   0.0800 
 25 H        7.0080     1.5520     0.1000 H     1 <1>   0.1500 
 26 H        4.2420    -1.6410    -0.5890 H     1 <1>   0.1500 
 27 H        6.1080    -3.2530    -0.6500 H     1 <1>   0.1500 
 28 H        8.9050    -3.4280    -0.4260 H     1 <1>   0.2700 
 29 H        9.9280     1.2780     1.3120 H     1 <1>   0.0800 
 30 H        9.7060     1.7750    -0.3470 H     1 <1>   0.0800 
 31 H       11.6380    -2.0400    -0.9720 H     1 <1>   0.0800 
 32 H       11.4240    -2.6930     0.6350 H     1 <1>   0.0800 
 33 H       12.1390     1.5240     0.4020 H     1 <1>   0.0800 
 34 H       11.7020     0.6870    -1.0600 H     1 <1>   0.0800 
 35 H       13.0790    -0.7500     0.4430 H     1 <1>   0.0800 
 36 H       11.8550    -0.6010     1.6710 H     1 <1>   0.0800 
@<TRIPOS>BOND
  1   1   2  2   
  2   2   3  am  
  3   2   4  1   
  4   3   5  1   
  5   3  19  1   
  6   4  20  1   
  7   4  21  1   
  8   4  22  1   
  9   5   6  1   
 10   5  23  1   
 11   5  24  1   
 12   6   7  ar  
 13   6   8  ar  
 14   7   9  ar  
 15   7  25  1   
 16   8  10  ar  
 17   8  26  1   
 18   9  11  ar  
 19   9  12  1   
 20  10  11  ar  
 21  10  27  1   
 22  11  13  1   
 23  12  14  2   
 24  12  15  1   
 25  13  14  1   
 26  13  28  1   
 27  14  16  1   
 28  15  17  1   
 29  15  29  1   
 30  15  30  1   
 31  16  18  1   
 32  16  31  1   
 33  16  32  1   
 34  17  18  1   
 35  17  33  1   
 36  17  34  1   
 37  18  35  1   
 38  18  36  1   
@<TRIPOS>SUBSTRUCTURE
  1 ****   7 GROUP 4 **** **** 0

# MOE 2024.06 (io_trps.svl 2023.06)
