@<TRIPOS>MOLECULE
3-tert-Butyl-6-(2,3-dihydro-benzo[1,4]dioxin-2-yl)-[1,2,4]triazolo[3,4-b][1,3,4]
38 41 1 0 0 
SMALL
USER_CHARGES


@<TRIPOS>ATOM
  1 S       -1.1570     0.3380     1.4370 S.3   1 <1>  -0.1970 
  2 C        0.0270     1.6260     1.3840 C.2   1 <1>   0.2420 
  3 C       -2.1340     1.2550     0.2670 C.2   1 <1>   0.5300 
  4 N        1.1610     1.8530     1.9390 N.2   1 <1>  -0.3380 
  5 N       -0.3920     2.5640     0.5510 N.pl3 1 <1>   0.5050 
  6 N       -1.6170     2.3600    -0.1000 N.2   1 <1>  -0.6520 
  7 C       -3.4490     0.6330    -0.1790 C.3   1 <1>   0.2610 
  8 N        1.5400     3.0450     1.4420 N.2   1 <1>  -0.3380 
  9 C        0.6140     3.4560     0.6210 C.2   1 <1>   0.0060 
 10 O       -4.2580     0.3500     0.9540 O.3   1 <1>  -0.3630 
 11 C       -3.2220    -0.6460    -0.9980 C.3   1 <1>   0.1200 
 12 C        0.6310     4.7700    -0.1740 C.3   1 <1>   0.1800 
 13 C       -5.3110    -0.4840     0.7650 C.ar  1 <1>   0.0820 
 14 O       -4.4620    -1.2260    -1.3530 O.3   1 <1>  -0.3630 
 15 C       -0.5830     5.6310     0.2060 C.3   1 <1>  -0.2400 
 16 C        1.9050     5.5760     0.1290 C.3   1 <1>  -0.2400 
 17 C        0.5980     4.4740    -1.6810 C.3   1 <1>  -0.2400 
 18 C       -5.4200    -1.2600    -0.3920 C.ar  1 <1>   0.0820 
 19 C       -6.2900    -0.5560     1.7400 C.ar  1 <1>  -0.1500 
 20 C       -6.5180    -2.0830    -0.5710 C.ar  1 <1>  -0.1500 
 21 C       -7.3850    -1.3860     1.5590 C.ar  1 <1>  -0.1500 
 22 C       -7.4990    -2.1460     0.4060 C.ar  1 <1>  -0.1500 
 23 H       -3.9810     1.3480    -0.7810 H     1 <1>   0.0800 
 24 H       -2.6690    -1.3720    -0.4280 H     1 <1>   0.0800 
 25 H       -2.6880    -0.4300    -1.9060 H     1 <1>   0.0800 
 26 H       -0.5820     5.8240     1.2650 H     1 <1>   0.0800 
 27 H       -1.5020     5.1370    -0.0490 H     1 <1>   0.0800 
 28 H       -0.5550     6.5740    -0.3120 H     1 <1>   0.0800 
 29 H        2.7790     5.0070    -0.1330 H     1 <1>   0.0800 
 30 H        1.9590     5.8090     1.1780 H     1 <1>   0.0800 
 31 H        1.9190     6.4970    -0.4250 H     1 <1>   0.0800 
 32 H        1.4320     3.8520    -1.9540 H     1 <1>   0.0800 
 33 H        0.6550     5.3880    -2.2460 H     1 <1>   0.0800 
 34 H       -0.3100     3.9680    -1.9540 H     1 <1>   0.0800 
 35 H       -6.1960     0.0380     2.6310 H     1 <1>   0.1500 
 36 H       -6.5990    -2.6710    -1.4670 H     1 <1>   0.1500 
 37 H       -8.1480    -1.4410     2.3160 H     1 <1>   0.1500 
 38 H       -8.3520    -2.7880     0.2670 H     1 <1>   0.1500 
@<TRIPOS>BOND
  1   1   2  1   
  2   1   3  1   
  3   2   4  2   
  4   2   5  1   
  5   3   6  2   
  6   3   7  1   
  7   4   8  1   
  8   5   6  1   
  9   5   9  1   
 10   7  10  1   
 11   7  11  1   
 12   7  23  1   
 13   8   9  2   
 14   9  12  1   
 15  10  13  1   
 16  11  14  1   
 17  11  24  1   
 18  11  25  1   
 19  12  15  1   
 20  12  16  1   
 21  12  17  1   
 22  13  18  ar  
 23  13  19  ar  
 24  14  18  1   
 25  15  26  1   
 26  15  27  1   
 27  15  28  1   
 28  16  29  1   
 29  16  30  1   
 30  16  31  1   
 31  17  32  1   
 32  17  33  1   
 33  17  34  1   
 34  18  20  ar  
 35  19  21  ar  
 36  19  35  1   
 37  20  22  ar  
 38  20  36  1   
 39  21  22  ar  
 40  21  37  1   
 41  22  38  1   
@<TRIPOS>SUBSTRUCTURE
  1 ****   3 GROUP 4 **** **** 0

# MOE 2024.06 (io_trps.svl 2023.06)
