@<TRIPOS>MOLECULE
2-(4-Chloro-phenoxy)-N-[2-(4-isobutyryl-piperazin-1-yl)-phenyl]-acetamide
55 57 1 0 0 
SMALL
USER_CHARGES


@<TRIPOS>ATOM
  1 CL       1.4880    -0.6780    -1.9430 Cl    1 <1>  -0.1770 
  2 C        2.8650     0.2390    -1.3870 C.ar  1 <1>   0.1770 
  3 C        2.6790     1.5330    -0.9350 C.ar  1 <1>  -0.1500 
  4 C        4.1200    -0.3420    -1.4060 C.ar  1 <1>  -0.1500 
  5 C        3.7700     2.2640    -0.4930 C.ar  1 <1>  -0.1500 
  6 C        5.2080     0.3900    -0.9640 C.ar  1 <1>  -0.1500 
  7 C        5.0410     1.6910    -0.5070 C.ar  1 <1>   0.0830 
  8 O        6.1600     2.3330    -0.0950 O.3   1 <1>  -0.3630 
  9 C        6.1260     3.6930     0.3280 C.3   1 <1>   0.1810 
 10 C        7.5160     4.1890     0.7090 C.2   1 <1>   0.5690 
 11 O        7.6330     5.3380     1.0640 O.2   1 <1>  -0.5700 
 12 N        8.5530     3.3090     0.6300 N.am  1 <1>  -0.5470 
 13 C        9.9310     3.3680     0.8840 C.ar  1 <1>   0.1170 
 14 C       10.6520     2.1820     0.6850 C.ar  1 <1>   0.1000 
 15 C       10.5930     4.5120     1.3070 C.ar  1 <1>  -0.1500 
 16 N        9.9840     1.0190     0.2610 N.pl3 1 <1>  -0.8380 
 17 C       12.0210     2.1760     0.9140 C.ar  1 <1>  -0.1500 
 18 C       11.9590     4.4900     1.5340 C.ar  1 <1>  -0.1500 
 19 C        9.7660    -0.0700     1.2640 C.3   1 <1>   0.2090 
 20 C       10.1840     0.5650    -1.1530 C.3   1 <1>   0.2090 
 21 C       12.6730     3.3220     1.3370 C.ar  1 <1>  -0.1500 
 22 C       10.7560    -1.2390     1.1020 C.3   1 <1>   0.1400 
 23 C       11.1720    -0.6090    -1.2610 C.3   1 <1>   0.1400 
 24 N       10.8060    -1.7110    -0.3170 N.am  1 <1>  -0.6600 
 25 C       10.3930    -2.9360    -0.7860 C.2   1 <1>   0.5690 
 26 O       10.2560    -3.1300    -1.9720 O.2   1 <1>  -0.5700 
 27 C       10.0750    -4.0940     0.1780 C.3   1 <1>  -0.0190 
 28 C       10.3640    -5.4770    -0.4360 C.3   1 <1>  -0.2400 
 29 C        8.6100    -4.0400     0.6450 C.3   1 <1>  -0.2400 
 30 H        1.6910     1.9580    -0.9320 H     1 <1>   0.1500 
 31 H        4.2380    -1.3490    -1.7630 H     1 <1>   0.1500 
 32 H        3.6080     3.2670    -0.1450 H     1 <1>   0.1500 
 33 H        6.1930    -0.0430    -0.9720 H     1 <1>   0.1500 
 34 H        5.4790     3.7690     1.1820 H     1 <1>   0.0800 
 35 H        5.7460     4.2920    -0.4780 H     1 <1>   0.0800 
 36 H        8.2990     2.3660     0.3120 H     1 <1>   0.3700 
 37 H       10.0460     5.4240     1.4620 H     1 <1>   0.1500 
 38 H       12.5780     1.2720     0.7620 H     1 <1>   0.1500 
 39 H       12.4610     5.3840     1.8620 H     1 <1>   0.1500 
 40 H        8.7630    -0.4420     1.1550 H     1 <1>   0.0800 
 41 H        9.8560     0.3380     2.2570 H     1 <1>   0.0800 
 42 H       10.5440     1.3880    -1.7460 H     1 <1>   0.0800 
 43 H        9.2360     0.2590    -1.5590 H     1 <1>   0.0800 
 44 H       13.7350     3.3050     1.5120 H     1 <1>   0.1500 
 45 H       10.4650    -2.0260     1.7690 H     1 <1>   0.0800 
 46 H       11.7360    -0.9100     1.3960 H     1 <1>   0.0800 
 47 H       12.1620    -0.2600    -1.0290 H     1 <1>   0.0800 
 48 H       11.1860    -0.9630    -2.2770 H     1 <1>   0.0800 
 49 H       10.7170    -4.0060     1.0340 H     1 <1>   0.0800 
 50 H        9.7280    -5.6510    -1.2870 H     1 <1>   0.0800 
 51 H       10.1950    -6.2550     0.2860 H     1 <1>   0.0800 
 52 H       11.3870    -5.5270    -0.7630 H     1 <1>   0.0800 
 53 H        7.9510    -4.1610    -0.1980 H     1 <1>   0.0800 
 54 H        8.3940    -3.0950     1.1100 H     1 <1>   0.0800 
 55 H        8.4110    -4.8240     1.3540 H     1 <1>   0.0800 
@<TRIPOS>BOND
  1   1   2  1   
  2   2   3  ar  
  3   2   4  ar  
  4   3   5  ar  
  5   3  30  1   
  6   4   6  ar  
  7   4  31  1   
  8   5   7  ar  
  9   5  32  1   
 10   6   7  ar  
 11   6  33  1   
 12   7   8  1   
 13   8   9  1   
 14   9  10  1   
 15   9  34  1   
 16   9  35  1   
 17  10  11  2   
 18  10  12  am  
 19  12  13  1   
 20  12  36  1   
 21  13  14  ar  
 22  13  15  ar  
 23  14  16  1   
 24  14  17  ar  
 25  15  18  ar  
 26  15  37  1   
 27  16  19  1   
 28  16  20  1   
 29  17  21  ar  
 30  17  38  1   
 31  18  21  ar  
 32  18  39  1   
 33  19  22  1   
 34  19  40  1   
 35  19  41  1   
 36  20  23  1   
 37  20  42  1   
 38  20  43  1   
 39  21  44  1   
 40  22  24  1   
 41  22  45  1   
 42  22  46  1   
 43  23  24  1   
 44  23  47  1   
 45  23  48  1   
 46  24  25  am  
 47  25  26  2   
 48  25  27  1   
 49  27  28  1   
 50  27  29  1   
 51  27  49  1   
 52  28  50  1   
 53  28  51  1   
 54  28  52  1   
 55  29  53  1   
 56  29  54  1   
 57  29  55  1   
@<TRIPOS>SUBSTRUCTURE
  1 ****  16 GROUP 4 **** **** 0

# MOE 2024.06 (io_trps.svl 2023.06)
