@<TRIPOS>MOLECULE
4-Chloro-N-[2-(4-isobutyryl-piperazin-1-yl)-phenyl]-benzamide
51 53 1 0 0 
SMALL
USER_CHARGES


@<TRIPOS>ATOM
  1 CL       0.1640     0.9420     2.3500 Cl    1 <1>  -0.1770 
  2 C        1.5970     1.7070     1.7220 C.ar  1 <1>   0.1770 
  3 C        1.4760     2.7800     0.8610 C.ar  1 <1>  -0.1500 
  4 C        2.8400     1.2320     2.0920 C.ar  1 <1>  -0.1500 
  5 C        2.6190     3.3800     0.3630 C.ar  1 <1>  -0.1500 
  6 C        3.9770     1.8410     1.5890 C.ar  1 <1>  -0.1500 
  7 C        3.8960     2.9250     0.7070 C.ar  1 <1>   0.0860 
  8 C        5.0820     3.5610     0.1590 C.2   1 <1>   0.5440 
  9 O        5.0450     4.7200    -0.2060 O.2   1 <1>  -0.5700 
 10 N        6.2380     2.8350     0.0390 N.am  1 <1>  -0.5470 
 11 C        7.5490     3.1110    -0.3790 C.ar  1 <1>   0.1170 
 12 C        8.4300     2.0190    -0.3970 C.ar  1 <1>   0.1000 
 13 C        8.0040     4.3660    -0.7580 C.ar  1 <1>  -0.1500 
 14 N        7.9730     0.7430    -0.0130 N.pl3 1 <1>  -0.8380 
 15 C        9.7440     2.2180    -0.7990 C.ar  1 <1>  -0.1500 
 16 C        9.3180     4.5480    -1.1550 C.ar  1 <1>  -0.1500 
 17 C        7.7430    -0.2580    -1.1040 C.3   1 <1>   0.2090 
 18 C        8.4900     0.1780     1.2780 C.3   1 <1>   0.2090 
 19 C       10.1880     3.4730    -1.1760 C.ar  1 <1>  -0.1500 
 20 C        8.8970    -1.2690    -1.2510 C.3   1 <1>   0.1400 
 21 C        9.6280    -0.8350     1.0770 C.3   1 <1>   0.1400 
 22 N        9.2510    -1.8740     0.0700 N.am  1 <1>  -0.6600 
 23 C        9.0700    -3.1850     0.4400 C.2   1 <1>   0.5690 
 24 O        9.1400    -3.5120     1.6030 O.2   1 <1>  -0.5700 
 25 C        8.7540    -4.2740    -0.6010 C.3   1 <1>  -0.0190 
 26 C        7.2390    -4.3930    -0.8390 C.3   1 <1>  -0.2400 
 27 C        9.3190    -5.6520    -0.2100 C.3   1 <1>  -0.2400 
 28 H        0.4990     3.1390     0.5880 H     1 <1>   0.1500 
 29 H        2.9100     0.3990     2.7690 H     1 <1>   0.1500 
 30 H        2.5300     4.2200    -0.3060 H     1 <1>   0.1500 
 31 H        4.9400     1.4710     1.8960 H     1 <1>   0.1500 
 32 H        6.1760     1.8390     0.2620 H     1 <1>   0.3700 
 33 H        7.3390     5.2090    -0.7450 H     1 <1>   0.1500 
 34 H       10.4240     1.3890    -0.8190 H     1 <1>   0.1500 
 35 H        9.6570     5.5270    -1.4470 H     1 <1>   0.1500 
 36 H        7.6040     0.2590    -2.0380 H     1 <1>   0.0800 
 37 H        6.8360    -0.7960    -0.8920 H     1 <1>   0.0800 
 38 H        7.6820    -0.3120     1.7920 H     1 <1>   0.0800 
 39 H        8.8370     0.9810     1.9060 H     1 <1>   0.0800 
 40 H       11.2090     3.6150    -1.4860 H     1 <1>   0.1500 
 41 H        9.7590    -0.7620    -1.6480 H     1 <1>   0.0800 
 42 H        8.6060    -2.0170    -1.9620 H     1 <1>   0.0800 
 43 H        9.8660    -1.2880     2.0230 H     1 <1>   0.0800 
 44 H       10.5090    -0.3200     0.7400 H     1 <1>   0.0800 
 45 H        9.2320    -4.0050    -1.5240 H     1 <1>   0.0800 
 46 H        6.7480    -4.6940     0.0700 H     1 <1>   0.0800 
 47 H        7.0340    -5.1240    -1.6010 H     1 <1>   0.0800 
 48 H        6.8280    -3.4500    -1.1490 H     1 <1>   0.0800 
 49 H        8.8580    -6.0040     0.6970 H     1 <1>   0.0800 
 50 H       10.3790    -5.5820    -0.0430 H     1 <1>   0.0800 
 51 H        9.1400    -6.3710    -0.9890 H     1 <1>   0.0800 
@<TRIPOS>BOND
  1   1   2  1   
  2   2   3  ar  
  3   2   4  ar  
  4   3   5  ar  
  5   3  28  1   
  6   4   6  ar  
  7   4  29  1   
  8   5   7  ar  
  9   5  30  1   
 10   6   7  ar  
 11   6  31  1   
 12   7   8  1   
 13   8   9  2   
 14   8  10  am  
 15  10  11  1   
 16  10  32  1   
 17  11  12  ar  
 18  11  13  ar  
 19  12  14  1   
 20  12  15  ar  
 21  13  16  ar  
 22  13  33  1   
 23  14  17  1   
 24  14  18  1   
 25  15  19  ar  
 26  15  34  1   
 27  16  19  ar  
 28  16  35  1   
 29  17  20  1   
 30  17  36  1   
 31  17  37  1   
 32  18  21  1   
 33  18  38  1   
 34  18  39  1   
 35  19  40  1   
 36  20  22  1   
 37  20  41  1   
 38  20  42  1   
 39  21  22  1   
 40  21  43  1   
 41  21  44  1   
 42  22  23  am  
 43  23  24  2   
 44  23  25  1   
 45  25  26  1   
 46  25  27  1   
 47  25  45  1   
 48  26  46  1   
 49  26  47  1   
 50  26  48  1   
 51  27  49  1   
 52  27  50  1   
 53  27  51  1   
@<TRIPOS>SUBSTRUCTURE
  1 ****  14 GROUP 4 **** **** 0

# MOE 2024.06 (io_trps.svl 2023.06)
