@<TRIPOS>MOLECULE
2-[(E)-2-(3-Ethoxy-4-propoxy-phenyl)-vinyl]-6-hydroxy-5-nitro-3H-pyrimidin-4-one
44 45 1 0 0 
SMALL
USER_CHARGES


@<TRIPOS>ATOM
  1 O        1.7130    -0.7000     1.0540 O.2   1 <1>  -0.5200 
  2 N        1.4640    -1.2990    -0.0260 N.pl3 1 <1>   0.8360 
  3 O        1.0710    -0.5980    -0.9950 O.2   1 <1>  -0.5200 
  4 C        1.3760    -2.6690    -0.0670 C.2   1 <1>   0.2190 
  5 C        2.4360    -3.5060    -0.4420 C.2   1 <1>   0.0210 
  6 C        0.1770    -3.2810     0.2800 C.2   1 <1>   0.6160 
  7 O        3.5340    -3.0620    -0.7650 O.3   1 <1>  -0.8500 
  8 N        2.3010    -4.8730    -0.4690 N.2   1 <1>  -0.6210 
  9 O       -0.8640    -2.7190     0.6340 O.2   1 <1>  -0.5700 
 10 N        0.1090    -4.6440     0.2340 N.am  1 <1>  -0.4900 
 11 C        1.1790    -5.4130    -0.1420 C.2   1 <1>   0.4960 
 12 C        1.0360    -6.8390    -0.1690 C.2   1 <1>  -0.1360 
 13 C       -0.0300    -7.6090     0.1630 C.2   1 <1>  -0.1780 
 14 C       -0.1320    -9.0450     0.1130 C.ar  1 <1>   0.0280 
 15 C        0.8020    -9.8420    -0.5470 C.ar  1 <1>  -0.1500 
 16 C       -1.1980    -9.6940     0.7350 C.ar  1 <1>  -0.1500 
 17 C        0.6880   -11.2210    -0.5710 C.ar  1 <1>   0.0830 
 18 C       -1.3300   -11.0710     0.7080 C.ar  1 <1>  -0.1500 
 19 O        1.6230   -11.9520    -1.2310 O.3   1 <1>  -0.3630 
 20 C       -0.3870   -11.8560     0.0530 C.ar  1 <1>   0.0830 
 21 C        2.9200   -12.0050    -0.6780 C.3   1 <1>   0.1200 
 22 O       -0.4530   -13.2160    -0.0040 O.3   1 <1>  -0.3630 
 23 C        2.9310   -12.9880     0.4940 C.3   1 <1>  -0.2400 
 24 C       -1.5600   -13.9660     0.4470 C.3   1 <1>   0.1200 
 25 C       -2.6950   -13.8800    -0.5810 C.3   1 <1>  -0.1600 
 26 C       -3.9050   -14.7140    -0.1460 C.3   1 <1>  -0.2400 
 27 H       -0.7790    -5.0590     0.4810 H     1 <1>   0.3700 
 28 H        1.9430    -7.3050    -0.5080 H     1 <1>   0.1500 
 29 H       -0.9260    -7.1340     0.5150 H     1 <1>   0.1500 
 30 H        1.6270    -9.3920    -1.0640 H     1 <1>   0.1500 
 31 H       -1.9400    -9.1120     1.2520 H     1 <1>   0.1500 
 32 H       -2.1720   -11.5130     1.2040 H     1 <1>   0.1500 
 33 H        3.5840   -12.3440    -1.4540 H     1 <1>   0.0800 
 34 H        3.2160   -11.0190    -0.3660 H     1 <1>   0.0800 
 35 H        2.5910   -13.9540     0.1650 H     1 <1>   0.0800 
 36 H        2.2920   -12.6350     1.2830 H     1 <1>   0.0800 
 37 H        3.9290   -13.0840     0.8790 H     1 <1>   0.0800 
 38 H       -1.2290   -14.9860     0.5380 H     1 <1>   0.0800 
 39 H       -1.8560   -13.6180     1.4190 H     1 <1>   0.0800 
 40 H       -3.0010   -12.8570    -0.7070 H     1 <1>   0.0800 
 41 H       -2.3350   -14.2450    -1.5280 H     1 <1>   0.0800 
 42 H       -4.2910   -14.3570     0.7930 H     1 <1>   0.0800 
 43 H       -3.6290   -15.7490    -0.0380 H     1 <1>   0.0800 
 44 H       -4.6830   -14.6430    -0.8850 H     1 <1>   0.0800 
@<TRIPOS>BOND
  1   1   2  2   
  2   2   3  2   
  3   2   4  1   
  4   4   5  2   
  5   4   6  1   
  6   5   7  1   
  7   5   8  1   
  8   6   9  2   
  9   6  10  am  
 10   8  11  2   
 11  10  11  1   
 12  10  27  1   
 13  11  12  1   
 14  12  13  2   
 15  12  28  1   
 16  13  14  1   
 17  13  29  1   
 18  14  15  ar  
 19  14  16  ar  
 20  15  17  ar  
 21  15  30  1   
 22  16  18  ar  
 23  16  31  1   
 24  17  19  1   
 25  17  20  ar  
 26  18  20  ar  
 27  18  32  1   
 28  19  21  1   
 29  20  22  1   
 30  21  23  1   
 31  21  33  1   
 32  21  34  1   
 33  22  24  1   
 34  23  35  1   
 35  23  36  1   
 36  23  37  1   
 37  24  25  1   
 38  24  38  1   
 39  24  39  1   
 40  25  26  1   
 41  25  40  1   
 42  25  41  1   
 43  26  42  1   
 44  26  43  1   
 45  26  44  1   
@<TRIPOS>SUBSTRUCTURE
  1 ****  13 GROUP 4 **** **** 0

# MOE 2024.06 (io_trps.svl 2023.06)
