@<TRIPOS>MOLECULE
4-(3-Bromo-benzoyl)-piperazine-1-sulfonic acid dimethylamide
39 40 1 0 0 
SMALL
USER_CHARGES


@<TRIPOS>ATOM
  1 BR      -1.8830     0.2020     1.6050 Br    1 <1>  -0.1110 
  2 C       -1.6780     1.7890     0.5370 C.ar  1 <1>   0.1110 
  3 C       -0.8190     2.7760     0.9750 C.ar  1 <1>  -0.1500 
  4 C       -2.3950     1.8960    -0.6380 C.ar  1 <1>  -0.1500 
  5 C       -0.6450     3.9300     0.2120 C.ar  1 <1>   0.0860 
  6 C       -2.2420     3.0430    -1.3970 C.ar  1 <1>  -0.1500 
  7 C        0.2610     4.9840     0.6260 C.2   1 <1>   0.5440 
  8 C       -1.3810     4.0420    -0.9710 C.ar  1 <1>  -0.1500 
  9 O       -0.1370     6.1330     0.6480 O.2   1 <1>  -0.5700 
 10 N        1.5670     4.7240     0.9840 N.am  1 <1>  -0.6600 
 11 C        2.4460     5.7750     1.5870 C.3   1 <1>   0.1400 
 12 C        2.3210     3.5000     0.5700 C.3   1 <1>   0.1400 
 13 C        3.6500     6.0710     0.6790 C.3   1 <1>   0.1960 
 14 C        3.5440     3.8670    -0.2900 C.3   1 <1>   0.1960 
 15 N        4.4120     4.8450     0.3800 N.am  1 <1>  -0.8490 
 16 S        5.7680     5.1760    -0.5660 S.o2  1 <1>   1.5760 
 17 O        6.4410     3.9300    -0.8570 O.2   1 <1>  -0.6500 
 18 O        5.3620     6.0610    -1.6350 O.2   1 <1>  -0.6500 
 19 N        6.7070     6.0400     0.5450 N.am  1 <1>  -0.8490 
 20 C        7.2200     5.1890     1.6220 C.3   1 <1>   0.1160 
 21 C        7.8090     6.7400    -0.1140 C.3   1 <1>   0.1160 
 22 H       -0.2870     2.6570     1.9020 H     1 <1>   0.1500 
 23 H       -3.0560     1.1060    -0.9470 H     1 <1>   0.1500 
 24 H       -2.7930     3.1600    -2.3150 H     1 <1>   0.1500 
 25 H       -1.2690     4.9370    -1.5610 H     1 <1>   0.1500 
 26 H        2.8020     5.4310     2.5420 H     1 <1>   0.0800 
 27 H        1.8960     6.6850     1.7520 H     1 <1>   0.0800 
 28 H        1.6930     2.8360     0.0040 H     1 <1>   0.0800 
 29 H        2.6550     2.9770     1.4490 H     1 <1>   0.0800 
 30 H        4.2880     6.7820     1.1750 H     1 <1>   0.0800 
 31 H        3.2950     6.5250    -0.2320 H     1 <1>   0.0800 
 32 H        3.2080     4.2630    -1.2350 H     1 <1>   0.0800 
 33 H        4.1040     2.9680    -0.4890 H     1 <1>   0.0800 
 34 H        6.4030     4.7020     2.1270 H     1 <1>   0.0800 
 35 H        7.7550     5.7860     2.3410 H     1 <1>   0.0800 
 36 H        7.8810     4.4350     1.2270 H     1 <1>   0.0800 
 37 H        7.4210     7.4210    -0.8540 H     1 <1>   0.0800 
 38 H        8.4640     6.0350    -0.6010 H     1 <1>   0.0800 
 39 H        8.3720     7.3080     0.6060 H     1 <1>   0.0800 
@<TRIPOS>BOND
  1   1   2  1   
  2   2   3  ar  
  3   2   4  ar  
  4   3   5  ar  
  5   3  22  1   
  6   4   6  ar  
  7   4  23  1   
  8   5   7  1   
  9   5   8  ar  
 10   6   8  ar  
 11   6  24  1   
 12   7   9  2   
 13   7  10  am  
 14   8  25  1   
 15  10  11  1   
 16  10  12  1   
 17  11  13  1   
 18  11  26  1   
 19  11  27  1   
 20  12  14  1   
 21  12  28  1   
 22  12  29  1   
 23  13  15  1   
 24  13  30  1   
 25  13  31  1   
 26  14  15  1   
 27  14  32  1   
 28  14  33  1   
 29  15  16  am  
 30  16  17  2   
 31  16  18  2   
 32  16  19  am  
 33  19  20  1   
 34  19  21  1   
 35  20  34  1   
 36  20  35  1   
 37  20  36  1   
 38  21  37  1   
 39  21  38  1   
 40  21  39  1   
@<TRIPOS>SUBSTRUCTURE
  1 ****  12 GROUP 4 **** **** 0

# MOE 2024.06 (io_trps.svl 2023.06)
