@<TRIPOS>MOLECULE
3-Allyl-8-furan-2-ylmethyl-1-methyl-5,6,7,8-tetrahydro-1H-1,3,4b,8,9-pentaaza-fl
45 48 1 0 0 
SMALL
USER_CHARGES


@<TRIPOS>ATOM
  1 O        1.6500    -0.0540    -1.2300 O.2   1 <1>  -0.5750 
  2 C        2.4820     0.7860    -0.9550 C.2   1 <1>   0.6860 
  3 N        2.1230     2.1250    -0.8700 N.am  1 <1>  -0.4260 
  4 N        3.7980     0.4060    -0.7240 N.am  1 <1>  -0.4420 
  5 C        3.0540     3.1100    -0.5810 C.2   1 <1>   0.6990 
  6 C        0.6880     2.4950    -0.9510 C.3   1 <1>   0.2710 
  7 C        4.7050     1.3880    -0.3830 C.2   1 <1>   0.4200 
  8 C        4.2180    -1.0240    -0.8040 C.3   1 <1>   0.0510 
  9 O        2.7500     4.2920    -0.5780 O.2   1 <1>  -0.5750 
 10 C        4.3950     2.6980    -0.3020 C.2   1 <1>   0.2700 
 11 C        0.0900     2.3980     0.4390 C.2   1 <1>  -0.2950 
 12 N        6.0210     1.2410    -0.0780 N.pl3 1 <1>  -0.7040 
 13 N        5.5810     3.3540     0.0680 N.pl3 1 <1>  -0.7680 
 14 C       -0.2980     3.4380     1.1840 C.2   1 <1>  -0.3070 
 15 C        6.5380     2.4360     0.1880 C.cat 1 <1>   1.0690 
 16 C        5.7510     4.7990     0.3090 C.3   1 <1>   0.3470 
 17 N        7.8090     2.7520     0.5260 N.pl3 1 <1>  -0.5970 
 18 C        6.9490     4.9890     1.2400 C.3   1 <1>  -0.1680 
 19 C        8.1700     4.1770     0.7870 C.3   1 <1>   0.1590 
 20 C        8.9820     1.8210     0.6170 C.3   1 <1>   0.3410 
 21 C        8.7180     0.4050     0.1300 C.2   1 <1>  -0.0490 
 22 O        8.0490    -0.4280     0.9070 O.3   1 <1>  -0.2870 
 23 C        9.0600    -0.2050    -1.0260 C.2   1 <1>  -0.1580 
 24 C        7.9620    -1.5830     0.2770 C.2   1 <1>  -0.0190 
 25 C        8.5600    -1.5100    -0.9300 C.2   1 <1>  -0.1580 
 26 H        0.1630     1.8380    -1.6250 H     1 <1>   0.0710 
 27 H        0.5830     3.4970    -1.3290 H     1 <1>   0.0710 
 28 H        3.5180    -1.5940    -1.3910 H     1 <1>   0.0710 
 29 H        4.2610    -1.4440     0.1860 H     1 <1>   0.0710 
 30 H        5.1860    -1.1030    -1.2680 H     1 <1>   0.0710 
 31 H        0.0040     1.3780     0.7780 H     1 <1>   0.1420 
 32 H        6.5730     0.3800    -0.0030 H     1 <1>   0.4440 
 33 H       -0.7240     3.3460     2.1690 H     1 <1>   0.1420 
 34 H       -0.2250     4.4670     0.8750 H     1 <1>   0.1420 
 35 H        4.8620     5.2080     0.7620 H     1 <1>   0.0710 
 36 H        5.9200     5.2990    -0.6300 H     1 <1>   0.0710 
 37 H        6.6740     4.6930     2.2380 H     1 <1>   0.0710 
 38 H        7.2060     6.0330     1.2790 H     1 <1>   0.0710 
 39 H        8.5770     4.6040    -0.1160 H     1 <1>   0.0710 
 40 H        8.9270     4.2290     1.5520 H     1 <1>   0.0710 
 41 H        9.3180     1.7750     1.6400 H     1 <1>   0.0710 
 42 H        9.7860     2.2280     0.0290 H     1 <1>   0.0710 
 43 H        9.6070     0.1830    -1.8690 H     1 <1>   0.1420 
 44 H        7.4660    -2.4090     0.7600 H     1 <1>   0.1420 
 45 H        8.6650    -2.2760    -1.6790 H     1 <1>   0.1420 
@<TRIPOS>BOND
  1   1   2  2   
  2   2   3  am  
  3   2   4  am  
  4   3   5  am  
  5   3   6  1   
  6   4   7  1   
  7   4   8  1   
  8   5   9  2   
  9   5  10  1   
 10   6  11  1   
 11   6  26  1   
 12   6  27  1   
 13   7  10  2   
 14   7  12  1   
 15   8  28  1   
 16   8  29  1   
 17   8  30  1   
 18  10  13  1   
 19  11  14  2   
 20  11  31  1   
 21  12  15  ar  
 22  12  32  1   
 23  13  15  ar  
 24  13  16  1   
 25  14  33  1   
 26  14  34  1   
 27  15  17  ar  
 28  16  18  1   
 29  16  35  1   
 30  16  36  1   
 31  17  19  1   
 32  17  20  1   
 33  18  19  1   
 34  18  37  1   
 35  18  38  1   
 36  19  39  1   
 37  19  40  1   
 38  20  21  1   
 39  20  41  1   
 40  20  42  1   
 41  21  22  1   
 42  21  23  2   
 43  22  24  1   
 44  23  25  1   
 45  23  43  1   
 46  24  25  2   
 47  24  44  1   
 48  25  45  1   
@<TRIPOS>SUBSTRUCTURE
  1 ****   7 GROUP 4 **** **** 0

# MOE 2024.06 (io_trps.svl 2023.06)
