@<TRIPOS>MOLECULE
4-Ethoxy-2,5-dimethyl-N-pyridin-2-ylmethyl-benzenesulfonamide
42 43 1 0 0 
SMALL
USER_CHARGES


@<TRIPOS>ATOM
  1 S       -0.1240    -1.8290    -0.5270 S.o2  1 <1>   1.4470 
  2 O       -0.2110    -3.1070     0.1460 O.2   1 <1>  -0.6500 
  3 O       -0.5370    -1.7390    -1.9080 O.2   1 <1>  -0.6500 
  4 N       -1.1840    -0.8220     0.2820 N.am  1 <1>  -0.9140 
  5 C        1.5080    -1.0650    -0.2500 C.ar  1 <1>  -0.0090 
  6 C       -2.4820    -1.4490     0.4550 C.3   1 <1>   0.3390 
  7 C        1.9230     0.1220    -0.8630 C.ar  1 <1>  -0.1440 
  8 C        2.3920    -1.6790     0.6310 C.ar  1 <1>  -0.1500 
  9 C       -3.5360    -0.3670     0.6630 C.ar  1 <1>   0.1660 
 10 C        3.1790     0.6460    -0.5940 C.ar  1 <1>  -0.1500 
 11 C        1.0310     0.8800    -1.8410 C.3   1 <1>  -0.0960 
 12 C        3.6460    -1.1630     0.9050 C.ar  1 <1>  -0.1430 
 13 N       -3.6570     0.5340    -0.3080 N.ar  1 <1>  -0.6200 
 14 C       -4.3000    -0.3640     1.8220 C.ar  1 <1>  -0.1500 
 15 C        4.0490     0.0130     0.2870 C.ar  1 <1>   0.0830 
 16 C        4.5700    -1.8830     1.8780 C.3   1 <1>  -0.0970 
 17 C       -4.5790     1.4650    -0.1140 C.ar  1 <1>   0.1600 
 18 C       -5.2550     0.6140     2.0080 C.ar  1 <1>  -0.1500 
 19 O        5.2880     0.4880     0.5790 O.3   1 <1>  -0.3630 
 20 C       -5.3890     1.5490     1.0050 C.ar  1 <1>  -0.1500 
 21 C        5.7910     1.6700     0.0030 C.3   1 <1>   0.1200 
 22 C        7.1960     1.9010     0.5500 C.3   1 <1>  -0.2400 
 23 H       -1.3880    -0.0680    -0.3760 H     1 <1>   0.4200 
 24 H       -2.4490    -2.1260     1.2920 H     1 <1>   0.0800 
 25 H       -2.7490    -2.0070    -0.4270 H     1 <1>   0.0800 
 26 H        2.0860    -2.5900     1.1170 H     1 <1>   0.1500 
 27 H        3.4740     1.5550    -1.0800 H     1 <1>   0.1500 
 28 H        1.4790     1.8120    -2.1340 H     1 <1>   0.0800 
 29 H        0.8750     0.2950    -2.7300 H     1 <1>   0.0800 
 30 H        0.0790     1.1010    -1.3940 H     1 <1>   0.0800 
 31 H       -4.1520    -1.1160     2.5750 H     1 <1>   0.1500 
 32 H        4.1080    -2.7710     2.2710 H     1 <1>   0.0800 
 33 H        4.8140    -1.2310     2.6970 H     1 <1>   0.0800 
 34 H        5.4790    -2.1610     1.3760 H     1 <1>   0.0800 
 35 H       -4.6950     2.2020    -0.8890 H     1 <1>   0.1500 
 36 H       -5.8640     0.6460     2.8940 H     1 <1>   0.1500 
 37 H       -6.1150     2.3380     1.0870 H     1 <1>   0.1500 
 38 H        5.1390     2.4840     0.2710 H     1 <1>   0.0800 
 39 H        5.8140     1.5440    -1.0660 H     1 <1>   0.0800 
 40 H        7.1630     2.0080     1.6190 H     1 <1>   0.0800 
 41 H        7.6090     2.7990     0.1270 H     1 <1>   0.0800 
 42 H        7.8340     1.0750     0.2910 H     1 <1>   0.0800 
@<TRIPOS>BOND
  1   1   2  2   
  2   1   3  2   
  3   1   4  am  
  4   1   5  1   
  5   4   6  1   
  6   4  23  1   
  7   5   7  ar  
  8   5   8  ar  
  9   6   9  1   
 10   6  24  1   
 11   6  25  1   
 12   7  10  ar  
 13   7  11  1   
 14   8  12  ar  
 15   8  26  1   
 16   9  13  ar  
 17   9  14  ar  
 18  10  15  ar  
 19  10  27  1   
 20  11  28  1   
 21  11  29  1   
 22  11  30  1   
 23  12  15  ar  
 24  12  16  1   
 25  13  17  ar  
 26  14  18  ar  
 27  14  31  1   
 28  15  19  1   
 29  16  32  1   
 30  16  33  1   
 31  16  34  1   
 32  17  20  ar  
 33  17  35  1   
 34  18  20  ar  
 35  18  36  1   
 36  19  21  1   
 37  20  37  1   
 38  21  22  1   
 39  21  38  1   
 40  21  39  1   
 41  22  40  1   
 42  22  41  1   
 43  22  42  1   
@<TRIPOS>SUBSTRUCTURE
  1 ****   5 GROUP 4 **** **** 0

# MOE 2024.06 (io_trps.svl 2023.06)
