@<TRIPOS>MOLECULE
1-(4-Chloro-phenyl)-5-oxo-pyrrolidine-3-carboxylic acid (tetrahydro-furan-2-ylme
41 43 1 0 0 
SMALL
USER_CHARGES


@<TRIPOS>ATOM
  1 CL      -1.2520     0.7940    -0.7790 Cl    1 <1>  -0.1770 
  2 C        0.0050     1.9760    -0.5150 C.ar  1 <1>   0.1770 
  3 C       -0.0320     2.7680     0.6160 C.ar  1 <1>  -0.1500 
  4 C        1.0220     2.1050    -1.4430 C.ar  1 <1>  -0.1500 
  5 C        0.9700     3.7010     0.8210 C.ar  1 <1>  -0.1500 
  6 C        2.0170     3.0420    -1.2300 C.ar  1 <1>  -0.1500 
  7 C        2.0100     3.8530    -0.0950 C.ar  1 <1>   0.1170 
  8 N        3.0350     4.7950     0.1230 N.am  1 <1>  -0.4770 
  9 C        2.9490     6.0260     0.7080 C.2   1 <1>   0.5690 
 10 C        4.4330     4.5120    -0.2690 C.3   1 <1>   0.1400 
 11 O        1.9580     6.5600     1.1390 O.2   1 <1>  -0.5700 
 12 C        4.2910     6.6980     0.7760 C.3   1 <1>  -0.0990 
 13 C        5.2700     5.5480     0.4950 C.3   1 <1>  -0.0190 
 14 C        6.5350     5.9640    -0.2410 C.2   1 <1>   0.5690 
 15 O        6.9330     5.2900    -1.1580 O.2   1 <1>  -0.5700 
 16 N        7.1970     7.0760     0.1730 N.am  1 <1>  -0.7300 
 17 C        8.4290     7.6200    -0.4690 C.3   1 <1>   0.1400 
 18 C        9.6860     7.2570     0.3330 C.3   1 <1>   0.2000 
 19 O       10.7930     7.8750    -0.2460 O.3   1 <1>  -0.5600 
 20 C       10.0140     5.7690     0.3600 C.3   1 <1>  -0.1600 
 21 C       11.9230     7.0560    -0.2160 C.3   1 <1>   0.1200 
 22 C       11.5210     5.7750     0.5020 C.3   1 <1>  -0.1600 
 23 H       -0.8330     2.6550     1.3240 H     1 <1>   0.1500 
 24 H        1.0270     1.4800    -2.3170 H     1 <1>   0.1500 
 25 H        0.9420     4.3190     1.7010 H     1 <1>   0.1500 
 26 H        2.8000     3.1450    -1.9590 H     1 <1>   0.1500 
 27 H        4.5280     4.6470    -1.3330 H     1 <1>   0.0800 
 28 H        4.7140     3.5070    -0.0030 H     1 <1>   0.0800 
 29 H        4.4500     7.1410     1.7410 H     1 <1>   0.0800 
 30 H        4.3330     7.4500     0.0080 H     1 <1>   0.0800 
 31 H        5.5620     5.1030     1.4290 H     1 <1>   0.0800 
 32 H        6.8510     7.6100     0.9720 H     1 <1>   0.3700 
 33 H        8.3460     8.6910    -0.5330 H     1 <1>   0.0800 
 34 H        8.5220     7.2260    -1.4670 H     1 <1>   0.0800 
 35 H        9.6110     7.6400     1.3360 H     1 <1>   0.0800 
 36 H        9.7280     5.3160    -0.5740 H     1 <1>   0.0800 
 37 H        9.5180     5.2610     1.1660 H     1 <1>   0.0800 
 38 H       12.7190     7.5740     0.2890 H     1 <1>   0.0800 
 39 H       12.2050     6.8550    -1.2360 H     1 <1>   0.0800 
 40 H       11.9820     4.9060     0.0670 H     1 <1>   0.0800 
 41 H       11.8010     5.8450     1.5390 H     1 <1>   0.0800 
@<TRIPOS>BOND
  1   1   2  1   
  2   2   3  ar  
  3   2   4  ar  
  4   3   5  ar  
  5   3  23  1   
  6   4   6  ar  
  7   4  24  1   
  8   5   7  ar  
  9   5  25  1   
 10   6   7  ar  
 11   6  26  1   
 12   7   8  1   
 13   8   9  am  
 14   8  10  1   
 15   9  11  2   
 16   9  12  1   
 17  10  13  1   
 18  10  27  1   
 19  10  28  1   
 20  12  13  1   
 21  12  29  1   
 22  12  30  1   
 23  13  14  1   
 24  13  31  1   
 25  14  15  2   
 26  14  16  am  
 27  16  17  1   
 28  16  32  1   
 29  17  18  1   
 30  17  33  1   
 31  17  34  1   
 32  18  19  1   
 33  18  20  1   
 34  18  35  1   
 35  19  21  1   
 36  20  22  1   
 37  20  36  1   
 38  20  37  1   
 39  21  22  1   
 40  21  38  1   
 41  21  39  1   
 42  22  40  1   
 43  22  41  1   
@<TRIPOS>SUBSTRUCTURE
  1 ****  13 GROUP 4 **** **** 0

# MOE 2024.06 (io_trps.svl 2023.06)
