@<TRIPOS>MOLECULE
NONAME
35 39 1 0 0 
SMALL
USER_CHARGES


@<TRIPOS>ATOM
  1 F       -0.2660     2.0640     2.3890 F     1 <1>  -0.1900 
  2 C        0.4610     2.2400     1.3140 C.ar  1 <1>   0.1900 
  3 C       -0.1600     2.6000     0.1200 C.ar  1 <1>   0.1170 
  4 C        1.8250     2.0470     1.4180 C.ar  1 <1>  -0.1500 
  5 N       -1.5520     2.8040     0.0340 N.am  1 <1>  -0.2370 
  6 C        0.6490     2.7500    -1.0010 C.ar  1 <1>  -0.1500 
  7 C        2.6100     2.2100     0.2880 C.ar  1 <1>  -0.1500 
  8 C       -2.4340     2.0150    -0.6820 C.2   1 <1>   0.5690 
  9 C       -2.2620     3.7580     0.7390 C.2   1 <1>   0.5690 
 10 C        2.0190     2.5580    -0.9170 C.ar  1 <1>  -0.1500 
 11 O       -2.2000     0.9940    -1.2740 O.2   1 <1>  -0.5700 
 12 C       -3.7690     2.7040    -0.6570 C.3   1 <1>  -0.0190 
 13 O       -1.8420     4.7570     1.2640 O.2   1 <1>  -0.5700 
 14 C       -3.6990     3.3250     0.7460 C.3   1 <1>  -0.0190 
 15 C       -5.2320     2.2620    -0.9580 C.3   1 <1>   0.1530 
 16 C       -5.0550     4.0100     1.0620 C.3   1 <1>   0.1530 
 17 C       -5.9510     1.8630     0.3390 C.2   1 <1>  -0.2880 
 18 C       -5.8800     3.6300    -1.3470 C.3   1 <1>  -0.1950 
 19 C       -5.9040     2.7590     1.3380 C.2   1 <1>  -0.2880 
 20 C       -5.6620     4.6410    -0.2310 C.3   1 <1>  -0.1950 
 21 C       -7.0460     4.3690    -0.7410 C.3   1 <1>  -0.2000 
 22 H        2.2610     1.7740     2.3620 H     1 <1>   0.1500 
 23 H        0.2060     3.0160    -1.9450 H     1 <1>   0.1500 
 24 H        3.6760     2.0640     0.3450 H     1 <1>   0.1500 
 25 H        2.6310     2.6800    -1.7950 H     1 <1>   0.1500 
 26 H       -3.5710     3.4830    -1.3770 H     1 <1>   0.0800 
 27 H       -3.6370     2.5230     1.4670 H     1 <1>   0.0800 
 28 H       -5.3110     1.5300    -1.7430 H     1 <1>   0.0800 
 29 H       -5.0170     4.6770     1.9060 H     1 <1>   0.0800 
 30 H       -6.4640     0.9160     0.3380 H     1 <1>   0.1500 
 31 H       -5.6330     3.9210    -2.3550 H     1 <1>   0.1000 
 32 H       -6.3740     2.6870     2.3040 H     1 <1>   0.1500 
 33 H       -5.1980     5.5770    -0.4950 H     1 <1>   0.1000 
 34 H       -7.7600     3.8290    -0.1430 H     1 <1>   0.1000 
 35 H       -7.5270     5.1300    -1.3300 H     1 <1>   0.1000 
@<TRIPOS>BOND
  1   1   2  1   
  2   2   3  ar  
  3   2   4  ar  
  4   3   5  1   
  5   3   6  ar  
  6   4   7  ar  
  7   4  22  1   
  8   5   8  am  
  9   5   9  am  
 10   6  10  ar  
 11   6  23  1   
 12   7  10  ar  
 13   7  24  1   
 14   8  11  2   
 15   8  12  1   
 16   9  13  2   
 17   9  14  1   
 18  10  25  1   
 19  12  14  1   
 20  12  15  1   
 21  12  26  1   
 22  14  16  1   
 23  14  27  1   
 24  15  17  1   
 25  15  18  1   
 26  15  28  1   
 27  16  19  1   
 28  16  20  1   
 29  16  29  1   
 30  17  19  2   
 31  17  30  1   
 32  18  20  1   
 33  18  21  1   
 34  18  31  1   
 35  19  32  1   
 36  20  21  1   
 37  20  33  1   
 38  21  34  1   
 39  21  35  1   
@<TRIPOS>SUBSTRUCTURE
  1 ****   5 GROUP 4 **** **** 0

# MOE 2024.06 (io_trps.svl 2023.06)
