@<TRIPOS>MOLECULE
5-Fluoro-N-(3-imidazol-1-yl-propyl)-2-methoxy-benzenesulfonamide
37 38 1 0 0 
SMALL
USER_CHARGES


@<TRIPOS>ATOM
  1 S        0.0780     0.3940     1.7540 S.o2  1 <1>   1.4470 
  2 O        0.1460     1.6060     2.5390 O.2   1 <1>  -0.6500 
  3 O        0.1650    -0.8670     2.4510 O.2   1 <1>  -0.6500 
  4 N       -1.4540     0.3510     1.0690 N.am  1 <1>  -0.9140 
  5 C        1.2230     0.3800     0.3480 C.ar  1 <1>  -0.0090 
  6 C       -1.9580     1.6340     0.6210 C.3   1 <1>   0.1960 
  7 C        1.5670     1.5440    -0.3430 C.ar  1 <1>   0.0830 
  8 C        1.7800    -0.8180    -0.0870 C.ar  1 <1>  -0.1500 
  9 C       -3.3860     1.4420     0.1210 C.3   1 <1>  -0.1600 
 10 O        1.0380     2.7300     0.0160 O.3   1 <1>  -0.3620 
 11 C        2.4350     1.5190    -1.4300 C.ar  1 <1>  -0.1500 
 12 C        2.6450    -0.8260    -1.1640 C.ar  1 <1>   0.1900 
 13 C       -3.9490     2.7530    -0.4400 C.3   1 <1>   0.0960 
 14 C        1.8870     3.6150     0.7150 C.3   1 <1>   0.0400 
 15 C        2.9870     0.3230    -1.8480 C.ar  1 <1>  -0.1500 
 16 F        3.1570    -1.9640    -1.5510 F     1 <1>  -0.1900 
 17 N       -5.3430     2.5600    -0.8840 N.pl3 1 <1>   0.0480 
 18 C       -5.7790     2.1490    -2.0960 C.2   1 <1>   0.0360 
 19 C       -6.4630     2.7460    -0.1630 C.2   1 <1>  -0.3020 
 20 N       -7.0660     2.0640    -2.1910 N.2   1 <1>  -0.5650 
 21 C       -7.5000     2.4400    -0.9740 C.2   1 <1>   0.0770 
 22 H       -2.0370     0.0180     1.8340 H     1 <1>   0.4200 
 23 H       -1.3410     2.0030    -0.1820 H     1 <1>   0.0800 
 24 H       -1.9430     2.3490     1.4290 H     1 <1>   0.0800 
 25 H        1.5450    -1.7440     0.4080 H     1 <1>   0.1500 
 26 H       -4.0070     1.1090     0.9350 H     1 <1>   0.0800 
 27 H       -3.3900     0.6950    -0.6550 H     1 <1>   0.0800 
 28 H        2.6710     2.4330    -1.9460 H     1 <1>   0.1500 
 29 H       -3.3630     3.0830    -1.2790 H     1 <1>   0.0800 
 30 H       -3.9340     3.5200     0.3130 H     1 <1>   0.0800 
 31 H        1.3220     4.4940     0.9710 H     1 <1>   0.0800 
 32 H        2.7180     3.8820     0.0860 H     1 <1>   0.0800 
 33 H        2.2340     3.1320     1.6120 H     1 <1>   0.0800 
 34 H        3.6620     0.2760    -2.6840 H     1 <1>   0.1500 
 35 H       -5.1020     1.9170    -2.8980 H     1 <1>   0.1500 
 36 H       -6.4670     3.0750     0.8590 H     1 <1>   0.1500 
 37 H       -8.5520     2.4710    -0.7420 H     1 <1>   0.1500 
@<TRIPOS>BOND
  1   1   2  2   
  2   1   3  2   
  3   1   4  am  
  4   1   5  1   
  5   4   6  1   
  6   4  22  1   
  7   5   7  ar  
  8   5   8  ar  
  9   6   9  1   
 10   6  23  1   
 11   6  24  1   
 12   7  10  1   
 13   7  11  ar  
 14   8  12  ar  
 15   8  25  1   
 16   9  13  1   
 17   9  26  1   
 18   9  27  1   
 19  10  14  1   
 20  11  15  ar  
 21  11  28  1   
 22  12  15  ar  
 23  12  16  1   
 24  13  17  1   
 25  13  29  1   
 26  13  30  1   
 27  14  31  1   
 28  14  32  1   
 29  14  33  1   
 30  15  34  1   
 31  17  18  1   
 32  17  19  1   
 33  18  20  2   
 34  18  35  1   
 35  19  21  2   
 36  19  36  1   
 37  20  21  1   
 38  21  37  1   
@<TRIPOS>SUBSTRUCTURE
  1 ****   6 GROUP 4 **** **** 0

# MOE 2024.06 (io_trps.svl 2023.06)
