@<TRIPOS>MOLECULE
1-(2-Cyano-ethyl)-3-(4-fluoro-phenyl)-1H-pyrazole-4-carboxylic acid diethylamide
42 43 1 0 0 
SMALL
USER_CHARGES


@<TRIPOS>ATOM
  1 F       -0.2380    -1.3420     0.1180 F     1 <1>  -0.1900 
  2 C        0.7080    -2.2210    -0.0770 C.ar  1 <1>   0.1900 
  3 C        1.9190    -2.0550     0.5650 C.ar  1 <1>  -0.1500 
  4 C        0.4640    -3.2900    -0.9170 C.ar  1 <1>  -0.1500 
  5 C        2.9150    -2.9920     0.3540 C.ar  1 <1>  -0.1500 
  6 C        1.4730    -4.2160    -1.1160 C.ar  1 <1>  -0.1500 
  7 C        2.7170    -4.0870    -0.4930 C.ar  1 <1>   0.0540 
  8 C        3.7490    -5.0790    -0.7210 C.2   1 <1>   0.2350 
  9 N        3.4990    -6.3650    -0.7350 N.2   1 <1>  -0.7070 
 10 C        5.1160    -4.8290    -0.9420 C.2   1 <1>  -0.0860 
 11 N        4.6740    -6.9620    -0.9600 N.pl3 1 <1>   0.3140 
 12 C        5.7470    -3.5360    -1.0200 C.2   1 <1>   0.7160 
 13 C        5.6590    -6.0680    -1.0830 C.2   1 <1>  -0.3020 
 14 C        4.7920    -8.4270    -1.0580 C.3   1 <1>   0.0960 
 15 O        5.3090    -2.7040    -1.7930 O.2   1 <1>  -0.5700 
 16 N        6.8370    -3.2140    -0.2310 N.am  1 <1>  -0.6600 
 17 C        4.1090    -9.1040     0.1330 C.3   1 <1>   0.0400 
 18 C        7.5510    -1.9210    -0.4190 C.3   1 <1>   0.1400 
 19 C        7.2020    -3.9840     0.9900 C.3   1 <1>   0.1400 
 20 C        4.3280   -10.5710     0.0690 C.1   1 <1>   0.3570 
 21 C        8.5290    -2.0340    -1.5860 C.3   1 <1>  -0.2400 
 22 C        8.5430    -4.6870     0.7930 C.3   1 <1>  -0.2400 
 23 N        4.5250   -11.6870    -0.0040 N.1   1 <1>  -0.5570 
 24 H        2.0730    -1.2110     1.2120 H     1 <1>   0.1500 
 25 H       -0.4900    -3.3910    -1.4000 H     1 <1>   0.1500 
 26 H        3.8590    -2.8720     0.8540 H     1 <1>   0.1500 
 27 H        1.3070    -5.0590    -1.7640 H     1 <1>   0.1500 
 28 H        6.6830    -6.3310    -1.2750 H     1 <1>   0.1500 
 29 H        5.8340    -8.6880    -1.0870 H     1 <1>   0.0800 
 30 H        4.3300    -8.7410    -1.9770 H     1 <1>   0.0800 
 31 H        3.0500    -8.9130     0.1140 H     1 <1>   0.0800 
 32 H        4.5170    -8.7330     1.0560 H     1 <1>   0.0800 
 33 H        8.0830    -1.6570     0.4790 H     1 <1>   0.0800 
 34 H        6.8370    -1.1390    -0.6210 H     1 <1>   0.0800 
 35 H        6.4440    -4.7150     1.2150 H     1 <1>   0.0800 
 36 H        7.2600    -3.3140     1.8310 H     1 <1>   0.0800 
 37 H        9.2510    -2.8090    -1.4070 H     1 <1>   0.0800 
 38 H        9.0500    -1.1030    -1.7120 H     1 <1>   0.0800 
 39 H        7.9950    -2.2480    -2.4950 H     1 <1>   0.0800 
 40 H        8.5190    -5.3030    -0.0880 H     1 <1>   0.0800 
 41 H        8.7510    -5.3110     1.6430 H     1 <1>   0.0800 
 42 H        9.3360    -3.9670     0.7040 H     1 <1>   0.0800 
@<TRIPOS>BOND
  1   1   2  1   
  2   2   3  ar  
  3   2   4  ar  
  4   3   5  ar  
  5   3  24  1   
  6   4   6  ar  
  7   4  25  1   
  8   5   7  ar  
  9   5  26  1   
 10   6   7  ar  
 11   6  27  1   
 12   7   8  1   
 13   8   9  2   
 14   8  10  1   
 15   9  11  1   
 16  10  12  1   
 17  10  13  2   
 18  11  13  1   
 19  11  14  1   
 20  12  15  2   
 21  12  16  am  
 22  13  28  1   
 23  14  17  1   
 24  14  29  1   
 25  14  30  1   
 26  16  18  1   
 27  16  19  1   
 28  17  20  1   
 29  17  31  1   
 30  17  32  1   
 31  18  21  1   
 32  18  33  1   
 33  18  34  1   
 34  19  22  1   
 35  19  35  1   
 36  19  36  1   
 37  20  23  3   
 38  21  37  1   
 39  21  38  1   
 40  21  39  1   
 41  22  40  1   
 42  22  41  1   
 43  22  42  1   
@<TRIPOS>SUBSTRUCTURE
  1 ****   8 GROUP 4 **** **** 0

# MOE 2024.06 (io_trps.svl 2023.06)
