@<TRIPOS>MOLECULE
7-Allyl-8-(3-methoxy-propylamino)-3-methyl-3,7-dihydro-purine-2,6-dione
41 42 1 0 0 
SMALL
USER_CHARGES


@<TRIPOS>ATOM
  1 O        0.9970    -0.0740    -1.5150 O.2   1 <1>  -0.5760 
  2 C        1.8920     0.6690    -1.1880 C.2   1 <1>   0.6850 
  3 N        3.1120     0.2020    -0.7180 N.am  1 <1>  -0.4430 
  4 N        1.6870     2.0150    -1.2850 N.am  1 <1>  -0.4970 
  5 C        4.0660     1.1420    -0.3610 C.2   1 <1>   0.4190 
  6 C        3.3910    -1.2600    -0.6100 C.3   1 <1>   0.0500 
  7 C        2.6190     2.9520    -0.9420 C.2   1 <1>   0.6980 
  8 N        5.3120     0.9150     0.1340 N.pl3 1 <1>  -0.7050 
  9 C        3.8830     2.4790    -0.4580 C.2   1 <1>   0.2690 
 10 O        2.3420     4.1300    -1.0520 O.2   1 <1>  -0.5760 
 11 C        5.9010     2.0910     0.3300 C.cat 1 <1>   1.0680 
 12 N        5.0780     3.0800    -0.0160 N.pl3 1 <1>  -0.7680 
 13 N        7.1360     2.2350     0.7980 N.pl3 1 <1>  -0.7190 
 14 C        5.2740     4.5480     0.0760 C.3   1 <1>   0.4860 
 15 C        8.1010     1.1830     1.1820 C.3   1 <1>   0.1580 
 16 C        6.7000     4.8920    -0.3100 C.2   1 <1>  -0.2960 
 17 C        8.6680     0.5400    -0.0800 C.3   1 <1>  -0.1690 
 18 C        7.6430     5.3660     0.5120 C.2   1 <1>  -0.3080 
 19 C        9.6210    -0.6020     0.2600 C.3   1 <1>   0.1100 
 20 O        9.8380    -1.2970    -0.9170 O.3   1 <1>  -0.5660 
 21 C       10.7550    -2.3360    -0.7990 C.3   1 <1>   0.0300 
 22 H        0.7810     2.3260    -1.6300 H     1 <1>   0.3620 
 23 H        2.5790    -1.8380    -1.0190 H     1 <1>   0.0700 
 24 H        3.5140    -1.5330     0.4240 H     1 <1>   0.0700 
 25 H        4.2860    -1.5050    -1.1550 H     1 <1>   0.0700 
 26 H        5.7600     0.0170     0.2900 H     1 <1>   0.4430 
 27 H        7.5140     3.1890     0.7660 H     1 <1>   0.4430 
 28 H        5.0700     4.8720     1.0830 H     1 <1>   0.0700 
 29 H        4.5990     5.0630    -0.5870 H     1 <1>   0.0700 
 30 H        7.6100     0.4410     1.7900 H     1 <1>   0.0700 
 31 H        8.8970     1.6210     1.7630 H     1 <1>   0.0700 
 32 H        6.8880     4.7190    -1.3580 H     1 <1>   0.1410 
 33 H        9.2060     1.2730    -0.6560 H     1 <1>   0.0700 
 34 H        7.8700     0.1400    -0.6790 H     1 <1>   0.0700 
 35 H        8.6460     5.6110     0.1960 H     1 <1>   0.1410 
 36 H        7.5050     5.5720     1.5620 H     1 <1>   0.1410 
 37 H        9.1850    -1.2800     0.9740 H     1 <1>   0.0700 
 38 H       10.5620    -0.2270     0.6280 H     1 <1>   0.0700 
 39 H       10.8450    -2.8130    -1.7590 H     1 <1>   0.0700 
 40 H       10.4000    -3.0460    -0.0730 H     1 <1>   0.0700 
 41 H       11.7100    -1.9350    -0.5040 H     1 <1>   0.0700 
@<TRIPOS>BOND
  1   1   2  2   
  2   2   3  am  
  3   2   4  am  
  4   3   5  1   
  5   3   6  1   
  6   4   7  am  
  7   4  22  1   
  8   5   8  1   
  9   5   9  2   
 10   6  23  1   
 11   6  24  1   
 12   6  25  1   
 13   7   9  1   
 14   7  10  2   
 15   8  11  ar  
 16   8  26  1   
 17   9  12  1   
 18  11  12  ar  
 19  11  13  ar  
 20  12  14  1   
 21  13  15  1   
 22  13  27  1   
 23  14  16  1   
 24  14  28  1   
 25  14  29  1   
 26  15  17  1   
 27  15  30  1   
 28  15  31  1   
 29  16  18  2   
 30  16  32  1   
 31  17  19  1   
 32  17  33  1   
 33  17  34  1   
 34  18  35  1   
 35  18  36  1   
 36  19  20  1   
 37  19  37  1   
 38  19  38  1   
 39  20  21  1   
 40  21  39  1   
 41  21  40  1   
 42  21  41  1   
@<TRIPOS>SUBSTRUCTURE
  1 ****   8 GROUP 4 **** **** 0

# MOE 2024.06 (io_trps.svl 2023.06)
