@<TRIPOS>MOLECULE
1-[3-(3,4-Dimethoxy-phenyl)-[1,2,4]oxadiazol-5-ylmethyl]-4-phenyl-piperazine
52 55 1 0 0 
SMALL
USER_CHARGES


@<TRIPOS>ATOM
  1 O       -0.5260    -0.4510     1.8410 O.3   1 <1>  -0.0190 
  2 N       -1.7510    -0.1960     1.5050 N.2   1 <1>  -0.4100 
  3 C       -0.2030    -1.4870     1.1100 C.2   1 <1>   0.2980 
  4 C       -2.1070    -1.0580     0.6190 C.2   1 <1>   0.4620 
  5 N       -1.1220    -1.9210     0.3480 N.2   1 <1>  -0.5650 
  6 C        1.1980    -2.0760     1.2620 C.3   1 <1>   0.2900 
  7 C       -3.4050    -1.1250    -0.0310 C.ar  1 <1>   0.0540 
  8 N        2.2490    -1.3640     0.4930 N.3   1 <1>  -0.8100 
  9 C       -4.4400    -0.2620     0.3260 C.ar  1 <1>  -0.1500 
 10 C       -3.6770    -2.0530    -1.0360 C.ar  1 <1>  -0.1500 
 11 C        3.5290    -2.1090     0.5520 C.3   1 <1>   0.1100 
 12 C        2.4540     0.0290     0.9660 C.3   1 <1>   0.1100 
 13 C       -5.6860    -0.3100    -0.2750 C.ar  1 <1>   0.0820 
 14 C       -4.9100    -2.1120    -1.6590 C.ar  1 <1>  -0.1500 
 15 C        4.6520    -1.4110    -0.2380 C.3   1 <1>   0.2090 
 16 C        3.5710     0.7550     0.1930 C.3   1 <1>   0.2090 
 17 O       -6.5910     0.5920     0.1970 O.3   1 <1>  -0.3630 
 18 C       -5.9320    -1.2400    -1.2970 C.ar  1 <1>   0.0820 
 19 N        4.8460    -0.0150     0.2450 N.pl3 1 <1>  -0.8380 
 20 C       -7.9490     0.2370     0.3400 C.3   1 <1>   0.0400 
 21 O       -7.1440    -1.2620    -1.9230 O.3   1 <1>  -0.3630 
 22 C        5.9770     0.6430    -0.2210 C.ar  1 <1>   0.1000 
 23 C       -7.3820    -2.0470    -3.0700 C.3   1 <1>   0.0400 
 24 C        6.1330     0.9720    -1.5640 C.ar  1 <1>  -0.1500 
 25 C        6.9840     0.9870     0.6700 C.ar  1 <1>  -0.1500 
 26 C        7.2680     1.6270    -2.0030 C.ar  1 <1>  -0.1500 
 27 C        8.1220     1.6420     0.2360 C.ar  1 <1>  -0.1500 
 28 C        8.2660     1.9640    -1.1030 C.ar  1 <1>  -0.1500 
 29 H        1.1530    -3.0940     0.9160 H     1 <1>   0.0800 
 30 H        1.4590    -2.0940     2.3060 H     1 <1>   0.0800 
 31 H       -4.2770     0.4700     1.0960 H     1 <1>   0.1500 
 32 H       -2.9050    -2.7390    -1.3390 H     1 <1>   0.1500 
 33 H        3.3870    -3.0950     0.1430 H     1 <1>   0.0800 
 34 H        3.8480    -2.2110     1.5750 H     1 <1>   0.0800 
 35 H        2.7080     0.0280     2.0130 H     1 <1>   0.0800 
 36 H        1.5480     0.5930     0.8390 H     1 <1>   0.0800 
 37 H       -5.0490    -2.8490    -2.4260 H     1 <1>   0.1500 
 38 H        4.3980    -1.4020    -1.2830 H     1 <1>   0.0800 
 39 H        5.5710    -1.9580    -0.1180 H     1 <1>   0.0800 
 40 H        3.7290     1.7300     0.6200 H     1 <1>   0.0800 
 41 H        3.2660     0.8820    -0.8310 H     1 <1>   0.0800 
 42 H       -8.3910     0.8900     1.0700 H     1 <1>   0.0800 
 43 H       -8.0130    -0.7850     0.6700 H     1 <1>   0.0800 
 44 H       -8.4420     0.3640    -0.6070 H     1 <1>   0.0800 
 45 H       -8.3770    -1.8350    -3.4180 H     1 <1>   0.0800 
 46 H       -7.3020    -3.0860    -2.8060 H     1 <1>   0.0800 
 47 H       -6.6670    -1.7830    -3.8290 H     1 <1>   0.0800 
 48 H        5.3580     0.7110    -2.2600 H     1 <1>   0.1500 
 49 H        6.8600     0.7320     1.7060 H     1 <1>   0.1500 
 50 H        7.3780     1.8760    -3.0440 H     1 <1>   0.1500 
 51 H        8.8940     1.9020     0.9390 H     1 <1>   0.1500 
 52 H        9.1500     2.4740    -1.4430 H     1 <1>   0.1500 
@<TRIPOS>BOND
  1   1   2  1   
  2   1   3  1   
  3   2   4  2   
  4   3   5  2   
  5   3   6  1   
  6   4   5  1   
  7   4   7  1   
  8   6   8  1   
  9   6  29  1   
 10   6  30  1   
 11   7   9  ar  
 12   7  10  ar  
 13   8  11  1   
 14   8  12  1   
 15   9  13  ar  
 16   9  31  1   
 17  10  14  ar  
 18  10  32  1   
 19  11  15  1   
 20  11  33  1   
 21  11  34  1   
 22  12  16  1   
 23  12  35  1   
 24  12  36  1   
 25  13  17  1   
 26  13  18  ar  
 27  14  18  ar  
 28  14  37  1   
 29  15  19  1   
 30  15  38  1   
 31  15  39  1   
 32  16  19  1   
 33  16  40  1   
 34  16  41  1   
 35  17  20  1   
 36  18  21  1   
 37  19  22  1   
 38  20  42  1   
 39  20  43  1   
 40  20  44  1   
 41  21  23  1   
 42  22  24  ar  
 43  22  25  ar  
 44  23  45  1   
 45  23  46  1   
 46  23  47  1   
 47  24  26  ar  
 48  24  48  1   
 49  25  27  ar  
 50  25  49  1   
 51  26  28  ar  
 52  26  50  1   
 53  27  28  ar  
 54  27  51  1   
 55  28  52  1   
@<TRIPOS>SUBSTRUCTURE
  1 ****   3 GROUP 4 **** **** 0

# MOE 2024.06 (io_trps.svl 2023.06)
