@<TRIPOS>MOLECULE
8-Ethylamino-7-(2-hydroxy-3-p-tolyloxy-propyl)-1,3-dimethyl-3,7-dihydro-purine-2
54 56 1 0 0 
SMALL
USER_CHARGES


@<TRIPOS>ATOM
  1 O        5.7410     1.3830     3.3000 O.2   1 <1>  -0.5740 
  2 C        5.6520     1.7940     2.1590 C.2   1 <1>   0.6860 
  3 N        4.6600     2.7100     1.8260 N.am  1 <1>  -0.4250 
  4 N        6.5370     1.3410     1.1910 N.am  1 <1>  -0.4410 
  5 C        4.5860     3.2530     0.5500 C.2   1 <1>   0.7000 
  6 C        3.7190     3.1750     2.8910 C.3   1 <1>   0.0530 
  7 C        6.4420     1.8810    -0.0770 C.2   1 <1>   0.4210 
  8 C        7.6230     0.3800     1.5390 C.3   1 <1>   0.0530 
  9 O        3.7610     4.1150     0.2860 O.2   1 <1>  -0.5740 
 10 C        5.5080     2.7850    -0.4410 C.2   1 <1>   0.2710 
 11 N        7.2420     1.6300    -1.1490 N.pl3 1 <1>  -0.7030 
 12 N        5.7400     3.0730    -1.8030 N.pl3 1 <1>  -0.7670 
 13 C        6.8270     2.3910    -2.1560 C.cat 1 <1>   1.0690 
 14 C        4.9090     4.0000    -2.6370 C.3   1 <1>   0.3480 
 15 N        7.4230     2.4660    -3.3370 N.pl3 1 <1>  -0.7180 
 16 C        5.6030     5.3330    -3.0060 C.3   1 <1>   0.1930 
 17 C        8.5890     1.7260    -3.8510 C.3   1 <1>   0.1610 
 18 O        6.6500     5.0880    -3.9010 O.3   1 <1>  -0.6840 
 19 C        6.1110     6.1110    -1.7760 C.3   1 <1>   0.1130 
 20 C        9.8180     2.6190    -3.7420 C.3   1 <1>  -0.2460 
 21 O        7.3660     5.6000    -1.3500 O.3   1 <1>  -0.3680 
 22 C        7.6170     5.1970    -0.0800 C.ar  1 <1>   0.0750 
 23 C        6.8370     5.5340     1.0210 C.ar  1 <1>  -0.1570 
 24 C        8.7190     4.3750     0.0950 C.ar  1 <1>  -0.1570 
 25 C        7.1280     4.9980     2.2630 C.ar  1 <1>  -0.1570 
 26 C        9.0100     3.8460     1.3380 C.ar  1 <1>  -0.1570 
 27 C        8.2050     4.1420     2.4250 C.ar  1 <1>  -0.1500 
 28 C        8.5050     3.5560     3.7930 C.3   1 <1>  -0.1040 
 29 H        4.1890     3.9480     3.4730 H     1 <1>   0.0730 
 30 H        3.4610     2.3580     3.5420 H     1 <1>   0.0730 
 31 H        2.8110     3.5610     2.4610 H     1 <1>   0.0730 
 32 H        7.3580    -0.1900     2.4140 H     1 <1>   0.0730 
 33 H        8.5310     0.9200     1.7440 H     1 <1>   0.0730 
 34 H        7.7880    -0.3090     0.7300 H     1 <1>   0.0730 
 35 H        8.0800     1.0620    -1.1680 H     1 <1>   0.4450 
 36 H        3.9960     4.2270    -2.1170 H     1 <1>   0.0730 
 37 H        4.6250     3.4980    -3.5460 H     1 <1>   0.0730 
 38 H        7.1680     3.3060    -3.8800 H     1 <1>   0.4450 
 39 H        4.8850     5.9470    -3.5230 H     1 <1>   0.0730 
 40 H        8.4170     1.4650    -4.8830 H     1 <1>   0.0730 
 41 H        8.7390     0.8160    -3.2950 H     1 <1>   0.0730 
 42 H        7.2230     5.8860    -3.9560 H     1 <1>   0.3950 
 43 H        5.3800     6.0420    -0.9930 H     1 <1>   0.0730 
 44 H        6.2510     7.1490    -2.0200 H     1 <1>   0.0730 
 45 H        9.6810     3.5230    -4.3100 H     1 <1>   0.0730 
 46 H       10.6740     2.1030    -4.1380 H     1 <1>   0.0730 
 47 H       10.0210     2.8690    -2.7160 H     1 <1>   0.0730 
 48 H        6.0080     6.2120     0.9450 H     1 <1>   0.1430 
 49 H        9.3500     4.1570    -0.7470 H     1 <1>   0.1430 
 50 H        6.5180     5.2560     3.1120 H     1 <1>   0.1430 
 51 H        9.8700     3.2110     1.4620 H     1 <1>   0.1430 
 52 H        9.1010     2.6650     3.7060 H     1 <1>   0.0730 
 53 H        7.5910     3.3010     4.3000 H     1 <1>   0.0730 
 54 H        9.0410     4.2740     4.3870 H     1 <1>   0.0730 
@<TRIPOS>BOND
  1   1   2  2   
  2   2   3  am  
  3   2   4  am  
  4   3   5  am  
  5   3   6  1   
  6   4   7  1   
  7   4   8  1   
  8   5   9  2   
  9   5  10  1   
 10   6  29  1   
 11   6  30  1   
 12   6  31  1   
 13   7  10  2   
 14   7  11  1   
 15   8  32  1   
 16   8  33  1   
 17   8  34  1   
 18  10  12  1   
 19  11  13  ar  
 20  11  35  1   
 21  12  13  ar  
 22  12  14  1   
 23  13  15  ar  
 24  14  16  1   
 25  14  36  1   
 26  14  37  1   
 27  15  17  1   
 28  15  38  1   
 29  16  18  1   
 30  16  19  1   
 31  16  39  1   
 32  17  20  1   
 33  17  40  1   
 34  17  41  1   
 35  18  42  1   
 36  19  21  1   
 37  19  43  1   
 38  19  44  1   
 39  20  45  1   
 40  20  46  1   
 41  20  47  1   
 42  21  22  1   
 43  22  23  ar  
 44  22  24  ar  
 45  23  25  ar  
 46  23  48  1   
 47  24  26  ar  
 48  24  49  1   
 49  25  27  ar  
 50  25  50  1   
 51  26  27  ar  
 52  26  51  1   
 53  27  28  1   
 54  28  52  1   
 55  28  53  1   
 56  28  54  1   
@<TRIPOS>SUBSTRUCTURE
  1 ****  10 GROUP 4 **** **** 0

# MOE 2024.06 (io_trps.svl 2023.06)
