@<TRIPOS>MOLECULE
5-[3-(4-Methoxy-3-methyl-phenyl)-propyl]-4-methyl-4H-[1,2,4]triazole-3-thiol
38 39 1 0 0 
SMALL
USER_CHARGES


@<TRIPOS>ATOM
  1 S       -0.1460     1.0970    -2.3580 S.3   1 <1>  -0.9360 
  2 C       -0.9410     1.7020    -1.0800 C.cat 1 <1>   0.7360 
  3 N       -0.6120     1.5160     0.1780 N.pl3 1 <1>  -0.3930 
  4 N       -2.0250     2.4530    -1.1260 N.pl3 1 <1>  -0.7640 
  5 N       -1.4950     2.1510     1.0040 N.2   1 <1>  -0.2600 
  6 C       -2.3290     2.6990     0.1920 C.2   1 <1>   0.4850 
  7 C       -2.6800     2.8440    -2.3920 C.3   1 <1>   0.2740 
  8 C       -3.5240     3.5320     0.6240 C.3   1 <1>   0.0080 
  9 C       -4.8530     2.7910     0.4020 C.3   1 <1>  -0.1600 
 10 C       -6.0550     3.6140     0.8810 C.3   1 <1>  -0.0170 
 11 C       -7.3440     2.8680     0.5860 C.ar  1 <1>  -0.1430 
 12 C       -7.7780     1.8650     1.4380 C.ar  1 <1>  -0.1500 
 13 C       -8.0960     3.1770    -0.5360 C.ar  1 <1>  -0.1500 
 14 C       -8.9470     1.1680     1.1790 C.ar  1 <1>  -0.1430 
 15 C       -9.2650     2.4890    -0.8050 C.ar  1 <1>  -0.1500 
 16 C       -9.6990     1.4790     0.0500 C.ar  1 <1>   0.0830 
 17 C       -9.4000     0.0690     2.1300 C.3   1 <1>  -0.0970 
 18 O      -10.8390     0.7690    -0.1650 O.3   1 <1>  -0.3620 
 19 C      -11.6800     1.0320    -1.2660 C.3   1 <1>   0.0400 
 20 H        0.2020     0.9570     0.4320 H     1 <1>   0.4500 
 21 H       -1.9340     3.1410    -3.1100 H     1 <1>   0.0800 
 22 H       -3.3560     3.6650    -2.2340 H     1 <1>   0.0800 
 23 H       -3.2220     2.0030    -2.7900 H     1 <1>   0.0800 
 24 H       -3.5180     4.4580     0.0780 H     1 <1>   0.0800 
 25 H       -3.4170     3.7660     1.6680 H     1 <1>   0.0800 
 26 H       -4.8320     1.8560     0.9350 H     1 <1>   0.0800 
 27 H       -4.9770     2.5660    -0.6420 H     1 <1>   0.0800 
 28 H       -6.0710     4.5700     0.3860 H     1 <1>   0.0800 
 29 H       -5.9830     3.7950     1.9400 H     1 <1>   0.0800 
 30 H       -7.1980     1.6230     2.3100 H     1 <1>   0.1500 
 31 H       -7.7750     3.9530    -1.2070 H     1 <1>   0.1500 
 32 H       -9.8240     2.7540    -1.6810 H     1 <1>   0.1500 
 33 H       -8.7220    -0.0350     2.9580 H     1 <1>   0.0800 
 34 H       -9.4490    -0.8670     1.6040 H     1 <1>   0.0800 
 35 H      -10.3770     0.3010     2.5130 H     1 <1>   0.0800 
 36 H      -12.5150     0.3580    -1.2150 H     1 <1>   0.0800 
 37 H      -11.1290     0.8640    -2.1740 H     1 <1>   0.0800 
 38 H      -12.0260     2.0490    -1.2050 H     1 <1>   0.0800 
@<TRIPOS>BOND
  1   1   2  1   
  2   2   3  ar  
  3   2   4  ar  
  4   3   5  1   
  5   3  20  1   
  6   4   6  1   
  7   4   7  1   
  8   5   6  2   
  9   6   8  1   
 10   7  21  1   
 11   7  22  1   
 12   7  23  1   
 13   8   9  1   
 14   8  24  1   
 15   8  25  1   
 16   9  10  1   
 17   9  26  1   
 18   9  27  1   
 19  10  11  1   
 20  10  28  1   
 21  10  29  1   
 22  11  12  ar  
 23  11  13  ar  
 24  12  14  ar  
 25  12  30  1   
 26  13  15  ar  
 27  13  31  1   
 28  14  16  ar  
 29  14  17  1   
 30  15  16  ar  
 31  15  32  1   
 32  16  18  1   
 33  17  33  1   
 34  17  34  1   
 35  17  35  1   
 36  18  19  1   
 37  19  36  1   
 38  19  37  1   
 39  19  38  1   
@<TRIPOS>SUBSTRUCTURE
  1 ****   9 GROUP 4 **** **** 0

# MOE 2024.06 (io_trps.svl 2023.06)
