@<TRIPOS>MOLECULE
3-(2-Methoxy-ethyl)-1,6,7-trimethyl-8-(tetrahydro-furan-2-ylmethyl)-1H,8H-imidaz
53 56 1 0 0 
SMALL
USER_CHARGES


@<TRIPOS>ATOM
  1 O        1.7870    -0.4900     1.0780 O.2   1 <1>  -0.5740 
  2 C        2.5170     0.4690     0.9380 C.2   1 <1>   0.6870 
  3 N        1.9770     1.7410     0.7740 N.am  1 <1>  -0.4250 
  4 N        3.8940     0.2930     0.9340 N.am  1 <1>  -0.4410 
  5 C        2.7880     2.8480     0.5580 C.2   1 <1>   0.7000 
  6 C        0.4900     1.9140     0.8250 C.3   1 <1>   0.1330 
  7 C        4.6930     1.4050     0.7680 C.2   1 <1>   0.4210 
  8 C        4.4970    -1.0580     1.1370 C.3   1 <1>   0.0530 
  9 O        2.3000     3.9460     0.3490 O.2   1 <1>  -0.5740 
 10 C        4.2010     2.6530     0.5740 C.2   1 <1>   0.2710 
 11 C       -0.1270     1.6760    -0.5530 C.3   1 <1>   0.1130 
 12 N        6.0530     1.4550     0.7460 N.pl3 1 <1>  -0.7030 
 13 N        5.3170     3.4940     0.4070 N.pl3 1 <1>  -0.6330 
 14 O       -1.4930     1.9120    -0.4580 O.3   1 <1>  -0.5640 
 15 C        6.3890     2.7210     0.5120 C.cat 1 <1>   1.0690 
 16 C        5.7720     4.7700     0.1500 C.2   1 <1>   0.2350 
 17 C       -2.1840     1.7020    -1.6460 C.3   1 <1>   0.0320 
 18 N        7.5250     3.4090     0.3430 N.pl3 1 <1>  -0.5710 
 19 C        7.1270     4.7190     0.1130 C.2   1 <1>   0.1580 
 20 C        4.7950     5.9150    -0.0320 C.3   1 <1>  -0.1090 
 21 C        8.9200     2.8800     0.4740 C.3   1 <1>   0.1610 
 22 C        8.1330     5.8320    -0.1280 C.3   1 <1>  -0.1090 
 23 C        9.2280     1.7080    -0.4780 C.3   1 <1>   0.1930 
 24 O        8.4130     0.6090    -0.2060 O.3   1 <1>  -0.5640 
 25 C       10.6420     1.1650    -0.3290 C.3   1 <1>  -0.1670 
 26 C        8.9990    -0.5470    -0.7260 C.3   1 <1>   0.1130 
 27 C       10.5020    -0.2880    -0.7500 C.3   1 <1>  -0.1670 
 28 H        0.2450     2.9090     1.1550 H     1 <1>   0.0730 
 29 H        0.0650     1.2180     1.5270 H     1 <1>   0.0730 
 30 H        3.7990    -1.8310     0.8610 H     1 <1>   0.0730 
 31 H        4.7580    -1.1860     2.1730 H     1 <1>   0.0730 
 32 H        5.3780    -1.1720     0.5300 H     1 <1>   0.0730 
 33 H        0.0230     0.6550    -0.8610 H     1 <1>   0.0730 
 34 H        0.2850     2.3580    -1.2760 H     1 <1>   0.0730 
 35 H        6.7650     0.7180     0.6440 H     1 <1>   0.4450 
 36 H       -3.2250     1.9080    -1.4680 H     1 <1>   0.0730 
 37 H       -2.0650     0.6760    -1.9500 H     1 <1>   0.0730 
 38 H       -1.8060     2.3690    -2.4010 H     1 <1>   0.0730 
 39 H        4.1440     5.7130    -0.8640 H     1 <1>   0.0730 
 40 H        5.3090     6.8390    -0.2160 H     1 <1>   0.0730 
 41 H        4.1930     6.0280     0.8520 H     1 <1>   0.0730 
 42 H        9.0820     2.5610     1.4900 H     1 <1>   0.0730 
 43 H        9.6220     3.6690     0.2710 H     1 <1>   0.0730 
 44 H        8.7780     5.9400     0.7250 H     1 <1>   0.0730 
 45 H        7.6370     6.7700    -0.2960 H     1 <1>   0.0730 
 46 H        8.7320     5.6090    -0.9930 H     1 <1>   0.0730 
 47 H        9.0590     2.0000    -1.5020 H     1 <1>   0.0730 
 48 H       10.9590     1.2180     0.6980 H     1 <1>   0.0730 
 49 H       11.3440     1.7020    -0.9430 H     1 <1>   0.0730 
 50 H        8.6180    -0.7020    -1.7220 H     1 <1>   0.0730 
 51 H        8.7430    -1.3830    -0.0980 H     1 <1>   0.0730 
 52 H       11.0200    -0.9460    -0.0740 H     1 <1>   0.0730 
 53 H       10.8830    -0.4450    -1.7450 H     1 <1>   0.0730 
@<TRIPOS>BOND
  1   1   2  2   
  2   2   3  am  
  3   2   4  am  
  4   3   5  am  
  5   3   6  1   
  6   4   7  1   
  7   4   8  1   
  8   5   9  2   
  9   5  10  1   
 10   6  11  1   
 11   6  28  1   
 12   6  29  1   
 13   7  10  2   
 14   7  12  1   
 15   8  30  1   
 16   8  31  1   
 17   8  32  1   
 18  10  13  1   
 19  11  14  1   
 20  11  33  1   
 21  11  34  1   
 22  12  15  ar  
 23  12  35  1   
 24  13  15  ar  
 25  13  16  1   
 26  14  17  1   
 27  15  18  ar  
 28  16  19  2   
 29  16  20  1   
 30  17  36  1   
 31  17  37  1   
 32  17  38  1   
 33  18  19  1   
 34  18  21  1   
 35  19  22  1   
 36  20  39  1   
 37  20  40  1   
 38  20  41  1   
 39  21  23  1   
 40  21  42  1   
 41  21  43  1   
 42  22  44  1   
 43  22  45  1   
 44  22  46  1   
 45  23  24  1   
 46  23  25  1   
 47  23  47  1   
 48  24  26  1   
 49  25  27  1   
 50  25  48  1   
 51  25  49  1   
 52  26  27  1   
 53  26  50  1   
 54  26  51  1   
 55  27  52  1   
 56  27  53  1   
@<TRIPOS>SUBSTRUCTURE
  1 ****   7 GROUP 4 **** **** 0

# MOE 2024.06 (io_trps.svl 2023.06)
