@<TRIPOS>MOLECULE
N-(2-Fluoro-5-methyl-phenyl)-2-(4-oxo-5,6,7,8-tetrahydro-4H-benzo[4,5]thieno[2,3
44 47 1 0 0 
SMALL
USER_CHARGES


@<TRIPOS>ATOM
  1 S        0.5150     1.4750     2.0280 S.3   1 <1>  -0.0800 
  2 C        2.1470     0.9060     1.7280 C.2   1 <1>   0.1660 
  3 C        0.5150     2.3590     0.5090 C.2   1 <1>  -0.1400 
  4 N        2.8050     0.1050     2.6050 N.2   1 <1>  -0.5760 
  5 C        2.6260     1.3740     0.5440 C.2   1 <1>  -0.0860 
  6 C        1.6820     2.2190    -0.1400 C.2   1 <1>  -0.1810 
  7 C       -0.6980     3.1530     0.0810 C.3   1 <1>   0.0200 
  8 C        3.9940    -0.2360     2.2500 C.2   1 <1>   0.4500 
  9 C        3.9420     0.9630     0.1900 C.2   1 <1>   0.7160 
 10 C        1.9400     2.9060    -1.4730 C.3   1 <1>   0.0210 
 11 C       -0.5470     3.5400    -1.4020 C.3   1 <1>  -0.1600 
 12 N        4.6030     0.1370     1.0740 N.am  1 <1>  -0.4200 
 13 O        4.5090     1.3120    -0.8380 O.2   1 <1>  -0.5700 
 14 C        0.8870     4.0020    -1.7390 C.3   1 <1>  -0.1600 
 15 C        5.9900    -0.3270     0.7730 C.3   1 <1>   0.2010 
 16 C        7.0370     0.7360     1.0850 C.2   1 <1>   0.5690 
 17 O        7.8040     0.5160     1.9900 O.2   1 <1>  -0.5700 
 18 N        7.0490     1.8800     0.3330 N.am  1 <1>  -0.5470 
 19 C        7.8540     3.0370     0.3840 C.ar  1 <1>   0.1170 
 20 C        7.4430     4.1990    -0.2680 C.ar  1 <1>   0.1900 
 21 C        9.0730     3.0950     1.0550 C.ar  1 <1>  -0.1500 
 22 F        6.3040     4.1930    -0.9180 F     1 <1>  -0.1900 
 23 C        8.1780     5.3670    -0.2660 C.ar  1 <1>  -0.1500 
 24 C        9.8310     4.2580     1.0750 C.ar  1 <1>  -0.1440 
 25 C        9.3840     5.3930     0.4140 C.ar  1 <1>  -0.1500 
 26 C       11.1550     4.2900     1.8180 C.3   1 <1>  -0.0970 
 27 H       -0.7680     4.0360     0.6900 H     1 <1>   0.0800 
 28 H       -1.5910     2.5690     0.2190 H     1 <1>   0.0800 
 29 H        4.5690    -0.8620     2.9100 H     1 <1>   0.0600 
 30 H        1.9060     2.1680    -2.2550 H     1 <1>   0.0800 
 31 H        2.9190     3.3520    -1.4750 H     1 <1>   0.0800 
 32 H       -1.2500     4.3180    -1.6420 H     1 <1>   0.0800 
 33 H       -0.7830     2.6830    -2.0100 H     1 <1>   0.0800 
 34 H        0.9410     4.3040    -2.7700 H     1 <1>   0.0800 
 35 H        1.1230     4.8610    -1.1330 H     1 <1>   0.0800 
 36 H        6.0640    -0.5960    -0.2660 H     1 <1>   0.0800 
 37 H        6.2100    -1.2060     1.3520 H     1 <1>   0.0800 
 38 H        6.2720     1.9580    -0.3410 H     1 <1>   0.3700 
 39 H        9.4420     2.2250     1.5650 H     1 <1>   0.1500 
 40 H        7.8150     6.2360    -0.7840 H     1 <1>   0.1500 
 41 H        9.9710     6.2950     0.4260 H     1 <1>   0.1500 
 42 H       11.3020     5.2490     2.2800 H     1 <1>   0.0800 
 43 H       11.9620     4.1060     1.1310 H     1 <1>   0.0800 
 44 H       11.1770     3.5380     2.5860 H     1 <1>   0.0800 
@<TRIPOS>BOND
  1   1   2  1   
  2   1   3  1   
  3   2   4  1   
  4   2   5  2   
  5   3   6  2   
  6   3   7  1   
  7   4   8  2   
  8   5   6  1   
  9   5   9  1   
 10   6  10  1   
 11   7  11  1   
 12   7  27  1   
 13   7  28  1   
 14   8  12  1   
 15   8  29  1   
 16   9  12  am  
 17   9  13  2   
 18  10  14  1   
 19  10  30  1   
 20  10  31  1   
 21  11  14  1   
 22  11  32  1   
 23  11  33  1   
 24  12  15  1   
 25  14  34  1   
 26  14  35  1   
 27  15  16  1   
 28  15  36  1   
 29  15  37  1   
 30  16  17  2   
 31  16  18  am  
 32  18  19  1   
 33  18  38  1   
 34  19  20  ar  
 35  19  21  ar  
 36  20  22  1   
 37  20  23  ar  
 38  21  24  ar  
 39  21  39  1   
 40  23  25  ar  
 41  23  40  1   
 42  24  25  ar  
 43  24  26  1   
 44  25  41  1   
 45  26  42  1   
 46  26  43  1   
 47  26  44  1   
@<TRIPOS>SUBSTRUCTURE
  1 ****   9 GROUP 4 **** **** 0

# MOE 2024.06 (io_trps.svl 2023.06)
