@<TRIPOS>MOLECULE
1-Methanesulfonyl-piperidine-3-carboxylic acid (4-acetylamino-phenyl)-amide
44 45 1 0 0 
SMALL
USER_CHARGES


@<TRIPOS>ATOM
  1 S        0.2150     0.0760     1.1730 S.o2  1 <1>   1.3330 
  2 O        0.6840     1.0880     2.0910 O.2   1 <1>  -0.6500 
  3 O       -0.8560    -0.8180     1.5470 O.2   1 <1>  -0.6500 
  4 N        1.5480    -0.8680     0.7190 N.am  1 <1>  -0.8490 
  5 C       -0.2760     0.8990    -0.3310 C.3   1 <1>  -0.1350 
  6 C        2.7180    -0.0930     0.2900 C.3   1 <1>   0.1960 
  7 C        1.2290    -1.9860    -0.1700 C.3   1 <1>   0.1960 
  8 C        3.9580    -0.9930     0.2170 C.3   1 <1>  -0.0190 
  9 C        2.4270    -2.9370    -0.2680 C.3   1 <1>  -0.1600 
 10 C        5.1550    -0.1820    -0.2550 C.2   1 <1>   0.5690 
 11 C        3.7030    -2.2020    -0.7020 C.3   1 <1>  -0.1600 
 12 O        5.0140     0.5580    -1.1990 O.2   1 <1>  -0.5700 
 13 N        6.3390    -0.3470     0.4090 N.am  1 <1>  -0.5470 
 14 C        7.5900     0.2650     0.2200 C.ar  1 <1>   0.1170 
 15 C        8.7290    -0.3840     0.6790 C.ar  1 <1>  -0.1500 
 16 C        7.7440     1.5050    -0.3900 C.ar  1 <1>  -0.1500 
 17 C        9.9810     0.1820     0.5280 C.ar  1 <1>  -0.1500 
 18 C        8.9970     2.0710    -0.5410 C.ar  1 <1>  -0.1500 
 19 C       10.1360     1.4210    -0.0830 C.ar  1 <1>   0.1170 
 20 N       11.3860     2.0360    -0.2710 N.am  1 <1>  -0.5470 
 21 C       12.5800     1.8490     0.3630 C.2   1 <1>   0.5690 
 22 O       12.7570     1.0770     1.2700 O.2   1 <1>  -0.5700 
 23 C       13.7460     2.6800    -0.1090 C.3   1 <1>  -0.1790 
 24 H       -0.5420     0.1840    -1.0820 H     1 <1>   0.0800 
 25 H        0.5180     1.5190    -0.6980 H     1 <1>   0.0800 
 26 H       -1.1280     1.5210    -0.1380 H     1 <1>   0.0800 
 27 H        2.9090     0.7010     0.9950 H     1 <1>   0.0800 
 28 H        2.5300     0.3500    -0.6740 H     1 <1>   0.0800 
 29 H        0.9730    -1.6180    -1.1490 H     1 <1>   0.0800 
 30 H        0.3850    -2.5330     0.2200 H     1 <1>   0.0800 
 31 H        4.1540    -1.3470     1.2130 H     1 <1>   0.0800 
 32 H        2.2030    -3.7200    -0.9700 H     1 <1>   0.0800 
 33 H        2.5790    -3.3950     0.6940 H     1 <1>   0.0800 
 34 H        4.5420    -2.8750    -0.6700 H     1 <1>   0.0800 
 35 H        3.5900    -1.8600    -1.7180 H     1 <1>   0.0800 
 36 H        6.3310    -1.0540     1.1410 H     1 <1>   0.3700 
 37 H        8.6440    -1.3440     1.1550 H     1 <1>   0.1500 
 38 H        6.8830     2.0390    -0.7490 H     1 <1>   0.1500 
 39 H       10.8430    -0.3510     0.8870 H     1 <1>   0.1500 
 40 H        9.0820     3.0300    -1.0170 H     1 <1>   0.1500 
 41 H       11.3880     2.7680    -0.9770 H     1 <1>   0.3700 
 42 H       13.5430     3.7210     0.0580 H     1 <1>   0.0800 
 43 H       13.9210     2.5060    -1.1540 H     1 <1>   0.0800 
 44 H       14.6290     2.4080     0.4400 H     1 <1>   0.0800 
@<TRIPOS>BOND
  1   1   2  2   
  2   1   3  2   
  3   1   4  am  
  4   1   5  1   
  5   4   6  1   
  6   4   7  1   
  7   5  24  1   
  8   5  25  1   
  9   5  26  1   
 10   6   8  1   
 11   6  27  1   
 12   6  28  1   
 13   7   9  1   
 14   7  29  1   
 15   7  30  1   
 16   8  10  1   
 17   8  11  1   
 18   8  31  1   
 19   9  11  1   
 20   9  32  1   
 21   9  33  1   
 22  10  12  2   
 23  10  13  am  
 24  11  34  1   
 25  11  35  1   
 26  13  14  1   
 27  13  36  1   
 28  14  15  ar  
 29  14  16  ar  
 30  15  17  ar  
 31  15  37  1   
 32  16  18  ar  
 33  16  38  1   
 34  17  19  ar  
 35  17  39  1   
 36  18  19  ar  
 37  18  40  1   
 38  19  20  1   
 39  20  21  am  
 40  20  41  1   
 41  21  22  2   
 42  21  23  1   
 43  23  42  1   
 44  23  43  1   
 45  23  44  1   
@<TRIPOS>SUBSTRUCTURE
  1 ****  13 GROUP 4 **** **** 0

# MOE 2024.06 (io_trps.svl 2023.06)
