@<TRIPOS>MOLECULE
4-Methyl-1-(3-morpholin-4-yl-propyl)-1,3-dihydro-2H-1,6,10b-triaza-cyclopenta[c]
55 59 1 0 0 
SMALL
USER_CHARGES


@<TRIPOS>ATOM
  1 O       -1.2740     0.1380    -1.6180 O.3   1 <1>  -0.5600 
  2 C       -1.9700     0.5830    -0.4910 C.3   1 <1>   0.1200 
  3 C       -0.5480    -1.0410    -1.4340 C.3   1 <1>   0.1200 
  4 C       -2.9800    -0.4890    -0.0360 C.3   1 <1>   0.3430 
  5 C       -1.4900    -2.1890    -1.0220 C.3   1 <1>   0.3430 
  6 N       -2.3190    -1.8270     0.1850 N.4   1 <1>  -0.9590 
  7 C       -3.3460    -2.8490     0.5510 C.3   1 <1>   0.3430 
  8 C       -2.7270    -4.1000     1.1870 C.3   1 <1>  -0.1600 
  9 C       -2.4320    -5.2260     0.1850 C.3   1 <1>   0.2090 
 10 N       -2.0190    -6.4550     0.9130 N.pl3 1 <1>  -0.8380 
 11 C       -2.2120    -7.7180     0.4560 C.2   1 <1>   0.4790 
 12 C       -0.7000    -6.4000     1.6200 C.3   1 <1>   0.2090 
 13 N       -3.3470    -8.2270    -0.0960 N.pl3 1 <1>  -0.6290 
 14 C       -1.0880    -8.5060     0.5560 C.2   1 <1>  -0.1380 
 15 C       -0.0230    -7.7470     1.3170 C.3   1 <1>  -0.0220 
 16 C       -3.2890    -9.4430    -0.7140 C.cat 1 <1>   0.7910 
 17 C       -4.6900    -7.8390    -0.0820 C.ar  1 <1>   0.3090 
 18 C       -1.0110    -9.7740    -0.0120 C.2   1 <1>  -0.1380 
 19 N       -4.5060    -9.7220    -1.2470 N.pl3 1 <1>  -0.7000 
 20 C       -2.1360   -10.2350    -0.6920 C.2   1 <1>   0.0740 
 21 C       -5.3950    -8.7510    -0.8480 C.ar  1 <1>   0.3090 
 22 C       -5.3680    -6.8150     0.5700 C.ar  1 <1>  -0.1090 
 23 C        0.2630   -10.6110     0.0920 C.3   1 <1>  -0.1020 
 24 C       -2.2090   -11.4880    -1.3620 C.1   1 <1>   0.4920 
 25 C       -6.7630    -8.6160    -1.0570 C.ar  1 <1>  -0.1090 
 26 C       -6.7290    -6.6770     0.3750 C.ar  1 <1>  -0.1500 
 27 N       -2.3660   -12.4690    -1.9190 N.1   1 <1>  -0.5570 
 28 C       -7.4230    -7.5680    -0.4450 C.ar  1 <1>  -0.1500 
 29 H       -2.4860     1.4870    -0.7630 H     1 <1>   0.0800 
 30 H       -1.2630     0.8130     0.2870 H     1 <1>   0.0800 
 31 H        0.2120    -0.8690    -0.6910 H     1 <1>   0.0800 
 32 H       -0.0650    -1.2730    -2.3680 H     1 <1>   0.0800 
 33 H       -3.7380    -0.5770    -0.7970 H     1 <1>   0.0800 
 34 H       -3.4590    -0.1580     0.8700 H     1 <1>   0.0800 
 35 H       -0.8980    -3.0640    -0.8170 H     1 <1>   0.0800 
 36 H       -2.1360    -2.4080    -1.8560 H     1 <1>   0.0800 
 37 H       -1.6780    -1.7080     0.9810 H     1 <1>   0.4500 
 38 H       -3.9350    -3.1170    -0.3120 H     1 <1>   0.0800 
 39 H       -4.0150    -2.4120     1.2760 H     1 <1>   0.0800 
 40 H       -3.4420    -4.4800     1.8950 H     1 <1>   0.0800 
 41 H       -1.8440    -3.8360     1.7400 H     1 <1>   0.0800 
 42 H       -1.6390    -4.9400    -0.4840 H     1 <1>   0.0800 
 43 H       -3.3010    -5.4330    -0.4150 H     1 <1>   0.0800 
 44 H       -0.8610    -6.2880     2.6800 H     1 <1>   0.0800 
 45 H       -0.0930    -5.5870     1.2580 H     1 <1>   0.0800 
 46 H        0.2450    -8.2490     2.2300 H     1 <1>   0.0800 
 47 H        0.8560    -7.6020     0.7130 H     1 <1>   0.0800 
 48 H       -4.7560   -10.5730    -1.7620 H     1 <1>   0.4500 
 49 H       -4.8360    -6.1590     1.2290 H     1 <1>   0.1500 
 50 H        0.9110   -10.2520     0.8710 H     1 <1>   0.0800 
 51 H        0.8040   -10.5810    -0.8370 H     1 <1>   0.0800 
 52 H        0.0290   -11.6380     0.3180 H     1 <1>   0.0800 
 53 H       -7.2920    -9.3210    -1.6740 H     1 <1>   0.1500 
 54 H       -7.2730    -5.8850     0.8660 H     1 <1>   0.1500 
 55 H       -8.4840    -7.4390    -0.5880 H     1 <1>   0.1500 
@<TRIPOS>BOND
  1   1   2  1   
  2   1   3  1   
  3   2   4  1   
  4   2  29  1   
  5   2  30  1   
  6   3   5  1   
  7   3  31  1   
  8   3  32  1   
  9   4   6  1   
 10   4  33  1   
 11   4  34  1   
 12   5   6  1   
 13   5  35  1   
 14   5  36  1   
 15   6   7  1   
 16   6  37  1   
 17   7   8  1   
 18   7  38  1   
 19   7  39  1   
 20   8   9  1   
 21   8  40  1   
 22   8  41  1   
 23   9  10  1   
 24   9  42  1   
 25   9  43  1   
 26  10  11  1   
 27  10  12  1   
 28  11  13  1   
 29  11  14  2   
 30  12  15  1   
 31  12  44  1   
 32  12  45  1   
 33  13  16  ar  
 34  13  17  1   
 35  14  15  1   
 36  14  18  1   
 37  15  46  1   
 38  15  47  1   
 39  16  19  ar  
 40  16  20  1   
 41  17  21  ar  
 42  17  22  ar  
 43  18  20  2   
 44  18  23  1   
 45  19  21  1   
 46  19  48  1   
 47  20  24  1   
 48  21  25  ar  
 49  22  26  ar  
 50  22  49  1   
 51  23  50  1   
 52  23  51  1   
 53  23  52  1   
 54  24  27  3   
 55  25  28  ar  
 56  25  53  1   
 57  26  28  ar  
 58  26  54  1   
 59  28  55  1   
@<TRIPOS>SUBSTRUCTURE
  1 ****  10 GROUP 4 **** **** 0

# MOE 2024.06 (io_trps.svl 2023.06)
