@<TRIPOS>MOLECULE
1,3-Dimethyl-8-phenethyl-5,6,7,8-tetrahydro-1H-1,3,4b,8,9-pentaaza-fluorene-2,4-
47 50 1 0 0 
SMALL
USER_CHARGES


@<TRIPOS>ATOM
  1 O        2.3230    -1.2910     0.3200 O.2   1 <1>  -0.5750 
  2 C        3.0760    -0.3390     0.2780 C.2   1 <1>   0.6860 
  3 N        2.6000     0.9110    -0.1050 N.am  1 <1>  -0.4260 
  4 N        4.4120    -0.5030     0.6190 N.am  1 <1>  -0.4420 
  5 C        3.4370     2.0180    -0.1360 C.2   1 <1>   0.6990 
  6 C        1.1530     1.0570    -0.4560 C.3   1 <1>   0.0520 
  7 C        5.2450     0.5970     0.5440 C.2   1 <1>   0.4200 
  8 C        4.9050    -1.8310     1.0850 C.3   1 <1>   0.0520 
  9 O        3.0100     3.1220    -0.4350 O.2   1 <1>  -0.5750 
 10 C        4.8160     1.8270     0.1920 C.2   1 <1>   0.2700 
 11 N        6.5840     0.6590     0.7880 N.pl3 1 <1>  -0.7040 
 12 N        5.9450     2.6600     0.2330 N.pl3 1 <1>  -0.7670 
 13 C        6.9840     1.9140     0.5960 C.cat 1 <1>   1.0690 
 14 C        6.0170     4.0930    -0.1100 C.3   1 <1>   0.3480 
 15 N        8.2290     2.4180     0.7270 N.pl3 1 <1>  -0.5970 
 16 C        7.4440     4.4040    -0.5680 C.3   1 <1>  -0.1680 
 17 C        8.5020     3.8470     0.3970 C.3   1 <1>   0.1600 
 18 C        9.3660     1.6850     1.3580 C.3   1 <1>   0.1600 
 19 C       10.1230     0.8210     0.3420 C.3   1 <1>  -0.0250 
 20 C        9.2460    -0.3120    -0.1620 C.ar  1 <1>  -0.1510 
 21 C        8.6470    -0.2340    -1.4100 C.ar  1 <1>  -0.1580 
 22 C        9.0240    -1.4250     0.6350 C.ar  1 <1>  -0.1580 
 23 C        7.8170    -1.2510    -1.8480 C.ar  1 <1>  -0.1580 
 24 C        8.1990    -2.4440     0.1940 C.ar  1 <1>  -0.1580 
 25 C        7.5930    -2.3550    -1.0460 C.ar  1 <1>  -0.1580 
 26 H        0.8160     0.1950    -1.0060 H     1 <1>   0.0720 
 27 H        0.9880     1.9290    -1.0650 H     1 <1>   0.0720 
 28 H        0.5710     1.1430     0.4450 H     1 <1>   0.0720 
 29 H        5.0620    -2.4730     0.2360 H     1 <1>   0.0720 
 30 H        4.1730    -2.2880     1.7290 H     1 <1>   0.0720 
 31 H        5.8230    -1.7300     1.6340 H     1 <1>   0.0720 
 32 H        7.2390    -0.1280     0.8200 H     1 <1>   0.4440 
 33 H        5.7630     4.6790     0.7580 H     1 <1>   0.0720 
 34 H        5.3180     4.3240    -0.8970 H     1 <1>   0.0720 
 35 H        7.5650     5.4690    -0.6560 H     1 <1>   0.0720 
 36 H        7.6000     3.9860    -1.5470 H     1 <1>   0.0720 
 37 H        9.4750     3.9340    -0.0570 H     1 <1>   0.0720 
 38 H        8.5020     4.4210     1.3090 H     1 <1>   0.0720 
 39 H        8.9970     1.0610     2.1540 H     1 <1>   0.0720 
 40 H       10.0500     2.3930     1.7970 H     1 <1>   0.0720 
 41 H       10.9920     0.4000     0.8180 H     1 <1>   0.0720 
 42 H       10.4710     1.4290    -0.4750 H     1 <1>   0.0720 
 43 H        8.8240     0.6130    -2.0510 H     1 <1>   0.1420 
 44 H        9.5010    -1.5140     1.5970 H     1 <1>   0.1420 
 45 H        7.3570    -1.1920    -2.8200 H     1 <1>   0.1420 
 46 H        8.0390    -3.3140     0.8090 H     1 <1>   0.1420 
 47 H        6.9580    -3.1530    -1.3960 H     1 <1>   0.1420 
@<TRIPOS>BOND
  1   1   2  2   
  2   2   3  am  
  3   2   4  am  
  4   3   5  am  
  5   3   6  1   
  6   4   7  1   
  7   4   8  1   
  8   5   9  2   
  9   5  10  1   
 10   6  26  1   
 11   6  27  1   
 12   6  28  1   
 13   7  10  2   
 14   7  11  1   
 15   8  29  1   
 16   8  30  1   
 17   8  31  1   
 18  10  12  1   
 19  11  13  ar  
 20  11  32  1   
 21  12  13  ar  
 22  12  14  1   
 23  13  15  ar  
 24  14  16  1   
 25  14  33  1   
 26  14  34  1   
 27  15  17  1   
 28  15  18  1   
 29  16  17  1   
 30  16  35  1   
 31  16  36  1   
 32  17  37  1   
 33  17  38  1   
 34  18  19  1   
 35  18  39  1   
 36  18  40  1   
 37  19  20  1   
 38  19  41  1   
 39  19  42  1   
 40  20  21  ar  
 41  20  22  ar  
 42  21  23  ar  
 43  21  43  1   
 44  22  24  ar  
 45  22  44  1   
 46  23  25  ar  
 47  23  45  1   
 48  24  25  ar  
 49  24  46  1   
 50  25  47  1   
@<TRIPOS>SUBSTRUCTURE
  1 ****  11 GROUP 4 **** **** 0

# MOE 2024.06 (io_trps.svl 2023.06)
