@<TRIPOS>MOLECULE
3-(3-Ethyl-5-hydroxy-5-trifluoromethyl-4,5-dihydro-pyrazol-1-yl)-3-oxo-propionit
27 27 1 0 0 
SMALL
USER_CHARGES


@<TRIPOS>ATOM
  1 F        0.9200    -1.9090     1.6970 F     1 <1>  -0.3400 
  2 C        1.0530    -1.5210     0.4310 C.3   1 <1>   1.0200 
  3 F        2.3080    -1.1020     0.3080 F     1 <1>  -0.3400 
  4 F        0.3010    -0.4270     0.3180 F     1 <1>  -0.3400 
  5 C        0.6310    -2.6490    -0.6010 C.3   1 <1>   0.5800 
  6 O        0.8820    -2.3230    -1.9390 O.3   1 <1>  -0.6800 
  7 N        1.2860    -3.9730    -0.3720 N.am  1 <1>  -0.2980 
  8 C       -0.8620    -3.0040    -0.4840 C.3   1 <1>  -0.0990 
  9 N        0.3570    -4.9460    -0.0670 N.2   1 <1>  -0.5120 
 10 C        2.6320    -4.1870    -0.5720 C.2   1 <1>   0.5690 
 11 C       -0.8060    -4.4650    -0.1220 C.2   1 <1>   0.3280 
 12 O        3.3390    -3.3470    -1.0770 O.2   1 <1>  -0.5700 
 13 C        3.2400    -5.5190    -0.1990 C.3   1 <1>   0.1010 
 14 C       -2.1160    -5.1970     0.1370 C.3   1 <1>  -0.0990 
 15 C        3.4180    -5.5830     1.2710 C.1   1 <1>   0.3570 
 16 C       -1.9330    -6.6760     0.5130 C.3   1 <1>  -0.2400 
 17 N        3.5700    -5.6440     2.3960 N.1   1 <1>  -0.5570 
 18 H        1.8570    -2.3630    -2.0720 H     1 <1>   0.4000 
 19 H       -1.3860    -2.8560    -1.4120 H     1 <1>   0.0800 
 20 H       -1.3520    -2.4550     0.2990 H     1 <1>   0.0800 
 21 H        4.1970    -5.6240    -0.6730 H     1 <1>   0.0800 
 22 H        2.6060    -6.3230    -0.5210 H     1 <1>   0.0800 
 23 H       -2.7250    -5.1360    -0.7470 H     1 <1>   0.0800 
 24 H       -2.6370    -4.6990     0.9350 H     1 <1>   0.0800 
 25 H       -1.4340    -7.2040    -0.2800 H     1 <1>   0.0800 
 26 H       -2.8880    -7.1370     0.6870 H     1 <1>   0.0800 
 27 H       -1.3410    -6.7630     1.4080 H     1 <1>   0.0800 
@<TRIPOS>BOND
  1   1   2  1   
  2   2   3  1   
  3   2   4  1   
  4   2   5  1   
  5   5   6  1   
  6   5   7  1   
  7   5   8  1   
  8   6  18  1   
  9   7   9  1   
 10   7  10  am  
 11   8  11  1   
 12   8  19  1   
 13   8  20  1   
 14   9  11  2   
 15  10  12  2   
 16  10  13  1   
 17  11  14  1   
 18  13  15  1   
 19  13  21  1   
 20  13  22  1   
 21  14  16  1   
 22  14  23  1   
 23  14  24  1   
 24  15  17  3   
 25  16  25  1   
 26  16  26  1   
 27  16  27  1   
@<TRIPOS>SUBSTRUCTURE
  1 ****   7 GROUP 4 **** **** 0

# MOE 2024.06 (io_trps.svl 2023.06)
