@<TRIPOS>MOLECULE
N-(1-Methyl-2-piperidin-1-ylmethyl-1H-benzoimidazol-5-yl)-propionamide
47 49 1 0 0 
SMALL
USER_CHARGES


@<TRIPOS>ATOM
  1 O        0.1610     0.6370    -1.0110 O.2   1 <1>  -0.5700 
  2 C        0.6490     1.7150    -0.7780 C.2   1 <1>   0.5690 
  3 N        1.9530     1.9010    -0.4170 N.am  1 <1>  -0.5470 
  4 C       -0.2270     2.9490    -0.9050 C.3   1 <1>  -0.0990 
  5 C        2.9920     0.9730    -0.2190 C.ar  1 <1>   0.1170 
  6 C       -0.5220     3.6170     0.4480 C.3   1 <1>  -0.2400 
  7 C        4.2990     1.3860    -0.3860 C.ar  1 <1>  -0.1500 
  8 C        2.7400    -0.3590     0.1570 C.ar  1 <1>  -0.1500 
  9 C        5.3410     0.4850    -0.1900 C.ar  1 <1>   0.2270 
 10 C        3.7640    -1.2580     0.3520 C.ar  1 <1>  -0.1500 
 11 N        6.6830     0.6830    -0.3050 N.2   1 <1>  -0.5650 
 12 C        5.0780    -0.8200     0.1720 C.ar  1 <1>  -0.1520 
 13 C        7.2040    -0.4680    -0.0260 C.2   1 <1>   0.0060 
 14 N        6.2870    -1.4340     0.2740 N.pl3 1 <1>   0.0480 
 15 C        8.7070    -0.7170    -0.0440 C.3   1 <1>   0.5230 
 16 C        6.4660    -2.8610     0.6190 C.3   1 <1>   0.0160 
 17 N        9.3810     0.6060    -0.0970 N.4   1 <1>  -0.9590 
 18 C       10.6490     0.6020    -0.8730 C.3   1 <1>   0.3430 
 19 C        9.5020     1.2210     1.2530 C.3   1 <1>   0.3430 
 20 C       11.1560     2.0370    -1.0330 C.3   1 <1>  -0.1600 
 21 C        9.9970     2.6620     1.1160 C.3   1 <1>  -0.1600 
 22 C       11.3060     2.7450     0.3210 C.3   1 <1>  -0.1600 
 23 H        2.2280     2.8750    -0.3120 H     1 <1>   0.3700 
 24 H       -1.1570     2.6590    -1.3630 H     1 <1>   0.0800 
 25 H        0.2530     3.6500    -1.5630 H     1 <1>   0.0800 
 26 H       -1.0090     2.9160     1.1040 H     1 <1>   0.0800 
 27 H       -1.1700     4.4640     0.3090 H     1 <1>   0.0800 
 28 H        0.3870     3.9520     0.9160 H     1 <1>   0.0800 
 29 H        4.5380     2.3910    -0.6720 H     1 <1>   0.1500 
 30 H        1.7240    -0.6810     0.2970 H     1 <1>   0.1500 
 31 H        3.5550    -2.2750     0.6360 H     1 <1>   0.1500 
 32 H        8.9500    -1.2930    -0.9210 H     1 <1>   0.0800 
 33 H        9.0140    -1.2620     0.8330 H     1 <1>   0.0800 
 34 H        5.9180    -3.4640    -0.0830 H     1 <1>   0.0800 
 35 H        6.0810    -3.0360     1.6070 H     1 <1>   0.0800 
 36 H        7.5040    -3.1340     0.5860 H     1 <1>   0.0800 
 37 H        8.6780     1.1840    -0.5950 H     1 <1>   0.4500 
 38 H       10.4880     0.1700    -1.8480 H     1 <1>   0.0800 
 39 H       11.3920     0.0160    -0.3560 H     1 <1>   0.0800 
 40 H       10.1970     0.6570     1.8540 H     1 <1>   0.0800 
 41 H        8.5410     1.2200     1.7440 H     1 <1>   0.0800 
 42 H       10.4720     2.5860    -1.6580 H     1 <1>   0.0800 
 43 H       12.1070     2.0210    -1.5350 H     1 <1>   0.0800 
 44 H       10.1470     3.0770     2.0980 H     1 <1>   0.0800 
 45 H        9.2360     3.2510     0.6330 H     1 <1>   0.0800 
 46 H       11.5740     3.7770     0.1650 H     1 <1>   0.0800 
 47 H       12.1000     2.2820     0.8840 H     1 <1>   0.0800 
@<TRIPOS>BOND
  1   1   2  2   
  2   2   3  am  
  3   2   4  1   
  4   3   5  1   
  5   3  23  1   
  6   4   6  1   
  7   4  24  1   
  8   4  25  1   
  9   5   7  ar  
 10   5   8  ar  
 11   6  26  1   
 12   6  27  1   
 13   6  28  1   
 14   7   9  ar  
 15   7  29  1   
 16   8  10  ar  
 17   8  30  1   
 18   9  11  1   
 19   9  12  ar  
 20  10  12  ar  
 21  10  31  1   
 22  11  13  2   
 23  12  14  1   
 24  13  14  1   
 25  13  15  1   
 26  14  16  1   
 27  15  17  1   
 28  15  32  1   
 29  15  33  1   
 30  16  34  1   
 31  16  35  1   
 32  16  36  1   
 33  17  18  1   
 34  17  19  1   
 35  17  37  1   
 36  18  20  1   
 37  18  38  1   
 38  18  39  1   
 39  19  21  1   
 40  19  40  1   
 41  19  41  1   
 42  20  22  1   
 43  20  42  1   
 44  20  43  1   
 45  21  22  1   
 46  21  44  1   
 47  21  45  1   
 48  22  46  1   
 49  22  47  1   
@<TRIPOS>SUBSTRUCTURE
  1 ****   9 GROUP 4 **** **** 0

# MOE 2024.06 (io_trps.svl 2023.06)
