@<TRIPOS>MOLECULE
4-Methoxy-3-(piperidine-1-sulfonyl)-phenylamine
36 37 1 0 0 
SMALL
USER_CHARGES


@<TRIPOS>ATOM
  1 S       -0.2530    -0.0210     1.7080 S.o2  1 <1>   1.4470 
  2 O        0.6590     0.8020     2.4780 O.2   1 <1>  -0.6500 
  3 O       -1.1100    -0.9390     2.4270 O.2   1 <1>  -0.6500 
  4 N        0.7310    -0.9470     0.6790 N.am  1 <1>  -0.8490 
  5 C       -1.1990     1.0290     0.5750 C.ar  1 <1>  -0.0090 
  6 C        1.3490    -2.0610     1.4030 C.3   1 <1>   0.1960 
  7 C        1.7480    -0.1340     0.0030 C.3   1 <1>   0.1960 
  8 C       -2.2660     0.5510    -0.1860 C.ar  1 <1>   0.0820 
  9 C       -0.8460     2.3650     0.4150 C.ar  1 <1>  -0.1500 
 10 C        2.0970    -2.9780     0.4280 C.3   1 <1>  -0.1600 
 11 C        2.4990    -0.9800    -1.0310 C.3   1 <1>  -0.1600 
 12 O       -2.7010    -0.7260    -0.0950 O.3   1 <1>  -0.3620 
 13 C       -2.9500     1.3820    -1.0590 C.ar  1 <1>  -0.1500 
 14 C       -1.5170     3.2060    -0.4590 C.ar  1 <1>   0.1000 
 15 C        3.1470    -2.2070    -0.3790 C.3   1 <1>  -0.1600 
 16 C       -1.9740    -1.7110    -0.7970 C.3   1 <1>   0.0400 
 17 C       -2.5750     2.7030    -1.2000 C.ar  1 <1>  -0.1500 
 18 N       -1.1350     4.5290    -0.5870 N.pl3 1 <1>  -0.9000 
 19 H        0.5890    -2.6400     1.9020 H     1 <1>   0.0800 
 20 H        2.0260    -1.6810     2.1510 H     1 <1>   0.0800 
 21 H        2.4450     0.2620     0.7250 H     1 <1>   0.0800 
 22 H        1.2810     0.6940    -0.5030 H     1 <1>   0.0800 
 23 H       -0.0250     2.7660     0.9830 H     1 <1>   0.1500 
 24 H        1.3820    -3.4270    -0.2390 H     1 <1>   0.0800 
 25 H        2.5730    -3.7700     0.9790 H     1 <1>   0.0800 
 26 H        3.2560    -0.3790    -1.5020 H     1 <1>   0.0800 
 27 H        1.8050    -1.2930    -1.7910 H     1 <1>   0.0800 
 28 H       -3.7750     0.9860    -1.6240 H     1 <1>   0.1500 
 29 H        3.5750    -2.8440    -1.1340 H     1 <1>   0.0800 
 30 H        3.9380    -1.8860     0.2780 H     1 <1>   0.0800 
 31 H       -2.6720    -2.3230    -1.3370 H     1 <1>   0.0800 
 32 H       -1.4400    -2.3120    -0.0830 H     1 <1>   0.0800 
 33 H       -1.2850    -1.2440    -1.4800 H     1 <1>   0.0800 
 34 H       -3.1000     3.3440    -1.8840 H     1 <1>   0.1500 
 35 H       -1.8490     5.1620    -0.9580 H     1 <1>   0.4000 
 36 H       -0.6660     4.9370     0.2270 H     1 <1>   0.4000 
@<TRIPOS>BOND
  1   1   2  2   
  2   1   3  2   
  3   1   4  am  
  4   1   5  1   
  5   4   6  1   
  6   4   7  1   
  7   5   8  ar  
  8   5   9  ar  
  9   6  10  1   
 10   6  19  1   
 11   6  20  1   
 12   7  11  1   
 13   7  21  1   
 14   7  22  1   
 15   8  12  1   
 16   8  13  ar  
 17   9  14  ar  
 18   9  23  1   
 19  10  15  1   
 20  10  24  1   
 21  10  25  1   
 22  11  15  1   
 23  11  26  1   
 24  11  27  1   
 25  12  16  1   
 26  13  17  ar  
 27  13  28  1   
 28  14  17  ar  
 29  14  18  1   
 30  15  29  1   
 31  15  30  1   
 32  16  31  1   
 33  16  32  1   
 34  16  33  1   
 35  17  34  1   
 36  18  35  1   
 37  18  36  1   
@<TRIPOS>SUBSTRUCTURE
  1 ****   5 GROUP 4 **** **** 0

# MOE 2024.06 (io_trps.svl 2023.06)
