@<TRIPOS>MOLECULE
1-(2,4-Dimethyl-phenyl)-5-oxo-pyrrolidine-3-carboxylic acid (5-methyl-isoxazol-3
42 44 1 0 0 
SMALL
USER_CHARGES


@<TRIPOS>ATOM
  1 O        0.3420     0.2060    -0.3840 O.2   1 <1>  -0.5700 
  2 C        1.3880    -0.2590    -0.0050 C.2   1 <1>   0.5690 
  3 N        1.6120    -1.5350     0.4150 N.am  1 <1>  -0.4770 
  4 C        2.6510     0.5540     0.0410 C.3   1 <1>  -0.0990 
  5 C        0.6920    -2.5890     0.5150 C.ar  1 <1>   0.1170 
  6 C        3.0270    -1.7450     0.7620 C.3   1 <1>   0.1400 
  7 C        3.7480    -0.5180     0.1930 C.3   1 <1>  -0.0190 
  8 C        0.1920    -3.2450    -0.6110 C.ar  1 <1>  -0.1440 
  9 C        0.2800    -3.0040     1.7750 C.ar  1 <1>  -0.1500 
 10 C        4.9440    -0.1200     1.0560 C.2   1 <1>   0.5690 
 11 C       -0.6980    -4.2950    -0.4530 C.ar  1 <1>  -0.1500 
 12 C        0.6080    -2.8250    -2.0150 C.3   1 <1>  -0.0970 
 13 C       -0.6070    -4.0540     1.9230 C.ar  1 <1>  -0.1500 
 14 O        4.7900     0.6880     1.9370 O.2   1 <1>  -0.5700 
 15 N        6.1840    -0.6400     0.8780 N.am  1 <1>  -0.4930 
 16 C       -1.1000    -4.7070     0.8070 C.ar  1 <1>  -0.1430 
 17 C        6.6680    -1.6670     0.0620 C.2   1 <1>   0.3520 
 18 C       -2.0790    -5.8580     0.9570 C.3   1 <1>  -0.0970 
 19 N        5.9480    -2.5240    -0.5740 N.2   1 <1>  -0.4100 
 20 C        8.0240    -1.9120    -0.1540 C.2   1 <1>  -0.1500 
 21 O        6.7860    -3.3120    -1.1980 O.3   1 <1>  -0.0190 
 22 C        8.0280    -2.9760    -0.9680 C.2   1 <1>  -0.0400 
 23 C        9.1520    -3.7690    -1.6000 C.3   1 <1>  -0.0600 
 24 H        2.5920     1.2110     0.8890 H     1 <1>   0.0800 
 25 H        2.7710     1.1280    -0.8590 H     1 <1>   0.0800 
 26 H        3.3920    -2.6600     0.3260 H     1 <1>   0.0800 
 27 H        3.1220    -1.7890     1.8340 H     1 <1>   0.0800 
 28 H        4.0900    -0.7590    -0.7960 H     1 <1>   0.0800 
 29 H        0.6560    -2.4960     2.6430 H     1 <1>   0.1500 
 30 H       -1.0870    -4.7980    -1.3200 H     1 <1>   0.1500 
 31 H        1.6790    -2.7820    -2.0870 H     1 <1>   0.0800 
 32 H        0.2030    -1.8530    -2.2350 H     1 <1>   0.0800 
 33 H        0.2460    -3.5200    -2.7500 H     1 <1>   0.0800 
 34 H       -0.9140    -4.3560     2.9080 H     1 <1>   0.1500 
 35 H        6.8710    -0.2190     1.5010 H     1 <1>   0.3700 
 36 H       -3.0840    -5.4950     0.8470 H     1 <1>   0.0800 
 37 H       -1.9780    -6.3170     1.9240 H     1 <1>   0.0800 
 38 H       -1.8940    -6.6050     0.2060 H     1 <1>   0.0800 
 39 H        8.8460    -1.3560     0.2540 H     1 <1>   0.1500 
 40 H       10.1050    -3.3640    -1.3090 H     1 <1>   0.0800 
 41 H        9.0690    -3.7320    -2.6710 H     1 <1>   0.0800 
 42 H        9.0980    -4.7950    -1.2820 H     1 <1>   0.0800 
@<TRIPOS>BOND
  1   1   2  2   
  2   2   3  am  
  3   2   4  1   
  4   3   5  1   
  5   3   6  1   
  6   4   7  1   
  7   4  24  1   
  8   4  25  1   
  9   5   8  ar  
 10   5   9  ar  
 11   6   7  1   
 12   6  26  1   
 13   6  27  1   
 14   7  10  1   
 15   7  28  1   
 16   8  11  ar  
 17   8  12  1   
 18   9  13  ar  
 19   9  29  1   
 20  10  14  2   
 21  10  15  am  
 22  11  16  ar  
 23  11  30  1   
 24  12  31  1   
 25  12  32  1   
 26  12  33  1   
 27  13  16  ar  
 28  13  34  1   
 29  15  17  1   
 30  15  35  1   
 31  16  18  1   
 32  17  19  2   
 33  17  20  1   
 34  18  36  1   
 35  18  37  1   
 36  18  38  1   
 37  19  21  1   
 38  20  22  2   
 39  20  39  1   
 40  21  22  1   
 41  22  23  1   
 42  23  40  1   
 43  23  41  1   
 44  23  42  1   
@<TRIPOS>SUBSTRUCTURE
  1 ****   6 GROUP 4 **** **** 0

# MOE 2024.06 (io_trps.svl 2023.06)
