@<TRIPOS>MOLECULE
1-(1-Phenyl-ethyl)-1H-[1,2,3]triazole-4-carboxylic acid [2-(4-methyl-piperazin-1
52 54 1 0 0 
SMALL
USER_CHARGES


@<TRIPOS>ATOM
  1 O        0.2190     4.1270    -1.1610 O.2   1 <1>  -0.5700 
  2 C        0.3360     3.0610    -1.7380 C.2   1 <1>   0.7160 
  3 N       -0.7460     2.5530    -2.4040 N.am  1 <1>  -0.7300 
  4 C        1.5760     2.3150    -1.6960 C.2   1 <1>   0.1410 
  5 C       -2.0440     3.2390    -2.6490 C.3   1 <1>   0.1400 
  6 N        1.7300     1.1090    -2.2880 N.2   1 <1>  -0.2270 
  7 C        2.7480     2.6260    -1.0970 C.2   1 <1>  -0.3020 
  8 C       -3.2400     2.4430    -2.0910 C.3   1 <1>   0.1100 
  9 N        2.9250     0.6930    -2.0720 N.2   1 <1>  -0.4180 
 10 N        3.5700     1.6090    -1.3390 N.pl3 1 <1>   0.3140 
 11 N       -3.5240     2.6980    -0.6590 N.3   1 <1>  -0.8100 
 12 C        4.9900     1.4360    -0.9280 C.3   1 <1>   0.3190 
 13 C       -4.7850     2.0470    -0.2350 C.3   1 <1>   0.1100 
 14 C       -2.4060     2.3140     0.2450 C.3   1 <1>   0.1100 
 15 C        5.1700     1.7560     0.5590 C.ar  1 <1>  -0.1430 
 16 C        5.9210     2.2510    -1.8390 C.3   1 <1>  -0.2400 
 17 C       -5.1790     2.4280     1.2150 C.3   1 <1>   0.3430 
 18 C       -2.7780     2.3880     1.7440 C.3   1 <1>   0.3430 
 19 C        5.1550     0.7130     1.4750 C.ar  1 <1>  -0.1500 
 20 C        5.3430     3.0540     1.0270 C.ar  1 <1>  -0.1500 
 21 N       -4.0620     3.1370     1.9240 N.4   1 <1>  -0.9590 
 22 C        5.3130     0.9580     2.8280 C.ar  1 <1>  -0.1500 
 23 C        5.5000     3.3010     2.3790 C.ar  1 <1>  -0.1500 
 24 C       -4.3670     3.4710     3.3440 C.3   1 <1>   0.2630 
 25 C        5.4860     2.2530     3.2810 C.ar  1 <1>  -0.1500 
 26 H       -0.5850     1.6790    -2.9130 H     1 <1>   0.3700 
 27 H       -2.1650     3.3440    -3.7130 H     1 <1>   0.0800 
 28 H       -2.0390     4.2290    -2.2240 H     1 <1>   0.0800 
 29 H        3.0090     3.4990    -0.5290 H     1 <1>   0.1500 
 30 H       -3.0900     1.3910    -2.2660 H     1 <1>   0.0800 
 31 H       -4.1070     2.7440    -2.6550 H     1 <1>   0.0800 
 32 H        5.2300     0.3980    -1.0730 H     1 <1>   0.0800 
 33 H       -4.6800     0.9770    -0.3040 H     1 <1>   0.0800 
 34 H       -5.5840     2.3370    -0.8960 H     1 <1>   0.0800 
 35 H       -1.5910     2.9950     0.0910 H     1 <1>   0.0800 
 36 H       -2.0540     1.3240     0.0110 H     1 <1>   0.0800 
 37 H        5.6610     3.2940    -1.8300 H     1 <1>   0.0800 
 38 H        5.8550     1.8850    -2.8480 H     1 <1>   0.0800 
 39 H        6.9380     2.1440    -1.5050 H     1 <1>   0.0800 
 40 H       -5.4550     1.5350     1.7510 H     1 <1>   0.0800 
 41 H       -6.0450     3.0690     1.1800 H     1 <1>   0.0800 
 42 H       -1.9780     2.8760     2.2780 H     1 <1>   0.0800 
 43 H       -2.8770     1.3900     2.1360 H     1 <1>   0.0800 
 44 H        5.0190    -0.3030     1.1440 H     1 <1>   0.1500 
 45 H        5.3550     3.8900     0.3500 H     1 <1>   0.1500 
 46 H       -3.9170     3.9950     1.3650 H     1 <1>   0.4500 
 47 H        5.3020     0.1410     3.5290 H     1 <1>   0.1500 
 48 H        5.6340     4.3090     2.7310 H     1 <1>   0.1500 
 49 H       -4.5090     2.5710     3.9190 H     1 <1>   0.0800 
 50 H       -5.2650     4.0650     3.4020 H     1 <1>   0.0800 
 51 H       -3.5560     4.0340     3.7760 H     1 <1>   0.0800 
 52 H        5.6110     2.4440     4.3330 H     1 <1>   0.1500 
@<TRIPOS>BOND
  1   1   2  2   
  2   2   3  am  
  3   2   4  1   
  4   3   5  1   
  5   3  26  1   
  6   4   6  1   
  7   4   7  2   
  8   5   8  1   
  9   5  27  1   
 10   5  28  1   
 11   6   9  2   
 12   7  10  1   
 13   7  29  1   
 14   8  11  1   
 15   8  30  1   
 16   8  31  1   
 17   9  10  1   
 18  10  12  1   
 19  11  13  1   
 20  11  14  1   
 21  12  15  1   
 22  12  16  1   
 23  12  32  1   
 24  13  17  1   
 25  13  33  1   
 26  13  34  1   
 27  14  18  1   
 28  14  35  1   
 29  14  36  1   
 30  15  19  ar  
 31  15  20  ar  
 32  16  37  1   
 33  16  38  1   
 34  16  39  1   
 35  17  21  1   
 36  17  40  1   
 37  17  41  1   
 38  18  21  1   
 39  18  42  1   
 40  18  43  1   
 41  19  22  ar  
 42  19  44  1   
 43  20  23  ar  
 44  20  45  1   
 45  21  24  1   
 46  21  46  1   
 47  22  25  ar  
 48  22  47  1   
 49  23  25  ar  
 50  23  48  1   
 51  24  49  1   
 52  24  50  1   
 53  24  51  1   
 54  25  52  1   
@<TRIPOS>SUBSTRUCTURE
  1 ****   4 GROUP 4 **** **** 0

# MOE 2024.06 (io_trps.svl 2023.06)
