@<TRIPOS>MOLECULE
4-[3-(Biphenyl-4-yloxy)-2-hydroxy-propyl]-piperazine-1-sulfonic acid dimethylami
58 60 1 0 0 
SMALL
USER_CHARGES


@<TRIPOS>ATOM
  1 S        0.1400     0.0410    -0.8950 S.o2  1 <1>   1.5760 
  2 O       -0.1680     1.3280    -1.4770 O.2   1 <1>  -0.6500 
  3 O       -0.2680    -1.1800    -1.5530 O.2   1 <1>  -0.6500 
  4 N        1.7980    -0.0270    -0.6080 N.am  1 <1>  -0.8490 
  5 N       -0.4400     0.0030     0.6940 N.am  1 <1>  -0.8490 
  6 C        2.2950     1.2130     0.0050 C.3   1 <1>   0.1960 
  7 C        2.5320    -0.2810    -1.8530 C.3   1 <1>   0.1960 
  8 C       -1.8550     0.3680     0.7560 C.3   1 <1>   0.1160 
  9 C       -0.2250    -1.2970     1.3340 C.3   1 <1>   0.1160 
 10 C        3.8090     1.1340     0.2760 C.3   1 <1>   0.1100 
 11 C        4.0490    -0.3700    -1.6010 C.3   1 <1>   0.1100 
 12 N        4.5760     0.8560    -0.9620 N.3   1 <1>  -0.8100 
 13 C        6.0260     0.7090    -0.6840 C.3   1 <1>   0.1100 
 14 C        6.6910     2.0620    -0.3700 C.3   1 <1>   0.2000 
 15 O        6.1480     2.9880    -1.2390 O.3   1 <1>  -0.6800 
 16 C        8.2090     2.0430    -0.5470 C.3   1 <1>   0.1200 
 17 O        8.7490     1.0010     0.2420 O.3   1 <1>  -0.3620 
 18 C       10.0770     0.7370     0.2450 C.ar  1 <1>   0.0820 
 19 C       10.5050    -0.3200     1.0320 C.ar  1 <1>  -0.1500 
 20 C       11.0140     1.4590    -0.4880 C.ar  1 <1>  -0.1500 
 21 C       11.8450    -0.6540     1.0890 C.ar  1 <1>  -0.1500 
 22 C       12.3520     1.1170    -0.4270 C.ar  1 <1>  -0.1500 
 23 C       12.7940     0.0570     0.3600 C.ar  1 <1>   0.0000 
 24 C       14.1940    -0.2920     0.4190 C.ar  1 <1>   0.0000 
 25 C       14.6320    -1.5620     0.0540 C.ar  1 <1>  -0.1500 
 26 C       15.1460     0.6310     0.8430 C.ar  1 <1>  -0.1500 
 27 C       15.9730    -1.8990     0.1080 C.ar  1 <1>  -0.1500 
 28 C       16.4880     0.3000     0.8990 C.ar  1 <1>  -0.1500 
 29 C       16.9040    -0.9670     0.5310 C.ar  1 <1>  -0.1500 
 30 H        1.7830     1.3850     0.9360 H     1 <1>   0.0800 
 31 H        2.1000     2.0540    -0.6400 H     1 <1>   0.0800 
 32 H        2.3370     0.5050    -2.5650 H     1 <1>   0.0800 
 33 H        2.1980    -1.2100    -2.2830 H     1 <1>   0.0800 
 34 H       -1.9970     1.3570     0.3520 H     1 <1>   0.0800 
 35 H       -2.1950     0.3680     1.7770 H     1 <1>   0.0800 
 36 H       -2.4480    -0.3280     0.1850 H     1 <1>   0.0800 
 37 H        0.8220    -1.5470     1.3170 H     1 <1>   0.0800 
 38 H       -0.7720    -2.0690     0.8180 H     1 <1>   0.0800 
 39 H       -0.5480    -1.2620     2.3600 H     1 <1>   0.0800 
 40 H        3.9880     0.3590     1.0020 H     1 <1>   0.0800 
 41 H        4.1290     2.0700     0.6980 H     1 <1>   0.0800 
 42 H        4.5480    -0.5230    -2.5420 H     1 <1>   0.0800 
 43 H        4.2450    -1.2240    -0.9740 H     1 <1>   0.0800 
 44 H        6.5120     0.2990    -1.5530 H     1 <1>   0.0800 
 45 H        6.1900     0.0240     0.1300 H     1 <1>   0.0800 
 46 H        6.4470     2.3730     0.6310 H     1 <1>   0.0800 
 47 H        5.2660     2.6130    -1.4830 H     1 <1>   0.4000 
 48 H        8.6340     2.9740    -0.2180 H     1 <1>   0.0800 
 49 H        8.4610     1.8520    -1.5750 H     1 <1>   0.0800 
 50 H        9.7820    -0.8760     1.6000 H     1 <1>   0.1500 
 51 H       10.7220     2.2850    -1.1090 H     1 <1>   0.1500 
 52 H       12.1660    -1.4740     1.7070 H     1 <1>   0.1500 
 53 H       13.0720     1.6760    -0.9990 H     1 <1>   0.1500 
 54 H       13.9140    -2.2890    -0.2800 H     1 <1>   0.1500 
 55 H       14.8270     1.6160     1.1340 H     1 <1>   0.1500 
 56 H       16.2920    -2.8860    -0.1790 H     1 <1>   0.1500 
 57 H       17.2080     1.0280     1.2290 H     1 <1>   0.1500 
 58 H       17.9480    -1.2270     0.5740 H     1 <1>   0.1500 
@<TRIPOS>BOND
  1   1   2  2   
  2   1   3  2   
  3   1   4  am  
  4   1   5  am  
  5   4   6  1   
  6   4   7  1   
  7   5   8  1   
  8   5   9  1   
  9   6  10  1   
 10   6  30  1   
 11   6  31  1   
 12   7  11  1   
 13   7  32  1   
 14   7  33  1   
 15   8  34  1   
 16   8  35  1   
 17   8  36  1   
 18   9  37  1   
 19   9  38  1   
 20   9  39  1   
 21  10  12  1   
 22  10  40  1   
 23  10  41  1   
 24  11  12  1   
 25  11  42  1   
 26  11  43  1   
 27  12  13  1   
 28  13  14  1   
 29  13  44  1   
 30  13  45  1   
 31  14  15  1   
 32  14  16  1   
 33  14  46  1   
 34  15  47  1   
 35  16  17  1   
 36  16  48  1   
 37  16  49  1   
 38  17  18  1   
 39  18  19  ar  
 40  18  20  ar  
 41  19  21  ar  
 42  19  50  1   
 43  20  22  ar  
 44  20  51  1   
 45  21  23  ar  
 46  21  52  1   
 47  22  23  ar  
 48  22  53  1   
 49  23  24  1   
 50  24  25  ar  
 51  24  26  ar  
 52  25  27  ar  
 53  25  54  1   
 54  26  28  ar  
 55  26  55  1   
 56  27  29  ar  
 57  27  56  1   
 58  28  29  ar  
 59  28  57  1   
 60  29  58  1   
@<TRIPOS>SUBSTRUCTURE
  1 ****  13 GROUP 4 **** **** 0

# MOE 2024.06 (io_trps.svl 2023.06)
