@<TRIPOS>MOLECULE
3-(2-Hydroxy-phenyl)-4,5-dihydro-isoxazole-5-carboxylic acid sec-butylamide
37 38 1 0 0 
SMALL
USER_CHARGES


@<TRIPOS>ATOM
  1 O        0.0120    -2.0290     2.6530 O.2   1 <1>  -0.5700 
  2 C       -0.4650    -2.6250     1.7150 C.2   1 <1>   0.5690 
  3 N        0.1090    -2.6080     0.4830 N.am  1 <1>  -0.7300 
  4 C       -1.7730    -3.3930     1.9170 C.3   1 <1>   0.2610 
  5 C        1.3360    -1.9040     0.1010 C.3   1 <1>   0.2200 
  6 O       -1.8890    -4.4200     0.9490 O.3   1 <1>  -0.2170 
  7 C       -3.0020    -2.5370     1.6460 C.3   1 <1>  -0.0990 
  8 C        0.9630    -0.8210    -0.9200 C.3   1 <1>  -0.1600 
  9 C        2.3070    -2.9440    -0.4560 C.3   1 <1>  -0.2400 
 10 N       -2.8340    -4.1850     0.0660 N.2   1 <1>  -0.5130 
 11 C       -3.5130    -3.1530     0.3680 C.2   1 <1>   0.3030 
 12 C        2.1450     0.0760    -1.3150 C.3   1 <1>  -0.2400 
 13 C       -4.6220    -2.6130    -0.4030 C.ar  1 <1>   0.0860 
 14 C       -5.4680    -1.5600    -0.0020 C.ar  1 <1>   0.0820 
 15 C       -4.8920    -3.1700    -1.6590 C.ar  1 <1>  -0.1500 
 16 O       -5.3270    -0.9470     1.1860 O.3   1 <1>  -0.5320 
 17 C       -6.4980    -1.1050    -0.8120 C.ar  1 <1>  -0.1500 
 18 C       -5.9180    -2.7200    -2.4680 C.ar  1 <1>  -0.1500 
 19 C       -6.7260    -1.6820    -2.0450 C.ar  1 <1>  -0.1500 
 20 H       -0.3380    -3.1700    -0.2500 H     1 <1>   0.3700 
 21 H       -1.7990    -3.8420     2.8920 H     1 <1>   0.0800 
 22 H        1.7680    -1.4410     0.9740 H     1 <1>   0.0800 
 23 H       -2.7430    -1.5020     1.5200 H     1 <1>   0.0800 
 24 H       -3.7160    -2.6490     2.4400 H     1 <1>   0.0800 
 25 H        0.2010    -0.1970    -0.4860 H     1 <1>   0.0800 
 26 H        0.5570    -1.2800    -1.8040 H     1 <1>   0.0800 
 27 H        1.9180    -3.3840    -1.3560 H     1 <1>   0.0800 
 28 H        2.4720    -3.7150     0.2750 H     1 <1>   0.0800 
 29 H        3.2540    -2.4880    -0.6750 H     1 <1>   0.0800 
 30 H        2.5880     0.5200    -0.4400 H     1 <1>   0.0800 
 31 H        1.8030     0.8660    -1.9610 H     1 <1>   0.0800 
 32 H        2.8970    -0.4850    -1.8410 H     1 <1>   0.0800 
 33 H       -4.2800    -3.9820    -2.0150 H     1 <1>   0.1500 
 34 H       -5.9800    -0.2390     1.3400 H     1 <1>   0.4500 
 35 H       -7.1320    -0.2990    -0.4890 H     1 <1>   0.1500 
 36 H       -6.0890    -3.1790    -3.4270 H     1 <1>   0.1500 
 37 H       -7.5250    -1.3290    -2.6740 H     1 <1>   0.1500 
@<TRIPOS>BOND
  1   1   2  2   
  2   2   3  am  
  3   2   4  1   
  4   3   5  1   
  5   3  20  1   
  6   4   6  1   
  7   4   7  1   
  8   4  21  1   
  9   5   8  1   
 10   5   9  1   
 11   5  22  1   
 12   6  10  1   
 13   7  11  1   
 14   7  23  1   
 15   7  24  1   
 16   8  12  1   
 17   8  25  1   
 18   8  26  1   
 19   9  27  1   
 20   9  28  1   
 21   9  29  1   
 22  10  11  2   
 23  11  13  1   
 24  12  30  1   
 25  12  31  1   
 26  12  32  1   
 27  13  14  ar  
 28  13  15  ar  
 29  14  16  1   
 30  14  17  ar  
 31  15  18  ar  
 32  15  33  1   
 33  16  34  1   
 34  17  19  ar  
 35  17  35  1   
 36  18  19  ar  
 37  18  36  1   
 38  19  37  1   
@<TRIPOS>SUBSTRUCTURE
  1 ****  11 GROUP 4 **** **** 0

# MOE 2024.06 (io_trps.svl 2023.06)
