@<TRIPOS>MOLECULE
N'-(2,5-Dimethyl-3-phenyl-pyrazolo[1,5-a]pyrimidin-7-yl)-N,N-dimethyl-propane-1,
51 53 1 0 0 
SMALL
USER_CHARGES


@<TRIPOS>ATOM
  1 N       -0.0200    -0.0510    -0.2000 N.pl3 1 <1>  -0.5840 
  2 C       -1.1380    -0.7940    -0.3460 C.2   1 <1>  -0.0380 
  3 C       -0.0720     1.3370    -0.2920 C.2   1 <1>  -0.0680 
  4 C       -2.3470    -0.1800    -0.5900 C.2   1 <1>  -0.1360 
  5 C       -0.9890    -2.2990    -0.2310 C.3   1 <1>  -0.1020 
  6 N       -1.2710     1.9340    -0.5440 N.pl3 1 <1>   0.5610 
  7 C        0.8540     2.3280    -0.1890 C.2   1 <1>  -0.0540 
  8 C       -2.4420     1.2200    -0.6970 C.cat 1 <1>   0.3950 
  9 N       -1.1490     3.2880    -0.6040 N.2   1 <1>  -0.7070 
 10 C        2.2640     2.1930     0.0710 C.ar  1 <1>   0.0540 
 11 C        0.1120     3.5030    -0.3910 C.2   1 <1>   0.1080 
 12 N       -3.5480     1.9510    -0.9330 N.pl3 1 <1>  -0.1460 
 13 C        2.7150     1.5700     1.2310 C.ar  1 <1>  -0.1500 
 14 C        3.2130     2.6730    -0.8270 C.ar  1 <1>  -0.1500 
 15 C        0.6980     4.9000    -0.3580 C.3   1 <1>  -0.0590 
 16 C       -4.9610     1.5290    -1.1340 C.3   1 <1>   0.1860 
 17 C        4.0670     1.4310     1.4880 C.ar  1 <1>  -0.1500 
 18 C        4.5660     2.5370    -0.5760 C.ar  1 <1>  -0.1500 
 19 C       -5.8990     2.2890    -0.1760 C.3   1 <1>  -0.1600 
 20 C        4.9960     1.9150     0.5830 C.ar  1 <1>  -0.1500 
 21 C       -7.3690     1.8840    -0.3790 C.3   1 <1>   0.3430 
 22 N       -8.2570     2.5500     0.6210 N.4   1 <1>  -0.9590 
 23 C       -9.6100     1.9020     0.6340 C.3   1 <1>   0.2630 
 24 C       -8.4230     4.0230     0.3810 C.3   1 <1>   0.2630 
 25 H        0.9010    -0.4890    -0.0320 H     1 <1>   0.4000 
 26 H       -3.2230    -0.7890    -0.7040 H     1 <1>   0.1500 
 27 H       -0.6000    -2.5580     0.7380 H     1 <1>   0.0800 
 28 H       -0.3080    -2.6590    -0.9820 H     1 <1>   0.0800 
 29 H       -1.9330    -2.7960    -0.3630 H     1 <1>   0.0800 
 30 H       -3.3750     2.9690    -1.0060 H     1 <1>   0.4000 
 31 H        1.9980     1.1960     1.9400 H     1 <1>   0.1500 
 32 H        2.8880     3.1510    -1.7330 H     1 <1>   0.1500 
 33 H        1.4970     4.9530     0.3580 H     1 <1>   0.0800 
 34 H       -0.0580     5.6120    -0.0810 H     1 <1>   0.0800 
 35 H        1.0790     5.1580    -1.3290 H     1 <1>   0.0800 
 36 H       -5.0510     0.4690    -0.9710 H     1 <1>   0.0800 
 37 H       -5.2360     1.7340    -2.1570 H     1 <1>   0.0800 
 38 H        4.4000     0.9490     2.3910 H     1 <1>   0.1500 
 39 H        5.2880     2.9130    -1.2810 H     1 <1>   0.1500 
 40 H       -5.7960     3.3450    -0.3520 H     1 <1>   0.0800 
 41 H       -5.6150     2.0680     0.8390 H     1 <1>   0.0800 
 42 H        6.0490     1.8090     0.7810 H     1 <1>   0.1500 
 43 H       -7.4560     0.8140    -0.2670 H     1 <1>   0.0800 
 44 H       -7.6920     2.1390    -1.3770 H     1 <1>   0.0800 
 45 H       -7.8550     2.4240     1.5650 H     1 <1>   0.4500 
 46 H      -10.0900     2.0100    -0.3250 H     1 <1>   0.0800 
 47 H      -10.2370     2.3580     1.3840 H     1 <1>   0.0800 
 48 H       -9.5230     0.8500     0.8590 H     1 <1>   0.0800 
 49 H       -8.8470     4.2000    -0.5950 H     1 <1>   0.0800 
 50 H       -7.4740     4.5290     0.4440 H     1 <1>   0.0800 
 51 H       -9.0820     4.4500     1.1210 H     1 <1>   0.0800 
@<TRIPOS>BOND
  1   1   2  1   
  2   1   3  1   
  3   1  25  1   
  4   2   4  2   
  5   2   5  1   
  6   3   6  1   
  7   3   7  2   
  8   4   8  1   
  9   4  26  1   
 10   5  27  1   
 11   5  28  1   
 12   5  29  1   
 13   6   8  ar  
 14   6   9  1   
 15   7  10  1   
 16   7  11  1   
 17   8  12  ar  
 18   9  11  2   
 19  10  13  ar  
 20  10  14  ar  
 21  11  15  1   
 22  12  16  1   
 23  12  30  1   
 24  13  17  ar  
 25  13  31  1   
 26  14  18  ar  
 27  14  32  1   
 28  15  33  1   
 29  15  34  1   
 30  15  35  1   
 31  16  19  1   
 32  16  36  1   
 33  16  37  1   
 34  17  20  ar  
 35  17  38  1   
 36  18  20  ar  
 37  18  39  1   
 38  19  21  1   
 39  19  40  1   
 40  19  41  1   
 41  20  42  1   
 42  21  22  1   
 43  21  43  1   
 44  21  44  1   
 45  22  23  1   
 46  22  24  1   
 47  22  45  1   
 48  23  46  1   
 49  23  47  1   
 50  23  48  1   
 51  24  49  1   
 52  24  50  1   
 53  24  51  1   
@<TRIPOS>SUBSTRUCTURE
  1 ****   6 GROUP 4 **** **** 0

# MOE 2024.06 (io_trps.svl 2023.06)
