@<TRIPOS>MOLECULE
NONAME
51 53 1 0 0 
SMALL
USER_CHARGES


@<TRIPOS>ATOM
  1 O        2.3930    -0.9580    -2.5600 O.2   1 <1>  -0.5700 
  2 C        3.1070    -0.2280    -1.9150 C.2   1 <1>   0.5690 
  3 N        3.4780     1.0160    -2.3110 N.am  1 <1>  -0.5390 
  4 C        3.7470    -0.5360    -0.5500 C.3   1 <1>   0.4810 
  5 C        4.3600     1.5690    -1.4190 C.2   1 <1>  -0.0290 
  6 C        4.5450    -1.8500    -0.6020 C.2   1 <1>  -0.1240 
  7 C        2.6450    -0.5360     0.5170 C.ar  1 <1>  -0.1440 
  8 C        4.5920     0.7360    -0.3720 C.2   1 <1>  -0.1240 
  9 C        4.9140     2.9440    -1.7460 C.3   1 <1>  -0.1020 
 10 C        4.2030    -2.8620     0.2540 C.2   1 <1>   0.1770 
 11 C        5.5870    -1.9050    -1.5740 C.2   1 <1>   0.7060 
 12 C        2.4520    -1.6610     1.3030 C.ar  1 <1>   0.0830 
 13 C        1.8260     0.5700     0.7240 C.ar  1 <1>  -0.1500 
 14 C        5.4210     0.8370     0.7860 C.2   1 <1>   0.7060 
 15 O        3.2130    -2.7630     1.1470 O.3   1 <1>  -0.1590 
 16 N        4.8030    -4.0840     0.3200 N.pl3 1 <1>  -0.9000 
 17 O        5.9300    -0.9530    -2.2560 O.2   1 <1>  -0.5700 
 18 O        6.2490    -3.0600    -1.7730 O.3   1 <1>  -0.4300 
 19 C        1.4670    -1.6860     2.2780 C.ar  1 <1>  -0.1500 
 20 C        0.8420     0.5470     1.6980 C.ar  1 <1>  -0.1500 
 21 O        5.5550    -0.0590     1.5950 O.2   1 <1>  -0.5700 
 22 O        6.0830     1.9760     0.9890 O.3   1 <1>  -0.4300 
 23 C        7.3140    -3.1950    -2.6940 C.3   1 <1>   0.1200 
 24 C        0.6610    -0.5810     2.4770 C.ar  1 <1>  -0.1500 
 25 C        6.8500     2.1920     2.1580 C.3   1 <1>   0.1200 
 26 C        8.6120    -2.7580    -2.0160 C.3   1 <1>  -0.2400 
 27 C        7.5270     3.5650     2.0950 C.3   1 <1>   0.1200 
 28 O        6.5640     4.5700     2.0060 O.3   1 <1>  -0.5600 
 29 C        7.0920     5.8550     1.9320 C.3   1 <1>   0.0400 
 30 H        3.2030     1.3820    -3.2240 H     1 <1>   0.3700 
 31 H        4.1080     3.6460    -1.8600 H     1 <1>   0.0800 
 32 H        5.4690     2.9010    -2.6660 H     1 <1>   0.0800 
 33 H        5.5670     3.3100    -0.9780 H     1 <1>   0.0800 
 34 H        1.9430     1.4620     0.1330 H     1 <1>   0.1500 
 35 H        5.5800    -4.3380    -0.3030 H     1 <1>   0.4000 
 36 H        4.5150    -4.7970     0.9950 H     1 <1>   0.4000 
 37 H        1.3390    -2.5700     2.8770 H     1 <1>   0.1500 
 38 H        0.2160     1.4100     1.8490 H     1 <1>   0.1500 
 39 H        7.1060    -2.6080    -3.5740 H     1 <1>   0.0800 
 40 H        7.3710    -4.2320    -2.9740 H     1 <1>   0.0800 
 41 H       -0.1030    -0.5990     3.2340 H     1 <1>   0.1500 
 42 H        7.5910     1.4140     2.2240 H     1 <1>   0.0800 
 43 H        6.1980     2.1350     3.0120 H     1 <1>   0.0800 
 44 H        8.5620    -1.7160    -1.7520 H     1 <1>   0.0800 
 45 H        9.4360    -2.8960    -2.6920 H     1 <1>   0.0800 
 46 H        8.7880    -3.3460    -1.1340 H     1 <1>   0.0800 
 47 H        8.1700     3.6170     1.2340 H     1 <1>   0.0800 
 48 H        8.1060     3.7260     2.9880 H     1 <1>   0.0800 
 49 H        6.2730     6.5490     1.8670 H     1 <1>   0.0800 
 50 H        7.7070     5.9360     1.0530 H     1 <1>   0.0800 
 51 H        7.6670     6.0550     2.8190 H     1 <1>   0.0800 
@<TRIPOS>BOND
  1   1   2  2   
  2   2   3  am  
  3   2   4  1   
  4   3   5  1   
  5   3  30  1   
  6   4   6  1   
  7   4   7  1   
  8   4   8  1   
  9   5   8  2   
 10   5   9  1   
 11   6  10  2   
 12   6  11  1   
 13   7  12  ar  
 14   7  13  ar  
 15   8  14  1   
 16   9  31  1   
 17   9  32  1   
 18   9  33  1   
 19  10  15  1   
 20  10  16  1   
 21  11  17  2   
 22  11  18  1   
 23  12  15  1   
 24  12  19  ar  
 25  13  20  ar  
 26  13  34  1   
 27  14  21  2   
 28  14  22  1   
 29  16  35  1   
 30  16  36  1   
 31  18  23  1   
 32  19  24  ar  
 33  19  37  1   
 34  20  24  ar  
 35  20  38  1   
 36  22  25  1   
 37  23  26  1   
 38  23  39  1   
 39  23  40  1   
 40  24  41  1   
 41  25  27  1   
 42  25  42  1   
 43  25  43  1   
 44  26  44  1   
 45  26  45  1   
 46  26  46  1   
 47  27  28  1   
 48  27  47  1   
 49  27  48  1   
 50  28  29  1   
 51  29  49  1   
 52  29  50  1   
 53  29  51  1   
@<TRIPOS>SUBSTRUCTURE
  1 ****   8 GROUP 4 **** **** 0

# MOE 2024.06 (io_trps.svl 2023.06)
