@<TRIPOS>MOLECULE
(3-Oxo-decahydro-quinoxalin-2-yl)-acetic acid
30 31 1 0 0 
SMALL
USER_CHARGES


@<TRIPOS>ATOM
  1 O       -0.4910     0.1200     0.1660 O.2   1 <1>  -0.5700 
  2 C       -1.4750    -0.5720     0.2570 C.2   1 <1>   0.5690 
  3 N       -2.6120     0.0000     0.7260 N.am  1 <1>  -0.7300 
  4 C       -1.4920    -2.0880    -0.0900 C.3   1 <1>   0.2510 
  5 C       -3.8690    -0.7170     1.0450 C.3   1 <1>   0.2200 
  6 N       -2.4830    -2.8350     0.7370 N.3   1 <1>  -0.9000 
  7 C       -0.1500    -2.8000     0.0980 C.3   1 <1>  -0.2660 
  8 C       -3.8270    -2.2370     0.6810 C.3   1 <1>   0.1900 
  9 C       -5.0240     0.0290     0.3510 C.3   1 <1>  -0.1600 
 10 C        0.8080    -2.4970    -1.0220 C.2   1 <1>   0.9060 
 11 C       -4.4750    -2.5190    -0.6810 C.3   1 <1>  -0.1600 
 12 C       -6.2580    -0.8690     0.1820 C.3   1 <1>  -0.1600 
 13 O        0.3720    -2.3520    -2.1690 O.co2 1 <1>  -0.9000 
 14 O        2.0160    -2.4930    -0.7660 O.co2 1 <1>  -0.9000 
 15 C       -5.9570    -2.0960    -0.7000 C.3   1 <1>  -0.1600 
 16 H       -2.5570     0.9950     0.9380 H     1 <1>   0.3700 
 17 H       -1.7770    -2.1800    -1.1230 H     1 <1>   0.0800 
 18 H       -4.0210    -0.6550     2.1080 H     1 <1>   0.0800 
 19 H       -2.1380    -2.7590     1.6980 H     1 <1>   0.3600 
 20 H       -0.2930    -3.8620     0.0900 H     1 <1>   0.0800 
 21 H        0.3050    -2.5060     1.0230 H     1 <1>   0.0800 
 22 H       -4.4300    -2.7530     1.4100 H     1 <1>   0.0800 
 23 H       -4.7070     0.3550    -0.6260 H     1 <1>   0.0800 
 24 H       -5.2830     0.8990     0.9270 H     1 <1>   0.0800 
 25 H       -4.3940    -3.5670    -0.9150 H     1 <1>   0.0800 
 26 H       -3.9530    -1.9670    -1.4430 H     1 <1>   0.0800 
 27 H       -7.0670    -0.3050    -0.2510 H     1 <1>   0.0800 
 28 H       -6.5810    -1.2010     1.1550 H     1 <1>   0.0800 
 29 H       -6.5680    -2.9180    -0.3690 H     1 <1>   0.0800 
 30 H       -6.2330    -1.8820    -1.7190 H     1 <1>   0.0800 
@<TRIPOS>BOND
  1   1   2  2   
  2   2   3  am  
  3   2   4  1   
  4   3   5  1   
  5   3  16  1   
  6   4   6  1   
  7   4   7  1   
  8   4  17  1   
  9   5   8  1   
 10   5   9  1   
 11   5  18  1   
 12   6   8  1   
 13   6  19  1   
 14   7  10  1   
 15   7  20  1   
 16   7  21  1   
 17   8  11  1   
 18   8  22  1   
 19   9  12  1   
 20   9  23  1   
 21   9  24  1   
 22  10  13  ar  
 23  10  14  ar  
 24  11  15  1   
 25  11  25  1   
 26  11  26  1   
 27  12  15  1   
 28  12  27  1   
 29  12  28  1   
 30  15  29  1   
 31  15  30  1   
@<TRIPOS>SUBSTRUCTURE
  1 ****   4 GROUP 4 **** **** 0

# MOE 2024.06 (io_trps.svl 2023.06)
