@<TRIPOS>MOLECULE
3-(4-Fluoro-benzyl)-8-(3-methoxy-propyl)-1,6,7-trimethyl-1H,8H-imidazo[2,1-f]pur
55 58 1 0 0 
SMALL
USER_CHARGES


@<TRIPOS>ATOM
  1 F        3.4190    -1.3220     3.5490 F     1 <1>  -0.1960 
  2 C        3.8970    -0.9610     2.3890 C.ar  1 <1>   0.1840 
  3 C        4.5480     0.2530     2.2840 C.ar  1 <1>  -0.1570 
  4 C        3.7360    -1.8070     1.3090 C.ar  1 <1>  -0.1570 
  5 C        5.0540     0.6300     1.0520 C.ar  1 <1>  -0.1570 
  6 C        4.2470    -1.4200     0.0810 C.ar  1 <1>  -0.1570 
  7 C        4.9080    -0.2030    -0.0520 C.ar  1 <1>  -0.1500 
  8 C        5.4720     0.2100    -1.4020 C.3   1 <1>   0.2780 
  9 N        6.8420    -0.3540    -1.5430 N.am  1 <1>  -0.4250 
 10 C        6.9960    -1.6210    -2.0870 C.2   1 <1>   0.6870 
 11 C        7.9110     0.3350    -0.9930 C.2   1 <1>   0.7000 
 12 O        6.0660    -2.1640    -2.6460 O.2   1 <1>  -0.5740 
 13 N        8.2250    -2.2670    -2.0060 N.am  1 <1>  -0.4410 
 14 O        7.7770     1.4800    -0.5950 O.2   1 <1>  -0.5740 
 15 C        9.1700    -0.3340    -0.9290 C.2   1 <1>   0.2710 
 16 C        9.2810    -1.5900    -1.4290 C.2   1 <1>   0.4210 
 17 C        8.3940    -3.6490    -2.5480 C.3   1 <1>   0.0530 
 18 N       10.4440     0.0080    -0.4440 N.pl3 1 <1>  -0.6330 
 19 N       10.5660    -2.0290    -1.2730 N.pl3 1 <1>  -0.7030 
 20 C       11.2310    -1.0330    -0.6740 C.cat 1 <1>   1.0690 
 21 C       11.2220     0.9690     0.1700 C.2   1 <1>   0.2350 
 22 N       12.4790    -0.8170    -0.2490 N.pl3 1 <1>  -0.5710 
 23 C       12.4730     0.4630     0.2880 C.2   1 <1>   0.1580 
 24 C       10.6280     2.3040     0.5750 C.3   1 <1>  -0.1090 
 25 C       13.6370    -1.7400    -0.3240 C.3   1 <1>   0.1610 
 26 C       13.7270     1.0880     0.8800 C.3   1 <1>  -0.1090 
 27 C       13.7310    -2.5640     0.9650 C.3   1 <1>  -0.1670 
 28 C       15.0130    -3.3960     1.0100 C.3   1 <1>   0.1130 
 29 O       16.0840    -2.5350     0.8190 O.3   1 <1>  -0.5640 
 30 C       17.3280    -3.1530     0.9100 C.3   1 <1>   0.0330 
 31 H        4.6510     0.8850     3.1480 H     1 <1>   0.1430 
 32 H        3.2210    -2.7430     1.4280 H     1 <1>   0.1430 
 33 H        5.5620     1.5760     0.9580 H     1 <1>   0.1430 
 34 H        4.1270    -2.0700    -0.7700 H     1 <1>   0.1430 
 35 H        5.5010     1.2840    -1.4770 H     1 <1>   0.0730 
 36 H        4.8330    -0.1460    -2.1920 H     1 <1>   0.0730 
 37 H        7.4450    -4.1550    -2.5990 H     1 <1>   0.0730 
 38 H        9.0430    -4.2260    -1.9130 H     1 <1>   0.0730 
 39 H        8.8100    -3.6010    -3.5400 H     1 <1>   0.0730 
 40 H       10.9710    -2.9180    -1.5520 H     1 <1>   0.4450 
 41 H       10.2440     2.8130    -0.2900 H     1 <1>   0.0730 
 42 H       11.3660     2.9300     1.0410 H     1 <1>   0.0730 
 43 H        9.8210     2.1510     1.2690 H     1 <1>   0.0730 
 44 H       14.5360    -1.1630    -0.4650 H     1 <1>   0.0730 
 45 H       13.5370    -2.3960    -1.1720 H     1 <1>   0.0730 
 46 H       14.4930     1.1650     0.1280 H     1 <1>   0.0730 
 47 H       14.0990     0.4860     1.6890 H     1 <1>   0.0730 
 48 H       13.5250     2.0730     1.2580 H     1 <1>   0.0730 
 49 H       12.8880    -3.2250     1.0450 H     1 <1>   0.0730 
 50 H       13.7320    -1.9130     1.8220 H     1 <1>   0.0730 
 51 H       15.0250    -4.1360     0.2270 H     1 <1>   0.0730 
 52 H       15.1190    -3.8770     1.9680 H     1 <1>   0.0730 
 53 H       17.4450    -3.5730     1.8940 H     1 <1>   0.0730 
 54 H       18.0850    -2.4080     0.7420 H     1 <1>   0.0730 
 55 H       17.4010    -3.9200     0.1590 H     1 <1>   0.0730 
@<TRIPOS>BOND
  1   1   2  1   
  2   2   3  ar  
  3   2   4  ar  
  4   3   5  ar  
  5   3  31  1   
  6   4   6  ar  
  7   4  32  1   
  8   5   7  ar  
  9   5  33  1   
 10   6   7  ar  
 11   6  34  1   
 12   7   8  1   
 13   8   9  1   
 14   8  35  1   
 15   8  36  1   
 16   9  10  am  
 17   9  11  am  
 18  10  12  2   
 19  10  13  am  
 20  11  14  2   
 21  11  15  1   
 22  13  16  1   
 23  13  17  1   
 24  15  16  2   
 25  15  18  1   
 26  16  19  1   
 27  17  37  1   
 28  17  38  1   
 29  17  39  1   
 30  18  20  ar  
 31  18  21  1   
 32  19  20  ar  
 33  19  40  1   
 34  20  22  ar  
 35  21  23  2   
 36  21  24  1   
 37  22  23  1   
 38  22  25  1   
 39  23  26  1   
 40  24  41  1   
 41  24  42  1   
 42  24  43  1   
 43  25  27  1   
 44  25  44  1   
 45  25  45  1   
 46  26  46  1   
 47  26  47  1   
 48  26  48  1   
 49  27  28  1   
 50  27  49  1   
 51  27  50  1   
 52  28  29  1   
 53  28  51  1   
 54  28  52  1   
 55  29  30  1   
 56  30  53  1   
 57  30  54  1   
 58  30  55  1   
@<TRIPOS>SUBSTRUCTURE
  1 ****  15 GROUP 4 **** **** 0

# MOE 2024.06 (io_trps.svl 2023.06)
