@<TRIPOS>MOLECULE
4-(3,4-Dimethoxy-phenyl)-7,7-dimethyl-4,7,8,9-tetrahydro-6H-1,2,3,3a,9-pentaaza-
47 50 1 0 0 
SMALL
USER_CHARGES


@<TRIPOS>ATOM
  1 O       -0.0010    -0.6050     1.3490 O.2   1 <1>  -0.5700 
  2 C       -0.3110    -1.4430     0.5370 C.2   1 <1>   0.4950 
  3 C       -1.6380    -1.9120     0.3570 C.2   1 <1>  -0.1240 
  4 C        0.7800    -2.0490    -0.3280 C.3   1 <1>  -0.0990 
  5 C       -1.9590    -2.9760    -0.4280 C.2   1 <1>  -0.0380 
  6 C       -2.7280    -1.1290     1.1060 C.3   1 <1>   0.4570 
  7 C        0.5220    -3.5390    -0.6430 C.3   1 <1>   0.0000 
  8 N       -3.2540    -3.4290    -0.5270 N.pl3 1 <1>  -0.5840 
  9 C       -0.8990    -3.7250    -1.2270 C.3   1 <1>  -0.0220 
 10 N       -4.0190    -1.8600     1.0720 N.pl3 1 <1>   0.3140 
 11 C       -2.8970     0.2510     0.4650 C.ar  1 <1>  -0.1440 
 12 C        0.6720    -4.3770     0.6420 C.3   1 <1>  -0.2400 
 13 C        1.5630    -4.0320    -1.6590 C.3   1 <1>  -0.2400 
 14 C       -4.2460    -2.9010     0.2910 C.2   1 <1>   0.2700 
 15 N       -5.1240    -1.6220     1.7590 N.2   1 <1>  -0.4180 
 16 C       -3.3880     0.3790    -0.8280 C.ar  1 <1>  -0.1500 
 17 C       -2.5490     1.3960     1.1630 C.ar  1 <1>  -0.1500 
 18 N       -5.4470    -3.3140     0.4470 N.2   1 <1>  -0.3380 
 19 N       -5.9760    -2.5030     1.3670 N.2   1 <1>   0.0000 
 20 C       -3.5380     1.6200    -1.4200 C.ar  1 <1>   0.0820 
 21 C       -2.6840     2.6450     0.5810 C.ar  1 <1>  -0.1500 
 22 O       -4.0390     1.6040    -2.6860 O.3   1 <1>  -0.3620 
 23 C       -3.1700     2.7770    -0.7170 C.ar  1 <1>   0.0820 
 24 C       -5.0030     2.5590    -3.0710 C.3   1 <1>   0.0400 
 25 O       -3.2750     3.9980    -1.3200 O.3   1 <1>  -0.3630 
 26 C       -2.6970     5.1560    -0.7590 C.3   1 <1>   0.0400 
 27 H        1.7260    -1.9360     0.1710 H     1 <1>   0.0800 
 28 H        0.8230    -1.4820    -1.2410 H     1 <1>   0.0800 
 29 H       -2.4470    -1.0230     2.1390 H     1 <1>   0.0800 
 30 H       -3.5220    -4.2300    -1.1100 H     1 <1>   0.4000 
 31 H       -0.9290    -3.3580    -2.2380 H     1 <1>   0.0800 
 32 H       -1.1370    -4.7740    -1.2550 H     1 <1>   0.0800 
 33 H        1.6540    -4.2490     1.0640 H     1 <1>   0.0800 
 34 H        0.5350    -5.4230     0.4300 H     1 <1>   0.0800 
 35 H       -0.0510    -4.0930     1.3860 H     1 <1>   0.0800 
 36 H        2.5580    -3.9240    -1.2640 H     1 <1>   0.0800 
 37 H        1.5020    -3.4690    -2.5740 H     1 <1>   0.0800 
 38 H        1.4050    -5.0710    -1.8920 H     1 <1>   0.0800 
 39 H       -3.6660    -0.4890    -1.4000 H     1 <1>   0.1500 
 40 H       -2.1580     1.3250     2.1640 H     1 <1>   0.1500 
 41 H       -2.3990     3.5010     1.1610 H     1 <1>   0.1500 
 42 H       -5.5680     2.1540    -3.8910 H     1 <1>   0.0800 
 43 H       -4.4990     3.4550    -3.3850 H     1 <1>   0.0800 
 44 H       -5.6540     2.7610    -2.2380 H     1 <1>   0.0800 
 45 H       -2.8230     5.9630    -1.4580 H     1 <1>   0.0800 
 46 H       -1.6500     4.9770    -0.5920 H     1 <1>   0.0800 
 47 H       -3.2030     5.3890     0.1610 H     1 <1>   0.0800 
@<TRIPOS>BOND
  1   1   2  2   
  2   2   3  1   
  3   2   4  1   
  4   3   5  2   
  5   3   6  1   
  6   4   7  1   
  7   4  27  1   
  8   4  28  1   
  9   5   8  1   
 10   5   9  1   
 11   6  10  1   
 12   6  11  1   
 13   6  29  1   
 14   7   9  1   
 15   7  12  1   
 16   7  13  1   
 17   8  14  1   
 18   8  30  1   
 19   9  31  1   
 20   9  32  1   
 21  10  14  1   
 22  10  15  1   
 23  11  16  ar  
 24  11  17  ar  
 25  12  33  1   
 26  12  34  1   
 27  12  35  1   
 28  13  36  1   
 29  13  37  1   
 30  13  38  1   
 31  14  18  2   
 32  15  19  2   
 33  16  20  ar  
 34  16  39  1   
 35  17  21  ar  
 36  17  40  1   
 37  18  19  1   
 38  20  22  1   
 39  20  23  ar  
 40  21  23  ar  
 41  21  41  1   
 42  22  24  1   
 43  23  25  1   
 44  24  42  1   
 45  24  43  1   
 46  24  44  1   
 47  25  26  1   
 48  26  45  1   
 49  26  46  1   
 50  26  47  1   
@<TRIPOS>SUBSTRUCTURE
  1 ****  11 GROUP 4 **** **** 0

# MOE 2024.06 (io_trps.svl 2023.06)
