@<TRIPOS>MOLECULE
1-Azetidin-1-yl-2-chloro-ethanone
16 16 1 0 0 
SMALL
USER_CHARGES


@<TRIPOS>ATOM
  1 CL      -0.0240     0.4220     1.4360 Cl    1 <1>  -0.2900 
  2 C       -0.4610     1.4770     0.0920 C.3   1 <1>   0.1910 
  3 C       -1.9390     1.8350     0.1380 C.2   1 <1>   0.5690 
  4 O       -2.2470     2.9690     0.4200 O.2   1 <1>  -0.5700 
  5 N       -2.8770     0.8980    -0.1770 N.am  1 <1>  -0.5100 
  6 C       -2.8490    -0.5850     0.0240 C.3   1 <1>   0.2250 
  7 C       -4.3280     0.9370     0.1830 C.3   1 <1>   0.2250 
  8 C       -4.3840    -0.5710    -0.1420 C.3   1 <1>   0.0000 
  9 H       -0.2280     0.9590    -0.8180 H     1 <1>   0.0800 
 10 H        0.1380     2.3650     0.1720 H     1 <1>   0.0800 
 11 H       -2.5260    -0.8450     1.0170 H     1 <1>   0.0000 
 12 H       -2.3280    -1.0930    -0.7670 H     1 <1>   0.0000 
 13 H       -4.8980     1.5510    -0.4920 H     1 <1>   0.0000 
 14 H       -4.4680     1.1650     1.2260 H     1 <1>   0.0000 
 15 H       -4.9090    -1.1570     0.5920 H     1 <1>   0.0000 
 16 H       -4.7000    -0.7720    -1.1510 H     1 <1>   0.0000 
@<TRIPOS>BOND
  1   1   2  1   
  2   2   3  1   
  3   2   9  1   
  4   2  10  1   
  5   3   4  2   
  6   3   5  am  
  7   5   6  1   
  8   5   7  1   
  9   6   8  1   
 10   6  11  1   
 11   6  12  1   
 12   7   8  1   
 13   7  13  1   
 14   7  14  1   
 15   8  15  1   
 16   8  16  1   
@<TRIPOS>SUBSTRUCTURE
  1 ****   5 GROUP 4 **** **** 0

# MOE 2024.06 (io_trps.svl 2023.06)
