@<TRIPOS>MOLECULE
6-Methyl-2,3,4,4a,9,9a-hexahydro-1H-carbazole
31 33 1 0 0 
SMALL
USER_CHARGES


@<TRIPOS>ATOM
  1 N       -0.1230     0.1530    -0.2810 N.pl3 1 <1>  -0.8690 
  2 C       -1.4100     0.6520    -0.2870 C.ar  1 <1>   0.1000 
  3 C        0.7450     1.1370     0.4160 C.3   1 <1>   0.2890 
  4 C       -1.4910     1.9360     0.2030 C.ar  1 <1>  -0.1430 
  5 C       -2.5550    -0.0050    -0.7040 C.ar  1 <1>  -0.1500 
  6 C       -0.1140     2.4170     0.5910 C.3   1 <1>   0.0640 
  7 C        2.0260     1.3570    -0.3980 C.3   1 <1>  -0.1600 
  8 C       -2.7040     2.5910     0.2910 C.ar  1 <1>  -0.1500 
  9 C       -3.7760     0.6430    -0.6210 C.ar  1 <1>  -0.1500 
 10 C        0.3440     3.5740    -0.3120 C.3   1 <1>  -0.1600 
 11 C        2.7310     2.6520     0.0350 C.3   1 <1>  -0.1600 
 12 C       -3.8580     1.9400    -0.1260 C.ar  1 <1>  -0.1430 
 13 C        1.8360     3.8990    -0.1180 C.3   1 <1>  -0.1600 
 14 C       -5.2020     2.6390    -0.0390 C.3   1 <1>  -0.0970 
 15 H       -0.0360    -0.8020     0.0760 H     1 <1>   0.4000 
 16 H        0.9950     0.7530     1.3900 H     1 <1>   0.0800 
 17 H       -2.4810    -1.0040    -1.0890 H     1 <1>   0.1500 
 18 H       -0.0960     2.7260     1.6210 H     1 <1>   0.0800 
 19 H        1.7780     1.4230    -1.4430 H     1 <1>   0.0800 
 20 H        2.6830     0.5170    -0.2620 H     1 <1>   0.0800 
 21 H       -2.7490     3.5930     0.6780 H     1 <1>   0.1500 
 22 H       -4.6660     0.1340    -0.9450 H     1 <1>   0.1500 
 23 H       -0.2530     4.4480    -0.1210 H     1 <1>   0.0800 
 24 H        0.1780     3.2880    -1.3380 H     1 <1>   0.0800 
 25 H        3.6300     2.7840    -0.5420 H     1 <1>   0.0800 
 26 H        3.0230     2.5550     1.0670 H     1 <1>   0.0800 
 27 H        1.9540     4.5180     0.7550 H     1 <1>   0.0800 
 28 H        2.1690     4.4750    -0.9650 H     1 <1>   0.0800 
 29 H       -5.0780     3.7040    -0.1150 H     1 <1>   0.0800 
 30 H       -5.6710     2.4090     0.9000 H     1 <1>   0.0800 
 31 H       -5.8450     2.3150    -0.8380 H     1 <1>   0.0800 
@<TRIPOS>BOND
  1   1   2  1   
  2   1   3  1   
  3   1  15  1   
  4   2   4  ar  
  5   2   5  ar  
  6   3   6  1   
  7   3   7  1   
  8   3  16  1   
  9   4   6  1   
 10   4   8  ar  
 11   5   9  ar  
 12   5  17  1   
 13   6  10  1   
 14   6  18  1   
 15   7  11  1   
 16   7  19  1   
 17   7  20  1   
 18   8  12  ar  
 19   8  21  1   
 20   9  12  ar  
 21   9  22  1   
 22  10  13  1   
 23  10  23  1   
 24  10  24  1   
 25  11  13  1   
 26  11  25  1   
 27  11  26  1   
 28  12  14  1   
 29  13  27  1   
 30  13  28  1   
 31  14  29  1   
 32  14  30  1   
 33  14  31  1   
@<TRIPOS>SUBSTRUCTURE
  1 ****   4 GROUP 4 **** **** 0

# MOE 2024.06 (io_trps.svl 2023.06)
