@<TRIPOS>MOLECULE
4-Methyl-N-[2-(2-morpholin-4-yl-acetylamino)-ethyl]-benzamide
45 46 1 0 0 
SMALL
USER_CHARGES


@<TRIPOS>ATOM
  1 O       -0.2500     1.9470    -1.9090 O.2   1 <1>  -0.5700 
  2 C       -0.7370     1.7830    -0.8070 C.2   1 <1>   0.5440 
  3 N        0.1050     1.7120     0.2670 N.am  1 <1>  -0.7300 
  4 C       -2.1750     1.6610    -0.6350 C.ar  1 <1>   0.0860 
  5 C        1.5850     1.8020     0.1960 C.3   1 <1>   0.1400 
  6 C       -2.8120     2.0360     0.5500 C.ar  1 <1>  -0.1500 
  7 C       -2.9790     1.1590    -1.6580 C.ar  1 <1>  -0.1500 
  8 C        2.0240     3.2640     0.0900 C.3   1 <1>   0.1400 
  9 C       -4.1800     1.9030     0.7080 C.ar  1 <1>  -0.1500 
 10 C       -4.3470     1.0250    -1.5050 C.ar  1 <1>  -0.1500 
 11 N        3.5010     3.3660     0.1620 N.am  1 <1>  -0.7300 
 12 C       -4.9570     1.3930    -0.3180 C.ar  1 <1>  -0.1430 
 13 C        4.2420     3.3270     1.2990 C.2   1 <1>   0.5690 
 14 C       -6.4580     1.2460    -0.1490 C.3   1 <1>  -0.0970 
 15 O        3.7390     3.1500     2.3830 O.2   1 <1>  -0.5700 
 16 C        5.7610     3.4980     1.1880 C.3   1 <1>   0.1710 
 17 N        6.2090     4.2970     0.0100 N.3   1 <1>  -0.8100 
 18 C        7.6590     4.1870    -0.2120 C.3   1 <1>   0.1100 
 19 C        5.7880     5.7190     0.1050 C.3   1 <1>   0.1100 
 20 C        8.0960     4.9740    -1.4700 C.3   1 <1>   0.1200 
 21 C        6.7800     6.7130    -0.5420 C.3   1 <1>   0.1200 
 22 O        7.3760     6.1630    -1.6790 O.3   1 <1>  -0.5600 
 23 H       -0.2790     1.5010     1.1900 H     1 <1>   0.3700 
 24 H        1.9340     1.2590    -0.6660 H     1 <1>   0.0800 
 25 H        2.0070     1.3600     1.0820 H     1 <1>   0.0800 
 26 H       -2.2350     2.4470     1.3580 H     1 <1>   0.1500 
 27 H       -2.5170     0.8720    -2.5870 H     1 <1>   0.1500 
 28 H        1.5970     3.8240     0.9040 H     1 <1>   0.0800 
 29 H        1.6810     3.6810    -0.8420 H     1 <1>   0.0800 
 30 H       -4.6410     2.2020     1.6330 H     1 <1>   0.1500 
 31 H       -4.9350     0.6330    -2.3170 H     1 <1>   0.1500 
 32 H        4.0100     3.5650    -0.7070 H     1 <1>   0.3700 
 33 H       -6.9510     2.1400    -0.4890 H     1 <1>   0.0800 
 34 H       -6.7080     1.0830     0.8840 H     1 <1>   0.0800 
 35 H       -6.8210     0.4110    -0.7210 H     1 <1>   0.0800 
 36 H        6.1830     2.5120     1.1240 H     1 <1>   0.0800 
 37 H        6.1220     3.9510     2.0940 H     1 <1>   0.0800 
 38 H        7.9340     3.1530    -0.3350 H     1 <1>   0.0800 
 39 H        8.1870     4.5680     0.6450 H     1 <1>   0.0800 
 40 H        5.6560     6.0040     1.1350 H     1 <1>   0.0800 
 41 H        4.8340     5.8250    -0.3800 H     1 <1>   0.0800 
 42 H        7.9490     4.3630    -2.3420 H     1 <1>   0.0800 
 43 H        9.1400     5.2230    -1.4050 H     1 <1>   0.0800 
 44 H        7.5590     6.9740     0.1520 H     1 <1>   0.0800 
 45 H        6.2680     7.6120    -0.8350 H     1 <1>   0.0800 
@<TRIPOS>BOND
  1   1   2  2   
  2   2   3  am  
  3   2   4  1   
  4   3   5  1   
  5   3  23  1   
  6   4   6  ar  
  7   4   7  ar  
  8   5   8  1   
  9   5  24  1   
 10   5  25  1   
 11   6   9  ar  
 12   6  26  1   
 13   7  10  ar  
 14   7  27  1   
 15   8  11  1   
 16   8  28  1   
 17   8  29  1   
 18   9  12  ar  
 19   9  30  1   
 20  10  12  ar  
 21  10  31  1   
 22  11  13  am  
 23  11  32  1   
 24  12  14  1   
 25  13  15  2   
 26  13  16  1   
 27  14  33  1   
 28  14  34  1   
 29  14  35  1   
 30  16  17  1   
 31  16  36  1   
 32  16  37  1   
 33  17  18  1   
 34  17  19  1   
 35  18  20  1   
 36  18  38  1   
 37  18  39  1   
 38  19  21  1   
 39  19  40  1   
 40  19  41  1   
 41  20  22  1   
 42  20  42  1   
 43  20  43  1   
 44  21  22  1   
 45  21  44  1   
 46  21  45  1   
@<TRIPOS>SUBSTRUCTURE
  1 ****   8 GROUP 4 **** **** 0

# MOE 2024.06 (io_trps.svl 2023.06)
