@<TRIPOS>MOLECULE
N-Cyclohexyl-4-[3-(2-methoxy-phenyl)-[1,2,4]oxadiazol-5-yl]-butyramide
50 52 1 0 0 
SMALL
USER_CHARGES


@<TRIPOS>ATOM
  1 O        0.1050    -1.3060     0.9940 O.2   1 <1>  -0.5700 
  2 C       -0.9430    -1.7880     0.6510 C.2   1 <1>   0.5690 
  3 N       -0.9640    -2.9930     0.0370 N.am  1 <1>  -0.7300 
  4 C       -2.2250    -1.0220     0.9200 C.3   1 <1>  -0.0990 
  5 C       -2.1080    -3.7460    -0.5090 C.3   1 <1>   0.2200 
  6 C       -2.6780    -0.2070    -0.3090 C.3   1 <1>  -0.1600 
  7 C       -2.3840    -4.9570     0.3870 C.3   1 <1>  -0.1600 
  8 C       -1.7790    -4.1750    -1.9420 C.3   1 <1>  -0.1600 
  9 C       -4.1800     0.1200    -0.2740 C.3   1 <1>   0.0200 
 10 C       -3.5000    -5.8360    -0.1960 C.3   1 <1>  -0.1600 
 11 C       -2.8970    -5.0490    -2.5280 C.3   1 <1>  -0.1600 
 12 C       -5.0060    -1.1430    -0.4310 C.2   1 <1>   0.2980 
 13 C       -3.1780    -6.2640    -1.6340 C.3   1 <1>  -0.1600 
 14 O       -5.0660    -1.7080    -1.6080 O.3   1 <1>  -0.0190 
 15 N       -5.6240    -1.7450     0.4970 N.2   1 <1>  -0.5650 
 16 N       -5.7660    -2.7780    -1.4070 N.2   1 <1>  -0.4100 
 17 C       -6.1070    -2.8020    -0.1660 C.2   1 <1>   0.4620 
 18 C       -6.8510    -3.8460     0.5120 C.ar  1 <1>   0.0540 
 19 C       -7.9720    -4.4730    -0.0510 C.ar  1 <1>   0.0820 
 20 C       -6.4350    -4.2700     1.7760 C.ar  1 <1>  -0.1500 
 21 O       -8.4020    -4.0400    -1.2640 O.3   1 <1>  -0.3630 
 22 C       -8.6210    -5.4980     0.6350 C.ar  1 <1>  -0.1500 
 23 C       -7.0840    -5.2840     2.4530 C.ar  1 <1>  -0.1500 
 24 C       -9.4560    -4.6610    -1.9660 C.3   1 <1>   0.0400 
 25 C       -8.1780    -5.9030     1.8790 C.ar  1 <1>  -0.1500 
 26 H       -0.0550    -3.4420    -0.0770 H     1 <1>   0.3700 
 27 H       -2.0620    -0.3570     1.7490 H     1 <1>   0.0800 
 28 H       -2.9740    -1.7260     1.2280 H     1 <1>   0.0800 
 29 H       -2.9870    -3.1270    -0.5340 H     1 <1>   0.0800 
 30 H       -2.4660    -0.7580    -1.2090 H     1 <1>   0.0800 
 31 H       -2.1070     0.7050    -0.3500 H     1 <1>   0.0800 
 32 H       -2.6750    -4.6180     1.3650 H     1 <1>   0.0800 
 33 H       -1.4880    -5.5460     0.4820 H     1 <1>   0.0800 
 34 H       -0.8590    -4.7330    -1.9500 H     1 <1>   0.0800 
 35 H       -1.6550    -3.3010    -2.5560 H     1 <1>   0.0800 
 36 H       -4.4260     0.7950    -1.0730 H     1 <1>   0.0800 
 37 H       -4.4300     0.5980     0.6570 H     1 <1>   0.0800 
 38 H       -4.4260    -5.2870    -0.1950 H     1 <1>   0.0800 
 39 H       -3.6360    -6.7080     0.4200 H     1 <1>   0.0800 
 40 H       -2.6180    -5.3820    -3.5130 H     1 <1>   0.0800 
 41 H       -3.7970    -4.4640    -2.6230 H     1 <1>   0.0800 
 42 H       -4.0070    -6.8220    -2.0360 H     1 <1>   0.0800 
 43 H       -2.3170    -6.9110    -1.6290 H     1 <1>   0.0800 
 44 H       -5.5840    -3.7950     2.2320 H     1 <1>   0.1500 
 45 H       -9.4780    -5.9920     0.2180 H     1 <1>   0.1500 
 46 H       -6.7390    -5.5920     3.4260 H     1 <1>   0.1500 
 47 H       -9.5660    -4.1590    -2.9100 H     1 <1>   0.0800 
 48 H      -10.3610    -4.5650    -1.3940 H     1 <1>   0.0800 
 49 H       -9.2050    -5.6940    -2.1280 H     1 <1>   0.0800 
 50 H       -8.6840    -6.6950     2.4040 H     1 <1>   0.1500 
@<TRIPOS>BOND
  1   1   2  2   
  2   2   3  am  
  3   2   4  1   
  4   3   5  1   
  5   3  26  1   
  6   4   6  1   
  7   4  27  1   
  8   4  28  1   
  9   5   7  1   
 10   5   8  1   
 11   5  29  1   
 12   6   9  1   
 13   6  30  1   
 14   6  31  1   
 15   7  10  1   
 16   7  32  1   
 17   7  33  1   
 18   8  11  1   
 19   8  34  1   
 20   8  35  1   
 21   9  12  1   
 22   9  36  1   
 23   9  37  1   
 24  10  13  1   
 25  10  38  1   
 26  10  39  1   
 27  11  13  1   
 28  11  40  1   
 29  11  41  1   
 30  12  14  1   
 31  12  15  2   
 32  13  42  1   
 33  13  43  1   
 34  14  16  1   
 35  15  17  1   
 36  16  17  2   
 37  17  18  1   
 38  18  19  ar  
 39  18  20  ar  
 40  19  21  1   
 41  19  22  ar  
 42  20  23  ar  
 43  20  44  1   
 44  21  24  1   
 45  22  25  ar  
 46  22  45  1   
 47  23  25  ar  
 48  23  46  1   
 49  24  47  1   
 50  24  48  1   
 51  24  49  1   
 52  25  50  1   
@<TRIPOS>SUBSTRUCTURE
  1 ****  17 GROUP 4 **** **** 0

# MOE 2024.06 (io_trps.svl 2023.06)
