@<TRIPOS>MOLECULE
4-[4-Chloro-3-(morpholine-4-sulfonyl)-benzoyl]-piperazine-1-carboxylic acid ethy
53 55 1 0 0 
SMALL
USER_CHARGES


@<TRIPOS>ATOM
  1 CL      -0.0650     1.0360     0.1130 Cl    1 <1>  -0.1770 
  2 C        1.3310     0.1450    -0.4360 C.ar  1 <1>   0.1770 
  3 C        1.6700    -1.0990     0.0830 C.ar  1 <1>  -0.0090 
  4 C        2.0820     0.7450    -1.4310 C.ar  1 <1>  -0.1500 
  5 S        0.7280    -1.9330     1.3870 S.o2  1 <1>   1.4470 
  6 C        2.7860    -1.7260    -0.4610 C.ar  1 <1>  -0.1500 
  7 C        3.1950     0.1020    -1.9370 C.ar  1 <1>  -0.1500 
  8 O       -0.0320    -1.0240     2.2150 O.2   1 <1>  -0.6500 
  9 O        1.6270    -2.8550     2.0480 O.2   1 <1>  -0.6500 
 10 N       -0.3900    -2.8800     0.5400 N.am  1 <1>  -0.8490 
 11 C        3.5710    -1.1510    -1.4580 C.ar  1 <1>   0.0860 
 12 C       -1.5580    -2.1380     0.0500 C.3   1 <1>   0.1960 
 13 C       -0.8080    -4.0660     1.3160 C.3   1 <1>   0.1960 
 14 C        4.7330    -1.8420    -1.9780 C.2   1 <1>   0.5440 
 15 C       -2.4880    -3.0340    -0.8020 C.3   1 <1>   0.1200 
 16 C       -2.1950    -4.6240     0.9230 C.3   1 <1>   0.1200 
 17 O        4.5830    -2.9190    -2.5200 O.2   1 <1>  -0.5700 
 18 N        6.0030    -1.3190    -1.8580 N.am  1 <1>  -0.6600 
 19 O       -2.4740    -4.3880    -0.4250 O.3   1 <1>  -0.5600 
 20 C        6.3760    -0.2480    -0.8820 C.3   1 <1>   0.1400 
 21 C        7.1880    -1.9850    -2.4870 C.3   1 <1>   0.1400 
 22 C        7.3250    -0.7970     0.1960 C.3   1 <1>   0.1400 
 23 C        8.1300    -2.5470    -1.4120 C.3   1 <1>   0.1400 
 24 N        8.4950    -1.4870    -0.4250 N.am  1 <1>  -0.6600 
 25 C        9.7970    -1.1450    -0.1790 C.2   1 <1>   0.7800 
 26 O       10.7340    -1.6970    -0.7240 O.2   1 <1>  -0.5700 
 27 O       10.0270    -0.1580     0.6890 O.3   1 <1>  -0.4300 
 28 C       11.3420     0.2470     0.9900 C.3   1 <1>   0.1200 
 29 C       11.2650     1.3870     2.0010 C.3   1 <1>  -0.2400 
 30 H        1.7900     1.7110    -1.8080 H     1 <1>   0.1500 
 31 H        3.0660    -2.7040    -0.1020 H     1 <1>   0.1500 
 32 H        3.7810     0.5620    -2.7150 H     1 <1>   0.1500 
 33 H       -1.2440    -1.3060    -0.5530 H     1 <1>   0.0800 
 34 H       -2.1150    -1.7440     0.8850 H     1 <1>   0.0800 
 35 H       -0.8330    -3.8310     2.3680 H     1 <1>   0.0800 
 36 H       -0.0690    -4.8370     1.1820 H     1 <1>   0.0800 
 37 H       -2.1800    -2.9940    -1.8310 H     1 <1>   0.0800 
 38 H       -3.5010    -2.6790    -0.7390 H     1 <1>   0.0800 
 39 H       -2.9670    -4.1600     1.5120 H     1 <1>   0.0800 
 40 H       -2.2300    -5.6850     1.0910 H     1 <1>   0.0800 
 41 H        5.5040     0.1580    -0.4020 H     1 <1>   0.0800 
 42 H        6.8660     0.5520    -1.4090 H     1 <1>   0.0800 
 43 H        7.7220    -1.2670    -3.0840 H     1 <1>   0.0800 
 44 H        6.8780    -2.7830    -3.1390 H     1 <1>   0.0800 
 45 H        6.7930    -1.5010     0.8120 H     1 <1>   0.0800 
 46 H        7.6470     0.0120     0.8280 H     1 <1>   0.0800 
 47 H        9.0110    -2.9450    -1.8860 H     1 <1>   0.0800 
 48 H        7.6380    -3.3550    -0.8990 H     1 <1>   0.0800 
 49 H       11.8170     0.5690     0.0780 H     1 <1>   0.0800 
 50 H       11.8740    -0.5970     1.3970 H     1 <1>   0.0800 
 51 H       10.7220     2.2160     1.5840 H     1 <1>   0.0800 
 52 H       12.2580     1.7180     2.2480 H     1 <1>   0.0800 
 53 H       10.7810     1.0530     2.9000 H     1 <1>   0.0800 
@<TRIPOS>BOND
  1   1   2  1   
  2   2   3  ar  
  3   2   4  ar  
  4   3   5  1   
  5   3   6  ar  
  6   4   7  ar  
  7   4  30  1   
  8   5   8  2   
  9   5   9  2   
 10   5  10  am  
 11   6  11  ar  
 12   6  31  1   
 13   7  11  ar  
 14   7  32  1   
 15  10  12  1   
 16  10  13  1   
 17  11  14  1   
 18  12  15  1   
 19  12  33  1   
 20  12  34  1   
 21  13  16  1   
 22  13  35  1   
 23  13  36  1   
 24  14  17  2   
 25  14  18  am  
 26  15  19  1   
 27  15  37  1   
 28  15  38  1   
 29  16  19  1   
 30  16  39  1   
 31  16  40  1   
 32  18  20  1   
 33  18  21  1   
 34  20  22  1   
 35  20  41  1   
 36  20  42  1   
 37  21  23  1   
 38  21  43  1   
 39  21  44  1   
 40  22  24  1   
 41  22  45  1   
 42  22  46  1   
 43  23  24  1   
 44  23  47  1   
 45  23  48  1   
 46  24  25  am  
 47  25  26  2   
 48  25  27  1   
 49  27  28  1   
 50  28  29  1   
 51  28  49  1   
 52  28  50  1   
 53  29  51  1   
 54  29  52  1   
 55  29  53  1   
@<TRIPOS>SUBSTRUCTURE
  1 ****   6 GROUP 4 **** **** 0

# MOE 2024.06 (io_trps.svl 2023.06)
