@<TRIPOS>MOLECULE
2-Amino-5-(4-chloro-phenyl)-8,8-dimethyl-5,8,9,10-tetrahydro-3H,7H-pyrimido[4,5-
45 48 1 0 0 
SMALL
USER_CHARGES


@<TRIPOS>ATOM
  1 CL       0.4040    -0.3090    -0.9590 Cl    1 <1>  -0.1770 
  2 C        0.2350    -1.9590    -0.4170 C.ar  1 <1>   0.1770 
  3 C        0.1180    -2.9700    -1.3510 C.ar  1 <1>  -0.1500 
  4 C        0.2190    -2.2300     0.9380 C.ar  1 <1>  -0.1500 
  5 C       -0.0180    -4.2780    -0.9180 C.ar  1 <1>  -0.1500 
  6 C        0.0830    -3.5400     1.3640 C.ar  1 <1>  -0.1500 
  7 C       -0.0360    -4.5720     0.4410 C.ar  1 <1>  -0.1430 
  8 C       -0.1870    -6.0190     0.9200 C.3   1 <1>   0.3400 
  9 C        0.9950    -6.8320     0.4100 C.2   1 <1>  -0.1240 
 10 C       -1.5250    -6.5750     0.4140 C.2   1 <1>  -0.1240 
 11 C        0.8320    -7.7420    -0.5800 C.2   1 <1>   0.2000 
 12 C        2.2840    -6.6430     0.9530 C.2   1 <1>   0.7670 
 13 C       -1.5520    -7.5140    -0.5690 C.2   1 <1>  -0.0380 
 14 C       -2.6990    -6.0420     1.0180 C.2   1 <1>   0.4950 
 15 N        1.9380    -8.3890    -1.0320 N.pl3 1 <1>  -0.5500 
 16 N       -0.3990    -8.0370    -1.1130 N.pl3 1 <1>  -0.6000 
 17 O        2.4620    -5.8930     1.9110 O.2   1 <1>  -0.5700 
 18 N        3.3670    -7.3020     0.4620 N.2   1 <1>  -0.6610 
 19 C       -2.8660    -8.0470    -1.1260 C.3   1 <1>  -0.0220 
 20 O       -2.7020    -5.3090     1.9790 O.2   1 <1>  -0.5700 
 21 C       -4.0420    -6.4270     0.4220 C.3   1 <1>  -0.0990 
 22 C        3.1560    -8.1330    -0.4960 C.2   1 <1>   0.5500 
 23 C       -4.0470    -7.8630    -0.1440 C.3   1 <1>   0.0000 
 24 N        4.2030    -8.7890    -0.9960 N.pl3 1 <1>  -0.8500 
 25 C       -5.3730    -8.1170    -0.8780 C.3   1 <1>  -0.2400 
 26 C       -3.9340    -8.8800     1.0080 C.3   1 <1>  -0.2400 
 27 H        0.1340    -2.7330    -2.3990 H     1 <1>   0.1500 
 28 H        0.3130    -1.4290     1.6470 H     1 <1>   0.1500 
 29 H       -0.1080    -5.0680    -1.6440 H     1 <1>   0.1500 
 30 H        0.0720    -3.7540     2.4200 H     1 <1>   0.1500 
 31 H       -0.1850    -6.0570     1.9960 H     1 <1>   0.0800 
 32 H        1.8750    -9.0810    -1.7690 H     1 <1>   0.4000 
 33 H       -0.4630    -8.7300    -1.8630 H     1 <1>   0.4000 
 34 H       -2.7650    -9.0920    -1.3620 H     1 <1>   0.0800 
 35 H       -3.0710    -7.5250    -2.0440 H     1 <1>   0.0800 
 36 H       -4.2640    -5.7220    -0.3580 H     1 <1>   0.0800 
 37 H       -4.8010    -6.3270     1.1780 H     1 <1>   0.0800 
 38 H        5.1200    -8.5910    -0.5920 H     1 <1>   0.4000 
 39 H        4.1810    -9.4520    -1.7660 H     1 <1>   0.4000 
 40 H       -5.4000    -9.1150    -1.2800 H     1 <1>   0.0800 
 41 H       -6.2050    -8.0040    -0.2050 H     1 <1>   0.0800 
 42 H       -5.5010    -7.4220    -1.6900 H     1 <1>   0.0800 
 43 H       -3.0100    -8.7640     1.5470 H     1 <1>   0.0800 
 44 H       -3.9740    -9.8860     0.6310 H     1 <1>   0.0800 
 45 H       -4.7440    -8.7520     1.7050 H     1 <1>   0.0800 
@<TRIPOS>BOND
  1   1   2  1   
  2   2   3  ar  
  3   2   4  ar  
  4   3   5  ar  
  5   3  27  1   
  6   4   6  ar  
  7   4  28  1   
  8   5   7  ar  
  9   5  29  1   
 10   6   7  ar  
 11   6  30  1   
 12   7   8  1   
 13   8   9  1   
 14   8  10  1   
 15   8  31  1   
 16   9  11  2   
 17   9  12  1   
 18  10  13  2   
 19  10  14  1   
 20  11  15  1   
 21  11  16  1   
 22  12  17  2   
 23  12  18  1   
 24  13  16  1   
 25  13  19  1   
 26  14  20  2   
 27  14  21  1   
 28  15  22  1   
 29  15  32  1   
 30  16  33  1   
 31  18  22  2   
 32  19  23  1   
 33  19  34  1   
 34  19  35  1   
 35  21  23  1   
 36  21  36  1   
 37  21  37  1   
 38  22  24  1   
 39  23  25  1   
 40  23  26  1   
 41  24  38  1   
 42  24  39  1   
 43  25  40  1   
 44  25  41  1   
 45  25  42  1   
 46  26  43  1   
 47  26  44  1   
 48  26  45  1   
@<TRIPOS>SUBSTRUCTURE
  1 ****   8 GROUP 4 **** **** 0

# MOE 2024.06 (io_trps.svl 2023.06)
