@<TRIPOS>MOLECULE
3-[3-(2-Ethoxy-phenyl)-[1,2,4]oxadiazol-5-yl]-N-propyl-propionamide
43 44 1 0 0 
SMALL
USER_CHARGES


@<TRIPOS>ATOM
  1 O        0.1120    -0.4540     0.8560 O.2   1 <1>  -0.5700 
  2 C        0.6440    -1.5320     0.7730 C.2   1 <1>   0.5690 
  3 N        1.9840    -1.5980     0.6070 N.am  1 <1>  -0.7300 
  4 C       -0.1900    -2.7970     0.8600 C.3   1 <1>  -0.0990 
  5 C        2.8630    -2.7830     0.5050 C.3   1 <1>   0.1400 
  6 C       -1.7020    -2.5250     0.8160 C.3   1 <1>   0.0200 
  7 C        3.3840    -2.8910    -0.9270 C.3   1 <1>  -0.1600 
  8 C       -2.4890    -3.8160     0.8990 C.2   1 <1>   0.2980 
  9 C        4.3130    -4.0990    -1.0940 C.3   1 <1>  -0.2400 
 10 O       -2.5390    -4.4480     2.0420 O.3   1 <1>  -0.0190 
 11 N       -3.1180    -4.3620    -0.0560 N.2   1 <1>  -0.5650 
 12 N       -3.2680    -5.4900     1.7930 N.2   1 <1>  -0.4100 
 13 C       -3.6060    -5.4490     0.5520 C.2   1 <1>   0.4620 
 14 C       -4.4390    -6.4020    -0.1550 C.ar  1 <1>   0.0540 
 15 C       -4.2690    -7.7900    -0.0450 C.ar  1 <1>   0.0820 
 16 C       -5.4610    -5.9360    -0.9830 C.ar  1 <1>  -0.1500 
 17 O       -3.2540    -8.2460     0.7320 O.3   1 <1>  -0.3630 
 18 C       -5.1160    -8.6580    -0.7320 C.ar  1 <1>  -0.1500 
 19 C       -6.2960    -6.8000    -1.6650 C.ar  1 <1>  -0.1500 
 20 C       -3.0880    -9.6080     1.0480 C.3   1 <1>   0.1200 
 21 C       -6.1250    -8.1650    -1.5370 C.ar  1 <1>  -0.1500 
 22 C       -1.9180    -9.7200     2.0200 C.3   1 <1>  -0.2400 
 23 H        2.4540    -0.6920     0.5370 H     1 <1>   0.3700 
 24 H        0.0550    -3.3020     1.7760 H     1 <1>   0.0800 
 25 H        0.0680    -3.4380     0.0370 H     1 <1>   0.0800 
 26 H        2.3250    -3.6770     0.7700 H     1 <1>   0.0800 
 27 H        3.6860    -2.6700     1.1900 H     1 <1>   0.0800 
 28 H       -1.9490    -2.0220    -0.1030 H     1 <1>   0.0800 
 29 H       -1.9890    -1.8870     1.6330 H     1 <1>   0.0800 
 30 H        3.9250    -1.9950    -1.1810 H     1 <1>   0.0800 
 31 H        2.5520    -2.9910    -1.6030 H     1 <1>   0.0800 
 32 H        5.1640    -4.0140    -0.4410 H     1 <1>   0.0800 
 33 H        4.6670    -4.1520    -2.1090 H     1 <1>   0.0800 
 34 H        3.7900    -5.0120    -0.8680 H     1 <1>   0.0800 
 35 H       -5.6000    -4.8740    -1.0890 H     1 <1>   0.1500 
 36 H       -5.0020    -9.7230    -0.6580 H     1 <1>   0.1500 
 37 H       -7.0780    -6.4110    -2.2950 H     1 <1>   0.1500 
 38 H       -2.8830   -10.1470     0.1400 H     1 <1>   0.0800 
 39 H       -3.9960    -9.9650     1.5020 H     1 <1>   0.0800 
 40 H       -6.7750    -8.8410    -2.0660 H     1 <1>   0.1500 
 41 H       -1.0210    -9.3420     1.5630 H     1 <1>   0.0800 
 42 H       -1.7620   -10.7490     2.2870 H     1 <1>   0.0800 
 43 H       -2.1280    -9.1590     2.9130 H     1 <1>   0.0800 
@<TRIPOS>BOND
  1   1   2  2   
  2   2   3  am  
  3   2   4  1   
  4   3   5  1   
  5   3  23  1   
  6   4   6  1   
  7   4  24  1   
  8   4  25  1   
  9   5   7  1   
 10   5  26  1   
 11   5  27  1   
 12   6   8  1   
 13   6  28  1   
 14   6  29  1   
 15   7   9  1   
 16   7  30  1   
 17   7  31  1   
 18   8  10  1   
 19   8  11  2   
 20   9  32  1   
 21   9  33  1   
 22   9  34  1   
 23  10  12  1   
 24  11  13  1   
 25  12  13  2   
 26  13  14  1   
 27  14  15  ar  
 28  14  16  ar  
 29  15  17  1   
 30  15  18  ar  
 31  16  19  ar  
 32  16  35  1   
 33  17  20  1   
 34  18  21  ar  
 35  18  36  1   
 36  19  21  ar  
 37  19  37  1   
 38  20  22  1   
 39  20  38  1   
 40  20  39  1   
 41  21  40  1   
 42  22  41  1   
 43  22  42  1   
 44  22  43  1   
@<TRIPOS>SUBSTRUCTURE
  1 ****  11 GROUP 4 **** **** 0

# MOE 2024.06 (io_trps.svl 2023.06)
