@<TRIPOS>MOLECULE
N-[1-(3-o-Tolyl-[1,2,4]oxadiazol-5-yl)-ethyl]-butyramide
39 40 1 0 0 
SMALL
USER_CHARGES


@<TRIPOS>ATOM
  1 O       -0.8230    -0.8010    -0.7430 O.2   1 <1>  -0.5700 
  2 C       -2.0250    -0.8610    -0.7140 C.2   1 <1>   0.5690 
  3 N       -2.6950    -0.9840    -1.8820 N.am  1 <1>  -0.7300 
  4 C       -2.7620    -0.8170     0.6210 C.3   1 <1>  -0.0990 
  5 C       -4.1460    -1.1620    -2.1000 C.3   1 <1>   0.4000 
  6 C       -1.9710    -0.1320     1.7490 C.3   1 <1>  -0.1600 
  7 C       -4.6660    -2.4510    -1.4600 C.2   1 <1>   0.2980 
  8 C       -4.4010    -1.1310    -3.6070 C.3   1 <1>  -0.2400 
  9 C       -2.7770    -0.0950     3.0520 C.3   1 <1>  -0.2400 
 10 O       -4.1820    -3.5980    -1.8610 O.3   1 <1>  -0.0190 
 11 N       -5.5410    -2.5210    -0.5420 N.2   1 <1>  -0.5650 
 12 N       -4.7970    -4.4730    -1.1300 N.2   1 <1>  -0.4100 
 13 C       -5.6010    -3.8430    -0.3490 C.2   1 <1>   0.4620 
 14 C       -6.4480    -4.4640     0.6540 C.ar  1 <1>   0.0540 
 15 C       -7.8060    -4.1590     0.8290 C.ar  1 <1>  -0.1440 
 16 C       -5.8860    -5.4240     1.4970 C.ar  1 <1>  -0.1500 
 17 C       -8.5410    -4.7860     1.8240 C.ar  1 <1>  -0.1500 
 18 C       -8.5190    -3.1480    -0.0600 C.3   1 <1>  -0.0970 
 19 C       -6.6230    -6.0490     2.4840 C.ar  1 <1>  -0.1500 
 20 C       -7.9560    -5.7270     2.6510 C.ar  1 <1>  -0.1500 
 21 H       -2.1080    -1.0600    -2.7130 H     1 <1>   0.3700 
 22 H       -2.9820    -1.8290     0.9100 H     1 <1>   0.0800 
 23 H       -3.6920    -0.2970     0.4950 H     1 <1>   0.0800 
 24 H       -4.6630    -0.3320    -1.6490 H     1 <1>   0.0800 
 25 H       -1.7210     0.8720     1.4510 H     1 <1>   0.0800 
 26 H       -1.0500    -0.6650     1.9150 H     1 <1>   0.0800 
 27 H       -3.8870    -1.9390    -4.0960 H     1 <1>   0.0800 
 28 H       -4.0750    -0.1930    -4.0210 H     1 <1>   0.0800 
 29 H       -5.4540    -1.2350    -3.7950 H     1 <1>   0.0800 
 30 H       -3.6900     0.4570     2.9160 H     1 <1>   0.0800 
 31 H       -2.2010     0.3830     3.8250 H     1 <1>   0.0800 
 32 H       -3.0180    -1.0930     3.3730 H     1 <1>   0.0800 
 33 H       -4.8490    -5.6820     1.3750 H     1 <1>   0.1500 
 34 H       -9.5810    -4.5470     1.9630 H     1 <1>   0.1500 
 35 H       -8.2840    -3.3290    -1.0940 H     1 <1>   0.0800 
 36 H       -8.2100    -2.1510     0.1990 H     1 <1>   0.0800 
 37 H       -9.5860    -3.2140     0.0550 H     1 <1>   0.0800 
 38 H       -6.1620    -6.7830     3.1210 H     1 <1>   0.1500 
 39 H       -8.5370    -6.2070     3.4190 H     1 <1>   0.1500 
@<TRIPOS>BOND
  1   1   2  2   
  2   2   3  am  
  3   2   4  1   
  4   3   5  1   
  5   3  21  1   
  6   4   6  1   
  7   4  22  1   
  8   4  23  1   
  9   5   7  1   
 10   5   8  1   
 11   5  24  1   
 12   6   9  1   
 13   6  25  1   
 14   6  26  1   
 15   7  10  1   
 16   7  11  2   
 17   8  27  1   
 18   8  28  1   
 19   8  29  1   
 20   9  30  1   
 21   9  31  1   
 22   9  32  1   
 23  10  12  1   
 24  11  13  1   
 25  12  13  2   
 26  13  14  1   
 27  14  15  ar  
 28  14  16  ar  
 29  15  17  ar  
 30  15  18  1   
 31  16  19  ar  
 32  16  33  1   
 33  17  20  ar  
 34  17  34  1   
 35  18  35  1   
 36  18  36  1   
 37  18  37  1   
 38  19  20  ar  
 39  19  38  1   
 40  20  39  1   
@<TRIPOS>SUBSTRUCTURE
  1 ****  11 GROUP 4 **** **** 0

# MOE 2024.06 (io_trps.svl 2023.06)
