@<TRIPOS>MOLECULE
3-(5-Hydroxy-3-p-tolyl-5-trifluoromethyl-4,5-dihydro-pyrazol-1-yl)-3-oxo-propion
34 35 1 0 0 
SMALL
USER_CHARGES


@<TRIPOS>ATOM
  1 F       -1.6520    -0.8920     1.6630 F     1 <1>  -0.3400 
  2 C       -1.3130    -1.2610     0.4290 C.3   1 <1>   1.0200 
  3 F       -0.7240    -2.4460     0.5560 F     1 <1>  -0.3400 
  4 F       -0.3450    -0.4220     0.0630 F     1 <1>  -0.3400 
  5 C       -2.5430    -1.2400    -0.5730 C.3   1 <1>   0.5800 
  6 O       -2.2570    -1.7590    -1.8410 O.3   1 <1>  -0.6800 
  7 N       -3.7430    -1.9720    -0.0790 N.am  1 <1>  -0.2980 
  8 C       -3.1040     0.1760    -0.7660 C.3   1 <1>  -0.0990 
  9 N       -4.7950    -1.1230     0.1570 N.2   1 <1>  -0.5120 
 10 C       -3.7910    -3.3480     0.0060 C.2   1 <1>   0.5690 
 11 C       -4.5070     0.0630    -0.2080 C.2   1 <1>   0.3030 
 12 O       -2.8690    -4.0400    -0.3570 O.2   1 <1>  -0.5700 
 13 C       -5.0270    -4.0200     0.5580 C.3   1 <1>   0.1010 
 14 C       -5.3720     1.2200    -0.1220 C.ar  1 <1>   0.0860 
 15 C       -6.0270    -4.1820    -0.5230 C.1   1 <1>   0.3570 
 16 C       -4.9840     2.4930    -0.5540 C.ar  1 <1>  -0.1500 
 17 C       -6.6590     1.1050     0.4090 C.ar  1 <1>  -0.1500 
 18 N       -6.8090    -4.3300    -1.3360 N.1   1 <1>  -0.5570 
 19 C       -5.8290     3.5830    -0.4530 C.ar  1 <1>  -0.1500 
 20 C       -7.5070     2.1910     0.5120 C.ar  1 <1>  -0.1500 
 21 C       -7.0970     3.4410     0.0840 C.ar  1 <1>  -0.1430 
 22 C       -8.0270     4.6350     0.1960 C.3   1 <1>  -0.0970 
 23 H       -2.1890    -2.7370    -1.7520 H     1 <1>   0.4000 
 24 H       -3.1310     0.4530    -1.8050 H     1 <1>   0.0800 
 25 H       -2.5460     0.9060    -0.2110 H     1 <1>   0.0800 
 26 H       -5.4480    -3.4350     1.3530 H     1 <1>   0.0800 
 27 H       -4.7670    -4.9870     0.9430 H     1 <1>   0.0800 
 28 H       -4.0110     2.6520    -0.9800 H     1 <1>   0.1500 
 29 H       -7.0040     0.1430     0.7470 H     1 <1>   0.1500 
 30 H       -5.4980     4.5490    -0.7950 H     1 <1>   0.1500 
 31 H       -8.4920     2.0590     0.9270 H     1 <1>   0.1500 
 32 H       -7.4640     5.5440     0.3030 H     1 <1>   0.0800 
 33 H       -8.6690     4.5320     1.0520 H     1 <1>   0.0800 
 34 H       -8.6360     4.7050    -0.6880 H     1 <1>   0.0800 
@<TRIPOS>BOND
  1   1   2  1   
  2   2   3  1   
  3   2   4  1   
  4   2   5  1   
  5   5   6  1   
  6   5   7  1   
  7   5   8  1   
  8   6  23  1   
  9   7   9  1   
 10   7  10  am  
 11   8  11  1   
 12   8  24  1   
 13   8  25  1   
 14   9  11  2   
 15  10  12  2   
 16  10  13  1   
 17  11  14  1   
 18  13  15  1   
 19  13  26  1   
 20  13  27  1   
 21  14  16  ar  
 22  14  17  ar  
 23  15  18  3   
 24  16  19  ar  
 25  16  28  1   
 26  17  20  ar  
 27  17  29  1   
 28  19  21  ar  
 29  19  30  1   
 30  20  21  ar  
 31  20  31  1   
 32  21  22  1   
 33  22  32  1   
 34  22  33  1   
 35  22  34  1   
@<TRIPOS>SUBSTRUCTURE
  1 ****  11 GROUP 4 **** **** 0

# MOE 2024.06 (io_trps.svl 2023.06)
