@<TRIPOS>MOLECULE
4-Benzo[1,3]dioxol-5-yl-6-(3,5-dimethyl-piperidin-1-ylmethyl)-2-oxo-1,2,3,4-tetr
60 63 1 0 0 
SMALL
USER_CHARGES


@<TRIPOS>ATOM
  1 O       -1.1750     1.4300     3.5940 O.2   1 <1>  -0.5700 
  2 C       -2.2430     1.6580     3.0840 C.2   1 <1>   0.6900 
  3 N       -3.0080     0.6330     2.6350 N.am  1 <1>  -0.5390 
  4 N       -2.6870     2.9130     2.9250 N.am  1 <1>  -0.7300 
  5 C       -4.2420     0.7970     2.0200 C.2   1 <1>  -0.0290 
  6 C       -3.8690     3.2730     2.1220 C.3   1 <1>   0.5020 
  7 C       -4.7280     2.0500     1.7810 C.2   1 <1>  -0.1240 
  8 C       -4.9640    -0.4980     1.6320 C.3   1 <1>   0.4810 
  9 C       -3.3830     3.9050     0.8200 C.ar  1 <1>  -0.1440 
 10 C       -5.9820     2.3830     1.1750 C.2   1 <1>   0.7060 
 11 N       -5.0340    -0.6340     0.1470 N.4   1 <1>  -0.9590 
 12 C       -2.4990     3.2130    -0.0080 C.ar  1 <1>  -0.1500 
 13 C       -3.8420     5.1670     0.4360 C.ar  1 <1>  -0.1500 
 14 O       -6.6330     1.5730     0.5400 O.2   1 <1>  -0.5700 
 15 O       -6.4580     3.6220     1.3090 O.3   1 <1>  -0.4300 
 16 C       -5.7280    -1.8960    -0.2710 C.3   1 <1>   0.3430 
 17 C       -3.7150    -0.3770    -0.5250 C.3   1 <1>   0.3430 
 18 C       -2.1240     3.7940    -1.2010 C.ar  1 <1>   0.0830 
 19 C       -3.4430     5.7400    -0.7660 C.ar  1 <1>  -0.1500 
 20 C       -7.6700     4.0280     0.7110 C.3   1 <1>   0.1200 
 21 C       -4.7340    -2.9410    -0.8020 C.3   1 <1>  -0.0800 
 22 C       -3.7370    -0.8790    -1.9720 C.3   1 <1>  -0.0800 
 23 O       -1.3130     3.2990    -2.1410 O.3   1 <1>  -0.3620 
 24 C       -2.5800     5.0240    -1.5700 C.ar  1 <1>   0.0830 
 25 C       -7.8770     5.5070     1.0220 C.3   1 <1>  -0.2400 
 26 C       -3.9590    -2.4050    -2.0250 C.3   1 <1>  -0.1600 
 27 C       -5.4490    -4.2520    -1.1540 C.3   1 <1>  -0.2400 
 28 C       -2.4480    -0.4870    -2.7060 C.3   1 <1>  -0.2400 
 29 C       -1.2170     4.2960    -3.1600 C.3   1 <1>   0.4000 
 30 O       -2.0720     5.3640    -2.7580 O.3   1 <1>  -0.3620 
 31 H       -2.5910    -0.2720     2.8680 H     1 <1>   0.3700 
 32 H       -2.0260     3.6630     3.1290 H     1 <1>   0.3700 
 33 H       -4.4470     3.9840     2.6910 H     1 <1>   0.0800 
 34 H       -5.9630    -0.4810     2.0380 H     1 <1>   0.0800 
 35 H       -4.4430    -1.3420     2.0520 H     1 <1>   0.0800 
 36 H       -5.6670     0.1410    -0.1360 H     1 <1>   0.4500 
 37 H       -2.0990     2.2530     0.2570 H     1 <1>   0.1500 
 38 H       -4.5200     5.7150     1.0680 H     1 <1>   0.1500 
 39 H       -6.4270    -1.6680    -1.0590 H     1 <1>   0.0800 
 40 H       -6.2860    -2.3070     0.5540 H     1 <1>   0.0800 
 41 H       -2.9280    -0.8880     0.0050 H     1 <1>   0.0800 
 42 H       -3.4980     0.6790    -0.5130 H     1 <1>   0.0800 
 43 H       -3.7880     6.7110    -1.0740 H     1 <1>   0.1500 
 44 H       -8.4710     3.4330     1.1180 H     1 <1>   0.0800 
 45 H       -7.6010     3.8680    -0.3520 H     1 <1>   0.0800 
 46 H       -4.0320    -3.1580    -0.0150 H     1 <1>   0.0800 
 47 H       -4.5550    -0.3890    -2.4750 H     1 <1>   0.0800 
 48 H       -7.9240     5.6630     2.0850 H     1 <1>   0.0800 
 49 H       -8.8030     5.8410     0.5890 H     1 <1>   0.0800 
 50 H       -7.0780     6.0920     0.6050 H     1 <1>   0.0800 
 51 H       -4.4880    -2.6330    -2.9350 H     1 <1>   0.0800 
 52 H       -3.0140    -2.9200    -2.0740 H     1 <1>   0.0800 
 53 H       -6.1840    -4.0980    -1.9260 H     1 <1>   0.0800 
 54 H       -5.9430    -4.6600    -0.2890 H     1 <1>   0.0800 
 55 H       -4.7390    -4.9810    -1.5050 H     1 <1>   0.0800 
 56 H       -1.5850    -0.9270    -2.2360 H     1 <1>   0.0800 
 57 H       -2.3250     0.5830    -2.7100 H     1 <1>   0.0800 
 58 H       -2.4850    -0.8220    -3.7290 H     1 <1>   0.0800 
 59 H       -1.5570     3.8930    -4.0970 H     1 <1>   0.0800 
 60 H       -0.2030     4.6510    -3.2220 H     1 <1>   0.0800 
@<TRIPOS>BOND
  1   1   2  2   
  2   2   3  am  
  3   2   4  am  
  4   3   5  1   
  5   3  31  1   
  6   4   6  1   
  7   4  32  1   
  8   5   7  2   
  9   5   8  1   
 10   6   7  1   
 11   6   9  1   
 12   6  33  1   
 13   7  10  1   
 14   8  11  1   
 15   8  34  1   
 16   8  35  1   
 17   9  12  ar  
 18   9  13  ar  
 19  10  14  2   
 20  10  15  1   
 21  11  16  1   
 22  11  17  1   
 23  11  36  1   
 24  12  18  ar  
 25  12  37  1   
 26  13  19  ar  
 27  13  38  1   
 28  15  20  1   
 29  16  21  1   
 30  16  39  1   
 31  16  40  1   
 32  17  22  1   
 33  17  41  1   
 34  17  42  1   
 35  18  23  1   
 36  18  24  ar  
 37  19  24  ar  
 38  19  43  1   
 39  20  25  1   
 40  20  44  1   
 41  20  45  1   
 42  21  26  1   
 43  21  27  1   
 44  21  46  1   
 45  22  26  1   
 46  22  28  1   
 47  22  47  1   
 48  23  29  1   
 49  24  30  1   
 50  25  48  1   
 51  25  49  1   
 52  25  50  1   
 53  26  51  1   
 54  26  52  1   
 55  27  53  1   
 56  27  54  1   
 57  27  55  1   
 58  28  56  1   
 59  28  57  1   
 60  28  58  1   
 61  29  30  1   
 62  29  59  1   
 63  29  60  1   
@<TRIPOS>SUBSTRUCTURE
  1 ****   7 GROUP 4 **** **** 0

# MOE 2024.06 (io_trps.svl 2023.06)
