@<TRIPOS>MOLECULE
4-(4-Methoxy-phenyl)-tetrahydro-pyran-4-carboxylic acid isopropylamide
43 44 1 0 0 
SMALL
USER_CHARGES


@<TRIPOS>ATOM
  1 O       -0.8310     1.8910     2.2200 O.2   1 <1>  -0.5700 
  2 C       -0.8290     1.7340     1.0190 C.2   1 <1>   0.5690 
  3 N        0.0640     0.8850     0.4340 N.am  1 <1>  -0.7300 
  4 C       -1.8840     2.4350     0.1190 C.3   1 <1>   0.2040 
  5 C        1.1080     0.1330     1.1330 C.3   1 <1>   0.2200 
  6 C       -2.8890     1.3590    -0.3530 C.ar  1 <1>  -0.1440 
  7 C       -2.6760     3.5390     0.8690 C.3   1 <1>  -0.1600 
  8 C       -1.1740     3.1500    -1.0570 C.3   1 <1>  -0.1600 
  9 C        2.4500     0.4880     0.5040 C.3   1 <1>  -0.2400 
 10 C        0.7990    -1.3530     0.9880 C.3   1 <1>  -0.2400 
 11 C       -3.2100     1.1300    -1.6890 C.ar  1 <1>  -0.1500 
 12 C       -3.5110     0.5720     0.6110 C.ar  1 <1>  -0.1500 
 13 C       -1.9620     4.9020     0.9000 C.3   1 <1>   0.1200 
 14 C       -0.2160     4.2470    -0.5630 C.3   1 <1>   0.1200 
 15 C       -4.1170     0.1460    -2.0410 C.ar  1 <1>  -0.1500 
 16 C       -4.4180    -0.4120     0.2630 C.ar  1 <1>  -0.1500 
 17 O       -0.5960     4.7360     0.6890 O.3   1 <1>  -0.5600 
 18 C       -4.7270    -0.6320    -1.0740 C.ar  1 <1>   0.0820 
 19 O       -5.6020    -1.5740    -1.5060 O.3   1 <1>  -0.3620 
 20 C       -6.2720    -2.4190    -0.5980 C.3   1 <1>   0.0400 
 21 H       -0.0510     0.6490    -0.5500 H     1 <1>   0.3700 
 22 H        1.1180     0.4000     2.1780 H     1 <1>   0.0800 
 23 H       -2.8910     3.2290     1.8760 H     1 <1>   0.0800 
 24 H       -3.6280     3.6850     0.3900 H     1 <1>   0.0800 
 25 H       -1.9100     3.6220    -1.6840 H     1 <1>   0.0800 
 26 H       -0.6290     2.4550    -1.6690 H     1 <1>   0.0800 
 27 H        2.4660     0.2280    -0.5390 H     1 <1>   0.0800 
 28 H        3.2390    -0.0450     1.0030 H     1 <1>   0.0800 
 29 H        2.6350     1.5420     0.6140 H     1 <1>   0.0800 
 30 H        0.7890    -1.6440    -0.0470 H     1 <1>   0.0800 
 31 H       -0.1580    -1.5690     1.4290 H     1 <1>   0.0800 
 32 H        1.5450    -1.9320     1.5010 H     1 <1>   0.0800 
 33 H       -2.7710     1.7020    -2.4850 H     1 <1>   0.1500 
 34 H       -3.2880     0.7220     1.6550 H     1 <1>   0.1500 
 35 H       -2.0920     5.3740     1.8580 H     1 <1>   0.0800 
 36 H       -2.3400     5.5560     0.1330 H     1 <1>   0.0800 
 37 H       -0.1840     5.0710    -1.2540 H     1 <1>   0.0800 
 38 H        0.7780     3.8500    -0.4500 H     1 <1>   0.0800 
 39 H       -4.3600    -0.0250    -3.0740 H     1 <1>   0.1500 
 40 H       -4.8690    -0.9940     1.0440 H     1 <1>   0.1500 
 41 H       -6.9050    -3.0810    -1.1620 H     1 <1>   0.0800 
 42 H       -6.8700    -1.8170     0.0630 H     1 <1>   0.0800 
 43 H       -5.5440    -2.9900    -0.0490 H     1 <1>   0.0800 
@<TRIPOS>BOND
  1   1   2  2   
  2   2   3  am  
  3   2   4  1   
  4   3   5  1   
  5   3  21  1   
  6   4   6  1   
  7   4   7  1   
  8   4   8  1   
  9   5   9  1   
 10   5  10  1   
 11   5  22  1   
 12   6  11  ar  
 13   6  12  ar  
 14   7  13  1   
 15   7  23  1   
 16   7  24  1   
 17   8  14  1   
 18   8  25  1   
 19   8  26  1   
 20   9  27  1   
 21   9  28  1   
 22   9  29  1   
 23  10  30  1   
 24  10  31  1   
 25  10  32  1   
 26  11  15  ar  
 27  11  33  1   
 28  12  16  ar  
 29  12  34  1   
 30  13  17  1   
 31  13  35  1   
 32  13  36  1   
 33  14  17  1   
 34  14  37  1   
 35  14  38  1   
 36  15  18  ar  
 37  15  39  1   
 38  16  18  ar  
 39  16  40  1   
 40  18  19  1   
 41  19  20  1   
 42  20  41  1   
 43  20  42  1   
 44  20  43  1   
@<TRIPOS>SUBSTRUCTURE
  1 ****   6 GROUP 4 **** **** 0

# MOE 2024.06 (io_trps.svl 2023.06)
