@<TRIPOS>MOLECULE
1-[2-(4-Fluoro-phenyl)-ethyl]-5-oxo-pyrrolidine-3-carboxylic acid
31 32 1 0 0 
SMALL
USER_CHARGES


@<TRIPOS>ATOM
  1 F        0.0360    -0.2690     0.0430 F     1 <1>  -0.1900 
  2 C       -1.1600    -0.7750    -0.0970 C.ar  1 <1>   0.1900 
  3 C       -1.4720    -1.4300    -1.2730 C.ar  1 <1>  -0.1500 
  4 C       -2.0680    -0.6390     0.9360 C.ar  1 <1>  -0.1500 
  5 C       -2.7400    -1.9680    -1.4160 C.ar  1 <1>  -0.1500 
  6 C       -3.3310    -1.1830     0.7800 C.ar  1 <1>  -0.1500 
  7 C       -3.6720    -1.8480    -0.3910 C.ar  1 <1>  -0.1430 
  8 C       -5.0680    -2.4370    -0.5480 C.3   1 <1>  -0.0160 
  9 C       -6.0580    -1.4540    -1.1860 C.3   1 <1>   0.1400 
 10 N       -6.2860    -0.2840    -0.3110 N.am  1 <1>  -0.6600 
 11 C       -7.0920    -0.2470     0.7730 C.2   1 <1>   0.5690 
 12 C       -5.6270     1.0140    -0.5670 C.3   1 <1>   0.1400 
 13 O       -7.7350    -1.1780     1.2010 O.2   1 <1>  -0.5700 
 14 C       -7.0710     1.1160     1.4040 C.3   1 <1>  -0.0990 
 15 C       -5.8620     1.7990     0.7290 C.3   1 <1>  -0.1860 
 16 C       -6.0280     3.2850     0.4890 C.2   1 <1>   0.9060 
 17 O       -5.5560     3.7810    -0.5390 O.co2 1 <1>  -0.9000 
 18 O       -6.6150     3.9580     1.3400 O.co2 1 <1>  -0.9000 
 19 H       -0.7390    -1.5130    -2.0540 H     1 <1>   0.1500 
 20 H       -1.7930    -0.1170     1.8340 H     1 <1>   0.1500 
 21 H       -3.0000    -2.4790    -2.3260 H     1 <1>   0.1500 
 22 H       -4.0580    -1.0820     1.5690 H     1 <1>   0.1500 
 23 H       -5.4500    -2.7470     0.4090 H     1 <1>   0.0800 
 24 H       -5.0120    -3.3160    -1.1640 H     1 <1>   0.0800 
 25 H       -6.9990    -1.9520    -1.3410 H     1 <1>   0.0800 
 26 H       -5.6880    -1.1220    -2.1400 H     1 <1>   0.0800 
 27 H       -6.1030     1.4970    -1.4040 H     1 <1>   0.0800 
 28 H       -4.5760     0.8960    -0.7640 H     1 <1>   0.0800 
 29 H       -6.9520     1.0600     2.4690 H     1 <1>   0.0800 
 30 H       -7.9850     1.6280     1.1640 H     1 <1>   0.0800 
 31 H       -4.9980     1.6760     1.3530 H     1 <1>   0.0800 
@<TRIPOS>BOND
  1   1   2  1   
  2   2   3  ar  
  3   2   4  ar  
  4   3   5  ar  
  5   3  19  1   
  6   4   6  ar  
  7   4  20  1   
  8   5   7  ar  
  9   5  21  1   
 10   6   7  ar  
 11   6  22  1   
 12   7   8  1   
 13   8   9  1   
 14   8  23  1   
 15   8  24  1   
 16   9  10  1   
 17   9  25  1   
 18   9  26  1   
 19  10  11  am  
 20  10  12  1   
 21  11  13  2   
 22  11  14  1   
 23  12  15  1   
 24  12  27  1   
 25  12  28  1   
 26  14  15  1   
 27  14  29  1   
 28  14  30  1   
 29  15  16  1   
 30  15  31  1   
 31  16  17  ar  
 32  16  18  ar  
@<TRIPOS>SUBSTRUCTURE
  1 ****  12 GROUP 4 **** **** 0

# MOE 2024.06 (io_trps.svl 2023.06)
