@<TRIPOS>MOLECULE
1-(2,4-Dimethyl-phenyl)-5-oxo-pyrrolidine-3-carboxylic acid cyclohexylamide
49 51 1 0 0 
SMALL
USER_CHARGES


@<TRIPOS>ATOM
  1 O        0.7220    -0.0240     1.3620 O.2   1 <1>  -0.5700 
  2 C        1.7830    -0.3820     0.9150 C.2   1 <1>   0.5690 
  3 N        2.1320    -1.6430     0.5330 N.am  1 <1>  -0.4770 
  4 C        2.9150     0.5830     0.6930 C.3   1 <1>  -0.0990 
  5 C        1.3710    -2.8200     0.6080 C.ar  1 <1>   0.1170 
  6 C        3.5210    -1.6820     0.0420 C.3   1 <1>   0.1400 
  7 C        3.8680    -0.2090    -0.2140 C.3   1 <1>  -0.0190 
  8 C        0.2290    -3.0240    -0.1700 C.ar  1 <1>  -0.1440 
  9 C        1.7800    -3.8280     1.4740 C.ar  1 <1>  -0.1500 
 10 C        5.3330     0.1090     0.0300 C.2   1 <1>   0.5690 
 11 C       -0.4680    -4.2170    -0.0660 C.ar  1 <1>  -0.1500 
 12 C       -0.2760    -1.9590    -1.1350 C.3   1 <1>  -0.0970 
 13 C        1.0800    -5.0160     1.5680 C.ar  1 <1>  -0.1500 
 14 O        5.8650    -0.3370     1.0160 O.2   1 <1>  -0.5700 
 15 N        5.9790     0.8930    -0.8750 N.am  1 <1>  -0.7300 
 16 C       -0.0500    -5.2180     0.7950 C.ar  1 <1>  -0.1430 
 17 C        7.3910     1.3380    -0.8490 C.3   1 <1>   0.2200 
 18 C       -0.8290    -6.5160     0.8950 C.3   1 <1>  -0.0970 
 19 C        8.3490     0.1420    -0.9180 C.3   1 <1>  -0.1600 
 20 C        7.6690     2.2170     0.3770 C.3   1 <1>  -0.1600 
 21 C        9.8120     0.6100    -0.9000 C.3   1 <1>  -0.1600 
 22 C        9.1320     2.6850     0.3960 C.3   1 <1>  -0.1600 
 23 C       10.0960     1.4920     0.3240 C.3   1 <1>  -0.1600 
 24 H        3.3680     0.8030     1.6430 H     1 <1>   0.0800 
 25 H        2.5690     1.4870     0.2290 H     1 <1>   0.0800 
 26 H        3.5920    -2.2700    -0.8570 H     1 <1>   0.0800 
 27 H        4.1470    -2.1100     0.8060 H     1 <1>   0.0800 
 28 H        3.6250     0.0040    -1.2390 H     1 <1>   0.0800 
 29 H        2.6510    -3.6750     2.0840 H     1 <1>   0.1500 
 30 H       -1.3510    -4.3720    -0.6600 H     1 <1>   0.1500 
 31 H        0.5390    -1.5560    -1.7070 H     1 <1>   0.0800 
 32 H       -0.7420    -1.1630    -0.5820 H     1 <1>   0.0800 
 33 H       -0.9980    -2.3680    -1.8170 H     1 <1>   0.0800 
 34 H        1.4160    -5.7780     2.2480 H     1 <1>   0.1500 
 35 H        5.4570     1.2530    -1.6730 H     1 <1>   0.3700 
 36 H        7.5590     1.9410    -1.7260 H     1 <1>   0.0800 
 37 H       -1.6450    -6.3970     1.5850 H     1 <1>   0.0800 
 38 H       -0.1950    -7.3130     1.2400 H     1 <1>   0.0800 
 39 H       -1.2240    -6.7890    -0.0670 H     1 <1>   0.0800 
 40 H        8.1630    -0.4190    -1.8160 H     1 <1>   0.0800 
 41 H        8.1860    -0.5030    -0.0730 H     1 <1>   0.0800 
 42 H        7.4770     1.6580     1.2760 H     1 <1>   0.0800 
 43 H        7.0190     3.0740     0.3640 H     1 <1>   0.0800 
 44 H       10.0220     1.1660    -1.7980 H     1 <1>   0.0800 
 45 H       10.4630    -0.2470    -0.8840 H     1 <1>   0.0800 
 46 H        9.3190     3.2440     1.2970 H     1 <1>   0.0800 
 47 H        9.3110     3.3390    -0.4410 H     1 <1>   0.0800 
 48 H       11.1100     1.8500     0.2840 H     1 <1>   0.0800 
 49 H        9.9920     0.9000     1.2180 H     1 <1>   0.0800 
@<TRIPOS>BOND
  1   1   2  2   
  2   2   3  am  
  3   2   4  1   
  4   3   5  1   
  5   3   6  1   
  6   4   7  1   
  7   4  24  1   
  8   4  25  1   
  9   5   8  ar  
 10   5   9  ar  
 11   6   7  1   
 12   6  26  1   
 13   6  27  1   
 14   7  10  1   
 15   7  28  1   
 16   8  11  ar  
 17   8  12  1   
 18   9  13  ar  
 19   9  29  1   
 20  10  14  2   
 21  10  15  am  
 22  11  16  ar  
 23  11  30  1   
 24  12  31  1   
 25  12  32  1   
 26  12  33  1   
 27  13  16  ar  
 28  13  34  1   
 29  15  17  1   
 30  15  35  1   
 31  16  18  1   
 32  17  19  1   
 33  17  20  1   
 34  17  36  1   
 35  18  37  1   
 36  18  38  1   
 37  18  39  1   
 38  19  21  1   
 39  19  40  1   
 40  19  41  1   
 41  20  22  1   
 42  20  42  1   
 43  20  43  1   
 44  21  23  1   
 45  21  44  1   
 46  21  45  1   
 47  22  23  1   
 48  22  46  1   
 49  22  47  1   
 50  23  48  1   
 51  23  49  1   
@<TRIPOS>SUBSTRUCTURE
  1 ****   6 GROUP 4 **** **** 0

# MOE 2024.06 (io_trps.svl 2023.06)
