@<TRIPOS>MOLECULE
3-Methyl-7-(3-phenoxy-propyl)-8-piperidin-1-yl-3,7-dihydro-purine-2,6-dione
54 57 1 0 0 
SMALL
USER_CHARGES


@<TRIPOS>ATOM
  1 O        0.9340     0.9240    -0.7770 O.2   1 <1>  -0.5740 
  2 C        2.0700     1.3030    -0.6100 C.2   1 <1>   0.6870 
  3 N        3.0910     0.4430    -0.2330 N.am  1 <1>  -0.4410 
  4 N        2.3500     2.6240    -0.8000 N.am  1 <1>  -0.4950 
  5 C        4.3590     0.9820    -0.0730 C.2   1 <1>   0.4210 
  6 C        2.8340    -1.0100    -0.0100 C.3   1 <1>   0.0530 
  7 C        3.5910     3.1710    -0.6430 C.2   1 <1>   0.7000 
  8 N        5.4920     0.3330     0.2990 N.pl3 1 <1>  -0.7030 
  9 C        4.6580     2.2860    -0.2680 C.2   1 <1>   0.2710 
 10 O        3.7260     4.3640    -0.8180 O.2   1 <1>  -0.5740 
 11 C        6.5010     1.2060     0.3260 C.cat 1 <1>   1.0690 
 12 N        6.0390     2.4200    -0.0140 N.pl3 1 <1>  -0.7670 
 13 N        7.7600     0.8380     0.6570 N.pl3 1 <1>  -0.5960 
 14 C        6.7030     3.7490     0.0560 C.3   1 <1>   0.3490 
 15 C        8.9990     1.4620     0.1070 C.3   1 <1>   0.1610 
 16 C        8.0540    -0.3550     1.5070 C.3   1 <1>   0.1610 
 17 C        7.0390     4.2490    -1.3540 C.3   1 <1>  -0.1670 
 18 C        9.7690     0.4320    -0.7290 C.3   1 <1>  -0.1670 
 19 C        8.7800    -1.4160     0.6770 C.3   1 <1>  -0.1670 
 20 C        8.1260     5.3260    -1.3210 C.3   1 <1>   0.1130 
 21 C       10.0650    -0.8480     0.0620 C.3   1 <1>  -0.1670 
 22 O        7.8450     6.2160    -0.2670 O.3   1 <1>  -0.3680 
 23 C        8.7170     7.1980     0.0730 C.ar  1 <1>   0.0750 
 24 C        9.8920     7.4660    -0.6260 C.ar  1 <1>  -0.1570 
 25 C        8.3980     7.9590     1.1870 C.ar  1 <1>  -0.1570 
 26 C       10.7340     8.4790    -0.2010 C.ar  1 <1>  -0.1570 
 27 C        9.2410     8.9710     1.6090 C.ar  1 <1>  -0.1570 
 28 C       10.4110     9.2310     0.9160 C.ar  1 <1>  -0.1570 
 29 H        1.5790     3.2330    -1.0680 H     1 <1>   0.3650 
 30 H        1.7960    -1.2480    -0.1770 H     1 <1>   0.0730 
 31 H        3.0810    -1.2750     1.0030 H     1 <1>   0.0730 
 32 H        3.4270    -1.5960    -0.6900 H     1 <1>   0.0730 
 33 H        5.5980    -0.6610     0.4740 H     1 <1>   0.4450 
 34 H        7.5960     3.6830     0.6540 H     1 <1>   0.0730 
 35 H        6.0530     4.4600     0.5410 H     1 <1>   0.0730 
 36 H        9.6170     1.8080     0.9190 H     1 <1>   0.0730 
 37 H        8.7730     2.2970    -0.5270 H     1 <1>   0.0730 
 38 H        7.1550    -0.7680     1.9310 H     1 <1>   0.0730 
 39 H        8.6860    -0.0510     2.3260 H     1 <1>   0.0730 
 40 H        6.1590     4.6690    -1.8070 H     1 <1>   0.0730 
 41 H        7.3810     3.4430    -1.9770 H     1 <1>   0.0730 
 42 H       10.6970     0.8670    -1.0600 H     1 <1>   0.0730 
 43 H        9.1970     0.1900    -1.6080 H     1 <1>   0.0730 
 44 H        8.1320    -1.7790    -0.1010 H     1 <1>   0.0730 
 45 H        9.0300    -2.2520     1.3080 H     1 <1>   0.0730 
 46 H        8.1500     5.8810    -2.2440 H     1 <1>   0.0730 
 47 H        9.0900     4.8830    -1.1340 H     1 <1>   0.0730 
 48 H       10.7700    -0.6280     0.8470 H     1 <1>   0.0730 
 49 H       10.5160    -1.5820    -0.5860 H     1 <1>   0.0730 
 50 H       10.1680     6.9070    -1.4990 H     1 <1>   0.1430 
 51 H        7.4880     7.7570     1.7210 H     1 <1>   0.1430 
 52 H       11.6420     8.6860    -0.7400 H     1 <1>   0.1430 
 53 H        8.9870     9.5570     2.4750 H     1 <1>   0.1430 
 54 H       11.0670    10.0180     1.2440 H     1 <1>   0.1430 
@<TRIPOS>BOND
  1   1   2  2   
  2   2   3  am  
  3   2   4  am  
  4   3   5  1   
  5   3   6  1   
  6   4   7  am  
  7   4  29  1   
  8   5   8  1   
  9   5   9  2   
 10   6  30  1   
 11   6  31  1   
 12   6  32  1   
 13   7   9  1   
 14   7  10  2   
 15   8  11  ar  
 16   8  33  1   
 17   9  12  1   
 18  11  12  ar  
 19  11  13  ar  
 20  12  14  1   
 21  13  15  1   
 22  13  16  1   
 23  14  17  1   
 24  14  34  1   
 25  14  35  1   
 26  15  18  1   
 27  15  36  1   
 28  15  37  1   
 29  16  19  1   
 30  16  38  1   
 31  16  39  1   
 32  17  20  1   
 33  17  40  1   
 34  17  41  1   
 35  18  21  1   
 36  18  42  1   
 37  18  43  1   
 38  19  21  1   
 39  19  44  1   
 40  19  45  1   
 41  20  22  1   
 42  20  46  1   
 43  20  47  1   
 44  21  48  1   
 45  21  49  1   
 46  22  23  1   
 47  23  24  ar  
 48  23  25  ar  
 49  24  26  ar  
 50  24  50  1   
 51  25  27  ar  
 52  25  51  1   
 53  26  28  ar  
 54  26  52  1   
 55  27  28  ar  
 56  27  53  1   
 57  28  54  1   
@<TRIPOS>SUBSTRUCTURE
  1 ****  14 GROUP 4 **** **** 0

# MOE 2024.06 (io_trps.svl 2023.06)
