@<TRIPOS>MOLECULE
2-Chloro-N-(2-morpholin-4-yl-5-trifluoromethyl-phenyl)-acetamide
35 36 1 0 0 
SMALL
USER_CHARGES


@<TRIPOS>ATOM
  1 CL       1.2280     2.5660     1.6860 Cl    1 <1>  -0.2900 
  2 C        0.8420     1.7270     0.1830 C.3   1 <1>   0.1910 
  3 C        1.2510     2.5620    -1.0240 C.2   1 <1>   0.5690 
  4 O        2.1180     2.1380    -1.7460 O.2   1 <1>  -0.5700 
  5 N        0.6820     3.7670    -1.2950 N.am  1 <1>  -0.5470 
  6 C       -0.2240     4.5460    -0.5590 C.ar  1 <1>   0.1170 
  7 C        0.1290     5.8640    -0.2360 C.ar  1 <1>   0.1000 
  8 C       -1.4610     4.0470    -0.1780 C.ar  1 <1>  -0.1500 
  9 N        1.3720     6.3820    -0.6390 N.pl3 1 <1>  -0.8380 
 10 C       -0.7690     6.6280     0.4960 C.ar  1 <1>  -0.1500 
 11 C       -2.3570     4.8150     0.5590 C.ar  1 <1>  -0.1430 
 12 C        1.4770     7.7640    -1.2050 C.3   1 <1>   0.2090 
 13 C        2.5720     5.9750     0.1580 C.3   1 <1>   0.2090 
 14 C       -1.9920     6.1160     0.8900 C.ar  1 <1>  -0.1500 
 15 C       -3.7180     4.2400     0.9800 C.3   1 <1>   1.1640 
 16 C        2.0420     8.7760    -0.1870 C.3   1 <1>   0.1200 
 17 C        3.0320     7.0950     1.1070 C.3   1 <1>   0.1200 
 18 F       -4.6430     4.4230     0.0480 F     1 <1>  -0.3400 
 19 F       -3.6710     2.9320     1.2060 F     1 <1>  -0.3400 
 20 F       -4.1930     4.7910     2.0910 F     1 <1>  -0.3400 
 21 O        3.2120     8.2990     0.4140 O.3   1 <1>  -0.5600 
 22 H       -0.2110     1.5250     0.1770 H     1 <1>   0.0800 
 23 H        1.3850     0.8000     0.1880 H     1 <1>   0.0800 
 24 H        1.2430     4.3350    -1.9350 H     1 <1>   0.3700 
 25 H       -1.7300     3.0490    -0.4710 H     1 <1>   0.1500 
 26 H       -0.5090     7.6330     0.7680 H     1 <1>   0.1500 
 27 H        0.5090     8.0930    -1.5430 H     1 <1>   0.0800 
 28 H        2.1270     7.7370    -2.0620 H     1 <1>   0.0800 
 29 H        3.3760     5.7290    -0.5140 H     1 <1>   0.0800 
 30 H        2.3460     5.0950     0.7350 H     1 <1>   0.0800 
 31 H       -2.6600     6.7430     1.4590 H     1 <1>   0.1500 
 32 H        1.3220     8.9800     0.5850 H     1 <1>   0.0800 
 33 H        2.2810     9.6990    -0.6820 H     1 <1>   0.0800 
 34 H        3.9710     6.8320     1.5600 H     1 <1>   0.0800 
 35 H        2.3040     7.2490     1.8840 H     1 <1>   0.0800 
@<TRIPOS>BOND
  1   1   2  1   
  2   2   3  1   
  3   2  22  1   
  4   2  23  1   
  5   3   4  2   
  6   3   5  am  
  7   5   6  1   
  8   5  24  1   
  9   6   7  ar  
 10   6   8  ar  
 11   7   9  1   
 12   7  10  ar  
 13   8  11  ar  
 14   8  25  1   
 15   9  12  1   
 16   9  13  1   
 17  10  14  ar  
 18  10  26  1   
 19  11  14  ar  
 20  11  15  1   
 21  12  16  1   
 22  12  27  1   
 23  12  28  1   
 24  13  17  1   
 25  13  29  1   
 26  13  30  1   
 27  14  31  1   
 28  15  18  1   
 29  15  19  1   
 30  15  20  1   
 31  16  21  1   
 32  16  32  1   
 33  16  33  1   
 34  17  21  1   
 35  17  34  1   
 36  17  35  1   
@<TRIPOS>SUBSTRUCTURE
  1 ****   6 GROUP 4 **** **** 0

# MOE 2024.06 (io_trps.svl 2023.06)
