@<TRIPOS>MOLECULE
3-tert-Butyl-6-thiophen-2-yl-[1,2,4]triazolo[3,4-b][1,3,4]thiadiazole
29 31 1 0 0 
SMALL
USER_CHARGES


@<TRIPOS>ATOM
  1 S        0.0010    -0.0720     0.7250 S.3   1 <1>  -0.1970 
  2 C        1.2940     1.0820     0.5350 C.2   1 <1>   0.2420 
  3 C       -1.1700     1.2350     0.3880 C.2   1 <1>   0.6760 
  4 N        2.5740     1.0470     0.6010 N.2   1 <1>  -0.3380 
  5 N        0.7740     2.2630     0.2550 N.pl3 1 <1>   0.5050 
  6 N       -0.6130     2.3730     0.1670 N.2   1 <1>  -0.6520 
  7 C       -2.5720     0.9270     0.3900 C.2   1 <1>  -0.0450 
  8 N        2.9540     2.3120     0.3450 N.2   1 <1>  -0.3380 
  9 C        1.8810     3.0240     0.1410 C.2   1 <1>   0.0060 
 10 S       -3.1240    -0.7200     0.7210 S.3   1 <1>  -0.0800 
 11 C       -3.6620     1.7090     0.1700 C.2   1 <1>  -0.1500 
 12 C        1.8420     4.5240    -0.1850 C.3   1 <1>   0.1800 
 13 C       -4.8080    -0.2720     0.5470 C.2   1 <1>  -0.1100 
 14 C       -4.9160     1.0370     0.2580 C.2   1 <1>  -0.1500 
 15 C        1.1750     4.7500    -1.5500 C.3   1 <1>  -0.2400 
 16 C        1.0620     5.2800     0.9000 C.3   1 <1>  -0.2400 
 17 C        3.2650     5.1070    -0.2460 C.3   1 <1>  -0.2400 
 18 H       -3.6180     2.7610    -0.0550 H     1 <1>   0.1500 
 19 H       -5.5460    -1.0430     0.6800 H     1 <1>   0.1500 
 20 H       -5.8420     1.5640     0.1010 H     1 <1>   0.1500 
 21 H        1.7000     4.2040    -2.3140 H     1 <1>   0.0800 
 22 H        1.1860     5.7940    -1.8080 H     1 <1>   0.0800 
 23 H        0.1520     4.4190    -1.5380 H     1 <1>   0.0800 
 24 H        0.0380     4.9550     0.9350 H     1 <1>   0.0800 
 25 H        1.0700     6.3380     0.7040 H     1 <1>   0.0800 
 26 H        1.5070     5.1080     1.8630 H     1 <1>   0.0800 
 27 H        3.8420     4.6060    -1.0030 H     1 <1>   0.0800 
 28 H        3.7630     4.9740     0.6980 H     1 <1>   0.0800 
 29 H        3.2410     6.1570    -0.4740 H     1 <1>   0.0800 
@<TRIPOS>BOND
  1   1   2  1   
  2   1   3  1   
  3   2   4  2   
  4   2   5  1   
  5   3   6  2   
  6   3   7  1   
  7   4   8  1   
  8   5   6  1   
  9   5   9  1   
 10   7  10  1   
 11   7  11  2   
 12   8   9  2   
 13   9  12  1   
 14  10  13  1   
 15  11  14  1   
 16  11  18  1   
 17  12  15  1   
 18  12  16  1   
 19  12  17  1   
 20  13  14  2   
 21  13  19  1   
 22  14  20  1   
 23  15  21  1   
 24  15  22  1   
 25  15  23  1   
 26  16  24  1   
 27  16  25  1   
 28  16  26  1   
 29  17  27  1   
 30  17  28  1   
 31  17  29  1   
@<TRIPOS>SUBSTRUCTURE
  1 ****   6 GROUP 4 **** **** 0

# MOE 2024.06 (io_trps.svl 2023.06)
