@<TRIPOS>MOLECULE
1-(4-Chloro-benzenesulfonyl)-4-(piperidine-1-sulfonyl)-piperazine
47 49 1 0 0 
SMALL
USER_CHARGES


@<TRIPOS>ATOM
  1 CL      -1.3540    -0.4520     2.4340 Cl    1 <1>  -0.1770 
  2 C       -2.7680    -0.1980     1.4460 C.ar  1 <1>   0.1770 
  3 C       -3.2050     1.0900     1.2030 C.ar  1 <1>  -0.1500 
  4 C       -3.4340    -1.2860     0.9180 C.ar  1 <1>  -0.1500 
  5 C       -4.3310     1.2860     0.4200 C.ar  1 <1>  -0.1500 
  6 C       -4.5580    -1.0760     0.1370 C.ar  1 <1>  -0.1500 
  7 C       -5.0280     0.2090    -0.1240 C.ar  1 <1>  -0.0090 
  8 S       -6.5120     0.4650    -1.1380 S.o2  1 <1>   1.4470 
  9 O       -6.3170    -0.1560    -2.4290 O.2   1 <1>  -0.6500 
 10 O       -6.9390     1.8450    -1.0540 O.2   1 <1>  -0.6500 
 11 N       -7.6820    -0.4510    -0.3250 N.am  1 <1>  -0.8490 
 12 C       -8.8060    -0.7920    -1.2280 C.3   1 <1>   0.1960 
 13 C       -8.1350     0.1700     0.9440 C.3   1 <1>   0.1960 
 14 C      -10.0930    -1.1500    -0.4580 C.3   1 <1>   0.1960 
 15 C       -9.4960     0.8810     0.8110 C.3   1 <1>   0.1960 
 16 N      -10.5700    -0.0490     0.4120 N.am  1 <1>  -0.8490 
 17 S      -11.8540     0.7990    -0.2770 S.o2  1 <1>   1.5760 
 18 O      -12.2190     1.8820     0.6090 O.2   1 <1>  -0.6500 
 19 O      -11.5210     1.0490    -1.6610 O.2   1 <1>  -0.6500 
 20 N      -13.0570    -0.3810    -0.2030 N.am  1 <1>  -0.8490 
 21 C      -13.4800    -0.6320     1.1770 C.3   1 <1>   0.1960 
 22 C      -14.1970    -0.0090    -1.0420 C.3   1 <1>   0.1960 
 23 C      -14.4710    -1.8000     1.2220 C.3   1 <1>  -0.1600 
 24 C      -15.2230    -1.1470    -1.0790 C.3   1 <1>  -0.1600 
 25 C      -15.6890    -1.5300     0.3310 C.3   1 <1>  -0.1600 
 26 H       -2.6690     1.9240     1.6210 H     1 <1>   0.1500 
 27 H       -3.0760    -2.2810     1.1170 H     1 <1>   0.1500 
 28 H       -4.6730     2.2900     0.2270 H     1 <1>   0.1500 
 29 H       -5.0840    -1.9200    -0.2800 H     1 <1>   0.1500 
 30 H       -8.5170    -1.6200    -1.8520 H     1 <1>   0.0800 
 31 H       -9.0270     0.0400    -1.8780 H     1 <1>   0.0800 
 32 H       -7.4010     0.8680     1.3100 H     1 <1>   0.0800 
 33 H       -8.2360    -0.6020     1.6880 H     1 <1>   0.0800 
 34 H       -9.8870    -2.0080     0.1580 H     1 <1>   0.0800 
 35 H      -10.8580    -1.4420    -1.1570 H     1 <1>   0.0800 
 36 H       -9.3930     1.6700     0.0820 H     1 <1>   0.0800 
 37 H       -9.7620     1.3380     1.7490 H     1 <1>   0.0800 
 38 H      -13.9380     0.2530     1.5900 H     1 <1>   0.0800 
 39 H      -12.6230    -0.8780     1.7820 H     1 <1>   0.0800 
 40 H      -13.8600     0.1850    -2.0470 H     1 <1>   0.0800 
 41 H      -14.6540     0.8900    -0.6600 H     1 <1>   0.0800 
 42 H      -14.7910    -1.9570     2.2360 H     1 <1>   0.0800 
 43 H      -13.9680    -2.6920     0.8930 H     1 <1>   0.0800 
 44 H      -14.7730    -2.0000    -1.5570 H     1 <1>   0.0800 
 45 H      -16.0680    -0.8460    -1.6710 H     1 <1>   0.0800 
 46 H      -16.2650    -0.7210     0.7490 H     1 <1>   0.0800 
 47 H      -16.3170    -2.4030     0.2890 H     1 <1>   0.0800 
@<TRIPOS>BOND
  1   1   2  1   
  2   2   3  ar  
  3   2   4  ar  
  4   3   5  ar  
  5   3  26  1   
  6   4   6  ar  
  7   4  27  1   
  8   5   7  ar  
  9   5  28  1   
 10   6   7  ar  
 11   6  29  1   
 12   7   8  1   
 13   8   9  2   
 14   8  10  2   
 15   8  11  am  
 16  11  12  1   
 17  11  13  1   
 18  12  14  1   
 19  12  30  1   
 20  12  31  1   
 21  13  15  1   
 22  13  32  1   
 23  13  33  1   
 24  14  16  1   
 25  14  34  1   
 26  14  35  1   
 27  15  16  1   
 28  15  36  1   
 29  15  37  1   
 30  16  17  am  
 31  17  18  2   
 32  17  19  2   
 33  17  20  am  
 34  20  21  1   
 35  20  22  1   
 36  21  23  1   
 37  21  38  1   
 38  21  39  1   
 39  22  24  1   
 40  22  40  1   
 41  22  41  1   
 42  23  25  1   
 43  23  42  1   
 44  23  43  1   
 45  24  25  1   
 46  24  44  1   
 47  24  45  1   
 48  25  46  1   
 49  25  47  1   
@<TRIPOS>SUBSTRUCTURE
  1 ****  13 GROUP 4 **** **** 0

# MOE 2024.06 (io_trps.svl 2023.06)
