@<TRIPOS>MOLECULE
4-[3-(2-Chloro-phenyl)-[1,2,4]oxadiazol-5-yl]-N-propyl-butyramide
39 40 1 0 0 
SMALL
USER_CHARGES


@<TRIPOS>ATOM
  1 CL       0.1600    -0.2470    -0.5610 Cl    1 <1>  -0.1770 
  2 C        0.7750    -1.8560    -0.2550 C.ar  1 <1>   0.1770 
  3 C        2.1390    -2.1270    -0.3610 C.ar  1 <1>   0.0540 
  4 C       -0.1440    -2.8350     0.0750 C.ar  1 <1>  -0.1500 
  5 C        3.1070    -1.1080    -0.6910 C.2   1 <1>   0.4620 
  6 C        2.5440    -3.4430    -0.1360 C.ar  1 <1>  -0.1500 
  7 C        0.2860    -4.1310     0.3010 C.ar  1 <1>  -0.1500 
  8 N        3.9110    -1.1430    -1.6920 N.2   1 <1>  -0.4100 
  9 N        3.2880    -0.0190     0.0580 N.2   1 <1>  -0.5650 
 10 C        1.6330    -4.4320     0.1920 C.ar  1 <1>  -0.1500 
 11 O        4.6290    -0.0640    -1.6570 O.3   1 <1>  -0.0190 
 12 C        4.2130     0.5610    -0.5850 C.2   1 <1>   0.2980 
 13 C        4.8730     1.8720    -0.1970 C.3   1 <1>   0.0200 
 14 C        6.3670     1.6900     0.1150 C.3   1 <1>  -0.1600 
 15 C        6.6080     0.7380     1.3040 C.3   1 <1>  -0.0990 
 16 C        8.0670     0.3430     1.4290 C.2   1 <1>   0.5690 
 17 O        8.7780     0.9660     2.1740 O.2   1 <1>  -0.5700 
 18 N        8.5740    -0.6930     0.7190 N.am  1 <1>  -0.7300 
 19 C        7.9130    -1.5410    -0.2980 C.3   1 <1>   0.1400 
 20 C        7.4380    -2.8390     0.3530 C.3   1 <1>  -0.1600 
 21 C        6.7450    -3.7470    -0.6690 C.3   1 <1>  -0.2400 
 22 H       -1.1870    -2.5830     0.1500 H     1 <1>   0.1500 
 23 H        3.5880    -3.6890    -0.2180 H     1 <1>   0.1500 
 24 H       -0.4220    -4.9000     0.5580 H     1 <1>   0.1500 
 25 H        1.9710    -5.4410     0.3630 H     1 <1>   0.1500 
 26 H        4.3700     2.2780     0.6620 H     1 <1>   0.0800 
 27 H        4.7560     2.5680    -1.0080 H     1 <1>   0.0800 
 28 H        6.8060     2.6460     0.3420 H     1 <1>   0.0800 
 29 H        6.8640     1.3090    -0.7610 H     1 <1>   0.0800 
 30 H        6.0230    -0.1580     1.2120 H     1 <1>   0.0800 
 31 H        6.3060     1.2210     2.2150 H     1 <1>   0.0800 
 32 H        9.5560    -0.9070     0.9100 H     1 <1>   0.3700 
 33 H        8.6150    -1.7580    -1.0850 H     1 <1>   0.0800 
 34 H        7.0760    -1.0230    -0.7310 H     1 <1>   0.0800 
 35 H        6.7450    -2.6090     1.1440 H     1 <1>   0.0800 
 36 H        8.2790    -3.3590     0.7770 H     1 <1>   0.0800 
 37 H        5.9040    -3.2420    -1.1130 H     1 <1>   0.0800 
 38 H        6.3940    -4.6430    -0.1880 H     1 <1>   0.0800 
 39 H        7.4310    -4.0250    -1.4510 H     1 <1>   0.0800 
@<TRIPOS>BOND
  1   1   2  1   
  2   2   3  ar  
  3   2   4  ar  
  4   3   5  1   
  5   3   6  ar  
  6   4   7  ar  
  7   4  22  1   
  8   5   8  2   
  9   5   9  1   
 10   6  10  ar  
 11   6  23  1   
 12   7  10  ar  
 13   7  24  1   
 14   8  11  1   
 15   9  12  2   
 16  10  25  1   
 17  11  12  1   
 18  12  13  1   
 19  13  14  1   
 20  13  26  1   
 21  13  27  1   
 22  14  15  1   
 23  14  28  1   
 24  14  29  1   
 25  15  16  1   
 26  15  30  1   
 27  15  31  1   
 28  16  17  2   
 29  16  18  am  
 30  18  19  1   
 31  18  32  1   
 32  19  20  1   
 33  19  33  1   
 34  19  34  1   
 35  20  21  1   
 36  20  35  1   
 37  20  36  1   
 38  21  37  1   
 39  21  38  1   
 40  21  39  1   
@<TRIPOS>SUBSTRUCTURE
  1 ****   5 GROUP 4 **** **** 0

# MOE 2024.06 (io_trps.svl 2023.06)
