@<TRIPOS>MOLECULE
3-Allyl-5,6-dimethyl-2-methylsulfanyl-3H-thieno[2,3-d]pyrimidin-4-one
31 32 1 0 0 
SMALL
USER_CHARGES


@<TRIPOS>ATOM
  1 S       -0.1380    -0.5160    -0.0220 S.3   1 <1>  -0.0800 
  2 C        1.2980     0.4490    -0.2670 C.2   1 <1>   0.1660 
  3 C       -1.1130     0.9230     0.2560 C.2   1 <1>  -0.1400 
  4 N        2.4930    -0.1150    -0.5440 N.2   1 <1>  -0.5760 
  5 C        1.0300     1.7760    -0.1420 C.2   1 <1>  -0.0860 
  6 C       -0.3580     2.0380     0.1600 C.2   1 <1>  -0.1810 
  7 C       -2.5790     0.6660     0.5470 C.3   1 <1>  -0.0600 
  8 C        3.4590     0.7240    -0.6970 C.2   1 <1>   0.6510 
  9 C        2.1390     2.6570    -0.3250 C.2   1 <1>   0.7160 
 10 C       -0.8570     3.4640     0.3400 C.3   1 <1>  -0.0590 
 11 S        5.0620     0.0210    -1.0700 S.3   1 <1>  -0.3710 
 12 N        3.3670     2.0960    -0.6100 N.am  1 <1>  -0.4200 
 13 O        2.0310     3.8740    -0.2410 O.2   1 <1>  -0.5700 
 14 C        4.7920    -1.8090    -1.0740 C.3   1 <1>  -0.0100 
 15 C        4.5460     2.9870    -0.7600 C.3   1 <1>   0.2780 
 16 C        5.2030     3.1780     0.5960 C.2   1 <1>  -0.2880 
 17 C        6.4310     2.7670     0.9260 C.2   1 <1>  -0.3000 
 18 H       -2.6730     0.0570     1.4280 H     1 <1>   0.0800 
 19 H       -3.0270     0.1470    -0.2820 H     1 <1>   0.0800 
 20 H       -3.1120     1.5840     0.7050 H     1 <1>   0.0800 
 21 H       -1.9070     3.4890     0.5600 H     1 <1>   0.0800 
 22 H       -0.6860     4.0280    -0.5600 H     1 <1>   0.0800 
 23 H       -0.3290     3.9370     1.1480 H     1 <1>   0.0800 
 24 H        5.7320    -2.2820    -1.2890 H     1 <1>   0.0800 
 25 H        4.0630    -2.0350    -1.8320 H     1 <1>   0.0800 
 26 H        4.4310    -2.0920    -0.1010 H     1 <1>   0.0800 
 27 H        4.2440     3.9440    -1.1490 H     1 <1>   0.0800 
 28 H        5.2470     2.5780    -1.4640 H     1 <1>   0.0800 
 29 H        4.5590     3.6960     1.2890 H     1 <1>   0.1500 
 30 H        6.8730     2.9170     1.8970 H     1 <1>   0.1500 
 31 H        7.0970     2.2440     0.2610 H     1 <1>   0.1500 
@<TRIPOS>BOND
  1   1   2  1   
  2   1   3  1   
  3   2   4  1   
  4   2   5  2   
  5   3   6  2   
  6   3   7  1   
  7   4   8  2   
  8   5   6  1   
  9   5   9  1   
 10   6  10  1   
 11   7  18  1   
 12   7  19  1   
 13   7  20  1   
 14   8  11  1   
 15   8  12  1   
 16   9  12  am  
 17   9  13  2   
 18  10  21  1   
 19  10  22  1   
 20  10  23  1   
 21  11  14  1   
 22  12  15  1   
 23  14  24  1   
 24  14  25  1   
 25  14  26  1   
 26  15  16  1   
 27  15  27  1   
 28  15  28  1   
 29  16  17  2   
 30  16  29  1   
 31  17  30  1   
 32  17  31  1   
@<TRIPOS>SUBSTRUCTURE
  1 ****   5 GROUP 4 **** **** 0

# MOE 2024.06 (io_trps.svl 2023.06)
