@<TRIPOS>MOLECULE
3-Chloro-6,7,8,9-tetrahydro-5H-carbazole-4-carboxylic acid
28 30 1 0 0 
SMALL
USER_CHARGES


@<TRIPOS>ATOM
  1 CL      -0.0520     0.0380     0.2130 Cl    1 <1>  -0.1770 
  2 C        1.3940     1.0210     0.1200 C.ar  1 <1>   0.1770 
  3 C        1.3120     2.4000     0.0670 C.ar  1 <1>  -0.1790 
  4 C        2.6100     0.3340     0.1080 C.ar  1 <1>  -0.1500 
  5 C        2.5320     3.1040     0.0000 C.ar  1 <1>   0.0000 
  6 C        0.0500     3.0870     0.0770 C.2   1 <1>   0.9790 
  7 C        3.7980     1.0260     0.0450 C.ar  1 <1>  -0.1500 
  8 C        3.7490     2.4200    -0.0060 C.ar  1 <1>  -0.1520 
  9 C        2.8670     4.4750    -0.0650 C.2   1 <1>  -0.1810 
 10 O       -0.6030     3.2290    -0.9730 O.co2 1 <1>  -0.9000 
 11 O       -0.3950     3.5830     1.1290 O.co2 1 <1>  -0.9000 
 12 N        4.7680     3.3400    -0.0660 N.pl3 1 <1>   0.0330 
 13 C        4.2130     4.5840    -0.0930 C.2   1 <1>  -0.3320 
 14 C        1.9140     5.6560    -0.0890 C.3   1 <1>   0.0210 
 15 C        4.9730     5.8940    -0.1480 C.3   1 <1>   0.0200 
 16 C        2.6650     6.9430    -0.4820 C.3   1 <1>  -0.1600 
 17 C        4.0330     7.0570     0.2210 C.3   1 <1>  -0.1600 
 18 H        2.5960    -0.7380     0.1510 H     1 <1>   0.1500 
 19 H        4.7430     0.5150     0.0370 H     1 <1>   0.1500 
 20 H        5.7650     3.1170    -0.0800 H     1 <1>   0.2700 
 21 H        1.4740     5.7590     0.8870 H     1 <1>   0.0800 
 22 H        1.1190     5.4710    -0.7910 H     1 <1>   0.0800 
 23 H        5.3510     6.0350    -1.1460 H     1 <1>   0.0800 
 24 H        5.8030     5.8720     0.5360 H     1 <1>   0.0800 
 25 H        2.0520     7.7930    -0.2440 H     1 <1>   0.0800 
 26 H        2.8210     6.9330    -1.5470 H     1 <1>   0.0800 
 27 H        4.4990     7.9920    -0.0330 H     1 <1>   0.0800 
 28 H        3.8700     7.0440     1.2850 H     1 <1>   0.0800 
@<TRIPOS>BOND
  1   1   2  1   
  2   2   3  ar  
  3   2   4  ar  
  4   3   5  ar  
  5   3   6  1   
  6   4   7  ar  
  7   4  18  1   
  8   5   8  ar  
  9   5   9  1   
 10   6  10  ar  
 11   6  11  ar  
 12   7   8  ar  
 13   7  19  1   
 14   8  12  1   
 15   9  13  2   
 16   9  14  1   
 17  12  13  1   
 18  12  20  1   
 19  13  15  1   
 20  14  16  1   
 21  14  21  1   
 22  14  22  1   
 23  15  17  1   
 24  15  23  1   
 25  15  24  1   
 26  16  17  1   
 27  16  25  1   
 28  16  26  1   
 29  17  27  1   
 30  17  28  1   
@<TRIPOS>SUBSTRUCTURE
  1 ****   5 GROUP 4 **** **** 0

# MOE 2024.06 (io_trps.svl 2023.06)
