@<TRIPOS>MOLECULE
(4-Chloro-benzyl)-(4,6-di-morpholin-4-yl-[1,3,5]triazin-2-yl)-cyanamide
51 54 1 0 0 
SMALL
USER_CHARGES


@<TRIPOS>ATOM
  1 CL      -0.7030     3.8310     2.3890 Cl    1 <1>  -0.1770 
  2 C       -2.0120     3.3230     1.3530 C.ar  1 <1>   0.1770 
  3 C       -3.1170     4.1400     1.2060 C.ar  1 <1>  -0.1500 
  4 C       -1.9240     2.1120     0.6950 C.ar  1 <1>  -0.1500 
  5 C       -4.1540     3.7340     0.3820 C.ar  1 <1>  -0.1500 
  6 C       -2.9640     1.7110    -0.1270 C.ar  1 <1>  -0.1500 
  7 C       -4.0830     2.5170    -0.2870 C.ar  1 <1>  -0.1430 
  8 C       -5.2180     2.0650    -1.1970 C.3   1 <1>   0.3390 
  9 N       -6.3260     1.4980    -0.4000 N.pl3 1 <1>  -0.6810 
 10 C       -7.2350     2.4220     0.1310 C.1   1 <1>   0.6830 
 11 C       -6.5000     0.1460    -0.2400 C.ar  1 <1>   0.8190 
 12 N       -7.9420     3.2180     0.5330 N.1   1 <1>  -0.5570 
 13 N       -7.7090    -0.2720     0.0190 N.ar  1 <1>  -0.6200 
 14 N       -5.4440    -0.6100    -0.3700 N.ar  1 <1>  -0.6200 
 15 C       -7.8240    -1.5660     0.1430 C.ar  1 <1>   0.7200 
 16 C       -5.6800    -1.8840    -0.2150 C.ar  1 <1>   0.7200 
 17 N       -6.8450    -2.4210     0.0250 N.ar  1 <1>  -0.6200 
 18 N       -9.0780    -2.0650     0.4210 N.pl3 1 <1>  -0.8380 
 19 N       -4.6060    -2.7310    -0.3160 N.pl3 1 <1>  -0.8380 
 20 C       -9.3220    -3.5090     0.7320 C.3   1 <1>   0.2090 
 21 C      -10.2370    -1.1840     0.7810 C.3   1 <1>   0.2090 
 22 C       -3.2950    -2.3950     0.3120 C.3   1 <1>   0.2090 
 23 C       -4.7810    -4.1950    -0.5550 C.3   1 <1>   0.2090 
 24 C      -10.7080    -3.9590     0.2370 C.3   1 <1>   0.1200 
 25 C      -11.5660    -1.7820     0.2890 C.3   1 <1>   0.1200 
 26 C       -2.1400    -3.0910    -0.4290 C.3   1 <1>   0.1200 
 27 C       -3.5370    -4.7920    -1.2370 C.3   1 <1>   0.1200 
 28 O      -11.7130    -3.1090     0.7130 O.3   1 <1>  -0.5600 
 29 O       -2.3700    -4.4690    -0.5320 O.3   1 <1>  -0.5600 
 30 H       -3.1630     5.0770     1.7300 H     1 <1>   0.1500 
 31 H       -1.0530     1.4950     0.8270 H     1 <1>   0.1500 
 32 H       -5.0170     4.3700     0.2700 H     1 <1>   0.1500 
 33 H       -2.9030     0.7680    -0.6420 H     1 <1>   0.1500 
 34 H       -4.8570     1.3350    -1.9020 H     1 <1>   0.0800 
 35 H       -5.5770     2.9050    -1.7670 H     1 <1>   0.0800 
 36 H       -9.2620    -3.6560     1.7960 H     1 <1>   0.0800 
 37 H       -8.5790    -4.1340     0.2690 H     1 <1>   0.0800 
 38 H      -10.1280    -0.2040     0.3500 H     1 <1>   0.0800 
 39 H      -10.2750    -1.0710     1.8500 H     1 <1>   0.0800 
 40 H       -3.3010    -2.7210     1.3380 H     1 <1>   0.0800 
 41 H       -3.1300    -1.3330     0.3060 H     1 <1>   0.0800 
 42 H       -5.6400    -4.3660    -1.1800 H     1 <1>   0.0800 
 43 H       -4.9460    -4.6920     0.3850 H     1 <1>   0.0800 
 44 H      -10.9220    -4.9510     0.5910 H     1 <1>   0.0800 
 45 H      -10.7380    -3.9600    -0.8380 H     1 <1>   0.0800 
 46 H      -11.6120    -1.7570    -0.7860 H     1 <1>   0.0800 
 47 H      -12.3930    -1.2180     0.6820 H     1 <1>   0.0800 
 48 H       -1.2180    -2.9510     0.1060 H     1 <1>   0.0800 
 49 H       -2.0320    -2.6840    -1.4190 H     1 <1>   0.0800 
 50 H       -3.4470    -4.4190    -2.2420 H     1 <1>   0.0800 
 51 H       -3.6130    -5.8640    -1.2720 H     1 <1>   0.0800 
@<TRIPOS>BOND
  1   1   2  1   
  2   2   3  ar  
  3   2   4  ar  
  4   3   5  ar  
  5   3  30  1   
  6   4   6  ar  
  7   4  31  1   
  8   5   7  ar  
  9   5  32  1   
 10   6   7  ar  
 11   6  33  1   
 12   7   8  1   
 13   8   9  1   
 14   8  34  1   
 15   8  35  1   
 16   9  10  1   
 17   9  11  1   
 18  10  12  3   
 19  11  13  ar  
 20  11  14  ar  
 21  13  15  ar  
 22  14  16  ar  
 23  15  17  ar  
 24  15  18  1   
 25  16  17  ar  
 26  16  19  1   
 27  18  20  1   
 28  18  21  1   
 29  19  22  1   
 30  19  23  1   
 31  20  24  1   
 32  20  36  1   
 33  20  37  1   
 34  21  25  1   
 35  21  38  1   
 36  21  39  1   
 37  22  26  1   
 38  22  40  1   
 39  22  41  1   
 40  23  27  1   
 41  23  42  1   
 42  23  43  1   
 43  24  28  1   
 44  24  44  1   
 45  24  45  1   
 46  25  28  1   
 47  25  46  1   
 48  25  47  1   
 49  26  29  1   
 50  26  48  1   
 51  26  49  1   
 52  27  29  1   
 53  27  50  1   
 54  27  51  1   
@<TRIPOS>SUBSTRUCTURE
  1 ****  14 GROUP 4 **** **** 0

# MOE 2024.06 (io_trps.svl 2023.06)
