@<TRIPOS>MOLECULE
3-[3-(3-Methoxy-phenyl)-[1,2,4]oxadiazol-5-yl]-N-(tetrahydro-furan-2-ylmethyl)-p
45 47 1 0 0 
SMALL
USER_CHARGES


@<TRIPOS>ATOM
  1 O        0.2530    -0.4860    -1.2470 O.2   1 <1>  -0.5700 
  2 C        0.7640    -1.5580    -1.0460 C.2   1 <1>   0.5690 
  3 N        2.0890    -1.6370    -0.7950 N.am  1 <1>  -0.7300 
  4 C       -0.0830    -2.8180    -1.0810 C.3   1 <1>  -0.0990 
  5 C        2.9350    -2.8110    -0.4690 C.3   1 <1>   0.1400 
  6 C       -1.5130    -2.5680    -1.5870 C.3   1 <1>   0.0200 
  7 C        4.0270    -2.4170     0.5380 C.3   1 <1>   0.2000 
  8 C       -2.3070    -3.8570    -1.6450 C.2   1 <1>   0.2980 
  9 O        4.7320    -1.3100     0.0750 O.3   1 <1>  -0.5600 
 10 C        5.0950    -3.4800     0.7530 C.3   1 <1>  -0.1600 
 11 O       -1.9770    -4.7600    -2.5310 O.3   1 <1>  -0.0190 
 12 N       -3.2840    -4.1610    -0.8960 N.2   1 <1>  -0.5650 
 13 C        5.9920    -1.2510     0.6670 C.3   1 <1>   0.1200 
 14 C        6.2990    -2.6570     1.1790 C.3   1 <1>  -0.1600 
 15 N       -2.8180    -5.7240    -2.3270 N.2   1 <1>  -0.4100 
 16 C       -3.5970    -5.3740    -1.3640 C.2   1 <1>   0.4620 
 17 C       -4.6870    -6.1690    -0.8230 C.ar  1 <1>   0.0540 
 18 C       -5.4890    -5.7040     0.2190 C.ar  1 <1>  -0.1500 
 19 C       -4.9760    -7.4390    -1.3280 C.ar  1 <1>  -0.1500 
 20 C       -6.5280    -6.4570     0.7380 C.ar  1 <1>   0.0820 
 21 C       -6.0110    -8.2030    -0.8200 C.ar  1 <1>  -0.1500 
 22 O       -7.2390    -5.9000     1.7500 O.3   1 <1>  -0.3630 
 23 C       -6.7910    -7.7180     0.2130 C.ar  1 <1>  -0.1500 
 24 C       -8.3180    -6.5810     2.3510 C.3   1 <1>   0.0400 
 25 H        2.6150    -0.7550    -0.8030 H     1 <1>   0.3700 
 26 H       -0.1280    -3.2250    -0.0880 H     1 <1>   0.0800 
 27 H        0.3980    -3.5330    -1.7220 H     1 <1>   0.0800 
 28 H        3.3980    -3.1690    -1.3720 H     1 <1>   0.0800 
 29 H        2.3360    -3.6030    -0.0560 H     1 <1>   0.0800 
 30 H       -1.4850    -2.1300    -2.5690 H     1 <1>   0.0800 
 31 H       -2.0130    -1.8780    -0.9290 H     1 <1>   0.0800 
 32 H        3.5820    -2.1450     1.4800 H     1 <1>   0.0800 
 33 H        5.3040    -3.9840    -0.1740 H     1 <1>   0.0800 
 34 H        4.8020    -4.2010     1.4950 H     1 <1>   0.0800 
 35 H        5.9540    -0.5370     1.4720 H     1 <1>   0.0800 
 36 H        6.6990    -0.9290    -0.0780 H     1 <1>   0.0800 
 37 H        7.2140    -3.0360     0.7580 H     1 <1>   0.0800 
 38 H        6.3900    -2.6350     2.2510 H     1 <1>   0.0800 
 39 H       -5.3060    -4.7320     0.6400 H     1 <1>   0.1500 
 40 H       -4.3810    -7.8340    -2.1330 H     1 <1>   0.1500 
 41 H       -6.2090    -9.1790    -1.2310 H     1 <1>   0.1500 
 42 H       -7.5880    -8.3280     0.5920 H     1 <1>   0.1500 
 43 H       -8.7230    -5.9490     3.1210 H     1 <1>   0.0800 
 44 H       -7.9550    -7.4960     2.7830 H     1 <1>   0.0800 
 45 H       -9.0680    -6.7750     1.6050 H     1 <1>   0.0800 
@<TRIPOS>BOND
  1   1   2  2   
  2   2   3  am  
  3   2   4  1   
  4   3   5  1   
  5   3  25  1   
  6   4   6  1   
  7   4  26  1   
  8   4  27  1   
  9   5   7  1   
 10   5  28  1   
 11   5  29  1   
 12   6   8  1   
 13   6  30  1   
 14   6  31  1   
 15   7   9  1   
 16   7  10  1   
 17   7  32  1   
 18   8  11  1   
 19   8  12  2   
 20   9  13  1   
 21  10  14  1   
 22  10  33  1   
 23  10  34  1   
 24  11  15  1   
 25  12  16  1   
 26  13  14  1   
 27  13  35  1   
 28  13  36  1   
 29  14  37  1   
 30  14  38  1   
 31  15  16  2   
 32  16  17  1   
 33  17  18  ar  
 34  17  19  ar  
 35  18  20  ar  
 36  18  39  1   
 37  19  21  ar  
 38  19  40  1   
 39  20  22  1   
 40  20  23  ar  
 41  21  23  ar  
 42  21  41  1   
 43  22  24  1   
 44  23  42  1   
 45  24  43  1   
 46  24  44  1   
 47  24  45  1   
@<TRIPOS>SUBSTRUCTURE
  1 ****   8 GROUP 4 **** **** 0

# MOE 2024.06 (io_trps.svl 2023.06)
