@<TRIPOS>MOLECULE
1,3-Dimethyl-7-(3-phenoxy-propyl)-8-piperazin-1-yl-3,7-dihydro-purine-2,6-dione
57 60 1 0 0 
SMALL
USER_CHARGES


@<TRIPOS>ATOM
  1 O        0.7320     0.2540     0.3800 O.2   1 <1>  -0.5740 
  2 C        1.7890     0.8500     0.3430 C.2   1 <1>   0.6870 
  3 N        1.8100     2.2370     0.4460 N.am  1 <1>  -0.4250 
  4 N        2.9750     0.1440     0.1900 N.am  1 <1>  -0.4410 
  5 C        2.9970     2.9470     0.3300 C.2   1 <1>   0.7000 
  6 C        0.5190     2.9670     0.6490 C.3   1 <1>   0.0530 
  7 C        4.1460     0.8650     0.0640 C.2   1 <1>   0.4210 
  8 C        2.9600    -1.3480     0.1150 C.3   1 <1>   0.0530 
  9 O        3.0110     4.1620     0.4300 O.2   1 <1>  -0.5740 
 10 C        4.2080     2.2110     0.1050 C.2   1 <1>   0.2710 
 11 N        5.4040     0.3770    -0.1190 N.pl3 1 <1>  -0.7030 
 12 N        5.5670     2.5520    -0.0790 N.pl3 1 <1>  -0.7670 
 13 C        6.2490     1.4050    -0.2130 C.cat 1 <1>   1.0690 
 14 C        6.0560     3.9460     0.0890 C.3   1 <1>   0.3490 
 15 N        7.5870     1.2440    -0.3970 N.pl3 1 <1>  -0.5960 
 16 C        5.8100     4.7680    -1.1800 C.3   1 <1>  -0.1660 
 17 C        8.3500     0.0620     0.1290 C.3   1 <1>   0.1610 
 18 C        8.4290     2.1400    -1.2620 C.3   1 <1>   0.1610 
 19 C        6.7740     5.9540    -1.2890 C.3   1 <1>   0.1130 
 20 C        9.6510     0.5000     0.8500 C.3   1 <1>   0.3380 
 21 C        9.7190     2.5900    -0.5410 C.3   1 <1>   0.3380 
 22 O        8.0850     5.4430    -1.4360 O.3   1 <1>  -0.3680 
 23 N       10.4860     1.4280     0.0170 N.4   1 <1>  -0.9080 
 24 C        9.0800     5.6960    -0.5530 C.ar  1 <1>   0.0760 
 25 C       10.3730     5.6830    -1.0540 C.ar  1 <1>  -0.1560 
 26 C        8.8710     5.9120     0.8060 C.ar  1 <1>  -0.1560 
 27 C       11.4530     5.8480    -0.2060 C.ar  1 <1>  -0.1560 
 28 C        9.9540     6.0780     1.6520 C.ar  1 <1>  -0.1560 
 29 C       11.2430     6.0400     1.1490 C.ar  1 <1>  -0.1560 
 30 H       -0.1280     2.4030     1.3000 H     1 <1>   0.0730 
 31 H        0.0270     3.1000    -0.2980 H     1 <1>   0.0730 
 32 H        0.6850     3.9310     1.0970 H     1 <1>   0.0730 
 33 H        2.0950    -1.7420     0.6230 H     1 <1>   0.0730 
 34 H        3.8340    -1.7600     0.5850 H     1 <1>   0.0730 
 35 H        2.9200    -1.6590    -0.9150 H     1 <1>   0.0730 
 36 H        5.6340    -0.6030    -0.2500 H     1 <1>   0.4450 
 37 H        7.1030     3.9180     0.3250 H     1 <1>   0.0730 
 38 H        5.5580     4.4150     0.9230 H     1 <1>   0.0730 
 39 H        4.8060     5.1510    -1.1670 H     1 <1>   0.0730 
 40 H        5.9180     4.1620    -2.0620 H     1 <1>   0.0730 
 41 H        8.6000    -0.5950    -0.6870 H     1 <1>   0.0730 
 42 H        7.7470    -0.4950     0.8260 H     1 <1>   0.0730 
 43 H        7.8740     2.9960    -1.5880 H     1 <1>   0.0730 
 44 H        8.7050     1.6020    -2.1530 H     1 <1>   0.0730 
 45 H        6.7130     6.6140    -0.4420 H     1 <1>   0.0730 
 46 H        6.5560     6.5260    -2.1750 H     1 <1>   0.0730 
 47 H       10.2280    -0.3740     1.1090 H     1 <1>   0.0730 
 48 H        9.3830     0.9940     1.7700 H     1 <1>   0.0730 
 49 H        9.4570     3.2650     0.2570 H     1 <1>   0.0730 
 50 H       10.3400     3.1370    -1.2330 H     1 <1>   0.0730 
 51 H       10.9330     0.9100    -0.7520 H     1 <1>   0.4450 
 52 H       11.2640     1.7960     0.5870 H     1 <1>   0.4450 
 53 H       10.5320     5.5540    -2.1100 H     1 <1>   0.1440 
 54 H        7.8850     5.9600     1.2270 H     1 <1>   0.1440 
 55 H       12.4560     5.8450    -0.5980 H     1 <1>   0.1440 
 56 H        9.7980     6.2500     2.7040 H     1 <1>   0.1440 
 57 H       12.0820     6.1780     1.8100 H     1 <1>   0.1440 
@<TRIPOS>BOND
  1   1   2  2   
  2   2   3  am  
  3   2   4  am  
  4   3   5  am  
  5   3   6  1   
  6   4   7  1   
  7   4   8  1   
  8   5   9  2   
  9   5  10  1   
 10   6  30  1   
 11   6  31  1   
 12   6  32  1   
 13   7  10  2   
 14   7  11  1   
 15   8  33  1   
 16   8  34  1   
 17   8  35  1   
 18  10  12  1   
 19  11  13  ar  
 20  11  36  1   
 21  12  13  ar  
 22  12  14  1   
 23  13  15  ar  
 24  14  16  1   
 25  14  37  1   
 26  14  38  1   
 27  15  17  1   
 28  15  18  1   
 29  16  19  1   
 30  16  39  1   
 31  16  40  1   
 32  17  20  1   
 33  17  41  1   
 34  17  42  1   
 35  18  21  1   
 36  18  43  1   
 37  18  44  1   
 38  19  22  1   
 39  19  45  1   
 40  19  46  1   
 41  20  23  1   
 42  20  47  1   
 43  20  48  1   
 44  21  23  1   
 45  21  49  1   
 46  21  50  1   
 47  22  24  1   
 48  23  51  1   
 49  23  52  1   
 50  24  25  ar  
 51  24  26  ar  
 52  25  27  ar  
 53  25  53  1   
 54  26  28  ar  
 55  26  54  1   
 56  27  29  ar  
 57  27  55  1   
 58  28  29  ar  
 59  28  56  1   
 60  29  57  1   
@<TRIPOS>SUBSTRUCTURE
  1 ****  12 GROUP 4 **** **** 0

# MOE 2024.06 (io_trps.svl 2023.06)
