@<TRIPOS>MOLECULE
1-(2,5-Dimethoxy-benzenesulfonyl)-piperidine-4-carboxylic acid (2-hydroxy-ethyl)
49 50 1 0 0 
SMALL
USER_CHARGES


@<TRIPOS>ATOM
  1 S       -0.1940    -0.1690     1.5730 S.o2  1 <1>   1.4470 
  2 O        0.0990    -1.3680     2.3300 O.2   1 <1>  -0.6500 
  3 O       -0.6360     0.9940     2.3150 O.2   1 <1>  -0.6500 
  4 N        1.2530     0.2680     0.7980 N.am  1 <1>  -0.8490 
  5 C       -1.3200    -0.6300     0.2260 C.ar  1 <1>  -0.0090 
  6 C        2.3570     0.3250     1.7610 C.3   1 <1>   0.1960 
  7 C        1.1210     1.5250     0.0530 C.3   1 <1>   0.1960 
  8 C       -2.1500     0.2930    -0.4090 C.ar  1 <1>   0.0820 
  9 C       -1.3600    -1.9470    -0.2190 C.ar  1 <1>  -0.1500 
 10 C        3.6840     0.6020     1.0490 C.3   1 <1>  -0.1600 
 11 C        2.4090     1.8370    -0.7120 C.3   1 <1>  -0.1600 
 12 O       -2.1330     1.5940    -0.0540 O.3   1 <1>  -0.3620 
 13 C       -2.9920    -0.0890    -1.4420 C.ar  1 <1>  -0.1500 
 14 C       -2.2050    -2.3430    -1.2510 C.ar  1 <1>   0.0820 
 15 C        3.6190     1.9020     0.2330 C.3   1 <1>  -0.0190 
 16 C       -3.2110     2.0410     0.7400 C.3   1 <1>   0.0400 
 17 C       -3.0220    -1.4050    -1.8590 C.ar  1 <1>  -0.1500 
 18 O       -2.2870    -3.6160    -1.7150 O.3   1 <1>  -0.3630 
 19 C        4.9180     2.1620    -0.5290 C.2   1 <1>   0.5690 
 20 C       -1.4950    -4.6460    -1.1650 C.3   1 <1>   0.0400 
 21 O        5.3140     1.3550    -1.3350 O.2   1 <1>  -0.5700 
 22 N        5.6090     3.3040    -0.2750 N.am  1 <1>  -0.7300 
 23 C        6.8570     3.6930    -0.9780 C.3   1 <1>   0.1400 
 24 C        8.0710     3.0540    -0.2980 C.3   1 <1>   0.1200 
 25 O        9.2250     3.4340    -0.9680 O.3   1 <1>  -0.6800 
 26 H        2.4390    -0.6180     2.2770 H     1 <1>   0.0800 
 27 H        2.1610     1.0910     2.4950 H     1 <1>   0.0800 
 28 H        0.8860     2.3320     0.7280 H     1 <1>   0.0800 
 29 H        0.3200     1.4410    -0.6610 H     1 <1>   0.0800 
 30 H       -0.7130    -2.6590     0.2610 H     1 <1>   0.1500 
 31 H        3.9070    -0.2270     0.4000 H     1 <1>   0.0800 
 32 H        4.4720     0.6690     1.7770 H     1 <1>   0.0800 
 33 H        2.2990     2.7750    -1.2270 H     1 <1>   0.0800 
 34 H        2.5660     1.0730    -1.4540 H     1 <1>   0.0800 
 35 H       -3.6160     0.6430    -1.9220 H     1 <1>   0.1500 
 36 H        3.4620     2.7170     0.9170 H     1 <1>   0.0800 
 37 H       -3.0420     3.0740     0.9840 H     1 <1>   0.0800 
 38 H       -3.2460     1.4550     1.6420 H     1 <1>   0.0800 
 39 H       -4.1260     1.9360     0.1860 H     1 <1>   0.0800 
 40 H       -3.6720    -1.7150    -2.6580 H     1 <1>   0.1500 
 41 H       -1.7280    -5.5590    -1.6830 H     1 <1>   0.0800 
 42 H       -1.7300    -4.7490    -0.1200 H     1 <1>   0.0800 
 43 H       -0.4560    -4.4020    -1.3050 H     1 <1>   0.0800 
 44 H        5.2730     3.9600     0.4320 H     1 <1>   0.3700 
 45 H        6.9540     4.7650    -0.9650 H     1 <1>   0.0800 
 46 H        6.8030     3.3600    -2.0010 H     1 <1>   0.0800 
 47 H        8.0020     1.9790    -0.3230 H     1 <1>   0.0800 
 48 H        8.1550     3.3930     0.7190 H     1 <1>   0.0800 
 49 H        9.2740     2.9940    -1.8400 H     1 <1>   0.4000 
@<TRIPOS>BOND
  1   1   2  2   
  2   1   3  2   
  3   1   4  am  
  4   1   5  1   
  5   4   6  1   
  6   4   7  1   
  7   5   8  ar  
  8   5   9  ar  
  9   6  10  1   
 10   6  26  1   
 11   6  27  1   
 12   7  11  1   
 13   7  28  1   
 14   7  29  1   
 15   8  12  1   
 16   8  13  ar  
 17   9  14  ar  
 18   9  30  1   
 19  10  15  1   
 20  10  31  1   
 21  10  32  1   
 22  11  15  1   
 23  11  33  1   
 24  11  34  1   
 25  12  16  1   
 26  13  17  ar  
 27  13  35  1   
 28  14  17  ar  
 29  14  18  1   
 30  15  19  1   
 31  15  36  1   
 32  16  37  1   
 33  16  38  1   
 34  16  39  1   
 35  17  40  1   
 36  18  20  1   
 37  19  21  2   
 38  19  22  am  
 39  20  41  1   
 40  20  42  1   
 41  20  43  1   
 42  22  23  1   
 43  22  44  1   
 44  23  24  1   
 45  23  45  1   
 46  23  46  1   
 47  24  25  1   
 48  24  47  1   
 49  24  48  1   
 50  25  49  1   
@<TRIPOS>SUBSTRUCTURE
  1 ****   4 GROUP 4 **** **** 0

# MOE 2024.06 (io_trps.svl 2023.06)
