@<TRIPOS>MOLECULE
(2-Methoxy-ethyl)-(4-morpholin-4-yl-2,3-dihydro-1H-6-thia-5,8,10-triaza-cyclopen
51 55 1 0 0 
SMALL
USER_CHARGES


@<TRIPOS>ATOM
  1 S       -0.4230    -0.3210     0.0930 S.3   1 <1>  -0.0800 
  2 C       -1.9510     0.5640     0.0070 C.ar  1 <1>   0.2970 
  3 C        0.5360     1.1700    -0.0440 C.ar  1 <1>   0.0400 
  4 N       -3.1020    -0.0700     0.0640 N.ar  1 <1>  -0.5670 
  5 C       -1.7110     1.9310    -0.1230 C.ar  1 <1>   0.0000 
  6 C        1.9260     1.3380    -0.0550 C.ar  1 <1>   0.4100 
  7 C       -0.3130     2.2390    -0.1440 C.ar  1 <1>   0.3070 
  8 C       -4.1670     0.7230    -0.0130 C.ar  1 <1>   0.4100 
  9 C       -2.8420     2.7390    -0.2120 C.ar  1 <1>  -0.1430 
 10 N        2.4340     2.5740    -0.1630 N.ar  1 <1>  -0.6200 
 11 N        2.8630     0.3850     0.0320 N.pl3 1 <1>  -0.8690 
 12 N        0.2610     3.4620    -0.2480 N.ar  1 <1>  -0.1250 
 13 N       -5.4000     0.1240     0.0460 N.pl3 1 <1>  -0.8380 
 14 C       -4.0540     2.1160    -0.1510 C.ar  1 <1>  -0.1430 
 15 C       -3.0000     4.2350    -0.3770 C.3   1 <1>  -0.0170 
 16 C        1.6100     3.5800    -0.2540 C.ar  1 <1>   0.5210 
 17 C        2.7030    -1.0910     0.1570 C.3   1 <1>   0.2090 
 18 C       -6.1520     0.1670     1.3310 C.3   1 <1>   0.2090 
 19 C       -5.6080    -1.1730    -0.6640 C.3   1 <1>   0.2090 
 20 C       -5.1910     3.1050    -0.2710 C.3   1 <1>  -0.0170 
 21 C       -4.4930     4.4040    -0.7030 C.3   1 <1>  -0.1600 
 22 C        4.0650    -1.7820     0.2000 C.3   1 <1>   0.1200 
 23 C       -7.6280    -0.2110     1.1110 C.3   1 <1>   0.1200 
 24 C       -7.1090    -1.4930    -0.7870 C.3   1 <1>   0.1200 
 25 O        3.8560    -3.1530     0.3160 O.3   1 <1>  -0.5600 
 26 O       -7.7410    -1.4500     0.4650 O.3   1 <1>  -0.5600 
 27 C        5.0260    -3.9040     0.3660 C.3   1 <1>   0.0400 
 28 H        3.8360     0.7040     0.0090 H     1 <1>   0.4000 
 29 H       -0.3320     4.2890    -0.3200 H     1 <1>   0.4570 
 30 H       -2.4010     4.6240    -1.1810 H     1 <1>   0.0800 
 31 H       -2.7680     4.7350     0.5480 H     1 <1>   0.0800 
 32 H        2.0300     4.5710    -0.3390 H     1 <1>   0.1500 
 33 H        2.1490    -1.4650    -0.6870 H     1 <1>   0.0800 
 34 H        2.1670    -1.3180     1.0630 H     1 <1>   0.0800 
 35 H       -6.0910     1.1510     1.7600 H     1 <1>   0.0800 
 36 H       -5.7090    -0.5270     2.0250 H     1 <1>   0.0800 
 37 H       -5.1190    -1.9630    -0.1200 H     1 <1>   0.0800 
 38 H       -5.1670    -1.1210    -1.6440 H     1 <1>   0.0800 
 39 H       -5.6690     3.2270     0.6840 H     1 <1>   0.0800 
 40 H       -5.9150     2.7810    -1.0000 H     1 <1>   0.0800 
 41 H       -4.6110     4.5190    -1.7670 H     1 <1>   0.0800 
 42 H       -4.9190     5.2630    -0.2130 H     1 <1>   0.0800 
 43 H        4.6280    -1.4500     1.0560 H     1 <1>   0.0800 
 44 H        4.6090    -1.5960    -0.7090 H     1 <1>   0.0800 
 45 H       -8.1190     0.5340     0.5110 H     1 <1>   0.0800 
 46 H       -8.1360    -0.2870     2.0550 H     1 <1>   0.0800 
 47 H       -7.2440    -2.4810    -1.1900 H     1 <1>   0.0800 
 48 H       -7.5890    -0.7840    -1.4380 H     1 <1>   0.0800 
 49 H        4.7540    -4.9410     0.4550 H     1 <1>   0.0800 
 50 H        5.6040    -3.6070     1.2240 H     1 <1>   0.0800 
 51 H        5.5860    -3.7530    -0.5410 H     1 <1>   0.0800 
@<TRIPOS>BOND
  1   1   2  1   
  2   1   3  1   
  3   2   4  ar  
  4   2   5  ar  
  5   3   6  ar  
  6   3   7  ar  
  7   4   8  ar  
  8   5   7  1   
  9   5   9  ar  
 10   6  10  ar  
 11   6  11  1   
 12   7  12  ar  
 13   8  13  1   
 14   8  14  ar  
 15   9  14  ar  
 16   9  15  1   
 17  10  16  ar  
 18  11  17  1   
 19  11  28  1   
 20  12  16  ar  
 21  12  29  1   
 22  13  18  1   
 23  13  19  1   
 24  14  20  1   
 25  15  21  1   
 26  15  30  1   
 27  15  31  1   
 28  16  32  1   
 29  17  22  1   
 30  17  33  1   
 31  17  34  1   
 32  18  23  1   
 33  18  35  1   
 34  18  36  1   
 35  19  24  1   
 36  19  37  1   
 37  19  38  1   
 38  20  21  1   
 39  20  39  1   
 40  20  40  1   
 41  21  41  1   
 42  21  42  1   
 43  22  25  1   
 44  22  43  1   
 45  22  44  1   
 46  23  26  1   
 47  23  45  1   
 48  23  46  1   
 49  24  26  1   
 50  24  47  1   
 51  24  48  1   
 52  25  27  1   
 53  27  49  1   
 54  27  50  1   
 55  27  51  1   
@<TRIPOS>SUBSTRUCTURE
  1 ****   2 GROUP 4 **** **** 0

# MOE 2024.06 (io_trps.svl 2023.06)
