@<TRIPOS>MOLECULE
N-(2-Hydroxy-6-methoxy-quinolin-3-ylmethyl)-N-propyl-isobutyramide
47 48 1 0 0 
SMALL
USER_CHARGES


@<TRIPOS>ATOM
  1 O       -2.0070     0.2190     1.4310 O.2   1 <1>  -0.5700 
  2 C       -2.2970    -0.1580     0.3180 C.2   1 <1>   0.5690 
  3 N       -2.4940    -1.4960     0.0630 N.am  1 <1>  -0.6600 
  4 C       -2.4380     0.9120    -0.7850 C.3   1 <1>  -0.0190 
  5 C       -3.0150    -2.0670    -1.2150 C.3   1 <1>   0.2780 
  6 C       -2.2500    -2.5100     1.1280 C.3   1 <1>   0.1400 
  7 C       -1.5810     2.1630    -0.5140 C.3   1 <1>  -0.2400 
  8 C       -3.9030     1.3400    -0.9770 C.3   1 <1>  -0.2400 
  9 C       -4.5140    -2.3430    -1.1660 C.2   1 <1>  -0.1240 
 10 C       -0.8160    -3.0350     1.0240 C.3   1 <1>  -0.1600 
 11 C       -5.0400    -3.0160    -2.3150 C.2   1 <1>   0.6160 
 12 C       -5.3420    -1.9950    -0.1450 C.2   1 <1>  -0.1780 
 13 C       -0.5310    -4.0920     2.0970 C.3   1 <1>  -0.2400 
 14 O       -4.3570    -3.3460    -3.2680 O.2   1 <1>  -0.5700 
 15 N       -6.3700    -3.2990    -2.3480 N.am  1 <1>  -0.5470 
 16 C       -6.7420    -2.2960    -0.1930 C.ar  1 <1>   0.0280 
 17 C       -7.2470    -2.9600    -1.3220 C.ar  1 <1>   0.1170 
 18 C       -7.6230    -1.9560     0.8330 C.ar  1 <1>  -0.1500 
 19 C       -8.6030    -3.2670    -1.3980 C.ar  1 <1>  -0.1500 
 20 C       -8.9660    -2.2610     0.7540 C.ar  1 <1>   0.0820 
 21 C       -9.4590    -2.9240    -0.3730 C.ar  1 <1>  -0.1500 
 22 O       -9.7420    -1.8880     1.8060 O.3   1 <1>  -0.3620 
 23 C      -11.1290    -2.1450     1.8180 C.3   1 <1>   0.0400 
 24 H       -2.0740     0.5010    -1.7070 H     1 <1>   0.0800 
 25 H       -2.4980    -2.9900    -1.4170 H     1 <1>   0.0800 
 26 H       -2.8100    -1.4150    -2.0420 H     1 <1>   0.0800 
 27 H       -2.9500    -3.3220     1.0280 H     1 <1>   0.0800 
 28 H       -2.4020    -2.0680     2.0990 H     1 <1>   0.0800 
 29 H       -1.9140     2.6600     0.3810 H     1 <1>   0.0800 
 30 H       -1.6440     2.8530    -1.3360 H     1 <1>   0.0800 
 31 H       -0.5520     1.8810    -0.3800 H     1 <1>   0.0800 
 32 H       -4.2920     1.7470    -0.0590 H     1 <1>   0.0800 
 33 H       -4.5110     0.5020    -1.2620 H     1 <1>   0.0800 
 34 H       -3.9800     2.0880    -1.7460 H     1 <1>   0.0800 
 35 H       -0.1330    -2.2120     1.1510 H     1 <1>   0.0800 
 36 H       -0.6550    -3.4680     0.0530 H     1 <1>   0.0800 
 37 H       -4.9900    -1.4810     0.7330 H     1 <1>   0.1500 
 38 H       -0.6620    -3.6720     3.0800 H     1 <1>   0.0800 
 39 H        0.4830    -4.4410     2.0080 H     1 <1>   0.0800 
 40 H       -1.1940    -4.9320     1.9860 H     1 <1>   0.0800 
 41 H       -6.6960    -3.7780    -3.1860 H     1 <1>   0.3700 
 42 H       -7.2540    -1.4460     1.7030 H     1 <1>   0.1500 
 43 H       -8.9810    -3.7760    -2.2650 H     1 <1>   0.1500 
 44 H      -10.5000    -3.1730    -0.4590 H     1 <1>   0.1500 
 45 H      -11.5310    -1.7610     2.7380 H     1 <1>   0.0800 
 46 H      -11.2880    -3.2070     1.7660 H     1 <1>   0.0800 
 47 H      -11.5850    -1.6430     0.9830 H     1 <1>   0.0800 
@<TRIPOS>BOND
  1   1   2  2   
  2   2   3  am  
  3   2   4  1   
  4   3   5  1   
  5   3   6  1   
  6   4   7  1   
  7   4   8  1   
  8   4  24  1   
  9   5   9  1   
 10   5  25  1   
 11   5  26  1   
 12   6  10  1   
 13   6  27  1   
 14   6  28  1   
 15   7  29  1   
 16   7  30  1   
 17   7  31  1   
 18   8  32  1   
 19   8  33  1   
 20   8  34  1   
 21   9  11  1   
 22   9  12  2   
 23  10  13  1   
 24  10  35  1   
 25  10  36  1   
 26  11  14  2   
 27  11  15  am  
 28  12  16  1   
 29  12  37  1   
 30  13  38  1   
 31  13  39  1   
 32  13  40  1   
 33  15  17  1   
 34  15  41  1   
 35  16  17  ar  
 36  16  18  ar  
 37  17  19  ar  
 38  18  20  ar  
 39  18  42  1   
 40  19  21  ar  
 41  19  43  1   
 42  20  21  ar  
 43  20  22  1   
 44  21  44  1   
 45  22  23  1   
 46  23  45  1   
 47  23  46  1   
 48  23  47  1   
@<TRIPOS>SUBSTRUCTURE
  1 ****  12 GROUP 4 **** **** 0

# MOE 2024.06 (io_trps.svl 2023.06)
