@<TRIPOS>MOLECULE
2-Oxo-2H-chromene-3-carboxylic acid (3-dimethylamino-propyl)-amide
39 40 1 0 0 
SMALL
USER_CHARGES


@<TRIPOS>ATOM
  1 O       -0.7460     0.6210    -2.1500 O.2   1 <1>  -0.5700 
  2 C       -1.4930     1.1640    -1.3580 C.2   1 <1>   0.7060 
  3 O       -2.7400     0.6810    -1.2950 O.3   1 <1>  -0.2330 
  4 C       -1.1260     2.2670    -0.5010 C.2   1 <1>   0.0290 
  5 C       -3.6870     1.1630    -0.4660 C.ar  1 <1>   0.0820 
  6 C        0.2150     2.8110    -0.5550 C.2   1 <1>   0.6160 
  7 C       -2.0720     2.7670     0.3450 C.2   1 <1>  -0.1780 
  8 C       -3.3870     2.2270     0.3890 C.ar  1 <1>   0.0280 
  9 C       -4.9500     0.5910    -0.4740 C.ar  1 <1>  -0.1500 
 10 O        0.5500     3.6790     0.2300 O.2   1 <1>  -0.5700 
 11 N        1.1600     2.3990    -1.4530 N.am  1 <1>  -0.7300 
 12 C       -4.3900     2.7010     1.2340 C.ar  1 <1>  -0.1500 
 13 C       -5.9310     1.0740     0.3710 C.ar  1 <1>  -0.1500 
 14 C        2.4870     3.0130    -1.6420 C.3   1 <1>   0.1400 
 15 C       -5.6480     2.1310     1.2250 C.ar  1 <1>  -0.1500 
 16 C        3.4480     2.4360    -0.6020 C.3   1 <1>  -0.1600 
 17 C        4.7500     3.2320    -0.5820 C.3   1 <1>   0.3430 
 18 N        5.5860     2.8260     0.5860 N.4   1 <1>  -0.9590 
 19 C        6.6840     3.8150     0.8140 C.3   1 <1>   0.2630 
 20 C        6.1460     1.4450     0.4390 C.3   1 <1>   0.2630 
 21 H       -1.8540     3.5890     1.0070 H     1 <1>   0.1500 
 22 H       -5.1580    -0.2270    -1.1410 H     1 <1>   0.1500 
 23 H        0.8960     1.6380    -2.0990 H     1 <1>   0.3700 
 24 H       -4.1780     3.5200     1.9000 H     1 <1>   0.1500 
 25 H       -6.9130     0.6340     0.3680 H     1 <1>   0.1500 
 26 H        2.3940     4.0800    -1.5140 H     1 <1>   0.0800 
 27 H        2.8350     2.8170    -2.6430 H     1 <1>   0.0800 
 28 H       -6.4150     2.5040     1.8820 H     1 <1>   0.1500 
 29 H        3.6340     1.4050    -0.8380 H     1 <1>   0.0800 
 30 H        2.9830     2.5060     0.3660 H     1 <1>   0.0800 
 31 H        4.5100     4.2800    -0.4980 H     1 <1>   0.0800 
 32 H        5.2920     3.0830    -1.5020 H     1 <1>   0.0800 
 33 H        4.9710     2.8380     1.4160 H     1 <1>   0.4500 
 34 H        7.3470     3.8430    -0.0360 H     1 <1>   0.0800 
 35 H        7.2560     3.5450     1.6870 H     1 <1>   0.0800 
 36 H        6.2750     4.8010     0.9650 H     1 <1>   0.0800 
 37 H        6.7730     1.3850    -0.4360 H     1 <1>   0.0800 
 38 H        5.3500     0.7240     0.3440 H     1 <1>   0.0800 
 39 H        6.7360     1.1870     1.3030 H     1 <1>   0.0800 
@<TRIPOS>BOND
  1   1   2  2   
  2   2   3  1   
  3   2   4  1   
  4   3   5  1   
  5   4   6  1   
  6   4   7  2   
  7   5   8  ar  
  8   5   9  ar  
  9   6  10  2   
 10   6  11  am  
 11   7   8  1   
 12   7  21  1   
 13   8  12  ar  
 14   9  13  ar  
 15   9  22  1   
 16  11  14  1   
 17  11  23  1   
 18  12  15  ar  
 19  12  24  1   
 20  13  15  ar  
 21  13  25  1   
 22  14  16  1   
 23  14  26  1   
 24  14  27  1   
 25  15  28  1   
 26  16  17  1   
 27  16  29  1   
 28  16  30  1   
 29  17  18  1   
 30  17  31  1   
 31  17  32  1   
 32  18  19  1   
 33  18  20  1   
 34  18  33  1   
 35  19  34  1   
 36  19  35  1   
 37  19  36  1   
 38  20  37  1   
 39  20  38  1   
 40  20  39  1   
@<TRIPOS>SUBSTRUCTURE
  1 ****   6 GROUP 4 **** **** 0

# MOE 2024.06 (io_trps.svl 2023.06)
