@<TRIPOS>MOLECULE
N-[5-Chloro-2-(4-propionyl-piperazin-1-yl)-phenyl]-3,4-dimethoxy-benzamide
56 58 1 0 0 
SMALL
USER_CHARGES


@<TRIPOS>ATOM
  1 CL      -0.5500     0.1720    -0.6330 Cl    1 <1>  -0.1770 
  2 C       -1.4470     1.6610    -0.4580 C.ar  1 <1>   0.1770 
  3 C       -2.8220     1.6140    -0.3270 C.ar  1 <1>  -0.1500 
  4 C       -0.7620     2.8620    -0.4520 C.ar  1 <1>  -0.1500 
  5 C       -3.5350     2.7960    -0.1870 C.ar  1 <1>   0.1170 
  6 C       -1.4710     4.0430    -0.3150 C.ar  1 <1>  -0.1500 
  7 N       -4.9260     2.8720    -0.0360 N.am  1 <1>  -0.5470 
  8 C       -2.8540     4.0250    -0.1860 C.ar  1 <1>   0.1000 
  9 C       -5.9540     1.9670     0.0360 C.2   1 <1>   0.5440 
 10 N       -3.5820     5.2210    -0.0520 N.pl3 1 <1>  -0.8380 
 11 O       -5.7220     0.7780    -0.0620 O.2   1 <1>  -0.5700 
 12 C       -7.3090     2.4490     0.2460 C.ar  1 <1>   0.0860 
 13 C       -3.5390     5.8790     1.2900 C.3   1 <1>   0.2090 
 14 C       -3.6070     6.1500    -1.2310 C.3   1 <1>   0.2090 
 15 C       -8.2960     1.6110     0.7630 C.ar  1 <1>  -0.1500 
 16 C       -7.6880     3.7620    -0.0470 C.ar  1 <1>  -0.1500 
 17 C       -4.5880     7.0010     1.3880 C.3   1 <1>   0.1400 
 18 C       -3.5550     7.6420    -0.8420 C.3   1 <1>   0.1400 
 19 C       -9.5900     2.0420     0.9950 C.ar  1 <1>   0.0830 
 20 C       -8.9710     4.2180     0.1890 C.ar  1 <1>  -0.1500 
 21 N       -4.5370     7.9720     0.2440 N.am  1 <1>  -0.6600 
 22 O      -10.4360     1.1010     1.4970 O.3   1 <1>  -0.3620 
 23 C       -9.9410     3.3740     0.7230 C.ar  1 <1>   0.0830 
 24 C       -5.4040     9.0340     0.2360 C.2   1 <1>   0.5690 
 25 C      -11.7760     1.0400     1.0620 C.3   1 <1>   0.0400 
 26 O      -11.1970     3.8190     0.9990 O.3   1 <1>  -0.3630 
 27 O       -6.2410     9.1560     1.1000 O.2   1 <1>  -0.5700 
 28 C       -5.3320    10.0820    -0.8730 C.3   1 <1>  -0.0990 
 29 C      -11.5470     5.1840     0.9370 C.3   1 <1>   0.0400 
 30 C       -6.1890    11.3380    -0.6320 C.3   1 <1>  -0.2400 
 31 H       -3.3190     0.6630    -0.3340 H     1 <1>   0.1500 
 32 H        0.3090     2.8650    -0.5540 H     1 <1>   0.1500 
 33 H       -0.9510     4.9830    -0.3060 H     1 <1>   0.1500 
 34 H       -5.1850     3.8550     0.0710 H     1 <1>   0.3700 
 35 H       -2.5580     6.2890     1.4600 H     1 <1>   0.0800 
 36 H       -3.7280     5.1450     2.0540 H     1 <1>   0.0800 
 37 H       -4.5150     5.9730    -1.7800 H     1 <1>   0.0800 
 38 H       -2.7850     5.9270    -1.8890 H     1 <1>   0.0800 
 39 H       -8.0470     0.5900     0.9910 H     1 <1>   0.1500 
 40 H       -6.9740     4.4460    -0.4700 H     1 <1>   0.1500 
 41 H       -4.4480     7.5380     2.3100 H     1 <1>   0.0800 
 42 H       -5.5680     6.5570     1.4180 H     1 <1>   0.0800 
 43 H       -3.7440     8.2290    -1.7220 H     1 <1>   0.0800 
 44 H       -2.5640     7.8790    -0.4980 H     1 <1>   0.0800 
 45 H       -9.1960     5.2400    -0.0510 H     1 <1>   0.1500 
 46 H      -12.1390     0.0440     1.2330 H     1 <1>   0.0800 
 47 H      -11.8180     1.2740     0.0130 H     1 <1>   0.0800 
 48 H      -12.3590     1.7410     1.6330 H     1 <1>   0.0800 
 49 H       -5.6480     9.6220    -1.7900 H     1 <1>   0.0800 
 50 H       -4.3090    10.3910    -0.9820 H     1 <1>   0.0800 
 51 H      -12.5600     5.2850     1.2820 H     1 <1>   0.0800 
 52 H      -11.4750     5.5190    -0.0820 H     1 <1>   0.0800 
 53 H      -10.8880     5.7440     1.5770 H     1 <1>   0.0800 
 54 H       -7.2280    11.0690    -0.5500 H     1 <1>   0.0800 
 55 H       -6.0740    12.0330    -1.4450 H     1 <1>   0.0800 
 56 H       -5.8900    11.8210     0.2820 H     1 <1>   0.0800 
@<TRIPOS>BOND
  1   1   2  1   
  2   2   3  ar  
  3   2   4  ar  
  4   3   5  ar  
  5   3  31  1   
  6   4   6  ar  
  7   4  32  1   
  8   5   7  1   
  9   5   8  ar  
 10   6   8  ar  
 11   6  33  1   
 12   7   9  am  
 13   7  34  1   
 14   8  10  1   
 15   9  11  2   
 16   9  12  1   
 17  10  13  1   
 18  10  14  1   
 19  12  15  ar  
 20  12  16  ar  
 21  13  17  1   
 22  13  35  1   
 23  13  36  1   
 24  14  18  1   
 25  14  37  1   
 26  14  38  1   
 27  15  19  ar  
 28  15  39  1   
 29  16  20  ar  
 30  16  40  1   
 31  17  21  1   
 32  17  41  1   
 33  17  42  1   
 34  18  21  1   
 35  18  43  1   
 36  18  44  1   
 37  19  22  1   
 38  19  23  ar  
 39  20  23  ar  
 40  20  45  1   
 41  21  24  am  
 42  22  25  1   
 43  23  26  1   
 44  24  27  2   
 45  24  28  1   
 46  25  46  1   
 47  25  47  1   
 48  25  48  1   
 49  26  29  1   
 50  28  30  1   
 51  28  49  1   
 52  28  50  1   
 53  29  51  1   
 54  29  52  1   
 55  29  53  1   
 56  30  54  1   
 57  30  55  1   
 58  30  56  1   
@<TRIPOS>SUBSTRUCTURE
  1 ****   7 GROUP 4 **** **** 0

# MOE 2024.06 (io_trps.svl 2023.06)
