@<TRIPOS>MOLECULE
4-(4-Chloro-phenyl)-2-oxo-6-pyrrolidin-1-ylmethyl-1,2,3,4-tetrahydro-pyrimidine-
45 47 1 0 0 
SMALL
USER_CHARGES


@<TRIPOS>ATOM
  1 CL      -0.7590    -0.2450    -1.7670 Cl    1 <1>  -0.1770 
  2 C       -2.1450    -0.8670    -0.9100 C.ar  1 <1>   0.1770 
  3 C       -2.7880    -1.9930    -1.3860 C.ar  1 <1>  -0.1500 
  4 C       -2.5820    -0.2240     0.2320 C.ar  1 <1>  -0.1500 
  5 C       -3.8890    -2.4830    -0.7050 C.ar  1 <1>  -0.1500 
  6 C       -3.6830    -0.7200     0.9090 C.ar  1 <1>  -0.1500 
  7 C       -4.3460    -1.8520     0.4490 C.ar  1 <1>  -0.1430 
  8 C       -5.5650    -2.3760     1.2090 C.3   1 <1>   0.5020 
  9 N       -5.3710    -3.8150     1.4660 N.am  1 <1>  -0.7300 
 10 C       -6.8540    -2.1040     0.4200 C.2   1 <1>  -0.1240 
 11 C       -6.0010    -4.7810     0.7850 C.2   1 <1>   0.6900 
 12 C       -7.5040    -3.1440    -0.1820 C.2   1 <1>  -0.0290 
 13 C       -7.2100    -0.7170     0.4370 C.2   1 <1>   0.7060 
 14 O       -5.6620    -5.9350     0.8660 O.2   1 <1>  -0.5700 
 15 N       -7.0340    -4.4410    -0.0230 N.am  1 <1>  -0.5390 
 16 C       -8.7750    -3.0290    -1.0270 C.3   1 <1>   0.4810 
 17 O       -6.7240     0.0860     1.2060 O.2   1 <1>  -0.5700 
 18 O       -8.1610    -0.2890    -0.4010 O.3   1 <1>  -0.4300 
 19 N       -9.9360    -3.4720    -0.2070 N.4   1 <1>  -0.9590 
 20 C       -8.5120     1.0840    -0.4810 C.3   1 <1>   0.0400 
 21 C      -11.1790    -3.6650    -0.9910 C.3   1 <1>   0.3430 
 22 C      -10.2800    -2.5250     0.8820 C.3   1 <1>   0.3430 
 23 C      -12.2880    -3.6330     0.0520 C.3   1 <1>  -0.1600 
 24 C      -11.7100    -2.8860     1.2580 C.3   1 <1>  -0.1600 
 25 H       -2.4260    -2.4760    -2.2760 H     1 <1>   0.1500 
 26 H       -2.0660     0.6520     0.5820 H     1 <1>   0.1500 
 27 H       -4.3810    -3.3630    -1.0820 H     1 <1>   0.1500 
 28 H       -4.0220    -0.2080     1.7960 H     1 <1>   0.1500 
 29 H       -5.6250    -1.8900     2.1690 H     1 <1>   0.0800 
 30 H       -4.4970    -4.0760     1.9230 H     1 <1>   0.3700 
 31 H       -7.3880    -5.2550    -0.5320 H     1 <1>   0.3700 
 32 H       -8.6720    -3.6630    -1.8920 H     1 <1>   0.0800 
 33 H       -8.9330    -2.0260    -1.3790 H     1 <1>   0.0800 
 34 H       -9.6910    -4.3650     0.2400 H     1 <1>   0.4500 
 35 H       -9.2740     1.2050    -1.2290 H     1 <1>   0.0800 
 36 H       -7.6380     1.6530    -0.7530 H     1 <1>   0.0800 
 37 H       -8.8770     1.4120     0.4780 H     1 <1>   0.0800 
 38 H      -11.1720    -4.5950    -1.5370 H     1 <1>   0.0800 
 39 H      -11.3110    -2.8440    -1.6780 H     1 <1>   0.0800 
 40 H      -10.2500    -1.5130     0.5110 H     1 <1>   0.0800 
 41 H       -9.6090    -2.6200     1.7220 H     1 <1>   0.0800 
 42 H      -12.5580    -4.6380     0.3280 H     1 <1>   0.0800 
 43 H      -13.1610    -3.1430    -0.3420 H     1 <1>   0.0800 
 44 H      -12.2730    -1.9960     1.4850 H     1 <1>   0.0800 
 45 H      -11.7100    -3.5190     2.1290 H     1 <1>   0.0800 
@<TRIPOS>BOND
  1   1   2  1   
  2   2   3  ar  
  3   2   4  ar  
  4   3   5  ar  
  5   3  25  1   
  6   4   6  ar  
  7   4  26  1   
  8   5   7  ar  
  9   5  27  1   
 10   6   7  ar  
 11   6  28  1   
 12   7   8  1   
 13   8   9  1   
 14   8  10  1   
 15   8  29  1   
 16   9  11  am  
 17   9  30  1   
 18  10  12  2   
 19  10  13  1   
 20  11  14  2   
 21  11  15  am  
 22  12  15  1   
 23  12  16  1   
 24  13  17  2   
 25  13  18  1   
 26  15  31  1   
 27  16  19  1   
 28  16  32  1   
 29  16  33  1   
 30  18  20  1   
 31  19  21  1   
 32  19  22  1   
 33  19  34  1   
 34  20  35  1   
 35  20  36  1   
 36  20  37  1   
 37  21  23  1   
 38  21  38  1   
 39  21  39  1   
 40  22  24  1   
 41  22  40  1   
 42  22  41  1   
 43  23  24  1   
 44  23  42  1   
 45  23  43  1   
 46  24  44  1   
 47  24  45  1   
@<TRIPOS>SUBSTRUCTURE
  1 ****  10 GROUP 4 **** **** 0

# MOE 2024.06 (io_trps.svl 2023.06)
