@<TRIPOS>MOLECULE
(1-Methanesulfonyl-piperidin-4-yl)-[4-((E)-3-phenyl-allyl)-piperazin-1-yl]-metha
57 59 1 0 0 
SMALL
USER_CHARGES


@<TRIPOS>ATOM
  1 S       -0.0920     0.1330    -0.1190 S.o2  1 <1>   1.3330 
  2 O       -0.9800     0.9460     0.6800 O.2   1 <1>  -0.6500 
  3 O        0.1830    -1.2310     0.2710 O.2   1 <1>  -0.6500 
  4 N        1.3950     0.9350    -0.2680 N.am  1 <1>  -0.8490 
  5 C       -0.7030     0.1500    -1.7900 C.3   1 <1>  -0.1350 
  6 C        2.4770     0.0290    -0.6600 C.3   1 <1>   0.1960 
  7 C        1.7330     1.6870     0.9430 C.3   1 <1>   0.1960 
  8 C        3.7570     0.8170    -0.9480 C.3   1 <1>  -0.1600 
  9 C        2.9980     2.5190     0.7170 C.3   1 <1>  -0.1600 
 10 C        4.1920     1.6490     0.2730 C.3   1 <1>  -0.0190 
 11 C        5.4570     2.4690    -0.0330 C.2   1 <1>   0.5690 
 12 O        5.3630     3.6700    -0.1080 O.2   1 <1>  -0.5700 
 13 N        6.6840     1.8700    -0.2190 N.am  1 <1>  -0.6600 
 14 C        7.8310     2.6630    -0.7680 C.3   1 <1>   0.1400 
 15 C        7.0710     0.4920     0.2130 C.3   1 <1>   0.1400 
 16 C        8.9750     2.7340     0.2550 C.3   1 <1>   0.3430 
 17 C        8.2490     0.5490     1.2140 C.3   1 <1>   0.3430 
 18 N        9.4090     1.3590     0.6990 N.4   1 <1>  -0.9590 
 19 C       10.5130     1.4170     1.6840 C.3   1 <1>   0.4810 
 20 C       11.7500     1.8380     0.9300 C.2   1 <1>  -0.2880 
 21 C       12.7320     1.0060     0.5450 C.2   1 <1>  -0.1780 
 22 C       13.9360     1.3410    -0.1850 C.ar  1 <1>   0.0280 
 23 C       14.6670     0.3370    -0.8160 C.ar  1 <1>  -0.1500 
 24 C       14.4090     2.6480    -0.2890 C.ar  1 <1>  -0.1500 
 25 C       15.8160     0.6250    -1.5300 C.ar  1 <1>  -0.1500 
 26 C       15.5570     2.9410    -1.0020 C.ar  1 <1>  -0.1500 
 27 C       16.2630     1.9290    -1.6260 C.ar  1 <1>  -0.1500 
 28 H       -0.7970     1.1610    -2.1340 H     1 <1>   0.0800 
 29 H       -1.6660    -0.3190    -1.8310 H     1 <1>   0.0800 
 30 H       -0.0340    -0.3780    -2.4390 H     1 <1>   0.0800 
 31 H        2.6550    -0.6890     0.1250 H     1 <1>   0.0800 
 32 H        2.1920    -0.5130    -1.5470 H     1 <1>   0.0800 
 33 H        0.9290     2.3600     1.1920 H     1 <1>   0.0800 
 34 H        1.8690     1.0090     1.7700 H     1 <1>   0.0800 
 35 H        4.5340     0.1310    -1.2280 H     1 <1>   0.0800 
 36 H        3.5800     1.4700    -1.7850 H     1 <1>   0.0800 
 37 H        2.7840     3.2600    -0.0350 H     1 <1>   0.0800 
 38 H        3.2460     3.0410     1.6240 H     1 <1>   0.0800 
 39 H        4.4070     0.9860     1.0890 H     1 <1>   0.0800 
 40 H        8.1800     2.2040    -1.6760 H     1 <1>   0.0800 
 41 H        7.5240     3.6650    -1.0190 H     1 <1>   0.0800 
 42 H        6.2460    -0.0160     0.6770 H     1 <1>   0.0800 
 43 H        7.3590    -0.0810    -0.6520 H     1 <1>   0.0800 
 44 H        8.6360     3.3050     1.1040 H     1 <1>   0.0800 
 45 H        9.8050     3.2580    -0.1890 H     1 <1>   0.0800 
 46 H        8.5720    -0.4560     1.4320 H     1 <1>   0.0800 
 47 H        7.8880     0.9840     2.1320 H     1 <1>   0.0800 
 48 H        9.8000     0.8840    -0.1260 H     1 <1>   0.4500 
 49 H       10.2920     2.1090     2.4820 H     1 <1>   0.0800 
 50 H       10.6770     0.4400     2.1090 H     1 <1>   0.0800 
 51 H       11.7750     2.8930     0.7230 H     1 <1>   0.1500 
 52 H       12.6670    -0.0450     0.7750 H     1 <1>   0.1500 
 53 H       14.3380    -0.6840    -0.7540 H     1 <1>   0.1500 
 54 H       13.8880     3.4510     0.1950 H     1 <1>   0.1500 
 55 H       16.3650    -0.1660    -2.0120 H     1 <1>   0.1500 
 56 H       15.9070     3.9570    -1.0710 H     1 <1>   0.1500 
 57 H       17.1570     2.1560    -2.1820 H     1 <1>   0.1500 
@<TRIPOS>BOND
  1   1   2  2   
  2   1   3  2   
  3   1   4  am  
  4   1   5  1   
  5   4   6  1   
  6   4   7  1   
  7   5  28  1   
  8   5  29  1   
  9   5  30  1   
 10   6   8  1   
 11   6  31  1   
 12   6  32  1   
 13   7   9  1   
 14   7  33  1   
 15   7  34  1   
 16   8  10  1   
 17   8  35  1   
 18   8  36  1   
 19   9  10  1   
 20   9  37  1   
 21   9  38  1   
 22  10  11  1   
 23  10  39  1   
 24  11  12  2   
 25  11  13  am  
 26  13  14  1   
 27  13  15  1   
 28  14  16  1   
 29  14  40  1   
 30  14  41  1   
 31  15  17  1   
 32  15  42  1   
 33  15  43  1   
 34  16  18  1   
 35  16  44  1   
 36  16  45  1   
 37  17  18  1   
 38  17  46  1   
 39  17  47  1   
 40  18  19  1   
 41  18  48  1   
 42  19  20  1   
 43  19  49  1   
 44  19  50  1   
 45  20  21  2   
 46  20  51  1   
 47  21  22  1   
 48  21  52  1   
 49  22  23  ar  
 50  22  24  ar  
 51  23  25  ar  
 52  23  53  1   
 53  24  26  ar  
 54  24  54  1   
 55  25  27  ar  
 56  25  55  1   
 57  26  27  ar  
 58  26  56  1   
 59  27  57  1   
@<TRIPOS>SUBSTRUCTURE
  1 ****  13 GROUP 4 **** **** 0

# MOE 2024.06 (io_trps.svl 2023.06)
