@<TRIPOS>MOLECULE
1-(2,5-Dimethoxy-benzenesulfonyl)-piperidine-4-carboxylic acid (pyridin-4-ylmeth
54 56 1 0 0 
SMALL
USER_CHARGES


@<TRIPOS>ATOM
  1 S        0.0110    -0.3180    -1.3160 S.o2  1 <1>   1.4470 
  2 O        0.3860    -1.5780    -1.9220 O.2   1 <1>  -0.6500 
  3 O       -0.3440     0.7680    -2.2060 O.2   1 <1>  -0.6500 
  4 N        1.3640     0.2000    -0.4320 N.am  1 <1>  -0.8490 
  5 C       -1.2590    -0.6640    -0.0660 C.ar  1 <1>  -0.0090 
  6 C        1.1480     1.5150     0.1850 C.3   1 <1>   0.1960 
  7 C        2.5620     0.1930    -1.2760 C.3   1 <1>   0.1960 
  8 C       -2.1510     0.3060     0.3870 C.ar  1 <1>   0.0820 
  9 C       -1.3520    -1.9360     0.4880 C.ar  1 <1>  -0.1500 
 10 C        2.3460     1.9030     1.0540 C.3   1 <1>  -0.1600 
 11 C        3.8050     0.5410    -0.4530 C.3   1 <1>  -0.1600 
 12 O       -2.0920     1.5700    -0.0800 O.3   1 <1>  -0.3620 
 13 C       -3.1040     0.0130     1.3530 C.ar  1 <1>  -0.1500 
 14 C       -2.3080    -2.2440     1.4520 C.ar  1 <1>   0.0820 
 15 C        3.6530     1.9020     0.2410 C.3   1 <1>  -0.0190 
 16 C       -3.0740     1.9350    -1.0250 C.3   1 <1>   0.0400 
 17 C       -3.1830    -1.2610     1.8800 C.ar  1 <1>  -0.1500 
 18 O       -2.4440    -3.4700     2.0170 O.3   1 <1>  -0.3630 
 19 C        4.8860     2.2270     1.0830 C.2   1 <1>   0.5690 
 20 C       -1.6010    -4.5410     1.6520 C.3   1 <1>   0.0400 
 21 O        4.9220     1.9320     2.2530 O.2   1 <1>  -0.5700 
 22 N        5.9360     2.8280     0.4720 N.am  1 <1>  -0.7300 
 23 C        7.2440     3.0760     1.1060 C.3   1 <1>   0.2840 
 24 C        8.3080     2.4170     0.2480 C.ar  1 <1>  -0.1430 
 25 C        9.1900     3.1430    -0.5280 C.ar  1 <1>  -0.1500 
 26 C        8.4380     1.0440     0.2010 C.ar  1 <1>  -0.1500 
 27 C       10.1330     2.4760    -1.2930 C.ar  1 <1>   0.1600 
 28 C        9.4150     0.4760    -0.5990 C.ar  1 <1>   0.1600 
 29 N       10.2640     1.1600    -1.3490 N.ar  1 <1>  -0.6200 
 30 H        0.2770     1.4830     0.8150 H     1 <1>   0.0800 
 31 H        0.9860     2.2600    -0.5770 H     1 <1>   0.0800 
 32 H        2.4410     0.8960    -2.0850 H     1 <1>   0.0800 
 33 H        2.7000    -0.7870    -1.7030 H     1 <1>   0.0800 
 34 H       -0.6600    -2.6850     0.1490 H     1 <1>   0.1500 
 35 H        2.4200     1.2040     1.8700 H     1 <1>   0.0800 
 36 H        2.1820     2.8790     1.4750 H     1 <1>   0.0800 
 37 H        4.6640     0.5530    -1.0990 H     1 <1>   0.0800 
 38 H        3.9590    -0.2280     0.2840 H     1 <1>   0.0800 
 39 H       -3.7740     0.7820     1.6930 H     1 <1>   0.1500 
 40 H        3.5660     2.6610    -0.5160 H     1 <1>   0.0800 
 41 H       -2.8780     2.9440    -1.3400 H     1 <1>   0.0800 
 42 H       -4.0460     1.8710    -0.5700 H     1 <1>   0.0800 
 43 H       -3.0090     1.2710    -1.8700 H     1 <1>   0.0800 
 44 H       -3.9180    -1.5010     2.6270 H     1 <1>   0.1500 
 45 H       -1.8930    -5.4050     2.2210 H     1 <1>   0.0800 
 46 H       -0.5830    -4.2790     1.8820 H     1 <1>   0.0800 
 47 H       -1.7210    -4.7390     0.6010 H     1 <1>   0.0800 
 48 H        5.9180     2.9950    -0.5340 H     1 <1>   0.3700 
 49 H        7.2670     2.6620     2.1010 H     1 <1>   0.0800 
 50 H        7.4140     4.1360     1.1760 H     1 <1>   0.0800 
 51 H        9.1560     4.2170    -0.5460 H     1 <1>   0.1500 
 52 H        7.7850     0.4150     0.7800 H     1 <1>   0.1500 
 53 H       10.8150     3.0550    -1.8920 H     1 <1>   0.1500 
 54 H        9.5020    -0.5970    -0.6230 H     1 <1>   0.1500 
@<TRIPOS>BOND
  1   1   2  2   
  2   1   3  2   
  3   1   4  am  
  4   1   5  1   
  5   4   6  1   
  6   4   7  1   
  7   5   8  ar  
  8   5   9  ar  
  9   6  10  1   
 10   6  30  1   
 11   6  31  1   
 12   7  11  1   
 13   7  32  1   
 14   7  33  1   
 15   8  12  1   
 16   8  13  ar  
 17   9  14  ar  
 18   9  34  1   
 19  10  15  1   
 20  10  35  1   
 21  10  36  1   
 22  11  15  1   
 23  11  37  1   
 24  11  38  1   
 25  12  16  1   
 26  13  17  ar  
 27  13  39  1   
 28  14  17  ar  
 29  14  18  1   
 30  15  19  1   
 31  15  40  1   
 32  16  41  1   
 33  16  42  1   
 34  16  43  1   
 35  17  44  1   
 36  18  20  1   
 37  19  21  2   
 38  19  22  am  
 39  20  45  1   
 40  20  46  1   
 41  20  47  1   
 42  22  23  1   
 43  22  48  1   
 44  23  24  1   
 45  23  49  1   
 46  23  50  1   
 47  24  25  ar  
 48  24  26  ar  
 49  25  27  ar  
 50  25  51  1   
 51  26  28  ar  
 52  26  52  1   
 53  27  29  ar  
 54  27  53  1   
 55  28  29  ar  
 56  28  54  1   
@<TRIPOS>SUBSTRUCTURE
  1 ****   4 GROUP 4 **** **** 0

# MOE 2024.06 (io_trps.svl 2023.06)
