@<TRIPOS>MOLECULE
8-(3,4-Dihydro-1H-isoquinolin-2-yl)-3-methyl-7-[2-(4-methyl-pyrimidin-2-ylsulfan
56 60 1 0 0 
SMALL
USER_CHARGES


@<TRIPOS>ATOM
  1 S       -2.6440    -0.8250    -1.1520 S.3   1 <1>  -0.3370 
  2 C       -1.1910     0.1970    -0.9770 C.ar  1 <1>   0.7180 
  3 C       -3.4210    -0.8730     0.5350 C.3   1 <1>   0.0630 
  4 N       -0.4070     0.2180    -2.0380 N.ar  1 <1>  -0.6240 
  5 N       -1.0390     0.7890     0.1980 N.ar  1 <1>  -0.6240 
  6 C       -2.5580    -1.7000     1.5050 C.3   1 <1>   0.3490 
  7 C        0.6450     0.9970    -1.9290 C.ar  1 <1>   0.1600 
  8 C        0.0230     1.5640     0.2720 C.ar  1 <1>   0.1530 
  9 N       -2.0940    -2.9790     0.8790 N.pl3 1 <1>  -0.7670 
 10 C        0.9040     1.7020    -0.7760 C.ar  1 <1>  -0.1570 
 11 C        1.5630     1.0900    -3.1300 C.3   1 <1>  -0.1030 
 12 C       -0.9430    -3.2320     0.2350 C.cat 1 <1>   1.0690 
 13 C       -3.0010    -3.9880     0.5030 C.2   1 <1>   0.2710 
 14 N       -1.0870    -4.3210    -0.5220 N.pl3 1 <1>  -0.7030 
 15 N        0.2060    -2.5380     0.2970 N.pl3 1 <1>  -0.5960 
 16 C       -4.3690    -4.2860     0.8090 C.2   1 <1>   0.7000 
 17 C       -2.3480    -4.7970    -0.3610 C.2   1 <1>   0.4210 
 18 C        0.7300    -1.9630     1.5620 C.3   1 <1>   0.3050 
 19 C        1.2010    -2.4830    -0.8070 C.3   1 <1>   0.1610 
 20 O       -5.0530    -3.6120     1.5540 O.2   1 <1>  -0.5740 
 21 N       -4.9160    -5.3880     0.2180 N.am  1 <1>  -0.4950 
 22 N       -2.9200    -5.9110    -0.9580 N.am  1 <1>  -0.4410 
 23 C        2.0860    -2.5640     1.9020 C.ar  1 <1>  -0.1500 
 24 C        2.3860    -3.3960    -0.4840 C.3   1 <1>  -0.0240 
 25 C       -4.2400    -6.2020    -0.6440 C.2   1 <1>   0.6870 
 26 C       -2.1460    -6.7580    -1.9110 C.3   1 <1>   0.0530 
 27 C        2.8620    -3.2240     0.9520 C.ar  1 <1>  -0.1500 
 28 C        2.5590    -2.4400     3.2010 C.ar  1 <1>  -0.1570 
 29 O       -4.8180    -7.1580    -1.1050 O.2   1 <1>  -0.5740 
 30 C        4.0920    -3.7500     1.3140 C.ar  1 <1>  -0.1570 
 31 C        3.7880    -2.9670     3.5550 C.ar  1 <1>  -0.1570 
 32 C        4.5550    -3.6220     2.6100 C.ar  1 <1>  -0.1570 
 33 H       -4.3970    -1.3080     0.4170 H     1 <1>   0.0730 
 34 H       -3.5310     0.1410     0.8750 H     1 <1>   0.0730 
 35 H       -3.1330    -1.9190     2.3890 H     1 <1>   0.0730 
 36 H       -1.7210    -1.1030     1.8110 H     1 <1>   0.0730 
 37 H        0.1970     2.1040     1.1880 H     1 <1>   0.1430 
 38 H        1.7620     2.3430    -0.6920 H     1 <1>   0.1430 
 39 H        1.9540     0.1170    -3.3680 H     1 <1>   0.0730 
 40 H        2.3840     1.7570    -2.9390 H     1 <1>   0.0730 
 41 H        1.0110     1.4560    -3.9770 H     1 <1>   0.0730 
 42 H       -0.3470    -4.7190    -1.0900 H     1 <1>   0.4450 
 43 H        0.0570    -2.1680     2.3750 H     1 <1>   0.0730 
 44 H        0.8310    -0.8970     1.4570 H     1 <1>   0.0730 
 45 H        1.5580    -1.4710    -0.8990 H     1 <1>   0.0730 
 46 H        0.7540    -2.7570    -1.7470 H     1 <1>   0.0730 
 47 H       -5.8860    -5.6220     0.4200 H     1 <1>   0.3650 
 48 H        3.1930    -3.1710    -1.1600 H     1 <1>   0.0730 
 49 H        2.1080    -4.4220    -0.6380 H     1 <1>   0.0730 
 50 H       -1.3190    -7.2200    -1.4000 H     1 <1>   0.0730 
 51 H       -1.7780    -6.1550    -2.7220 H     1 <1>   0.0730 
 52 H       -2.7660    -7.5360    -2.3240 H     1 <1>   0.0730 
 53 H        1.9790    -1.9310     3.9510 H     1 <1>   0.1430 
 54 H        4.7000    -4.2630     0.5890 H     1 <1>   0.1430 
 55 H        4.1490    -2.8680     4.5640 H     1 <1>   0.1430 
 56 H        5.5120    -4.0320     2.8840 H     1 <1>   0.1430 
@<TRIPOS>BOND
  1   1   2  1   
  2   1   3  1   
  3   2   4  ar  
  4   2   5  ar  
  5   3   6  1   
  6   3  33  1   
  7   3  34  1   
  8   4   7  ar  
  9   5   8  ar  
 10   6   9  1   
 11   6  35  1   
 12   6  36  1   
 13   7  10  ar  
 14   7  11  1   
 15   8  10  ar  
 16   8  37  1   
 17   9  12  ar  
 18   9  13  1   
 19  10  38  1   
 20  11  39  1   
 21  11  40  1   
 22  11  41  1   
 23  12  14  ar  
 24  12  15  ar  
 25  13  16  1   
 26  13  17  2   
 27  14  17  1   
 28  14  42  1   
 29  15  18  1   
 30  15  19  1   
 31  16  20  2   
 32  16  21  am  
 33  17  22  1   
 34  18  23  1   
 35  18  43  1   
 36  18  44  1   
 37  19  24  1   
 38  19  45  1   
 39  19  46  1   
 40  21  25  am  
 41  21  47  1   
 42  22  25  am  
 43  22  26  1   
 44  23  27  ar  
 45  23  28  ar  
 46  24  27  1   
 47  24  48  1   
 48  24  49  1   
 49  25  29  2   
 50  26  50  1   
 51  26  51  1   
 52  26  52  1   
 53  27  30  ar  
 54  28  31  ar  
 55  28  53  1   
 56  30  32  ar  
 57  30  54  1   
 58  31  32  ar  
 59  31  55  1   
 60  32  56  1   
@<TRIPOS>SUBSTRUCTURE
  1 ****  12 GROUP 4 **** **** 0

# MOE 2024.06 (io_trps.svl 2023.06)
