@<TRIPOS>MOLECULE
4-tert-Butyl-N-{1-[3-(2-methoxy-phenyl)-[1,2,4]oxadiazol-5-yl]-ethyl}-benzamide
53 55 1 0 0 
SMALL
USER_CHARGES


@<TRIPOS>ATOM
  1 O       -3.8440    -0.1500    -3.4410 O.2   1 <1>  -0.5700 
  2 C       -4.5130     0.2350    -2.5080 C.2   1 <1>   0.5440 
  3 N       -5.6860    -0.4140    -2.3020 N.am  1 <1>  -0.7300 
  4 C       -4.0590     1.3150    -1.6540 C.ar  1 <1>   0.0860 
  5 C       -6.4020    -0.5410    -1.0150 C.3   1 <1>   0.4000 
  6 C       -2.7910     1.2950    -1.0840 C.ar  1 <1>  -0.1500 
  7 C       -4.8700     2.4080    -1.3630 C.ar  1 <1>  -0.1500 
  8 C       -6.1900    -1.9340    -0.4150 C.2   1 <1>   0.2980 
  9 C       -7.8740    -0.2160    -1.2760 C.3   1 <1>  -0.2400 
 10 C       -2.3570     2.3070    -0.2470 C.ar  1 <1>  -0.1500 
 11 C       -4.4400     3.4210    -0.5260 C.ar  1 <1>  -0.1500 
 12 O       -5.0150    -2.2010     0.0930 O.3   1 <1>  -0.0190 
 13 N       -7.0360    -2.8810    -0.3480 N.2   1 <1>  -0.5650 
 14 C       -3.1760     3.3930     0.0540 C.ar  1 <1>  -0.1430 
 15 N       -5.1210    -3.4210     0.5200 N.2   1 <1>  -0.4100 
 16 C       -6.3070    -3.8320     0.2450 C.2   1 <1>   0.4620 
 17 C       -2.7380     4.5480     0.9810 C.3   1 <1>   0.1430 
 18 C       -6.8300    -5.1410     0.5690 C.ar  1 <1>   0.0540 
 19 C       -2.7590     5.8690     0.1980 C.3   1 <1>  -0.2400 
 20 C       -1.3190     4.3660     1.5460 C.3   1 <1>  -0.2400 
 21 C       -3.7010     4.6460     2.1730 C.3   1 <1>  -0.2400 
 22 C       -7.3740    -5.9960    -0.3990 C.ar  1 <1>   0.0820 
 23 C       -6.7940    -5.5850     1.8910 C.ar  1 <1>  -0.1500 
 24 O       -7.3720    -5.5730    -1.6910 O.3   1 <1>  -0.3620 
 25 C       -7.8790    -7.2410    -0.0290 C.ar  1 <1>  -0.1500 
 26 C       -7.2920    -6.8220     2.2530 C.ar  1 <1>  -0.1500 
 27 C       -7.9180    -6.3410    -2.7400 C.3   1 <1>   0.0400 
 28 C       -7.8390    -7.6510     1.2910 C.ar  1 <1>  -0.1500 
 29 H       -5.8670    -1.1790    -2.9560 H     1 <1>   0.3700 
 30 H       -6.0160     0.1750    -0.3100 H     1 <1>   0.0800 
 31 H       -2.1380     0.4680    -1.3070 H     1 <1>   0.1500 
 32 H       -5.8500     2.4650    -1.8040 H     1 <1>   0.1500 
 33 H       -8.2940    -0.9180    -1.9740 H     1 <1>   0.0800 
 34 H       -7.9730     0.7800    -1.6680 H     1 <1>   0.0800 
 35 H       -8.4270    -0.2800    -0.3570 H     1 <1>   0.0800 
 36 H       -1.3660     2.2230     0.1580 H     1 <1>   0.1500 
 37 H       -5.1050     4.2430    -0.3320 H     1 <1>   0.1500 
 38 H       -2.1130     5.7990    -0.6590 H     1 <1>   0.0800 
 39 H       -2.4210     6.6820     0.8160 H     1 <1>   0.0800 
 40 H       -3.7500     6.1020    -0.1450 H     1 <1>   0.0800 
 41 H       -1.0580     5.1900     2.1870 H     1 <1>   0.0800 
 42 H       -1.2550     3.4620     2.1240 H     1 <1>   0.0800 
 43 H       -0.5970     4.3250     0.7490 H     1 <1>   0.0800 
 44 H       -3.3920     5.4250     2.8480 H     1 <1>   0.0800 
 45 H       -4.7010     4.8650     1.8490 H     1 <1>   0.0800 
 46 H       -3.7160     3.7150     2.7110 H     1 <1>   0.0800 
 47 H       -6.3680    -4.9440     2.6430 H     1 <1>   0.1500 
 48 H       -8.3050    -7.9080    -0.7530 H     1 <1>   0.1500 
 49 H       -7.2550    -7.1400     3.2810 H     1 <1>   0.1500 
 50 H       -7.8060    -5.7830    -3.6520 H     1 <1>   0.0800 
 51 H       -8.9610    -6.5110    -2.5420 H     1 <1>   0.0800 
 52 H       -7.3800    -7.2690    -2.8110 H     1 <1>   0.0800 
 53 H       -8.2300    -8.6140     1.5710 H     1 <1>   0.1500 
@<TRIPOS>BOND
  1   1   2  2   
  2   2   3  am  
  3   2   4  1   
  4   3   5  1   
  5   3  29  1   
  6   4   6  ar  
  7   4   7  ar  
  8   5   8  1   
  9   5   9  1   
 10   5  30  1   
 11   6  10  ar  
 12   6  31  1   
 13   7  11  ar  
 14   7  32  1   
 15   8  12  1   
 16   8  13  2   
 17   9  33  1   
 18   9  34  1   
 19   9  35  1   
 20  10  14  ar  
 21  10  36  1   
 22  11  14  ar  
 23  11  37  1   
 24  12  15  1   
 25  13  16  1   
 26  14  17  1   
 27  15  16  2   
 28  16  18  1   
 29  17  19  1   
 30  17  20  1   
 31  17  21  1   
 32  18  22  ar  
 33  18  23  ar  
 34  19  38  1   
 35  19  39  1   
 36  19  40  1   
 37  20  41  1   
 38  20  42  1   
 39  20  43  1   
 40  21  44  1   
 41  21  45  1   
 42  21  46  1   
 43  22  24  1   
 44  22  25  ar  
 45  23  26  ar  
 46  23  47  1   
 47  24  27  1   
 48  25  28  ar  
 49  25  48  1   
 50  26  28  ar  
 51  26  49  1   
 52  27  50  1   
 53  27  51  1   
 54  27  52  1   
 55  28  53  1   
@<TRIPOS>SUBSTRUCTURE
  1 ****   8 GROUP 4 **** **** 0

# MOE 2024.06 (io_trps.svl 2023.06)
