@<TRIPOS>MOLECULE
3-(4-Ethylsulfamoyl-phenyl)-N-pyridin-3-ylmethyl-propionamide
45 46 1 0 0 
SMALL
USER_CHARGES


@<TRIPOS>ATOM
  1 S        0.2570     0.0040     1.2180 S.o2  1 <1>   1.4470 
  2 O        0.3970    -1.3580     1.6790 O.2   1 <1>  -0.6500 
  3 O       -0.3950     0.9960     2.0430 O.2   1 <1>  -0.6500 
  4 N       -0.6230    -0.1340    -0.2070 N.am  1 <1>  -0.9140 
  5 C        1.8580     0.6380     0.6510 C.ar  1 <1>  -0.0090 
  6 C       -2.0620     0.0120    -0.0770 C.3   1 <1>   0.1960 
  7 C        3.0400    -0.0510     0.8990 C.ar  1 <1>  -0.1500 
  8 C        1.9410     1.8370    -0.0460 C.ar  1 <1>  -0.1500 
  9 C       -2.6670    -1.2380     0.5540 C.3   1 <1>  -0.2400 
 10 C        4.2610     0.4390     0.4680 C.ar  1 <1>  -0.1500 
 11 C        3.1580     2.3320    -0.4810 C.ar  1 <1>  -0.1500 
 12 C        4.3260     1.6360    -0.2240 C.ar  1 <1>  -0.1430 
 13 C        5.6600     2.1910    -0.6930 C.3   1 <1>  -0.0170 
 14 C        6.2000     3.2010     0.3250 C.3   1 <1>  -0.0990 
 15 C        7.5020     3.8000    -0.1500 C.2   1 <1>   0.5690 
 16 O        7.4750     4.6510    -1.0030 O.2   1 <1>  -0.5700 
 17 N        8.6640     3.3540     0.3820 N.am  1 <1>  -0.7300 
 18 C       10.0010     3.8000    -0.0490 C.3   1 <1>   0.2840 
 19 C       10.9000     2.5830    -0.1290 C.ar  1 <1>  -0.1430 
 20 C       10.7620     1.6920    -1.1840 C.ar  1 <1>   0.1600 
 21 C       11.8590     2.3350     0.8320 C.ar  1 <1>  -0.1500 
 22 N       11.4880     0.5980    -1.3500 N.ar  1 <1>  -0.6200 
 23 C       12.6260     1.2000     0.6720 C.ar  1 <1>  -0.1500 
 24 C       12.4030     0.3790    -0.4200 C.ar  1 <1>   0.1600 
 25 H       -0.4380    -1.0870    -0.5110 H     1 <1>   0.4200 
 26 H       -2.4820     0.1420    -1.0610 H     1 <1>   0.0800 
 27 H       -2.3060     0.8900     0.5000 H     1 <1>   0.0800 
 28 H        3.0050    -0.9830     1.4380 H     1 <1>   0.1500 
 29 H        1.0390     2.3890    -0.2500 H     1 <1>   0.1500 
 30 H       -2.4110    -2.1150    -0.0110 H     1 <1>   0.0800 
 31 H       -3.7380    -1.1460     0.5680 H     1 <1>   0.0800 
 32 H       -2.3350    -1.3540     1.5710 H     1 <1>   0.0800 
 33 H        5.1580    -0.1180     0.6760 H     1 <1>   0.1500 
 34 H        3.1900     3.2650    -1.0180 H     1 <1>   0.1500 
 35 H        5.5330     2.6740    -1.6470 H     1 <1>   0.0800 
 36 H        6.3670     1.3900    -0.8250 H     1 <1>   0.0800 
 37 H        6.3400     2.7220     1.2770 H     1 <1>   0.0800 
 38 H        5.4890     3.9960     0.4550 H     1 <1>   0.0800 
 39 H        8.6680     2.6110     1.0820 H     1 <1>   0.3700 
 40 H       10.3870     4.5090     0.6630 H     1 <1>   0.0800 
 41 H        9.9420     4.2820    -1.0110 H     1 <1>   0.0800 
 42 H       10.0110     1.8900    -1.9300 H     1 <1>   0.1500 
 43 H       12.0090     2.9920     1.6720 H     1 <1>   0.1500 
 44 H       13.3910     0.9510     1.3840 H     1 <1>   0.1500 
 45 H       13.0080    -0.5040    -0.5350 H     1 <1>   0.1500 
@<TRIPOS>BOND
  1   1   2  2   
  2   1   3  2   
  3   1   4  am  
  4   1   5  1   
  5   4   6  1   
  6   4  25  1   
  7   5   7  ar  
  8   5   8  ar  
  9   6   9  1   
 10   6  26  1   
 11   6  27  1   
 12   7  10  ar  
 13   7  28  1   
 14   8  11  ar  
 15   8  29  1   
 16   9  30  1   
 17   9  31  1   
 18   9  32  1   
 19  10  12  ar  
 20  10  33  1   
 21  11  12  ar  
 22  11  34  1   
 23  12  13  1   
 24  13  14  1   
 25  13  35  1   
 26  13  36  1   
 27  14  15  1   
 28  14  37  1   
 29  14  38  1   
 30  15  16  2   
 31  15  17  am  
 32  17  18  1   
 33  17  39  1   
 34  18  19  1   
 35  18  40  1   
 36  18  41  1   
 37  19  20  ar  
 38  19  21  ar  
 39  20  22  ar  
 40  20  42  1   
 41  21  23  ar  
 42  21  43  1   
 43  22  24  ar  
 44  23  24  ar  
 45  23  44  1   
 46  24  45  1   
@<TRIPOS>SUBSTRUCTURE
  1 ****  12 GROUP 4 **** **** 0

# MOE 2024.06 (io_trps.svl 2023.06)
