@<TRIPOS>MOLECULE
8-(4-Benzyl-piperazin-1-yl)-3-methyl-7-propyl-3,7-dihydro-purine-2,6-dione
56 59 1 0 0 
SMALL
USER_CHARGES


@<TRIPOS>ATOM
  1 O        1.0730     0.1140    -0.4320 O.2   1 <1>  -0.5740 
  2 C        2.0740     0.7910    -0.4270 C.2   1 <1>   0.6870 
  3 N        3.3440     0.2330    -0.4210 N.am  1 <1>  -0.4410 
  4 N        1.9430     2.1480    -0.4220 N.am  1 <1>  -0.4950 
  5 C        4.4260     1.1000    -0.3880 C.2   1 <1>   0.4210 
  6 C        3.5220    -1.2500    -0.4270 C.3   1 <1>   0.0530 
  7 C        2.9970     3.0140    -0.3990 C.2   1 <1>   0.7000 
  8 N        5.7440     0.7710    -0.3460 N.pl3 1 <1>  -0.7030 
  9 C        4.3190     2.4480    -0.3860 C.2   1 <1>   0.2710 
 10 O        2.7690     4.2060    -0.3860 O.2   1 <1>  -0.5740 
 11 C        6.4670     1.8940    -0.3290 C.cat 1 <1>   1.0690 
 12 N        5.6400     2.9530    -0.3500 N.pl3 1 <1>  -0.7670 
 13 N        7.8290     1.8860    -0.2850 N.pl3 1 <1>  -0.5960 
 14 C        5.8910     4.4000    -0.0890 C.3   1 <1>   0.3490 
 15 C        8.6000     0.8100     0.4390 C.3   1 <1>   0.1610 
 16 C        8.6860     3.0010    -0.8230 C.3   1 <1>   0.1610 
 17 C        6.1530     4.6080     1.4040 C.3   1 <1>  -0.1670 
 18 C        9.8620     0.3460    -0.3200 C.3   1 <1>   0.3370 
 19 C        9.9680     2.5080    -1.5390 C.3   1 <1>   0.3370 
 20 C        6.4780     6.0730     1.7160 C.3   1 <1>  -0.2460 
 21 N       10.7240     1.5020    -0.7320 N.4   1 <1>  -0.9610 
 22 C       11.9490     1.0320    -1.4460 C.3   1 <1>   0.4820 
 23 C       12.7380     0.1630    -0.4910 C.ar  1 <1>  -0.1500 
 24 C       12.7630    -1.2140    -0.6620 C.ar  1 <1>  -0.1570 
 25 C       13.4280     0.7340     0.5690 C.ar  1 <1>  -0.1570 
 26 C       13.4550    -2.0130     0.2300 C.ar  1 <1>  -0.1570 
 27 C       14.1200    -0.0680     1.4600 C.ar  1 <1>  -0.1570 
 28 C       14.1300    -1.4400     1.2930 C.ar  1 <1>  -0.1570 
 29 H        0.9980     2.5270    -0.4270 H     1 <1>   0.3650 
 30 H        2.6060    -1.7410    -0.7120 H     1 <1>   0.0730 
 31 H        3.7960    -1.5890     0.5560 H     1 <1>   0.0730 
 32 H        4.2820    -1.5310    -1.1340 H     1 <1>   0.0730 
 33 H        6.0980    -0.1790    -0.3580 H     1 <1>   0.4450 
 34 H        5.0420     4.9910    -0.3880 H     1 <1>   0.0730 
 35 H        6.7240     4.7600    -0.6620 H     1 <1>   0.0730 
 36 H        7.9800    -0.0480     0.6290 H     1 <1>   0.0730 
 37 H        8.9050     1.1930     1.3990 H     1 <1>   0.0730 
 38 H        8.9640     3.6580    -0.0150 H     1 <1>   0.0730 
 39 H        8.1300     3.5720    -1.5440 H     1 <1>   0.0730 
 40 H        6.9770     3.9990     1.7280 H     1 <1>   0.0730 
 41 H        5.2760     4.3270     1.9620 H     1 <1>   0.0730 
 42 H        9.5660    -0.2130    -1.1920 H     1 <1>   0.0730 
 43 H       10.4260    -0.3190     0.3160 H     1 <1>   0.0730 
 44 H       10.6010     3.3550    -1.7500 H     1 <1>   0.0730 
 45 H        9.6880     2.0700    -2.4830 H     1 <1>   0.0730 
 46 H        7.3630     6.3950     1.1960 H     1 <1>   0.0730 
 47 H        6.6440     6.1960     2.7730 H     1 <1>   0.0730 
 48 H        5.6590     6.7120     1.4320 H     1 <1>   0.0730 
 49 H       11.0840     1.9410     0.1280 H     1 <1>   0.4450 
 50 H       12.5550     1.8720    -1.7450 H     1 <1>   0.0730 
 51 H       11.6820     0.4690    -2.3250 H     1 <1>   0.0730 
 52 H       12.2540    -1.6850    -1.4860 H     1 <1>   0.1430 
 53 H       13.4470     1.8000     0.7170 H     1 <1>   0.1430 
 54 H       13.4770    -3.0820     0.1000 H     1 <1>   0.1430 
 55 H       14.6580     0.3720     2.2830 H     1 <1>   0.1430 
 56 H       14.6700    -2.0630     1.9860 H     1 <1>   0.1430 
@<TRIPOS>BOND
  1   1   2  2   
  2   2   3  am  
  3   2   4  am  
  4   3   5  1   
  5   3   6  1   
  6   4   7  am  
  7   4  29  1   
  8   5   8  1   
  9   5   9  2   
 10   6  30  1   
 11   6  31  1   
 12   6  32  1   
 13   7   9  1   
 14   7  10  2   
 15   8  11  ar  
 16   8  33  1   
 17   9  12  1   
 18  11  12  ar  
 19  11  13  ar  
 20  12  14  1   
 21  13  15  1   
 22  13  16  1   
 23  14  17  1   
 24  14  34  1   
 25  14  35  1   
 26  15  18  1   
 27  15  36  1   
 28  15  37  1   
 29  16  19  1   
 30  16  38  1   
 31  16  39  1   
 32  17  20  1   
 33  17  40  1   
 34  17  41  1   
 35  18  21  1   
 36  18  42  1   
 37  18  43  1   
 38  19  21  1   
 39  19  44  1   
 40  19  45  1   
 41  20  46  1   
 42  20  47  1   
 43  20  48  1   
 44  21  22  1   
 45  21  49  1   
 46  22  23  1   
 47  22  50  1   
 48  22  51  1   
 49  23  24  ar  
 50  23  25  ar  
 51  24  26  ar  
 52  24  52  1   
 53  25  27  ar  
 54  25  53  1   
 55  26  28  ar  
 56  26  54  1   
 57  27  28  ar  
 58  27  55  1   
 59  28  56  1   
@<TRIPOS>SUBSTRUCTURE
  1 ****  13 GROUP 4 **** **** 0

# MOE 2024.06 (io_trps.svl 2023.06)
