@<TRIPOS>MOLECULE
5-(Pyrrolidine-1-carbonyl)-1-(toluene-4-sulfonyl)-pyrrolidin-2-one
43 45 1 0 0 
SMALL
USER_CHARGES


@<TRIPOS>ATOM
  1 S        0.8330    -0.8370     0.4140 S.o2  1 <1>   1.4470 
  2 O        1.9460    -1.2200    -0.4260 O.2   1 <1>  -0.6500 
  3 O        1.0830    -0.4280     1.7750 O.2   1 <1>  -0.6500 
  4 N        0.1730     0.5260    -0.3960 N.am  1 <1>  -0.7300 
  5 C       -0.4340    -2.1330     0.3260 C.ar  1 <1>  -0.0090 
  6 C       -1.0550     1.0020    -0.1810 C.2   1 <1>   0.7450 
  7 C        1.0820     1.5680    -0.9110 C.3   1 <1>   0.3370 
  8 C       -1.2700    -2.4040     1.4020 C.ar  1 <1>  -0.1500 
  9 C       -0.6060    -2.8850    -0.8310 C.ar  1 <1>  -0.1500 
 10 O       -1.9440     0.4420     0.4040 O.2   1 <1>  -0.5700 
 11 C       -1.2200     2.3610    -0.8060 C.3   1 <1>  -0.0990 
 12 C        1.9080     2.2640     0.2020 C.2   1 <1>   0.5690 
 13 C        0.0960     2.5450    -1.5810 C.3   1 <1>  -0.1600 
 14 C       -2.2390    -3.3900     1.3310 C.ar  1 <1>  -0.1500 
 15 C       -1.5720    -3.8730    -0.9100 C.ar  1 <1>  -0.1500 
 16 O        1.3310     3.0360     0.9370 O.2   1 <1>  -0.5700 
 17 N        3.2560     2.0490     0.3430 N.am  1 <1>  -0.6600 
 18 C       -2.3960    -4.1310     0.1720 C.ar  1 <1>  -0.1430 
 19 C        4.1230     1.1530    -0.4560 C.3   1 <1>   0.1400 
 20 C        4.0240     2.6690     1.4460 C.3   1 <1>   0.1400 
 21 C       -3.4570    -5.2130     0.0930 C.3   1 <1>  -0.0970 
 22 C        5.5400     1.5430    -0.0590 C.3   1 <1>  -0.1600 
 23 C        5.4060     2.0280     1.3810 C.3   1 <1>  -0.1600 
 24 H        1.7380     1.1480    -1.6500 H     1 <1>   0.0800 
 25 H       -1.1670    -1.8280     2.3070 H     1 <1>   0.1500 
 26 H        0.0270    -2.6990    -1.6810 H     1 <1>   0.1500 
 27 H       -1.3150     3.0910    -0.0230 H     1 <1>   0.0800 
 28 H       -2.0800     2.3890    -1.4490 H     1 <1>   0.0800 
 29 H       -0.0410     2.2510    -2.6070 H     1 <1>   0.0800 
 30 H        0.4470     3.5630    -1.5550 H     1 <1>   0.0800 
 31 H       -2.8710    -3.5730     2.1820 H     1 <1>   0.1500 
 32 H       -1.6790    -4.4410    -1.8170 H     1 <1>   0.1500 
 33 H        3.9630     1.2760    -1.5130 H     1 <1>   0.0800 
 34 H        3.9420     0.1330    -0.1680 H     1 <1>   0.0800 
 35 H        3.5450     2.4850     2.3940 H     1 <1>   0.0800 
 36 H        4.0870     3.7310     1.2760 H     1 <1>   0.0800 
 37 H       -4.3080    -4.9480     0.6940 H     1 <1>   0.0800 
 38 H       -3.0550    -6.1440     0.4500 H     1 <1>   0.0800 
 39 H       -3.7880    -5.3430    -0.9220 H     1 <1>   0.0800 
 40 H        5.8740     2.3490    -0.6890 H     1 <1>   0.0800 
 41 H        6.2230     0.7170    -0.1510 H     1 <1>   0.0800 
 42 H        5.4300     1.1880     2.0540 H     1 <1>   0.0800 
 43 H        6.1810     2.7210     1.6580 H     1 <1>   0.0800 
@<TRIPOS>BOND
  1   1   2  2   
  2   1   3  2   
  3   1   4  am  
  4   1   5  1   
  5   4   6  am  
  6   4   7  1   
  7   5   8  ar  
  8   5   9  ar  
  9   6  10  2   
 10   6  11  1   
 11   7  12  1   
 12   7  13  1   
 13   7  24  1   
 14   8  14  ar  
 15   8  25  1   
 16   9  15  ar  
 17   9  26  1   
 18  11  13  1   
 19  11  27  1   
 20  11  28  1   
 21  12  16  2   
 22  12  17  am  
 23  13  29  1   
 24  13  30  1   
 25  14  18  ar  
 26  14  31  1   
 27  15  18  ar  
 28  15  32  1   
 29  17  19  1   
 30  17  20  1   
 31  18  21  1   
 32  19  22  1   
 33  19  33  1   
 34  19  34  1   
 35  20  23  1   
 36  20  35  1   
 37  20  36  1   
 38  21  37  1   
 39  21  38  1   
 40  21  39  1   
 41  22  23  1   
 42  22  40  1   
 43  22  41  1   
 44  23  42  1   
 45  23  43  1   
@<TRIPOS>SUBSTRUCTURE
  1 ****   1 GROUP 4 **** **** 0

# MOE 2024.06 (io_trps.svl 2023.06)
