@<TRIPOS>MOLECULE
3-(2,2-Dimethyl-5-pyrrolidin-1-yl-1,4-dihydro-2H-3-oxa-7-thia-6,9,11-triaza-benz
57 61 1 0 0 
SMALL
USER_CHARGES


@<TRIPOS>ATOM
  1 S       -0.2450    -0.7680     0.8180 S.3   1 <1>  -0.0800 
  2 C       -1.5840     0.3040     0.3860 C.ar  1 <1>   0.2970 
  3 C        0.8990     0.5820     0.8460 C.ar  1 <1>   0.0400 
  4 N       -2.7830    -0.1860     0.1930 N.ar  1 <1>  -0.5670 
  5 C       -1.1570     1.6280     0.3010 C.ar  1 <1>   0.0000 
  6 C        2.2660     0.5310     1.1110 C.ar  1 <1>   0.4100 
  7 C        0.2550     1.7480     0.5400 C.ar  1 <1>   0.3070 
  8 C       -3.6930     0.7240    -0.1280 C.ar  1 <1>   0.4100 
  9 C       -2.1390     2.5780     0.0020 C.ar  1 <1>  -0.1430 
 10 N        2.9810     1.6670     1.0570 N.ar  1 <1>  -0.6200 
 11 N        2.9020    -0.6150     1.4090 N.pl3 1 <1>  -0.8690 
 12 N        1.0360     2.8570     0.4830 N.ar  1 <1>  -0.1250 
 13 N       -4.9650     0.2600    -0.3550 N.pl3 1 <1>  -0.8380 
 14 C       -3.4100     2.0950    -0.2360 C.ar  1 <1>  -0.1430 
 15 C       -1.8920     4.0820    -0.0790 C.3   1 <1>  -0.0170 
 16 C        2.3630     2.7710     0.7460 C.ar  1 <1>   0.5210 
 17 C        4.3480    -0.7920     1.6880 C.3   1 <1>   0.2090 
 18 C       -5.2130    -0.4440    -1.6390 C.3   1 <1>   0.2090 
 19 C       -5.6550    -0.4610     0.7460 C.3   1 <1>   0.2090 
 20 C       -4.5580     3.0310    -0.6090 C.3   1 <1>   0.2630 
 21 C       -3.1960     4.9000    -0.0090 C.3   1 <1>   0.2800 
 22 C        5.0160    -1.3910     0.4540 C.3   1 <1>  -0.1600 
 23 C       -6.2600    -1.5060    -1.3290 C.3   1 <1>  -0.1600 
 24 C       -6.0720    -1.7990     0.1520 C.3   1 <1>  -0.1600 
 25 O       -4.1100     4.3310    -0.8850 O.3   1 <1>  -0.5600 
 26 C       -3.7880     4.9660     1.4090 C.3   1 <1>  -0.2400 
 27 C       -2.9680     6.3230    -0.5210 C.3   1 <1>  -0.2400 
 28 C        6.5150    -1.5700     0.6840 C.3   1 <1>   0.1200 
 29 O        7.0810    -2.0340    -0.4860 O.3   1 <1>  -0.6800 
 30 H        2.3720    -1.4950     1.4300 H     1 <1>   0.4000 
 31 H        0.6210     3.7520     0.2260 H     1 <1>   0.4570 
 32 H       -1.4030     4.2990    -1.0130 H     1 <1>   0.0800 
 33 H       -1.2630     4.4060     0.7270 H     1 <1>   0.0800 
 34 H        2.9480     3.6770     0.6930 H     1 <1>   0.1500 
 35 H        4.4700    -1.4470     2.5350 H     1 <1>   0.0800 
 36 H        4.8040     0.1540     1.9290 H     1 <1>   0.0800 
 37 H       -4.3030    -0.9110    -1.9780 H     1 <1>   0.0800 
 38 H       -5.5650     0.2440    -2.3880 H     1 <1>   0.0800 
 39 H       -6.5230     0.1020     1.0400 H     1 <1>   0.0800 
 40 H       -5.0110    -0.5970     1.6000 H     1 <1>   0.0800 
 41 H       -5.2830     3.0750     0.1840 H     1 <1>   0.0800 
 42 H       -5.0540     2.6730    -1.4950 H     1 <1>   0.0800 
 43 H        4.8680    -0.7240    -0.3770 H     1 <1>   0.0800 
 44 H        4.5700    -2.3440     0.2350 H     1 <1>   0.0800 
 45 H       -6.1330    -2.3810    -1.9410 H     1 <1>   0.0800 
 46 H       -7.2390    -1.0930    -1.5020 H     1 <1>   0.0800 
 47 H       -6.9630    -2.1840     0.6160 H     1 <1>   0.0800 
 48 H       -5.2690    -2.5020     0.2880 H     1 <1>   0.0800 
 49 H       -3.8860     3.9890     1.8460 H     1 <1>   0.0800 
 50 H       -4.7540     5.4390     1.3840 H     1 <1>   0.0800 
 51 H       -3.1500     5.5460     2.0500 H     1 <1>   0.0800 
 52 H       -2.6140     6.3070    -1.5360 H     1 <1>   0.0800 
 53 H       -2.2480     6.8380     0.0890 H     1 <1>   0.0800 
 54 H       -3.8900     6.8760    -0.4910 H     1 <1>   0.0800 
 55 H        6.7170    -2.2830     1.4660 H     1 <1>   0.0800 
 56 H        6.9850    -0.6310     0.9240 H     1 <1>   0.0800 
 57 H        6.7100    -2.9020    -0.7350 H     1 <1>   0.4000 
@<TRIPOS>BOND
  1   1   2  1   
  2   1   3  1   
  3   2   4  ar  
  4   2   5  ar  
  5   3   6  ar  
  6   3   7  ar  
  7   4   8  ar  
  8   5   7  1   
  9   5   9  ar  
 10   6  10  ar  
 11   6  11  1   
 12   7  12  ar  
 13   8  13  1   
 14   8  14  ar  
 15   9  14  ar  
 16   9  15  1   
 17  10  16  ar  
 18  11  17  1   
 19  11  30  1   
 20  12  16  ar  
 21  12  31  1   
 22  13  18  1   
 23  13  19  1   
 24  14  20  1   
 25  15  21  1   
 26  15  32  1   
 27  15  33  1   
 28  16  34  1   
 29  17  22  1   
 30  17  35  1   
 31  17  36  1   
 32  18  23  1   
 33  18  37  1   
 34  18  38  1   
 35  19  24  1   
 36  19  39  1   
 37  19  40  1   
 38  20  25  1   
 39  20  41  1   
 40  20  42  1   
 41  21  25  1   
 42  21  26  1   
 43  21  27  1   
 44  22  28  1   
 45  22  43  1   
 46  22  44  1   
 47  23  24  1   
 48  23  45  1   
 49  23  46  1   
 50  24  47  1   
 51  24  48  1   
 52  26  49  1   
 53  26  50  1   
 54  26  51  1   
 55  27  52  1   
 56  27  53  1   
 57  27  54  1   
 58  28  29  1   
 59  28  55  1   
 60  28  56  1   
 61  29  57  1   
@<TRIPOS>SUBSTRUCTURE
  1 ****   5 GROUP 4 **** **** 0

# MOE 2024.06 (io_trps.svl 2023.06)
