@<TRIPOS>MOLECULE
3-tert-Butyl-6-[(E)-2-(4-methoxy-phenyl)-vinyl]-[1,2,4]triazolo[3,4-b][1,3,4]thi
40 42 1 0 0 
SMALL
USER_CHARGES


@<TRIPOS>ATOM
  1 S       -0.3670    -0.1690    -0.5610 S.3   1 <1>  -0.1970 
  2 C        0.5310     1.3140    -0.3630 C.2   1 <1>   0.2420 
  3 C       -1.8700     0.7470    -0.2890 C.2   1 <1>   0.5770 
  4 N        1.7690     1.6500    -0.3930 N.2   1 <1>  -0.3380 
  5 N       -0.3180     2.2980    -0.1270 N.pl3 1 <1>   0.5050 
  6 N       -1.6810     2.0000    -0.0810 N.2   1 <1>  -0.6520 
  7 C       -3.0950     0.0100    -0.3310 C.2   1 <1>  -0.1360 
  8 N        1.7580     2.9750    -0.1570 N.2   1 <1>  -0.3380 
  9 C        0.5180     3.3490    -0.0010 C.2   1 <1>   0.0060 
 10 C       -4.3430     0.5050    -0.1530 C.2   1 <1>  -0.1780 
 11 C        0.0360     4.7780     0.2870 C.3   1 <1>   0.1800 
 12 C       -5.6050    -0.1900    -0.1850 C.ar  1 <1>   0.0280 
 13 C       -0.8940     5.2580    -0.8370 C.3   1 <1>  -0.2400 
 14 C        1.2250     5.7490     0.3730 C.3   1 <1>  -0.2400 
 15 C       -0.7140     4.8210     1.6270 C.3   1 <1>  -0.2400 
 16 C       -5.7120    -1.5630    -0.4160 C.ar  1 <1>  -0.1500 
 17 C       -6.7910     0.5160     0.0220 C.ar  1 <1>  -0.1500 
 18 C       -6.9410    -2.1940    -0.4390 C.ar  1 <1>  -0.1500 
 19 C       -8.0240    -0.1090     0.0000 C.ar  1 <1>  -0.1500 
 20 C       -8.1080    -1.4780    -0.2320 C.ar  1 <1>   0.0820 
 21 O       -9.2700    -2.1700    -0.2710 O.3   1 <1>  -0.3630 
 22 C      -10.5140    -1.5360    -0.0730 C.3   1 <1>   0.0400 
 23 H       -2.9530    -1.0350    -0.5270 H     1 <1>   0.1500 
 24 H       -4.4390     1.5610     0.0410 H     1 <1>   0.1500 
 25 H       -0.3850     5.2090    -1.7840 H     1 <1>   0.0800 
 26 H       -1.2000     6.2740    -0.6660 H     1 <1>   0.0800 
 27 H       -1.7770     4.6470    -0.8940 H     1 <1>   0.0800 
 28 H        0.8910     6.7510     0.5750 H     1 <1>   0.0800 
 29 H        1.7720     5.7520    -0.5540 H     1 <1>   0.0800 
 30 H        1.8970     5.4490     1.1580 H     1 <1>   0.0800 
 31 H       -1.0160     5.8270     1.8590 H     1 <1>   0.0800 
 32 H       -0.0790     4.4640     2.4180 H     1 <1>   0.0800 
 33 H       -1.5950     4.2060     1.5950 H     1 <1>   0.0800 
 34 H       -4.8330    -2.1550    -0.5810 H     1 <1>   0.1500 
 35 H       -6.7470     1.5750     0.2030 H     1 <1>   0.1500 
 36 H       -7.0090    -3.2520    -0.6180 H     1 <1>   0.1500 
 37 H       -8.9060     0.4810     0.1650 H     1 <1>   0.1500 
 38 H      -11.2840    -2.2820    -0.1480 H     1 <1>   0.0800 
 39 H      -10.6510    -0.7910    -0.8360 H     1 <1>   0.0800 
 40 H      -10.5290    -1.0940     0.9080 H     1 <1>   0.0800 
@<TRIPOS>BOND
  1   1   2  1   
  2   1   3  1   
  3   2   4  2   
  4   2   5  1   
  5   3   6  2   
  6   3   7  1   
  7   4   8  1   
  8   5   6  1   
  9   5   9  1   
 10   7  10  2   
 11   7  23  1   
 12   8   9  2   
 13   9  11  1   
 14  10  12  1   
 15  10  24  1   
 16  11  13  1   
 17  11  14  1   
 18  11  15  1   
 19  12  16  ar  
 20  12  17  ar  
 21  13  25  1   
 22  13  26  1   
 23  13  27  1   
 24  14  28  1   
 25  14  29  1   
 26  14  30  1   
 27  15  31  1   
 28  15  32  1   
 29  15  33  1   
 30  16  18  ar  
 31  16  34  1   
 32  17  19  ar  
 33  17  35  1   
 34  18  20  ar  
 35  18  36  1   
 36  19  20  ar  
 37  19  37  1   
 38  20  21  1   
 39  21  22  1   
 40  22  38  1   
 41  22  39  1   
 42  22  40  1   
@<TRIPOS>SUBSTRUCTURE
  1 ****   7 GROUP 4 **** **** 0

# MOE 2024.06 (io_trps.svl 2023.06)
