@<TRIPOS>MOLECULE
(1-Methyl-1H-imidazol-2-yl)-oxo-acetic acid ethyl ester
23 23 1 0 0 
SMALL
USER_CHARGES


@<TRIPOS>ATOM
  1 O       -0.1910    -1.3060     2.4710 O.2   1 <1>  -0.5700 
  2 C       -0.0980    -2.0340     1.5020 C.2   1 <1>   0.7200 
  3 O        1.1050    -2.0870     0.9130 O.3   1 <1>  -0.4300 
  4 C       -1.2080    -2.8370     1.0050 C.2   1 <1>   0.6550 
  5 C        1.3490    -2.7920    -0.2830 C.3   1 <1>   0.1200 
  6 O       -1.3640    -3.9950     1.3680 O.2   1 <1>  -0.5700 
  7 C       -2.0990    -2.2460     0.0380 C.2   1 <1>   0.1010 
  8 C        2.8250    -2.6290    -0.6280 C.3   1 <1>  -0.2400 
  9 N       -1.7910    -1.2170    -0.7230 N.2   1 <1>  -0.5650 
 10 N       -3.3690    -2.6930    -0.2140 N.pl3 1 <1>   0.0480 
 11 C       -2.8800    -1.0040    -1.4660 C.2   1 <1>   0.0770 
 12 C       -3.8520    -1.8930    -1.1720 C.2   1 <1>  -0.3020 
 13 C       -4.1160    -3.8000     0.4200 C.3   1 <1>   0.0160 
 14 H        0.7310    -2.3770    -1.0630 H     1 <1>   0.0800 
 15 H        1.1090    -3.8320    -0.1320 H     1 <1>   0.0800 
 16 H        3.0590    -1.5880    -0.7670 H     1 <1>   0.0800 
 17 H        3.0470    -3.1540    -1.5390 H     1 <1>   0.0800 
 18 H        3.4370    -3.0320     0.1590 H     1 <1>   0.0800 
 19 H       -2.9210    -0.2080    -2.1930 H     1 <1>   0.1500 
 20 H       -4.8370    -1.9850    -1.5920 H     1 <1>   0.1500 
 21 H       -4.1000    -3.6780     1.4880 H     1 <1>   0.0800 
 22 H       -3.6550    -4.7360     0.1610 H     1 <1>   0.0800 
 23 H       -5.1340    -3.7960     0.0770 H     1 <1>   0.0800 
@<TRIPOS>BOND
  1   1   2  2   
  2   2   3  1   
  3   2   4  1   
  4   3   5  1   
  5   4   6  2   
  6   4   7  1   
  7   5   8  1   
  8   5  14  1   
  9   5  15  1   
 10   7   9  2   
 11   7  10  1   
 12   8  16  1   
 13   8  17  1   
 14   8  18  1   
 15   9  11  1   
 16  10  12  1   
 17  10  13  1   
 18  11  12  2   
 19  11  19  1   
 20  12  20  1   
 21  13  21  1   
 22  13  22  1   
 23  13  23  1   
@<TRIPOS>SUBSTRUCTURE
  1 ****   4 GROUP 4 **** **** 0

# MOE 2024.06 (io_trps.svl 2023.06)
