@<TRIPOS>MOLECULE
4-[2-(5-Ethyl-4H-[1,2,4]triazol-3-ylsulfanyl)-acetylamino]-benzoic acid ethyl es
41 42 1 0 0 
SMALL
USER_CHARGES


@<TRIPOS>ATOM
  1 S       -1.6200     2.0840     0.6710 S.3   1 <1>  -0.2860 
  2 C        0.0110     2.7960     0.9420 C.2   1 <1>   0.2420 
  3 C       -1.3900     0.7780    -0.6310 C.3   1 <1>   0.1310 
  4 N        0.2370     3.7230     1.8000 N.2   1 <1>  -0.3380 
  5 N        1.1020     2.4220     0.2820 N.pl3 1 <1>   0.0330 
  6 C       -2.6990     0.0860    -0.9800 C.2   1 <1>   0.5690 
  7 N        1.5470     3.9890     1.7160 N.2   1 <1>  -0.3380 
  8 C        2.0410     3.2090     0.8130 C.2   1 <1>   0.0060 
  9 O       -2.6630    -0.7310    -1.8640 O.2   1 <1>  -0.5700 
 10 N       -3.8360     0.4180    -0.2890 N.am  1 <1>  -0.5470 
 11 C        3.5020     3.1850     0.3990 C.3   1 <1>   0.0200 
 12 C       -5.1580    -0.0330    -0.3670 C.ar  1 <1>   0.1170 
 13 C        4.1560     1.8360     0.7150 C.3   1 <1>  -0.2400 
 14 C       -6.1290     0.6350     0.3700 C.ar  1 <1>  -0.1500 
 15 C       -5.5660    -1.1190    -1.1360 C.ar  1 <1>  -0.1500 
 16 C       -7.4520     0.2380     0.3390 C.ar  1 <1>  -0.1500 
 17 C       -6.8900    -1.5140    -1.1650 C.ar  1 <1>  -0.1500 
 18 C       -7.8750    -0.8490    -0.4310 C.ar  1 <1>   0.0860 
 19 C       -9.2600    -1.2770    -0.4730 C.2   1 <1>   0.6340 
 20 O       -9.6420    -2.2280    -1.1250 O.2   1 <1>  -0.5700 
 21 O      -10.1530    -0.5830     0.2430 O.3   1 <1>  -0.4300 
 22 C      -11.5240    -0.9190     0.3020 C.3   1 <1>   0.1200 
 23 C      -11.7290    -1.9710     1.3900 C.3   1 <1>  -0.2400 
 24 H       -0.6900     0.0600    -0.2470 H     1 <1>   0.0800 
 25 H       -0.9910     1.2600    -1.5040 H     1 <1>   0.0800 
 26 H        1.2060     1.7160    -0.4440 H     1 <1>   0.2700 
 27 H       -3.6860     1.1540     0.4050 H     1 <1>   0.3700 
 28 H        4.0240     3.9630     0.9300 H     1 <1>   0.0800 
 29 H        3.5810     3.3970    -0.6520 H     1 <1>   0.0800 
 30 H        4.0680     1.6240     1.7670 H     1 <1>   0.0800 
 31 H        5.2010     1.8660     0.4590 H     1 <1>   0.0800 
 32 H        3.6890     1.0430     0.1600 H     1 <1>   0.0800 
 33 H       -5.8480     1.4780     0.9750 H     1 <1>   0.1500 
 34 H       -4.8520    -1.6700    -1.7190 H     1 <1>   0.1500 
 35 H       -8.1740     0.7820     0.9240 H     1 <1>   0.1500 
 36 H       -7.1730    -2.3580    -1.7710 H     1 <1>   0.1500 
 37 H      -11.8460    -1.2780    -0.6620 H     1 <1>   0.0800 
 38 H      -12.0680    -0.0230     0.5400 H     1 <1>   0.0800 
 39 H      -11.1960    -2.8720     1.1430 H     1 <1>   0.0800 
 40 H      -12.7740    -2.2080     1.4710 H     1 <1>   0.0800 
 41 H      -11.3870    -1.5970     2.3390 H     1 <1>   0.0800 
@<TRIPOS>BOND
  1   1   2  1   
  2   1   3  1   
  3   2   4  2   
  4   2   5  1   
  5   3   6  1   
  6   3  24  1   
  7   3  25  1   
  8   4   7  1   
  9   5   8  1   
 10   5  26  1   
 11   6   9  2   
 12   6  10  am  
 13   7   8  2   
 14   8  11  1   
 15  10  12  1   
 16  10  27  1   
 17  11  13  1   
 18  11  28  1   
 19  11  29  1   
 20  12  14  ar  
 21  12  15  ar  
 22  13  30  1   
 23  13  31  1   
 24  13  32  1   
 25  14  16  ar  
 26  14  33  1   
 27  15  17  ar  
 28  15  34  1   
 29  16  18  ar  
 30  16  35  1   
 31  17  18  ar  
 32  17  36  1   
 33  18  19  1   
 34  19  20  2   
 35  19  21  1   
 36  21  22  1   
 37  22  23  1   
 38  22  37  1   
 39  22  38  1   
 40  23  39  1   
 41  23  40  1   
 42  23  41  1   
@<TRIPOS>SUBSTRUCTURE
  1 ****  10 GROUP 4 **** **** 0

# MOE 2024.06 (io_trps.svl 2023.06)
