@<TRIPOS>MOLECULE
1,6,7-Trimethyl-3-(1-methyl-2-oxo-propyl)-8-(tetrahydro-furan-2-ylmethyl)-1H,8H-
54 57 1 0 0 
SMALL
USER_CHARGES


@<TRIPOS>ATOM
  1 O        1.6650    -0.6430     1.6180 O.2   1 <1>  -0.5740 
  2 C        2.3790     0.2930     1.3230 C.2   1 <1>   0.6870 
  3 N        1.8180     1.5250     1.0150 N.am  1 <1>  -0.4250 
  4 N        3.7590     0.1280     1.3060 N.am  1 <1>  -0.4410 
  5 C        2.6200     2.6500     0.8410 C.2   1 <1>   0.7000 
  6 C        0.4060     1.5510     0.4990 C.3   1 <1>   0.2750 
  7 C        4.5420     1.2290     1.0270 C.2   1 <1>   0.4210 
  8 C        4.3800    -1.1980     1.5950 C.3   1 <1>   0.0530 
  9 O        2.1270     3.7630     0.7490 O.2   1 <1>  -0.5740 
 10 C        4.0320     2.4610     0.7900 C.2   1 <1>   0.2710 
 11 C        0.3740     1.9850    -0.9800 C.2   1 <1>   0.4430 
 12 C       -0.4890     2.3650     1.4510 C.3   1 <1>  -0.2460 
 13 N        5.8990     1.2820     0.9320 N.pl3 1 <1>  -0.7030 
 14 N        5.1320     3.2960     0.5210 N.pl3 1 <1>  -0.6330 
 15 O        1.3470     1.9030    -1.6750 O.2   1 <1>  -0.5740 
 16 C       -0.9330     2.4870    -1.5610 C.3   1 <1>  -0.1860 
 17 C        6.2130     2.5340     0.6060 C.cat 1 <1>   1.0690 
 18 C        5.5590     4.5520     0.1480 C.2   1 <1>   0.2350 
 19 N        7.3320     3.2150     0.3290 N.pl3 1 <1>  -0.5710 
 20 C        6.9090     4.5050     0.0340 C.2   1 <1>   0.1580 
 21 C        4.5590     5.6730    -0.0580 C.3   1 <1>  -0.1090 
 22 C        8.7380     2.7060     0.4120 C.3   1 <1>   0.1610 
 23 C        7.8880     5.6040    -0.3440 C.3   1 <1>  -0.1090 
 24 C        9.0010     1.4670    -0.4660 C.3   1 <1>   0.1940 
 25 O        8.2310     0.3810    -0.0500 O.3   1 <1>  -0.5640 
 26 C       10.4340     0.9590    -0.3780 C.3   1 <1>  -0.1670 
 27 C        8.8000    -0.8020    -0.5230 C.3   1 <1>   0.1130 
 28 C       10.2940    -0.5270    -0.6660 C.3   1 <1>  -0.1670 
 29 H        0.0120     0.5500     0.5040 H     1 <1>   0.0730 
 30 H        3.6750    -1.9940     1.4210 H     1 <1>   0.0730 
 31 H        4.6940    -1.2340     2.6240 H     1 <1>   0.0730 
 32 H        5.2300    -1.3610     0.9560 H     1 <1>   0.0730 
 33 H       -0.2740     3.4160     1.3950 H     1 <1>   0.0730 
 34 H       -0.3540     2.0280     2.4630 H     1 <1>   0.0730 
 35 H       -1.5240     2.2240     1.1940 H     1 <1>   0.0730 
 36 H        6.6090     0.5430     0.8330 H     1 <1>   0.4450 
 37 H       -1.7190     1.7780    -1.3770 H     1 <1>   0.0730 
 38 H       -0.8300     2.6190    -2.6240 H     1 <1>   0.0730 
 39 H       -1.1920     3.4340    -1.1240 H     1 <1>   0.0730 
 40 H        3.8550     5.3990    -0.8240 H     1 <1>   0.0730 
 41 H        5.0500     6.5810    -0.3530 H     1 <1>   0.0730 
 42 H        4.0190     5.8560     0.8540 H     1 <1>   0.0730 
 43 H        8.9660     2.4670     1.4370 H     1 <1>   0.0730 
 44 H        9.4170     3.4820     0.1060 H     1 <1>   0.0730 
 45 H        8.5830     5.7740     0.4590 H     1 <1>   0.0730 
 46 H        7.3730     6.5260    -0.5430 H     1 <1>   0.0730 
 47 H        8.4340     5.3250    -1.2270 H     1 <1>   0.0730 
 48 H        8.7550     1.6740    -1.4940 H     1 <1>   0.0730 
 49 H       10.8230     1.1020     0.6150 H     1 <1>   0.0730 
 50 H       11.0790     1.4530    -1.0840 H     1 <1>   0.0730 
 51 H        8.3570    -1.0340    -1.4770 H     1 <1>   0.0730 
 52 H        8.6010    -1.5930     0.1800 H     1 <1>   0.0730 
 53 H       10.8650    -1.1180     0.0290 H     1 <1>   0.0730 
 54 H       10.6140    -0.7630    -1.6660 H     1 <1>   0.0730 
@<TRIPOS>BOND
  1   1   2  2   
  2   2   3  am  
  3   2   4  am  
  4   3   5  am  
  5   3   6  1   
  6   4   7  1   
  7   4   8  1   
  8   5   9  2   
  9   5  10  1   
 10   6  11  1   
 11   6  12  1   
 12   6  29  1   
 13   7  10  2   
 14   7  13  1   
 15   8  30  1   
 16   8  31  1   
 17   8  32  1   
 18  10  14  1   
 19  11  15  2   
 20  11  16  1   
 21  12  33  1   
 22  12  34  1   
 23  12  35  1   
 24  13  17  ar  
 25  13  36  1   
 26  14  17  ar  
 27  14  18  1   
 28  16  37  1   
 29  16  38  1   
 30  16  39  1   
 31  17  19  ar  
 32  18  20  2   
 33  18  21  1   
 34  19  20  1   
 35  19  22  1   
 36  20  23  1   
 37  21  40  1   
 38  21  41  1   
 39  21  42  1   
 40  22  24  1   
 41  22  43  1   
 42  22  44  1   
 43  23  45  1   
 44  23  46  1   
 45  23  47  1   
 46  24  25  1   
 47  24  26  1   
 48  24  48  1   
 49  25  27  1   
 50  26  28  1   
 51  26  49  1   
 52  26  50  1   
 53  27  28  1   
 54  27  51  1   
 55  27  52  1   
 56  28  53  1   
 57  28  54  1   
@<TRIPOS>SUBSTRUCTURE
  1 ****  10 GROUP 4 **** **** 0

# MOE 2024.06 (io_trps.svl 2023.06)
