@<TRIPOS>MOLECULE
(E)-N-[(Z)-1-(Azepane-1-carbonyl)-2-benzo[1,3]dioxol-5-yl-vinyl]-3-furan-2-yl-ac
54 57 1 0 0 
SMALL
USER_CHARGES


@<TRIPOS>ATOM
  1 O        1.3730    -2.1830    -2.4900 O.2   1 <1>  -0.5700 
  2 C        0.9870    -2.1480    -1.3330 C.2   1 <1>   0.6160 
  3 N        1.6830    -1.3660    -0.4230 N.am  1 <1>  -0.6600 
  4 C       -0.1310    -3.0090    -0.9510 C.2   1 <1>   0.1230 
  5 C        2.6380    -0.3190    -0.8890 C.3   1 <1>   0.1400 
  6 C        1.6180    -1.5760     1.0480 C.3   1 <1>   0.1400 
  7 N       -1.2250    -2.4970    -0.2200 N.am  1 <1>  -0.5390 
  8 C       -0.1200    -4.3320    -1.2670 C.2   1 <1>  -0.1780 
  9 C        1.9860     1.0610    -0.7690 C.3   1 <1>  -0.1600 
 10 C        1.1180    -0.3330     1.7970 C.3   1 <1>  -0.1600 
 11 C       -1.7390    -1.2270    -0.1920 C.2   1 <1>   0.6160 
 12 C       -1.1100    -5.3390    -1.0100 C.ar  1 <1>   0.0280 
 13 C        2.1140     1.7350     0.6090 C.3   1 <1>  -0.1600 
 14 C        2.1480     0.8060     1.8330 C.3   1 <1>  -0.1600 
 15 O       -1.3780    -0.4040    -1.0060 O.2   1 <1>  -0.5700 
 16 C       -2.7170    -0.8890     0.7970 C.2   1 <1>  -0.1360 
 17 C       -2.4730    -5.1110    -1.2320 C.ar  1 <1>  -0.1500 
 18 C       -0.7140    -6.5990    -0.5380 C.ar  1 <1>  -0.1500 
 19 C       -3.3190     0.3110     0.9660 C.2   1 <1>  -0.1050 
 20 C       -3.3730    -6.1160    -0.9530 C.ar  1 <1>   0.0820 
 21 C       -1.6320    -7.6030    -0.2670 C.ar  1 <1>  -0.1500 
 22 C       -4.2880     0.6470     1.9620 C.2   1 <1>   0.0950 
 23 O       -4.7040    -6.0970    -1.0840 O.3   1 <1>  -0.3620 
 24 C       -2.9670    -7.3310    -0.4830 C.ar  1 <1>   0.0820 
 25 O       -4.6790    -0.2560     2.8520 O.3   1 <1>  -0.2800 
 26 C       -4.9490     1.8120     2.2040 C.2   1 <1>  -0.1500 
 27 C       -5.1730    -7.3850    -0.6870 C.3   1 <1>   0.4000 
 28 O       -4.0210    -8.1300    -0.2970 O.3   1 <1>  -0.3620 
 29 C       -5.5650     0.2960     3.6510 C.2   1 <1>  -0.0100 
 30 C       -5.7790     1.5830     3.3020 C.2   1 <1>  -0.1500 
 31 H        3.5510    -0.3650    -0.3220 H     1 <1>   0.0800 
 32 H        2.8930    -0.4890    -1.9200 H     1 <1>   0.0800 
 33 H        0.9690    -2.4020     1.2740 H     1 <1>   0.0800 
 34 H        2.5990    -1.8420     1.4030 H     1 <1>   0.0800 
 35 H       -1.7850    -3.2050     0.2520 H     1 <1>   0.3700 
 36 H        0.7480    -4.7080    -1.7810 H     1 <1>   0.1500 
 37 H        2.4340     1.7110    -1.4990 H     1 <1>   0.0800 
 38 H        0.9460     0.9710    -1.0360 H     1 <1>   0.0800 
 39 H        0.1900     0.0120     1.3790 H     1 <1>   0.0800 
 40 H        0.9220    -0.6300     2.8110 H     1 <1>   0.0800 
 41 H        3.0140     2.3250     0.6200 H     1 <1>   0.0800 
 42 H        1.2900     2.4200     0.7170 H     1 <1>   0.0800 
 43 H        1.9620     1.4100     2.7050 H     1 <1>   0.0800 
 44 H        3.1360     0.3940     1.9470 H     1 <1>   0.0800 
 45 H       -2.9740    -1.6920     1.4600 H     1 <1>   0.1500 
 46 H       -2.8230    -4.1750    -1.6290 H     1 <1>   0.1500 
 47 H        0.3330    -6.7890    -0.3780 H     1 <1>   0.1500 
 48 H       -3.0660     1.1210     0.3020 H     1 <1>   0.1500 
 49 H       -1.3280    -8.5680     0.0970 H     1 <1>   0.1500 
 50 H       -4.8640     2.7400     1.6680 H     1 <1>   0.1500 
 51 H       -5.8410    -7.2860     0.1510 H     1 <1>   0.0800 
 52 H       -5.6500    -7.8690    -1.5220 H     1 <1>   0.0800 
 53 H       -5.9970    -0.2930     4.4410 H     1 <1>   0.1500 
 54 H       -6.4400     2.3010     3.7540 H     1 <1>   0.1500 
@<TRIPOS>BOND
  1   1   2  2   
  2   2   3  am  
  3   2   4  1   
  4   3   5  1   
  5   3   6  1   
  6   4   7  1   
  7   4   8  2   
  8   5   9  1   
  9   5  31  1   
 10   5  32  1   
 11   6  10  1   
 12   6  33  1   
 13   6  34  1   
 14   7  11  am  
 15   7  35  1   
 16   8  12  1   
 17   8  36  1   
 18   9  13  1   
 19   9  37  1   
 20   9  38  1   
 21  10  14  1   
 22  10  39  1   
 23  10  40  1   
 24  11  15  2   
 25  11  16  1   
 26  12  17  ar  
 27  12  18  ar  
 28  13  14  1   
 29  13  41  1   
 30  13  42  1   
 31  14  43  1   
 32  14  44  1   
 33  16  19  2   
 34  16  45  1   
 35  17  20  ar  
 36  17  46  1   
 37  18  21  ar  
 38  18  47  1   
 39  19  22  1   
 40  19  48  1   
 41  20  23  1   
 42  20  24  ar  
 43  21  24  ar  
 44  21  49  1   
 45  22  25  1   
 46  22  26  2   
 47  23  27  1   
 48  24  28  1   
 49  25  29  1   
 50  26  30  1   
 51  26  50  1   
 52  27  28  1   
 53  27  51  1   
 54  27  52  1   
 55  29  30  2   
 56  29  53  1   
 57  30  54  1   
@<TRIPOS>SUBSTRUCTURE
  1 ****   7 GROUP 4 **** **** 0

# MOE 2024.06 (io_trps.svl 2023.06)
