@<TRIPOS>MOLECULE
N-Furan-2-ylmethyl-N-(2-hydroxy-8-methyl-quinolin-3-ylmethyl)-butyramide
47 49 1 0 0 
SMALL
USER_CHARGES


@<TRIPOS>ATOM
  1 O        1.0060    -0.7990     2.1450 O.2   1 <1>  -0.5700 
  2 C        1.7500    -0.6970     1.1980 C.2   1 <1>   0.5690 
  3 N        2.2780     0.5120     0.8320 N.am  1 <1>  -0.6600 
  4 C        2.0710    -1.9710     0.4300 C.3   1 <1>  -0.0990 
  5 C        1.9280     1.7490     1.5800 C.3   1 <1>   0.2780 
  6 C        3.2500     0.7020    -0.2820 C.3   1 <1>   0.3200 
  7 C        1.1260    -2.1770    -0.7650 C.3   1 <1>  -0.1600 
  8 C        0.7380     2.4260     0.9230 C.2   1 <1>  -0.1240 
  9 C        4.6680     0.4040     0.1800 C.2   1 <1>  -0.0400 
 10 C        1.4790    -3.4470    -1.5430 C.3   1 <1>  -0.2400 
 11 C        0.9900     3.5120     0.0280 C.2   1 <1>   0.6160 
 12 C       -0.5350     2.0230     1.1680 C.2   1 <1>  -0.1780 
 13 O        5.6390     0.4620    -0.7120 O.3   1 <1>  -0.2800 
 14 C        5.1640     0.0670     1.3920 C.2   1 <1>  -0.1500 
 15 O        2.1030     3.9270    -0.2410 O.2   1 <1>  -0.5700 
 16 N       -0.0780     4.1180    -0.5590 N.am  1 <1>  -0.5470 
 17 C       -1.6480     2.6700     0.5420 C.ar  1 <1>   0.0280 
 18 C        6.7660     0.1690    -0.0960 C.2   1 <1>  -0.0100 
 19 C        6.5440    -0.0870     1.2100 C.2   1 <1>  -0.1500 
 20 C       -1.4000     3.7400    -0.3380 C.ar  1 <1>   0.1170 
 21 C       -2.9660     2.2770     0.7710 C.ar  1 <1>  -0.1500 
 22 C       -2.4670     4.3930    -0.9640 C.ar  1 <1>  -0.1440 
 23 C       -4.0110     2.9240     0.1510 C.ar  1 <1>  -0.1500 
 24 C       -3.7610     3.9810    -0.7150 C.ar  1 <1>  -0.1500 
 25 C       -2.2200     5.5550    -1.9180 C.3   1 <1>  -0.0970 
 26 H        1.9650    -2.8010     1.1060 H     1 <1>   0.0800 
 27 H        3.0940    -1.9610     0.1040 H     1 <1>   0.0800 
 28 H        2.7780     2.4100     1.6220 H     1 <1>   0.0800 
 29 H        1.6730     1.4960     2.5950 H     1 <1>   0.0800 
 30 H        3.2070     1.7130    -0.6470 H     1 <1>   0.0800 
 31 H        3.0040     0.0550    -1.1030 H     1 <1>   0.0800 
 32 H        1.1770    -1.3290    -1.4250 H     1 <1>   0.0800 
 33 H        0.1130    -2.2490    -0.4030 H     1 <1>   0.0800 
 34 H        2.4810    -3.3870    -1.9320 H     1 <1>   0.0800 
 35 H        0.8000    -3.5740    -2.3680 H     1 <1>   0.0800 
 36 H        1.4050    -4.3110    -0.9060 H     1 <1>   0.0800 
 37 H       -0.7460     1.2030     1.8340 H     1 <1>   0.1500 
 38 H        4.6380    -0.0640     2.3210 H     1 <1>   0.1500 
 39 H        0.1430     4.8880    -1.1850 H     1 <1>   0.3700 
 40 H        7.6810     0.1660    -0.6620 H     1 <1>   0.1500 
 41 H        7.2500    -0.3530     1.9760 H     1 <1>   0.1500 
 42 H       -3.1600     1.4590     1.4410 H     1 <1>   0.1500 
 43 H       -5.0260     2.6150     0.3340 H     1 <1>   0.1500 
 44 H       -4.5940     4.4720    -1.1870 H     1 <1>   0.1500 
 45 H       -1.6140     5.2300    -2.7450 H     1 <1>   0.0800 
 46 H       -1.7180     6.3540    -1.4030 H     1 <1>   0.0800 
 47 H       -3.1470     5.9360    -2.3090 H     1 <1>   0.0800 
@<TRIPOS>BOND
  1   1   2  2   
  2   2   3  am  
  3   2   4  1   
  4   3   5  1   
  5   3   6  1   
  6   4   7  1   
  7   4  26  1   
  8   4  27  1   
  9   5   8  1   
 10   5  28  1   
 11   5  29  1   
 12   6   9  1   
 13   6  30  1   
 14   6  31  1   
 15   7  10  1   
 16   7  32  1   
 17   7  33  1   
 18   8  11  1   
 19   8  12  2   
 20   9  13  1   
 21   9  14  2   
 22  10  34  1   
 23  10  35  1   
 24  10  36  1   
 25  11  15  2   
 26  11  16  am  
 27  12  17  1   
 28  12  37  1   
 29  13  18  1   
 30  14  19  1   
 31  14  38  1   
 32  16  20  1   
 33  16  39  1   
 34  17  20  ar  
 35  17  21  ar  
 36  18  19  2   
 37  18  40  1   
 38  19  41  1   
 39  20  22  ar  
 40  21  23  ar  
 41  21  42  1   
 42  22  24  ar  
 43  22  25  1   
 44  23  24  ar  
 45  23  43  1   
 46  24  44  1   
 47  25  45  1   
 48  25  46  1   
 49  25  47  1   
@<TRIPOS>SUBSTRUCTURE
  1 ****   8 GROUP 4 **** **** 0

# MOE 2024.06 (io_trps.svl 2023.06)
