@<TRIPOS>MOLECULE
[4-(4-Carbamoyl-piperidine-1-sulfonyl)-2-methyl-phenoxy]-acetic acid methyl este
47 48 1 0 0 
SMALL
USER_CHARGES


@<TRIPOS>ATOM
  1 S        0.1460    -0.4200     2.1010 S.o2  1 <1>   1.4470 
  2 O       -0.3410     0.4620     3.1390 O.2   1 <1>  -0.6500 
  3 O        0.0540    -1.8530     2.2960 O.2   1 <1>  -0.6500 
  4 N       -0.7410    -0.0760     0.6970 N.am  1 <1>  -0.8490 
  5 C        1.8420     0.0520     1.6610 C.ar  1 <1>  -0.0090 
  6 C       -2.1800    -0.0740     0.9760 C.3   1 <1>   0.1960 
  7 C       -0.4020    -0.9880    -0.4010 C.3   1 <1>   0.1960 
  8 C        2.8620    -0.8900     1.6030 C.ar  1 <1>  -0.1500 
  9 C        2.1610     1.3700     1.3600 C.ar  1 <1>  -0.1500 
 10 C       -2.9680     0.3560    -0.2640 C.3   1 <1>  -0.1600 
 11 C       -1.1280    -0.5740    -1.6830 C.3   1 <1>  -0.1600 
 12 C        4.1580    -0.5410     1.2610 C.ar  1 <1>  -0.1430 
 13 C        3.4500     1.7400     1.0200 C.ar  1 <1>  -0.1500 
 14 C       -2.6500    -0.5410    -1.4700 C.3   1 <1>  -0.0190 
 15 C        4.4620     0.7850     0.9700 C.ar  1 <1>   0.0830 
 16 C        5.2390    -1.6130     1.2110 C.3   1 <1>  -0.0970 
 17 C       -3.3920    -0.0800    -2.7230 C.2   1 <1>   0.5690 
 18 O        5.7510     1.0760     0.6540 O.3   1 <1>  -0.3630 
 19 O       -3.1310     0.9770    -3.2360 O.2   1 <1>  -0.5700 
 20 N       -4.3470    -0.8620    -3.2570 N.am  1 <1>  -0.8000 
 21 C        6.2070     2.3970     0.3970 C.3   1 <1>   0.1810 
 22 C        5.7880     2.8990    -0.9780 C.2   1 <1>   0.6590 
 23 O        5.0780     3.8660    -1.1030 O.2   1 <1>  -0.5700 
 24 O        6.2660     2.2360    -2.0270 O.3   1 <1>  -0.4300 
 25 C        5.9390     2.6050    -3.3500 C.3   1 <1>   0.0400 
 26 H       -2.3940     0.6190     1.7730 H     1 <1>   0.0800 
 27 H       -2.4920    -1.0560     1.2930 H     1 <1>   0.0800 
 28 H       -0.6730    -1.9980    -0.1390 H     1 <1>   0.0800 
 29 H        0.6600    -0.9600    -0.5810 H     1 <1>   0.0800 
 30 H        2.6310    -1.9170     1.8330 H     1 <1>   0.1500 
 31 H        1.3850     2.1160     1.3940 H     1 <1>   0.1500 
 32 H       -2.7190     1.3780    -0.4950 H     1 <1>   0.0800 
 33 H       -4.0210     0.3180    -0.0490 H     1 <1>   0.0800 
 34 H       -0.8860    -1.2640    -2.4710 H     1 <1>   0.0800 
 35 H       -0.7780     0.4000    -1.9810 H     1 <1>   0.0800 
 36 H        3.6360     2.7740     0.7980 H     1 <1>   0.1500 
 37 H       -2.9750    -1.5400    -1.2380 H     1 <1>   0.0800 
 38 H        4.8400    -2.5830     1.4450 H     1 <1>   0.0800 
 39 H        6.0140    -1.3810     1.9200 H     1 <1>   0.0800 
 40 H        5.6720    -1.6480     0.2280 H     1 <1>   0.0800 
 41 H       -4.8360    -0.5380    -4.0930 H     1 <1>   0.3700 
 42 H       -4.6330    -1.7660    -2.8850 H     1 <1>   0.3700 
 43 H        7.2790     2.3770     0.4440 H     1 <1>   0.0800 
 44 H        5.8410     3.0470     1.1690 H     1 <1>   0.0800 
 45 H        6.4340     1.9290    -4.0250 H     1 <1>   0.0800 
 46 H        6.2710     3.6130    -3.5240 H     1 <1>   0.0800 
 47 H        4.8720     2.5380    -3.4750 H     1 <1>   0.0800 
@<TRIPOS>BOND
  1   1   2  2   
  2   1   3  2   
  3   1   4  am  
  4   1   5  1   
  5   4   6  1   
  6   4   7  1   
  7   5   8  ar  
  8   5   9  ar  
  9   6  10  1   
 10   6  26  1   
 11   6  27  1   
 12   7  11  1   
 13   7  28  1   
 14   7  29  1   
 15   8  12  ar  
 16   8  30  1   
 17   9  13  ar  
 18   9  31  1   
 19  10  14  1   
 20  10  32  1   
 21  10  33  1   
 22  11  14  1   
 23  11  34  1   
 24  11  35  1   
 25  12  15  ar  
 26  12  16  1   
 27  13  15  ar  
 28  13  36  1   
 29  14  17  1   
 30  14  37  1   
 31  15  18  1   
 32  16  38  1   
 33  16  39  1   
 34  16  40  1   
 35  17  19  2   
 36  17  20  am  
 37  18  21  1   
 38  20  41  1   
 39  20  42  1   
 40  21  22  1   
 41  21  43  1   
 42  21  44  1   
 43  22  23  2   
 44  22  24  1   
 45  24  25  1   
 46  25  45  1   
 47  25  46  1   
 48  25  47  1   
@<TRIPOS>SUBSTRUCTURE
  1 ****   9 GROUP 4 **** **** 0

# MOE 2024.06 (io_trps.svl 2023.06)
