@<TRIPOS>MOLECULE
6-(Pyrrolidine-1-sulfonyl)-chromen-2-one
32 34 1 0 0 
SMALL
USER_CHARGES


@<TRIPOS>ATOM
  1 S       -0.0890    -0.2220    -1.5100 S.o2  1 <1>   1.4470 
  2 O       -0.1740     0.9940    -2.2900 O.2   1 <1>  -0.6500 
  3 O        0.2830    -1.4580    -2.1630 O.2   1 <1>  -0.6500 
  4 N        1.0520     0.0470    -0.2880 N.am  1 <1>  -0.8490 
  5 C       -1.6310    -0.4730    -0.5850 C.ar  1 <1>  -0.0090 
  6 C        2.4200    -0.0380    -0.7660 C.3   1 <1>   0.1960 
  7 C        0.9500     1.3400     0.3690 C.3   1 <1>   0.1960 
  8 C       -2.7840     0.2300    -0.9020 C.ar  1 <1>  -0.1500 
  9 C       -1.6880    -1.3860     0.4660 C.ar  1 <1>  -0.1500 
 10 C        3.2530     0.6060     0.3370 C.3   1 <1>  -0.1600 
 11 C        2.2700     1.4830     1.1140 C.3   1 <1>  -0.1600 
 12 C       -3.9750     0.0490    -0.2010 C.ar  1 <1>   0.0280 
 13 C       -2.8550    -1.5870     1.1790 C.ar  1 <1>  -0.1500 
 14 C       -3.9960    -0.8730     0.8510 C.ar  1 <1>   0.0820 
 15 C       -5.1800     0.7570    -0.5000 C.2   1 <1>  -0.1780 
 16 O       -5.1290    -1.0820     1.5620 O.3   1 <1>  -0.2320 
 17 C       -6.2840     0.5140     0.2370 C.2   1 <1>  -0.1360 
 18 C       -6.2710    -0.4350     1.3060 C.2   1 <1>   0.7060 
 19 O       -7.2430    -0.6780     1.9900 O.2   1 <1>  -0.5700 
 20 H        2.5240     0.5260    -1.6800 H     1 <1>   0.0800 
 21 H        2.7030    -1.0620    -0.9430 H     1 <1>   0.0800 
 22 H        0.1050     1.3740     1.0370 H     1 <1>   0.0800 
 23 H        0.8660     2.1280    -0.3620 H     1 <1>   0.0800 
 24 H       -2.7610     0.9370    -1.7140 H     1 <1>   0.1500 
 25 H       -0.8010    -1.9440     0.7220 H     1 <1>   0.1500 
 26 H        4.0600     1.1790    -0.0850 H     1 <1>   0.0800 
 27 H        3.6610    -0.1570     0.9770 H     1 <1>   0.0800 
 28 H        2.1580     1.1140     2.1190 H     1 <1>   0.0800 
 29 H        2.5830     2.5120     1.1500 H     1 <1>   0.0800 
 30 H       -2.8860    -2.2950     1.9890 H     1 <1>   0.1500 
 31 H       -5.1670     1.4670    -1.3100 H     1 <1>   0.1500 
 32 H       -7.2210     1.0100     0.0650 H     1 <1>   0.1500 
@<TRIPOS>BOND
  1   1   2  2   
  2   1   3  2   
  3   1   4  am  
  4   1   5  1   
  5   4   6  1   
  6   4   7  1   
  7   5   8  ar  
  8   5   9  ar  
  9   6  10  1   
 10   6  20  1   
 11   6  21  1   
 12   7  11  1   
 13   7  22  1   
 14   7  23  1   
 15   8  12  ar  
 16   8  24  1   
 17   9  13  ar  
 18   9  25  1   
 19  10  11  1   
 20  10  26  1   
 21  10  27  1   
 22  11  28  1   
 23  11  29  1   
 24  12  14  ar  
 25  12  15  1   
 26  13  14  ar  
 27  13  30  1   
 28  14  16  1   
 29  15  17  2   
 30  15  31  1   
 31  16  18  1   
 32  17  18  1   
 33  17  32  1   
 34  18  19  2   
@<TRIPOS>SUBSTRUCTURE
  1 ****   5 GROUP 4 **** **** 0

# MOE 2024.06 (io_trps.svl 2023.06)
