@<TRIPOS>MOLECULE
1-(2,3-Dimethyl-indol-1-yl)-3-piperazin-1-yl-propan-2-ol
47 49 1 0 0 
SMALL
USER_CHARGES


@<TRIPOS>ATOM
  1 O        0.5050     0.5700    -1.0100 O.3   1 <1>  -0.6800 
  2 C       -0.0270     1.7310    -0.4850 C.3   1 <1>   0.2000 
  3 C       -1.5570     1.6470    -0.6600 C.3   1 <1>   0.1100 
  4 C        0.6210     2.9350    -1.1780 C.3   1 <1>   0.0960 
  5 N       -2.1020     0.3080    -0.3020 N.3   1 <1>  -0.8100 
  6 N       -0.0220     4.1840    -0.7140 N.pl3 1 <1>   0.0480 
  7 C       -3.4710     0.1670    -0.8410 C.3   1 <1>   0.1100 
  8 C       -2.0750     0.0900     1.1630 C.3   1 <1>   0.1100 
  9 C       -1.1140     4.7710    -1.3140 C.ar  1 <1>  -0.1520 
 10 C        0.1800     4.8040     0.4950 C.2   1 <1>  -0.3320 
 11 C       -4.0810    -1.2060    -0.4930 C.3   1 <1>   0.3430 
 12 C       -2.6660    -1.2830     1.5440 C.3   1 <1>   0.3430 
 13 C       -1.6110     5.7470    -0.4590 C.ar  1 <1>   0.0000 
 14 C       -1.7290     4.5310    -2.5490 C.ar  1 <1>  -0.1500 
 15 C       -0.7720     5.7540     0.6760 C.2   1 <1>  -0.1810 
 16 C        1.3330     4.4310     1.4170 C.3   1 <1>  -0.0600 
 17 N       -4.0470    -1.4620     0.9850 N.4   1 <1>  -0.9060 
 18 C       -2.7430     6.4820    -0.8260 C.ar  1 <1>  -0.1500 
 19 C       -2.8410     5.2610    -2.8990 C.ar  1 <1>  -0.1500 
 20 C       -0.9850     6.7100     1.8360 C.3   1 <1>  -0.0590 
 21 C       -3.3500     6.2370    -2.0350 C.ar  1 <1>  -0.1500 
 22 H       -0.2150    -0.1000    -0.9660 H     1 <1>   0.4000 
 23 H        0.2180     1.7510     0.5620 H     1 <1>   0.0800 
 24 H       -1.7770     1.8530    -1.6940 H     1 <1>   0.0800 
 25 H       -2.0330     2.4170    -0.0730 H     1 <1>   0.0800 
 26 H        0.5050     2.8560    -2.2420 H     1 <1>   0.0800 
 27 H        1.6680     2.9730    -0.9450 H     1 <1>   0.0800 
 28 H       -3.4410     0.2670    -1.9130 H     1 <1>   0.0800 
 29 H       -4.1020     0.9530    -0.4570 H     1 <1>   0.0800 
 30 H       -2.6240     0.8720     1.6620 H     1 <1>   0.0800 
 31 H       -1.0580     0.1280     1.5130 H     1 <1>   0.0800 
 32 H       -3.5150    -1.9660    -1.0060 H     1 <1>   0.0800 
 33 H       -5.0960    -1.2480    -0.8530 H     1 <1>   0.0800 
 34 H       -2.6860    -1.3780     2.6170 H     1 <1>   0.0800 
 35 H       -2.0160    -2.0500     1.1550 H     1 <1>   0.0800 
 36 H       -1.3310     3.7920    -3.2200 H     1 <1>   0.1500 
 37 H        2.2660     4.5070     0.8870 H     1 <1>   0.0800 
 38 H        1.2190     3.4270     1.7820 H     1 <1>   0.0800 
 39 H        1.3810     5.0900     2.2630 H     1 <1>   0.0800 
 40 H       -4.3870    -2.4100     1.1860 H     1 <1>   0.4500 
 41 H       -4.6800    -0.8010     1.4490 H     1 <1>   0.4500 
 42 H       -3.1190     7.2330    -0.1560 H     1 <1>   0.1500 
 43 H       -3.3270     5.0940    -3.8440 H     1 <1>   0.1500 
 44 H       -0.2690     6.5460     2.6170 H     1 <1>   0.0800 
 45 H       -1.9710     6.5730     2.2410 H     1 <1>   0.0800 
 46 H       -0.8890     7.7220     1.4890 H     1 <1>   0.0800 
 47 H       -4.2200     6.7970    -2.3300 H     1 <1>   0.1500 
@<TRIPOS>BOND
  1   1   2  1   
  2   1  22  1   
  3   2   3  1   
  4   2   4  1   
  5   2  23  1   
  6   3   5  1   
  7   3  24  1   
  8   3  25  1   
  9   4   6  1   
 10   4  26  1   
 11   4  27  1   
 12   5   7  1   
 13   5   8  1   
 14   6   9  1   
 15   6  10  1   
 16   7  11  1   
 17   7  28  1   
 18   7  29  1   
 19   8  12  1   
 20   8  30  1   
 21   8  31  1   
 22   9  13  ar  
 23   9  14  ar  
 24  10  15  2   
 25  10  16  1   
 26  11  17  1   
 27  11  32  1   
 28  11  33  1   
 29  12  17  1   
 30  12  34  1   
 31  12  35  1   
 32  13  15  1   
 33  13  18  ar  
 34  14  19  ar  
 35  14  36  1   
 36  15  20  1   
 37  16  37  1   
 38  16  38  1   
 39  16  39  1   
 40  17  40  1   
 41  17  41  1   
 42  18  21  ar  
 43  18  42  1   
 44  19  21  ar  
 45  19  43  1   
 46  20  44  1   
 47  20  45  1   
 48  20  46  1   
 49  21  47  1   
@<TRIPOS>SUBSTRUCTURE
  1 ****   3 GROUP 4 **** **** 0

# MOE 2024.06 (io_trps.svl 2023.06)
