@<TRIPOS>MOLECULE
6-tert-Butyl-2,3-dihydro-benzo[1,4]dioxine-2-carboxylic acid
32 33 1 0 0 
SMALL
USER_CHARGES


@<TRIPOS>ATOM
  1 O        0.1560    -1.1680    -1.7880 O.co2 1 <1>  -0.9000 
  2 C       -0.3910    -1.5060    -0.7300 C.2   1 <1>   0.9060 
  3 O        0.1140    -1.2400     0.3720 O.co2 1 <1>  -0.9000 
  4 C       -1.6550    -2.3610    -0.7980 C.3   1 <1>   0.0940 
  5 O       -2.8600    -1.5960    -0.6740 O.3   1 <1>  -0.3630 
  6 C       -1.6190    -3.4450     0.2860 C.3   1 <1>   0.1200 
  7 C       -3.9980    -2.2840    -0.4090 C.ar  1 <1>   0.0820 
  8 O       -2.7860    -4.2520     0.2300 O.3   1 <1>  -0.3630 
  9 C       -3.9640    -3.6080     0.0260 C.ar  1 <1>   0.0820 
 10 C       -5.2150    -1.6550    -0.5810 C.ar  1 <1>  -0.1500 
 11 C       -5.1450    -4.2900     0.2640 C.ar  1 <1>  -0.1500 
 12 C       -6.3910    -2.3440    -0.3350 C.ar  1 <1>  -0.1500 
 13 C       -6.3830    -3.6720     0.0880 C.ar  1 <1>  -0.1440 
 14 C       -7.7220    -4.3960     0.3440 C.3   1 <1>   0.1430 
 15 C       -8.5500    -4.4150    -0.9500 C.3   1 <1>  -0.2400 
 16 C       -7.5430    -5.8530     0.8030 C.3   1 <1>  -0.2400 
 17 C       -8.5030    -3.6570     1.4400 C.3   1 <1>  -0.2400 
 18 H       -1.6720    -2.8270    -1.7640 H     1 <1>   0.0800 
 19 H       -1.5680    -2.9890     1.2600 H     1 <1>   0.0800 
 20 H       -0.7620    -4.0800     0.1540 H     1 <1>   0.0800 
 21 H       -5.2300    -0.6320    -0.9100 H     1 <1>   0.1500 
 22 H       -5.0540    -5.3060     0.5900 H     1 <1>   0.1500 
 23 H       -7.3210    -1.8260    -0.4810 H     1 <1>   0.1500 
 24 H       -7.9930    -4.8980    -1.7340 H     1 <1>   0.0800 
 25 H       -8.7900    -3.4190    -1.2720 H     1 <1>   0.0800 
 26 H       -9.4710    -4.9500    -0.8040 H     1 <1>   0.0800 
 27 H       -6.9900    -5.8930     1.7240 H     1 <1>   0.0800 
 28 H       -7.0200    -6.4220     0.0550 H     1 <1>   0.0800 
 29 H       -8.4990    -6.3180     0.9670 H     1 <1>   0.0800 
 30 H       -7.9140    -3.6060     2.3390 H     1 <1>   0.0800 
 31 H       -9.4230    -4.1670     1.6610 H     1 <1>   0.0800 
 32 H       -8.7430    -2.6540     1.1380 H     1 <1>   0.0800 
@<TRIPOS>BOND
  1   1   2  ar  
  2   2   3  ar  
  3   2   4  1   
  4   4   5  1   
  5   4   6  1   
  6   4  18  1   
  7   5   7  1   
  8   6   8  1   
  9   6  19  1   
 10   6  20  1   
 11   7   9  ar  
 12   7  10  ar  
 13   8   9  1   
 14   9  11  ar  
 15  10  12  ar  
 16  10  21  1   
 17  11  13  ar  
 18  11  22  1   
 19  12  13  ar  
 20  12  23  1   
 21  13  14  1   
 22  14  15  1   
 23  14  16  1   
 24  14  17  1   
 25  15  24  1   
 26  15  25  1   
 27  15  26  1   
 28  16  27  1   
 29  16  28  1   
 30  16  29  1   
 31  17  30  1   
 32  17  31  1   
 33  17  32  1   
@<TRIPOS>SUBSTRUCTURE
  1 ****   9 GROUP 4 **** **** 0

# MOE 2024.06 (io_trps.svl 2023.06)
