@<TRIPOS>MOLECULE
N-(2,6-Diethyl-phenyl)-2-(pyrimidin-2-ylsulfanyl)-acetamide
40 41 1 0 0 
SMALL
USER_CHARGES


@<TRIPOS>ATOM
  1 S        0.7500    -0.4460    -0.3520 S.3   1 <1>  -0.3320 
  2 C       -0.9890    -0.7960    -0.5230 C.ar  1 <1>   0.7220 
  3 C        1.2780    -1.4710     1.1090 C.3   1 <1>   0.1310 
  4 N       -1.5850    -0.1590    -1.5150 N.ar  1 <1>  -0.6200 
  5 N       -1.4940    -1.6500     0.3540 N.ar  1 <1>  -0.6200 
  6 C        2.7650    -1.3210     1.3850 C.2   1 <1>   0.5690 
  7 C       -2.8670    -0.4200    -1.6370 C.ar  1 <1>   0.1600 
  8 C       -2.7780    -1.8860     0.2010 C.ar  1 <1>   0.1600 
  9 O        3.1730    -1.6180     2.4810 O.2   1 <1>  -0.5700 
 10 N        3.5750    -0.8630     0.3850 N.am  1 <1>  -0.5470 
 11 C       -3.5190    -1.2890    -0.7920 C.ar  1 <1>  -0.1500 
 12 C        4.9400    -0.5470     0.4370 C.ar  1 <1>   0.1170 
 13 C        5.3290     0.7970     0.4200 C.ar  1 <1>  -0.1430 
 14 C        5.9180    -1.5470     0.4670 C.ar  1 <1>  -0.1430 
 15 C        6.6740     1.1240     0.4330 C.ar  1 <1>  -0.1500 
 16 C        4.3090     1.9340     0.3940 C.3   1 <1>  -0.0170 
 17 C        7.2580    -1.1940     0.4820 C.ar  1 <1>  -0.1500 
 18 C        5.5710    -3.0340     0.4700 C.3   1 <1>  -0.0170 
 19 C        7.6380     0.1350     0.4650 C.ar  1 <1>  -0.1500 
 20 C        3.8710     2.2460    -1.0400 C.3   1 <1>  -0.2400 
 21 C        5.2850    -3.5310    -0.9490 C.3   1 <1>  -0.2400 
 22 H        1.0430    -2.4950     0.8880 H     1 <1>   0.0800 
 23 H        0.7070    -1.1380     1.9560 H     1 <1>   0.0800 
 24 H       -3.4090     0.0700    -2.4290 H     1 <1>   0.1500 
 25 H       -3.2510    -2.5730     0.8840 H     1 <1>   0.1500 
 26 H        3.0850    -0.5170    -0.4410 H     1 <1>   0.3700 
 27 H       -4.5680    -1.4920    -0.9040 H     1 <1>   0.1500 
 28 H        6.9830     2.1550     0.4190 H     1 <1>   0.1500 
 29 H        4.7440     2.8160     0.8290 H     1 <1>   0.0800 
 30 H        3.4530     1.6820     0.9940 H     1 <1>   0.0800 
 31 H        8.0180    -1.9540     0.5040 H     1 <1>   0.1500 
 32 H        4.7230    -3.2210     1.1020 H     1 <1>   0.0800 
 33 H        6.3910    -3.5960     0.8820 H     1 <1>   0.0800 
 34 H        8.6810     0.3970     0.4760 H     1 <1>   0.1500 
 35 H        4.7230     2.5270    -1.6330 H     1 <1>   0.0800 
 36 H        3.1650     3.0570    -1.0410 H     1 <1>   0.0800 
 37 H        3.4080     1.3870    -1.4890 H     1 <1>   0.0800 
 38 H        4.4440    -3.0050    -1.3650 H     1 <1>   0.0800 
 39 H        5.0620    -4.5830    -0.9340 H     1 <1>   0.0800 
 40 H        6.1410    -3.3650    -1.5780 H     1 <1>   0.0800 
@<TRIPOS>BOND
  1   1   2  1   
  2   1   3  1   
  3   2   4  ar  
  4   2   5  ar  
  5   3   6  1   
  6   3  22  1   
  7   3  23  1   
  8   4   7  ar  
  9   5   8  ar  
 10   6   9  2   
 11   6  10  am  
 12   7  11  ar  
 13   7  24  1   
 14   8  11  ar  
 15   8  25  1   
 16  10  12  1   
 17  10  26  1   
 18  11  27  1   
 19  12  13  ar  
 20  12  14  ar  
 21  13  15  ar  
 22  13  16  1   
 23  14  17  ar  
 24  14  18  1   
 25  15  19  ar  
 26  15  28  1   
 27  16  20  1   
 28  16  29  1   
 29  16  30  1   
 30  17  19  ar  
 31  17  31  1   
 32  18  21  1   
 33  18  32  1   
 34  18  33  1   
 35  19  34  1   
 36  20  35  1   
 37  20  36  1   
 38  20  37  1   
 39  21  38  1   
 40  21  39  1   
 41  21  40  1   
@<TRIPOS>SUBSTRUCTURE
  1 ****  10 GROUP 4 **** **** 0

# MOE 2024.06 (io_trps.svl 2023.06)
