@<TRIPOS>MOLECULE
tert-Butyl-(4,6-di-pyrrolidin-1-yl-[1,3,5]triazin-2-yl)-amine
47 49 1 0 0 
SMALL
USER_CHARGES


@<TRIPOS>ATOM
  1 N        0.0660     0.2450    -0.0930 N.ar  1 <1>  -0.6200 
  2 C        1.1290    -0.5110    -0.0150 C.ar  1 <1>   0.7200 
  3 C        0.3230     1.4980    -0.3640 C.ar  1 <1>   0.7200 
  4 N        2.3640    -0.1140    -0.1720 N.ar  1 <1>  -0.6200 
  5 N        0.9330    -1.8430     0.2680 N.pl3 1 <1>  -0.8380 
  6 N        1.5100     2.0170    -0.5460 N.ar  1 <1>  -0.6200 
  7 N       -0.7530     2.3480    -0.4680 N.pl3 1 <1>  -0.8380 
  8 C        2.4770     1.1570    -0.4290 C.ar  1 <1>   0.7200 
  9 C        1.9930    -2.8660     0.1400 C.3   1 <1>   0.2090 
 10 C       -0.4060    -2.4630     0.3440 C.3   1 <1>   0.2090 
 11 C       -0.6310     3.7990    -0.7160 C.3   1 <1>   0.2090 
 12 C       -2.1340     1.9750    -0.1020 C.3   1 <1>   0.2090 
 13 N        3.7070     1.6940    -0.6160 N.pl3 1 <1>  -0.8690 
 14 C        1.2430    -4.1760    -0.0730 C.3   1 <1>  -0.1600 
 15 C       -0.1300    -3.9470     0.5550 C.3   1 <1>  -0.1600 
 16 C       -2.0690     4.3010    -0.7550 C.3   1 <1>  -0.1600 
 17 C       -2.8510     3.3050     0.0980 C.3   1 <1>  -0.1600 
 18 C        4.9580     1.3410     0.0510 C.3   1 <1>   0.3690 
 19 C        5.9120     2.5050    -0.2060 C.3   1 <1>  -0.2400 
 20 C        4.7420     1.1870     1.5570 C.3   1 <1>  -0.2400 
 21 C        5.5320     0.0690    -0.5710 C.3   1 <1>  -0.2400 
 22 H        2.5610    -2.8950     1.0540 H     1 <1>   0.0800 
 23 H        2.6490    -2.6500    -0.6870 H     1 <1>   0.0800 
 24 H       -0.9240    -2.3010    -0.5860 H     1 <1>   0.0800 
 25 H       -0.9750    -2.0430     1.1560 H     1 <1>   0.0800 
 26 H       -0.1160     3.9870    -1.6430 H     1 <1>   0.0800 
 27 H       -0.0910     4.2510     0.0990 H     1 <1>   0.0800 
 28 H       -2.1520     1.3780     0.7950 H     1 <1>   0.0800 
 29 H       -2.5730     1.4220    -0.9150 H     1 <1>   0.0800 
 30 H        3.6300     2.6890    -0.8020 H     1 <1>   0.4000 
 31 H        1.7630    -5.0090     0.3650 H     1 <1>   0.0800 
 32 H        1.1370    -4.3440    -1.1300 H     1 <1>   0.0800 
 33 H       -0.8940    -4.5610     0.1150 H     1 <1>   0.0800 
 34 H       -0.0850    -4.1420     1.6120 H     1 <1>   0.0800 
 35 H       -2.4190     4.2650    -1.7720 H     1 <1>   0.0800 
 36 H       -2.1490     5.3090    -0.3900 H     1 <1>   0.0800 
 37 H       -2.7830     3.5810     1.1350 H     1 <1>   0.0800 
 38 H       -3.8870     3.2450    -0.1840 H     1 <1>   0.0800 
 39 H        5.5230     3.4130     0.2180 H     1 <1>   0.0800 
 40 H        6.0580     2.6430    -1.2630 H     1 <1>   0.0800 
 41 H        6.8680     2.3070     0.2430 H     1 <1>   0.0800 
 42 H        5.6830     1.0370     2.0520 H     1 <1>   0.0800 
 43 H        4.1210     0.3360     1.7680 H     1 <1>   0.0800 
 44 H        4.2770     2.0670     1.9620 H     1 <1>   0.0800 
 45 H        6.5030    -0.1390    -0.1630 H     1 <1>   0.0800 
 46 H        5.6220     0.1850    -1.6360 H     1 <1>   0.0800 
 47 H        4.8980    -0.7730    -0.3660 H     1 <1>   0.0800 
@<TRIPOS>BOND
  1   1   2  ar  
  2   1   3  ar  
  3   2   4  ar  
  4   2   5  1   
  5   3   6  ar  
  6   3   7  1   
  7   4   8  ar  
  8   5   9  1   
  9   5  10  1   
 10   6   8  ar  
 11   7  11  1   
 12   7  12  1   
 13   8  13  1   
 14   9  14  1   
 15   9  22  1   
 16   9  23  1   
 17  10  15  1   
 18  10  24  1   
 19  10  25  1   
 20  11  16  1   
 21  11  26  1   
 22  11  27  1   
 23  12  17  1   
 24  12  28  1   
 25  12  29  1   
 26  13  18  1   
 27  13  30  1   
 28  14  15  1   
 29  14  31  1   
 30  14  32  1   
 31  15  33  1   
 32  15  34  1   
 33  16  17  1   
 34  16  35  1   
 35  16  36  1   
 36  17  37  1   
 37  17  38  1   
 38  18  19  1   
 39  18  20  1   
 40  18  21  1   
 41  19  39  1   
 42  19  40  1   
 43  19  41  1   
 44  20  42  1   
 45  20  43  1   
 46  20  44  1   
 47  21  45  1   
 48  21  46  1   
 49  21  47  1   
@<TRIPOS>SUBSTRUCTURE
  1 ****   2 GROUP 4 **** **** 0

# MOE 2024.06 (io_trps.svl 2023.06)
