@<TRIPOS>MOLECULE
N-(4-Methoxy-phenyl)-4-(2-oxo-2-pyrrolidin-1-yl-ethoxy)-benzenesulfonamide
49 51 1 0 0 
SMALL
USER_CHARGES


@<TRIPOS>ATOM
  1 S       -0.1920    -2.0340    -0.7430 S.o2  1 <1>   1.4470 
  2 O       -0.6460    -1.9220    -2.1080 O.2   1 <1>  -0.6500 
  3 O        0.1490    -3.3110    -0.1640 O.2   1 <1>  -0.6500 
  4 N       -1.4520    -1.4570     0.2700 N.am  1 <1>  -0.7570 
  5 C        1.1250    -0.8360    -0.4110 C.ar  1 <1>  -0.0090 
  6 C       -1.9770    -0.1740     0.2360 C.ar  1 <1>   0.1990 
  7 C        2.1440    -1.1120     0.4960 C.ar  1 <1>  -0.1500 
  8 C        1.1310     0.4070    -1.0340 C.ar  1 <1>  -0.1500 
  9 C       -2.4620     0.3830    -0.9420 C.ar  1 <1>  -0.1500 
 10 C       -2.0140     0.5860     1.3990 C.ar  1 <1>  -0.1500 
 11 C        3.1320    -0.1830     0.7660 C.ar  1 <1>  -0.1500 
 12 C        2.1130     1.3450    -0.7700 C.ar  1 <1>  -0.1500 
 13 C       -2.9510     1.6760    -0.9600 C.ar  1 <1>  -0.1500 
 14 C       -2.5040     1.8800     1.3870 C.ar  1 <1>  -0.1500 
 15 C        3.1260     1.0480     0.1340 C.ar  1 <1>   0.0830 
 16 C       -2.9730     2.4350     0.1990 C.ar  1 <1>   0.0830 
 17 O        4.1330     1.8960     0.4430 O.3   1 <1>  -0.3630 
 18 O       -3.4640     3.6990     0.0920 O.3   1 <1>  -0.3630 
 19 C        4.3130     3.1150    -0.2650 C.3   1 <1>   0.1810 
 20 C       -3.5790     4.5290     1.2260 C.3   1 <1>   0.0400 
 21 C        5.6260     3.7930     0.1130 C.2   1 <1>   0.5690 
 22 O        5.5730     4.9300     0.5240 O.2   1 <1>  -0.5700 
 23 N        6.8240     3.1470    -0.0470 N.am  1 <1>  -0.6600 
 24 C        7.0100     1.7500    -0.4980 C.3   1 <1>   0.1400 
 25 C        8.1150     3.7670     0.3150 C.3   1 <1>   0.1400 
 26 C        8.5170     1.5990    -0.6710 C.3   1 <1>  -0.1600 
 27 C        9.1190     2.6190     0.2920 C.3   1 <1>  -0.1600 
 28 H       -1.4110    -1.9350     1.1630 H     1 <1>   0.4200 
 29 H        2.1670    -2.0670     0.9960 H     1 <1>   0.1500 
 30 H        0.3490     0.6470    -1.7360 H     1 <1>   0.1500 
 31 H       -2.4640    -0.1990    -1.8460 H     1 <1>   0.1500 
 32 H       -1.6520     0.1660     2.3190 H     1 <1>   0.1500 
 33 H        3.9150    -0.4080     1.4680 H     1 <1>   0.1500 
 34 H        2.0660     2.2930    -1.2720 H     1 <1>   0.1500 
 35 H       -3.3230     2.1050    -1.8730 H     1 <1>   0.1500 
 36 H       -2.5120     2.4390     2.3030 H     1 <1>   0.1500 
 37 H        3.4920     3.7650    -0.0270 H     1 <1>   0.0800 
 38 H        4.3210     2.9030    -1.3170 H     1 <1>   0.0800 
 39 H       -4.0080     5.4640     0.9120 H     1 <1>   0.0800 
 40 H       -2.6000     4.6970     1.6380 H     1 <1>   0.0800 
 41 H       -4.2250     4.0540     1.9430 H     1 <1>   0.0800 
 42 H        6.4840     1.5620    -1.4180 H     1 <1>   0.0800 
 43 H        6.6540     1.0830     0.2690 H     1 <1>   0.0800 
 44 H        8.0590     4.2310     1.2860 H     1 <1>   0.0800 
 45 H        8.3670     4.5080    -0.4250 H     1 <1>   0.0800 
 46 H        8.7800     1.8520    -1.6830 H     1 <1>   0.0800 
 47 H        8.8440     0.5950    -0.4640 H     1 <1>   0.0800 
 48 H        9.1850     2.1960     1.2790 H     1 <1>   0.0800 
 49 H       10.0960     2.9490    -0.0140 H     1 <1>   0.0800 
@<TRIPOS>BOND
  1   1   2  2   
  2   1   3  2   
  3   1   4  am  
  4   1   5  1   
  5   4   6  1   
  6   4  28  1   
  7   5   7  ar  
  8   5   8  ar  
  9   6   9  ar  
 10   6  10  ar  
 11   7  11  ar  
 12   7  29  1   
 13   8  12  ar  
 14   8  30  1   
 15   9  13  ar  
 16   9  31  1   
 17  10  14  ar  
 18  10  32  1   
 19  11  15  ar  
 20  11  33  1   
 21  12  15  ar  
 22  12  34  1   
 23  13  16  ar  
 24  13  35  1   
 25  14  16  ar  
 26  14  36  1   
 27  15  17  1   
 28  16  18  1   
 29  17  19  1   
 30  18  20  1   
 31  19  21  1   
 32  19  37  1   
 33  19  38  1   
 34  20  39  1   
 35  20  40  1   
 36  20  41  1   
 37  21  22  2   
 38  21  23  am  
 39  23  24  1   
 40  23  25  1   
 41  24  26  1   
 42  24  42  1   
 43  24  43  1   
 44  25  27  1   
 45  25  44  1   
 46  25  45  1   
 47  26  27  1   
 48  26  46  1   
 49  26  47  1   
 50  27  48  1   
 51  27  49  1   
@<TRIPOS>SUBSTRUCTURE
  1 ****  12 GROUP 4 **** **** 0

# MOE 2024.06 (io_trps.svl 2023.06)
