@<TRIPOS>MOLECULE
2-(2-Fluoro-phenyl)-2-pyrrolidin-1-yl-ethylamine
33 34 1 0 0 
SMALL
USER_CHARGES


@<TRIPOS>ATOM
  1 F       -0.9350    -0.9070     2.0920 F     1 <1>  -0.1900 
  2 C       -1.6010    -1.1170     0.9860 C.ar  1 <1>   0.1900 
  3 C       -1.2330    -2.1820     0.1770 C.ar  1 <1>  -0.1440 
  4 C       -2.6290    -0.2490     0.6720 C.ar  1 <1>  -0.1500 
  5 C       -1.9520    -2.3650    -1.0010 C.ar  1 <1>  -0.1500 
  6 C       -0.0700    -3.0650     0.6250 C.3   1 <1>   0.5660 
  7 C       -3.3260    -0.4480    -0.5060 C.ar  1 <1>  -0.1500 
  8 C       -2.9860    -1.5030    -1.3360 C.ar  1 <1>  -0.1500 
  9 N        1.1730    -2.2440     0.4770 N.4   1 <1>  -0.9590 
 10 C        0.0360    -4.4510    -0.0800 C.3   1 <1>   0.1100 
 11 C        1.4980    -1.8270    -0.9080 C.3   1 <1>   0.3430 
 12 C        2.4090    -2.8090     1.0630 C.3   1 <1>   0.3430 
 13 N       -1.1700    -5.2820     0.0530 N.3   1 <1>  -0.9900 
 14 C        2.9430    -1.3530    -0.8250 C.3   1 <1>  -0.1600 
 15 C        3.5200    -1.9620     0.4580 C.3   1 <1>  -0.1600 
 16 H       -2.8790     0.5630     1.3330 H     1 <1>   0.1500 
 17 H       -1.7340    -3.1800    -1.6700 H     1 <1>   0.1500 
 18 H       -0.2110    -3.2640     1.6750 H     1 <1>   0.0800 
 19 H       -4.1330     0.2130    -0.7750 H     1 <1>   0.1500 
 20 H       -3.5370    -1.6590    -2.2490 H     1 <1>   0.1500 
 21 H        0.9690    -1.3750     0.9920 H     1 <1>   0.4500 
 22 H        0.8650    -5.0000     0.3310 H     1 <1>   0.0800 
 23 H        0.2200    -4.3010    -1.1290 H     1 <1>   0.0800 
 24 H        0.8380    -1.0460    -1.2550 H     1 <1>   0.0800 
 25 H        1.4350    -2.6700    -1.5770 H     1 <1>   0.0800 
 26 H        2.5340    -3.8340     0.7540 H     1 <1>   0.0800 
 27 H        2.4050    -2.7530     2.1400 H     1 <1>   0.0800 
 28 H       -1.3330    -5.5840     1.0240 H     1 <1>   0.3600 
 29 H       -1.0920    -6.1410    -0.5110 H     1 <1>   0.3600 
 30 H        2.9730    -0.2780    -0.7780 H     1 <1>   0.0800 
 31 H        3.4900    -1.6690    -1.6970 H     1 <1>   0.0800 
 32 H        4.3900    -2.5660     0.2600 H     1 <1>   0.0800 
 33 H        3.7990    -1.1840     1.1490 H     1 <1>   0.0800 
@<TRIPOS>BOND
  1   1   2  1   
  2   2   3  ar  
  3   2   4  ar  
  4   3   5  ar  
  5   3   6  1   
  6   4   7  ar  
  7   4  16  1   
  8   5   8  ar  
  9   5  17  1   
 10   6   9  1   
 11   6  10  1   
 12   6  18  1   
 13   7   8  ar  
 14   7  19  1   
 15   8  20  1   
 16   9  11  1   
 17   9  12  1   
 18   9  21  1   
 19  10  13  1   
 20  10  22  1   
 21  10  23  1   
 22  11  14  1   
 23  11  24  1   
 24  11  25  1   
 25  12  15  1   
 26  12  26  1   
 27  12  27  1   
 28  13  28  1   
 29  13  29  1   
 30  14  15  1   
 31  14  30  1   
 32  14  31  1   
 33  15  32  1   
 34  15  33  1   
@<TRIPOS>SUBSTRUCTURE
  1 ****   3 GROUP 4 **** **** 0

# MOE 2024.06 (io_trps.svl 2023.06)
