@<TRIPOS>MOLECULE
3-(2,2-Dimethyl-propionylamino)-4-(4-methyl-piperazin-1-yl)-benzoic acid methyl
52 53 1 0 0 
SMALL
USER_CHARGES


@<TRIPOS>ATOM
  1 O        0.2800    -0.1060    -0.2750 O.2   1 <1>  -0.5700 
  2 C        0.1920    -1.3170    -0.2320 C.2   1 <1>   0.6340 
  3 O       -1.0180    -1.8790    -0.3320 O.3   1 <1>  -0.4300 
  4 C        1.3390    -2.1880    -0.0760 C.ar  1 <1>   0.0860 
  5 C       -2.1890    -1.1010    -0.4860 C.3   1 <1>   0.0400 
  6 C        2.6330    -1.6690    -0.0150 C.ar  1 <1>  -0.1500 
  7 C        1.2180    -3.5720     0.0240 C.ar  1 <1>  -0.1500 
  8 C        3.7680    -2.4500     0.1340 C.ar  1 <1>   0.1170 
  9 C        2.3280    -4.3760     0.1740 C.ar  1 <1>  -0.1500 
 10 N        4.9800    -1.7210     0.2070 N.am  1 <1>  -0.5470 
 11 C        3.6140    -3.8550     0.2300 C.ar  1 <1>   0.1000 
 12 C        6.2000    -1.8430    -0.3980 C.2   1 <1>   0.5690 
 13 N        4.6360    -4.7960     0.3610 N.pl3 1 <1>  -0.8380 
 14 O        6.5240    -2.8120    -1.0470 O.2   1 <1>  -0.5700 
 15 C        7.2360    -0.7030    -0.2180 C.3   1 <1>   0.0610 
 16 C        5.6110    -4.6570     1.4990 C.3   1 <1>   0.2090 
 17 C        5.0210    -5.4690    -0.9300 C.3   1 <1>   0.2090 
 18 C        8.4660    -1.2350     0.5420 C.3   1 <1>  -0.2400 
 19 C        7.6950    -0.1900    -1.5960 C.3   1 <1>  -0.2400 
 20 C        6.6820     0.5070     0.5690 C.3   1 <1>  -0.2400 
 21 C        6.9940    -5.3080     1.2690 C.3   1 <1>   0.3430 
 22 C        6.4210    -6.1120    -0.9470 C.3   1 <1>   0.3430 
 23 N        7.3980    -5.2970    -0.1700 N.4   1 <1>  -0.9590 
 24 C        8.8140    -5.6930    -0.4010 C.3   1 <1>   0.2630 
 25 H       -3.0340    -1.7630    -0.5450 H     1 <1>   0.0800 
 26 H       -2.1060    -0.5230    -1.3910 H     1 <1>   0.0800 
 27 H       -2.2880    -0.4480     0.3640 H     1 <1>   0.0800 
 28 H        2.7420    -0.6010    -0.0930 H     1 <1>   0.1500 
 29 H        0.2420    -4.0260    -0.0130 H     1 <1>   0.1500 
 30 H        2.1990    -5.4410     0.2530 H     1 <1>   0.1500 
 31 H        4.8610    -0.8190     0.6670 H     1 <1>   0.3700 
 32 H        5.1700    -5.0890     2.3800 H     1 <1>   0.0800 
 33 H        5.7620    -3.6170     1.7160 H     1 <1>   0.0800 
 34 H        4.9750    -4.7400    -1.7210 H     1 <1>   0.0800 
 35 H        4.2900    -6.2250    -1.1610 H     1 <1>   0.0800 
 36 H        9.2000    -0.4580     0.6670 H     1 <1>   0.0800 
 37 H        8.9240    -2.0420    -0.0020 H     1 <1>   0.0800 
 38 H        8.1810    -1.5940     1.5150 H     1 <1>   0.0800 
 39 H        8.1410    -0.9860    -2.1680 H     1 <1>   0.0800 
 40 H        8.4200     0.5980    -1.4930 H     1 <1>   0.0800 
 41 H        6.8560     0.1900    -2.1520 H     1 <1>   0.0800 
 42 H        7.4340     1.2730     0.6550 H     1 <1>   0.0800 
 43 H        5.8350     0.9370     0.0640 H     1 <1>   0.0800 
 44 H        6.3920     0.2220     1.5660 H     1 <1>   0.0800 
 45 H        6.9550    -6.3260     1.6200 H     1 <1>   0.0800 
 46 H        7.7240    -4.7850     1.8640 H     1 <1>   0.0800 
 47 H        6.7450    -6.2040    -1.9710 H     1 <1>   0.0800 
 48 H        6.3580    -7.1010    -0.5270 H     1 <1>   0.0800 
 49 H        7.2340    -4.3200    -0.5080 H     1 <1>   0.4500 
 50 H        8.9790    -6.7070    -0.0740 H     1 <1>   0.0800 
 51 H        9.4770    -5.0400     0.1430 H     1 <1>   0.0800 
 52 H        9.0510    -5.6230    -1.4500 H     1 <1>   0.0800 
@<TRIPOS>BOND
  1   1   2  2   
  2   2   3  1   
  3   2   4  1   
  4   3   5  1   
  5   4   6  ar  
  6   4   7  ar  
  7   5  25  1   
  8   5  26  1   
  9   5  27  1   
 10   6   8  ar  
 11   6  28  1   
 12   7   9  ar  
 13   7  29  1   
 14   8  10  1   
 15   8  11  ar  
 16   9  11  ar  
 17   9  30  1   
 18  10  12  am  
 19  10  31  1   
 20  11  13  1   
 21  12  14  2   
 22  12  15  1   
 23  13  16  1   
 24  13  17  1   
 25  15  18  1   
 26  15  19  1   
 27  15  20  1   
 28  16  21  1   
 29  16  32  1   
 30  16  33  1   
 31  17  22  1   
 32  17  34  1   
 33  17  35  1   
 34  18  36  1   
 35  18  37  1   
 36  18  38  1   
 37  19  39  1   
 38  19  40  1   
 39  19  41  1   
 40  20  42  1   
 41  20  43  1   
 42  20  44  1   
 43  21  23  1   
 44  21  45  1   
 45  21  46  1   
 46  22  23  1   
 47  22  47  1   
 48  22  48  1   
 49  23  24  1   
 50  23  49  1   
 51  24  50  1   
 52  24  51  1   
 53  24  52  1   
@<TRIPOS>SUBSTRUCTURE
  1 ****   8 GROUP 4 **** **** 0

# MOE 2024.06 (io_trps.svl 2023.06)
