@<TRIPOS>MOLECULE
5-Ethoxy-1,2-dimethyl-1H-indole-3-carboxylic acid
31 32 1 0 0 
SMALL
USER_CHARGES


@<TRIPOS>ATOM
  1 O        0.1240    -0.2760    -0.3570 O.co2 1 <1>  -0.9000 
  2 C        0.8620    -1.2060     0.0260 C.2   1 <1>   1.0330 
  3 O        2.0030    -0.9000     0.4270 O.co2 1 <1>  -0.9000 
  4 C        0.4120    -2.5950     0.0100 C.2   1 <1>  -0.2330 
  5 C       -0.9600    -2.9790     0.0250 C.ar  1 <1>   0.0000 
  6 C        1.1200    -3.7750    -0.0100 C.2   1 <1>  -0.3320 
  7 C       -1.0130    -4.3680     0.0230 C.ar  1 <1>  -0.1520 
  8 C       -2.1550    -2.2520     0.0420 C.ar  1 <1>  -0.1500 
  9 N        0.2740    -4.8440     0.0090 N.pl3 1 <1>   0.0480 
 10 C        2.6330    -3.9330    -0.0520 C.3   1 <1>  -0.0600 
 11 C       -2.2380    -5.0430     0.0350 C.ar  1 <1>  -0.1500 
 12 C       -3.3700    -2.9130     0.0530 C.ar  1 <1>   0.0820 
 13 C        0.6360    -6.2720     0.0090 C.3   1 <1>   0.0160 
 14 C       -3.4030    -4.3110     0.0500 C.ar  1 <1>  -0.1500 
 15 O       -4.5780    -2.2820     0.0650 O.3   1 <1>  -0.3630 
 16 C       -4.6270    -0.8750     0.0020 C.3   1 <1>   0.1200 
 17 C       -6.0930    -0.4510    -0.0080 C.3   1 <1>  -0.2400 
 18 H       -2.0760    -1.1830     0.0450 H     1 <1>   0.1500 
 19 H        3.1130    -2.9850    -0.2120 H     1 <1>   0.0800 
 20 H        2.9180    -4.5850    -0.8570 H     1 <1>   0.0800 
 21 H        2.9860    -4.3340     0.8800 H     1 <1>   0.0800 
 22 H       -2.2630    -6.1160     0.0310 H     1 <1>   0.1500 
 23 H        1.6510    -6.3920     0.3380 H     1 <1>   0.0800 
 24 H        0.5290    -6.6590    -0.9870 H     1 <1>   0.0800 
 25 H       -0.0150    -6.8020     0.6780 H     1 <1>   0.0800 
 26 H       -4.3600    -4.7980     0.0590 H     1 <1>   0.1500 
 27 H       -4.1290    -0.5570    -0.8980 H     1 <1>   0.0800 
 28 H       -4.1190    -0.4780     0.8640 H     1 <1>   0.0800 
 29 H       -6.5890    -0.8670    -0.8670 H     1 <1>   0.0800 
 30 H       -6.1590     0.6200    -0.0560 H     1 <1>   0.0800 
 31 H       -6.5790    -0.7890     0.8890 H     1 <1>   0.0800 
@<TRIPOS>BOND
  1   1   2  ar  
  2   2   3  ar  
  3   2   4  1   
  4   4   5  1   
  5   4   6  2   
  6   5   7  ar  
  7   5   8  ar  
  8   6   9  1   
  9   6  10  1   
 10   7   9  1   
 11   7  11  ar  
 12   8  12  ar  
 13   8  18  1   
 14   9  13  1   
 15  10  19  1   
 16  10  20  1   
 17  10  21  1   
 18  11  14  ar  
 19  11  22  1   
 20  12  14  ar  
 21  12  15  1   
 22  13  23  1   
 23  13  24  1   
 24  13  25  1   
 25  14  26  1   
 26  15  16  1   
 27  16  17  1   
 28  16  27  1   
 29  16  28  1   
 30  17  29  1   
 31  17  30  1   
 32  17  31  1   
@<TRIPOS>SUBSTRUCTURE
  1 ****   5 GROUP 4 **** **** 0

# MOE 2024.06 (io_trps.svl 2023.06)
