@<TRIPOS>MOLECULE
1-(3-Methoxy-benzyl)-pyrrolidine-2-carboxylic acid
34 35 1 0 0 
SMALL
USER_CHARGES


@<TRIPOS>ATOM
  1 O        0.1790     0.7690     0.6220 O.co2 1 <1>  -0.9000 
  2 C        1.2180     1.0360     0.0200 C.2   1 <1>   0.9060 
  3 O        1.3730     2.0450    -0.6880 O.co2 1 <1>  -0.9000 
  4 C        2.4640     0.1420     0.1850 C.3   1 <1>   0.3170 
  5 N        3.7080     0.8560    -0.2540 N.4   1 <1>  -0.9590 
  6 C        2.4580    -1.0990    -0.7030 C.3   1 <1>  -0.1600 
  7 C        4.6830    -0.0990    -0.8190 C.3   1 <1>   0.3430 
  8 C        4.1880     1.8460     0.7300 C.3   1 <1>   0.4860 
  9 C        3.9350    -1.4260    -0.9240 C.3   1 <1>  -0.1600 
 10 C        5.2250     2.7150     0.0480 C.ar  1 <1>  -0.1430 
 11 C        6.5760     2.5760     0.3360 C.ar  1 <1>  -0.1500 
 12 C        4.8130     3.6550    -0.8860 C.ar  1 <1>  -0.1500 
 13 C        7.5140     3.3690    -0.3180 C.ar  1 <1>   0.0830 
 14 C        5.7440     4.4440    -1.5370 C.ar  1 <1>  -0.1500 
 15 O        8.8490     3.2950    -0.0970 O.3   1 <1>  -0.3630 
 16 C        7.0900     4.2980    -1.2540 C.ar  1 <1>  -0.1500 
 17 C        9.3900     2.5090     0.9420 C.3   1 <1>   0.0400 
 18 H        2.5460    -0.1510     1.2160 H     1 <1>   0.0800 
 19 H        3.3100     1.4500    -1.0120 H     1 <1>   0.4500 
 20 H        1.9850    -0.8570    -1.6410 H     1 <1>   0.0800 
 21 H        1.9130    -1.9040    -0.2420 H     1 <1>   0.0800 
 22 H        5.5410    -0.2000    -0.1760 H     1 <1>   0.0800 
 23 H        5.0050     0.2400    -1.7910 H     1 <1>   0.0800 
 24 H        4.6110     1.3510     1.5870 H     1 <1>   0.0800 
 25 H        3.3640     2.4640     1.0530 H     1 <1>   0.0800 
 26 H        4.1040    -1.8980    -1.8760 H     1 <1>   0.0800 
 27 H        4.2850    -2.0840    -0.1470 H     1 <1>   0.0800 
 28 H        6.8900     1.8520     1.0630 H     1 <1>   0.1500 
 29 H        3.7630     3.7790    -1.1120 H     1 <1>   0.1500 
 30 H        5.4220     5.1720    -2.2620 H     1 <1>   0.1500 
 31 H        7.8200     4.9070    -1.7550 H     1 <1>   0.1500 
 32 H       10.4540     2.6640     0.9560 H     1 <1>   0.0800 
 33 H        9.1760     1.4740     0.7460 H     1 <1>   0.0800 
 34 H        8.9640     2.8250     1.8770 H     1 <1>   0.0800 
@<TRIPOS>BOND
  1   1   2  ar  
  2   2   3  ar  
  3   2   4  1   
  4   4   5  1   
  5   4   6  1   
  6   4  18  1   
  7   5   7  1   
  8   5   8  1   
  9   5  19  1   
 10   6   9  1   
 11   6  20  1   
 12   6  21  1   
 13   7   9  1   
 14   7  22  1   
 15   7  23  1   
 16   8  10  1   
 17   8  24  1   
 18   8  25  1   
 19   9  26  1   
 20   9  27  1   
 21  10  11  ar  
 22  10  12  ar  
 23  11  13  ar  
 24  11  28  1   
 25  12  14  ar  
 26  12  29  1   
 27  13  15  1   
 28  13  16  ar  
 29  14  16  ar  
 30  14  30  1   
 31  15  17  1   
 32  16  31  1   
 33  17  32  1   
 34  17  33  1   
 35  17  34  1   
@<TRIPOS>SUBSTRUCTURE
  1 ****  10 GROUP 4 **** **** 0

# MOE 2024.06 (io_trps.svl 2023.06)
