@<TRIPOS>MOLECULE
8-Benzyl-3-(3-hydroxy-propyl)-1-methyl-5,6,7,8-tetrahydro-1H-1,3,4b,8,9-pentaaza
51 54 1 0 0 
SMALL
USER_CHARGES


@<TRIPOS>ATOM
  1 O        2.1870     0.8340    -1.7040 O.2   1 <1>  -0.5750 
  2 C        2.8950     1.2900    -0.8300 C.2   1 <1>   0.6860 
  3 N        2.3520     2.1160     0.1520 N.am  1 <1>  -0.4260 
  4 N        4.2490     0.9800    -0.8080 N.am  1 <1>  -0.4410 
  5 C        3.1390     2.6330     1.1730 C.2   1 <1>   0.6990 
  6 C        0.8990     2.4590     0.1020 C.3   1 <1>   0.1330 
  7 C        5.0130     1.4920     0.2200 C.2   1 <1>   0.4210 
  8 C        4.8720     0.1060    -1.8460 C.3   1 <1>   0.0520 
  9 O        2.6600     3.3560     2.0320 O.2   1 <1>  -0.5750 
 10 C        4.5280     2.2910     1.1910 C.2   1 <1>   0.2710 
 11 C        0.6900     3.7710    -0.6580 C.3   1 <1>  -0.1670 
 12 N        6.3370     1.2980     0.4470 N.pl3 1 <1>  -0.7040 
 13 N        5.6170     2.5880     2.0300 N.pl3 1 <1>  -0.7670 
 14 C       -0.7960     4.1180    -0.7260 C.3   1 <1>   0.1130 
 15 C        6.6900     1.9630     1.5460 C.cat 1 <1>   1.0690 
 16 C        5.5960     3.4370     3.2350 C.3   1 <1>   0.3480 
 17 O       -0.9330     5.3050    -1.4160 O.3   1 <1>  -0.6840 
 18 N        7.9050     2.0370     2.1430 N.pl3 1 <1>  -0.5960 
 19 C        7.0170     3.9420     3.4910 C.3   1 <1>  -0.1670 
 20 C        8.0570     2.8170     3.4060 C.3   1 <1>   0.1600 
 21 C        9.1720     1.3560     1.7150 C.3   1 <1>   0.3050 
 22 C        8.9990     0.5290     0.4530 C.ar  1 <1>  -0.1510 
 23 C        8.6100    -0.8010     0.5380 C.ar  1 <1>  -0.1570 
 24 C        9.1690     1.1140    -0.7930 C.ar  1 <1>  -0.1570 
 25 C        8.3680    -1.5280    -0.6140 C.ar  1 <1>  -0.1570 
 26 C        8.9270     0.3840    -1.9430 C.ar  1 <1>  -0.1570 
 27 C        8.5220    -0.9350    -1.8530 C.ar  1 <1>  -0.1570 
 28 H        0.5130     2.5510     1.1040 H     1 <1>   0.0720 
 29 H        0.3490     1.6680    -0.3810 H     1 <1>   0.0720 
 30 H        4.2090    -0.0290    -2.6840 H     1 <1>   0.0720 
 31 H        5.0920    -0.8590    -1.4240 H     1 <1>   0.0720 
 32 H        5.7810     0.5530    -2.2080 H     1 <1>   0.0720 
 33 H        1.0670     3.6640    -1.6600 H     1 <1>   0.0720 
 34 H        1.2150     4.5630    -0.1540 H     1 <1>   0.0720 
 35 H        7.0030     0.7350    -0.0950 H     1 <1>   0.4450 
 36 H       -1.2190     4.2460     0.2560 H     1 <1>   0.0720 
 37 H       -1.3460     3.3610    -1.2600 H     1 <1>   0.0720 
 38 H        5.2470     2.8560     4.0730 H     1 <1>   0.0720 
 39 H        4.9280     4.2710     3.0930 H     1 <1>   0.0720 
 40 H       -0.4860     6.0330    -0.9450 H     1 <1>   0.3940 
 41 H        7.0600     4.3990     4.4640 H     1 <1>   0.0720 
 42 H        7.2570     4.7070     2.7730 H     1 <1>   0.0720 
 43 H        9.0440     3.2500     3.4540 H     1 <1>   0.0720 
 44 H        7.9430     2.1490     4.2440 H     1 <1>   0.0720 
 45 H        9.5150     0.7160     2.5110 H     1 <1>   0.0720 
 46 H        9.9320     2.1000     1.5440 H     1 <1>   0.0720 
 47 H        8.4890    -1.2810     1.4950 H     1 <1>   0.1430 
 48 H        9.4870     2.1400    -0.8820 H     1 <1>   0.1430 
 49 H        8.0690    -2.5620    -0.5470 H     1 <1>   0.1430 
 50 H        9.0620     0.8390    -2.9110 H     1 <1>   0.1430 
 51 H        8.3410    -1.5060    -2.7500 H     1 <1>   0.1430 
@<TRIPOS>BOND
  1   1   2  2   
  2   2   3  am  
  3   2   4  am  
  4   3   5  am  
  5   3   6  1   
  6   4   7  1   
  7   4   8  1   
  8   5   9  2   
  9   5  10  1   
 10   6  11  1   
 11   6  28  1   
 12   6  29  1   
 13   7  10  2   
 14   7  12  1   
 15   8  30  1   
 16   8  31  1   
 17   8  32  1   
 18  10  13  1   
 19  11  14  1   
 20  11  33  1   
 21  11  34  1   
 22  12  15  ar  
 23  12  35  1   
 24  13  15  ar  
 25  13  16  1   
 26  14  17  1   
 27  14  36  1   
 28  14  37  1   
 29  15  18  ar  
 30  16  19  1   
 31  16  38  1   
 32  16  39  1   
 33  17  40  1   
 34  18  20  1   
 35  18  21  1   
 36  19  20  1   
 37  19  41  1   
 38  19  42  1   
 39  20  43  1   
 40  20  44  1   
 41  21  22  1   
 42  21  45  1   
 43  21  46  1   
 44  22  23  ar  
 45  22  24  ar  
 46  23  25  ar  
 47  23  47  1   
 48  24  26  ar  
 49  24  48  1   
 50  25  27  ar  
 51  25  49  1   
 52  26  27  ar  
 53  26  50  1   
 54  27  51  1   
@<TRIPOS>SUBSTRUCTURE
  1 ****   7 GROUP 4 **** **** 0

# MOE 2024.06 (io_trps.svl 2023.06)
