@<TRIPOS>MOLECULE
3-Pyrrolidin-1-yl-propionic acid
23 23 1 0 0 
SMALL
USER_CHARGES


@<TRIPOS>ATOM
  1 O        0.9280     1.0350    -1.2760 O.co2 1 <1>  -0.9000 
  2 C        1.3660     1.0590    -0.1280 C.2   1 <1>   0.9060 
  3 O        1.9660     0.1360     0.4140 O.co2 1 <1>  -0.9000 
  4 C        1.3170     2.3650     0.5750 C.3   1 <1>  -0.2660 
  5 C        2.4250     3.1290    -0.1000 C.3   1 <1>   0.3430 
  6 N        2.4320     4.5320     0.3850 N.4   1 <1>  -0.9590 
  7 C        1.2850     5.3130    -0.1320 C.3   1 <1>   0.3430 
  8 C        3.6490     5.2590    -0.0250 C.3   1 <1>   0.3430 
  9 C        1.7350     6.7650    -0.0300 C.3   1 <1>  -0.1600 
 10 C        3.2620     6.7270     0.0910 C.3   1 <1>  -0.1600 
 11 H        1.5050     2.2130     1.6190 H     1 <1>   0.0800 
 12 H        0.3470     2.7910     0.4090 H     1 <1>   0.0800 
 13 H        2.2800     3.1000    -1.1690 H     1 <1>   0.0800 
 14 H        3.3630     2.6440     0.1240 H     1 <1>   0.0800 
 15 H        2.3820     4.5120     1.4100 H     1 <1>   0.4500 
 16 H        0.3880     5.1260     0.4370 H     1 <1>   0.0800 
 17 H        1.1100     5.0570    -1.1650 H     1 <1>   0.0800 
 18 H        3.8800     5.0260    -1.0530 H     1 <1>   0.0800 
 19 H        4.4930     5.0110     0.5990 H     1 <1>   0.0800 
 20 H        1.2980     7.2240     0.8400 H     1 <1>   0.0800 
 21 H        1.4180     7.3120    -0.9010 H     1 <1>   0.0800 
 22 H        3.7420     7.3070    -0.6790 H     1 <1>   0.0800 
 23 H        3.5720     7.1060     1.0500 H     1 <1>   0.0800 
@<TRIPOS>BOND
  1   1   2  ar  
  2   2   3  ar  
  3   2   4  1   
  4   4   5  1   
  5   4  11  1   
  6   4  12  1   
  7   5   6  1   
  8   5  13  1   
  9   5  14  1   
 10   6   7  1   
 11   6   8  1   
 12   6  15  1   
 13   7   9  1   
 14   7  16  1   
 15   7  17  1   
 16   8  10  1   
 17   8  18  1   
 18   8  19  1   
 19   9  10  1   
 20   9  20  1   
 21   9  21  1   
 22  10  22  1   
 23  10  23  1   
@<TRIPOS>SUBSTRUCTURE
  1 ****   5 GROUP 4 **** **** 0

# MOE 2024.06 (io_trps.svl 2023.06)
