@<TRIPOS>MOLECULE
1-[3-(3,4-Dimethyl-phenoxy)-propyl]-1H-benzotriazole
40 42 1 0 0 
SMALL
USER_CHARGES


@<TRIPOS>ATOM
  1 O       -1.0530     0.1420     0.3560 O.3   1 <1>  -0.3630 
  2 C       -1.2290    -1.1940     0.5110 C.ar  1 <1>   0.0830 
  3 C       -1.8070     0.8750    -0.5780 C.3   1 <1>   0.1200 
  4 C       -2.1280    -1.9530    -0.2330 C.ar  1 <1>  -0.1500 
  5 C       -0.4550    -1.8150     1.4750 C.ar  1 <1>  -0.1500 
  6 C       -1.3770     2.3370    -0.4820 C.3   1 <1>  -0.1600 
  7 C       -2.2530    -3.3170    -0.0130 C.ar  1 <1>  -0.1440 
  8 C       -0.5750    -3.1740     1.6970 C.ar  1 <1>  -0.1500 
  9 C       -2.2070     3.2130    -1.4280 C.3   1 <1>   0.0960 
 10 C       -1.4710    -3.9330     0.9590 C.ar  1 <1>  -0.1430 
 11 C       -3.2480    -4.1130    -0.8470 C.3   1 <1>  -0.0970 
 12 N       -1.7750     4.6210    -1.3570 N.pl3 1 <1>   0.3140 
 13 C       -1.5730    -5.4260     1.2360 C.3   1 <1>  -0.0960 
 14 N       -1.0150     5.1930    -2.3040 N.2   1 <1>  -0.4180 
 15 C       -2.0730     5.5200    -0.3930 C.ar  1 <1>  -0.1520 
 16 N       -0.8120     6.4170    -1.9860 N.2   1 <1>  -0.2270 
 17 C       -1.4460     6.6630    -0.8150 C.ar  1 <1>   0.2270 
 18 C       -2.8100     5.4900     0.7970 C.ar  1 <1>  -0.1500 
 19 C       -1.5320     7.8310    -0.0540 C.ar  1 <1>  -0.1500 
 20 C       -2.8930     6.6430     1.5440 C.ar  1 <1>  -0.1500 
 21 C       -2.2530     7.8160     1.1190 C.ar  1 <1>  -0.1500 
 22 H       -2.8480     0.7620    -0.3300 H     1 <1>   0.0800 
 23 H       -1.6080     0.4780    -1.5590 H     1 <1>   0.0800 
 24 H       -2.7370    -1.4950    -0.9860 H     1 <1>   0.1500 
 25 H        0.2400    -1.2290     2.0480 H     1 <1>   0.1500 
 26 H       -0.3360     2.4130    -0.7470 H     1 <1>   0.0800 
 27 H       -1.5080     2.6750     0.5310 H     1 <1>   0.0800 
 28 H        0.0360    -3.6360     2.4520 H     1 <1>   0.1500 
 29 H       -3.2490     3.1650    -1.1700 H     1 <1>   0.0800 
 30 H       -2.0870     2.8770    -2.4430 H     1 <1>   0.0800 
 31 H       -3.7610    -3.4820    -1.5480 H     1 <1>   0.0800 
 32 H       -3.9800    -4.5710    -0.2070 H     1 <1>   0.0800 
 33 H       -2.7350    -4.8810    -1.3980 H     1 <1>   0.0800 
 34 H       -2.5720    -5.6770     1.5410 H     1 <1>   0.0800 
 35 H       -0.8980    -5.7210     2.0180 H     1 <1>   0.0800 
 36 H       -1.3250    -5.9820     0.3500 H     1 <1>   0.0800 
 37 H       -3.2960     4.5850     1.1160 H     1 <1>   0.1500 
 38 H       -1.0310     8.7150    -0.4040 H     1 <1>   0.1500 
 39 H       -3.4500     6.6570     2.4650 H     1 <1>   0.1500 
 40 H       -2.3320     8.7050     1.7210 H     1 <1>   0.1500 
@<TRIPOS>BOND
  1   1   2  1   
  2   1   3  1   
  3   2   4  ar  
  4   2   5  ar  
  5   3   6  1   
  6   3  22  1   
  7   3  23  1   
  8   4   7  ar  
  9   4  24  1   
 10   5   8  ar  
 11   5  25  1   
 12   6   9  1   
 13   6  26  1   
 14   6  27  1   
 15   7  10  ar  
 16   7  11  1   
 17   8  10  ar  
 18   8  28  1   
 19   9  12  1   
 20   9  29  1   
 21   9  30  1   
 22  10  13  1   
 23  11  31  1   
 24  11  32  1   
 25  11  33  1   
 26  12  14  1   
 27  12  15  1   
 28  13  34  1   
 29  13  35  1   
 30  13  36  1   
 31  14  16  2   
 32  15  17  ar  
 33  15  18  ar  
 34  16  17  1   
 35  17  19  ar  
 36  18  20  ar  
 37  18  37  1   
 38  19  21  ar  
 39  19  38  1   
 40  20  21  ar  
 41  20  39  1   
 42  21  40  1   
@<TRIPOS>SUBSTRUCTURE
  1 ****   6 GROUP 4 **** **** 0

# MOE 2024.06 (io_trps.svl 2023.06)
