@<TRIPOS>MOLECULE
1-(4-Methoxy-3-methyl-benzenesulfonyl)-piperidine-4-carboxylic acid 4-methoxy-be
58 60 1 0 0 
SMALL
USER_CHARGES


@<TRIPOS>ATOM
  1 S        0.5860    -0.4190     2.2930 S.o2  1 <1>   1.4470 
  2 O        1.0970    -1.6060     2.9460 O.2   1 <1>  -0.6500 
  3 O        0.2890     0.7520     3.0910 O.2   1 <1>  -0.6500 
  4 N        1.7500     0.0630     1.1570 N.am  1 <1>  -0.8490 
  5 C       -0.8380    -0.8670     1.2630 C.ar  1 <1>  -0.0090 
  6 C        3.0800     0.1380     1.7640 C.3   1 <1>   0.1960 
  7 C        1.3860     1.3240     0.5030 C.3   1 <1>   0.1960 
  8 C       -2.0910    -0.3080     1.4790 C.ar  1 <1>  -0.1500 
  9 C       -0.7050    -1.7810     0.2260 C.ar  1 <1>  -0.1500 
 10 C        4.1360     0.4280     0.6950 C.3   1 <1>  -0.1600 
 11 C        2.3780     1.6420    -0.6160 C.3   1 <1>  -0.1600 
 12 C       -3.1820    -0.6360     0.6900 C.ar  1 <1>  -0.1430 
 13 C       -1.7810    -2.1230    -0.5740 C.ar  1 <1>  -0.1500 
 14 C        3.8180     1.7200    -0.0770 C.3   1 <1>  -0.0190 
 15 C       -3.0290    -1.5500    -0.3480 C.ar  1 <1>   0.0820 
 16 C       -4.5350     0.0040     0.9650 C.3   1 <1>  -0.0970 
 17 C        4.8590     1.9720    -1.1670 C.2   1 <1>   0.5690 
 18 O       -4.1220    -1.8430    -1.1000 O.3   1 <1>  -0.3630 
 19 O        4.6170     1.7100    -2.3210 O.2   1 <1>  -0.5700 
 20 N        6.0600     2.4720    -0.7910 N.am  1 <1>  -0.7300 
 21 C       -4.0700    -2.7720    -2.1590 C.3   1 <1>   0.0400 
 22 C        7.2390     2.5680    -1.6670 C.3   1 <1>   0.2840 
 23 C        8.4240     2.0340    -0.8840 C.ar  1 <1>  -0.1430 
 24 C        8.5480     0.6690    -0.6700 C.ar  1 <1>  -0.1500 
 25 C        9.3810     2.8930    -0.3640 C.ar  1 <1>  -0.1500 
 26 C        9.6140     0.1710     0.0560 C.ar  1 <1>  -0.1500 
 27 C       10.4500     2.3970     0.3630 C.ar  1 <1>  -0.1500 
 28 C       10.5700     1.0260     0.5790 C.ar  1 <1>   0.0820 
 29 O       11.5800     0.4570     1.2820 O.3   1 <1>  -0.3630 
 30 C       12.6190     1.2340     1.8340 C.3   1 <1>   0.0400 
 31 H        3.3200    -0.8020     2.2340 H     1 <1>   0.0800 
 32 H        3.0930     0.9040     2.5230 H     1 <1>   0.0800 
 33 H        1.3760     2.1260     1.2240 H     1 <1>   0.0800 
 34 H        0.3990     1.2440     0.0780 H     1 <1>   0.0800 
 35 H       -2.2100     0.3990     2.2830 H     1 <1>   0.1500 
 36 H        0.2580    -2.2290     0.0430 H     1 <1>   0.1500 
 37 H        4.1720    -0.4020     0.0110 H     1 <1>   0.0800 
 38 H        5.1000     0.5080     1.1640 H     1 <1>   0.0800 
 39 H        2.1130     2.5770    -1.0770 H     1 <1>   0.0800 
 40 H        2.3060     0.8760    -1.3690 H     1 <1>   0.0800 
 41 H       -1.6270    -2.8330    -1.3630 H     1 <1>   0.1500 
 42 H        3.8660     2.5460     0.6100 H     1 <1>   0.0800 
 43 H       -4.4850     0.6840     1.7960 H     1 <1>   0.0800 
 44 H       -5.2590    -0.7590     1.1880 H     1 <1>   0.0800 
 45 H       -4.8640     0.5460     0.0960 H     1 <1>   0.0800 
 46 H        6.2720     2.6180     0.1960 H     1 <1>   0.3700 
 47 H       -5.0510    -2.8370    -2.5940 H     1 <1>   0.0800 
 48 H       -3.7790    -3.7310    -1.7680 H     1 <1>   0.0800 
 49 H       -3.3670    -2.4240    -2.8940 H     1 <1>   0.0800 
 50 H        7.3970     3.5950    -1.9470 H     1 <1>   0.0800 
 51 H        7.0930     1.9870    -2.5620 H     1 <1>   0.0800 
 52 H        7.8110    -0.0080    -1.0690 H     1 <1>   0.1500 
 53 H        9.2980     3.9550    -0.5220 H     1 <1>   0.1500 
 54 H        9.7120    -0.8870     0.2240 H     1 <1>   0.1500 
 55 H       11.1740     3.0860     0.7510 H     1 <1>   0.1500 
 56 H       13.3020     0.5710     2.3340 H     1 <1>   0.0800 
 57 H       12.1990     1.9260     2.5420 H     1 <1>   0.0800 
 58 H       13.1270     1.7520     1.0410 H     1 <1>   0.0800 
@<TRIPOS>BOND
  1   1   2  2   
  2   1   3  2   
  3   1   4  am  
  4   1   5  1   
  5   4   6  1   
  6   4   7  1   
  7   5   8  ar  
  8   5   9  ar  
  9   6  10  1   
 10   6  31  1   
 11   6  32  1   
 12   7  11  1   
 13   7  33  1   
 14   7  34  1   
 15   8  12  ar  
 16   8  35  1   
 17   9  13  ar  
 18   9  36  1   
 19  10  14  1   
 20  10  37  1   
 21  10  38  1   
 22  11  14  1   
 23  11  39  1   
 24  11  40  1   
 25  12  15  ar  
 26  12  16  1   
 27  13  15  ar  
 28  13  41  1   
 29  14  17  1   
 30  14  42  1   
 31  15  18  1   
 32  16  43  1   
 33  16  44  1   
 34  16  45  1   
 35  17  19  2   
 36  17  20  am  
 37  18  21  1   
 38  20  22  1   
 39  20  46  1   
 40  21  47  1   
 41  21  48  1   
 42  21  49  1   
 43  22  23  1   
 44  22  50  1   
 45  22  51  1   
 46  23  24  ar  
 47  23  25  ar  
 48  24  26  ar  
 49  24  52  1   
 50  25  27  ar  
 51  25  53  1   
 52  26  28  ar  
 53  26  54  1   
 54  27  28  ar  
 55  27  55  1   
 56  28  29  1   
 57  29  30  1   
 58  30  56  1   
 59  30  57  1   
 60  30  58  1   
@<TRIPOS>SUBSTRUCTURE
  1 ****  10 GROUP 4 **** **** 0

# MOE 2024.06 (io_trps.svl 2023.06)
