@<TRIPOS>MOLECULE
2-Methoxy-5-(morpholine-4-sulfonyl)-phenylamine
34 35 1 0 0 
SMALL
USER_CHARGES


@<TRIPOS>ATOM
  1 S       -0.1160     0.0810     1.9870 S.o2  1 <1>   1.4470 
  2 O       -1.2210    -0.6460     2.5740 O.2   1 <1>  -0.6500 
  3 O        0.9290     0.6220     2.8290 O.2   1 <1>  -0.6500 
  4 N        0.6380    -0.9780     0.8970 N.am  1 <1>  -0.8490 
  5 C       -0.7770     1.4060     0.9370 C.ar  1 <1>  -0.0090 
  6 C        1.8070    -0.4140     0.2100 C.3   1 <1>   0.1960 
  7 C       -0.2770    -1.6350    -0.0460 C.3   1 <1>   0.1960 
  8 C       -0.0100     2.5250     0.6270 C.ar  1 <1>  -0.1500 
  9 C       -2.0570     1.3230     0.3960 C.ar  1 <1>  -0.1500 
 10 C        2.4840    -1.4700    -0.6820 C.3   1 <1>   0.1200 
 11 C        0.4770    -2.6460    -0.9290 C.3   1 <1>   0.1200 
 12 C       -0.4810     3.5310    -0.2020 C.ar  1 <1>   0.1000 
 13 C       -2.5530     2.3170    -0.4300 C.ar  1 <1>  -0.1500 
 14 O        1.5570    -2.0270    -1.5710 O.3   1 <1>  -0.5600 
 15 N        0.3290     4.6180    -0.5070 N.pl3 1 <1>  -0.9000 
 16 C       -1.7730     3.4180    -0.7240 C.ar  1 <1>   0.0820 
 17 O       -2.2740     4.3810    -1.5350 O.3   1 <1>  -0.3620 
 18 C       -2.8770     5.4680    -0.8700 C.3   1 <1>   0.0400 
 19 H        2.5200    -0.0640     0.9380 H     1 <1>   0.0800 
 20 H        1.5140     0.4200    -0.4050 H     1 <1>   0.0800 
 21 H       -0.7470    -0.9050    -0.6820 H     1 <1>   0.0800 
 22 H       -1.0470    -2.1550     0.5000 H     1 <1>   0.0800 
 23 H        0.9760     2.6210     1.0460 H     1 <1>   0.1500 
 24 H       -2.6760     0.4710     0.6270 H     1 <1>   0.1500 
 25 H        2.9020    -2.2590    -0.0800 H     1 <1>   0.0800 
 26 H        3.2690    -1.0220    -1.2630 H     1 <1>   0.0800 
 27 H       -0.1760    -3.0390    -1.6870 H     1 <1>   0.0800 
 28 H        0.8490    -3.4620    -0.3330 H     1 <1>   0.0800 
 29 H       -3.5420     2.2430    -0.8460 H     1 <1>   0.1500 
 30 H       -0.0150     5.1450    -1.3180 H     1 <1>   0.4000 
 31 H        1.3300     4.4250    -0.5910 H     1 <1>   0.4000 
 32 H       -3.2170     6.1700    -1.6090 H     1 <1>   0.0800 
 33 H       -2.1500     5.9310    -0.2250 H     1 <1>   0.0800 
 34 H       -3.7090     5.1050    -0.2940 H     1 <1>   0.0800 
@<TRIPOS>BOND
  1   1   2  2   
  2   1   3  2   
  3   1   4  am  
  4   1   5  1   
  5   4   6  1   
  6   4   7  1   
  7   5   8  ar  
  8   5   9  ar  
  9   6  10  1   
 10   6  19  1   
 11   6  20  1   
 12   7  11  1   
 13   7  21  1   
 14   7  22  1   
 15   8  12  ar  
 16   8  23  1   
 17   9  13  ar  
 18   9  24  1   
 19  10  14  1   
 20  10  25  1   
 21  10  26  1   
 22  11  14  1   
 23  11  27  1   
 24  11  28  1   
 25  12  15  1   
 26  12  16  ar  
 27  13  16  ar  
 28  13  29  1   
 29  15  30  1   
 30  15  31  1   
 31  16  17  1   
 32  17  18  1   
 33  18  32  1   
 34  18  33  1   
 35  18  34  1   
@<TRIPOS>SUBSTRUCTURE
  1 ****   5 GROUP 4 **** **** 0

# MOE 2024.06 (io_trps.svl 2023.06)
