@<TRIPOS>MOLECULE
[4-(2-Methyl-thiazol-4-yl)-phenyl]-pyrrolidin-1-yl-methanone
35 37 1 0 0 
SMALL
USER_CHARGES


@<TRIPOS>ATOM
  1 S        0.6210     0.6100     0.6940 S.3   1 <1>  -0.0800 
  2 C        0.1360    -0.9710     0.1360 C.2   1 <1>   0.1980 
  3 C        2.2760     0.0950     0.6070 C.2   1 <1>  -0.1100 
  4 N        1.1000    -1.7690    -0.0810 N.2   1 <1>  -0.5650 
  5 C       -1.3430    -1.2260    -0.0280 C.3   1 <1>  -0.0600 
  6 C        2.3430    -1.1850     0.1830 C.2   1 <1>   0.1730 
  7 C        3.5500    -1.9690    -0.0120 C.ar  1 <1>   0.0540 
  8 C        4.7410    -1.6420     0.6360 C.ar  1 <1>  -0.1500 
  9 C        3.5750    -3.0770    -0.8560 C.ar  1 <1>  -0.1500 
 10 C        5.8910    -2.3880     0.4520 C.ar  1 <1>  -0.1500 
 11 C        4.7240    -3.8220    -1.0400 C.ar  1 <1>  -0.1500 
 12 C        5.9110    -3.5040    -0.3820 C.ar  1 <1>   0.0860 
 13 C        7.1200    -4.2860    -0.5500 C.2   1 <1>   0.5440 
 14 O        8.1740    -3.7230    -0.7820 O.2   1 <1>  -0.5700 
 15 N        7.1170    -5.6580    -0.4370 N.am  1 <1>  -0.6600 
 16 C        8.3470    -6.4640    -0.6010 C.3   1 <1>   0.1400 
 17 C        6.0480    -6.4530     0.2100 C.3   1 <1>   0.1400 
 18 C        7.9470    -7.8810    -0.2060 C.3   1 <1>  -0.1600 
 19 C        6.7550    -7.6990     0.7290 C.3   1 <1>  -0.1600 
 20 H        3.0350     0.8030     0.8800 H     1 <1>   0.1500 
 21 H       -1.8420    -1.0960     0.9140 H     1 <1>   0.0800 
 22 H       -1.5030    -2.2310    -0.3740 H     1 <1>   0.0800 
 23 H       -1.7530    -0.5400    -0.7460 H     1 <1>   0.0800 
 24 H        4.7720    -0.7950     1.2970 H     1 <1>   0.1500 
 25 H        2.6760    -3.3550    -1.3790 H     1 <1>   0.1500 
 26 H        6.7990    -2.1110     0.9600 H     1 <1>   0.1500 
 27 H        4.7100    -4.6640    -1.7100 H     1 <1>   0.1500 
 28 H        9.1060    -6.0840     0.0630 H     1 <1>   0.0800 
 29 H        8.7010    -6.4140    -1.6160 H     1 <1>   0.0800 
 30 H        5.3140    -6.7240    -0.5290 H     1 <1>   0.0800 
 31 H        5.5790    -5.9040     1.0090 H     1 <1>   0.0800 
 32 H        8.7590    -8.4090     0.2600 H     1 <1>   0.0800 
 33 H        7.6420    -8.4150    -1.0890 H     1 <1>   0.0800 
 34 H        6.1030    -8.5550     0.7380 H     1 <1>   0.0800 
 35 H        7.1020    -7.5120     1.7310 H     1 <1>   0.0800 
@<TRIPOS>BOND
  1   1   2  1   
  2   1   3  1   
  3   2   4  2   
  4   2   5  1   
  5   3   6  2   
  6   3  20  1   
  7   4   6  1   
  8   5  21  1   
  9   5  22  1   
 10   5  23  1   
 11   6   7  1   
 12   7   8  ar  
 13   7   9  ar  
 14   8  10  ar  
 15   8  24  1   
 16   9  11  ar  
 17   9  25  1   
 18  10  12  ar  
 19  10  26  1   
 20  11  12  ar  
 21  11  27  1   
 22  12  13  1   
 23  13  14  2   
 24  13  15  am  
 25  15  16  1   
 26  15  17  1   
 27  16  18  1   
 28  16  28  1   
 29  16  29  1   
 30  17  19  1   
 31  17  30  1   
 32  17  31  1   
 33  18  19  1   
 34  18  32  1   
 35  18  33  1   
 36  19  34  1   
 37  19  35  1   
@<TRIPOS>SUBSTRUCTURE
  1 ****  11 GROUP 4 **** **** 0

# MOE 2024.06 (io_trps.svl 2023.06)
