@<TRIPOS>MOLECULE
3-[3-(4-tert-Butyl-phenyl)-[1,2,4]oxadiazol-5-yl]-N,N-dimethyl-propionamide
45 46 1 0 0 
SMALL
USER_CHARGES


@<TRIPOS>ATOM
  1 O        0.4360    -0.9400     1.8640 O.2   1 <1>  -0.5700 
  2 C        0.6150    -1.6020     0.8680 C.2   1 <1>   0.5690 
  3 N        1.4860    -1.2050    -0.1190 N.am  1 <1>  -0.6600 
  4 C       -0.1560    -2.9050     0.7280 C.3   1 <1>  -0.0990 
  5 C        1.8160    -1.9940    -1.3400 C.3   1 <1>   0.0600 
  6 C        2.1970     0.1030    -0.0400 C.3   1 <1>   0.0600 
  7 C       -1.2640    -3.0760     1.7800 C.3   1 <1>   0.0200 
  8 C       -2.0110    -4.3780     1.5740 C.2   1 <1>   0.2980 
  9 O       -1.4060    -5.5010     1.8560 O.3   1 <1>  -0.0190 
 10 N       -3.1940    -4.4910     1.1350 N.2   1 <1>  -0.5650 
 11 N       -2.2820    -6.4110     1.5700 N.2   1 <1>  -0.4100 
 12 C       -3.3430    -5.8200     1.1450 C.2   1 <1>   0.4620 
 13 C       -4.5680    -6.4770     0.7190 C.ar  1 <1>   0.0540 
 14 C       -4.6920    -7.8650     0.7340 C.ar  1 <1>  -0.1500 
 15 C       -5.6750    -5.7560     0.2750 C.ar  1 <1>  -0.1500 
 16 C       -5.8530    -8.4980     0.3290 C.ar  1 <1>  -0.1500 
 17 C       -6.8370    -6.3870    -0.1310 C.ar  1 <1>  -0.1500 
 18 C       -6.9540    -7.7720    -0.1140 C.ar  1 <1>  -0.1430 
 19 C       -8.2720    -8.4310    -0.5760 C.3   1 <1>   0.1430 
 20 C       -8.5540    -8.0470    -2.0370 C.3   1 <1>  -0.2400 
 21 C       -9.4280    -7.9450     0.3110 C.3   1 <1>  -0.2400 
 22 C       -8.2410    -9.9670    -0.4970 C.3   1 <1>  -0.2400 
 23 H        0.5400    -3.7190     0.8120 H     1 <1>   0.0800 
 24 H       -0.6060    -2.9360    -0.2470 H     1 <1>   0.0800 
 25 H        1.5390    -3.0270    -1.2290 H     1 <1>   0.0800 
 26 H        2.8760    -1.9520    -1.5240 H     1 <1>   0.0800 
 27 H        1.2980    -1.5800    -2.1870 H     1 <1>   0.0800 
 28 H        1.8610     0.6750     0.8080 H     1 <1>   0.0800 
 29 H        2.0080     0.6750    -0.9310 H     1 <1>   0.0800 
 30 H        3.2550    -0.0640     0.0590 H     1 <1>   0.0800 
 31 H       -1.9580    -2.2570     1.7070 H     1 <1>   0.0800 
 32 H       -0.8420    -3.0670     2.7690 H     1 <1>   0.0800 
 33 H       -3.8630    -8.4620     1.0690 H     1 <1>   0.1500 
 34 H       -5.6270    -4.6820     0.2460 H     1 <1>   0.1500 
 35 H       -5.8700    -9.5710     0.3700 H     1 <1>   0.1500 
 36 H       -7.6570    -5.7780    -0.4630 H     1 <1>   0.1500 
 37 H       -7.7320    -8.3530    -2.6610 H     1 <1>   0.0800 
 38 H       -8.6790    -6.9860    -2.1420 H     1 <1>   0.0800 
 39 H       -9.4490    -8.5260    -2.3900 H     1 <1>   0.0800 
 40 H       -9.5620    -6.8830     0.2270 H     1 <1>   0.0800 
 41 H       -9.2230    -8.1780     1.3410 H     1 <1>   0.0800 
 42 H      -10.3500    -8.4200     0.0290 H     1 <1>   0.0800 
 43 H       -7.4620   -10.3610    -1.1250 H     1 <1>   0.0800 
 44 H       -9.1760   -10.3820    -0.8280 H     1 <1>   0.0800 
 45 H       -8.0730   -10.2900     0.5150 H     1 <1>   0.0800 
@<TRIPOS>BOND
  1   1   2  2   
  2   2   3  am  
  3   2   4  1   
  4   3   5  1   
  5   3   6  1   
  6   4   7  1   
  7   4  23  1   
  8   4  24  1   
  9   5  25  1   
 10   5  26  1   
 11   5  27  1   
 12   6  28  1   
 13   6  29  1   
 14   6  30  1   
 15   7   8  1   
 16   7  31  1   
 17   7  32  1   
 18   8   9  1   
 19   8  10  2   
 20   9  11  1   
 21  10  12  1   
 22  11  12  2   
 23  12  13  1   
 24  13  14  ar  
 25  13  15  ar  
 26  14  16  ar  
 27  14  33  1   
 28  15  17  ar  
 29  15  34  1   
 30  16  18  ar  
 31  16  35  1   
 32  17  18  ar  
 33  17  36  1   
 34  18  19  1   
 35  19  20  1   
 36  19  21  1   
 37  19  22  1   
 38  20  37  1   
 39  20  38  1   
 40  20  39  1   
 41  21  40  1   
 42  21  41  1   
 43  21  42  1   
 44  22  43  1   
 45  22  44  1   
 46  22  45  1   
@<TRIPOS>SUBSTRUCTURE
  1 ****  12 GROUP 4 **** **** 0

# MOE 2024.06 (io_trps.svl 2023.06)
