@<TRIPOS>MOLECULE
[4-Chloro-3-(morpholine-4-sulfonyl)-phenyl]-(4-methyl-piperidin-1-yl)-methanone
48 50 1 0 0 
SMALL
USER_CHARGES


@<TRIPOS>ATOM
  1 CL      -0.3170     0.7470    -1.6020 Cl    1 <1>  -0.1770 
  2 C        1.1810     0.4170    -0.7720 C.ar  1 <1>   0.1770 
  3 C        1.7490    -0.8520    -0.7440 C.ar  1 <1>  -0.0090 
  4 C        1.7720     1.4880    -0.1260 C.ar  1 <1>  -0.1500 
  5 S        1.0320    -2.2960    -1.5680 S.o2  1 <1>   1.4470 
  6 C        2.9210    -1.0020    -0.0130 C.ar  1 <1>  -0.1500 
  7 C        2.9490     1.3060     0.5740 C.ar  1 <1>  -0.1500 
  8 O        2.1120    -3.2290    -1.8100 O.2   1 <1>  -0.6500 
  9 O        0.1720    -1.9540    -2.6780 O.2   1 <1>  -0.6500 
 10 N        0.0600    -2.9970    -0.3700 N.am  1 <1>  -0.8490 
 11 C        3.5550     0.0540     0.6420 C.ar  1 <1>   0.0860 
 12 C       -1.2110    -2.2790    -0.1660 C.3   1 <1>   0.1960 
 13 C       -0.2300    -4.4080    -0.6750 C.3   1 <1>   0.1960 
 14 C        4.7880    -0.1460     1.3810 C.2   1 <1>   0.5440 
 15 C       -2.0740    -2.9670     0.9070 C.3   1 <1>   0.1200 
 16 C       -1.1220    -5.0450     0.4060 C.3   1 <1>   0.1200 
 17 O        4.8880     0.3310     2.4950 O.2   1 <1>  -0.5700 
 18 N        5.8470    -0.8620     0.8600 N.am  1 <1>  -0.6600 
 19 O       -2.2990    -4.3070     0.5730 O.3   1 <1>  -0.5600 
 20 C        6.9240    -1.4010     1.7330 C.3   1 <1>   0.1400 
 21 C        6.0920    -1.0580    -0.5950 C.3   1 <1>   0.1400 
 22 C        7.0990    -2.8990     1.4570 C.3   1 <1>  -0.1600 
 23 C        6.2600    -2.5510    -0.8960 C.3   1 <1>  -0.1600 
 24 C        7.3650    -3.1790    -0.0310 C.3   1 <1>  -0.0800 
 25 C        7.4600    -4.6860    -0.2890 C.3   1 <1>  -0.2400 
 26 H        1.3080     2.4580    -0.1680 H     1 <1>   0.1500 
 27 H        3.3670    -1.9800     0.0600 H     1 <1>   0.1500 
 28 H        3.4120     2.1350     1.0840 H     1 <1>   0.1500 
 29 H       -1.7710    -2.2370    -1.0870 H     1 <1>   0.0800 
 30 H       -1.0120    -1.2710     0.1510 H     1 <1>   0.0800 
 31 H        0.6910    -4.9640    -0.7300 H     1 <1>   0.0800 
 32 H       -0.7220    -4.4860    -1.6310 H     1 <1>   0.0800 
 33 H       -3.0320    -2.4830     0.9820 H     1 <1>   0.0800 
 34 H       -1.5880    -2.9270     1.8660 H     1 <1>   0.0800 
 35 H       -0.6020    -5.0830     1.3480 H     1 <1>   0.0800 
 36 H       -1.3980    -6.0440     0.1200 H     1 <1>   0.0800 
 37 H        6.6790    -1.2550     2.7720 H     1 <1>   0.0800 
 38 H        7.8400    -0.8760     1.5270 H     1 <1>   0.0800 
 39 H        6.9940    -0.5350    -0.8650 H     1 <1>   0.0800 
 40 H        5.2900    -0.6510    -1.1840 H     1 <1>   0.0800 
 41 H        6.2070    -3.4110     1.7750 H     1 <1>   0.0800 
 42 H        7.9170    -3.2690     2.0490 H     1 <1>   0.0800 
 43 H        6.5030    -2.6730    -1.9370 H     1 <1>   0.0800 
 44 H        5.3260    -3.0540    -0.7210 H     1 <1>   0.0800 
 45 H        8.3060    -2.7280    -0.2990 H     1 <1>   0.0800 
 46 H        6.5350    -5.1740    -0.0330 H     1 <1>   0.0800 
 47 H        8.2490    -5.1170     0.3010 H     1 <1>   0.0800 
 48 H        7.6710    -4.8750    -1.3260 H     1 <1>   0.0800 
@<TRIPOS>BOND
  1   1   2  1   
  2   2   3  ar  
  3   2   4  ar  
  4   3   5  1   
  5   3   6  ar  
  6   4   7  ar  
  7   4  26  1   
  8   5   8  2   
  9   5   9  2   
 10   5  10  am  
 11   6  11  ar  
 12   6  27  1   
 13   7  11  ar  
 14   7  28  1   
 15  10  12  1   
 16  10  13  1   
 17  11  14  1   
 18  12  15  1   
 19  12  29  1   
 20  12  30  1   
 21  13  16  1   
 22  13  31  1   
 23  13  32  1   
 24  14  17  2   
 25  14  18  am  
 26  15  19  1   
 27  15  33  1   
 28  15  34  1   
 29  16  19  1   
 30  16  35  1   
 31  16  36  1   
 32  18  20  1   
 33  18  21  1   
 34  20  22  1   
 35  20  37  1   
 36  20  38  1   
 37  21  23  1   
 38  21  39  1   
 39  21  40  1   
 40  22  24  1   
 41  22  41  1   
 42  22  42  1   
 43  23  24  1   
 44  23  43  1   
 45  23  44  1   
 46  24  25  1   
 47  24  45  1   
 48  25  46  1   
 49  25  47  1   
 50  25  48  1   
@<TRIPOS>SUBSTRUCTURE
  1 ****   6 GROUP 4 **** **** 0

# MOE 2024.06 (io_trps.svl 2023.06)
