@<TRIPOS>MOLECULE
2-(Benzo[1,3]dioxol-5-yl-methanesulfonyl-amino)-acetamide
30 31 1 0 0 
SMALL
USER_CHARGES


@<TRIPOS>ATOM
  1 S        0.3520    -0.1660     0.5530 S.o2  1 <1>   1.3330 
  2 O        1.7610    -0.3580     0.8060 O.2   1 <1>  -0.6500 
  3 O       -0.2600    -0.7750    -0.6000 O.2   1 <1>  -0.6500 
  4 N        0.1020     1.5440     0.4570 N.am  1 <1>  -0.6930 
  5 C       -0.5540    -0.5950     2.0230 C.3   1 <1>  -0.1350 
  6 C       -1.1510     2.0740     0.1720 C.ar  1 <1>   0.1990 
  7 C        1.2920     2.3810     0.1050 C.3   1 <1>   0.2570 
  8 C       -1.7330     1.9090    -1.0830 C.ar  1 <1>  -0.1500 
  9 C       -1.8330     2.7890     1.1610 C.ar  1 <1>  -0.1500 
 10 C        1.8430     2.1440    -1.3080 C.2   1 <1>   0.5690 
 11 C       -2.9780     2.4580    -1.3050 C.ar  1 <1>   0.0820 
 12 C       -3.0870     3.3350     0.9210 C.ar  1 <1>  -0.1500 
 13 O        1.6770     2.9800    -2.1600 O.2   1 <1>  -0.5700 
 14 N        2.5310     1.0210    -1.5960 N.am  1 <1>  -0.8000 
 15 O       -3.7160     2.4190    -2.4200 O.3   1 <1>  -0.3630 
 16 C       -3.6380     3.1500    -0.3310 C.ar  1 <1>   0.0820 
 17 C       -4.9160     3.1370    -2.1420 C.3   1 <1>   0.4000 
 18 O       -4.8220     3.5800    -0.7890 O.3   1 <1>  -0.3630 
 19 H       -0.4620    -1.6460     2.2160 H     1 <1>   0.0800 
 20 H       -1.5930    -0.3600     1.8980 H     1 <1>   0.0800 
 21 H       -0.1730    -0.0540     2.8650 H     1 <1>   0.0800 
 22 H        2.0780     2.1950     0.8140 H     1 <1>   0.0800 
 23 H        1.0240     3.4190     0.1850 H     1 <1>   0.0800 
 24 H       -1.2280     1.3700    -1.8640 H     1 <1>   0.1500 
 25 H       -1.3730     2.9170     2.1230 H     1 <1>   0.1500 
 26 H       -3.6220     3.8880     1.6720 H     1 <1>   0.1500 
 27 H        2.8390     0.8400    -2.5510 H     1 <1>   0.3700 
 28 H        2.6240     0.2460    -0.9260 H     1 <1>   0.3700 
 29 H       -5.7610     2.4800    -2.2490 H     1 <1>   0.0800 
 30 H       -4.9860     3.9880    -2.7960 H     1 <1>   0.0800 
@<TRIPOS>BOND
  1   1   2  2   
  2   1   3  2   
  3   1   4  am  
  4   1   5  1   
  5   4   6  1   
  6   4   7  1   
  7   5  19  1   
  8   5  20  1   
  9   5  21  1   
 10   6   8  ar  
 11   6   9  ar  
 12   7  10  1   
 13   7  22  1   
 14   7  23  1   
 15   8  11  ar  
 16   8  24  1   
 17   9  12  ar  
 18   9  25  1   
 19  10  13  2   
 20  10  14  am  
 21  11  15  1   
 22  11  16  ar  
 23  12  16  ar  
 24  12  26  1   
 25  14  27  1   
 26  14  28  1   
 27  15  17  1   
 28  16  18  1   
 29  17  18  1   
 30  17  29  1   
 31  17  30  1   
@<TRIPOS>SUBSTRUCTURE
  1 ****   6 GROUP 4 **** **** 0

# MOE 2024.06 (io_trps.svl 2023.06)
