@<TRIPOS>MOLECULE
3-tert-Butyl-6-phenoxymethyl-[1,2,4]triazolo[3,4-b][1,3,4]thiadiazole
36 38 1 0 0 
SMALL
USER_CHARGES


@<TRIPOS>ATOM
  1 S       -0.0700    -0.0660    -1.5230 S.3   1 <1>  -0.1970 
  2 C        1.2330     1.0400    -1.1430 C.2   1 <1>   0.2420 
  3 C       -1.2070     1.1310    -0.8660 C.2   1 <1>   0.5300 
  4 N        2.5100     1.0340    -1.2730 N.2   1 <1>  -0.3380 
  5 N        0.7280     2.1320    -0.5950 N.pl3 1 <1>   0.5050 
  6 N       -0.6650     2.2020    -0.4410 N.2   1 <1>  -0.6520 
  7 C       -2.6790     0.7610    -0.9000 C.3   1 <1>   0.1810 
  8 N        2.9000     2.2200    -0.7710 N.2   1 <1>  -0.3380 
  9 C        1.8370     2.8620    -0.3730 C.2   1 <1>   0.0060 
 10 O       -2.9090    -0.3750    -0.0900 O.3   1 <1>  -0.3630 
 11 C        1.8120     4.2580     0.2680 C.3   1 <1>   0.1800 
 12 C       -4.1480    -0.9120     0.0340 C.ar  1 <1>   0.0820 
 13 C        0.9880     5.2210    -0.5990 C.3   1 <1>  -0.2400 
 14 C        3.2360     4.8260     0.3950 C.3   1 <1>  -0.2400 
 15 C        1.2000     4.1810     1.6740 C.3   1 <1>  -0.2400 
 16 C       -4.2570    -2.0500     0.8170 C.ar  1 <1>  -0.1500 
 17 C       -5.2870    -0.3870    -0.5750 C.ar  1 <1>  -0.1500 
 18 C       -5.4840    -2.6640     0.9960 C.ar  1 <1>  -0.1500 
 19 C       -6.5130    -1.0030    -0.3940 C.ar  1 <1>  -0.1500 
 20 C       -6.6130    -2.1400     0.3900 C.ar  1 <1>  -0.1500 
 21 H       -2.9760     0.5280    -1.9060 H     1 <1>   0.0800 
 22 H       -3.2660     1.5750    -0.5150 H     1 <1>   0.0800 
 23 H        1.3960     5.2630    -1.5940 H     1 <1>   0.0800 
 24 H        1.0040     6.2120    -0.1820 H     1 <1>   0.0800 
 25 H       -0.0360     4.9010    -0.6630 H     1 <1>   0.0800 
 26 H        3.8430     4.1790     1.0040 H     1 <1>   0.0800 
 27 H        3.2220     5.8030     0.8440 H     1 <1>   0.0800 
 28 H        3.6960     4.9020    -0.5740 H     1 <1>   0.0800 
 29 H        1.7570     3.4910     2.2830 H     1 <1>   0.0800 
 30 H        0.1780     3.8500     1.6320 H     1 <1>   0.0800 
 31 H        1.2200     5.1460     2.1480 H     1 <1>   0.0800 
 32 H       -3.3770    -2.4520     1.2850 H     1 <1>   0.1500 
 33 H       -5.2450     0.4930    -1.1870 H     1 <1>   0.1500 
 34 H       -5.5610    -3.5470     1.6060 H     1 <1>   0.1500 
 35 H       -7.3940    -0.5990    -0.8620 H     1 <1>   0.1500 
 36 H       -7.5680    -2.6160     0.5290 H     1 <1>   0.1500 
@<TRIPOS>BOND
  1   1   2  1   
  2   1   3  1   
  3   2   4  2   
  4   2   5  1   
  5   3   6  2   
  6   3   7  1   
  7   4   8  1   
  8   5   6  1   
  9   5   9  1   
 10   7  10  1   
 11   7  21  1   
 12   7  22  1   
 13   8   9  2   
 14   9  11  1   
 15  10  12  1   
 16  11  13  1   
 17  11  14  1   
 18  11  15  1   
 19  12  16  ar  
 20  12  17  ar  
 21  13  23  1   
 22  13  24  1   
 23  13  25  1   
 24  14  26  1   
 25  14  27  1   
 26  14  28  1   
 27  15  29  1   
 28  15  30  1   
 29  15  31  1   
 30  16  18  ar  
 31  16  32  1   
 32  17  19  ar  
 33  17  33  1   
 34  18  20  ar  
 35  18  34  1   
 36  19  20  ar  
 37  19  35  1   
 38  20  36  1   
@<TRIPOS>SUBSTRUCTURE
  1 ****   3 GROUP 4 **** **** 0

# MOE 2024.06 (io_trps.svl 2023.06)
