@<TRIPOS>MOLECULE
8,8-Dimethyl-5-(4-methylsulfanyl-phenyl)-5,8,9,10-tetrahydro-1H,7H-pyrimido[4,5-
48 51 1 0 0 
SMALL
USER_CHARGES


@<TRIPOS>ATOM
  1 S        0.5080     0.2550     0.5420 S.3   1 <1>  -0.3320 
  2 C        0.2470     1.9550     0.0040 C.ar  1 <1>   0.1020 
  3 C        1.0310     0.3320     2.3110 C.3   1 <1>  -0.0100 
  4 C       -0.1420     2.1480    -1.3080 C.ar  1 <1>  -0.1500 
  5 C        0.4250     3.0340     0.8550 C.ar  1 <1>  -0.1500 
  6 C       -0.3540     3.4320    -1.7780 C.ar  1 <1>  -0.1500 
  7 C        0.2100     4.3150     0.3770 C.ar  1 <1>  -0.1500 
  8 C       -0.1780     4.5260    -0.9410 C.ar  1 <1>  -0.1430 
  9 C       -0.4060     5.9450    -1.4670 C.3   1 <1>   0.3400 
 10 C        0.9040     6.7170    -1.3540 C.2   1 <1>  -0.1240 
 11 C       -1.5300     6.6050    -0.6610 C.2   1 <1>  -0.1240 
 12 C        1.0590     7.6860    -0.4120 C.2   1 <1>   0.2090 
 13 C        1.9750     6.4050    -2.2250 C.2   1 <1>   0.6160 
 14 C       -1.2490     7.5930     0.2300 C.2   1 <1>  -0.0380 
 15 C       -2.8460     6.1140    -0.8940 C.2   1 <1>   0.4950 
 16 N        2.2740     8.3130    -0.2820 N.am  1 <1>  -0.5390 
 17 N        0.0300     8.0740     0.4080 N.pl3 1 <1>  -0.6000 
 18 O        1.9040     5.6200    -3.1530 O.2   1 <1>  -0.5700 
 19 N        3.1630     7.0490    -2.0330 N.am  1 <1>  -0.4900 
 20 C       -2.3390     8.2320     1.0830 C.3   1 <1>  -0.0220 
 21 O       -3.1410     5.3420    -1.7760 O.2   1 <1>  -0.5700 
 22 C       -3.9590     6.6040     0.0160 C.3   1 <1>  -0.0990 
 23 C        3.3340     7.9960    -1.0770 C.2   1 <1>   0.6900 
 24 C       -3.7480     8.0650     0.4690 C.3   1 <1>   0.0000 
 25 O        4.3980     8.5510    -0.9340 O.2   1 <1>  -0.5700 
 26 C       -4.8130     8.4330     1.5140 C.3   1 <1>  -0.2400 
 27 C       -3.9110     9.0130    -0.7350 C.3   1 <1>  -0.2400 
 28 H        1.1990    -0.6770     2.6430 H     1 <1>   0.0800 
 29 H        0.2370     0.7910     2.8720 H     1 <1>   0.0800 
 30 H        1.9370     0.9070     2.3640 H     1 <1>   0.0800 
 31 H       -0.2780     1.3000    -1.9540 H     1 <1>   0.1500 
 32 H        0.7240     2.8960     1.8740 H     1 <1>   0.1500 
 33 H       -0.6580     3.5750    -2.8020 H     1 <1>   0.1500 
 34 H        0.3480     5.1530     1.0390 H     1 <1>   0.1500 
 35 H       -0.6950     5.9160    -2.5040 H     1 <1>   0.0800 
 36 H        2.4480     9.0380     0.4090 H     1 <1>   0.3700 
 37 H        0.2020     8.8070     1.1030 H     1 <1>   0.4000 
 38 H        3.9410     6.8200    -2.6400 H     1 <1>   0.3700 
 39 H       -2.1330     9.2800     1.2130 H     1 <1>   0.0800 
 40 H       -2.3080     7.7710     2.0550 H     1 <1>   0.0800 
 41 H       -3.9880     5.9540     0.8710 H     1 <1>   0.0800 
 42 H       -4.8980     6.5090    -0.4980 H     1 <1>   0.0800 
 43 H       -4.7450     7.7890     2.3740 H     1 <1>   0.0800 
 44 H       -5.8010     8.3340     1.0990 H     1 <1>   0.0800 
 45 H       -4.6880     9.4500     1.8430 H     1 <1>   0.0800 
 46 H       -3.1730     8.8180    -1.4930 H     1 <1>   0.0800 
 47 H       -3.8070    10.0390    -0.4270 H     1 <1>   0.0800 
 48 H       -4.8840     8.8960    -1.1800 H     1 <1>   0.0800 
@<TRIPOS>BOND
  1   1   2  1   
  2   1   3  1   
  3   2   4  ar  
  4   2   5  ar  
  5   3  28  1   
  6   3  29  1   
  7   3  30  1   
  8   4   6  ar  
  9   4  31  1   
 10   5   7  ar  
 11   5  32  1   
 12   6   8  ar  
 13   6  33  1   
 14   7   8  ar  
 15   7  34  1   
 16   8   9  1   
 17   9  10  1   
 18   9  11  1   
 19   9  35  1   
 20  10  12  2   
 21  10  13  1   
 22  11  14  2   
 23  11  15  1   
 24  12  16  1   
 25  12  17  1   
 26  13  18  2   
 27  13  19  am  
 28  14  17  1   
 29  14  20  1   
 30  15  21  2   
 31  15  22  1   
 32  16  23  am  
 33  16  36  1   
 34  17  37  1   
 35  19  23  am  
 36  19  38  1   
 37  20  24  1   
 38  20  39  1   
 39  20  40  1   
 40  22  24  1   
 41  22  41  1   
 42  22  42  1   
 43  23  25  2   
 44  24  26  1   
 45  24  27  1   
 46  26  43  1   
 47  26  44  1   
 48  26  45  1   
 49  27  46  1   
 50  27  47  1   
 51  27  48  1   
@<TRIPOS>SUBSTRUCTURE
  1 ****   9 GROUP 4 **** **** 0

# MOE 2024.06 (io_trps.svl 2023.06)
