@<TRIPOS>MOLECULE
3-Methyl-8-piperidin-1-yl-7-[2-(pyrimidin-2-ylsulfanyl)-ethyl]-3,7-dihydro-purin
49 52 1 0 0 
SMALL
USER_CHARGES


@<TRIPOS>ATOM
  1 S       -2.9140    -0.2700     1.2460 S.3   1 <1>  -0.3380 
  2 C       -1.2580     0.3750     1.0690 C.ar  1 <1>   0.7180 
  3 C       -3.6700    -0.1680    -0.4480 C.3   1 <1>   0.0620 
  4 N       -0.9390     0.8340    -0.1320 N.ar  1 <1>  -0.6250 
  5 N       -0.5220     0.2970     2.1630 N.ar  1 <1>  -0.6250 
  6 C       -3.0510    -1.2230    -1.3820 C.3   1 <1>   0.3480 
  7 C        0.2750     1.3350    -0.2120 C.ar  1 <1>   0.1520 
  8 C        0.6840     0.8070     2.0440 C.ar  1 <1>   0.1520 
  9 N       -2.9480    -2.5590    -0.7160 N.pl3 1 <1>  -0.7680 
 10 C        1.1350     1.3460     0.8620 C.ar  1 <1>  -0.1580 
 11 C       -1.8970    -3.0900    -0.0700 C.cat 1 <1>   1.0690 
 12 C       -4.0890    -3.2660    -0.2910 C.2   1 <1>   0.2700 
 13 N       -2.3180    -4.0690     0.7320 N.pl3 1 <1>  -0.7040 
 14 N       -0.5980    -2.7460    -0.1700 N.pl3 1 <1>  -0.5970 
 15 C       -5.4920    -3.1940    -0.5750 C.2   1 <1>   0.6990 
 16 C       -3.6640    -4.1870     0.6020 C.2   1 <1>   0.4200 
 17 C        0.0520    -2.3420    -1.4480 C.3   1 <1>   0.1600 
 18 C        0.3560    -2.8640     0.9690 C.3   1 <1>   0.1600 
 19 O       -5.9830    -2.3940    -1.3470 O.2   1 <1>  -0.5750 
 20 N       -6.3070    -4.0780     0.0710 N.am  1 <1>  -0.4950 
 21 N       -4.5060    -5.0780     1.2530 N.am  1 <1>  -0.4420 
 22 C        1.1540    -3.3460    -1.8080 C.3   1 <1>  -0.1680 
 23 C        1.4330    -3.9000     0.6390 C.3   1 <1>  -0.1680 
 24 C       -5.8610    -5.0090     0.9650 C.2   1 <1>   0.6860 
 25 C       -3.9730    -6.0580     2.2420 C.3   1 <1>   0.0520 
 26 C        2.1580    -3.5390    -0.6640 C.3   1 <1>  -0.1680 
 27 O       -6.6700    -5.7480     1.4760 O.2   1 <1>  -0.5750 
 28 H       -3.5070     0.8280    -0.8210 H     1 <1>   0.0720 
 29 H       -4.7260    -0.3250    -0.3290 H     1 <1>   0.0720 
 30 H       -2.0840    -0.8760    -1.6910 H     1 <1>   0.0720 
 31 H       -3.6570    -1.3090    -2.2690 H     1 <1>   0.0720 
 32 H        0.5930     1.7500    -1.1550 H     1 <1>   0.1420 
 33 H        1.3260     0.7960     2.9110 H     1 <1>   0.1420 
 34 H        2.1220     1.7640     0.7820 H     1 <1>   0.1420 
 35 H       -1.6990    -4.6250     1.3120 H     1 <1>   0.4440 
 36 H        0.4750    -1.3580    -1.3370 H     1 <1>   0.0720 
 37 H       -0.6610    -2.3230    -2.2530 H     1 <1>   0.0720 
 38 H       -0.1550    -3.1300     1.8790 H     1 <1>   0.0720 
 39 H        0.8240    -1.9080     1.1300 H     1 <1>   0.0720 
 40 H       -7.3080    -4.0460    -0.1120 H     1 <1>   0.3640 
 41 H        1.6760    -2.9990    -2.6840 H     1 <1>   0.0720 
 42 H        0.7040    -4.2910    -2.0560 H     1 <1>   0.0720 
 43 H        0.9870    -4.8750     0.5520 H     1 <1>   0.0720 
 44 H        2.1470    -3.9380     1.4430 H     1 <1>   0.0720 
 45 H       -3.4690    -5.5380     3.0380 H     1 <1>   0.0720 
 46 H       -3.2840    -6.7280     1.7580 H     1 <1>   0.0720 
 47 H       -4.7690    -6.6430     2.6720 H     1 <1>   0.0720 
 48 H        2.7160    -2.6280    -0.5220 H     1 <1>   0.0720 
 49 H        2.8580    -4.3160    -0.9200 H     1 <1>   0.0720 
@<TRIPOS>BOND
  1   1   2  1   
  2   1   3  1   
  3   2   4  ar  
  4   2   5  ar  
  5   3   6  1   
  6   3  28  1   
  7   3  29  1   
  8   4   7  ar  
  9   5   8  ar  
 10   6   9  1   
 11   6  30  1   
 12   6  31  1   
 13   7  10  ar  
 14   7  32  1   
 15   8  10  ar  
 16   8  33  1   
 17   9  11  ar  
 18   9  12  1   
 19  10  34  1   
 20  11  13  ar  
 21  11  14  ar  
 22  12  15  1   
 23  12  16  2   
 24  13  16  1   
 25  13  35  1   
 26  14  17  1   
 27  14  18  1   
 28  15  19  2   
 29  15  20  am  
 30  16  21  1   
 31  17  22  1   
 32  17  36  1   
 33  17  37  1   
 34  18  23  1   
 35  18  38  1   
 36  18  39  1   
 37  20  24  am  
 38  20  40  1   
 39  21  24  am  
 40  21  25  1   
 41  22  26  1   
 42  22  41  1   
 43  22  42  1   
 44  23  26  1   
 45  23  43  1   
 46  23  44  1   
 47  24  27  2   
 48  25  45  1   
 49  25  46  1   
 50  25  47  1   
 51  26  48  1   
 52  26  49  1   
@<TRIPOS>SUBSTRUCTURE
  1 ****  11 GROUP 4 **** **** 0

# MOE 2024.06 (io_trps.svl 2023.06)
