@<TRIPOS>MOLECULE
2-(4-Methoxy-benzylamino)-5-propyl-4H-[1,2,4]triazolo[1,5-a]pyrimidin-7-one
42 44 1 0 0 
SMALL
USER_CHARGES


@<TRIPOS>ATOM
  1 O       -0.1930    -0.2440     1.4830 O.2   1 <1>  -0.5700 
  2 C       -0.5530    -1.3570     1.1240 C.2   1 <1>   0.5650 
  3 N       -1.8390    -1.8710     1.4060 N.pl3 1 <1>   0.5610 
  4 C        0.3270    -2.2000     0.3810 C.2   1 <1>  -0.1360 
  5 N       -2.9130    -1.3660     2.0630 N.2   1 <1>  -0.7070 
  6 C       -2.1920    -3.1030     0.9630 C.2   1 <1>   0.2700 
  7 C       -0.0400    -3.4380    -0.0530 C.2   1 <1>  -0.0380 
  8 C       -3.7620    -2.3250     1.9590 C.2   1 <1>   0.5990 
  9 N       -3.3900    -3.4160     1.2860 N.2   1 <1>  -0.5650 
 10 N       -1.3080    -3.8880     0.2390 N.pl3 1 <1>  -0.5840 
 11 C        0.8310    -4.4050    -0.8490 C.3   1 <1>  -0.0220 
 12 N       -5.0160    -2.2910     2.4910 N.pl3 1 <1>  -0.8520 
 13 C        2.2410    -3.8820    -1.1640 C.3   1 <1>  -0.1600 
 14 C       -5.7850    -1.0560     2.2640 C.3   1 <1>   0.3530 
 15 C        3.0510    -4.9080    -1.9640 C.3   1 <1>  -0.2400 
 16 C       -6.9280    -1.3880     1.3210 C.ar  1 <1>  -0.1430 
 17 C       -8.2160    -1.5650     1.8030 C.ar  1 <1>  -0.1500 
 18 C       -6.6860    -1.5270    -0.0380 C.ar  1 <1>  -0.1500 
 19 C       -9.2490    -1.8700     0.9350 C.ar  1 <1>  -0.1500 
 20 C       -7.7180    -1.8330    -0.9090 C.ar  1 <1>  -0.1500 
 21 C       -9.0100    -2.0060    -0.4230 C.ar  1 <1>   0.0830 
 22 O      -10.0770    -2.3080    -1.2040 O.3   1 <1>  -0.3630 
 23 C       -9.9390    -2.4820    -2.5960 C.3   1 <1>   0.0400 
 24 H        1.2980    -1.7830     0.1910 H     1 <1>   0.1500 
 25 H       -1.6500    -4.8130    -0.0500 H     1 <1>   0.4000 
 26 H        0.3310    -4.6310    -1.7750 H     1 <1>   0.0800 
 27 H        0.9190    -5.3220    -0.2920 H     1 <1>   0.0800 
 28 H       -5.5350    -3.0740     2.0910 H     1 <1>   0.4000 
 29 H        2.7610    -3.6680    -0.2460 H     1 <1>   0.0800 
 30 H        2.1700    -2.9720    -1.7360 H     1 <1>   0.0800 
 31 H       -5.1720    -0.2800     1.8360 H     1 <1>   0.0800 
 32 H       -6.1640    -0.7000     3.2060 H     1 <1>   0.0800 
 33 H        3.1590    -5.8230    -1.4070 H     1 <1>   0.0800 
 34 H        4.0320    -4.5200    -2.1720 H     1 <1>   0.0800 
 35 H        2.5670    -5.1260    -2.9000 H     1 <1>   0.0800 
 36 H       -8.4200    -1.4680     2.8560 H     1 <1>   0.1500 
 37 H       -5.6880    -1.3990    -0.4210 H     1 <1>   0.1500 
 38 H      -10.2480    -2.0080     1.3050 H     1 <1>   0.1500 
 39 H       -7.4960    -1.9330    -1.9540 H     1 <1>   0.1500 
 40 H      -10.9070    -2.7190    -3.0010 H     1 <1>   0.0800 
 41 H       -9.2580    -3.2940    -2.7800 H     1 <1>   0.0800 
 42 H       -9.5760    -1.5670    -3.0280 H     1 <1>   0.0800 
@<TRIPOS>BOND
  1   1   2  2   
  2   2   3  1   
  3   2   4  1   
  4   3   5  1   
  5   3   6  1   
  6   4   7  2   
  7   4  24  1   
  8   5   8  2   
  9   6   9  2   
 10   6  10  1   
 11   7  10  1   
 12   7  11  1   
 13   8   9  1   
 14   8  12  1   
 15  10  25  1   
 16  11  13  1   
 17  11  26  1   
 18  11  27  1   
 19  12  14  1   
 20  12  28  1   
 21  13  15  1   
 22  13  29  1   
 23  13  30  1   
 24  14  16  1   
 25  14  31  1   
 26  14  32  1   
 27  15  33  1   
 28  15  34  1   
 29  15  35  1   
 30  16  17  ar  
 31  16  18  ar  
 32  17  19  ar  
 33  17  36  1   
 34  18  20  ar  
 35  18  37  1   
 36  19  21  ar  
 37  19  38  1   
 38  20  21  ar  
 39  20  39  1   
 40  21  22  1   
 41  22  23  1   
 42  23  40  1   
 43  23  41  1   
 44  23  42  1   
@<TRIPOS>SUBSTRUCTURE
  1 ****   9 GROUP 4 **** **** 0

# MOE 2024.06 (io_trps.svl 2023.06)
