@<TRIPOS>MOLECULE
3-(5,6-Dimethyl-benzoimidazol-1-yl)-propionic acid
29 30 1 0 0 
SMALL
USER_CHARGES


@<TRIPOS>ATOM
  1 O       -0.2160    -0.0110    -0.3420 O.co2 1 <1>  -0.9000 
  2 C       -0.7540     1.0950    -0.4170 C.2   1 <1>   0.9060 
  3 O       -0.1860     2.1490    -0.1290 O.co2 1 <1>  -0.9000 
  4 C       -2.1980     1.1460    -0.8080 C.3   1 <1>  -0.2660 
  5 C       -3.0200     0.7220     0.4060 C.3   1 <1>   0.0960 
  6 N       -4.4650     0.7530     0.1040 N.pl3 1 <1>   0.0480 
  7 C       -5.2850     1.8350     0.1250 C.ar  1 <1>  -0.1520 
  8 C       -5.2700    -0.3000    -0.1920 C.2   1 <1>   0.0360 
  9 C       -6.5460     1.3530    -0.1600 C.ar  1 <1>   0.2270 
 10 C       -5.0710     3.1940     0.3590 C.ar  1 <1>  -0.1500 
 11 N       -6.5120     0.0040    -0.3550 N.2   1 <1>  -0.5650 
 12 C       -7.6260     2.2300    -0.2100 C.ar  1 <1>  -0.1500 
 13 C       -6.1420     4.0630     0.3090 C.ar  1 <1>  -0.1440 
 14 C       -7.4330     3.5780     0.0230 C.ar  1 <1>  -0.1430 
 15 C       -5.9000     5.5440     0.5630 C.3   1 <1>  -0.0970 
 16 C       -8.6280     4.5170    -0.0370 C.3   1 <1>  -0.0970 
 17 H       -2.3510     0.4720    -1.6280 H     1 <1>   0.0800 
 18 H       -2.4400     2.1480    -1.1060 H     1 <1>   0.0800 
 19 H       -2.8220     1.3860     1.2280 H     1 <1>   0.0800 
 20 H       -2.7410    -0.2740     0.7000 H     1 <1>   0.0800 
 21 H       -4.8730    -1.2960    -0.2750 H     1 <1>   0.1500 
 22 H       -4.0730     3.5380     0.5710 H     1 <1>   0.1500 
 23 H       -8.5910     1.8190    -0.4320 H     1 <1>   0.1500 
 24 H       -4.8600     5.7330     0.7620 H     1 <1>   0.0800 
 25 H       -6.4710     5.8700     1.4130 H     1 <1>   0.0800 
 26 H       -6.1870     6.1170    -0.2990 H     1 <1>   0.0800 
 27 H       -9.5290     3.9770    -0.2650 H     1 <1>   0.0800 
 28 H       -8.4770     5.2580    -0.8010 H     1 <1>   0.0800 
 29 H       -8.7600     5.0070     0.9100 H     1 <1>   0.0800 
@<TRIPOS>BOND
  1   1   2  ar  
  2   2   3  ar  
  3   2   4  1   
  4   4   5  1   
  5   4  17  1   
  6   4  18  1   
  7   5   6  1   
  8   5  19  1   
  9   5  20  1   
 10   6   7  1   
 11   6   8  1   
 12   7   9  ar  
 13   7  10  ar  
 14   8  11  2   
 15   8  21  1   
 16   9  11  1   
 17   9  12  ar  
 18  10  13  ar  
 19  10  22  1   
 20  12  14  ar  
 21  12  23  1   
 22  13  14  ar  
 23  13  15  1   
 24  14  16  1   
 25  15  24  1   
 26  15  25  1   
 27  15  26  1   
 28  16  27  1   
 29  16  28  1   
 30  16  29  1   
@<TRIPOS>SUBSTRUCTURE
  1 ****   7 GROUP 4 **** **** 0

# MOE 2024.06 (io_trps.svl 2023.06)
