@<TRIPOS>MOLECULE
5-Methyl-4-oxo-3,4-dihydro-thieno[2,3-d]pyrimidine-6-carboxylic acid 2-methoxy-e
30 31 1 0 0 
SMALL
USER_CHARGES


@<TRIPOS>ATOM
  1 S       -0.0950    -0.1550     0.3130 S.3   1 <1>  -0.0800 
  2 C        0.9050     1.2450     0.0750 C.2   1 <1>   0.1240 
  3 C       -1.5820     0.8180     0.2570 C.2   1 <1>  -0.0450 
  4 N        2.2540     1.2290     0.0040 N.pl3 1 <1>  -0.5340 
  5 C        0.1760     2.3820    -0.0360 C.2   1 <1>  -0.0860 
  6 C       -1.2360     2.1320     0.0800 C.2   1 <1>  -0.1810 
  7 C       -2.8190     0.0910     0.3940 C.2   1 <1>   0.8050 
  8 C        2.9070     2.4110    -0.1900 C.2   1 <1>   0.4400 
  9 C        0.9380     3.5820    -0.2460 C.2   1 <1>   0.8670 
 10 C       -2.2090     3.3070     0.0130 C.3   1 <1>  -0.0590 
 11 O       -2.8820    -1.0680     0.7590 O.2   1 <1>  -0.5700 
 12 O       -3.9570     0.7160     0.0880 O.3   1 <1>  -0.4300 
 13 N        2.3150     3.5420    -0.3130 N.2   1 <1>  -0.6610 
 14 O        0.4040     4.6720    -0.3770 O.2   1 <1>  -0.5700 
 15 C       -5.2180     0.0960     0.2530 C.3   1 <1>   0.1200 
 16 C       -6.3330     1.0600    -0.1610 C.3   1 <1>   0.1200 
 17 O       -6.2970     2.1980     0.6440 O.3   1 <1>  -0.5600 
 18 C       -7.2540     3.1530     0.3190 C.3   1 <1>   0.0400 
 19 H        2.7720     0.3510     0.0950 H     1 <1>   0.4000 
 20 H        3.9810     2.3650    -0.2400 H     1 <1>   0.0600 
 21 H       -3.2210     3.0200     0.2260 H     1 <1>   0.0800 
 22 H       -2.1810     3.7510    -0.9660 H     1 <1>   0.0800 
 23 H       -1.9290     4.0550     0.7330 H     1 <1>   0.0800 
 24 H       -5.3330    -0.1840     1.2860 H     1 <1>   0.0800 
 25 H       -5.2420    -0.7890    -0.3600 H     1 <1>   0.0800 
 26 H       -7.2920     0.5860    -0.0380 H     1 <1>   0.0800 
 27 H       -6.2040     1.3520    -1.1890 H     1 <1>   0.0800 
 28 H       -7.1450     3.9800     0.9980 H     1 <1>   0.0800 
 29 H       -8.2360     2.7240     0.4260 H     1 <1>   0.0800 
 30 H       -7.0930     3.4890    -0.6910 H     1 <1>   0.0800 
@<TRIPOS>BOND
  1   1   2  1   
  2   1   3  1   
  3   2   4  1   
  4   2   5  2   
  5   3   6  2   
  6   3   7  1   
  7   4   8  1   
  8   4  19  1   
  9   5   6  1   
 10   5   9  1   
 11   6  10  1   
 12   7  11  2   
 13   7  12  1   
 14   8  13  2   
 15   8  20  1   
 16   9  13  1   
 17   9  14  2   
 18  10  21  1   
 19  10  22  1   
 20  10  23  1   
 21  12  15  1   
 22  15  16  1   
 23  15  24  1   
 24  15  25  1   
 25  16  17  1   
 26  16  26  1   
 27  16  27  1   
 28  17  18  1   
 29  18  28  1   
 30  18  29  1   
 31  18  30  1   
@<TRIPOS>SUBSTRUCTURE
  1 ****   6 GROUP 4 **** **** 0

# MOE 2024.06 (io_trps.svl 2023.06)
