@<TRIPOS>MOLECULE
NONAME
41 44 1 0 0 
SMALL
USER_CHARGES


@<TRIPOS>ATOM
  1 O        0.0050    -0.4290    -0.4600 O.co2 1 <1>  -0.9000 
  2 C       -0.2610    -1.6220    -0.6070 C.2   1 <1>   0.9060 
  3 O        0.4720    -2.4310    -1.1940 O.co2 1 <1>  -0.9000 
  4 C       -1.5770    -2.2010    -0.0740 C.3   1 <1>   0.3170 
  5 N       -1.8640    -3.5450    -0.7180 N.4   1 <1>  -0.9060 
  6 C       -2.7700    -1.2540    -0.2710 C.3   1 <1>   0.0210 
  7 C       -2.9410    -4.3380    -0.1390 C.3   1 <1>   0.6830 
  8 C       -4.0450    -2.0290     0.0030 C.2   1 <1>  -0.1810 
  9 C       -4.1070    -3.3810     0.0650 C.2   1 <1>  -0.3320 
 10 C       -3.2880    -5.4390    -1.1680 C.3   1 <1>  -0.1600 
 11 C       -2.4850    -4.9230     1.2140 C.3   1 <1>  -0.1600 
 12 C       -5.3360    -1.5140     0.2400 C.ar  1 <1>   0.0000 
 13 N       -5.3950    -3.7540     0.3490 N.pl3 1 <1>   0.0330 
 14 C       -3.6110    -6.7950    -0.5180 C.3   1 <1>  -0.1600 
 15 C       -1.6410    -6.1960     1.0440 C.3   1 <1>  -0.1600 
 16 C       -6.1560    -2.6170     0.4540 C.ar  1 <1>  -0.1520 
 17 C       -5.8790    -0.2260     0.2940 C.ar  1 <1>  -0.1500 
 18 C       -2.4290    -7.3080     0.3250 C.3   1 <1>  -0.1600 
 19 C       -7.5170    -2.4560     0.7230 C.ar  1 <1>  -0.1500 
 20 C       -7.2200    -0.0690     0.5580 C.ar  1 <1>  -0.1500 
 21 C       -8.0390    -1.1840     0.7730 C.ar  1 <1>  -0.1500 
 22 H       -1.4370    -2.3430     0.9810 H     1 <1>   0.0800 
 23 H       -0.9520    -4.0230    -0.7560 H     1 <1>   0.4500 
 24 H       -2.0930    -3.3420    -1.6900 H     1 <1>   0.4500 
 25 H       -2.7780    -0.8640    -1.2740 H     1 <1>   0.0800 
 26 H       -2.6770    -0.4240     0.4080 H     1 <1>   0.0800 
 27 H       -2.4560    -5.6020    -1.8310 H     1 <1>   0.0800 
 28 H       -4.1210    -5.1250    -1.7720 H     1 <1>   0.0800 
 29 H       -3.3550    -5.1790     1.7910 H     1 <1>   0.0800 
 30 H       -1.9460    -4.1910     1.7870 H     1 <1>   0.0800 
 31 H       -5.7630    -4.7050     0.4650 H     1 <1>   0.2700 
 32 H       -3.8510    -7.5210    -1.2770 H     1 <1>   0.0800 
 33 H       -4.4780    -6.6920     0.1120 H     1 <1>   0.0800 
 34 H       -1.3180    -6.5530     2.0080 H     1 <1>   0.0800 
 35 H       -0.7550    -5.9630     0.4780 H     1 <1>   0.0800 
 36 H       -5.2400     0.6220     0.1270 H     1 <1>   0.1500 
 37 H       -1.7490    -7.8550    -0.3080 H     1 <1>   0.0800 
 38 H       -2.8070    -8.0060     1.0530 H     1 <1>   0.0800 
 39 H       -8.1430    -3.3160     0.8880 H     1 <1>   0.1500 
 40 H       -7.6530     0.9150     0.6030 H     1 <1>   0.1500 
 41 H       -9.0850    -1.0330     0.9790 H     1 <1>   0.1500 
@<TRIPOS>BOND
  1   1   2  ar  
  2   2   3  ar  
  3   2   4  1   
  4   4   5  1   
  5   4   6  1   
  6   4  22  1   
  7   5   7  1   
  8   5  23  1   
  9   5  24  1   
 10   6   8  1   
 11   6  25  1   
 12   6  26  1   
 13   7   9  1   
 14   7  10  1   
 15   7  11  1   
 16   8   9  2   
 17   8  12  1   
 18   9  13  1   
 19  10  14  1   
 20  10  27  1   
 21  10  28  1   
 22  11  15  1   
 23  11  29  1   
 24  11  30  1   
 25  12  16  ar  
 26  12  17  ar  
 27  13  16  1   
 28  13  31  1   
 29  14  18  1   
 30  14  32  1   
 31  14  33  1   
 32  15  18  1   
 33  15  34  1   
 34  15  35  1   
 35  16  19  ar  
 36  17  20  ar  
 37  17  36  1   
 38  18  37  1   
 39  18  38  1   
 40  19  21  ar  
 41  19  39  1   
 42  20  21  ar  
 43  20  40  1   
 44  21  41  1   
@<TRIPOS>SUBSTRUCTURE
  1 ****   9 GROUP 4 **** **** 0

# MOE 2024.06 (io_trps.svl 2023.06)
