@<TRIPOS>MOLECULE
N-{1-[3-(4-tert-Butyl-phenyl)-[1,2,4]oxadiazol-5-yl]-ethyl}-isobutyramide
48 49 1 0 0 
SMALL
USER_CHARGES


@<TRIPOS>ATOM
  1 O       -1.1340    -1.1720     0.1080 O.2   1 <1>  -0.5700 
  2 C       -2.1360    -0.8080    -0.4560 C.2   1 <1>   0.5690 
  3 N       -3.3640    -1.1750    -0.0220 N.am  1 <1>  -0.7300 
  4 C       -2.0200     0.0860    -1.6920 C.3   1 <1>  -0.0190 
  5 C       -3.6150    -2.1050     1.0970 C.3   1 <1>   0.4000 
  6 C       -2.6820     1.4570    -1.4750 C.3   1 <1>  -0.2400 
  7 C       -2.6010    -0.5920    -2.9450 C.3   1 <1>  -0.2400 
  8 C       -4.4110    -3.3180     0.6040 C.2   1 <1>   0.2980 
  9 C       -4.3360    -1.3200     2.1950 C.3   1 <1>  -0.2400 
 10 O       -3.7540    -4.2590    -0.0210 O.3   1 <1>  -0.0190 
 11 N       -5.6630    -3.5190     0.7210 N.2   1 <1>  -0.5650 
 12 N       -4.6600    -5.1340    -0.3240 N.2   1 <1>  -0.4100 
 13 C       -5.7910    -4.7020     0.1120 C.2   1 <1>   0.4620 
 14 C       -7.0680    -5.3840    -0.0210 C.ar  1 <1>   0.0540 
 15 C       -7.1730    -6.6070    -0.6820 C.ar  1 <1>  -0.1500 
 16 C       -8.2460    -4.8550     0.5030 C.ar  1 <1>  -0.1500 
 17 C       -8.3830    -7.2630    -0.8140 C.ar  1 <1>  -0.1500 
 18 C       -9.4560    -5.5090     0.3720 C.ar  1 <1>  -0.1500 
 19 C       -9.5550    -6.7280    -0.2890 C.ar  1 <1>  -0.1430 
 20 C      -10.9300    -7.4210    -0.4090 C.3   1 <1>   0.1430 
 21 C      -11.4840    -7.7090     0.9950 C.3   1 <1>  -0.2400 
 22 C      -11.9040    -6.5050    -1.1640 C.3   1 <1>  -0.2400 
 23 C      -10.8690    -8.7590    -1.1670 C.3   1 <1>  -0.2400 
 24 H       -4.1950    -0.8800    -0.5350 H     1 <1>   0.3700 
 25 H       -0.9700     0.2510    -1.8640 H     1 <1>   0.0800 
 26 H       -2.6780    -2.4610     1.4910 H     1 <1>   0.0800 
 27 H       -3.7420     1.3540    -1.3260 H     1 <1>   0.0800 
 28 H       -2.5140     2.0920    -2.3270 H     1 <1>   0.0800 
 29 H       -2.2590     1.9340    -0.6080 H     1 <1>   0.0800 
 30 H       -3.6590    -0.7530    -2.8410 H     1 <1>   0.0800 
 31 H       -2.1230    -1.5440    -3.1000 H     1 <1>   0.0800 
 32 H       -2.4280     0.0190    -3.8130 H     1 <1>   0.0800 
 33 H       -5.2750    -0.9400     1.8340 H     1 <1>   0.0800 
 34 H       -3.7200    -0.5050     2.5280 H     1 <1>   0.0800 
 35 H       -4.5290    -1.9660     3.0320 H     1 <1>   0.0800 
 36 H       -6.2900    -7.0540    -1.1020 H     1 <1>   0.1500 
 37 H       -8.2160    -3.9130     1.0230 H     1 <1>   0.1500 
 38 H       -8.3820    -8.2010    -1.3370 H     1 <1>   0.1500 
 39 H      -10.3310    -5.0510     0.7970 H     1 <1>   0.1500 
 40 H      -11.6380    -6.8000     1.5450 H     1 <1>   0.0800 
 41 H      -10.7920    -8.3220     1.5440 H     1 <1>   0.0800 
 42 H      -12.4250    -8.2250     0.9340 H     1 <1>   0.0800 
 43 H      -11.5070    -6.2690    -2.1360 H     1 <1>   0.0800 
 44 H      -12.0620    -5.5840    -0.6330 H     1 <1>   0.0800 
 45 H      -12.8580    -6.9850    -1.2900 H     1 <1>   0.0800 
 46 H      -10.5110    -8.6080    -2.1690 H     1 <1>   0.0800 
 47 H      -11.8460    -9.2050    -1.2260 H     1 <1>   0.0800 
 48 H      -10.2180    -9.4500    -0.6610 H     1 <1>   0.0800 
@<TRIPOS>BOND
  1   1   2  2   
  2   2   3  am  
  3   2   4  1   
  4   3   5  1   
  5   3  24  1   
  6   4   6  1   
  7   4   7  1   
  8   4  25  1   
  9   5   8  1   
 10   5   9  1   
 11   5  26  1   
 12   6  27  1   
 13   6  28  1   
 14   6  29  1   
 15   7  30  1   
 16   7  31  1   
 17   7  32  1   
 18   8  10  1   
 19   8  11  2   
 20   9  33  1   
 21   9  34  1   
 22   9  35  1   
 23  10  12  1   
 24  11  13  1   
 25  12  13  2   
 26  13  14  1   
 27  14  15  ar  
 28  14  16  ar  
 29  15  17  ar  
 30  15  36  1   
 31  16  18  ar  
 32  16  37  1   
 33  17  19  ar  
 34  17  38  1   
 35  18  19  ar  
 36  18  39  1   
 37  19  20  1   
 38  20  21  1   
 39  20  22  1   
 40  20  23  1   
 41  21  40  1   
 42  21  41  1   
 43  21  42  1   
 44  22  43  1   
 45  22  44  1   
 46  22  45  1   
 47  23  46  1   
 48  23  47  1   
 49  23  48  1   
@<TRIPOS>SUBSTRUCTURE
  1 ****  13 GROUP 4 **** **** 0

# MOE 2024.06 (io_trps.svl 2023.06)
