@<TRIPOS>MOLECULE
1-(4-Ethoxy-3-methyl-benzenesulfonyl)-piperidine-4-carboxylic acid cyclopropylam
51 53 1 0 0 
SMALL
USER_CHARGES


@<TRIPOS>ATOM
  1 S        0.0060     0.1080    -2.6280 S.o2  1 <1>   1.4470 
  2 O        0.3890    -0.8520    -3.6400 O.2   1 <1>  -0.6500 
  3 O       -0.3660     1.4490    -3.0310 O.2   1 <1>  -0.6500 
  4 N        1.3250     0.2790    -1.5750 N.am  1 <1>  -0.8490 
  5 C       -1.2770    -0.6160    -1.5690 C.ar  1 <1>  -0.0090 
  6 C        1.0930     1.3240    -0.5730 C.3   1 <1>   0.1960 
  7 C        2.5700     0.5020    -2.3130 C.3   1 <1>   0.1960 
  8 C       -2.5400    -0.0450    -1.4690 C.ar  1 <1>  -0.1500 
  9 C       -1.0230    -1.7620    -0.8260 C.ar  1 <1>  -0.1500 
 10 C        2.2330     1.3400     0.4470 C.3   1 <1>  -0.1600 
 11 C        3.7640     0.5040    -1.3540 C.3   1 <1>  -0.1600 
 12 C       -3.5220    -0.5860    -0.6550 C.ar  1 <1>  -0.1430 
 13 C       -1.9900    -2.3180    -0.0080 C.ar  1 <1>  -0.1500 
 14 C        3.5920     1.5510    -0.2410 C.3   1 <1>  -0.0190 
 15 C       -3.2490    -1.7310     0.0850 C.ar  1 <1>   0.0830 
 16 C       -4.8900     0.0760    -0.5770 C.3   1 <1>  -0.0970 
 17 C        4.7480     1.5010     0.7560 C.2   1 <1>   0.5690 
 18 O       -4.2390    -2.2270     0.8720 O.3   1 <1>  -0.3630 
 19 O        4.8820     0.5280     1.4590 O.2   1 <1>  -0.5700 
 20 N        5.5950     2.5640     0.8180 N.am  1 <1>  -0.5790 
 21 C       -4.0680    -3.3950     1.6390 C.3   1 <1>   0.1200 
 22 C        6.7530     2.6790     1.7160 C.3   1 <1>   0.0490 
 23 C       -5.3720    -3.6650     2.3850 C.3   1 <1>  -0.2400 
 24 C        7.0920     4.0290     2.2540 C.3   1 <1>  -0.2000 
 25 C        7.9630     3.3920     1.2130 C.3   1 <1>  -0.2000 
 26 H        0.1670     1.1350    -0.0560 H     1 <1>   0.0800 
 27 H        1.0180     2.2870    -1.0540 H     1 <1>   0.0800 
 28 H        2.5150     1.4370    -2.8470 H     1 <1>   0.0800 
 29 H        2.7120    -0.2870    -3.0340 H     1 <1>   0.0800 
 30 H       -2.7530     0.8410    -2.0430 H     1 <1>   0.1500 
 31 H       -0.0510    -2.2220    -0.8910 H     1 <1>   0.1500 
 32 H        2.2330     0.4040     0.9800 H     1 <1>   0.0800 
 33 H        2.0620     2.1240     1.1630 H     1 <1>   0.0800 
 34 H        4.6650     0.7030    -1.9070 H     1 <1>   0.0800 
 35 H        3.8570    -0.4770    -0.9190 H     1 <1>   0.0800 
 36 H       -1.7430    -3.2030     0.5460 H     1 <1>   0.1500 
 37 H        3.5820     2.5240    -0.6990 H     1 <1>   0.0800 
 38 H       -4.9410     0.9470    -1.2060 H     1 <1>   0.0800 
 39 H       -5.0950     0.3710     0.4360 H     1 <1>   0.0800 
 40 H       -5.6480    -0.6190    -0.8920 H     1 <1>   0.0800 
 41 H        5.4520     3.3650     0.2050 H     1 <1>   0.3700 
 42 H       -3.2600    -3.2340     2.3310 H     1 <1>   0.0800 
 43 H       -3.8360    -4.2080     0.9730 H     1 <1>   0.0800 
 44 H        6.8870     1.8180     2.3540 H     1 <1>   0.1000 
 45 H       -5.6040    -2.8400     3.0340 H     1 <1>   0.0800 
 46 H       -5.2730    -4.5540     2.9810 H     1 <1>   0.0800 
 47 H       -6.1750    -3.8080     1.6840 H     1 <1>   0.0800 
 48 H        7.4700     4.1000     3.2590 H     1 <1>   0.1000 
 49 H        6.4770     4.8680     1.9830 H     1 <1>   0.1000 
 50 H        7.9590     3.7870     0.2120 H     1 <1>   0.1000 
 51 H        8.9320     3.0320     1.5120 H     1 <1>   0.1000 
@<TRIPOS>BOND
  1   1   2  2   
  2   1   3  2   
  3   1   4  am  
  4   1   5  1   
  5   4   6  1   
  6   4   7  1   
  7   5   8  ar  
  8   5   9  ar  
  9   6  10  1   
 10   6  26  1   
 11   6  27  1   
 12   7  11  1   
 13   7  28  1   
 14   7  29  1   
 15   8  12  ar  
 16   8  30  1   
 17   9  13  ar  
 18   9  31  1   
 19  10  14  1   
 20  10  32  1   
 21  10  33  1   
 22  11  14  1   
 23  11  34  1   
 24  11  35  1   
 25  12  15  ar  
 26  12  16  1   
 27  13  15  ar  
 28  13  36  1   
 29  14  17  1   
 30  14  37  1   
 31  15  18  1   
 32  16  38  1   
 33  16  39  1   
 34  16  40  1   
 35  17  19  2   
 36  17  20  am  
 37  18  21  1   
 38  20  22  1   
 39  20  41  1   
 40  21  23  1   
 41  21  42  1   
 42  21  43  1   
 43  22  24  1   
 44  22  25  1   
 45  22  44  1   
 46  23  45  1   
 47  23  46  1   
 48  23  47  1   
 49  24  25  1   
 50  24  48  1   
 51  24  49  1   
 52  25  50  1   
 53  25  51  1   
@<TRIPOS>SUBSTRUCTURE
  1 ****   6 GROUP 4 **** **** 0

# MOE 2024.06 (io_trps.svl 2023.06)
