@<TRIPOS>MOLECULE
8-Allyl-1,7-dimethyl-3-(2-methyl-allyl)-1H,8H-imidazo[2,1-f]purine-2,4-dione
43 45 1 0 0 
SMALL
USER_CHARGES


@<TRIPOS>ATOM
  1 O        0.9290    -0.2600    -1.5550 O.2   1 <1>  -0.5750 
  2 C        1.7840     0.5350    -1.2220 C.2   1 <1>   0.6850 
  3 N        1.4840     1.8870    -1.1170 N.am  1 <1>  -0.4270 
  4 N        3.0730     0.0870    -0.9540 N.am  1 <1>  -0.4430 
  5 C        2.4690     2.8320    -0.8800 C.2   1 <1>   0.6990 
  6 C        0.0660     2.3250    -1.1110 C.3   1 <1>   0.2710 
  7 C        4.0380     1.0260    -0.6500 C.2   1 <1>   0.4190 
  8 C        3.4010    -1.3680    -1.0200 C.3   1 <1>   0.0510 
  9 O        2.2330     4.0280    -0.9260 O.2   1 <1>  -0.5750 
 10 C        3.7840     2.3570    -0.6090 C.2   1 <1>   0.2690 
 11 C       -0.4090     2.4550     0.3320 C.2   1 <1>  -0.2840 
 12 N        5.3560     0.8120    -0.3670 N.pl3 1 <1>  -0.7040 
 13 N        5.0010     2.9800    -0.2900 N.pl3 1 <1>  -0.6340 
 14 C       -0.5560     3.6350     0.9420 C.2   1 <1>  -0.3080 
 15 C       -0.7190     1.1360     1.0270 C.3   1 <1>  -0.1110 
 16 C        5.9010     2.0160    -0.1580 C.cat 1 <1>   1.0680 
 17 C        5.6530     4.1750    -0.0540 C.2   1 <1>   0.2210 
 18 N        7.1070     2.5050     0.1480 N.pl3 1 <1>  -0.5730 
 19 C        6.9450     3.8820     0.2170 C.2   1 <1>   0.1560 
 20 C        8.3310     1.7210     0.4230 C.3   1 <1>   0.2980 
 21 C        8.0880     4.8230     0.5510 C.3   1 <1>  -0.1110 
 22 C        8.3360     0.4740    -0.4410 C.2   1 <1>  -0.2960 
 23 C        8.1580    -0.7750     0.0010 C.2   1 <1>  -0.3080 
 24 H       -0.5590     1.6310    -1.6470 H     1 <1>   0.0710 
 25 H       -0.0170     3.2760    -1.6070 H     1 <1>   0.0710 
 26 H        2.5250    -1.9600    -0.8170 H     1 <1>   0.0710 
 27 H        4.1500    -1.6200    -0.2900 H     1 <1>   0.0710 
 28 H        3.7610    -1.6130    -2.0040 H     1 <1>   0.0710 
 29 H        5.9050    -0.0490    -0.3690 H     1 <1>   0.4440 
 30 H       -0.8960     3.7550     1.9570 H     1 <1>   0.1410 
 31 H       -0.3470     4.5850     0.4790 H     1 <1>   0.1410 
 32 H        0.1670     0.5370     1.1240 H     1 <1>   0.0710 
 33 H       -1.4500     0.5830     0.4640 H     1 <1>   0.0710 
 34 H       -1.1150     1.3120     2.0120 H     1 <1>   0.0710 
 35 H        5.1470     5.1280    -0.0970 H     1 <1>   0.1410 
 36 H        8.3500     1.4520     1.4660 H     1 <1>   0.0710 
 37 H        9.2080     2.3090     0.2090 H     1 <1>   0.0710 
 38 H        8.4950     4.5870     1.5180 H     1 <1>   0.0710 
 39 H        7.7420     5.8410     0.5670 H     1 <1>   0.0710 
 40 H        8.8670     4.7410    -0.1860 H     1 <1>   0.0710 
 41 H        8.5140     0.6970    -1.4820 H     1 <1>   0.1410 
 42 H        8.1830    -1.6460    -0.6350 H     1 <1>   0.1410 
 43 H        7.9950    -1.0470     1.0330 H     1 <1>   0.1410 
@<TRIPOS>BOND
  1   1   2  2   
  2   2   3  am  
  3   2   4  am  
  4   3   5  am  
  5   3   6  1   
  6   4   7  1   
  7   4   8  1   
  8   5   9  2   
  9   5  10  1   
 10   6  11  1   
 11   6  24  1   
 12   6  25  1   
 13   7  10  2   
 14   7  12  1   
 15   8  26  1   
 16   8  27  1   
 17   8  28  1   
 18  10  13  1   
 19  11  14  2   
 20  11  15  1   
 21  12  16  ar  
 22  12  29  1   
 23  13  16  ar  
 24  13  17  1   
 25  14  30  1   
 26  14  31  1   
 27  15  32  1   
 28  15  33  1   
 29  15  34  1   
 30  16  18  ar  
 31  17  19  2   
 32  17  35  1   
 33  18  19  1   
 34  18  20  1   
 35  19  21  1   
 36  20  22  1   
 37  20  36  1   
 38  20  37  1   
 39  21  38  1   
 40  21  39  1   
 41  21  40  1   
 42  22  23  2   
 43  22  41  1   
 44  23  42  1   
 45  23  43  1   
@<TRIPOS>SUBSTRUCTURE
  1 ****  10 GROUP 4 **** **** 0

# MOE 2024.06 (io_trps.svl 2023.06)
