@<TRIPOS>MOLECULE
1-(4-Ethyl-phenyl)-5-oxo-pyrrolidine-3-carboxylic acid 2-methoxy-phenyl ester
46 48 1 0 0 
SMALL
USER_CHARGES


@<TRIPOS>ATOM
  1 O        0.3130    -0.0590    -0.1030 O.2   1 <1>  -0.5700 
  2 C        1.4910    -0.3040    -0.0170 C.2   1 <1>   0.5690 
  3 N        2.0710    -1.5260     0.1750 N.am  1 <1>  -0.4770 
  4 C        2.5250     0.7820    -0.1230 C.3   1 <1>  -0.0990 
  5 C        1.4500    -2.7880     0.2730 C.ar  1 <1>   0.1170 
  6 C        3.5410    -1.3970     0.2270 C.3   1 <1>   0.1400 
  7 C        3.8270    -0.0010    -0.3430 C.3   1 <1>  -0.0190 
  8 C        0.3090    -3.0880    -0.4630 C.ar  1 <1>  -0.1500 
  9 C        1.9700    -3.7780     1.1030 C.ar  1 <1>  -0.1500 
 10 C        5.0530     0.6680     0.2520 C.2   1 <1>   0.6590 
 11 C       -0.2880    -4.3330    -0.3810 C.ar  1 <1>  -0.1500 
 12 C        1.3750    -5.0240     1.1870 C.ar  1 <1>  -0.1500 
 13 O        5.7390     0.1160     1.0760 O.2   1 <1>  -0.5700 
 14 O        5.3080     1.8860    -0.2180 O.3   1 <1>  -0.2330 
 15 C        0.2410    -5.3110     0.4450 C.ar  1 <1>  -0.1430 
 16 C        6.4560     2.5610     0.0460 C.ar  1 <1>   0.0830 
 17 C       -0.4150    -6.6790     0.5360 C.3   1 <1>  -0.0170 
 18 C        7.6880     2.0820    -0.3980 C.ar  1 <1>   0.0830 
 19 C        6.3810     3.7490     0.7530 C.ar  1 <1>  -0.1500 
 20 C        0.1810    -7.6310    -0.5030 C.3   1 <1>  -0.2400 
 21 O        7.7400     0.9310    -1.1170 O.3   1 <1>  -0.3630 
 22 C        8.8420     2.8010    -0.1150 C.ar  1 <1>  -0.1500 
 23 C        7.5370     4.4590     1.0340 C.ar  1 <1>  -0.1500 
 24 C        8.6370    -0.0680    -0.6840 C.3   1 <1>   0.0400 
 25 C        8.7650     3.9840     0.6020 C.ar  1 <1>  -0.1500 
 26 H        2.5420     1.3300     0.8020 H     1 <1>   0.0800 
 27 H        2.3080     1.4440    -0.9420 H     1 <1>   0.0800 
 28 H        4.0160    -2.1660    -0.3580 H     1 <1>   0.0800 
 29 H        3.8570    -1.4740     1.2540 H     1 <1>   0.0800 
 30 H        3.9910    -0.1080    -1.4000 H     1 <1>   0.0800 
 31 H       -0.1170    -2.3420    -1.1090 H     1 <1>   0.1500 
 32 H        2.8410    -3.5780     1.6970 H     1 <1>   0.1500 
 33 H       -1.1690    -4.5360    -0.9640 H     1 <1>   0.1500 
 34 H        1.7970    -5.7730     1.8340 H     1 <1>   0.1500 
 35 H       -1.4750    -6.5840     0.3730 H     1 <1>   0.0800 
 36 H       -0.2720    -7.0850     1.5220 H     1 <1>   0.0800 
 37 H        5.4270     4.1160     1.0850 H     1 <1>   0.1500 
 38 H        0.0280    -7.2410    -1.4930 H     1 <1>   0.0800 
 39 H       -0.2880    -8.5960    -0.4340 H     1 <1>   0.0800 
 40 H        1.2380    -7.7460    -0.3380 H     1 <1>   0.0800 
 41 H        9.7970     2.4520    -0.4590 H     1 <1>   0.1500 
 42 H        7.4820     5.3800     1.5880 H     1 <1>   0.1500 
 43 H        8.4140    -0.9730    -1.2190 H     1 <1>   0.0800 
 44 H        8.4980    -0.2230     0.3720 H     1 <1>   0.0800 
 45 H        9.6440     0.2430    -0.8950 H     1 <1>   0.0800 
 46 H        9.6610     4.5390     0.8210 H     1 <1>   0.1500 
@<TRIPOS>BOND
  1   1   2  2   
  2   2   3  am  
  3   2   4  1   
  4   3   5  1   
  5   3   6  1   
  6   4   7  1   
  7   4  26  1   
  8   4  27  1   
  9   5   8  ar  
 10   5   9  ar  
 11   6   7  1   
 12   6  28  1   
 13   6  29  1   
 14   7  10  1   
 15   7  30  1   
 16   8  11  ar  
 17   8  31  1   
 18   9  12  ar  
 19   9  32  1   
 20  10  13  2   
 21  10  14  1   
 22  11  15  ar  
 23  11  33  1   
 24  12  15  ar  
 25  12  34  1   
 26  14  16  1   
 27  15  17  1   
 28  16  18  ar  
 29  16  19  ar  
 30  17  20  1   
 31  17  35  1   
 32  17  36  1   
 33  18  21  1   
 34  18  22  ar  
 35  19  23  ar  
 36  19  37  1   
 37  20  38  1   
 38  20  39  1   
 39  20  40  1   
 40  21  24  1   
 41  22  25  ar  
 42  22  41  1   
 43  23  25  ar  
 44  23  42  1   
 45  24  43  1   
 46  24  44  1   
 47  24  45  1   
 48  25  46  1   
@<TRIPOS>SUBSTRUCTURE
  1 ****   6 GROUP 4 **** **** 0

# MOE 2024.06 (io_trps.svl 2023.06)
