@<TRIPOS>MOLECULE
Acetic acid 2-methoxy-4-[2-methyl-3-(morpholine-4-carbonyl)-5-oxo-1,4,5,6,7,8-he
60 63 1 0 0 
SMALL
USER_CHARGES


@<TRIPOS>ATOM
  1 O        0.2840    -1.1240    -1.4250 O.2   1 <1>  -0.5700 
  2 C        0.1560    -1.7870    -0.4220 C.2   1 <1>   0.4950 
  3 C        1.2340    -2.2330     0.3970 C.2   1 <1>  -0.1240 
  4 C       -1.2550    -2.2240    -0.0590 C.3   1 <1>  -0.0990 
  5 C        1.0790    -3.1020     1.4240 C.2   1 <1>  -0.0380 
  6 C        2.6290    -1.6960     0.0690 C.3   1 <1>   0.3400 
  7 C       -1.3890    -2.6130     1.4240 C.3   1 <1>  -0.1600 
  8 N        2.1540    -3.5990     2.1130 N.pl3 1 <1>  -0.6000 
  9 C       -0.2930    -3.6000     1.8510 C.3   1 <1>  -0.0220 
 10 C        3.7780    -2.4350     0.7840 C.2   1 <1>  -0.1240 
 11 C        2.6840    -0.2070     0.4280 C.ar  1 <1>  -0.1430 
 12 C        3.4630    -3.3380     1.7570 C.2   1 <1>  -0.0380 
 13 C        5.0990    -2.0380     0.3550 C.2   1 <1>   0.6160 
 14 C        2.5720     0.7520    -0.5690 C.ar  1 <1>  -0.1500 
 15 C        2.8790     0.1970     1.7430 C.ar  1 <1>  -0.1500 
 16 C        4.4610    -4.1580     2.5620 C.3   1 <1>  -0.1020 
 17 O        6.0940    -2.2910     1.0110 O.2   1 <1>  -0.5700 
 18 N        5.3110    -1.3520    -0.8140 N.am  1 <1>  -0.6600 
 19 C        2.6990     2.1050    -0.2750 C.ar  1 <1>   0.0830 
 20 C        3.0150     1.5390     2.0500 C.ar  1 <1>  -0.1500 
 21 C        5.9290    -2.0730    -1.9610 C.3   1 <1>   0.1400 
 22 C        5.7410     0.0790    -0.7270 C.3   1 <1>   0.1400 
 23 O        2.5900     3.0850    -1.2170 O.3   1 <1>  -0.3630 
 24 C        2.9530     2.4840     1.0420 C.ar  1 <1>   0.0830 
 25 C        7.4440    -1.8140    -2.0220 C.3   1 <1>   0.1200 
 26 C        7.2640     0.2200    -0.8860 C.3   1 <1>   0.1200 
 27 C        2.2420     2.7790    -2.5490 C.3   1 <1>   0.0400 
 28 O        3.1540     3.7870     1.3530 O.3   1 <1>  -0.2330 
 29 O        7.7060    -0.4400    -2.0400 O.3   1 <1>  -0.5600 
 30 C        4.2900     4.4050     1.0490 C.2   1 <1>   0.6590 
 31 O        5.2590     3.8440     0.6040 O.2   1 <1>  -0.5700 
 32 C        4.3030     5.8920     1.3020 C.3   1 <1>  -0.1790 
 33 H       -1.5130    -3.0630    -0.6790 H     1 <1>   0.0800 
 34 H       -1.9360    -1.4230    -0.2830 H     1 <1>   0.0800 
 35 H        2.7700    -1.8190    -0.9910 H     1 <1>   0.0800 
 36 H       -2.3600    -3.0390     1.6070 H     1 <1>   0.0800 
 37 H       -1.3000    -1.7220     2.0220 H     1 <1>   0.0800 
 38 H        1.9890    -4.2500     2.8890 H     1 <1>   0.4000 
 39 H       -0.3250    -3.7110     2.9200 H     1 <1>   0.0800 
 40 H       -0.4690    -4.5650     1.4060 H     1 <1>   0.0800 
 41 H        2.3950     0.4250    -1.5760 H     1 <1>   0.1500 
 42 H        2.9400    -0.5350     2.5310 H     1 <1>   0.1500 
 43 H        4.7480    -3.6160     3.4440 H     1 <1>   0.0800 
 44 H        5.3410    -4.3780     1.9880 H     1 <1>   0.0800 
 45 H        4.0330    -5.0990     2.8540 H     1 <1>   0.0800 
 46 H        3.1840     1.8480     3.0650 H     1 <1>   0.1500 
 47 H        5.4740    -1.7390    -2.8770 H     1 <1>   0.0800 
 48 H        5.7530    -3.1300    -1.8620 H     1 <1>   0.0800 
 49 H        5.4480     0.4940     0.2220 H     1 <1>   0.0800 
 50 H        5.2530     0.6480    -1.4990 H     1 <1>   0.0800 
 51 H        7.8600    -2.2400    -2.9170 H     1 <1>   0.0800 
 52 H        7.9360    -2.2490    -1.1680 H     1 <1>   0.0800 
 53 H        7.7690    -0.1980    -0.0320 H     1 <1>   0.0800 
 54 H        7.5310     1.2580    -0.9730 H     1 <1>   0.0800 
 55 H        2.1610     3.7010    -3.0940 H     1 <1>   0.0800 
 56 H        1.2960     2.2650    -2.5540 H     1 <1>   0.0800 
 57 H        3.0150     2.1670    -2.9790 H     1 <1>   0.0800 
 58 H        4.1160     6.0820     2.3420 H     1 <1>   0.0800 
 59 H        3.5410     6.3600     0.7090 H     1 <1>   0.0800 
 60 H        5.2600     6.2980     1.0330 H     1 <1>   0.0800 
@<TRIPOS>BOND
  1   1   2  2   
  2   2   3  1   
  3   2   4  1   
  4   3   5  2   
  5   3   6  1   
  6   4   7  1   
  7   4  33  1   
  8   4  34  1   
  9   5   8  1   
 10   5   9  1   
 11   6  10  1   
 12   6  11  1   
 13   6  35  1   
 14   7   9  1   
 15   7  36  1   
 16   7  37  1   
 17   8  12  1   
 18   8  38  1   
 19   9  39  1   
 20   9  40  1   
 21  10  12  2   
 22  10  13  1   
 23  11  14  ar  
 24  11  15  ar  
 25  12  16  1   
 26  13  17  2   
 27  13  18  am  
 28  14  19  ar  
 29  14  41  1   
 30  15  20  ar  
 31  15  42  1   
 32  16  43  1   
 33  16  44  1   
 34  16  45  1   
 35  18  21  1   
 36  18  22  1   
 37  19  23  1   
 38  19  24  ar  
 39  20  24  ar  
 40  20  46  1   
 41  21  25  1   
 42  21  47  1   
 43  21  48  1   
 44  22  26  1   
 45  22  49  1   
 46  22  50  1   
 47  23  27  1   
 48  24  28  1   
 49  25  29  1   
 50  25  51  1   
 51  25  52  1   
 52  26  29  1   
 53  26  53  1   
 54  26  54  1   
 55  27  55  1   
 56  27  56  1   
 57  27  57  1   
 58  28  30  1   
 59  30  31  2   
 60  30  32  1   
 61  32  58  1   
 62  32  59  1   
 63  32  60  1   
@<TRIPOS>SUBSTRUCTURE
  1 ****  11 GROUP 4 **** **** 0

# MOE 2024.06 (io_trps.svl 2023.06)
