@<TRIPOS>MOLECULE
1-{4-[2-Hydroxy-3-(4-methyl-piperidin-1-yl)-propoxy]-3-methoxy-phenyl}-ethanone
51 52 1 0 0 
SMALL
USER_CHARGES


@<TRIPOS>ATOM
  1 O       -2.7230    -0.5130     3.3100 O.2   1 <1>  -0.5700 
  2 C       -3.2720    -1.3320     2.6200 C.2   1 <1>   0.4230 
  3 C       -4.3430    -1.0000     1.7000 C.ar  1 <1>   0.0860 
  4 C       -2.7800    -2.7600     2.7560 C.3   1 <1>  -0.1790 
  5 C       -4.9770    -1.9460     0.8830 C.ar  1 <1>  -0.1500 
  6 C       -4.7910     0.3200     1.6020 C.ar  1 <1>  -0.1500 
  7 C       -5.9970    -1.5980     0.0040 C.ar  1 <1>   0.0830 
  8 C       -5.8030     0.6860     0.7360 C.ar  1 <1>  -0.1500 
  9 O       -6.6340    -2.5170    -0.7830 O.3   1 <1>  -0.3630 
 10 C       -6.4010    -0.2610    -0.0730 C.ar  1 <1>   0.0830 
 11 C       -6.0950    -3.8120    -0.9710 C.3   1 <1>   0.0400 
 12 O       -7.3830     0.1570    -0.9000 O.3   1 <1>  -0.3630 
 13 C       -7.1760     0.0570    -2.2990 C.3   1 <1>   0.1200 
 14 C       -8.5240    -0.0970    -3.0290 C.3   1 <1>   0.2000 
 15 O       -9.2970     1.0480    -2.8380 O.3   1 <1>  -0.6800 
 16 C       -9.3090    -1.3500    -2.5560 C.3   1 <1>   0.3430 
 17 N       -9.7630    -1.2730    -1.1280 N.4   1 <1>  -0.9590 
 18 C       -9.8170    -2.6040    -0.4730 C.3   1 <1>   0.3430 
 19 C      -11.0300    -0.5060    -0.9550 C.3   1 <1>   0.3430 
 20 C      -10.0420    -2.4190     1.0270 C.3   1 <1>  -0.1600 
 21 C      -11.2870    -0.2880     0.5360 C.3   1 <1>  -0.1600 
 22 C      -11.3180    -1.6140     1.3110 C.3   1 <1>  -0.0800 
 23 C      -11.4720    -1.3570     2.8140 C.3   1 <1>  -0.2400 
 24 H       -2.3950    -3.1100     1.8160 H     1 <1>   0.0800 
 25 H       -3.5800    -3.3970     3.0850 H     1 <1>   0.0800 
 26 H       -1.9900    -2.8050     3.4840 H     1 <1>   0.0800 
 27 H       -4.6590    -2.9660     0.9520 H     1 <1>   0.1500 
 28 H       -4.3320     1.0730     2.2210 H     1 <1>   0.1500 
 29 H       -6.1260     1.7110     0.6860 H     1 <1>   0.1500 
 30 H       -6.6770    -4.3180    -1.7200 H     1 <1>   0.0800 
 31 H       -6.1490    -4.3550    -0.0440 H     1 <1>   0.0800 
 32 H       -5.0750    -3.7240    -1.3040 H     1 <1>   0.0800 
 33 H       -6.5470    -0.7890    -2.5080 H     1 <1>   0.0800 
 34 H       -6.6630     0.9450    -2.6250 H     1 <1>   0.0800 
 35 H       -8.3380    -0.1830    -4.0860 H     1 <1>   0.0800 
 36 H       -8.8040     1.8570    -3.0900 H     1 <1>   0.4000 
 37 H       -8.6580    -2.2000    -2.6690 H     1 <1>   0.0800 
 38 H      -10.1580    -1.5010    -3.2010 H     1 <1>   0.0800 
 39 H       -9.0250    -0.7250    -0.6470 H     1 <1>   0.4500 
 40 H       -8.8910    -3.1320    -0.6320 H     1 <1>   0.0800 
 41 H      -10.6210    -3.1860    -0.8920 H     1 <1>   0.0800 
 42 H      -11.8500    -1.0520    -1.3910 H     1 <1>   0.0800 
 43 H      -10.9620     0.4510    -1.4450 H     1 <1>   0.0800 
 44 H       -9.1850    -1.9240     1.4510 H     1 <1>   0.0800 
 45 H      -10.1170    -3.3880     1.4900 H     1 <1>   0.0800 
 46 H      -12.2280     0.2200     0.6540 H     1 <1>   0.0800 
 47 H      -10.5210     0.3570     0.9300 H     1 <1>   0.0800 
 48 H      -12.1690    -2.1870     0.9790 H     1 <1>   0.0800 
 49 H      -10.6430    -0.7850     3.1930 H     1 <1>   0.0800 
 50 H      -11.5180    -2.2890     3.3510 H     1 <1>   0.0800 
 51 H      -12.3800    -0.8130     3.0100 H     1 <1>   0.0800 
@<TRIPOS>BOND
  1   1   2  2   
  2   2   3  1   
  3   2   4  1   
  4   3   5  ar  
  5   3   6  ar  
  6   4  24  1   
  7   4  25  1   
  8   4  26  1   
  9   5   7  ar  
 10   5  27  1   
 11   6   8  ar  
 12   6  28  1   
 13   7   9  1   
 14   7  10  ar  
 15   8  10  ar  
 16   8  29  1   
 17   9  11  1   
 18  10  12  1   
 19  11  30  1   
 20  11  31  1   
 21  11  32  1   
 22  12  13  1   
 23  13  14  1   
 24  13  33  1   
 25  13  34  1   
 26  14  15  1   
 27  14  16  1   
 28  14  35  1   
 29  15  36  1   
 30  16  17  1   
 31  16  37  1   
 32  16  38  1   
 33  17  18  1   
 34  17  19  1   
 35  17  39  1   
 36  18  20  1   
 37  18  40  1   
 38  18  41  1   
 39  19  21  1   
 40  19  42  1   
 41  19  43  1   
 42  20  22  1   
 43  20  44  1   
 44  20  45  1   
 45  21  22  1   
 46  21  46  1   
 47  21  47  1   
 48  22  23  1   
 49  22  48  1   
 50  23  49  1   
 51  23  50  1   
 52  23  51  1   
@<TRIPOS>SUBSTRUCTURE
  1 ****  10 GROUP 4 **** **** 0

# MOE 2024.06 (io_trps.svl 2023.06)
