@<TRIPOS>MOLECULE
N-(1-Ethyl-5-methoxy-2-oxo-2,3-dihydro-1H-indol-3-yl)-acetamide
34 35 1 0 0 
SMALL
USER_CHARGES


@<TRIPOS>ATOM
  1 O       -0.2150     0.1220     0.3890 O.2   1 <1>  -0.5700 
  2 C       -1.3630     0.5070     0.3520 C.2   1 <1>   0.5690 
  3 N       -2.4710    -0.2690     0.5540 N.am  1 <1>  -0.4770 
  4 C       -1.7860     1.9480     0.0220 C.3   1 <1>   0.4250 
  5 C       -3.6240     0.4960     0.3790 C.ar  1 <1>   0.1170 
  6 C       -2.4350    -1.7060     0.8970 C.3   1 <1>   0.1400 
  7 N       -1.3860     2.9700     1.0230 N.am  1 <1>  -0.7300 
  8 C       -3.2970     1.8010     0.0630 C.ar  1 <1>  -0.1430 
  9 C       -4.9540     0.1160     0.4800 C.ar  1 <1>  -0.1500 
 10 C       -2.6540    -2.5410    -0.3630 C.3   1 <1>  -0.2400 
 11 C       -0.2180     3.6340     1.1150 C.2   1 <1>   0.5690 
 12 C       -4.2750     2.7540    -0.1570 C.ar  1 <1>  -0.1500 
 13 C       -5.9410     1.0630     0.2600 C.ar  1 <1>  -0.1500 
 14 O       -0.0510     4.4280     2.0010 O.2   1 <1>  -0.5700 
 15 C        0.8880     3.4040     0.1140 C.3   1 <1>  -0.1790 
 16 C       -5.6140     2.3770    -0.0560 C.ar  1 <1>   0.0830 
 17 O       -6.6520     3.2310    -0.2490 O.3   1 <1>  -0.3630 
 18 C       -6.4310     4.5960    -0.5270 C.3   1 <1>   0.0400 
 19 H       -1.4520     2.2170    -0.9640 H     1 <1>   0.0800 
 20 H       -3.1970    -1.9180     1.6270 H     1 <1>   0.0800 
 21 H       -1.4780    -1.9450     1.3300 H     1 <1>   0.0800 
 22 H       -2.0540     3.1180     1.7810 H     1 <1>   0.3700 
 23 H       -5.2160    -0.8970     0.7240 H     1 <1>   0.1500 
 24 H       -3.6090    -2.3180    -0.8050 H     1 <1>   0.0800 
 25 H       -2.6280    -3.5860    -0.1140 H     1 <1>   0.0800 
 26 H       -1.8750    -2.3420    -1.0770 H     1 <1>   0.0800 
 27 H       -3.9860     3.7600    -0.3970 H     1 <1>   0.1500 
 28 H       -6.9790     0.7920     0.3320 H     1 <1>   0.1500 
 29 H        0.5440     3.6300    -0.8770 H     1 <1>   0.0800 
 30 H        1.2180     2.3830     0.1620 H     1 <1>   0.0800 
 31 H        1.7200     4.0430     0.3450 H     1 <1>   0.0800 
 32 H       -7.3880     5.0760    -0.6220 H     1 <1>   0.0800 
 33 H       -5.8880     4.6820    -1.4510 H     1 <1>   0.0800 
 34 H       -5.8820     5.0350     0.2870 H     1 <1>   0.0800 
@<TRIPOS>BOND
  1   1   2  2   
  2   2   3  am  
  3   2   4  1   
  4   3   5  1   
  5   3   6  1   
  6   4   7  1   
  7   4   8  1   
  8   4  19  1   
  9   5   8  ar  
 10   5   9  ar  
 11   6  10  1   
 12   6  20  1   
 13   6  21  1   
 14   7  11  am  
 15   7  22  1   
 16   8  12  ar  
 17   9  13  ar  
 18   9  23  1   
 19  10  24  1   
 20  10  25  1   
 21  10  26  1   
 22  11  14  2   
 23  11  15  1   
 24  12  16  ar  
 25  12  27  1   
 26  13  16  ar  
 27  13  28  1   
 28  15  29  1   
 29  15  30  1   
 30  15  31  1   
 31  16  17  1   
 32  17  18  1   
 33  18  32  1   
 34  18  33  1   
 35  18  34  1   
@<TRIPOS>SUBSTRUCTURE
  1 ****   8 GROUP 4 **** **** 0

# MOE 2024.06 (io_trps.svl 2023.06)
