@<TRIPOS>MOLECULE
1,3-Dimethyl-8-(2-methyl-piperidin-1-ylmethyl)-7-propyl-3,7-dihydro-purine-2,6-d
52 54 1 0 0 
SMALL
USER_CHARGES


@<TRIPOS>ATOM
  1 O        0.4420     0.2130    -0.9410 O.2   1 <1>  -0.5700 
  2 C        1.4230     0.8570    -0.6310 C.2   1 <1>   0.6900 
  3 N        1.2760     2.1260    -0.0800 N.am  1 <1>  -0.4200 
  4 N        2.6880     0.3220    -0.8200 N.am  1 <1>  -0.4360 
  5 C        2.3760     2.8580     0.3480 C.2   1 <1>   0.7030 
  6 C       -0.1030     2.6840     0.0890 C.3   1 <1>   0.0600 
  7 C        3.7760     1.0630    -0.3990 C.2   1 <1>   0.4260 
  8 C        2.8740    -1.0290    -1.4270 C.3   1 <1>   0.0600 
  9 O        2.2280     3.9510     0.8660 O.2   1 <1>  -0.5700 
 10 C        3.6820     2.2890     0.1700 C.2   1 <1>   0.2770 
 11 N        5.0860     0.7280    -0.4600 N.pl3 1 <1>  -0.7000 
 12 N        4.9920     2.6980     0.4580 N.pl3 1 <1>  -0.7640 
 13 C        5.7980     1.7180     0.0590 C.cat 1 <1>   0.6560 
 14 C        5.3360     3.9990     1.0880 C.3   1 <1>   0.3540 
 15 C        7.3310     1.6480     0.1350 C.3   1 <1>   0.2540 
 16 C        5.4030     5.0830     0.0090 C.3   1 <1>  -0.1600 
 17 N        7.8230     0.2680    -0.1600 N.3   1 <1>  -0.8100 
 18 C        5.7920     6.4450     0.5980 C.3   1 <1>  -0.2400 
 19 C        8.1550    -0.5180     1.0550 C.3   1 <1>   0.1900 
 20 C        8.9760     0.3300    -1.0810 C.3   1 <1>   0.1100 
 21 C        8.5570    -1.9460     0.6550 C.3   1 <1>  -0.1600 
 22 C        6.9660    -0.6010     2.0200 C.3   1 <1>  -0.2400 
 23 C        9.3750    -1.0730    -1.5410 C.3   1 <1>  -0.1600 
 24 C        9.7170    -1.9610    -0.3440 C.3   1 <1>  -0.1600 
 25 H       -0.7250     2.4000    -0.7430 H     1 <1>   0.0800 
 26 H       -0.0820     3.7590     0.1390 H     1 <1>   0.0800 
 27 H       -0.5380     2.2990     0.9950 H     1 <1>   0.0800 
 28 H        1.9990    -1.3210    -1.9830 H     1 <1>   0.0800 
 29 H        3.0450    -1.7550    -0.6500 H     1 <1>   0.0800 
 30 H        3.7110    -1.0230    -2.1020 H     1 <1>   0.0800 
 31 H        5.5500    -0.1230    -0.7980 H     1 <1>   0.4500 
 32 H        6.2860     3.9260     1.5890 H     1 <1>   0.0800 
 33 H        4.5930     4.2590     1.8250 H     1 <1>   0.0800 
 34 H        7.6730     1.9710     1.1020 H     1 <1>   0.0800 
 35 H        7.7140     2.3420    -0.5930 H     1 <1>   0.0800 
 36 H        4.4410     5.1770    -0.4640 H     1 <1>   0.0800 
 37 H        6.1270     4.8080    -0.7380 H     1 <1>   0.0800 
 38 H        5.0680     6.7620     1.3300 H     1 <1>   0.0800 
 39 H        5.8250     7.1860    -0.1820 H     1 <1>   0.0800 
 40 H        6.7610     6.4020     1.0640 H     1 <1>   0.0800 
 41 H        8.9870    -0.0550     1.5620 H     1 <1>   0.0800 
 42 H        9.8140     0.8010    -0.5920 H     1 <1>   0.0800 
 43 H        8.7200     0.9110    -1.9520 H     1 <1>   0.0800 
 44 H        7.7090    -2.4470     0.2210 H     1 <1>   0.0800 
 45 H        8.8480    -2.4990     1.5310 H     1 <1>   0.0800 
 46 H        6.1070    -1.0230     1.5320 H     1 <1>   0.0800 
 47 H        6.7190     0.3570     2.4360 H     1 <1>   0.0800 
 48 H        7.2230    -1.2410     2.8460 H     1 <1>   0.0800 
 49 H       10.2260    -1.0070    -2.1950 H     1 <1>   0.0800 
 50 H        8.5630    -1.5060    -2.1000 H     1 <1>   0.0800 
 51 H        9.9070    -2.9680    -0.6740 H     1 <1>   0.0800 
 52 H       10.6080    -1.5920     0.1350 H     1 <1>   0.0800 
@<TRIPOS>BOND
  1   1   2  2   
  2   2   3  am  
  3   2   4  am  
  4   3   5  am  
  5   3   6  1   
  6   4   7  1   
  7   4   8  1   
  8   5   9  2   
  9   5  10  1   
 10   6  25  1   
 11   6  26  1   
 12   6  27  1   
 13   7  10  2   
 14   7  11  1   
 15   8  28  1   
 16   8  29  1   
 17   8  30  1   
 18  10  12  1   
 19  11  13  ar  
 20  11  31  1   
 21  12  13  ar  
 22  12  14  1   
 23  13  15  1   
 24  14  16  1   
 25  14  32  1   
 26  14  33  1   
 27  15  17  1   
 28  15  34  1   
 29  15  35  1   
 30  16  18  1   
 31  16  36  1   
 32  16  37  1   
 33  17  19  1   
 34  17  20  1   
 35  18  38  1   
 36  18  39  1   
 37  18  40  1   
 38  19  21  1   
 39  19  22  1   
 40  19  41  1   
 41  20  23  1   
 42  20  42  1   
 43  20  43  1   
 44  21  24  1   
 45  21  44  1   
 46  21  45  1   
 47  22  46  1   
 48  22  47  1   
 49  22  48  1   
 50  23  24  1   
 51  23  49  1   
 52  23  50  1   
 53  24  51  1   
 54  24  52  1   
@<TRIPOS>SUBSTRUCTURE
  1 ****  11 GROUP 4 **** **** 0

# MOE 2024.06 (io_trps.svl 2023.06)
