@<TRIPOS>MOLECULE
2-{[5-(2,3-Dihydro-benzo[1,4]dioxin-6-yl)-2-methyl-furan-3-carbonyl]-amino}-pent
45 47 1 0 0 
SMALL
USER_CHARGES


@<TRIPOS>ATOM
  1 O       -0.1010    -0.3500    -1.5890 O.2   1 <1>  -0.5700 
  2 C        0.3840    -0.9370    -0.6390 C.2   1 <1>   0.7160 
  3 N        1.3940    -0.3710     0.0680 N.am  1 <1>  -0.7300 
  4 C       -0.1260    -2.2270    -0.2400 C.2   1 <1>  -0.0860 
  5 C        2.3700     0.6630    -0.4020 C.3   1 <1>   0.1140 
  6 C        0.4920    -3.2930     0.3430 C.2   1 <1>  -0.0400 
  7 C       -1.4590    -2.6490    -0.3850 C.2   1 <1>  -0.1500 
  8 C        3.8100     0.1140    -0.2410 C.2   1 <1>   0.9060 
  9 C        2.0810     1.9540     0.3910 C.3   1 <1>  -0.1600 
 10 O       -0.3620    -4.2620     0.5630 O.3   1 <1>  -0.2800 
 11 C        1.9410    -3.5200     0.7290 C.3   1 <1>  -0.0600 
 12 C       -1.5590    -3.9020     0.1260 C.2   1 <1>   0.0870 
 13 O        4.0100    -0.7350     0.6500 O.co2 1 <1>  -0.9000 
 14 O        4.7020     0.4270    -1.0410 O.co2 1 <1>  -0.9000 
 15 C        2.8810     3.1770    -0.1010 C.3   1 <1>  -0.2660 
 16 C       -2.6850    -4.8030     0.2420 C.ar  1 <1>   0.0530 
 17 C        2.4430     4.4730     0.5520 C.2   1 <1>   0.9060 
 18 C       -3.9500    -4.4380    -0.2190 C.ar  1 <1>  -0.1500 
 19 C       -2.5490    -6.0680     0.8200 C.ar  1 <1>  -0.1500 
 20 O        2.7190     4.6760     1.7400 O.co2 1 <1>  -0.9000 
 21 O        1.8210     5.2990    -0.1250 O.co2 1 <1>  -0.9000 
 22 C       -5.0300    -5.2940    -0.1090 C.ar  1 <1>   0.0820 
 23 C       -3.6210    -6.9370     0.9300 C.ar  1 <1>  -0.1500 
 24 O       -6.2430    -4.8820    -0.5570 O.3   1 <1>  -0.3630 
 25 C       -4.8650    -6.5580     0.4610 C.ar  1 <1>   0.0820 
 26 C       -7.3680    -5.6320    -0.1390 C.3   1 <1>   0.1200 
 27 O       -5.9010    -7.4270     0.5600 O.3   1 <1>  -0.3620 
 28 C       -7.0590    -7.1340    -0.1990 C.3   1 <1>   0.1200 
 29 H        1.8760    -0.9520     0.7660 H     1 <1>   0.3700 
 30 H        2.2100     0.8500    -1.4480 H     1 <1>   0.0800 
 31 H       -2.2250    -2.0420    -0.8310 H     1 <1>   0.1500 
 32 H        2.3020     1.7940     1.4320 H     1 <1>   0.0800 
 33 H        1.0340     2.1860     0.3000 H     1 <1>   0.0800 
 34 H        2.5870    -2.8160     0.2370 H     1 <1>   0.0800 
 35 H        2.2440    -4.5080     0.4350 H     1 <1>   0.0800 
 36 H        2.0610    -3.4190     1.7920 H     1 <1>   0.0800 
 37 H        2.7600     3.2870    -1.1620 H     1 <1>   0.0800 
 38 H        3.9250     3.0380     0.1040 H     1 <1>   0.0800 
 39 H       -4.1040    -3.4760    -0.6680 H     1 <1>   0.1500 
 40 H       -1.5860    -6.3750     1.1880 H     1 <1>   0.1500 
 41 H       -3.4990    -7.9080     1.3750 H     1 <1>   0.1500 
 42 H       -8.1910    -5.3840    -0.7840 H     1 <1>   0.0800 
 43 H       -7.6080    -5.3400     0.8690 H     1 <1>   0.0800 
 44 H       -6.8770    -7.4370    -1.2150 H     1 <1>   0.0800 
 45 H       -7.8720    -7.7100     0.2020 H     1 <1>   0.0800 
@<TRIPOS>BOND
  1   1   2  2   
  2   2   3  am  
  3   2   4  1   
  4   3   5  1   
  5   3  29  1   
  6   4   6  2   
  7   4   7  1   
  8   5   8  1   
  9   5   9  1   
 10   5  30  1   
 11   6  10  1   
 12   6  11  1   
 13   7  12  2   
 14   7  31  1   
 15   8  13  ar  
 16   8  14  ar  
 17   9  15  1   
 18   9  32  1   
 19   9  33  1   
 20  10  12  1   
 21  11  34  1   
 22  11  35  1   
 23  11  36  1   
 24  12  16  1   
 25  15  17  1   
 26  15  37  1   
 27  15  38  1   
 28  16  18  ar  
 29  16  19  ar  
 30  17  20  ar  
 31  17  21  ar  
 32  18  22  ar  
 33  18  39  1   
 34  19  23  ar  
 35  19  40  1   
 36  22  24  1   
 37  22  25  ar  
 38  23  25  ar  
 39  23  41  1   
 40  24  26  1   
 41  25  27  1   
 42  26  28  1   
 43  26  42  1   
 44  26  43  1   
 45  27  28  1   
 46  28  44  1   
 47  28  45  1   
@<TRIPOS>SUBSTRUCTURE
  1 ****   4 GROUP 4 **** **** 0

# MOE 2024.06 (io_trps.svl 2023.06)
