@<TRIPOS>MOLECULE
1-(2,5-Dimethoxy-benzenesulfonyl)-piperidine-4-carboxylic acid propylamide
51 52 1 0 0 
SMALL
USER_CHARGES


@<TRIPOS>ATOM
  1 S       -0.3290    -0.1740     1.5350 S.o2  1 <1>   1.4470 
  2 O       -0.1310    -1.3890     2.2980 O.2   1 <1>  -0.6500 
  3 O       -0.6980     1.0190     2.2690 O.2   1 <1>  -0.6500 
  4 N        1.1550     0.1580     0.7780 N.am  1 <1>  -0.8490 
  5 C       -1.4680    -0.5580     0.1750 C.ar  1 <1>  -0.0090 
  6 C        2.2470     0.1410     1.7550 C.3   1 <1>   0.1960 
  7 C        1.1200     1.4190     0.0280 C.3   1 <1>   0.1960 
  8 C       -2.2230     0.4190    -0.4720 C.ar  1 <1>   0.0830 
  9 C       -1.5950    -1.8710    -0.2670 C.ar  1 <1>  -0.1500 
 10 C        3.5990     0.3250     1.0610 C.3   1 <1>  -0.1600 
 11 C        2.4370     1.6400    -0.7190 C.3   1 <1>  -0.1600 
 12 O       -2.1180     1.7170    -0.1200 O.3   1 <1>  -0.3620 
 13 C       -3.0770     0.0940    -1.5160 C.ar  1 <1>  -0.1500 
 14 C       -2.4540    -2.2090    -1.3090 C.ar  1 <1>   0.0830 
 15 C        3.6340     1.6250     0.2440 C.3   1 <1>  -0.0190 
 16 C       -3.1720     2.2410     0.6580 C.3   1 <1>   0.0400 
 17 C       -3.1940    -1.2180    -1.9290 C.ar  1 <1>  -0.1500 
 18 O       -2.6190    -3.4740    -1.7710 O.3   1 <1>  -0.3630 
 19 C        4.9590     1.7960    -0.4960 C.2   1 <1>   0.5690 
 20 C       -1.9090    -4.5560    -1.2090 C.3   1 <1>   0.0400 
 21 O        5.3060     0.9650    -1.3000 O.2   1 <1>  -0.5700 
 22 N        5.7170     2.8920    -0.2240 N.am  1 <1>  -0.7300 
 23 C        7.0250     3.1920    -0.8420 C.3   1 <1>   0.1400 
 24 C        8.0480     3.4600     0.2620 C.3   1 <1>  -0.1600 
 25 C        9.4260     3.7860    -0.3240 C.3   1 <1>  -0.2400 
 26 H        2.2580    -0.8050     2.2720 H     1 <1>   0.0800 
 27 H        2.0950     0.9190     2.4860 H     1 <1>   0.0800 
 28 H        0.9320     2.2430     0.6980 H     1 <1>   0.0800 
 29 H        0.3260     1.3880    -0.6970 H     1 <1>   0.0800 
 30 H       -1.0070    -2.6250     0.2220 H     1 <1>   0.1500 
 31 H        3.7740    -0.5180     0.4140 H     1 <1>   0.0800 
 32 H        4.3810     0.3380     1.7990 H     1 <1>   0.0800 
 33 H        2.3990     2.5820    -1.2370 H     1 <1>   0.0800 
 34 H        2.5520     0.8650    -1.4570 H     1 <1>   0.0800 
 35 H       -3.6410     0.8670    -2.0050 H     1 <1>   0.1500 
 36 H        3.5210     2.4490     0.9260 H     1 <1>   0.0800 
 37 H       -2.9330     3.2610     0.9030 H     1 <1>   0.0800 
 38 H       -3.2600     1.6620     1.5610 H     1 <1>   0.0800 
 39 H       -4.0850     2.2000     0.0930 H     1 <1>   0.0800 
 40 H       -3.8540    -1.4830    -2.7360 H     1 <1>   0.1500 
 41 H       -2.1990    -5.4520    -1.7280 H     1 <1>   0.0800 
 42 H       -2.1640    -4.6390    -0.1670 H     1 <1>   0.0800 
 43 H       -0.8540    -4.3870    -1.3360 H     1 <1>   0.0800 
 44 H        5.3880     3.5790     0.4530 H     1 <1>   0.3700 
 45 H        6.9280     4.0560    -1.4780 H     1 <1>   0.0800 
 46 H        7.3480     2.3610    -1.4470 H     1 <1>   0.0800 
 47 H        8.1310     2.5860     0.8850 H     1 <1>   0.0800 
 48 H        7.7200     4.2870     0.8670 H     1 <1>   0.0800 
 49 H        9.7860     2.9640    -0.9190 H     1 <1>   0.0800 
 50 H       10.1310     3.9650     0.4690 H     1 <1>   0.0800 
 51 H        9.3770     4.6660    -0.9420 H     1 <1>   0.0800 
@<TRIPOS>BOND
  1   1   2  2   
  2   1   3  2   
  3   1   4  am  
  4   1   5  1   
  5   4   6  1   
  6   4   7  1   
  7   5   8  ar  
  8   5   9  ar  
  9   6  10  1   
 10   6  26  1   
 11   6  27  1   
 12   7  11  1   
 13   7  28  1   
 14   7  29  1   
 15   8  12  1   
 16   8  13  ar  
 17   9  14  ar  
 18   9  30  1   
 19  10  15  1   
 20  10  31  1   
 21  10  32  1   
 22  11  15  1   
 23  11  33  1   
 24  11  34  1   
 25  12  16  1   
 26  13  17  ar  
 27  13  35  1   
 28  14  17  ar  
 29  14  18  1   
 30  15  19  1   
 31  15  36  1   
 32  16  37  1   
 33  16  38  1   
 34  16  39  1   
 35  17  40  1   
 36  18  20  1   
 37  19  21  2   
 38  19  22  am  
 39  20  41  1   
 40  20  42  1   
 41  20  43  1   
 42  22  23  1   
 43  22  44  1   
 44  23  24  1   
 45  23  45  1   
 46  23  46  1   
 47  24  25  1   
 48  24  47  1   
 49  24  48  1   
 50  25  49  1   
 51  25  50  1   
 52  25  51  1   
@<TRIPOS>SUBSTRUCTURE
  1 ****   4 GROUP 4 **** **** 0

# MOE 2024.06 (io_trps.svl 2023.06)
