@<TRIPOS>MOLECULE
(4-Ethoxy-phenyl)-(4-pyridin-2-yl-piperazin-1-yl)-methanone
44 46 1 0 0 
SMALL
USER_CHARGES


@<TRIPOS>ATOM
  1 O        0.6250     0.2960     0.1040 O.2   1 <1>  -0.5700 
  2 C        0.4810     1.4530    -0.2440 C.2   1 <1>   0.5440 
  3 N        1.5820     2.1560    -0.6890 N.am  1 <1>  -0.6600 
  4 C       -0.8380     2.0540    -0.1700 C.ar  1 <1>   0.0860 
  5 C        1.6730     3.6520    -0.7010 C.3   1 <1>   0.1400 
  6 C        2.8830     1.4750    -1.0000 C.3   1 <1>   0.1400 
  7 C       -1.3890     2.7510    -1.2470 C.ar  1 <1>  -0.1500 
  8 C       -1.6110     1.9440     0.9860 C.ar  1 <1>  -0.1500 
  9 C        2.8470     4.1610     0.1580 C.3   1 <1>   0.2090 
 10 C        4.0270     2.0120    -0.1260 C.3   1 <1>   0.2090 
 11 C       -2.6430     3.3280    -1.1640 C.ar  1 <1>  -0.1500 
 12 C       -2.8670     2.5160     1.0770 C.ar  1 <1>  -0.1500 
 13 N        4.1260     3.5010    -0.2270 N.pl3 1 <1>  -0.8380 
 14 C       -3.3920     3.2190    -0.0040 C.ar  1 <1>   0.0830 
 15 C        5.2810     4.0990     0.2340 C.ar  1 <1>   0.4100 
 16 O       -4.6070     3.8100    -0.0020 O.3   1 <1>  -0.3630 
 17 N        5.8540     3.5750     1.3100 N.ar  1 <1>  -0.6200 
 18 C        5.7800     5.2170    -0.4300 C.ar  1 <1>  -0.1500 
 19 C       -5.4790     3.7150     1.1000 C.3   1 <1>   0.1200 
 20 C        6.9510     4.1810     1.7330 C.ar  1 <1>   0.1600 
 21 C        6.9210     5.8390     0.0210 C.ar  1 <1>  -0.1500 
 22 C       -6.7610     4.4680     0.7550 C.3   1 <1>  -0.2400 
 23 C        7.5180     5.2960     1.1400 C.ar  1 <1>  -0.1500 
 24 H        0.7660     4.0910    -0.3280 H     1 <1>   0.0800 
 25 H        1.8140     3.9860    -1.7130 H     1 <1>   0.0800 
 26 H        3.1280     1.6470    -2.0330 H     1 <1>   0.0800 
 27 H        2.8010     0.4120    -0.8570 H     1 <1>   0.0800 
 28 H       -0.8230     2.8340    -2.1580 H     1 <1>   0.1500 
 29 H       -1.2110     1.3940     1.8200 H     1 <1>   0.1500 
 30 H        2.6440     3.9580     1.1950 H     1 <1>   0.0800 
 31 H        2.9410     5.2260     0.0400 H     1 <1>   0.0800 
 32 H        4.9580     1.5710    -0.4390 H     1 <1>   0.0800 
 33 H        3.8540     1.7300     0.8990 H     1 <1>   0.0800 
 34 H       -3.0560     3.8630    -2.0000 H     1 <1>   0.1500 
 35 H       -3.4210     2.4030     1.9900 H     1 <1>   0.1500 
 36 H        5.2610     5.5740    -1.2970 H     1 <1>   0.1500 
 37 H       -4.9980     4.1560     1.9550 H     1 <1>   0.0800 
 38 H       -5.6870     2.6750     1.2810 H     1 <1>   0.0800 
 39 H        7.4260     3.7650     2.6050 H     1 <1>   0.1500 
 40 H        7.3290     6.7030    -0.4730 H     1 <1>   0.1500 
 41 H       -6.5400     5.5020     0.5590 H     1 <1>   0.0800 
 42 H       -7.4490     4.4140     1.5780 H     1 <1>   0.0800 
 43 H       -7.2240     4.0300    -0.1110 H     1 <1>   0.0800 
 44 H        8.4130     5.7300     1.5470 H     1 <1>   0.1500 
@<TRIPOS>BOND
  1   1   2  2   
  2   2   3  am  
  3   2   4  1   
  4   3   5  1   
  5   3   6  1   
  6   4   7  ar  
  7   4   8  ar  
  8   5   9  1   
  9   5  24  1   
 10   5  25  1   
 11   6  10  1   
 12   6  26  1   
 13   6  27  1   
 14   7  11  ar  
 15   7  28  1   
 16   8  12  ar  
 17   8  29  1   
 18   9  13  1   
 19   9  30  1   
 20   9  31  1   
 21  10  13  1   
 22  10  32  1   
 23  10  33  1   
 24  11  14  ar  
 25  11  34  1   
 26  12  14  ar  
 27  12  35  1   
 28  13  15  1   
 29  14  16  1   
 30  15  17  ar  
 31  15  18  ar  
 32  16  19  1   
 33  17  20  ar  
 34  18  21  ar  
 35  18  36  1   
 36  19  22  1   
 37  19  37  1   
 38  19  38  1   
 39  20  23  ar  
 40  20  39  1   
 41  21  23  ar  
 42  21  40  1   
 43  22  41  1   
 44  22  42  1   
 45  22  43  1   
 46  23  44  1   
@<TRIPOS>SUBSTRUCTURE
  1 ****   5 GROUP 4 **** **** 0

# MOE 2024.06 (io_trps.svl 2023.06)
