@<TRIPOS>MOLECULE
4-Chloro-N-[1-(5-mercapto-4-methyl-4H-[1,2,4]triazol-3-yl)-2-methyl-propyl]-benz
38 39 1 0 0 
SMALL
USER_CHARGES


@<TRIPOS>ATOM
  1 CL       0.9510    -2.0090     4.1640 Cl    1 <1>  -0.1770 
  2 C        2.2290    -1.9860     2.9820 C.ar  1 <1>   0.1770 
  3 C        1.9840    -1.4550     1.7300 C.ar  1 <1>  -0.1500 
  4 C        3.4690    -2.5010     3.3070 C.ar  1 <1>  -0.1500 
  5 C        2.9970    -1.4490     0.7870 C.ar  1 <1>  -0.1500 
  6 C        4.4770    -2.4860     2.3590 C.ar  1 <1>  -0.1500 
  7 C        4.2590    -1.9700     1.0800 C.ar  1 <1>   0.0860 
  8 C        5.3080    -1.9940     0.0810 C.2   1 <1>   0.5440 
  9 O        6.3480    -1.3990     0.2430 O.2   1 <1>  -0.5700 
 10 N        5.1920    -2.7060    -1.0680 N.am  1 <1>  -0.7300 
 11 C        4.3590    -3.9290    -1.2340 C.3   1 <1>   0.3880 
 12 C        4.7270    -4.9960    -0.1810 C.2   1 <1>   0.4850 
 13 C        4.4870    -4.4630    -2.6840 C.3   1 <1>  -0.0800 
 14 N        5.8860    -5.5500    -0.0930 N.2   1 <1>  -0.2600 
 15 N        3.8540    -5.4510     0.7900 N.pl3 1 <1>  -0.7640 
 16 C        4.1120    -3.4020    -3.7360 C.3   1 <1>  -0.2400 
 17 C        3.6070    -5.7060    -2.9110 C.3   1 <1>  -0.2400 
 18 N        5.7670    -6.3910     0.9760 N.pl3 1 <1>  -0.3930 
 19 C        4.5610    -6.3170     1.4900 C.cat 1 <1>   0.7360 
 20 C        2.4400    -5.1460     1.1110 C.3   1 <1>   0.2740 
 21 S        4.0380    -7.1500     2.7770 S.3   1 <1>  -0.9360 
 22 H        1.0130    -1.0490     1.5050 H     1 <1>   0.1500 
 23 H        3.6410    -2.9110     4.2880 H     1 <1>   0.1500 
 24 H        2.8190    -1.0290    -0.1890 H     1 <1>   0.1500 
 25 H        5.4480    -2.8830     2.6040 H     1 <1>   0.1500 
 26 H        6.0240    -2.6720    -1.6600 H     1 <1>   0.3700 
 27 H        3.3340    -3.6480    -1.0830 H     1 <1>   0.0800 
 28 H        5.5110    -4.7550    -2.8470 H     1 <1>   0.0800 
 29 H        3.0990    -3.0670    -3.5980 H     1 <1>   0.0800 
 30 H        4.2010    -3.8120    -4.7280 H     1 <1>   0.0800 
 31 H        4.7640    -2.5480    -3.6780 H     1 <1>   0.0800 
 32 H        2.5690    -5.4790    -2.7410 H     1 <1>   0.0800 
 33 H        3.8940    -6.5130    -2.2580 H     1 <1>   0.0800 
 34 H        3.7140    -6.0580    -3.9230 H     1 <1>   0.0800 
 35 H        6.4750    -7.0060     1.3770 H     1 <1>   0.4500 
 36 H        2.1080    -4.2600     0.6040 H     1 <1>   0.0800 
 37 H        2.3340    -4.9960     2.1730 H     1 <1>   0.0800 
 38 H        1.8200    -5.9780     0.8240 H     1 <1>   0.0800 
@<TRIPOS>BOND
  1   1   2  1   
  2   2   3  ar  
  3   2   4  ar  
  4   3   5  ar  
  5   3  22  1   
  6   4   6  ar  
  7   4  23  1   
  8   5   7  ar  
  9   5  24  1   
 10   6   7  ar  
 11   6  25  1   
 12   7   8  1   
 13   8   9  2   
 14   8  10  am  
 15  10  11  1   
 16  10  26  1   
 17  11  12  1   
 18  11  13  1   
 19  11  27  1   
 20  12  14  2   
 21  12  15  1   
 22  13  16  1   
 23  13  17  1   
 24  13  28  1   
 25  14  18  1   
 26  15  19  ar  
 27  15  20  1   
 28  16  29  1   
 29  16  30  1   
 30  16  31  1   
 31  17  32  1   
 32  17  33  1   
 33  17  34  1   
 34  18  19  ar  
 35  18  35  1   
 36  19  21  1   
 37  20  36  1   
 38  20  37  1   
 39  20  38  1   
@<TRIPOS>SUBSTRUCTURE
  1 ****  12 GROUP 4 **** **** 0

# MOE 2024.06 (io_trps.svl 2023.06)
