@<TRIPOS>MOLECULE
2-(Benzo[1,3]dioxol-5-yl-methanesulfonyl-amino)-N-sec-butyl-acetamide
42 43 1 0 0 
SMALL
USER_CHARGES


@<TRIPOS>ATOM
  1 S        0.1560    -0.7820     0.6670 S.o2  1 <1>   1.3330 
  2 O        1.1410    -0.3250     1.6190 O.2   1 <1>  -0.6500 
  3 O        0.3890    -1.9830    -0.0930 O.2   1 <1>  -0.6500 
  4 N       -0.0390     0.4930    -0.4830 N.am  1 <1>  -0.6930 
  5 C       -1.4520    -0.8850     1.4240 C.3   1 <1>  -0.1350 
  6 C       -0.5940     1.7230    -0.1410 C.ar  1 <1>   0.1990 
  7 C        0.8850     0.4610    -1.6630 C.3   1 <1>   0.2570 
  8 C       -1.7290     2.1640    -0.8170 C.ar  1 <1>  -0.1500 
  9 C       -0.0390     2.5240     0.8650 C.ar  1 <1>  -0.1500 
 10 C        2.2520     1.1210    -1.4390 C.2   1 <1>   0.5690 
 11 C       -2.2760     3.3780    -0.4630 C.ar  1 <1>   0.0830 
 12 C       -0.6030     3.7450     1.2090 C.ar  1 <1>  -0.1500 
 13 O        2.7360     1.7260    -2.3660 O.2   1 <1>  -0.5700 
 14 N        2.8800     1.0090    -0.2310 N.am  1 <1>  -0.7300 
 15 O       -3.3550     3.9810    -0.9730 O.3   1 <1>  -0.3630 
 16 C       -1.7310     4.1480     0.5230 C.ar  1 <1>   0.0830 
 17 C        4.1640     1.5900     0.1980 C.3   1 <1>   0.2200 
 18 C       -3.5000     5.2190    -0.2770 C.3   1 <1>   0.4000 
 19 O       -2.4420     5.2730     0.6790 O.3   1 <1>  -0.3630 
 20 C        4.0920     3.1230     0.1310 C.3   1 <1>  -0.1600 
 21 C        5.2980     0.9920    -0.6360 C.3   1 <1>  -0.2400 
 22 C        5.2790     3.8140     0.8180 C.3   1 <1>  -0.2400 
 23 H       -1.4660    -1.6730     2.1510 H     1 <1>   0.0800 
 24 H       -2.1970    -1.0890     0.6810 H     1 <1>   0.0800 
 25 H       -1.6940     0.0380     1.9140 H     1 <1>   0.0800 
 26 H        0.4090     0.9690    -2.4810 H     1 <1>   0.0800 
 27 H        1.0490    -0.5540    -1.9740 H     1 <1>   0.0800 
 28 H       -2.1720     1.5740    -1.5970 H     1 <1>   0.1500 
 29 H        0.8450     2.1940     1.3800 H     1 <1>   0.1500 
 30 H       -0.1840     4.3670     1.9790 H     1 <1>   0.1500 
 31 H        2.3940     0.5000     0.5220 H     1 <1>   0.3700 
 32 H        4.3170     1.3040     1.2260 H     1 <1>   0.0800 
 33 H       -4.4480     5.2380     0.2310 H     1 <1>   0.0800 
 34 H       -3.4020     6.0360    -0.9700 H     1 <1>   0.0800 
 35 H        3.1870     3.4470     0.6140 H     1 <1>   0.0800 
 36 H        4.0510     3.4390    -0.8970 H     1 <1>   0.0800 
 37 H        5.2300     1.3200    -1.6580 H     1 <1>   0.0800 
 38 H        5.2500    -0.0820    -0.6060 H     1 <1>   0.0800 
 39 H        6.2500     1.2960    -0.2440 H     1 <1>   0.0800 
 40 H        5.3580     3.4990     1.8430 H     1 <1>   0.0800 
 41 H        5.1390     4.8800     0.7980 H     1 <1>   0.0800 
 42 H        6.1990     3.5870     0.3100 H     1 <1>   0.0800 
@<TRIPOS>BOND
  1   1   2  2   
  2   1   3  2   
  3   1   4  am  
  4   1   5  1   
  5   4   6  1   
  6   4   7  1   
  7   5  23  1   
  8   5  24  1   
  9   5  25  1   
 10   6   8  ar  
 11   6   9  ar  
 12   7  10  1   
 13   7  26  1   
 14   7  27  1   
 15   8  11  ar  
 16   8  28  1   
 17   9  12  ar  
 18   9  29  1   
 19  10  13  2   
 20  10  14  am  
 21  11  15  1   
 22  11  16  ar  
 23  12  16  ar  
 24  12  30  1   
 25  14  17  1   
 26  14  31  1   
 27  15  18  1   
 28  16  19  1   
 29  17  20  1   
 30  17  21  1   
 31  17  32  1   
 32  18  19  1   
 33  18  33  1   
 34  18  34  1   
 35  20  22  1   
 36  20  35  1   
 37  20  36  1   
 38  21  37  1   
 39  21  38  1   
 40  21  39  1   
 41  22  40  1   
 42  22  41  1   
 43  22  42  1   
@<TRIPOS>SUBSTRUCTURE
  1 ****   6 GROUP 4 **** **** 0

# MOE 2024.06 (io_trps.svl 2023.06)
