@<TRIPOS>MOLECULE
4-(1-Ethyl-8-methyl-1H-pyrazolo[3,4-b]quinolin-3-ylcarbamoyl)-butyric acid
44 46 1 0 0 
SMALL
USER_CHARGES


@<TRIPOS>ATOM
  1 O       -2.1410     1.1630    -2.1030 O.co2 1 <1>  -0.9000 
  2 C       -2.1680     0.0650    -1.5430 C.2   1 <1>   0.9060 
  3 O       -1.6590    -0.9520    -2.0230 O.co2 1 <1>  -0.9000 
  4 C       -2.8580    -0.0490    -0.2010 C.3   1 <1>  -0.2660 
  5 C       -4.0690    -0.9970    -0.2440 C.3   1 <1>  -0.1600 
  6 C       -4.6900    -1.1710     1.1510 C.3   1 <1>  -0.0990 
  7 C       -5.8750    -2.1200     1.1690 C.2   1 <1>   0.5690 
  8 O       -6.9130    -1.7340     1.6500 O.2   1 <1>  -0.5700 
  9 N       -5.6940    -3.3740     0.6780 N.am  1 <1>  -0.4930 
 10 C       -6.5410    -4.4750     0.6360 C.2   1 <1>   0.3520 
 11 N       -6.0180    -5.6480     0.6810 N.2   1 <1>  -0.7070 
 12 C       -7.9580    -4.4950     0.5140 C.ar  1 <1>   0.0000 
 13 N       -7.0750    -6.5070     0.6160 N.pl3 1 <1>   0.3140 
 14 C       -8.2690    -5.8510     0.5130 C.ar  1 <1>   0.1050 
 15 C       -8.9910    -3.5950     0.3850 C.ar  1 <1>  -0.1500 
 16 C       -6.8930    -7.9720     0.6450 C.3   1 <1>   0.0960 
 17 N       -9.4760    -6.3850     0.4170 N.ar  1 <1>  -0.5670 
 18 C      -10.2880    -4.0930     0.2830 C.ar  1 <1>   0.0000 
 19 C       -6.7390    -8.5380    -0.7720 C.3   1 <1>  -0.2400 
 20 C      -10.4910    -5.5050     0.3050 C.ar  1 <1>   0.3100 
 21 C      -11.4070    -3.2380     0.1600 C.ar  1 <1>  -0.1500 
 22 C      -11.8250    -5.9870     0.1980 C.ar  1 <1>  -0.1440 
 23 C      -12.6700    -3.7370     0.0590 C.ar  1 <1>  -0.1500 
 24 C      -12.8790    -5.1230     0.0780 C.ar  1 <1>  -0.1500 
 25 C      -12.0850    -7.4900     0.2160 C.3   1 <1>  -0.0970 
 26 H       -3.1630     0.9340     0.1010 H     1 <1>   0.0800 
 27 H       -2.1270    -0.4100     0.4960 H     1 <1>   0.0800 
 28 H       -3.7410    -1.9480    -0.6300 H     1 <1>   0.0800 
 29 H       -4.8020    -0.6000    -0.9270 H     1 <1>   0.0800 
 30 H       -5.0140    -0.2110     1.5130 H     1 <1>   0.0800 
 31 H       -3.9490    -1.5440     1.8330 H     1 <1>   0.0800 
 32 H       -4.7470    -3.6150     0.3960 H     1 <1>   0.3700 
 33 H       -8.8090    -2.5370     0.3610 H     1 <1>   0.1500 
 34 H       -7.7460    -8.4120     1.1300 H     1 <1>   0.0800 
 35 H       -6.0160    -8.1900     1.2280 H     1 <1>   0.0800 
 36 H       -7.6230    -8.3330    -1.3500 H     1 <1>   0.0800 
 37 H       -6.5980    -9.6020    -0.7270 H     1 <1>   0.0800 
 38 H       -5.8850    -8.0970    -1.2560 H     1 <1>   0.0800 
 39 H      -11.2350    -2.1760     0.1490 H     1 <1>   0.1500 
 40 H      -13.5210    -3.0840    -0.0350 H     1 <1>   0.1500 
 41 H      -13.8900    -5.4830    -0.0030 H     1 <1>   0.1500 
 42 H      -11.7240    -7.9100     1.1380 H     1 <1>   0.0800 
 43 H      -11.5680    -7.9590    -0.6010 H     1 <1>   0.0800 
 44 H      -13.1330    -7.7060     0.1280 H     1 <1>   0.0800 
@<TRIPOS>BOND
  1   1   2  ar  
  2   2   3  ar  
  3   2   4  1   
  4   4   5  1   
  5   4  26  1   
  6   4  27  1   
  7   5   6  1   
  8   5  28  1   
  9   5  29  1   
 10   6   7  1   
 11   6  30  1   
 12   6  31  1   
 13   7   8  2   
 14   7   9  am  
 15   9  10  1   
 16   9  32  1   
 17  10  11  2   
 18  10  12  1   
 19  11  13  1   
 20  12  14  ar  
 21  12  15  ar  
 22  13  14  1   
 23  13  16  1   
 24  14  17  ar  
 25  15  18  ar  
 26  15  33  1   
 27  16  19  1   
 28  16  34  1   
 29  16  35  1   
 30  17  20  ar  
 31  18  20  ar  
 32  18  21  ar  
 33  19  36  1   
 34  19  37  1   
 35  19  38  1   
 36  20  22  ar  
 37  21  23  ar  
 38  21  39  1   
 39  22  24  ar  
 40  22  25  1   
 41  23  24  ar  
 42  23  40  1   
 43  24  41  1   
 44  25  42  1   
 45  25  43  1   
 46  25  44  1   
@<TRIPOS>SUBSTRUCTURE
  1 ****  12 GROUP 4 **** **** 0

# MOE 2024.06 (io_trps.svl 2023.06)
