@<TRIPOS>MOLECULE
1-(4-Fluoro-phenyl)-octahydro-isoquinolin-4a-ol
39 41 1 0 0 
SMALL
USER_CHARGES


@<TRIPOS>ATOM
  1 F       -0.0490     0.5760     0.0600 F     1 <1>  -0.1900 
  2 C        0.0200     1.8770    -0.0230 C.ar  1 <1>   0.1900 
  3 C       -0.1680     2.6290     1.1180 C.ar  1 <1>  -0.1500 
  4 C        0.2770     2.4550    -1.2500 C.ar  1 <1>  -0.1500 
  5 C       -0.0930     4.0090     1.0260 C.ar  1 <1>  -0.1500 
  6 C        0.3510     3.8350    -1.3320 C.ar  1 <1>  -0.1500 
  7 C        0.1690     4.6230    -0.1990 C.ar  1 <1>  -0.1430 
  8 C        0.2730     6.1380    -0.3480 C.3   1 <1>   0.5670 
  9 N        1.0500     6.6740     0.7820 N.4   1 <1>  -0.9060 
 10 C       -1.0750     6.8920    -0.4970 C.3   1 <1>  -0.0800 
 11 C        1.4790     8.0850     0.5850 C.3   1 <1>   0.3430 
 12 C       -1.0470     8.2720     0.1990 C.3   1 <1>   0.2800 
 13 C       -2.3700     6.1110    -0.1390 C.3   1 <1>  -0.1600 
 14 C        0.3260     8.9370     0.0320 C.3   1 <1>  -0.1600 
 15 O       -1.2200     8.0680     1.5570 O.3   1 <1>  -0.6800 
 16 C       -2.2120     9.1570    -0.2840 C.3   1 <1>  -0.1600 
 17 C       -3.6170     7.0140    -0.0150 C.3   1 <1>  -0.1600 
 18 C       -3.4600     8.3640    -0.7340 C.3   1 <1>  -0.1600 
 19 H       -0.3710     2.1370     2.0540 H     1 <1>   0.1500 
 20 H        0.4150     1.8310    -2.1170 H     1 <1>   0.1500 
 21 H       -0.2520     4.5840     1.9230 H     1 <1>   0.1500 
 22 H        0.5510     4.2800    -2.2930 H     1 <1>   0.1500 
 23 H        0.8420     6.3260    -1.2440 H     1 <1>   0.0800 
 24 H        1.8160     6.0380     1.0240 H     1 <1>   0.4500 
 25 H        0.3790     6.7040     1.5660 H     1 <1>   0.4500 
 26 H       -1.1480     7.0880    -1.5530 H     1 <1>   0.0800 
 27 H        2.3200     8.1310    -0.0890 H     1 <1>   0.0800 
 28 H        1.7900     8.4920     1.5350 H     1 <1>   0.0800 
 29 H       -2.2560     5.5900     0.7950 H     1 <1>   0.0800 
 30 H       -2.5490     5.3680    -0.8980 H     1 <1>   0.0800 
 31 H        0.5050     9.1190    -1.0130 H     1 <1>   0.0800 
 32 H        0.3290     9.8990     0.5150 H     1 <1>   0.0800 
 33 H       -2.1830     8.0090     1.7370 H     1 <1>   0.4000 
 34 H       -1.8890     9.7420    -1.1280 H     1 <1>   0.0800 
 35 H       -2.4790     9.8580     0.4890 H     1 <1>   0.0800 
 36 H       -3.8230     7.2010     1.0250 H     1 <1>   0.0800 
 37 H       -4.4740     6.4950    -0.4110 H     1 <1>   0.0800 
 38 H       -3.3920     8.1740    -1.7920 H     1 <1>   0.0800 
 39 H       -4.3420     8.9630    -0.5800 H     1 <1>   0.0800 
@<TRIPOS>BOND
  1   1   2  1   
  2   2   3  ar  
  3   2   4  ar  
  4   3   5  ar  
  5   3  19  1   
  6   4   6  ar  
  7   4  20  1   
  8   5   7  ar  
  9   5  21  1   
 10   6   7  ar  
 11   6  22  1   
 12   7   8  1   
 13   8   9  1   
 14   8  10  1   
 15   8  23  1   
 16   9  11  1   
 17   9  24  1   
 18   9  25  1   
 19  10  12  1   
 20  10  13  1   
 21  10  26  1   
 22  11  14  1   
 23  11  27  1   
 24  11  28  1   
 25  12  14  1   
 26  12  15  1   
 27  12  16  1   
 28  13  17  1   
 29  13  29  1   
 30  13  30  1   
 31  14  31  1   
 32  14  32  1   
 33  15  33  1   
 34  16  18  1   
 35  16  34  1   
 36  16  35  1   
 37  17  18  1   
 38  17  36  1   
 39  17  37  1   
 40  18  38  1   
 41  18  39  1   
@<TRIPOS>SUBSTRUCTURE
  1 ****   8 GROUP 4 **** **** 0

# MOE 2024.06 (io_trps.svl 2023.06)
