@<TRIPOS>MOLECULE
8-(2-Methoxy-5-methyl-phenyl)-1,3,6,7-tetramethyl-1H,8H-imidazo[2,1-f]purine-2,4
49 52 1 0 0 
SMALL
USER_CHARGES


@<TRIPOS>ATOM
  1 O        0.9520     0.0890    -1.1620 O.2   1 <1>  -0.5750 
  2 C        1.9320     0.7790    -0.9670 C.2   1 <1>   0.6860 
  3 N        1.7860     2.1310    -0.6720 N.am  1 <1>  -0.4260 
  4 N        3.1980     0.2110    -1.0310 N.am  1 <1>  -0.4420 
  5 C        2.8860     2.9250    -0.3690 C.2   1 <1>   0.6990 
  6 C        0.4120     2.7220    -0.6370 C.3   1 <1>   0.0520 
  7 C        4.2850     1.0080    -0.7350 C.2   1 <1>   0.4200 
  8 C        3.3720    -1.2310    -1.3790 C.3   1 <1>   0.0520 
  9 O        2.7410     4.1000    -0.0730 O.2   1 <1>  -0.5750 
 10 C        4.1780     2.3210    -0.4100 C.2   1 <1>   0.2700 
 11 N        5.5970     0.6410    -0.6980 N.pl3 1 <1>  -0.7040 
 12 N        5.4860     2.7710    -0.1600 N.pl3 1 <1>  -0.6330 
 13 C        6.2840     1.7280    -0.3400 C.cat 1 <1>   1.0690 
 14 C        6.2870     3.8110     0.2620 C.2   1 <1>   0.2340 
 15 N        7.5660     2.0210    -0.1020 N.pl3 1 <1>  -0.5550 
 16 C        7.5600     3.3510     0.3050 C.2   1 <1>   0.1580 
 17 C        5.6870     5.1630     0.5920 C.3   1 <1>  -0.1100 
 18 C        8.6370     1.0990    -0.1630 C.ar  1 <1>   0.3050 
 19 C        8.8380     4.0570     0.7270 C.3   1 <1>  -0.1100 
 20 C        8.6130    -0.0940     0.5720 C.ar  1 <1>   0.0750 
 21 C        9.7240     1.3700    -0.9810 C.ar  1 <1>  -0.1570 
 22 O        7.5170    -0.3560     1.3440 O.3   1 <1>  -0.3680 
 23 C        9.6860    -0.9740     0.4870 C.ar  1 <1>  -0.1570 
 24 C       10.7890     0.4900    -1.0670 C.ar  1 <1>  -0.1510 
 25 C        7.5690    -1.3280     2.3690 C.3   1 <1>   0.0320 
 26 C       10.7650    -0.6790    -0.3270 C.ar  1 <1>  -0.1570 
 27 C       11.9790     0.7980    -1.9590 C.3   1 <1>  -0.1040 
 28 H       -0.2120     2.2640    -1.3850 H     1 <1>   0.0720 
 29 H        0.4430     3.7800    -0.8300 H     1 <1>   0.0720 
 30 H       -0.0270     2.5550     0.3310 H     1 <1>   0.0720 
 31 H        2.5340    -1.5830    -1.9570 H     1 <1>   0.0720 
 32 H        3.4370    -1.8160    -0.4780 H     1 <1>   0.0720 
 33 H        4.2620    -1.3720    -1.9650 H     1 <1>   0.0720 
 34 H        6.0210    -0.2830    -0.7630 H     1 <1>   0.4450 
 35 H        5.1800     5.5600    -0.2700 H     1 <1>   0.0720 
 36 H        6.4460     5.8610     0.8930 H     1 <1>   0.0720 
 37 H        4.9750     5.0640     1.3920 H     1 <1>   0.0720 
 38 H        9.3360     3.4900     1.4940 H     1 <1>   0.0720 
 39 H        8.6250     5.0360     1.1170 H     1 <1>   0.0720 
 40 H        9.5020     4.1640    -0.1110 H     1 <1>   0.0720 
 41 H        9.7400     2.2750    -1.5590 H     1 <1>   0.1430 
 42 H        9.7070    -1.8970     1.0380 H     1 <1>   0.1430 
 43 H        6.6590    -1.2670     2.9400 H     1 <1>   0.0720 
 44 H        8.4110    -1.1230     3.0070 H     1 <1>   0.0720 
 45 H        7.6540    -2.3050     1.9270 H     1 <1>   0.0720 
 46 H       11.5920    -1.3670    -0.3840 H     1 <1>   0.1430 
 47 H       11.7180     1.5170    -2.7140 H     1 <1>   0.0720 
 48 H       12.3180    -0.0970    -2.4490 H     1 <1>   0.0720 
 49 H       12.7860     1.1940    -1.3680 H     1 <1>   0.0720 
@<TRIPOS>BOND
  1   1   2  2   
  2   2   3  am  
  3   2   4  am  
  4   3   5  am  
  5   3   6  1   
  6   4   7  1   
  7   4   8  1   
  8   5   9  2   
  9   5  10  1   
 10   6  28  1   
 11   6  29  1   
 12   6  30  1   
 13   7  10  2   
 14   7  11  1   
 15   8  31  1   
 16   8  32  1   
 17   8  33  1   
 18  10  12  1   
 19  11  13  ar  
 20  11  34  1   
 21  12  13  ar  
 22  12  14  1   
 23  13  15  ar  
 24  14  16  2   
 25  14  17  1   
 26  15  16  1   
 27  15  18  1   
 28  16  19  1   
 29  17  35  1   
 30  17  36  1   
 31  17  37  1   
 32  18  20  ar  
 33  18  21  ar  
 34  19  38  1   
 35  19  39  1   
 36  19  40  1   
 37  20  22  1   
 38  20  23  ar  
 39  21  24  ar  
 40  21  41  1   
 41  22  25  1   
 42  23  26  ar  
 43  23  42  1   
 44  24  26  ar  
 45  24  27  1   
 46  25  43  1   
 47  25  44  1   
 48  25  45  1   
 49  26  46  1   
 50  27  47  1   
 51  27  48  1   
 52  27  49  1   
@<TRIPOS>SUBSTRUCTURE
  1 ****  13 GROUP 4 **** **** 0

# MOE 2024.06 (io_trps.svl 2023.06)
