@<TRIPOS>MOLECULE
1-Methyl-3-morpholin-4-yl-propylamine
31 31 1 0 0 
SMALL
USER_CHARGES


@<TRIPOS>ATOM
  1 O        0.4580    -0.4490     0.6760 O.3   1 <1>  -0.5600 
  2 C        0.7930    -1.0950    -0.5210 C.3   1 <1>   0.1200 
  3 C        0.7130     0.9300     0.6730 C.3   1 <1>   0.1200 
  4 C        2.2990    -0.9230    -0.8340 C.3   1 <1>   0.3430 
  5 C        2.2050     1.2150     0.3790 C.3   1 <1>   0.3430 
  6 N        2.9800    -0.0690     0.2090 N.4   1 <1>  -0.9590 
  7 C        4.4420     0.1540     0.0240 C.3   1 <1>   0.3430 
  8 C        5.2200    -1.1580     0.2060 C.3   1 <1>  -0.1600 
  9 C        6.7440    -0.9730     0.3560 C.3   1 <1>   0.4230 
 10 N        7.3990    -0.6880    -0.9350 N.4   1 <1>  -0.8530 
 11 C        7.3870    -2.2460     0.8930 C.3   1 <1>  -0.2400 
 12 H        0.1860    -0.6920    -1.3140 H     1 <1>   0.0800 
 13 H        0.5510    -2.1380    -0.4110 H     1 <1>   0.0800 
 14 H        0.4440     1.3150     1.6420 H     1 <1>   0.0800 
 15 H        0.0790     1.3990    -0.0610 H     1 <1>   0.0800 
 16 H        2.4020    -0.4750    -1.8090 H     1 <1>   0.0800 
 17 H        2.7540    -1.8990    -0.8730 H     1 <1>   0.0800 
 18 H        2.6130     1.7930     1.1920 H     1 <1>   0.0800 
 19 H        2.2760     1.8140    -0.5140 H     1 <1>   0.0800 
 20 H        2.7970    -0.5690     1.0970 H     1 <1>   0.4500 
 21 H        4.7780     0.8660     0.7620 H     1 <1>   0.0800 
 22 H        4.6250     0.5710    -0.9540 H     1 <1>   0.0800 
 23 H        5.0130    -1.8400    -0.6000 H     1 <1>   0.0800 
 24 H        4.8650    -1.6130     1.1160 H     1 <1>   0.0800 
 25 H        6.9440    -0.1710     1.0520 H     1 <1>   0.0800 
 26 H        7.2350    -1.4420    -1.6120 H     1 <1>   0.4500 
 27 H        8.4180    -0.6580    -0.7920 H     1 <1>   0.4500 
 28 H        7.1360     0.2080    -1.3560 H     1 <1>   0.4500 
 29 H        7.2060    -3.0880     0.2460 H     1 <1>   0.0800 
 30 H        6.9800    -2.4830     1.8620 H     1 <1>   0.0800 
 31 H        8.4490    -2.1180     1.0200 H     1 <1>   0.0800 
@<TRIPOS>BOND
  1   1   2  1   
  2   1   3  1   
  3   2   4  1   
  4   2  12  1   
  5   2  13  1   
  6   3   5  1   
  7   3  14  1   
  8   3  15  1   
  9   4   6  1   
 10   4  16  1   
 11   4  17  1   
 12   5   6  1   
 13   5  18  1   
 14   5  19  1   
 15   6   7  1   
 16   6  20  1   
 17   7   8  1   
 18   7  21  1   
 19   7  22  1   
 20   8   9  1   
 21   8  23  1   
 22   8  24  1   
 23   9  10  1   
 24   9  11  1   
 25   9  25  1   
 26  10  26  1   
 27  10  27  1   
 28  10  28  1   
 29  11  29  1   
 30  11  30  1   
 31  11  31  1   
@<TRIPOS>SUBSTRUCTURE
  1 ****   6 GROUP 4 **** **** 0

# MOE 2024.06 (io_trps.svl 2023.06)
