@<TRIPOS>MOLECULE
Cyclohexanecarboxylic acid [1-methyl-2-(2-propionylamino-ethyl)-1H-benzoimidazol
54 56 1 0 0 
SMALL
USER_CHARGES


@<TRIPOS>ATOM
  1 O        0.1570     0.9750     1.4630 O.2   1 <1>  -0.5700 
  2 C        0.4380     1.7520     0.5810 C.2   1 <1>   0.5690 
  3 N        1.7020     1.9020     0.0810 N.am  1 <1>  -0.5470 
  4 C       -0.6630     2.6340    -0.0090 C.3   1 <1>  -0.0190 
  5 C        2.9140     1.2560     0.3930 C.ar  1 <1>   0.1170 
  6 C       -1.1900     3.6400     1.0330 C.3   1 <1>  -0.1600 
  7 C       -1.8190     1.7920    -0.5820 C.3   1 <1>  -0.1600 
  8 C        4.1000     1.8800     0.0590 C.ar  1 <1>  -0.1500 
  9 C        2.9600    -0.0070     1.0130 C.ar  1 <1>  -0.1500 
 10 C       -2.3000     4.5270     0.4500 C.3   1 <1>  -0.1600 
 11 C       -2.9280     2.6780    -1.1660 C.3   1 <1>  -0.1600 
 12 C        5.3150     1.2640     0.3420 C.ar  1 <1>   0.2270 
 13 C        4.1570    -0.6230     1.3010 C.ar  1 <1>  -0.1500 
 14 C       -3.4430     3.6790    -0.1230 C.3   1 <1>  -0.1600 
 15 N        6.5780     1.7040     0.0910 N.2   1 <1>  -0.5650 
 16 C        5.3430     0.0290     0.9600 C.ar  1 <1>  -0.1520 
 17 C        7.3360     0.7690     0.5470 C.2   1 <1>   0.0060 
 18 N        6.6610    -0.2820     1.0960 N.pl3 1 <1>   0.0480 
 19 C        8.8500     0.8220     0.4710 C.3   1 <1>   0.0200 
 20 C        7.2080    -1.5210     1.6890 C.3   1 <1>   0.0160 
 21 C        9.3430    -0.0550    -0.6820 C.3   1 <1>   0.1400 
 22 N       10.7510    -0.4590    -0.4580 N.am  1 <1>  -0.7300 
 23 C       11.1200    -1.5060     0.3240 C.2   1 <1>   0.5690 
 24 O       10.3110    -2.1520     0.9460 O.2   1 <1>  -0.5700 
 25 C       12.5920    -1.8570     0.4230 C.3   1 <1>  -0.0990 
 26 C       13.1350    -2.5030    -0.8620 C.3   1 <1>  -0.2400 
 27 H        1.8010     2.6460    -0.6060 H     1 <1>   0.3700 
 28 H       -0.2410     3.1980    -0.8220 H     1 <1>   0.0800 
 29 H       -0.3820     4.2570     1.3830 H     1 <1>   0.0800 
 30 H       -1.5780     3.0980     1.8800 H     1 <1>   0.0800 
 31 H       -2.2330     1.1790     0.2010 H     1 <1>   0.0800 
 32 H       -1.4430     1.1340    -1.3460 H     1 <1>   0.0800 
 33 H        4.1230     2.8400    -0.4170 H     1 <1>   0.1500 
 34 H        2.0420    -0.5040     1.2660 H     1 <1>   0.1500 
 35 H       -1.8920     5.1490    -0.3280 H     1 <1>   0.0800 
 36 H       -2.6850     5.1730     1.2210 H     1 <1>   0.0800 
 37 H       -3.7430     2.0600    -1.5020 H     1 <1>   0.0800 
 38 H       -2.5480     3.2150    -2.0190 H     1 <1>   0.0800 
 39 H        4.1800    -1.5870     1.7780 H     1 <1>   0.1500 
 40 H       -4.1800     4.3220    -0.5730 H     1 <1>   0.0800 
 41 H       -3.9210     3.1410     0.6780 H     1 <1>   0.0800 
 42 H        9.2600     0.4860     1.4050 H     1 <1>   0.0800 
 43 H        9.1650     1.8370     0.3090 H     1 <1>   0.0800 
 44 H        6.4730    -1.9730     2.3280 H     1 <1>   0.0800 
 45 H        8.0830    -1.2940     2.2690 H     1 <1>   0.0800 
 46 H        7.4720    -2.2070     0.9050 H     1 <1>   0.0800 
 47 H        9.2490     0.4740    -1.6150 H     1 <1>   0.0800 
 48 H        8.7390    -0.9440    -0.7450 H     1 <1>   0.0800 
 49 H       11.4630     0.0710    -0.9630 H     1 <1>   0.3700 
 50 H       12.7250    -2.5390     1.2440 H     1 <1>   0.0800 
 51 H       13.1480    -0.9650     0.6460 H     1 <1>   0.0800 
 52 H       12.5870    -3.4030    -1.0810 H     1 <1>   0.0800 
 53 H       14.1740    -2.7540    -0.7390 H     1 <1>   0.0800 
 54 H       13.0390    -1.8300    -1.6960 H     1 <1>   0.0800 
@<TRIPOS>BOND
  1   1   2  2   
  2   2   3  am  
  3   2   4  1   
  4   3   5  1   
  5   3  27  1   
  6   4   6  1   
  7   4   7  1   
  8   4  28  1   
  9   5   8  ar  
 10   5   9  ar  
 11   6  10  1   
 12   6  29  1   
 13   6  30  1   
 14   7  11  1   
 15   7  31  1   
 16   7  32  1   
 17   8  12  ar  
 18   8  33  1   
 19   9  13  ar  
 20   9  34  1   
 21  10  14  1   
 22  10  35  1   
 23  10  36  1   
 24  11  14  1   
 25  11  37  1   
 26  11  38  1   
 27  12  15  1   
 28  12  16  ar  
 29  13  16  ar  
 30  13  39  1   
 31  14  40  1   
 32  14  41  1   
 33  15  17  2   
 34  16  18  1   
 35  17  18  1   
 36  17  19  1   
 37  18  20  1   
 38  19  21  1   
 39  19  42  1   
 40  19  43  1   
 41  20  44  1   
 42  20  45  1   
 43  20  46  1   
 44  21  22  1   
 45  21  47  1   
 46  21  48  1   
 47  22  23  am  
 48  22  49  1   
 49  23  24  2   
 50  23  25  1   
 51  25  26  1   
 52  25  50  1   
 53  25  51  1   
 54  26  52  1   
 55  26  53  1   
 56  26  54  1   
@<TRIPOS>SUBSTRUCTURE
  1 ****  12 GROUP 4 **** **** 0

# MOE 2024.06 (io_trps.svl 2023.06)
