@<TRIPOS>MOLECULE
4-(3-Cyclopentylamino-imidazo[1,2-a]pyrazin-2-yl)-2-methoxy-phenol
45 48 1 0 0 
SMALL
USER_CHARGES


@<TRIPOS>ATOM
  1 O        0.7930     0.5020     1.0680 O.3   1 <1>  -0.3630 
  2 C        1.0800    -0.4830     0.1690 C.ar  1 <1>   0.0830 
  3 C       -0.4500     1.1680     1.1140 C.3   1 <1>   0.0400 
  4 C        0.2560    -0.9610    -0.8640 C.ar  1 <1>   0.0830 
  5 C        2.3340    -1.0430     0.3340 C.ar  1 <1>  -0.1500 
  6 O       -0.9800    -0.4830    -1.1150 O.3   1 <1>  -0.5330 
  7 C        0.7130    -1.9760    -1.6890 C.ar  1 <1>  -0.1500 
  8 C        2.8110    -2.0600    -0.4910 C.ar  1 <1>   0.0410 
  9 C        1.9710    -2.5170    -1.5050 C.ar  1 <1>  -0.1500 
 10 C        4.1280    -2.6140    -0.3030 C.2   1 <1>   0.3090 
 11 N        5.2240    -1.8380     0.0060 N.pl3 1 <1>  -0.7000 
 12 C        4.5820    -3.9050    -0.4010 C.2   1 <1>   0.4460 
 13 C        6.3090    -2.6330     0.0760 C.cat 1 <1>   0.7510 
 14 N        5.9270    -3.9110    -0.1730 N.pl3 1 <1>  -0.6290 
 15 N        3.9430    -5.1010    -0.6760 N.pl3 1 <1>  -0.8650 
 16 C        7.6810    -2.3520     0.3470 C.2   1 <1>   0.4390 
 17 C        6.9090    -4.8840    -0.1490 C.2   1 <1>   0.2290 
 18 C        2.7490    -5.4760     0.1080 C.3   1 <1>   0.2890 
 19 N        8.6180    -3.2570     0.3750 N.2   1 <1>  -0.6210 
 20 C        8.2020    -4.5340     0.1200 C.2   1 <1>   0.0210 
 21 C        3.1980    -6.2110     1.3660 C.3   1 <1>  -0.1600 
 22 C        1.9920    -6.5450    -0.6660 C.3   1 <1>  -0.1600 
 23 C        3.4890    -7.6520     0.9310 C.3   1 <1>  -0.1600 
 24 C        2.7210    -7.8640    -0.3800 C.3   1 <1>  -0.1600 
 25 H       -0.4250     1.8700     1.9280 H     1 <1>   0.0800 
 26 H       -1.2280     0.4440     1.2790 H     1 <1>   0.0800 
 27 H       -0.6010     1.6890     0.1860 H     1 <1>   0.0800 
 28 H        2.9410    -0.6710     1.1380 H     1 <1>   0.1500 
 29 H       -1.4140    -0.9110    -1.8750 H     1 <1>   0.4500 
 30 H        0.0890    -2.3510    -2.4820 H     1 <1>   0.1500 
 31 H        2.3040    -3.3030    -2.1630 H     1 <1>   0.1500 
 32 H        5.1910    -0.8200     0.1160 H     1 <1>   0.4500 
 33 H        4.5550    -5.9150    -0.7530 H     1 <1>   0.4000 
 34 H        7.9490    -1.3290     0.5390 H     1 <1>   0.0600 
 35 H        6.6240    -5.9050    -0.3460 H     1 <1>   0.1500 
 36 H        2.1320    -4.6210     0.3290 H     1 <1>   0.0800 
 37 H        8.9740    -5.2880     0.1400 H     1 <1>   0.1500 
 38 H        2.3760    -6.2230     2.0600 H     1 <1>   0.0800 
 39 H        4.0390    -5.7430     1.8460 H     1 <1>   0.0800 
 40 H        1.9320    -6.3250    -1.7180 H     1 <1>   0.0800 
 41 H        0.9930    -6.6090    -0.2720 H     1 <1>   0.0800 
 42 H        3.1700    -8.3500     1.6860 H     1 <1>   0.0800 
 43 H        4.5440    -7.7880     0.7620 H     1 <1>   0.0800 
 44 H        3.4110    -8.0840    -1.1770 H     1 <1>   0.0800 
 45 H        2.0210    -8.6790    -0.2980 H     1 <1>   0.0800 
@<TRIPOS>BOND
  1   1   2  1   
  2   1   3  1   
  3   2   4  ar  
  4   2   5  ar  
  5   3  25  1   
  6   3  26  1   
  7   3  27  1   
  8   4   6  1   
  9   4   7  ar  
 10   5   8  ar  
 11   5  28  1   
 12   6  29  1   
 13   7   9  ar  
 14   7  30  1   
 15   8   9  ar  
 16   8  10  1   
 17   9  31  1   
 18  10  11  1   
 19  10  12  2   
 20  11  13  ar  
 21  11  32  1   
 22  12  14  1   
 23  12  15  1   
 24  13  14  ar  
 25  13  16  1   
 26  14  17  1   
 27  15  18  1   
 28  15  33  1   
 29  16  19  2   
 30  16  34  1   
 31  17  20  2   
 32  17  35  1   
 33  18  21  1   
 34  18  22  1   
 35  18  36  1   
 36  19  20  1   
 37  20  37  1   
 38  21  23  1   
 39  21  38  1   
 40  21  39  1   
 41  22  24  1   
 42  22  40  1   
 43  22  41  1   
 44  23  24  1   
 45  23  42  1   
 46  23  43  1   
 47  24  44  1   
 48  24  45  1   
@<TRIPOS>SUBSTRUCTURE
  1 ****  10 GROUP 4 **** **** 0

# MOE 2024.06 (io_trps.svl 2023.06)
