@<TRIPOS>MOLECULE
2-(5-Methyl-[1,3,4]thiadiazol-2-ylsulfanyl)-N-p-tolyl-propionamide
34 35 1 0 0 
SMALL
USER_CHARGES


@<TRIPOS>ATOM
  1 S        0.2590     1.3330    -1.5930 S.3   1 <1>  -0.0800 
  2 C        1.3420     1.2600    -0.2540 C.2   1 <1>   0.4340 
  3 C       -0.9150     0.6260    -0.5310 C.2   1 <1>   0.1980 
  4 S        2.9970     1.8680    -0.5190 S.3   1 <1>  -0.2860 
  5 N        0.8430     0.7690     0.8080 N.2   1 <1>  -0.3380 
  6 N       -0.4670     0.4030     0.6410 N.2   1 <1>  -0.3380 
  7 C       -2.2970     0.3570    -1.0830 C.3   1 <1>  -0.0600 
  8 C        3.8220     1.6070     1.1270 C.3   1 <1>   0.2110 
  9 C        4.9810     2.5920     1.3000 C.2   1 <1>   0.5690 
 10 C        4.2710     0.1410     1.1870 C.3   1 <1>  -0.2400 
 11 O        5.2630     2.9430     2.4200 O.2   1 <1>  -0.5700 
 12 N        5.6480     3.0240     0.1810 N.am  1 <1>  -0.5470 
 13 C        6.7560     3.8690     0.0190 C.ar  1 <1>   0.1170 
 14 C        7.6500     4.1640     1.0430 C.ar  1 <1>  -0.1500 
 15 C        6.9840     4.4310    -1.2320 C.ar  1 <1>  -0.1500 
 16 C        8.7330     4.9950     0.8240 C.ar  1 <1>  -0.1500 
 17 C        8.0670     5.2620    -1.4540 C.ar  1 <1>  -0.1500 
 18 C        8.9500     5.5490    -0.4270 C.ar  1 <1>  -0.1440 
 19 C       10.1380     6.4630    -0.6650 C.3   1 <1>  -0.0970 
 20 H       -2.2340    -0.3240    -1.9120 H     1 <1>   0.0800 
 21 H       -2.7450     1.2760    -1.4110 H     1 <1>   0.0800 
 22 H       -2.9150    -0.0790    -0.3190 H     1 <1>   0.0800 
 23 H        3.0830     1.8070     1.8820 H     1 <1>   0.0800 
 24 H        4.9750    -0.0700     0.4020 H     1 <1>   0.0800 
 25 H        3.4250    -0.5150     1.0900 H     1 <1>   0.0800 
 26 H        4.7440    -0.0520     2.1340 H     1 <1>   0.0800 
 27 H        5.2210     2.7200    -0.6940 H     1 <1>   0.3700 
 28 H        7.5080     3.7430     2.0210 H     1 <1>   0.1500 
 29 H        6.3090     4.2220    -2.0410 H     1 <1>   0.1500 
 30 H        9.4070     5.2100     1.6350 H     1 <1>   0.1500 
 31 H        8.2210     5.6870    -2.4310 H     1 <1>   0.1500 
 32 H        9.8640     7.4800    -0.4470 H     1 <1>   0.0800 
 33 H       10.4610     6.4030    -1.6890 H     1 <1>   0.0800 
 34 H       10.9610     6.1820    -0.0330 H     1 <1>   0.0800 
@<TRIPOS>BOND
  1   1   2  1   
  2   1   3  1   
  3   2   4  1   
  4   2   5  2   
  5   3   6  2   
  6   3   7  1   
  7   4   8  1   
  8   5   6  1   
  9   7  20  1   
 10   7  21  1   
 11   7  22  1   
 12   8   9  1   
 13   8  10  1   
 14   8  23  1   
 15   9  11  2   
 16   9  12  am  
 17  10  24  1   
 18  10  25  1   
 19  10  26  1   
 20  12  13  1   
 21  12  27  1   
 22  13  14  ar  
 23  13  15  ar  
 24  14  16  ar  
 25  14  28  1   
 26  15  17  ar  
 27  15  29  1   
 28  16  18  ar  
 29  16  30  1   
 30  17  18  ar  
 31  17  31  1   
 32  18  19  1   
 33  19  32  1   
 34  19  33  1   
 35  19  34  1   
@<TRIPOS>SUBSTRUCTURE
  1 ****  12 GROUP 4 **** **** 0

# MOE 2024.06 (io_trps.svl 2023.06)
