@<TRIPOS>MOLECULE
6-(3,4-Dimethoxy-phenyl)-3-isopropyl-[1,2,4]triazolo[3,4-b][1,3,4]thiadiazole
37 39 1 0 0 
SMALL
USER_CHARGES


@<TRIPOS>ATOM
  1 S       -0.4420    -0.1120    -0.4870 S.3   1 <1>  -0.1970 
  2 C        0.4630     1.3770    -0.4040 C.2   1 <1>   0.2420 
  3 C       -1.9500     0.8140    -0.2140 C.2   1 <1>   0.5050 
  4 N        1.6970     1.7210    -0.4950 N.2   1 <1>  -0.3380 
  5 N       -0.3820     2.3670    -0.1930 N.pl3 1 <1>   0.5050 
  6 N       -1.7420     2.0770    -0.0830 N.2   1 <1>  -0.6520 
  7 C       -3.2110     0.0980    -0.1680 C.ar  1 <1>   0.0860 
  8 N        1.6830     3.0590    -0.3340 N.2   1 <1>  -0.3380 
  9 C        0.4460     3.4250    -0.1560 C.2   1 <1>   0.0060 
 10 C       -4.4030     0.8000     0.0270 C.ar  1 <1>  -0.1500 
 11 C       -3.3120    -1.2870    -0.3100 C.ar  1 <1>  -0.1500 
 12 C       -0.0650     4.8450     0.0630 C.3   1 <1>   0.1000 
 13 C       -5.6450     0.1760     0.0800 C.ar  1 <1>   0.0830 
 14 C       -4.5340    -1.9260    -0.2590 C.ar  1 <1>  -0.1500 
 15 C       -0.5610     5.4340    -1.2620 C.3   1 <1>  -0.2400 
 16 C        1.0130     5.7510     0.6720 C.3   1 <1>  -0.2400 
 17 O       -6.7870     0.9010     0.2720 O.3   1 <1>  -0.3630 
 18 C       -5.7100    -1.2220    -0.0660 C.ar  1 <1>   0.0830 
 19 C       -6.7870     2.3040     0.4270 C.3   1 <1>   0.0400 
 20 O       -6.8250    -2.0050    -0.0420 O.3   1 <1>  -0.3630 
 21 C       -8.1320    -1.5120     0.1470 C.3   1 <1>   0.0400 
 22 H       -4.3280     1.8650     0.1360 H     1 <1>   0.1500 
 23 H       -2.4360    -1.8920    -0.4620 H     1 <1>   0.1500 
 24 H       -0.8920     4.8050     0.7520 H     1 <1>   0.0800 
 25 H       -4.5880    -2.9950    -0.3710 H     1 <1>   0.1500 
 26 H        0.2430     5.4700    -1.9760 H     1 <1>   0.0800 
 27 H       -0.9380     6.4300    -1.1120 H     1 <1>   0.0800 
 28 H       -1.3520     4.8270    -1.6660 H     1 <1>   0.0800 
 29 H        1.8510     5.8410     0.0020 H     1 <1>   0.0800 
 30 H        1.3640     5.3330     1.5990 H     1 <1>   0.0800 
 31 H        0.6170     6.7320     0.8650 H     1 <1>   0.0800 
 32 H       -7.8050     2.6240     0.5620 H     1 <1>   0.0800 
 33 H       -6.3800     2.7550    -0.4610 H     1 <1>   0.0800 
 34 H       -6.2070     2.5610     1.2950 H     1 <1>   0.0800 
 35 H       -8.8100    -2.3460     0.1240 H     1 <1>   0.0800 
 36 H       -8.3660    -0.8290    -0.6500 H     1 <1>   0.0800 
 37 H       -8.1860    -1.0230     1.1020 H     1 <1>   0.0800 
@<TRIPOS>BOND
  1   1   2  1   
  2   1   3  1   
  3   2   4  2   
  4   2   5  1   
  5   3   6  2   
  6   3   7  1   
  7   4   8  1   
  8   5   6  1   
  9   5   9  1   
 10   7  10  ar  
 11   7  11  ar  
 12   8   9  2   
 13   9  12  1   
 14  10  13  ar  
 15  10  22  1   
 16  11  14  ar  
 17  11  23  1   
 18  12  15  1   
 19  12  16  1   
 20  12  24  1   
 21  13  17  1   
 22  13  18  ar  
 23  14  18  ar  
 24  14  25  1   
 25  15  26  1   
 26  15  27  1   
 27  15  28  1   
 28  16  29  1   
 29  16  30  1   
 30  16  31  1   
 31  17  19  1   
 32  18  20  1   
 33  19  32  1   
 34  19  33  1   
 35  19  34  1   
 36  20  21  1   
 37  21  35  1   
 38  21  36  1   
 39  21  37  1   
@<TRIPOS>SUBSTRUCTURE
  1 ****   3 GROUP 4 **** **** 0

# MOE 2024.06 (io_trps.svl 2023.06)
