@<TRIPOS>MOLECULE
[4-(2,3-Dichloro-phenyl)-piperazin-1-yl]-morpholin-4-yl-methanone
41 43 1 0 0 
SMALL
USER_CHARGES


@<TRIPOS>ATOM
  1 CL      -1.0850    -1.2720     2.3510 Cl    1 <1>  -0.1770 
  2 C        0.1510    -1.9000     1.2690 C.ar  1 <1>   0.1770 
  3 C        1.4830    -1.6930     1.5830 C.ar  1 <1>   0.1770 
  4 C       -0.2060    -2.5970     0.1080 C.ar  1 <1>   0.1000 
  5 CL       1.9370    -0.8240     3.0320 Cl    1 <1>  -0.1770 
  6 C        2.4900    -2.1680     0.7620 C.ar  1 <1>  -0.1500 
  7 N       -1.5200    -2.8580    -0.2960 N.pl3 1 <1>  -0.8380 
  8 C        0.8200    -3.0670    -0.7050 C.ar  1 <1>  -0.1500 
  9 C        2.1520    -2.8590    -0.3890 C.ar  1 <1>  -0.1500 
 10 C       -2.3380    -1.6940    -0.7610 C.3   1 <1>   0.2090 
 11 C       -2.3260    -3.8010     0.5360 C.3   1 <1>   0.2090 
 12 C       -3.5590    -2.1800    -1.5610 C.3   1 <1>   0.1400 
 13 C       -3.5600    -4.3010    -0.2390 C.3   1 <1>   0.1400 
 14 N       -4.3690    -3.1620    -0.7740 N.am  1 <1>  -0.6600 
 15 C       -5.4990    -2.7470    -0.1200 C.2   1 <1>   0.6900 
 16 O       -5.6440    -1.5650     0.1420 O.2   1 <1>  -0.5700 
 17 N       -6.4610    -3.6490     0.2520 N.am  1 <1>  -0.6600 
 18 C       -6.8330    -4.8220    -0.5880 C.3   1 <1>   0.1400 
 19 C       -7.5180    -3.2760     1.2320 C.3   1 <1>   0.1400 
 20 C       -7.3320    -5.9770     0.2950 C.3   1 <1>   0.1200 
 21 C       -7.9910    -4.5130     2.0130 C.3   1 <1>   0.1200 
 22 O       -8.3610    -5.5460     1.1400 O.3   1 <1>  -0.5600 
 23 H        3.5200    -1.9980     1.0230 H     1 <1>   0.1500 
 24 H        0.5560    -3.6030    -1.6000 H     1 <1>   0.1500 
 25 H        2.9240    -3.2350    -1.0390 H     1 <1>   0.1500 
 26 H       -1.7350    -1.0530    -1.3780 H     1 <1>   0.0800 
 27 H       -2.6810    -1.1240     0.0860 H     1 <1>   0.0800 
 28 H       -2.6560    -3.3050     1.4320 H     1 <1>   0.0800 
 29 H       -1.7150    -4.6390     0.8210 H     1 <1>   0.0800 
 30 H       -3.2210    -2.6490    -2.4670 H     1 <1>   0.0800 
 31 H       -4.1660    -1.3350    -1.8330 H     1 <1>   0.0800 
 32 H       -4.1580    -4.9050     0.4190 H     1 <1>   0.0800 
 33 H       -3.2340    -4.9160    -1.0580 H     1 <1>   0.0800 
 34 H       -5.9960    -5.1490    -1.1780 H     1 <1>   0.0800 
 35 H       -7.6180    -4.5320    -1.2640 H     1 <1>   0.0800 
 36 H       -8.3510    -2.8410     0.7070 H     1 <1>   0.0800 
 37 H       -7.1370    -2.5410     1.9200 H     1 <1>   0.0800 
 38 H       -6.5310    -6.3660     0.8990 H     1 <1>   0.0800 
 39 H       -7.7210    -6.7710    -0.3170 H     1 <1>   0.0800 
 40 H       -8.8480    -4.2670     2.6130 H     1 <1>   0.0800 
 41 H       -7.2090    -4.8720     2.6580 H     1 <1>   0.0800 
@<TRIPOS>BOND
  1   1   2  1   
  2   2   3  ar  
  3   2   4  ar  
  4   3   5  1   
  5   3   6  ar  
  6   4   7  1   
  7   4   8  ar  
  8   6   9  ar  
  9   6  23  1   
 10   7  10  1   
 11   7  11  1   
 12   8   9  ar  
 13   8  24  1   
 14   9  25  1   
 15  10  12  1   
 16  10  26  1   
 17  10  27  1   
 18  11  13  1   
 19  11  28  1   
 20  11  29  1   
 21  12  14  1   
 22  12  30  1   
 23  12  31  1   
 24  13  14  1   
 25  13  32  1   
 26  13  33  1   
 27  14  15  am  
 28  15  16  2   
 29  15  17  am  
 30  17  18  1   
 31  17  19  1   
 32  18  20  1   
 33  18  34  1   
 34  18  35  1   
 35  19  21  1   
 36  19  36  1   
 37  19  37  1   
 38  20  22  1   
 39  20  38  1   
 40  20  39  1   
 41  21  22  1   
 42  21  40  1   
 43  21  41  1   
@<TRIPOS>SUBSTRUCTURE
  1 ****  11 GROUP 4 **** **** 0

# MOE 2024.06 (io_trps.svl 2023.06)
