@<TRIPOS>MOLECULE
1-Methanesulfonyl-piperidine-3-carboxylic acid benzo[1,3]dioxol-5-ylamide
40 42 1 0 0 
SMALL
USER_CHARGES


@<TRIPOS>ATOM
  1 S        0.3260     0.0480     1.2310 S.o2  1 <1>   1.3330 
  2 O        0.8320     1.0460     2.1440 O.2   1 <1>  -0.6500 
  3 O       -0.7380    -0.8420     1.6290 O.2   1 <1>  -0.6500 
  4 N        1.6370    -0.9000     0.7250 N.am  1 <1>  -0.8490 
  5 C       -0.2050     0.8910    -0.2480 C.3   1 <1>  -0.1350 
  6 C        2.8000    -0.1290     0.2710 C.3   1 <1>   0.1960 
  7 C        1.2820    -2.0050    -0.1690 C.3   1 <1>   0.1960 
  8 C        4.0290    -1.0380     0.1520 C.3   1 <1>  -0.0190 
  9 C        2.4700    -2.9630    -0.3150 C.3   1 <1>  -0.1600 
 10 C        5.2140    -0.2230    -0.3390 C.2   1 <1>   0.5690 
 11 C        3.7390    -2.2330    -0.7750 C.3   1 <1>  -0.1600 
 12 O        5.0680     0.4740    -1.3140 O.2   1 <1>  -0.5700 
 13 N        6.3910    -0.3320     0.3490 N.am  1 <1>  -0.5470 
 14 C        7.6290     0.3060     0.1630 C.ar  1 <1>   0.1170 
 15 C        8.7670    -0.3020     0.6890 C.ar  1 <1>  -0.1500 
 16 C        7.7590     1.5290    -0.5080 C.ar  1 <1>  -0.1500 
 17 C        9.9860     0.3220     0.5260 C.ar  1 <1>   0.0820 
 18 C        8.9950     2.1420    -0.6650 C.ar  1 <1>  -0.1500 
 19 O       11.1870    -0.0870     0.9480 O.3   1 <1>  -0.3620 
 20 C       10.0990     1.5100    -0.1330 C.ar  1 <1>   0.0820 
 21 C       12.1260     0.9020     0.5270 C.3   1 <1>   0.4000 
 22 O       11.3790     1.9060    -0.1580 O.3   1 <1>  -0.3630 
 23 H        0.5810     1.5080    -0.6340 H     1 <1>   0.0800 
 24 H       -1.0460     1.5170    -0.0210 H     1 <1>   0.0800 
 25 H       -0.5020     0.1860    -0.9980 H     1 <1>   0.0800 
 26 H        3.0170     0.6540     0.9790 H     1 <1>   0.0800 
 27 H        2.5890     0.3260    -0.6830 H     1 <1>   0.0800 
 28 H        1.0010    -1.6220    -1.1350 H     1 <1>   0.0800 
 29 H        0.4460    -2.5500     0.2390 H     1 <1>   0.0800 
 30 H        4.2480    -1.4080     1.1380 H     1 <1>   0.0800 
 31 H        2.2180    -3.7350    -1.0210 H     1 <1>   0.0800 
 32 H        2.6460    -3.4360     0.6360 H     1 <1>   0.0800 
 33 H        4.5740    -2.9120    -0.7750 H     1 <1>   0.0800 
 34 H        3.6010    -1.8770    -1.7830 H     1 <1>   0.0800 
 35 H        6.3870    -1.0140     1.1050 H     1 <1>   0.3700 
 36 H        8.7170    -1.2380     1.2110 H     1 <1>   0.1500 
 37 H        6.8900     2.0150    -0.9120 H     1 <1>   0.1500 
 38 H        9.0980     3.0790    -1.1820 H     1 <1>   0.1500 
 39 H       12.8370     0.4600    -0.1480 H     1 <1>   0.0800 
 40 H       12.6060     1.3330     1.3870 H     1 <1>   0.0800 
@<TRIPOS>BOND
  1   1   2  2   
  2   1   3  2   
  3   1   4  am  
  4   1   5  1   
  5   4   6  1   
  6   4   7  1   
  7   5  23  1   
  8   5  24  1   
  9   5  25  1   
 10   6   8  1   
 11   6  26  1   
 12   6  27  1   
 13   7   9  1   
 14   7  28  1   
 15   7  29  1   
 16   8  10  1   
 17   8  11  1   
 18   8  30  1   
 19   9  11  1   
 20   9  31  1   
 21   9  32  1   
 22  10  12  2   
 23  10  13  am  
 24  11  33  1   
 25  11  34  1   
 26  13  14  1   
 27  13  35  1   
 28  14  15  ar  
 29  14  16  ar  
 30  15  17  ar  
 31  15  36  1   
 32  16  18  ar  
 33  16  37  1   
 34  17  19  1   
 35  17  20  ar  
 36  18  20  ar  
 37  18  38  1   
 38  19  21  1   
 39  20  22  1   
 40  21  22  1   
 41  21  39  1   
 42  21  40  1   
@<TRIPOS>SUBSTRUCTURE
  1 ****  10 GROUP 4 **** **** 0

# MOE 2024.06 (io_trps.svl 2023.06)
