@<TRIPOS>MOLECULE
Benzooxazol-2-yl-[5-(3-methoxy-propyl)-1,4,5,6-tetrahydro-[1,3,5]triazin-2-yl]-a
41 43 1 0 0 
SMALL
USER_CHARGES


@<TRIPOS>ATOM
  1 O       -0.0250     0.1070     0.0430 O.3   1 <1>  -0.2800 
  2 C        0.8270    -0.8970     0.1940 C.2   1 <1>   0.7360 
  3 C       -1.2030    -0.4070     0.3430 C.ar  1 <1>   0.1400 
  4 N        0.3230    -2.0090     0.5610 N.2   1 <1>  -0.5650 
  5 N        2.1580    -0.7360    -0.0340 N.pl3 1 <1>  -0.7750 
  6 C       -1.0020    -1.7260     0.6680 C.ar  1 <1>   0.2270 
  7 C       -2.4590     0.1810     0.3590 C.ar  1 <1>  -0.1500 
  8 C        2.8600     0.3110    -0.4020 C.cat 1 <1>   1.2000 
  9 C       -2.0830    -2.5210     1.0290 C.ar  1 <1>  -0.1500 
 10 C       -3.5340    -0.6110     0.7180 C.ar  1 <1>  -0.1500 
 11 N        2.3080     1.4700    -0.6390 N.pl3 1 <1>  -0.8440 
 12 N        4.1490     0.1690    -0.5600 N.pl3 1 <1>  -0.8440 
 13 C       -3.3450    -1.9560     1.0510 C.ar  1 <1>  -0.1500 
 14 C        3.0650     2.6610    -0.9660 C.3   1 <1>   0.4380 
 15 C        5.0220     1.2800    -0.9030 C.3   1 <1>   0.4380 
 16 N        4.3670     2.4570    -0.3660 N.3   1 <1>  -0.8100 
 17 C        5.1920     3.6700    -0.5020 C.3   1 <1>   0.1100 
 18 C        6.3980     3.6230     0.4400 C.3   1 <1>  -0.1600 
 19 C        7.1260     4.9650     0.4660 C.3   1 <1>   0.1200 
 20 O        8.2480     4.8110     1.2660 O.3   1 <1>  -0.5600 
 21 C        9.0030     5.9690     1.4150 C.3   1 <1>   0.0400 
 22 H        2.6610    -1.5920     0.1420 H     1 <1>   0.4500 
 23 H       -2.5850     1.2180     0.1000 H     1 <1>   0.1500 
 24 H       -1.9220    -3.5540     1.2830 H     1 <1>   0.1500 
 25 H       -4.5280    -0.1960     0.7440 H     1 <1>   0.1500 
 26 H        1.3060     1.5830    -0.5090 H     1 <1>   0.4500 
 27 H        4.6240    -0.7050    -0.3720 H     1 <1>   0.4500 
 28 H       -4.1980    -2.5550     1.3280 H     1 <1>   0.1500 
 29 H        2.5920     3.5280    -0.5300 H     1 <1>   0.0800 
 30 H        3.1420     2.7880    -2.0350 H     1 <1>   0.0800 
 31 H        5.1480     1.3560    -1.9720 H     1 <1>   0.0800 
 32 H        5.9830     1.1390    -0.4350 H     1 <1>   0.0800 
 33 H        4.5980     4.5290    -0.2340 H     1 <1>   0.0800 
 34 H        5.5190     3.7930    -1.5220 H     1 <1>   0.0800 
 35 H        7.0980     2.8740     0.1170 H     1 <1>   0.0800 
 36 H        6.0650     3.3950     1.4370 H     1 <1>   0.0800 
 37 H        6.5000     5.7330     0.8900 H     1 <1>   0.0800 
 38 H        7.4460     5.2510    -0.5220 H     1 <1>   0.0800 
 39 H        9.8450     5.7400     2.0450 H     1 <1>   0.0800 
 40 H        8.4000     6.7300     1.8810 H     1 <1>   0.0800 
 41 H        9.3510     6.2960     0.4510 H     1 <1>   0.0800 
@<TRIPOS>BOND
  1   1   2  1   
  2   1   3  1   
  3   2   4  2   
  4   2   5  1   
  5   3   6  ar  
  6   3   7  ar  
  7   4   6  1   
  8   5   8  ar  
  9   5  22  1   
 10   6   9  ar  
 11   7  10  ar  
 12   7  23  1   
 13   8  11  ar  
 14   8  12  ar  
 15   9  13  ar  
 16   9  24  1   
 17  10  13  ar  
 18  10  25  1   
 19  11  14  1   
 20  11  26  1   
 21  12  15  1   
 22  12  27  1   
 23  13  28  1   
 24  14  16  1   
 25  14  29  1   
 26  14  30  1   
 27  15  16  1   
 28  15  31  1   
 29  15  32  1   
 30  16  17  1   
 31  17  18  1   
 32  17  33  1   
 33  17  34  1   
 34  18  19  1   
 35  18  35  1   
 36  18  36  1   
 37  19  20  1   
 38  19  37  1   
 39  19  38  1   
 40  20  21  1   
 41  21  39  1   
 42  21  40  1   
 43  21  41  1   
@<TRIPOS>SUBSTRUCTURE
  1 ****  11 GROUP 4 **** **** 0

# MOE 2024.06 (io_trps.svl 2023.06)
