@<TRIPOS>MOLECULE
Pyrrolidine-1-carboxylic acid 2-methyl-quinolin-8-yl ester
35 37 1 0 0 
SMALL
USER_CHARGES


@<TRIPOS>ATOM
  1 O       -0.4880    -2.8750    -2.0030 O.2   1 <1>  -0.5700 
  2 C       -0.2710    -2.5120    -0.8620 C.2   1 <1>   0.7800 
  3 O       -1.2680    -2.1350    -0.0530 O.3   1 <1>  -0.2330 
  4 N        0.9960    -2.4640    -0.3480 N.am  1 <1>  -0.6600 
  5 C       -2.5910    -2.1010    -0.3640 C.ar  1 <1>   0.0820 
  6 C        1.3290    -1.8730     0.9640 C.3   1 <1>   0.1400 
  7 C        2.2060    -2.7320    -1.1470 C.3   1 <1>   0.1400 
  8 C       -3.3300    -0.9610     0.0380 C.ar  1 <1>   0.3100 
  9 C       -3.1990    -3.1470    -1.0200 C.ar  1 <1>  -0.1500 
 10 C        2.8490    -1.9700     1.0550 C.3   1 <1>  -0.1600 
 11 C        3.3250    -2.0180    -0.3960 C.3   1 <1>  -0.1600 
 12 N       -2.7150     0.0610     0.7010 N.ar  1 <1>  -0.6200 
 13 C       -4.7100    -0.9240    -0.2700 C.ar  1 <1>   0.0000 
 14 C       -4.5620    -3.0980    -1.3170 C.ar  1 <1>  -0.1500 
 15 C       -3.4260     1.0890     1.0440 C.ar  1 <1>   0.1670 
 16 C       -5.4470     0.2070     0.1200 C.ar  1 <1>  -0.1500 
 17 C       -5.3010    -2.0070    -0.9490 C.ar  1 <1>  -0.1500 
 18 C       -4.7980     1.2080     0.7760 C.ar  1 <1>  -0.1500 
 19 C       -2.7100     2.2040     1.7740 C.3   1 <1>  -0.0970 
 20 H        0.8470    -2.4130     1.7620 H     1 <1>   0.0800 
 21 H        1.0120    -0.8440     0.9790 H     1 <1>   0.0800 
 22 H        2.0980    -2.3610    -2.1530 H     1 <1>   0.0800 
 23 H        2.3810    -3.7940    -1.1700 H     1 <1>   0.0800 
 24 H       -2.6350    -4.0160    -1.3140 H     1 <1>   0.1500 
 25 H        3.1100    -2.8870     1.5550 H     1 <1>   0.0800 
 26 H        3.2690    -1.1430     1.5980 H     1 <1>   0.0800 
 27 H        3.4180    -1.0180    -0.7830 H     1 <1>   0.0800 
 28 H        4.2670    -2.5250    -0.5050 H     1 <1>   0.0800 
 29 H       -5.0150    -3.9250    -1.8360 H     1 <1>   0.1500 
 30 H       -6.4970     0.2630    -0.1030 H     1 <1>   0.1500 
 31 H       -6.3510    -1.9620    -1.1770 H     1 <1>   0.1500 
 32 H       -5.3230     2.0910     1.0920 H     1 <1>   0.1500 
 33 H       -2.3480     1.8390     2.7170 H     1 <1>   0.0800 
 34 H       -3.3620     3.0390     1.9500 H     1 <1>   0.0800 
 35 H       -1.8730     2.5350     1.1880 H     1 <1>   0.0800 
@<TRIPOS>BOND
  1   1   2  2   
  2   2   3  1   
  3   2   4  am  
  4   3   5  1   
  5   4   6  1   
  6   4   7  1   
  7   5   8  ar  
  8   5   9  ar  
  9   6  10  1   
 10   6  20  1   
 11   6  21  1   
 12   7  11  1   
 13   7  22  1   
 14   7  23  1   
 15   8  12  ar  
 16   8  13  ar  
 17   9  14  ar  
 18   9  24  1   
 19  10  11  1   
 20  10  25  1   
 21  10  26  1   
 22  11  27  1   
 23  11  28  1   
 24  12  15  ar  
 25  13  16  ar  
 26  13  17  ar  
 27  14  17  ar  
 28  14  29  1   
 29  15  18  ar  
 30  15  19  1   
 31  16  18  ar  
 32  16  30  1   
 33  17  31  1   
 34  18  32  1   
 35  19  33  1   
 36  19  34  1   
 37  19  35  1   
@<TRIPOS>SUBSTRUCTURE
  1 ****   3 GROUP 4 **** **** 0

# MOE 2024.06 (io_trps.svl 2023.06)
