@<TRIPOS>MOLECULE
[1-(2,5-Dimethoxy-benzenesulfonyl)-piperidin-4-yl]-(4-ethyl-piperazin-1-yl)-meth
61 63 1 0 0 
SMALL
USER_CHARGES


@<TRIPOS>ATOM
  1 S       -0.6500     0.2220    -0.8450 S.o2  1 <1>   1.4470 
  2 O       -0.3220    -0.7170    -1.8980 O.2   1 <1>  -0.6500 
  3 O       -1.6210     1.2560    -1.1330 O.2   1 <1>  -0.6500 
  4 N        0.8140     0.9810    -0.4480 N.am  1 <1>  -0.8490 
  5 C       -1.1710    -0.7050     0.6230 C.ar  1 <1>  -0.0090 
  6 C        1.1940     1.9680    -1.4580 C.3   1 <1>   0.1960 
  7 C        1.8840     0.0230    -0.1830 C.3   1 <1>   0.1960 
  8 C       -1.1850    -0.1350     1.8930 C.ar  1 <1>   0.0830 
  9 C       -1.5950    -2.0250     0.4990 C.ar  1 <1>  -0.1500 
 10 C        2.4150     2.7580    -0.9840 C.3   1 <1>  -0.1600 
 11 C        3.1210     0.7560     0.3440 C.3   1 <1>  -0.1600 
 12 O       -0.7780     1.1350     2.0860 O.3   1 <1>  -0.3620 
 13 C       -1.5900    -0.8620     3.0030 C.ar  1 <1>  -0.1500 
 14 C       -2.0090    -2.7610     1.6050 C.ar  1 <1>   0.0830 
 15 C        3.5980     1.8300    -0.6490 C.3   1 <1>  -0.0190 
 16 C       -1.7850     2.1200     2.1210 C.3   1 <1>   0.0400 
 17 C       -2.0020    -2.1710     2.8580 C.ar  1 <1>  -0.1500 
 18 O       -2.4300    -4.0500     1.5410 O.3   1 <1>  -0.3630 
 19 C        4.8070     2.6040    -0.1070 C.2   1 <1>   0.5690 
 20 C       -2.5020    -4.7360     0.3100 C.3   1 <1>   0.0400 
 21 O        4.6120     3.5200     0.6540 O.2   1 <1>  -0.5700 
 22 N        6.0940     2.2660    -0.4550 N.am  1 <1>  -0.6600 
 23 C        7.2240     3.1910    -0.1300 C.3   1 <1>   0.1400 
 24 C        6.5430     0.9130    -0.9020 C.3   1 <1>   0.1400 
 25 C        8.1350     2.5630     0.9380 C.3   1 <1>   0.3430 
 26 C        7.4980     0.2910     0.1420 C.3   1 <1>   0.3430 
 27 N        8.6410     1.2070     0.5130 N.4   1 <1>  -0.9590 
 28 C        9.5050     0.6270     1.5740 C.3   1 <1>   0.3430 
 29 C       10.3040    -0.5420     1.0090 C.3   1 <1>  -0.2400 
 30 H        0.3800     2.6570    -1.6150 H     1 <1>   0.0800 
 31 H        1.4020     1.4750    -2.3930 H     1 <1>   0.0800 
 32 H        2.1260    -0.5180    -1.0840 H     1 <1>   0.0800 
 33 H        1.5590    -0.6850     0.5610 H     1 <1>   0.0800 
 34 H       -1.5950    -2.4660    -0.4800 H     1 <1>   0.1500 
 35 H        2.1320     3.3240    -0.1120 H     1 <1>   0.0800 
 36 H        2.7050     3.4590    -1.7460 H     1 <1>   0.0800 
 37 H        3.9020     0.0430     0.5290 H     1 <1>   0.0800 
 38 H        2.8690     1.2190     1.2830 H     1 <1>   0.0800 
 39 H       -1.5760    -0.3990     3.9740 H     1 <1>   0.1500 
 40 H        3.8830     1.3520    -1.5680 H     1 <1>   0.0800 
 41 H       -1.3120     3.0790     2.2330 H     1 <1>   0.0800 
 42 H       -2.4350     1.9270     2.9560 H     1 <1>   0.0800 
 43 H       -2.3390     2.0920     1.1990 H     1 <1>   0.0800 
 44 H       -2.3190    -2.7440     3.7110 H     1 <1>   0.1500 
 45 H       -2.8680    -5.7290     0.5020 H     1 <1>   0.0800 
 46 H       -1.5170    -4.7880    -0.1200 H     1 <1>   0.0800 
 47 H       -3.1820    -4.2170    -0.3420 H     1 <1>   0.0800 
 48 H        6.8540     4.1360     0.2330 H     1 <1>   0.0800 
 49 H        7.7890     3.3940    -1.0230 H     1 <1>   0.0800 
 50 H        7.0440     1.0000    -1.8500 H     1 <1>   0.0800 
 51 H        5.7050     0.2540    -1.0360 H     1 <1>   0.0800 
 52 H        7.5700     2.4750     1.8520 H     1 <1>   0.0800 
 53 H        8.9650     3.2240     1.1240 H     1 <1>   0.0800 
 54 H        7.8830    -0.6360    -0.2490 H     1 <1>   0.0800 
 55 H        6.9250     0.0610     1.0260 H     1 <1>   0.0800 
 56 H        9.2210     1.3430    -0.3250 H     1 <1>   0.4500 
 57 H        8.9040     0.2990     2.4080 H     1 <1>   0.0800 
 58 H       10.1940     1.3770     1.9310 H     1 <1>   0.0800 
 59 H        9.6660    -1.3610     0.7320 H     1 <1>   0.0800 
 60 H       10.9800    -0.9000     1.7650 H     1 <1>   0.0800 
 61 H       10.8910    -0.2330     0.1630 H     1 <1>   0.0800 
@<TRIPOS>BOND
  1   1   2  2   
  2   1   3  2   
  3   1   4  am  
  4   1   5  1   
  5   4   6  1   
  6   4   7  1   
  7   5   8  ar  
  8   5   9  ar  
  9   6  10  1   
 10   6  30  1   
 11   6  31  1   
 12   7  11  1   
 13   7  32  1   
 14   7  33  1   
 15   8  12  1   
 16   8  13  ar  
 17   9  14  ar  
 18   9  34  1   
 19  10  15  1   
 20  10  35  1   
 21  10  36  1   
 22  11  15  1   
 23  11  37  1   
 24  11  38  1   
 25  12  16  1   
 26  13  17  ar  
 27  13  39  1   
 28  14  17  ar  
 29  14  18  1   
 30  15  19  1   
 31  15  40  1   
 32  16  41  1   
 33  16  42  1   
 34  16  43  1   
 35  17  44  1   
 36  18  20  1   
 37  19  21  2   
 38  19  22  am  
 39  20  45  1   
 40  20  46  1   
 41  20  47  1   
 42  22  23  1   
 43  22  24  1   
 44  23  25  1   
 45  23  48  1   
 46  23  49  1   
 47  24  26  1   
 48  24  50  1   
 49  24  51  1   
 50  25  27  1   
 51  25  52  1   
 52  25  53  1   
 53  26  27  1   
 54  26  54  1   
 55  26  55  1   
 56  27  28  1   
 57  27  56  1   
 58  28  29  1   
 59  28  57  1   
 60  28  58  1   
 61  29  59  1   
 62  29  60  1   
 63  29  61  1   
@<TRIPOS>SUBSTRUCTURE
  1 ****   7 GROUP 4 **** **** 0

# MOE 2024.06 (io_trps.svl 2023.06)
