@<TRIPOS>MOLECULE
4,5,6-Trimethoxy-1-methyl-1H-indole-2-carboxylic acid
33 34 1 0 0 
SMALL
USER_CHARGES


@<TRIPOS>ATOM
  1 O       -0.6190    -0.3110     0.4460 O.co2 1 <1>  -0.9000 
  2 C       -1.2620    -1.3280     0.1340 C.2   1 <1>   1.0320 
  3 O       -0.6370    -2.3610    -0.1670 O.co2 1 <1>  -0.9000 
  4 C       -2.7100    -1.2870     0.1210 C.2   1 <1>  -0.3840 
  5 N       -3.5370    -2.3190    -0.2660 N.pl3 1 <1>   0.0480 
  6 C       -3.5030    -0.2390     0.4840 C.2   1 <1>  -0.1500 
  7 C       -4.8460    -1.9040    -0.1380 C.ar  1 <1>  -0.1520 
  8 C       -3.0940    -3.6460    -0.7380 C.3   1 <1>   0.0160 
  9 C       -4.8600    -0.5840     0.3120 C.ar  1 <1>   0.0000 
 10 C       -6.0400    -2.5940    -0.3720 C.ar  1 <1>  -0.1500 
 11 C       -6.0960     0.0790     0.4920 C.ar  1 <1>   0.0830 
 12 C       -7.2420    -1.9620    -0.1560 C.ar  1 <1>   0.0830 
 13 O       -6.1750     1.3890     0.8700 O.3   1 <1>  -0.3630 
 14 C       -7.2730    -0.6160     0.2630 C.ar  1 <1>   0.0830 
 15 O       -8.3810    -2.6680    -0.3770 O.3   1 <1>  -0.3630 
 16 C       -5.2580     2.3230     0.3470 C.3   1 <1>   0.0400 
 17 O       -8.4770     0.0080     0.4290 O.3   1 <1>  -0.3630 
 18 C       -9.1410    -2.9870     0.7670 C.3   1 <1>   0.0400 
 19 C       -8.9920     0.5840    -0.7460 C.3   1 <1>   0.0400 
 20 H       -3.1280     0.6970     0.8510 H     1 <1>   0.1500 
 21 H       -2.5390    -4.1260     0.0470 H     1 <1>   0.0800 
 22 H       -2.4490    -3.5160    -1.5880 H     1 <1>   0.0800 
 23 H       -3.9340    -4.2520    -1.0120 H     1 <1>   0.0800 
 24 H       -6.0280    -3.6120    -0.7100 H     1 <1>   0.1500 
 25 H       -5.7540     3.2740     0.2790 H     1 <1>   0.0800 
 26 H       -4.9370     2.0050    -0.6300 H     1 <1>   0.0800 
 27 H       -4.4230     2.3990     1.0190 H     1 <1>   0.0800 
 28 H       -9.5610    -2.0870     1.1770 H     1 <1>   0.0800 
 29 H       -9.9280    -3.6560     0.4710 H     1 <1>   0.0800 
 30 H       -8.5000    -3.4630     1.4880 H     1 <1>   0.0800 
 31 H       -9.1330    -0.1900    -1.4800 H     1 <1>   0.0800 
 32 H       -9.9320     1.0490    -0.5100 H     1 <1>   0.0800 
 33 H       -8.2940     1.3200    -1.1040 H     1 <1>   0.0800 
@<TRIPOS>BOND
  1   1   2  ar  
  2   2   3  ar  
  3   2   4  1   
  4   4   5  1   
  5   4   6  2   
  6   5   7  1   
  7   5   8  1   
  8   6   9  1   
  9   6  20  1   
 10   7   9  ar  
 11   7  10  ar  
 12   8  21  1   
 13   8  22  1   
 14   8  23  1   
 15   9  11  ar  
 16  10  12  ar  
 17  10  24  1   
 18  11  13  1   
 19  11  14  ar  
 20  12  14  ar  
 21  12  15  1   
 22  13  16  1   
 23  14  17  1   
 24  15  18  1   
 25  16  25  1   
 26  16  26  1   
 27  16  27  1   
 28  17  19  1   
 29  18  28  1   
 30  18  29  1   
 31  18  30  1   
 32  19  31  1   
 33  19  32  1   
 34  19  33  1   
@<TRIPOS>SUBSTRUCTURE
  1 ****   9 GROUP 4 **** **** 0

# MOE 2024.06 (io_trps.svl 2023.06)
