@<TRIPOS>MOLECULE
(4-Dimethylamino-6-morpholin-4-yl-[1,3,5]triazin-2-yl)-(2-o-tolyloxy-ethyl)-cyan
53 55 1 0 0 
SMALL
USER_CHARGES


@<TRIPOS>ATOM
  1 O       -0.2410     0.8920     0.1120 O.3   1 <1>  -0.5600 
  2 C       -1.4070     0.1460     0.3340 C.3   1 <1>   0.1200 
  3 C       -0.4430     2.2810     0.1340 C.3   1 <1>   0.1200 
  4 C       -2.4740     0.4540    -0.7320 C.3   1 <1>   0.2090 
  5 C       -1.4640     2.7090    -0.9340 C.3   1 <1>   0.2090 
  6 N       -2.7380     1.9260    -0.7900 N.pl3 1 <1>  -0.8380 
  7 C       -3.9290     2.4830    -0.3750 C.ar  1 <1>   0.7200 
  8 N       -3.9290     3.7630    -0.1350 N.ar  1 <1>  -0.6200 
  9 N       -4.9630     1.6980    -0.2400 N.ar  1 <1>  -0.6200 
 10 C       -5.0560     4.2410     0.3120 C.ar  1 <1>   0.8190 
 11 C       -6.0470     2.2880     0.1870 C.ar  1 <1>   0.7200 
 12 N       -6.1500     3.5550     0.4910 N.ar  1 <1>  -0.6200 
 13 N       -5.0680     5.5830     0.6310 N.pl3 1 <1>  -0.6810 
 14 N       -7.1780     1.5110     0.3410 N.pl3 1 <1>  -0.8380 
 15 C       -6.1270     6.1600     1.3510 C.1   1 <1>   0.6830 
 16 C       -3.9440     6.4900     0.2590 C.3   1 <1>   0.1960 
 17 C       -7.3150     0.1690    -0.2930 C.3   1 <1>   0.1290 
 18 C       -8.3790     1.9910     1.0840 C.3   1 <1>   0.1290 
 19 N       -6.9480     6.6770     1.9450 N.1   1 <1>  -0.5570 
 20 C       -2.7620     6.3240     1.2210 C.3   1 <1>   0.1200 
 21 O       -1.5900     6.7440     0.5540 O.3   1 <1>  -0.3630 
 22 C       -0.4160     6.1080     0.7950 C.ar  1 <1>   0.0820 
 23 C        0.4850     5.9660    -0.2570 C.ar  1 <1>  -0.1430 
 24 C       -0.1020     5.6000     2.0520 C.ar  1 <1>  -0.1500 
 25 C        1.6860     5.3080    -0.0400 C.ar  1 <1>  -0.1500 
 26 C        0.1610     6.5220    -1.6350 C.3   1 <1>  -0.0970 
 27 C        1.0980     4.9420     2.2550 C.ar  1 <1>  -0.1500 
 28 C        1.9900     4.7960     1.2090 C.ar  1 <1>  -0.1500 
 29 H       -1.7820     0.3780     1.3150 H     1 <1>   0.0800 
 30 H       -1.1410    -0.8950     0.3010 H     1 <1>   0.0800 
 31 H        0.5040     2.7520    -0.0540 H     1 <1>   0.0800 
 32 H       -0.7830     2.5680     1.1130 H     1 <1>   0.0800 
 33 H       -3.3660    -0.1010    -0.5040 H     1 <1>   0.0800 
 34 H       -2.1220     0.1210    -1.6920 H     1 <1>   0.0800 
 35 H       -1.0470     2.5240    -1.9080 H     1 <1>   0.0800 
 36 H       -1.6300     3.7690    -0.8550 H     1 <1>   0.0800 
 37 H       -4.2730     7.5150     0.2660 H     1 <1>   0.0800 
 38 H       -3.6230     6.2490    -0.7410 H     1 <1>   0.0800 
 39 H       -6.6560     0.0760    -1.1390 H     1 <1>   0.0800 
 40 H       -8.3240     0.0250    -0.6370 H     1 <1>   0.0800 
 41 H       -7.0730    -0.5940     0.4250 H     1 <1>   0.0800 
 42 H       -8.0970     2.6920     1.8520 H     1 <1>   0.0800 
 43 H       -8.8800     1.1630     1.5520 H     1 <1>   0.0800 
 44 H       -9.0550     2.4770     0.4020 H     1 <1>   0.0800 
 45 H       -2.6460     5.2890     1.4900 H     1 <1>   0.0800 
 46 H       -2.8880     6.9250     2.1030 H     1 <1>   0.0800 
 47 H       -0.7790     5.7200     2.8770 H     1 <1>   0.1500 
 48 H        2.3930     5.1910    -0.8430 H     1 <1>   0.1500 
 49 H       -0.7440     6.0770    -2.0070 H     1 <1>   0.0800 
 50 H        0.9550     6.3220    -2.3320 H     1 <1>   0.0800 
 51 H        0.0220     7.5870    -1.5720 H     1 <1>   0.0800 
 52 H        1.3400     4.5480     3.2270 H     1 <1>   0.1500 
 53 H        2.9250     4.2850     1.3670 H     1 <1>   0.1500 
@<TRIPOS>BOND
  1   1   2  1   
  2   1   3  1   
  3   2   4  1   
  4   2  29  1   
  5   2  30  1   
  6   3   5  1   
  7   3  31  1   
  8   3  32  1   
  9   4   6  1   
 10   4  33  1   
 11   4  34  1   
 12   5   6  1   
 13   5  35  1   
 14   5  36  1   
 15   6   7  1   
 16   7   8  ar  
 17   7   9  ar  
 18   8  10  ar  
 19   9  11  ar  
 20  10  12  ar  
 21  10  13  1   
 22  11  12  ar  
 23  11  14  1   
 24  13  15  1   
 25  13  16  1   
 26  14  17  1   
 27  14  18  1   
 28  15  19  3   
 29  16  20  1   
 30  16  37  1   
 31  16  38  1   
 32  17  39  1   
 33  17  40  1   
 34  17  41  1   
 35  18  42  1   
 36  18  43  1   
 37  18  44  1   
 38  20  21  1   
 39  20  45  1   
 40  20  46  1   
 41  21  22  1   
 42  22  23  ar  
 43  22  24  ar  
 44  23  25  ar  
 45  23  26  1   
 46  24  27  ar  
 47  24  47  1   
 48  25  28  ar  
 49  25  48  1   
 50  26  49  1   
 51  26  50  1   
 52  26  51  1   
 53  27  28  ar  
 54  27  52  1   
 55  28  53  1   
@<TRIPOS>SUBSTRUCTURE
  1 ****   8 GROUP 4 **** **** 0

# MOE 2024.06 (io_trps.svl 2023.06)
