@<TRIPOS>MOLECULE
1-(3-Chloro-4-methoxy-benzenesulfonyl)-piperidine-4-carboxylic acid ethylamide
44 45 1 0 0 
SMALL
USER_CHARGES


@<TRIPOS>ATOM
  1 CL       2.4360    -0.0250    -2.9740 Cl    1 <1>  -0.1770 
  2 C        2.8080    -0.7980    -1.4490 C.ar  1 <1>   0.1770 
  3 C        2.3550    -2.0850    -1.1830 C.ar  1 <1>   0.0830 
  4 C        3.5600    -0.0930    -0.5290 C.ar  1 <1>  -0.1500 
  5 O        1.6210    -2.7230    -2.1320 O.3   1 <1>  -0.3630 
  6 C        2.6770    -2.6550     0.0450 C.ar  1 <1>  -0.1500 
  7 C        3.8910    -0.6580     0.6970 C.ar  1 <1>  -0.0090 
  8 C        1.1020    -4.0180    -1.9270 C.3   1 <1>   0.0400 
  9 C        3.4330    -1.9450     0.9640 C.ar  1 <1>  -0.1500 
 10 S        4.8770     0.2620     1.9100 S.o2  1 <1>   1.4470 
 11 O        5.5090    -0.6570     2.8330 O.2   1 <1>  -0.6500 
 12 O        4.0820     1.3520     2.4300 O.2   1 <1>  -0.6500 
 13 N        6.1170     0.9350     0.9680 N.am  1 <1>  -0.8490 
 14 C        7.0930    -0.0710     0.5410 C.3   1 <1>   0.1960 
 15 C        6.7630     2.0580     1.6540 C.3   1 <1>   0.1960 
 16 C        8.0940     0.5450    -0.4390 C.3   1 <1>  -0.1600 
 17 C        7.7670     2.7430     0.7220 C.3   1 <1>  -0.1600 
 18 C        8.8130     1.7500     0.1890 C.3   1 <1>  -0.0190 
 19 C        9.7680     2.4160    -0.8000 C.2   1 <1>   0.5690 
 20 O        9.3400     2.8400    -1.8460 O.2   1 <1>  -0.5700 
 21 N       11.0820     2.5140    -0.4680 N.am  1 <1>  -0.7300 
 22 C       12.1270     3.1110    -1.3230 C.3   1 <1>   0.1400 
 23 C       13.3210     2.1650    -1.3630 C.3   1 <1>  -0.2400 
 24 H        3.8910     0.9020    -0.7700 H     1 <1>   0.1500 
 25 H        2.3510    -3.6460     0.3030 H     1 <1>   0.1500 
 26 H        0.5540    -4.3000    -2.8080 H     1 <1>   0.0800 
 27 H        0.4430    -4.0000    -1.0770 H     1 <1>   0.0800 
 28 H        1.9180    -4.7020    -1.7710 H     1 <1>   0.0800 
 29 H        3.6730    -2.4000     1.9120 H     1 <1>   0.1500 
 30 H        6.5860    -0.8870     0.0510 H     1 <1>   0.0800 
 31 H        7.6160    -0.4670     1.3980 H     1 <1>   0.0800 
 32 H        7.2580     1.7060     2.5440 H     1 <1>   0.0800 
 33 H        6.0220     2.7830     1.9460 H     1 <1>   0.0800 
 34 H        7.5670     0.8540    -1.3260 H     1 <1>   0.0800 
 35 H        8.8160    -0.1970    -0.7290 H     1 <1>   0.0800 
 36 H        8.2580     3.5410     1.2500 H     1 <1>   0.0800 
 37 H        7.2290     3.1800    -0.1020 H     1 <1>   0.0800 
 38 H        9.3890     1.3940     1.0240 H     1 <1>   0.0800 
 39 H       11.4080     2.1600     0.4300 H     1 <1>   0.3700 
 40 H       12.4190     4.0650    -0.9170 H     1 <1>   0.0800 
 41 H       11.7470     3.2670    -2.3200 H     1 <1>   0.0800 
 42 H       13.7270     2.0250    -0.3770 H     1 <1>   0.0800 
 43 H       14.0880     2.5820    -1.9900 H     1 <1>   0.0800 
 44 H       13.0270     1.2150    -1.7730 H     1 <1>   0.0800 
@<TRIPOS>BOND
  1   1   2  1   
  2   2   3  ar  
  3   2   4  ar  
  4   3   5  1   
  5   3   6  ar  
  6   4   7  ar  
  7   4  24  1   
  8   5   8  1   
  9   6   9  ar  
 10   6  25  1   
 11   7   9  ar  
 12   7  10  1   
 13   8  26  1   
 14   8  27  1   
 15   8  28  1   
 16   9  29  1   
 17  10  11  2   
 18  10  12  2   
 19  10  13  am  
 20  13  14  1   
 21  13  15  1   
 22  14  16  1   
 23  14  30  1   
 24  14  31  1   
 25  15  17  1   
 26  15  32  1   
 27  15  33  1   
 28  16  18  1   
 29  16  34  1   
 30  16  35  1   
 31  17  18  1   
 32  17  36  1   
 33  17  37  1   
 34  18  19  1   
 35  18  38  1   
 36  19  20  2   
 37  19  21  am  
 38  21  22  1   
 39  21  39  1   
 40  22  23  1   
 41  22  40  1   
 42  22  41  1   
 43  23  42  1   
 44  23  43  1   
 45  23  44  1   
@<TRIPOS>SUBSTRUCTURE
  1 ****  13 GROUP 4 **** **** 0

# MOE 2024.06 (io_trps.svl 2023.06)
