@<TRIPOS>MOLECULE
N-tert-Butyl-4-(3-m-tolyl-[1,2,4]oxadiazol-5-yl)-butyramide
45 46 1 0 0 
SMALL
USER_CHARGES


@<TRIPOS>ATOM
  1 O       -0.0300    -0.8480    -0.2100 O.2   1 <1>  -0.5700 
  2 C       -0.9150    -1.6190     0.0590 C.2   1 <1>   0.5690 
  3 N       -0.7620    -2.9230    -0.2740 N.am  1 <1>  -0.7300 
  4 C       -2.1450    -1.0570     0.7500 C.3   1 <1>  -0.0990 
  5 C       -1.5570    -4.1470    -0.1110 C.3   1 <1>   0.3000 
  6 C       -3.0990    -0.3830    -0.2550 C.3   1 <1>  -0.1600 
  7 C       -2.9690    -3.9760    -0.6730 C.3   1 <1>  -0.2400 
  8 C       -1.5770    -4.5580     1.3610 C.3   1 <1>  -0.2400 
  9 C       -0.8300    -5.2210    -0.9200 C.3   1 <1>  -0.2400 
 10 C       -4.4130     0.0960     0.3840 C.3   1 <1>   0.0200 
 11 C       -5.2380    -1.0590     0.9220 C.2   1 <1>   0.2980 
 12 O       -5.0970    -1.4080     2.1740 O.3   1 <1>  -0.0190 
 13 N       -6.0640    -1.7500     0.2540 N.2   1 <1>  -0.5650 
 14 N       -5.8950    -2.4180     2.3120 N.2   1 <1>  -0.4100 
 15 C       -6.4730    -2.6230     1.1800 C.2   1 <1>   0.4620 
 16 C       -7.4460    -3.6680     0.9020 C.ar  1 <1>   0.0540 
 17 C       -7.9550    -3.8730    -0.3820 C.ar  1 <1>  -0.1500 
 18 C       -7.9090    -4.5130     1.9120 C.ar  1 <1>  -0.1500 
 19 C       -8.8800    -4.8680    -0.6530 C.ar  1 <1>  -0.1440 
 20 C       -8.8310    -5.5100     1.6540 C.ar  1 <1>  -0.1500 
 21 C       -9.3170    -5.6880     0.3720 C.ar  1 <1>  -0.1500 
 22 C       -9.4120    -5.0640    -2.0620 C.3   1 <1>  -0.0970 
 23 H        0.1330    -3.1060    -0.7270 H     1 <1>   0.3700 
 24 H       -1.8160    -0.3280     1.4680 H     1 <1>   0.0800 
 25 H       -2.6390    -1.8330     1.2930 H     1 <1>   0.0800 
 26 H       -3.3310    -1.0730    -1.0490 H     1 <1>   0.0800 
 27 H       -2.5950     0.4590    -0.6990 H     1 <1>   0.0800 
 28 H       -3.5660    -3.3350    -0.0560 H     1 <1>   0.0800 
 29 H       -3.4670    -4.9280    -0.7100 H     1 <1>   0.0800 
 30 H       -2.9310    -3.5770    -1.6710 H     1 <1>   0.0800 
 31 H       -2.0670    -5.5090     1.4700 H     1 <1>   0.0800 
 32 H       -2.1100    -3.8480     1.9620 H     1 <1>   0.0800 
 33 H       -0.5740    -4.6500     1.7390 H     1 <1>   0.0800 
 34 H       -1.3490    -6.1600    -0.8420 H     1 <1>   0.0800 
 35 H        0.1700    -5.3630    -0.5530 H     1 <1>   0.0800 
 36 H       -0.7900    -4.9480    -1.9600 H     1 <1>   0.0800 
 37 H       -4.9960     0.6070    -0.3610 H     1 <1>   0.0800 
 38 H       -4.2100     0.7930     1.1780 H     1 <1>   0.0800 
 39 H       -7.6170    -3.2390    -1.1830 H     1 <1>   0.1500 
 40 H       -7.5420    -4.3870     2.9150 H     1 <1>   0.1500 
 41 H       -9.1730    -6.1480     2.4510 H     1 <1>   0.1500 
 42 H      -10.0340    -6.4670     0.1760 H     1 <1>   0.1500 
 43 H       -9.2880    -4.1680    -2.6430 H     1 <1>   0.0800 
 44 H      -10.4580    -5.3080    -2.0340 H     1 <1>   0.0800 
 45 H       -8.8800    -5.8650    -2.5430 H     1 <1>   0.0800 
@<TRIPOS>BOND
  1   1   2  2   
  2   2   3  am  
  3   2   4  1   
  4   3   5  1   
  5   3  23  1   
  6   4   6  1   
  7   4  24  1   
  8   4  25  1   
  9   5   7  1   
 10   5   8  1   
 11   5   9  1   
 12   6  10  1   
 13   6  26  1   
 14   6  27  1   
 15   7  28  1   
 16   7  29  1   
 17   7  30  1   
 18   8  31  1   
 19   8  32  1   
 20   8  33  1   
 21   9  34  1   
 22   9  35  1   
 23   9  36  1   
 24  10  11  1   
 25  10  37  1   
 26  10  38  1   
 27  11  12  1   
 28  11  13  2   
 29  12  14  1   
 30  13  15  1   
 31  14  15  2   
 32  15  16  1   
 33  16  17  ar  
 34  16  18  ar  
 35  17  19  ar  
 36  17  39  1   
 37  18  20  ar  
 38  18  40  1   
 39  19  21  ar  
 40  19  22  1   
 41  20  21  ar  
 42  20  41  1   
 43  21  42  1   
 44  22  43  1   
 45  22  44  1   
 46  22  45  1   
@<TRIPOS>SUBSTRUCTURE
  1 ****  13 GROUP 4 **** **** 0

# MOE 2024.06 (io_trps.svl 2023.06)
