@<TRIPOS>MOLECULE
3-(2-Amino-ethyl)-5-methoxy-1-methyl-1H-indole-2-carboxylic acid
34 35 1 0 0 
SMALL
USER_CHARGES


@<TRIPOS>ATOM
  1 O       -0.3670     0.9460    -0.1620 O.co2 1 <1>  -0.9000 
  2 C       -1.0950     1.9390    -0.0780 C.2   1 <1>   1.0320 
  3 O       -0.5750     3.0730    -0.0960 O.co2 1 <1>  -0.9000 
  4 C       -2.5440     1.8530    -0.0650 C.2   1 <1>  -0.3840 
  5 N       -3.2410     0.8090    -0.6350 N.pl3 1 <1>   0.0480 
  6 C       -3.4610     2.7330     0.4470 C.2   1 <1>  -0.1810 
  7 C       -4.5900     1.0600    -0.5130 C.ar  1 <1>  -0.1520 
  8 C       -2.6460    -0.4050    -1.2360 C.3   1 <1>   0.0160 
  9 C       -4.7560     2.2560     0.1740 C.ar  1 <1>   0.0000 
 10 C       -3.1580     4.0330     1.1770 C.3   1 <1>   0.0210 
 11 C       -5.7040     0.3360    -0.9510 C.ar  1 <1>  -0.1500 
 12 C       -6.0440     2.7360     0.4460 C.ar  1 <1>  -0.1500 
 13 C       -3.0850     5.2040     0.1910 C.3   1 <1>   0.3430 
 14 C       -6.9630     0.8190    -0.6880 C.ar  1 <1>  -0.1500 
 15 C       -7.1420     2.0170     0.0140 C.ar  1 <1>   0.0830 
 16 N       -2.3060     4.8060    -0.9990 N.4   1 <1>  -0.8530 
 17 O       -8.4320     2.3950     0.2280 O.3   1 <1>  -0.3630 
 18 C       -8.7360     3.3870     1.1830 C.3   1 <1>   0.0400 
 19 H       -2.1440    -0.9630    -0.4660 H     1 <1>   0.0800 
 20 H       -1.9260    -0.1170    -1.9790 H     1 <1>   0.0800 
 21 H       -3.4030    -1.0150    -1.6860 H     1 <1>   0.0800 
 22 H       -2.2170     3.9420     1.6920 H     1 <1>   0.0800 
 23 H       -3.9080     4.2240     1.9220 H     1 <1>   0.0800 
 24 H       -5.5760    -0.5880    -1.4850 H     1 <1>   0.1500 
 25 H       -6.1460     3.6530     0.9870 H     1 <1>   0.1500 
 26 H       -2.6230     6.0510     0.6730 H     1 <1>   0.0800 
 27 H       -4.0830     5.4750    -0.1110 H     1 <1>   0.0800 
 28 H       -7.8370     0.2840    -1.0140 H     1 <1>   0.1500 
 29 H       -2.0960     5.5250    -1.6870 H     1 <1>   0.4500 
 30 H       -2.7480     3.9810    -1.4250 H     1 <1>   0.4500 
 31 H       -1.4060     4.3770    -0.6640 H     1 <1>   0.4500 
 32 H       -9.8060     3.4400     1.2790 H     1 <1>   0.0800 
 33 H       -8.3540     4.3310     0.8410 H     1 <1>   0.0800 
 34 H       -8.2980     3.1090     2.1260 H     1 <1>   0.0800 
@<TRIPOS>BOND
  1   1   2  ar  
  2   2   3  ar  
  3   2   4  1   
  4   4   5  1   
  5   4   6  2   
  6   5   7  1   
  7   5   8  1   
  8   6   9  1   
  9   6  10  1   
 10   7   9  ar  
 11   7  11  ar  
 12   8  19  1   
 13   8  20  1   
 14   8  21  1   
 15   9  12  ar  
 16  10  13  1   
 17  10  22  1   
 18  10  23  1   
 19  11  14  ar  
 20  11  24  1   
 21  12  15  ar  
 22  12  25  1   
 23  13  16  1   
 24  13  26  1   
 25  13  27  1   
 26  14  15  ar  
 27  14  28  1   
 28  15  17  1   
 29  16  29  1   
 30  16  30  1   
 31  16  31  1   
 32  17  18  1   
 33  18  32  1   
 34  18  33  1   
 35  18  34  1   
@<TRIPOS>SUBSTRUCTURE
  1 ****   9 GROUP 4 **** **** 0

# MOE 2024.06 (io_trps.svl 2023.06)
