@<TRIPOS>MOLECULE
7-(2-Hydroxy-propyl)-3-methyl-8-propylamino-3,7-dihydro-purine-2,6-dione
40 41 1 0 0 
SMALL
USER_CHARGES


@<TRIPOS>ATOM
  1 O        0.9490    -0.1860     0.7700 O.2   1 <1>  -0.5760 
  2 C        1.9450     0.4730     0.5800 C.2   1 <1>   0.6850 
  3 N        3.1390    -0.0910     0.1570 N.am  1 <1>  -0.4430 
  4 N        1.8820     1.8200     0.7950 N.am  1 <1>  -0.4970 
  5 C        4.2230     0.7560    -0.0220 C.2   1 <1>   0.4190 
  6 C        3.2580    -1.5570    -0.0890 C.3   1 <1>   0.0500 
  7 C        2.9390     2.6670     0.6250 C.2   1 <1>   0.6980 
  8 N        5.4810     0.4230    -0.4150 N.pl3 1 <1>  -0.7050 
  9 C        4.1780     2.0930     0.1870 C.2   1 <1>   0.2680 
 10 O        2.7870     3.8510     0.8520 O.2   1 <1>  -0.5760 
 11 C        6.2120     1.5320    -0.4400 C.cat 1 <1>   1.0680 
 12 N        5.4660     2.5830    -0.1010 N.pl3 1 <1>  -0.7690 
 13 N        7.5000     1.5750    -0.7420 N.pl3 1 <1>  -0.7190 
 14 C        5.8380     4.0340    -0.1280 C.3   1 <1>   0.3460 
 15 C        8.3950     0.4780    -1.1600 C.3   1 <1>   0.1580 
 16 C        6.7920     4.4440     1.0180 C.3   1 <1>   0.1910 
 17 C        9.0820    -0.1020     0.0760 C.3   1 <1>  -0.1700 
 18 O        7.9860     3.7420     0.9280 O.3   1 <1>  -0.6850 
 19 C        7.1520     5.9260     0.9700 C.3   1 <1>  -0.2490 
 20 C        9.9940    -1.2720    -0.3020 C.3   1 <1>  -0.2490 
 21 H        0.9920     2.2030     1.1070 H     1 <1>   0.3620 
 22 H        2.3010    -2.0420     0.0080 H     1 <1>   0.0700 
 23 H        3.9340    -1.9930     0.6250 H     1 <1>   0.0700 
 24 H        3.6250    -1.7330    -1.0850 H     1 <1>   0.0700 
 25 H        5.8460    -0.5020    -0.6170 H     1 <1>   0.4430 
 26 H        7.9790     2.4290    -0.4120 H     1 <1>   0.4430 
 27 H        4.9480     4.6360    -0.0640 H     1 <1>   0.0700 
 28 H        6.3050     4.2650    -1.0710 H     1 <1>   0.0700 
 29 H        9.1340     0.8630    -1.8440 H     1 <1>   0.0700 
 30 H        7.8350    -0.2880    -1.6680 H     1 <1>   0.0700 
 31 H        6.3370     4.2140     1.9680 H     1 <1>   0.0700 
 32 H        8.3460    -0.4510     0.7790 H     1 <1>   0.0700 
 33 H        9.6760     0.6610     0.5500 H     1 <1>   0.0700 
 34 H        8.6120     4.0870     1.6020 H     1 <1>   0.3920 
 35 H        6.2590     6.5220     1.0470 H     1 <1>   0.0700 
 36 H        7.6450     6.1740     0.0450 H     1 <1>   0.0700 
 37 H        7.7910     6.1870     1.7950 H     1 <1>   0.0700 
 38 H        9.4300    -2.0660    -0.7590 H     1 <1>   0.0700 
 39 H       10.4750    -1.6620     0.5790 H     1 <1>   0.0700 
 40 H       10.7590    -0.9510    -0.9880 H     1 <1>   0.0700 
@<TRIPOS>BOND
  1   1   2  2   
  2   2   3  am  
  3   2   4  am  
  4   3   5  1   
  5   3   6  1   
  6   4   7  am  
  7   4  21  1   
  8   5   8  1   
  9   5   9  2   
 10   6  22  1   
 11   6  23  1   
 12   6  24  1   
 13   7   9  1   
 14   7  10  2   
 15   8  11  ar  
 16   8  25  1   
 17   9  12  1   
 18  11  12  ar  
 19  11  13  ar  
 20  12  14  1   
 21  13  15  1   
 22  13  26  1   
 23  14  16  1   
 24  14  27  1   
 25  14  28  1   
 26  15  17  1   
 27  15  29  1   
 28  15  30  1   
 29  16  18  1   
 30  16  19  1   
 31  16  31  1   
 32  17  20  1   
 33  17  32  1   
 34  17  33  1   
 35  18  34  1   
 36  19  35  1   
 37  19  36  1   
 38  19  37  1   
 39  20  38  1   
 40  20  39  1   
 41  20  40  1   
@<TRIPOS>SUBSTRUCTURE
  1 ****  12 GROUP 4 **** **** 0

# MOE 2024.06 (io_trps.svl 2023.06)
