@<TRIPOS>MOLECULE
1-(4-Fluoro-benzyl)-piperidine-4-carboxylic acid
33 34 1 0 0 
SMALL
USER_CHARGES


@<TRIPOS>ATOM
  1 F       -0.7110    -0.4520     1.5950 F     1 <1>  -0.1900 
  2 C       -1.7070    -1.0530     1.0040 C.ar  1 <1>   0.1900 
  3 C       -2.8860    -1.2330     1.6990 C.ar  1 <1>  -0.1500 
  4 C       -1.5450    -1.4880    -0.2970 C.ar  1 <1>  -0.1500 
  5 C       -3.9390    -1.8740     1.0680 C.ar  1 <1>  -0.1500 
  6 C       -2.6030    -2.1280    -0.9200 C.ar  1 <1>  -0.1500 
  7 C       -3.8010    -2.3260    -0.2410 C.ar  1 <1>  -0.1430 
  8 C       -4.9550    -3.0330    -0.9300 C.3   1 <1>   0.4870 
  9 N       -5.1370    -4.3780    -0.3310 N.4   1 <1>  -0.9590 
 10 C       -3.9460    -5.2570    -0.5120 C.3   1 <1>   0.3430 
 11 C       -6.3760    -5.0440    -0.8170 C.3   1 <1>   0.3430 
 12 C       -4.1220    -6.5070     0.3390 C.3   1 <1>  -0.1600 
 13 C       -6.6350    -6.2840     0.0270 C.3   1 <1>  -0.1600 
 14 C       -5.4350    -7.2490     0.0190 C.3   1 <1>  -0.1860 
 15 C       -5.6620    -8.3850     1.0020 C.2   1 <1>   0.9060 
 16 O       -5.7840    -8.0930     2.1950 O.co2 1 <1>  -0.9000 
 17 O       -5.7200    -9.5330     0.5650 O.co2 1 <1>  -0.9000 
 18 H       -2.9710    -0.8750     2.7110 H     1 <1>   0.1500 
 19 H       -0.6100    -1.3220    -0.8040 H     1 <1>   0.1500 
 20 H       -4.8610    -2.0100     1.6090 H     1 <1>   0.1500 
 21 H       -2.4800    -2.4640    -1.9370 H     1 <1>   0.1500 
 22 H       -4.7540    -3.1230    -1.9850 H     1 <1>   0.0800 
 23 H       -5.8520    -2.4500    -0.8030 H     1 <1>   0.0800 
 24 H       -5.2380    -4.2680     0.6860 H     1 <1>   0.4500 
 25 H       -3.0500    -4.7430    -0.2020 H     1 <1>   0.0800 
 26 H       -3.8440    -5.5360    -1.5480 H     1 <1>   0.0800 
 27 H       -6.2620    -5.3290    -1.8500 H     1 <1>   0.0800 
 28 H       -7.2190    -4.3760    -0.7320 H     1 <1>   0.0800 
 29 H       -4.1050    -6.2340     1.3810 H     1 <1>   0.0800 
 30 H       -3.2940    -7.1750     0.1760 H     1 <1>   0.0800 
 31 H       -7.5010    -6.8020    -0.3470 H     1 <1>   0.0800 
 32 H       -6.8560    -5.9890     1.0390 H     1 <1>   0.0800 
 33 H       -5.3520    -7.6920    -0.9580 H     1 <1>   0.0800 
@<TRIPOS>BOND
  1   1   2  1   
  2   2   3  ar  
  3   2   4  ar  
  4   3   5  ar  
  5   3  18  1   
  6   4   6  ar  
  7   4  19  1   
  8   5   7  ar  
  9   5  20  1   
 10   6   7  ar  
 11   6  21  1   
 12   7   8  1   
 13   8   9  1   
 14   8  22  1   
 15   8  23  1   
 16   9  10  1   
 17   9  11  1   
 18   9  24  1   
 19  10  12  1   
 20  10  25  1   
 21  10  26  1   
 22  11  13  1   
 23  11  27  1   
 24  11  28  1   
 25  12  14  1   
 26  12  29  1   
 27  12  30  1   
 28  13  14  1   
 29  13  31  1   
 30  13  32  1   
 31  14  15  1   
 32  14  33  1   
 33  15  16  ar  
 34  15  17  ar  
@<TRIPOS>SUBSTRUCTURE
  1 ****   9 GROUP 4 **** **** 0

# MOE 2024.06 (io_trps.svl 2023.06)
