@<TRIPOS>MOLECULE
3,6-Dihydroxy-4-(4-isopropyl-phenyl)-6-methyl-4,5,6,7-tetrahydro-1H-indazole-5-c
53 55 1 0 0 
SMALL
USER_CHARGES


@<TRIPOS>ATOM
  1 O       -2.2730     0.7400    -1.3090 O.2   1 <1>  -0.5700 
  2 C       -2.0710     1.1780    -0.2040 C.2   1 <1>   0.6590 
  3 O       -2.2640     0.4430     0.8790 O.3   1 <1>  -0.4300 
  4 C       -1.5710     2.5870     0.0310 C.3   1 <1>  -0.0190 
  5 C       -2.6400    -0.9080     0.7810 C.3   1 <1>   0.2580 
  6 C       -2.6530     3.6770    -0.1890 C.3   1 <1>   0.2800 
  7 C       -0.2880     2.8230    -0.7960 C.3   1 <1>   0.2440 
  8 C       -2.8090    -1.4450     2.1880 C.2   1 <1>  -0.2880 
  9 O       -3.7480     3.3880     0.5980 O.3   1 <1>  -0.6800 
 10 C       -2.1220     5.0550     0.2760 C.3   1 <1>   0.0200 
 11 C       -3.1830     3.7630    -1.6280 C.3   1 <1>  -0.2400 
 12 C        0.8250     1.9150    -0.2710 C.ar  1 <1>  -0.1440 
 13 C        0.0790     4.2990    -0.7430 C.2   1 <1>  -0.1810 
 14 C       -3.9260    -1.9900     2.6820 C.2   1 <1>  -0.3000 
 15 C       -0.7220     5.2750    -0.2700 C.2   1 <1>  -0.3320 
 16 C        1.5340     2.2360     0.8770 C.ar  1 <1>  -0.1500 
 17 C        1.1250     0.7340    -0.9320 C.ar  1 <1>  -0.1500 
 18 C        1.2180     4.9770    -1.1520 C.2   1 <1>   0.3510 
 19 N       -0.0440     6.4400    -0.3890 N.pl3 1 <1>   0.3000 
 20 C        2.5170     1.3900     1.3570 C.ar  1 <1>  -0.1500 
 21 C        2.1100    -0.1120    -0.4520 C.ar  1 <1>  -0.1500 
 22 O        2.2980     4.4490    -1.7230 O.3   1 <1>  -0.5120 
 23 N        1.1750     6.2490    -0.9470 N.2   1 <1>  -0.7070 
 24 C        2.8150     0.2050     0.6990 C.ar  1 <1>  -0.1430 
 25 C        3.8960    -0.7410     1.2160 C.3   1 <1>   0.0630 
 26 C        3.5340    -1.2750     2.6060 C.3   1 <1>  -0.2400 
 27 C        5.2640    -0.0510     1.2370 C.3   1 <1>  -0.2400 
 28 H       -1.2840     2.6500     1.0650 H     1 <1>   0.0800 
 29 H       -1.8630    -1.4400     0.2590 H     1 <1>   0.0800 
 30 H       -3.5600    -0.9720     0.2260 H     1 <1>   0.0800 
 31 H       -0.4720     2.5860    -1.8290 H     1 <1>   0.0800 
 32 H       -1.9090    -1.3360     2.7700 H     1 <1>   0.1500 
 33 H       -4.2330     2.6210     0.2360 H     1 <1>   0.4000 
 34 H       -2.0770     5.0820     1.3510 H     1 <1>   0.0800 
 35 H       -2.7800     5.8360    -0.0600 H     1 <1>   0.0800 
 36 H       -3.9440     4.5190    -1.7010 H     1 <1>   0.0800 
 37 H       -2.3930     4.0310    -2.3060 H     1 <1>   0.0800 
 38 H       -3.5990     2.8280    -1.9540 H     1 <1>   0.0800 
 39 H       -4.0170    -2.3620     3.6880 H     1 <1>   0.1500 
 40 H       -4.8410    -2.1110     2.1280 H     1 <1>   0.1500 
 41 H        1.3250     3.1510     1.4040 H     1 <1>   0.1500 
 42 H        0.5910     0.4610    -1.8270 H     1 <1>   0.1500 
 43 H       -0.3790     7.3710    -0.1120 H     1 <1>   0.2700 
 44 H        3.0520     1.6620     2.2490 H     1 <1>   0.1500 
 45 H        2.3220    -1.0220    -0.9840 H     1 <1>   0.1500 
 46 H        2.9120     5.1890    -1.8550 H     1 <1>   0.4500 
 47 H        3.9650    -1.5830     0.5490 H     1 <1>   0.0800 
 48 H        3.4990    -0.4770     3.3240 H     1 <1>   0.0800 
 49 H        4.2610    -1.9990     2.9280 H     1 <1>   0.0800 
 50 H        2.5690    -1.7490     2.5730 H     1 <1>   0.0800 
 51 H        5.2680     0.7710     1.9290 H     1 <1>   0.0800 
 52 H        5.4950     0.3270     0.2560 H     1 <1>   0.0800 
 53 H        6.0290    -0.7490     1.5250 H     1 <1>   0.0800 
@<TRIPOS>BOND
  1   1   2  2   
  2   2   3  1   
  3   2   4  1   
  4   3   5  1   
  5   4   6  1   
  6   4   7  1   
  7   4  28  1   
  8   5   8  1   
  9   5  29  1   
 10   5  30  1   
 11   6   9  1   
 12   6  10  1   
 13   6  11  1   
 14   7  12  1   
 15   7  13  1   
 16   7  31  1   
 17   8  14  2   
 18   8  32  1   
 19   9  33  1   
 20  10  15  1   
 21  10  34  1   
 22  10  35  1   
 23  11  36  1   
 24  11  37  1   
 25  11  38  1   
 26  12  16  ar  
 27  12  17  ar  
 28  13  15  2   
 29  13  18  1   
 30  14  39  1   
 31  14  40  1   
 32  15  19  1   
 33  16  20  ar  
 34  16  41  1   
 35  17  21  ar  
 36  17  42  1   
 37  18  22  1   
 38  18  23  2   
 39  19  23  1   
 40  19  43  1   
 41  20  24  ar  
 42  20  44  1   
 43  21  24  ar  
 44  21  45  1   
 45  22  46  1   
 46  24  25  1   
 47  25  26  1   
 48  25  27  1   
 49  25  47  1   
 50  26  48  1   
 51  26  49  1   
 52  26  50  1   
 53  27  51  1   
 54  27  52  1   
 55  27  53  1   
@<TRIPOS>SUBSTRUCTURE
  1 ****  12 GROUP 4 **** **** 0

# MOE 2024.06 (io_trps.svl 2023.06)
