@<TRIPOS>MOLECULE
4-(4-Fluoro-phenyl)-tetrahydro-pyran-4-carboxylic acid
28 29 1 0 0 
SMALL
USER_CHARGES


@<TRIPOS>ATOM
  1 F       -0.9690    -0.8110     2.4910 F     1 <1>  -0.1900 
  2 C       -1.9620    -1.2060     1.7400 C.ar  1 <1>   0.1900 
  3 C       -2.7730    -2.2280     2.1880 C.ar  1 <1>  -0.1500 
  4 C       -2.1640    -0.5950     0.5210 C.ar  1 <1>  -0.1500 
  5 C       -3.8280    -2.6390     1.3910 C.ar  1 <1>  -0.1500 
  6 C       -3.2240    -1.0190    -0.2620 C.ar  1 <1>  -0.1500 
  7 C       -4.0870    -2.0290     0.1620 C.ar  1 <1>  -0.1430 
  8 C       -5.2630    -2.4300    -0.7760 C.3   1 <1>   0.0370 
  9 C       -4.6770    -2.9780    -2.1050 C.2   1 <1>   0.9060 
 10 C       -6.2280    -3.4800    -0.1580 C.3   1 <1>  -0.1600 
 11 C       -6.1530    -1.1910    -1.0590 C.3   1 <1>  -0.1600 
 12 O       -4.4030    -2.1880    -3.0230 O.co2 1 <1>  -0.9000 
 13 O       -4.5040    -4.1980    -2.2430 O.co2 1 <1>  -0.9000 
 14 C       -7.0710    -2.9310     1.0050 C.3   1 <1>   0.1200 
 15 C       -6.9260    -0.7450     0.1830 C.3   1 <1>   0.1200 
 16 O       -7.7540    -1.7840     0.6060 O.3   1 <1>  -0.5600 
 17 H       -2.5780    -2.6950     3.1360 H     1 <1>   0.1500 
 18 H       -1.5080     0.1860     0.1860 H     1 <1>   0.1500 
 19 H       -4.4300    -3.4520     1.7450 H     1 <1>   0.1500 
 20 H       -3.3690    -0.5640    -1.2280 H     1 <1>   0.1500 
 21 H       -5.6770    -4.3500     0.1510 H     1 <1>   0.0800 
 22 H       -6.9050    -3.8130    -0.9250 H     1 <1>   0.0800 
 23 H       -6.8590    -1.4330    -1.8340 H     1 <1>   0.0800 
 24 H       -5.5640    -0.3740    -1.4280 H     1 <1>   0.0800 
 25 H       -6.4680    -2.6780     1.8570 H     1 <1>   0.0800 
 26 H       -7.8050    -3.6580     1.3050 H     1 <1>   0.0800 
 27 H       -7.5520     0.0990    -0.0490 H     1 <1>   0.0800 
 28 H       -6.2590    -0.4800     0.9860 H     1 <1>   0.0800 
@<TRIPOS>BOND
  1   1   2  1   
  2   2   3  ar  
  3   2   4  ar  
  4   3   5  ar  
  5   3  17  1   
  6   4   6  ar  
  7   4  18  1   
  8   5   7  ar  
  9   5  19  1   
 10   6   7  ar  
 11   6  20  1   
 12   7   8  1   
 13   8   9  1   
 14   8  10  1   
 15   8  11  1   
 16   9  12  ar  
 17   9  13  ar  
 18  10  14  1   
 19  10  21  1   
 20  10  22  1   
 21  11  15  1   
 22  11  23  1   
 23  11  24  1   
 24  14  16  1   
 25  14  25  1   
 26  14  26  1   
 27  15  16  1   
 28  15  27  1   
 29  15  28  1   
@<TRIPOS>SUBSTRUCTURE
  1 ****   7 GROUP 4 **** **** 0

# MOE 2024.06 (io_trps.svl 2023.06)
