@<TRIPOS>MOLECULE
5-Cyclohexyl-2H-[1,2,4]triazol-3-ylamine
26 27 1 0 0 
SMALL
USER_CHARGES


@<TRIPOS>ATOM
  1 N        0.1880    -0.2470    -0.8910 N.2   1 <1>  -0.3380 
  2 N        1.5290    -0.2350    -0.9140 N.2   1 <1>  -0.3380 
  3 C       -0.1770    -1.1330    -0.0300 C.2   1 <1>   0.0070 
  4 C        1.9230    -1.1240    -0.0670 C.2   1 <1>   0.2700 
  5 N        0.8910    -1.7220     0.5230 N.pl3 1 <1>   0.0330 
  6 C       -1.6080    -1.5070     0.3490 C.3   1 <1>   0.1000 
  7 N        3.2450    -1.4110     0.1870 N.pl3 1 <1>  -0.8840 
  8 C       -2.0090    -2.8300    -0.3250 C.3   1 <1>  -0.1600 
  9 C       -2.6110    -0.3960    -0.0120 C.3   1 <1>  -0.1600 
 10 C       -3.4490    -3.2330     0.0290 C.3   1 <1>  -0.1600 
 11 C       -4.0500    -0.7920     0.3480 C.3   1 <1>  -0.1600 
 12 C       -4.4400    -2.1160    -0.3210 C.3   1 <1>  -0.1600 
 13 H        0.9380    -2.4370     1.2470 H     1 <1>   0.2700 
 14 H       -1.6430    -1.6420     1.4160 H     1 <1>   0.0800 
 15 H        3.5490    -2.2910    -0.2350 H     1 <1>   0.4000 
 16 H        3.8360    -0.6660    -0.1930 H     1 <1>   0.4000 
 17 H       -1.3370    -3.6130    -0.0230 H     1 <1>   0.0800 
 18 H       -1.9240    -2.7170    -1.3920 H     1 <1>   0.0800 
 19 H       -2.3430     0.5100     0.5040 H     1 <1>   0.0800 
 20 H       -2.5550    -0.1960    -1.0690 H     1 <1>   0.0800 
 21 H       -3.7140    -4.1290    -0.5080 H     1 <1>   0.0800 
 22 H       -3.5140    -3.4490     1.0820 H     1 <1>   0.0800 
 23 H       -4.7260    -0.0160     0.0320 H     1 <1>   0.0800 
 24 H       -4.1380    -0.8910     1.4170 H     1 <1>   0.0800 
 25 H       -5.4300    -2.4000    -0.0090 H     1 <1>   0.0800 
 26 H       -4.4590    -1.9800    -1.3900 H     1 <1>   0.0800 
@<TRIPOS>BOND
  1   1   2  1   
  2   1   3  2   
  3   2   4  2   
  4   3   5  1   
  5   3   6  1   
  6   4   5  1   
  7   4   7  1   
  8   5  13  1   
  9   6   8  1   
 10   6   9  1   
 11   6  14  1   
 12   7  15  1   
 13   7  16  1   
 14   8  10  1   
 15   8  17  1   
 16   8  18  1   
 17   9  11  1   
 18   9  19  1   
 19   9  20  1   
 20  10  12  1   
 21  10  21  1   
 22  10  22  1   
 23  11  12  1   
 24  11  23  1   
 25  11  24  1   
 26  12  25  1   
 27  12  26  1   
@<TRIPOS>SUBSTRUCTURE
  1 ****   3 GROUP 4 **** **** 0

# MOE 2024.06 (io_trps.svl 2023.06)
