@<TRIPOS>MOLECULE
2,7,9-Trimethyl-5-(3,4,5-trimethoxy-phenyl)-5,6-dihydro-pyrazolo[1,5-c]quinazoli
53 56 1 0 0 
SMALL
USER_CHARGES


@<TRIPOS>ATOM
  1 O        0.9710    -0.1590    -0.6940 O.3   1 <1>  -0.3630 
  2 C        1.8230     0.8020    -0.2420 C.ar  1 <1>   0.0830 
  3 C        1.2890    -1.4740    -0.3010 C.3   1 <1>   0.0400 
  4 C        3.0750     0.9670    -0.8390 C.ar  1 <1>   0.0830 
  5 C        1.4710     1.6230     0.8360 C.ar  1 <1>   0.0830 
  6 O        3.4720     0.2270    -1.9030 O.3   1 <1>  -0.3630 
  7 C        3.9700     1.8980    -0.3420 C.ar  1 <1>  -0.1500 
  8 O        0.2740     1.5730     1.4800 O.3   1 <1>  -0.3630 
  9 C        2.3800     2.5510     1.3190 C.ar  1 <1>  -0.1500 
 10 C        2.8320     0.5130    -3.1260 C.3   1 <1>   0.0400 
 11 C        3.6340     2.6970     0.7430 C.ar  1 <1>  -0.1430 
 12 C       -0.9120     1.5170     0.7160 C.3   1 <1>   0.0400 
 13 C        4.6220     3.7220     1.2990 C.3   1 <1>   0.6880 
 14 N        4.8850     4.8230     0.3150 N.pl3 1 <1>   0.3140 
 15 N        5.8700     2.9910     1.6960 N.pl3 1 <1>  -0.8690 
 16 N        3.9940     5.7910    -0.0210 N.2   1 <1>  -0.7070 
 17 C        6.0690     4.9810    -0.3250 C.2   1 <1>  -0.2050 
 18 C        7.0310     3.0850     0.9170 C.ar  1 <1>   0.1000 
 19 C        4.6270     6.5290    -0.8770 C.2   1 <1>   0.1080 
 20 C        7.1560     4.0680    -0.0840 C.ar  1 <1>   0.0530 
 21 C        5.9180     6.0800    -1.1090 C.2   1 <1>  -0.1500 
 22 C        8.0760     2.1850     1.1290 C.ar  1 <1>  -0.1430 
 23 C        3.9900     7.7360    -1.5220 C.3   1 <1>  -0.0590 
 24 C        8.3260     4.1260    -0.8310 C.ar  1 <1>  -0.1500 
 25 C        9.2270     2.2670     0.3650 C.ar  1 <1>  -0.1500 
 26 C        7.9760     1.1060     2.2000 C.3   1 <1>  -0.0970 
 27 C        9.3610     3.2350    -0.6160 C.ar  1 <1>  -0.1430 
 28 C       10.6350     3.3040    -1.4380 C.3   1 <1>  -0.0970 
 29 H        2.2500    -1.7400    -0.7040 H     1 <1>   0.0800 
 30 H        1.3070    -1.5180     0.7740 H     1 <1>   0.0800 
 31 H        0.5320    -2.1330    -0.6860 H     1 <1>   0.0800 
 32 H        4.9330     1.9940    -0.8150 H     1 <1>   0.1500 
 33 H        2.0850     3.1620     2.1540 H     1 <1>   0.1500 
 34 H        2.9490     1.5600    -3.3430 H     1 <1>   0.0800 
 35 H        3.2950    -0.0780    -3.8950 H     1 <1>   0.0800 
 36 H        1.7890     0.2610    -3.0480 H     1 <1>   0.0800 
 37 H       -1.7160     1.8990     1.3180 H     1 <1>   0.0800 
 38 H       -1.1100     0.4950     0.4530 H     1 <1>   0.0800 
 39 H       -0.7930     2.1210    -0.1670 H     1 <1>   0.0800 
 40 H        4.2030     4.1800     2.1760 H     1 <1>   0.0800 
 41 H        5.6360     2.0360     1.9730 H     1 <1>   0.4000 
 42 H        6.6350     6.5270    -1.7710 H     1 <1>   0.1500 
 43 H        3.1160     7.4300    -2.0670 H     1 <1>   0.0800 
 44 H        4.6780     8.2110    -2.1960 H     1 <1>   0.0800 
 45 H        3.6990     8.4370    -0.7610 H     1 <1>   0.0800 
 46 H        8.4190     4.8780    -1.5910 H     1 <1>   0.1500 
 47 H       10.0330     1.5740     0.5290 H     1 <1>   0.1500 
 48 H        7.2010     0.4070     1.9440 H     1 <1>   0.0800 
 49 H        7.7480     1.5550     3.1500 H     1 <1>   0.0800 
 50 H        8.9020     0.5680     2.2950 H     1 <1>   0.0800 
 51 H       10.6070     4.1310    -2.1240 H     1 <1>   0.0800 
 52 H       10.7550     2.3960    -2.0010 H     1 <1>   0.0800 
 53 H       11.4830     3.4260    -0.7890 H     1 <1>   0.0800 
@<TRIPOS>BOND
  1   1   2  1   
  2   1   3  1   
  3   2   4  ar  
  4   2   5  ar  
  5   3  29  1   
  6   3  30  1   
  7   3  31  1   
  8   4   6  1   
  9   4   7  ar  
 10   5   8  1   
 11   5   9  ar  
 12   6  10  1   
 13   7  11  ar  
 14   7  32  1   
 15   8  12  1   
 16   9  11  ar  
 17   9  33  1   
 18  10  34  1   
 19  10  35  1   
 20  10  36  1   
 21  11  13  1   
 22  12  37  1   
 23  12  38  1   
 24  12  39  1   
 25  13  14  1   
 26  13  15  1   
 27  13  40  1   
 28  14  16  1   
 29  14  17  1   
 30  15  18  1   
 31  15  41  1   
 32  16  19  2   
 33  17  20  1   
 34  17  21  2   
 35  18  20  ar  
 36  18  22  ar  
 37  19  21  1   
 38  19  23  1   
 39  20  24  ar  
 40  21  42  1   
 41  22  25  ar  
 42  22  26  1   
 43  23  43  1   
 44  23  44  1   
 45  23  45  1   
 46  24  27  ar  
 47  24  46  1   
 48  25  27  ar  
 49  25  47  1   
 50  26  48  1   
 51  26  49  1   
 52  26  50  1   
 53  27  28  1   
 54  28  51  1   
 55  28  52  1   
 56  28  53  1   
@<TRIPOS>SUBSTRUCTURE
  1 ****   7 GROUP 4 **** **** 0

# MOE 2024.06 (io_trps.svl 2023.06)
