@<TRIPOS>MOLECULE
1-(2-Amino-ethyl)-piperidin-2-one
25 25 1 0 0 
SMALL
USER_CHARGES


@<TRIPOS>ATOM
  1 O        0.5650    -1.3070     0.9450 O.2   1 <1>  -0.5700 
  2 C       -0.4080    -1.8460     0.4700 C.2   1 <1>   0.5690 
  3 N       -0.2640    -2.9120    -0.3840 N.am  1 <1>  -0.6600 
  4 C       -1.7760    -1.3460     0.9060 C.3   1 <1>  -0.0990 
  5 C       -1.4350    -3.6270    -0.9800 C.3   1 <1>   0.1400 
  6 C        1.0490    -3.2310    -1.0340 C.3   1 <1>   0.1400 
  7 C       -2.9300    -1.8820     0.0510 C.3   1 <1>  -0.1600 
  8 C       -2.7280    -3.3770    -0.2000 C.3   1 <1>  -0.1600 
  9 C        1.9710    -4.0590    -0.1160 C.3   1 <1>   0.3430 
 10 N        2.4170    -3.2700     1.0630 N.4   1 <1>  -0.8530 
 11 H       -1.7800    -0.2720     0.8820 H     1 <1>   0.0800 
 12 H       -1.9240    -1.6490     1.9260 H     1 <1>   0.0800 
 13 H       -1.2410    -4.6860    -1.0060 H     1 <1>   0.0800 
 14 H       -1.5670    -3.2860    -1.9940 H     1 <1>   0.0800 
 15 H        1.5420    -2.3150    -1.3160 H     1 <1>   0.0800 
 16 H        0.8720    -3.7860    -1.9390 H     1 <1>   0.0800 
 17 H       -2.9550    -1.3590    -0.8910 H     1 <1>   0.0800 
 18 H       -3.8680    -1.7100     0.5520 H     1 <1>   0.0800 
 19 H       -2.6960    -3.9080     0.7360 H     1 <1>   0.0800 
 20 H       -3.5590    -3.7640    -0.7640 H     1 <1>   0.0800 
 21 H        2.8310    -4.3930    -0.6740 H     1 <1>   0.0800 
 22 H        1.4260    -4.9300     0.2100 H     1 <1>   0.0800 
 23 H        3.2150    -2.6660     0.8470 H     1 <1>   0.4500 
 24 H        2.6270    -3.8440     1.8840 H     1 <1>   0.4500 
 25 H        1.6490    -2.6130     1.3100 H     1 <1>   0.4500 
@<TRIPOS>BOND
  1   1   2  2   
  2   2   3  am  
  3   2   4  1   
  4   3   5  1   
  5   3   6  1   
  6   4   7  1   
  7   4  11  1   
  8   4  12  1   
  9   5   8  1   
 10   5  13  1   
 11   5  14  1   
 12   6   9  1   
 13   6  15  1   
 14   6  16  1   
 15   7   8  1   
 16   7  17  1   
 17   7  18  1   
 18   8  19  1   
 19   8  20  1   
 20   9  10  1   
 21   9  21  1   
 22   9  22  1   
 23  10  23  1   
 24  10  24  1   
 25  10  25  1   
@<TRIPOS>SUBSTRUCTURE
  1 ****   3 GROUP 4 **** **** 0

# MOE 2024.06 (io_trps.svl 2023.06)
