@<TRIPOS>MOLECULE
1-Ethyl-4-(4-methoxy-3-methyl-benzenesulfonyl)-piperazine
43 44 1 0 0 
SMALL
USER_CHARGES


@<TRIPOS>ATOM
  1 S        0.0550    -0.0810     1.1760 S.o2  1 <1>   1.4470 
  2 O        0.1160    -1.4270     0.6540 O.2   1 <1>  -0.6500 
  3 O        0.2480     0.1580     2.5890 O.2   1 <1>  -0.6500 
  4 N        1.3340     0.7490     0.4250 N.am  1 <1>  -0.8490 
  5 C       -1.4140     0.7780     0.5520 C.ar  1 <1>  -0.0090 
  6 C        1.5030     2.1220     0.9480 C.3   1 <1>   0.1960 
  7 C        2.5960    -0.0110     0.5690 C.3   1 <1>   0.1960 
  8 C       -2.1340     1.6520     1.3590 C.ar  1 <1>  -0.1500 
  9 C       -1.8360     0.6090    -0.7610 C.ar  1 <1>  -0.1500 
 10 C        2.6380     2.8930     0.2250 C.3   1 <1>   0.3430 
 11 C        3.8250     0.7340    -0.0080 C.3   1 <1>   0.3430 
 12 C       -3.2320     2.3470     0.8790 C.ar  1 <1>  -0.1440 
 13 C       -2.9310     1.2920    -1.2570 C.ar  1 <1>  -0.1500 
 14 N        3.4320     2.0110    -0.7030 N.4   1 <1>  -0.9590 
 15 C       -3.6360     2.1710    -0.4400 C.ar  1 <1>   0.0830 
 16 C       -3.9920     3.2920     1.8000 C.3   1 <1>  -0.0970 
 17 C        4.5600     2.7340    -1.3440 C.3   1 <1>   0.3430 
 18 O       -4.7150     2.8730    -0.8710 O.3   1 <1>  -0.3620 
 19 C        5.0700     1.9350    -2.5370 C.3   1 <1>  -0.2400 
 20 C       -5.2490     2.7030    -2.1650 C.3   1 <1>   0.0400 
 21 H        1.7250     2.0900     2.0030 H     1 <1>   0.0800 
 22 H        0.5860     2.6740     0.8320 H     1 <1>   0.0800 
 23 H        2.5010    -0.9560     0.0590 H     1 <1>   0.0800 
 24 H        2.7760    -0.2320     1.6100 H     1 <1>   0.0800 
 25 H       -1.8300     1.7870     2.3830 H     1 <1>   0.1500 
 26 H       -1.3000    -0.0710    -1.4020 H     1 <1>   0.1500 
 27 H        3.2880     3.3270     0.9670 H     1 <1>   0.0800 
 28 H        2.2010     3.7030    -0.3350 H     1 <1>   0.0800 
 29 H        4.3320     0.0780    -0.6960 H     1 <1>   0.0800 
 30 H        4.5090     0.9520     0.7950 H     1 <1>   0.0800 
 31 H       -3.2200     1.1270    -2.2780 H     1 <1>   0.1500 
 32 H        2.7610     1.7200    -1.4310 H     1 <1>   0.4500 
 33 H       -3.5600     3.3160     2.7830 H     1 <1>   0.0800 
 34 H       -5.0150     2.9720     1.8820 H     1 <1>   0.0800 
 35 H       -3.9780     4.2880     1.3930 H     1 <1>   0.0800 
 36 H        5.3560     2.8920    -0.6340 H     1 <1>   0.0800 
 37 H        4.2210     3.6980    -1.6920 H     1 <1>   0.0800 
 38 H        5.5140     1.0050    -2.2300 H     1 <1>   0.0800 
 39 H        5.8300     2.5050    -3.0420 H     1 <1>   0.0800 
 40 H        4.2790     1.7460    -3.2400 H     1 <1>   0.0800 
 41 H       -6.1100     3.3400    -2.2570 H     1 <1>   0.0800 
 42 H       -5.5400     1.6750    -2.2900 H     1 <1>   0.0800 
 43 H       -4.5060     2.9870    -2.8890 H     1 <1>   0.0800 
@<TRIPOS>BOND
  1   1   2  2   
  2   1   3  2   
  3   1   4  am  
  4   1   5  1   
  5   4   6  1   
  6   4   7  1   
  7   5   8  ar  
  8   5   9  ar  
  9   6  10  1   
 10   6  21  1   
 11   6  22  1   
 12   7  11  1   
 13   7  23  1   
 14   7  24  1   
 15   8  12  ar  
 16   8  25  1   
 17   9  13  ar  
 18   9  26  1   
 19  10  14  1   
 20  10  27  1   
 21  10  28  1   
 22  11  14  1   
 23  11  29  1   
 24  11  30  1   
 25  12  15  ar  
 26  12  16  1   
 27  13  15  ar  
 28  13  31  1   
 29  14  17  1   
 30  14  32  1   
 31  15  18  1   
 32  16  33  1   
 33  16  34  1   
 34  16  35  1   
 35  17  19  1   
 36  17  36  1   
 37  17  37  1   
 38  18  20  1   
 39  19  38  1   
 40  19  39  1   
 41  19  40  1   
 42  20  41  1   
 43  20  42  1   
 44  20  43  1   
@<TRIPOS>SUBSTRUCTURE
  1 ****   5 GROUP 4 **** **** 0

# MOE 2024.06 (io_trps.svl 2023.06)
