@<TRIPOS>MOLECULE
3-Dimethylaminomethyl-4-methoxy-benzaldehyde
30 30 1 0 0 
SMALL
USER_CHARGES


@<TRIPOS>ATOM
  1 O        0.1060     0.1300    -0.1770 O.2   1 <1>  -0.5700 
  2 C       -0.8590     0.7200    -0.5890 C.2   1 <1>   0.4240 
  3 C       -1.1360     2.1160    -0.3620 C.ar  1 <1>   0.0860 
  4 C       -2.3100     2.7120    -0.8280 C.ar  1 <1>  -0.1500 
  5 C       -0.2400     2.9280     0.3330 C.ar  1 <1>  -0.1500 
  6 C       -2.5820     4.0540    -0.6130 C.ar  1 <1>  -0.1440 
  7 C       -0.4930     4.2670     0.5520 C.ar  1 <1>  -0.1500 
  8 C       -1.6690     4.8440     0.0800 C.ar  1 <1>   0.0830 
  9 C       -3.8680     4.6710    -1.1400 C.3   1 <1>   0.4870 
 10 O       -1.9740     6.1510     0.2670 O.3   1 <1>  -0.3630 
 11 N       -4.6460     5.2220     0.0030 N.4   1 <1>  -0.9590 
 12 C       -1.0370     7.0640     0.8050 C.3   1 <1>   0.0400 
 13 C       -5.1070     4.1590     0.9480 C.3   1 <1>   0.2630 
 14 C       -5.7670     6.0940    -0.4540 C.3   1 <1>   0.2630 
 15 H       -1.5750     0.1660    -1.1690 H     1 <1>   0.0600 
 16 H       -3.0110     2.0990    -1.3700 H     1 <1>   0.1500 
 17 H        0.6750     2.4920     0.7030 H     1 <1>   0.1500 
 18 H        0.2370     4.8410     1.0940 H     1 <1>   0.1500 
 19 H       -4.4490     3.9340    -1.6680 H     1 <1>   0.0800 
 20 H       -3.6140     5.4640    -1.8240 H     1 <1>   0.0800 
 21 H       -3.9450     5.8060     0.4990 H     1 <1>   0.4500 
 22 H       -1.4720     8.0480     0.7900 H     1 <1>   0.0800 
 23 H       -0.1470     7.0530     0.1990 H     1 <1>   0.0800 
 24 H       -0.8100     6.7830     1.8190 H     1 <1>   0.0800 
 25 H       -5.7970     3.4920     0.4570 H     1 <1>   0.0800 
 26 H       -5.6000     4.6040     1.7970 H     1 <1>   0.0800 
 27 H       -4.2650     3.5870     1.3050 H     1 <1>   0.0800 
 28 H       -6.4910     5.5170    -1.0060 H     1 <1>   0.0800 
 29 H       -5.3940     6.8820    -1.0870 H     1 <1>   0.0800 
 30 H       -6.2590     6.5430     0.3950 H     1 <1>   0.0800 
@<TRIPOS>BOND
  1   1   2  2   
  2   2   3  1   
  3   2  15  1   
  4   3   4  ar  
  5   3   5  ar  
  6   4   6  ar  
  7   4  16  1   
  8   5   7  ar  
  9   5  17  1   
 10   6   8  ar  
 11   6   9  1   
 12   7   8  ar  
 13   7  18  1   
 14   8  10  1   
 15   9  11  1   
 16   9  19  1   
 17   9  20  1   
 18  10  12  1   
 19  11  13  1   
 20  11  14  1   
 21  11  21  1   
 22  12  22  1   
 23  12  23  1   
 24  12  24  1   
 25  13  25  1   
 26  13  26  1   
 27  13  27  1   
 28  14  28  1   
 29  14  29  1   
 30  14  30  1   
@<TRIPOS>SUBSTRUCTURE
  1 ****   6 GROUP 4 **** **** 0

# MOE 2024.06 (io_trps.svl 2023.06)
