@<TRIPOS>MOLECULE
2-(2,4-Dioxo-thiazolidin-3-yl)-N-(4-ethyl-phenyl)-acetamide
33 34 1 0 0 
SMALL
USER_CHARGES


@<TRIPOS>ATOM
  1 S        0.0960    -0.1450     0.6390 S.3   1 <1>  -0.3710 
  2 C       -1.2360    -1.2050     1.1040 C.2   1 <1>   0.7710 
  3 C        0.8700    -1.3910    -0.4720 C.3   1 <1>   0.1310 
  4 O       -2.0820    -0.8340     1.8780 O.2   1 <1>  -0.5700 
  5 N       -1.1190    -2.4220     0.5020 N.am  1 <1>  -0.4200 
  6 C       -0.0430    -2.5980    -0.3260 C.2   1 <1>   0.5690 
  7 C       -2.2030    -3.4370     0.5950 C.3   1 <1>   0.2010 
  8 O        0.1910    -3.6300    -0.9020 O.2   1 <1>  -0.5700 
  9 C       -3.0190    -3.5200    -0.6980 C.2   1 <1>   0.5690 
 10 O       -3.3250    -2.5040    -1.2720 O.2   1 <1>  -0.5700 
 11 N       -3.4270    -4.7160    -1.1990 N.am  1 <1>  -0.5470 
 12 C       -3.1460    -6.0080    -0.7500 C.ar  1 <1>   0.1170 
 13 C       -1.8530    -6.5120    -0.7940 C.ar  1 <1>  -0.1500 
 14 C       -4.1650    -6.8110    -0.2580 C.ar  1 <1>  -0.1500 
 15 C       -1.5810    -7.7890    -0.3400 C.ar  1 <1>  -0.1500 
 16 C       -3.8940    -8.0900     0.1950 C.ar  1 <1>  -0.1500 
 17 C       -2.6000    -8.5860     0.1600 C.ar  1 <1>  -0.1430 
 18 C       -2.3010    -9.9920     0.6570 C.3   1 <1>  -0.0170 
 19 C       -2.4250   -11.0030    -0.4850 C.3   1 <1>  -0.2400 
 20 H        1.8650    -1.5930    -0.1220 H     1 <1>   0.0800 
 21 H        0.8670    -1.0050    -1.4740 H     1 <1>   0.0800 
 22 H       -2.8710    -3.1840     1.3980 H     1 <1>   0.0800 
 23 H       -1.7630    -4.3900     0.8200 H     1 <1>   0.0800 
 24 H       -4.0120    -4.6330    -2.0320 H     1 <1>   0.3700 
 25 H       -1.0570    -5.9050    -1.1890 H     1 <1>   0.1500 
 26 H       -5.1710    -6.4350    -0.2270 H     1 <1>   0.1500 
 27 H       -0.5730    -8.1640    -0.3810 H     1 <1>   0.1500 
 28 H       -4.6940    -8.7010     0.5740 H     1 <1>   0.1500 
 29 H       -2.9860   -10.2520     1.4450 H     1 <1>   0.0800 
 30 H       -1.3060   -10.0290     1.0650 H     1 <1>   0.0800 
 31 H       -3.4220   -10.9850    -0.8890 H     1 <1>   0.0800 
 32 H       -2.2130   -11.9940    -0.1280 H     1 <1>   0.0800 
 33 H       -1.7310   -10.7610    -1.2710 H     1 <1>   0.0800 
@<TRIPOS>BOND
  1   1   2  1   
  2   1   3  1   
  3   2   4  2   
  4   2   5  am  
  5   3   6  1   
  6   3  20  1   
  7   3  21  1   
  8   5   6  am  
  9   5   7  1   
 10   6   8  2   
 11   7   9  1   
 12   7  22  1   
 13   7  23  1   
 14   9  10  2   
 15   9  11  am  
 16  11  12  1   
 17  11  24  1   
 18  12  13  ar  
 19  12  14  ar  
 20  13  15  ar  
 21  13  25  1   
 22  14  16  ar  
 23  14  26  1   
 24  15  17  ar  
 25  15  27  1   
 26  16  17  ar  
 27  16  28  1   
 28  17  18  1   
 29  18  19  1   
 30  18  29  1   
 31  18  30  1   
 32  19  31  1   
 33  19  32  1   
 34  19  33  1   
@<TRIPOS>SUBSTRUCTURE
  1 ****   7 GROUP 4 **** **** 0

# MOE 2024.06 (io_trps.svl 2023.06)
