@<TRIPOS>MOLECULE
5-Oxo-1-p-tolyl-pyrrolidine-3-carboxylic acid amide
30 31 1 0 0 
SMALL
USER_CHARGES


@<TRIPOS>ATOM
  1 O        0.5130     0.1040    -0.2780 O.2   1 <1>  -0.5700 
  2 C        1.7000     0.2690    -0.1390 C.2   1 <1>   0.5690 
  3 N        2.6540    -0.6930     0.0430 N.am  1 <1>  -0.4770 
  4 C        2.3080     1.6430    -0.1720 C.3   1 <1>  -0.0990 
  5 C        2.4960    -2.0930     0.0860 C.ar  1 <1>   0.1170 
  6 C        3.9910    -0.0740     0.1580 C.3   1 <1>   0.1400 
  7 C        3.8000     1.3500    -0.3790 C.3   1 <1>  -0.0190 
  8 C        3.2970    -2.8770     0.9120 C.ar  1 <1>  -0.1500 
  9 C        1.5470    -2.7360    -0.7020 C.ar  1 <1>  -0.1500 
 10 C        4.7110     2.3730     0.2760 C.2   1 <1>   0.5690 
 11 C        3.1610    -4.2540     0.9400 C.ar  1 <1>  -0.1500 
 12 C        1.4080    -4.1120    -0.6750 C.ar  1 <1>  -0.1500 
 13 O        4.9890     2.2820     1.4420 O.2   1 <1>  -0.5700 
 14 N        5.2010     3.3920    -0.4520 N.am  1 <1>  -0.8000 
 15 C        2.2170    -4.8810     0.1450 C.ar  1 <1>  -0.1430 
 16 C        2.0630    -6.3910     0.1750 C.3   1 <1>  -0.0970 
 17 H        2.1290     2.1200     0.7750 H     1 <1>   0.0800 
 18 H        1.8950     2.2320    -0.9690 H     1 <1>   0.0800 
 19 H        4.7180    -0.6200    -0.4190 H     1 <1>   0.0800 
 20 H        4.2800    -0.0660     1.1960 H     1 <1>   0.0800 
 21 H        4.0040     1.3250    -1.4350 H     1 <1>   0.0800 
 22 H        4.0280    -2.4140     1.5460 H     1 <1>   0.1500 
 23 H        0.9090    -2.1550    -1.3430 H     1 <1>   0.1500 
 24 H        3.7930    -4.8360     1.5880 H     1 <1>   0.1500 
 25 H        0.6630    -4.5800    -1.2940 H     1 <1>   0.1500 
 26 H        5.8040     4.0800     0.0040 H     1 <1>   0.3700 
 27 H        4.9980     3.5540    -1.4380 H     1 <1>   0.3700 
 28 H        2.9980    -6.8600     0.4270 H     1 <1>   0.0800 
 29 H        1.7490    -6.7550    -0.7860 H     1 <1>   0.0800 
 30 H        1.3270    -6.6650     0.9090 H     1 <1>   0.0800 
@<TRIPOS>BOND
  1   1   2  2   
  2   2   3  am  
  3   2   4  1   
  4   3   5  1   
  5   3   6  1   
  6   4   7  1   
  7   4  17  1   
  8   4  18  1   
  9   5   8  ar  
 10   5   9  ar  
 11   6   7  1   
 12   6  19  1   
 13   6  20  1   
 14   7  10  1   
 15   7  21  1   
 16   8  11  ar  
 17   8  22  1   
 18   9  12  ar  
 19   9  23  1   
 20  10  13  2   
 21  10  14  am  
 22  11  15  ar  
 23  11  24  1   
 24  12  15  ar  
 25  12  25  1   
 26  14  26  1   
 27  14  27  1   
 28  15  16  1   
 29  16  28  1   
 30  16  29  1   
 31  16  30  1   
@<TRIPOS>SUBSTRUCTURE
  1 ****   3 GROUP 4 **** **** 0

# MOE 2024.06 (io_trps.svl 2023.06)
