@<TRIPOS>MOLECULE
NONAME
28 30 1 0 0 
SMALL
USER_CHARGES


@<TRIPOS>ATOM
  1 O       -0.7470     0.0350     0.5510 O.2   1 <1>  -0.5700 
  2 C       -1.9170     0.0570     0.2240 C.2   1 <1>   0.5690 
  3 N       -2.6820    -1.0420    -0.1210 N.am  1 <1>  -0.2370 
  4 C       -2.7690     1.3460     0.1220 C.3   1 <1>   0.7650 
  5 C       -3.9800    -0.5880    -0.4570 C.ar  1 <1>   0.1170 
  6 C       -2.2350    -2.3520    -0.1910 C.2   1 <1>   0.5690 
  7 O       -2.2820     2.2940    -0.7800 O.3   1 <1>  -0.5600 
  8 O       -2.9040     2.0430     1.3240 O.3   1 <1>  -0.5600 
  9 C       -4.0920     0.7850    -0.3350 C.ar  1 <1>  -0.1440 
 10 C       -5.0920    -1.3200    -0.8590 C.ar  1 <1>  -0.1500 
 11 O       -2.7510    -3.1750    -0.9020 O.2   1 <1>  -0.5700 
 12 C       -1.0700    -2.8240     0.6570 C.3   1 <1>  -0.1790 
 13 C       -1.4500     3.1430    -0.0740 C.3   1 <1>   0.1200 
 14 C       -1.8810     2.9730     1.3770 C.3   1 <1>   0.1200 
 15 C       -5.2750     1.4480    -0.6080 C.ar  1 <1>  -0.1500 
 16 C       -6.2830    -0.6680    -1.1350 C.ar  1 <1>  -0.1500 
 17 C       -6.3760     0.7110    -1.0110 C.ar  1 <1>  -0.1500 
 18 H       -5.0420    -2.3900    -0.9590 H     1 <1>   0.1500 
 19 H       -1.1370    -2.4150     1.6470 H     1 <1>   0.0800 
 20 H       -0.1450    -2.5190     0.2040 H     1 <1>   0.0800 
 21 H       -1.0810    -3.8960     0.7260 H     1 <1>   0.0800 
 22 H       -1.5910     4.1500    -0.4260 H     1 <1>   0.0800 
 23 H       -0.4270     2.8370    -0.2190 H     1 <1>   0.0800 
 24 H       -1.0800     2.5840     1.9820 H     1 <1>   0.0800 
 25 H       -2.2580     3.8880     1.8000 H     1 <1>   0.0800 
 26 H       -5.3330     2.5180    -0.5060 H     1 <1>   0.1500 
 27 H       -7.1430    -1.2350    -1.4480 H     1 <1>   0.1500 
 28 H       -7.3050     1.2090    -1.2290 H     1 <1>   0.1500 
@<TRIPOS>BOND
  1   1   2  2   
  2   2   3  am  
  3   2   4  1   
  4   3   5  1   
  5   3   6  am  
  6   4   7  1   
  7   4   8  1   
  8   4   9  1   
  9   5   9  ar  
 10   5  10  ar  
 11   6  11  2   
 12   6  12  1   
 13   7  13  1   
 14   8  14  1   
 15   9  15  ar  
 16  10  16  ar  
 17  10  18  1   
 18  12  19  1   
 19  12  20  1   
 20  12  21  1   
 21  13  14  1   
 22  13  22  1   
 23  13  23  1   
 24  14  24  1   
 25  14  25  1   
 26  15  17  ar  
 27  15  26  1   
 28  16  17  ar  
 29  16  27  1   
 30  17  28  1   
@<TRIPOS>SUBSTRUCTURE
  1 ****   9 GROUP 4 **** **** 0

# MOE 2024.06 (io_trps.svl 2023.06)
