@<TRIPOS>MOLECULE
1-(3,5-Dimethyl-phenyl)-5-oxo-pyrrolidine-3-carboxylic acid (2-ethoxy-phenyl)-am
50 52 1 0 0 
SMALL
USER_CHARGES


@<TRIPOS>ATOM
  1 O        0.3490    -0.4490    -0.6380 O.2   1 <1>  -0.5700 
  2 C        1.4440    -0.5630    -0.1450 C.2   1 <1>   0.5690 
  3 N        1.9370    -1.6390     0.5390 N.am  1 <1>  -0.4770 
  4 C        2.4680     0.5320    -0.2530 C.3   1 <1>  -0.0990 
  5 C        1.3150    -2.8760     0.8020 C.ar  1 <1>   0.1170 
  6 C        3.3270    -1.3810     0.9680 C.3   1 <1>   0.1400 
  7 C        3.7730    -0.1850     0.1170 C.3   1 <1>  -0.0190 
  8 C        1.5560    -3.5560     1.9930 C.ar  1 <1>  -0.1500 
  9 C        0.4580    -3.4610    -0.1240 C.ar  1 <1>  -0.1500 
 10 C        4.7780     0.7150     0.8170 C.2   1 <1>   0.5690 
 11 C        0.9700    -4.7840     2.2500 C.ar  1 <1>  -0.1440 
 12 C       -0.1380    -4.6860     0.1190 C.ar  1 <1>  -0.1440 
 13 O        4.6130     0.9640     1.9850 O.2   1 <1>  -0.5700 
 14 N        5.8150     1.1990     0.0720 N.am  1 <1>  -0.5470 
 15 C        0.1260    -5.3460     1.3080 C.ar  1 <1>  -0.1500 
 16 C        1.2410    -5.5180     3.5510 C.3   1 <1>  -0.0970 
 17 C       -1.0710    -5.3060    -0.9040 C.3   1 <1>  -0.0970 
 18 C        6.9100     2.0330     0.3660 C.ar  1 <1>   0.1170 
 19 C        7.8260     2.2890    -0.6620 C.ar  1 <1>   0.0830 
 20 C        7.1240     2.6130     1.6120 C.ar  1 <1>  -0.1500 
 21 O        7.5800     1.7010    -1.8730 O.3   1 <1>  -0.3630 
 22 C        8.9270     3.1080    -0.4290 C.ar  1 <1>  -0.1500 
 23 C        8.2200     3.4260     1.8380 C.ar  1 <1>  -0.1500 
 24 C        8.4540     1.8820    -2.9630 C.3   1 <1>   0.1200 
 25 C        9.1210     3.6730     0.8190 C.ar  1 <1>  -0.1500 
 26 C        7.9040     1.0920    -4.1460 C.3   1 <1>  -0.2400 
 27 H        2.2250     1.3000     0.4590 H     1 <1>   0.0800 
 28 H        2.4960     0.9420    -1.2450 H     1 <1>   0.0800 
 29 H        3.9480    -2.2430     0.7950 H     1 <1>   0.0800 
 30 H        3.3250    -1.1380     2.0170 H     1 <1>   0.0800 
 31 H        4.2140    -0.5800    -0.7810 H     1 <1>   0.0800 
 32 H        2.2020    -3.1170     2.7280 H     1 <1>   0.1500 
 33 H        0.2570    -2.9460    -1.0460 H     1 <1>   0.1500 
 34 H        5.8400     0.9120    -0.9080 H     1 <1>   0.3700 
 35 H       -0.3320    -6.3000     1.5010 H     1 <1>   0.1500 
 36 H        1.7460    -4.8810     4.2540 H     1 <1>   0.0800 
 37 H        1.8560    -6.3790     3.3620 H     1 <1>   0.0800 
 38 H        0.3140    -5.8410     3.9900 H     1 <1>   0.0800 
 39 H       -1.4340    -4.5600    -1.5880 H     1 <1>   0.0800 
 40 H       -1.9160    -5.7530    -0.4120 H     1 <1>   0.0800 
 41 H       -0.5500    -6.0630    -1.4610 H     1 <1>   0.0800 
 42 H        6.4380     2.4380     2.4190 H     1 <1>   0.1500 
 43 H        9.6440     3.3210    -1.1970 H     1 <1>   0.1500 
 44 H        8.3700     3.8650     2.8090 H     1 <1>   0.1500 
 45 H        9.4290     1.5190    -2.6840 H     1 <1>   0.0800 
 46 H        8.4980     2.9320    -3.1960 H     1 <1>   0.0800 
 47 H        9.9730     4.3070     0.9990 H     1 <1>   0.1500 
 48 H        7.8500     0.0460    -3.9020 H     1 <1>   0.0800 
 49 H        8.5530     1.2110    -4.9950 H     1 <1>   0.0800 
 50 H        6.9260     1.4530    -4.4110 H     1 <1>   0.0800 
@<TRIPOS>BOND
  1   1   2  2   
  2   2   3  am  
  3   2   4  1   
  4   3   5  1   
  5   3   6  1   
  6   4   7  1   
  7   4  27  1   
  8   4  28  1   
  9   5   8  ar  
 10   5   9  ar  
 11   6   7  1   
 12   6  29  1   
 13   6  30  1   
 14   7  10  1   
 15   7  31  1   
 16   8  11  ar  
 17   8  32  1   
 18   9  12  ar  
 19   9  33  1   
 20  10  13  2   
 21  10  14  am  
 22  11  15  ar  
 23  11  16  1   
 24  12  15  ar  
 25  12  17  1   
 26  14  18  1   
 27  14  34  1   
 28  15  35  1   
 29  16  36  1   
 30  16  37  1   
 31  16  38  1   
 32  17  39  1   
 33  17  40  1   
 34  17  41  1   
 35  18  19  ar  
 36  18  20  ar  
 37  19  21  1   
 38  19  22  ar  
 39  20  23  ar  
 40  20  42  1   
 41  21  24  1   
 42  22  25  ar  
 43  22  43  1   
 44  23  25  ar  
 45  23  44  1   
 46  24  26  1   
 47  24  45  1   
 48  24  46  1   
 49  25  47  1   
 50  26  48  1   
 51  26  49  1   
 52  26  50  1   
@<TRIPOS>SUBSTRUCTURE
  1 ****   7 GROUP 4 **** **** 0

# MOE 2024.06 (io_trps.svl 2023.06)
