@<TRIPOS>MOLECULE
4-Chloro-N-(1-isopropyl-2-methyl-propyl)-3-(morpholine-4-sulfonyl)-benzamide
53 54 1 0 0 
SMALL
USER_CHARGES


@<TRIPOS>ATOM
  1 CL       0.6930    -0.9710     3.3630 Cl    1 <1>  -0.1770 
  2 C        1.8370    -1.6300     2.2230 C.ar  1 <1>   0.1770 
  3 C        1.5030    -2.6430     1.3340 C.ar  1 <1>  -0.0090 
  4 C        3.1030    -1.0720     2.2420 C.ar  1 <1>  -0.1500 
  5 S       -0.1420    -3.4010     1.2500 S.o2  1 <1>   1.4470 
  6 C        2.4930    -3.0570     0.4490 C.ar  1 <1>  -0.1500 
  7 C        4.0650    -1.5140     1.3560 C.ar  1 <1>  -0.1500 
  8 O        0.0100    -4.7180     0.6710 O.2   1 <1>  -0.6500 
  9 O       -0.8850    -3.2880     2.4840 O.2   1 <1>  -0.6500 
 10 N       -0.9450    -2.4600     0.0900 N.am  1 <1>  -0.8490 
 11 C        3.7800    -2.5210     0.4350 C.ar  1 <1>   0.0860 
 12 C       -1.4320    -1.1750     0.6210 C.3   1 <1>   0.1960 
 13 C       -2.0730    -3.1920    -0.5110 C.3   1 <1>   0.1960 
 14 C        4.7730    -2.9940    -0.5120 C.2   1 <1>   0.5440 
 15 C       -2.1690    -0.3680    -0.4630 C.3   1 <1>   0.1200 
 16 C       -2.7990    -2.3340    -1.5630 C.3   1 <1>   0.1200 
 17 O        4.4380    -3.3620    -1.6200 O.2   1 <1>  -0.5700 
 18 N        6.0910    -3.0380    -0.1650 N.am  1 <1>  -0.7300 
 19 O       -3.2150    -1.1180    -1.0090 O.3   1 <1>  -0.5600 
 20 C        7.2060    -3.4780    -1.0350 C.3   1 <1>   0.2200 
 21 C        7.8390    -4.7870    -0.4870 C.3   1 <1>  -0.0800 
 22 C        8.2060    -2.3140    -1.2720 C.3   1 <1>  -0.0800 
 23 C        7.0570    -6.0040    -1.0070 C.3   1 <1>  -0.2400 
 24 C        7.9230    -4.8960     1.0510 C.3   1 <1>  -0.2400 
 25 C        8.9390    -1.8070    -0.0180 C.3   1 <1>  -0.2400 
 26 C        7.5150    -1.1290    -1.9660 C.3   1 <1>  -0.2400 
 27 H        3.3270    -0.2900     2.9480 H     1 <1>   0.1500 
 28 H        2.2620    -3.8310    -0.2680 H     1 <1>   0.1500 
 29 H        5.0430    -1.0650     1.3680 H     1 <1>   0.1500 
 30 H       -0.6020    -0.5910     0.9760 H     1 <1>   0.0800 
 31 H       -2.1040    -1.3400     1.4480 H     1 <1>   0.0800 
 32 H       -2.7730    -3.4840     0.2540 H     1 <1>   0.0800 
 33 H       -1.7120    -4.0860    -0.9900 H     1 <1>   0.0800 
 34 H       -1.4930    -0.0920    -1.2540 H     1 <1>   0.0800 
 35 H       -2.5920     0.5250    -0.0390 H     1 <1>   0.0800 
 36 H       -3.6730    -2.8480    -1.9230 H     1 <1>   0.0800 
 37 H       -2.1480    -2.1290    -2.3950 H     1 <1>   0.0800 
 38 H        6.3710    -2.8560     0.7960 H     1 <1>   0.3700 
 39 H        6.8010    -3.7090    -2.0070 H     1 <1>   0.0800 
 40 H        8.8360    -4.8630    -0.8860 H     1 <1>   0.0800 
 41 H        8.9550    -2.6790    -1.9540 H     1 <1>   0.0800 
 42 H        6.0360    -5.9700    -0.6660 H     1 <1>   0.0800 
 43 H        7.5060    -6.9190    -0.6630 H     1 <1>   0.0800 
 44 H        7.0520    -6.0160    -2.0830 H     1 <1>   0.0800 
 45 H        6.9400    -4.9710     1.4820 H     1 <1>   0.0800 
 46 H        8.4230    -4.0540     1.4860 H     1 <1>   0.0800 
 47 H        8.4710    -5.7800     1.3230 H     1 <1>   0.0800 
 48 H        8.2420    -1.5240     0.7490 H     1 <1>   0.0800 
 49 H        9.5390    -0.9490    -0.2630 H     1 <1>   0.0800 
 50 H        9.6020    -2.5620     0.3620 H     1 <1>   0.0800 
 51 H        6.7940    -0.6680    -1.3140 H     1 <1>   0.0800 
 52 H        7.0030    -1.4630    -2.8520 H     1 <1>   0.0800 
 53 H        8.2380    -0.3870    -2.2550 H     1 <1>   0.0800 
@<TRIPOS>BOND
  1   1   2  1   
  2   2   3  ar  
  3   2   4  ar  
  4   3   5  1   
  5   3   6  ar  
  6   4   7  ar  
  7   4  27  1   
  8   5   8  2   
  9   5   9  2   
 10   5  10  am  
 11   6  11  ar  
 12   6  28  1   
 13   7  11  ar  
 14   7  29  1   
 15  10  12  1   
 16  10  13  1   
 17  11  14  1   
 18  12  15  1   
 19  12  30  1   
 20  12  31  1   
 21  13  16  1   
 22  13  32  1   
 23  13  33  1   
 24  14  17  2   
 25  14  18  am  
 26  15  19  1   
 27  15  34  1   
 28  15  35  1   
 29  16  19  1   
 30  16  36  1   
 31  16  37  1   
 32  18  20  1   
 33  18  38  1   
 34  20  21  1   
 35  20  22  1   
 36  20  39  1   
 37  21  23  1   
 38  21  24  1   
 39  21  40  1   
 40  22  25  1   
 41  22  26  1   
 42  22  41  1   
 43  23  42  1   
 44  23  43  1   
 45  23  44  1   
 46  24  45  1   
 47  24  46  1   
 48  24  47  1   
 49  25  48  1   
 50  25  49  1   
 51  25  50  1   
 52  26  51  1   
 53  26  52  1   
 54  26  53  1   
@<TRIPOS>SUBSTRUCTURE
  1 ****   6 GROUP 4 **** **** 0

# MOE 2024.06 (io_trps.svl 2023.06)
