@<TRIPOS>MOLECULE
7-Benzyl-8-(2-hydroxy-propylamino)-3-methyl-3,7-dihydro-purine-2,6-dione
44 46 1 0 0 
SMALL
USER_CHARGES


@<TRIPOS>ATOM
  1 O        0.8860     0.0190    -0.5570 O.2   1 <1>  -0.5760 
  2 C        1.8930     0.6660    -0.3920 C.2   1 <1>   0.6850 
  3 N        3.1580     0.1000    -0.4520 N.am  1 <1>  -0.4430 
  4 N        1.7710     2.0030    -0.1350 N.am  1 <1>  -0.4960 
  5 C        4.2460     0.9300    -0.2320 C.2   1 <1>   0.4190 
  6 C        3.3500    -1.3530    -0.7260 C.3   1 <1>   0.0510 
  7 C        2.8350     2.8340     0.0720 C.2   1 <1>   0.6980 
  8 N        5.5610     0.6050    -0.2340 N.pl3 1 <1>  -0.7050 
  9 C        4.1430     2.2540     0.0160 C.2   1 <1>   0.2690 
 10 O        2.6380     4.0130     0.2910 O.2   1 <1>  -0.5760 
 11 C        6.2730     1.6960    -0.0090 C.cat 1 <1>   1.0680 
 12 N        5.4550     2.7450     0.1550 N.pl3 1 <1>  -0.7680 
 13 N        7.6040     1.6930     0.0340 N.pl3 1 <1>  -0.7190 
 14 C        5.7150     4.1890     0.4270 C.3   1 <1>   0.4910 
 15 C        8.5370     0.5310     0.1120 C.3   1 <1>   0.1590 
 16 C        7.2070     4.4600     0.4760 C.ar  1 <1>  -0.1520 
 17 C        8.6900    -0.2420    -1.2160 C.3   1 <1>   0.1920 
 18 C        7.8950     4.3650     1.6780 C.ar  1 <1>  -0.1590 
 19 C        7.9020     4.7470    -0.6900 C.ar  1 <1>  -0.1590 
 20 O        7.4880    -0.8370    -1.5660 O.3   1 <1>  -0.6850 
 21 C        9.7160    -1.3650    -1.1040 C.3   1 <1>  -0.2480 
 22 C        9.2670     4.5320     1.7070 C.ar  1 <1>  -0.1590 
 23 C        9.2740     4.9140    -0.6570 C.ar  1 <1>  -0.1590 
 24 C        9.9570     4.8020     0.5400 C.ar  1 <1>  -0.1590 
 25 H        0.8300     2.3880    -0.0990 H     1 <1>   0.3630 
 26 H        2.4190    -1.8180    -1.0020 H     1 <1>   0.0710 
 27 H        3.7280    -1.8420     0.1560 H     1 <1>   0.0710 
 28 H        4.0480    -1.4850    -1.5340 H     1 <1>   0.0710 
 29 H        6.0300    -0.2540    -0.5520 H     1 <1>   0.4440 
 30 H        8.0520     2.6120     0.1630 H     1 <1>   0.4440 
 31 H        5.2620     4.4660     1.3650 H     1 <1>   0.0710 
 32 H        5.2640     4.7880    -0.3470 H     1 <1>   0.0710 
 33 H        8.2070    -0.1480     0.8820 H     1 <1>   0.0710 
 34 H        9.5050     0.8990     0.4060 H     1 <1>   0.0710 
 35 H        8.9770     0.4340    -2.0050 H     1 <1>   0.0710 
 36 H        7.3740     4.1560     2.5990 H     1 <1>   0.1410 
 37 H        7.3880     4.8400    -1.6330 H     1 <1>   0.1410 
 38 H        7.6460    -1.4270    -2.3360 H     1 <1>   0.3930 
 39 H        9.4280    -2.0740    -0.3470 H     1 <1>   0.0710 
 40 H       10.6760    -0.9590    -0.8370 H     1 <1>   0.0710 
 41 H        9.8270    -1.8730    -2.0450 H     1 <1>   0.0710 
 42 H        9.8010     4.4590     2.6410 H     1 <1>   0.1410 
 43 H        9.8140     5.1380    -1.5620 H     1 <1>   0.1410 
 44 H       11.0260     4.9370     0.5650 H     1 <1>   0.1410 
@<TRIPOS>BOND
  1   1   2  2   
  2   2   3  am  
  3   2   4  am  
  4   3   5  1   
  5   3   6  1   
  6   4   7  am  
  7   4  25  1   
  8   5   8  1   
  9   5   9  2   
 10   6  26  1   
 11   6  27  1   
 12   6  28  1   
 13   7   9  1   
 14   7  10  2   
 15   8  11  ar  
 16   8  29  1   
 17   9  12  1   
 18  11  12  ar  
 19  11  13  ar  
 20  12  14  1   
 21  13  15  1   
 22  13  30  1   
 23  14  16  1   
 24  14  31  1   
 25  14  32  1   
 26  15  17  1   
 27  15  33  1   
 28  15  34  1   
 29  16  18  ar  
 30  16  19  ar  
 31  17  20  1   
 32  17  21  1   
 33  17  35  1   
 34  18  22  ar  
 35  18  36  1   
 36  19  23  ar  
 37  19  37  1   
 38  20  38  1   
 39  21  39  1   
 40  21  40  1   
 41  21  41  1   
 42  22  24  ar  
 43  22  42  1   
 44  23  24  ar  
 45  23  43  1   
 46  24  44  1   
@<TRIPOS>SUBSTRUCTURE
  1 ****  11 GROUP 4 **** **** 0

# MOE 2024.06 (io_trps.svl 2023.06)
