@<TRIPOS>MOLECULE
(2,2-Dimethyl-5-morpholin-4-yl-1,4-dihydro-2H-3-oxa-7-thia-6,9,11-triaza-benzo[c
61 65 1 0 0 
SMALL
USER_CHARGES


@<TRIPOS>ATOM
  1 S       -0.8490    -0.6400    -0.0170 S.3   1 <1>  -0.0800 
  2 C       -2.2770     0.3800    -0.2110 C.ar  1 <1>   0.2970 
  3 C        0.2470     0.7470    -0.1700 C.ar  1 <1>   0.0400 
  4 N       -3.4720    -0.1570    -0.2060 N.ar  1 <1>  -0.5670 
  5 C       -1.9180     1.7170    -0.3570 C.ar  1 <1>   0.0000 
  6 C        1.6460     0.7710    -0.1390 C.ar  1 <1>   0.4100 
  7 C       -0.4900     1.8870    -0.3550 C.ar  1 <1>   0.3070 
  8 C       -4.4560     0.7170    -0.3680 C.ar  1 <1>   0.4100 
  9 C       -2.9710     2.6290    -0.4800 C.ar  1 <1>  -0.1430 
 10 N        2.2820     1.9370    -0.3090 N.ar  1 <1>  -0.6200 
 11 N        2.4720    -0.2670     0.0450 N.pl3 1 <1>  -0.8690 
 12 N        0.2170     3.0320    -0.5360 N.ar  1 <1>  -0.1250 
 13 N       -5.7260     0.1980    -0.3930 N.pl3 1 <1>  -0.8380 
 14 C       -4.2460     2.0990    -0.5080 C.ar  1 <1>  -0.1430 
 15 C       -2.7960     4.1420    -0.5880 C.3   1 <1>  -0.0170 
 16 C        1.5710     3.0100    -0.5030 C.ar  1 <1>   0.5210 
 17 C        2.1760    -1.6970     0.2740 C.3   1 <1>   0.2090 
 18 C       -6.2600    -0.2790    -1.7050 C.3   1 <1>   0.2090 
 19 C       -6.1810    -0.6520     0.7520 C.3   1 <1>   0.2090 
 20 C       -5.4730     2.9950    -0.6690 C.3   1 <1>   0.2630 
 21 C       -4.0980     4.9130    -0.2980 C.3   1 <1>   0.2800 
 22 C        3.4920    -2.4420     0.4690 C.3   1 <1>  -0.1600 
 23 C       -6.0930    -1.8020    -1.8630 C.3   1 <1>   0.1200 
 24 C       -6.0360    -2.1550     0.4450 C.3   1 <1>   0.1200 
 25 O       -5.1240     4.3090    -1.0120 O.3   1 <1>  -0.5600 
 26 C       -4.4470     4.9600     1.1990 C.3   1 <1>  -0.2400 
 27 C       -4.0100     6.3410    -0.8350 C.3   1 <1>  -0.2400 
 28 C        3.2440    -3.9290     0.7130 C.3   1 <1>   0.1200 
 29 O       -6.6480    -2.4810    -0.7720 O.3   1 <1>  -0.5600 
 30 O        4.4800    -4.5340     0.8790 O.3   1 <1>  -0.5600 
 31 C        4.4140    -5.9040     1.1120 C.3   1 <1>   0.0400 
 32 H        3.4770    -0.0590     0.0320 H     1 <1>   0.4000 
 33 H       -0.2760     3.9070    -0.7100 H     1 <1>   0.4570 
 34 H       -2.4740     4.3790    -1.5860 H     1 <1>   0.0800 
 35 H       -2.0550     4.4870     0.1080 H     1 <1>   0.0800 
 36 H        2.0950     3.9430    -0.6480 H     1 <1>   0.1500 
 37 H        1.6510    -2.0980    -0.5770 H     1 <1>   0.0800 
 38 H        1.5620    -1.8030     1.1530 H     1 <1>   0.0800 
 39 H       -5.7460     0.2180    -2.5090 H     1 <1>   0.0800 
 40 H       -7.3050    -0.0300    -1.7740 H     1 <1>   0.0800 
 41 H       -7.2130    -0.4350     0.9650 H     1 <1>   0.0800 
 42 H       -5.6060    -0.4140     1.6310 H     1 <1>   0.0800 
 43 H       -6.0480     3.0150     0.2400 H     1 <1>   0.0800 
 44 H       -6.1050     2.6230    -1.4560 H     1 <1>   0.0800 
 45 H        4.0120    -2.0350     1.3180 H     1 <1>   0.0800 
 46 H        4.1000    -2.3340    -0.4110 H     1 <1>   0.0800 
 47 H       -5.0510    -2.0590    -1.9350 H     1 <1>   0.0800 
 48 H       -6.5960    -2.1400    -2.7510 H     1 <1>   0.0800 
 49 H       -6.5050    -2.7380     1.2160 H     1 <1>   0.0800 
 50 H       -4.9960    -2.4260     0.3900 H     1 <1>   0.0800 
 51 H       -4.4340     3.9810     1.6430 H     1 <1>   0.0800 
 52 H       -5.4210     5.3970     1.3370 H     1 <1>   0.0800 
 53 H       -3.7330     5.5660     1.7270 H     1 <1>   0.0800 
 54 H       -3.8310     6.3370    -1.8960 H     1 <1>   0.0800 
 55 H       -3.2170     6.8830    -0.3520 H     1 <1>   0.0800 
 56 H       -4.9340     6.8610    -0.6490 H     1 <1>   0.0800 
 57 H        2.7500    -4.3800    -0.1320 H     1 <1>   0.0800 
 58 H        2.6630    -4.0800     1.6070 H     1 <1>   0.0800 
 59 H        5.4190    -6.2710     1.2250 H     1 <1>   0.0800 
 60 H        3.9450    -6.3860     0.2720 H     1 <1>   0.0800 
 61 H        3.8590    -6.0850     2.0150 H     1 <1>   0.0800 
@<TRIPOS>BOND
  1   1   2  1   
  2   1   3  1   
  3   2   4  ar  
  4   2   5  ar  
  5   3   6  ar  
  6   3   7  ar  
  7   4   8  ar  
  8   5   7  1   
  9   5   9  ar  
 10   6  10  ar  
 11   6  11  1   
 12   7  12  ar  
 13   8  13  1   
 14   8  14  ar  
 15   9  14  ar  
 16   9  15  1   
 17  10  16  ar  
 18  11  17  1   
 19  11  32  1   
 20  12  16  ar  
 21  12  33  1   
 22  13  18  1   
 23  13  19  1   
 24  14  20  1   
 25  15  21  1   
 26  15  34  1   
 27  15  35  1   
 28  16  36  1   
 29  17  22  1   
 30  17  37  1   
 31  17  38  1   
 32  18  23  1   
 33  18  39  1   
 34  18  40  1   
 35  19  24  1   
 36  19  41  1   
 37  19  42  1   
 38  20  25  1   
 39  20  43  1   
 40  20  44  1   
 41  21  25  1   
 42  21  26  1   
 43  21  27  1   
 44  22  28  1   
 45  22  45  1   
 46  22  46  1   
 47  23  29  1   
 48  23  47  1   
 49  23  48  1   
 50  24  29  1   
 51  24  49  1   
 52  24  50  1   
 53  26  51  1   
 54  26  52  1   
 55  26  53  1   
 56  27  54  1   
 57  27  55  1   
 58  27  56  1   
 59  28  30  1   
 60  28  57  1   
 61  28  58  1   
 62  30  31  1   
 63  31  59  1   
 64  31  60  1   
 65  31  61  1   
@<TRIPOS>SUBSTRUCTURE
  1 ****   2 GROUP 4 **** **** 0

# MOE 2024.06 (io_trps.svl 2023.06)
