@<TRIPOS>MOLECULE
1-(2,3-Dihydro-benzofuran-2-ylmethyl)-piperazine
35 37 1 0 0 
SMALL
USER_CHARGES


@<TRIPOS>ATOM
  1 O        0.2540    -0.4000    -0.5250 O.3   1 <1>  -0.3630 
  2 C       -1.0650    -0.6320    -0.4340 C.ar  1 <1>   0.0830 
  3 C        0.9800    -1.5330    -0.0510 C.3   1 <1>   0.2000 
  4 C       -1.3560    -1.8590     0.0990 C.ar  1 <1>  -0.1440 
  5 C       -2.0630     0.2430    -0.8220 C.ar  1 <1>  -0.1500 
  6 C       -0.0720    -2.5640     0.4140 C.3   1 <1>  -0.0170 
  7 C        1.9710    -1.1360     1.0730 C.3   1 <1>   0.1100 
  8 C       -2.6670    -2.2610     0.2660 C.ar  1 <1>  -0.1500 
  9 C       -3.3830    -0.1500    -0.6580 C.ar  1 <1>  -0.1500 
 10 N        2.8260     0.0580     0.8320 N.3   1 <1>  -0.8100 
 11 C       -3.6830    -1.3950    -0.1170 C.ar  1 <1>  -0.1500 
 12 C        2.1380     1.3260     1.1580 C.3   1 <1>   0.1100 
 13 C        3.4690     0.0760    -0.4980 C.3   1 <1>   0.1100 
 14 C        3.0900     2.5300     1.0260 C.3   1 <1>   0.3430 
 15 C        4.4280     1.2750    -0.6370 C.3   1 <1>   0.3430 
 16 N        3.7320     2.5680    -0.3290 N.4   1 <1>  -0.9060 
 17 H        1.5180    -1.9350    -0.8900 H     1 <1>   0.0800 
 18 H       -1.8140     1.2000    -1.2410 H     1 <1>   0.1500 
 19 H       -0.0010    -2.7760     1.4660 H     1 <1>   0.0800 
 20 H        0.0150    -3.4780    -0.1450 H     1 <1>   0.0800 
 21 H        2.6180    -1.9790     1.2460 H     1 <1>   0.0800 
 22 H        1.4180    -0.9890     1.9850 H     1 <1>   0.0800 
 23 H       -2.9000    -3.2250     0.6840 H     1 <1>   0.1500 
 24 H       -4.1790     0.5110    -0.9520 H     1 <1>   0.1500 
 25 H       -4.7100    -1.6900     0.0060 H     1 <1>   0.1500 
 26 H        1.7740     1.2820     2.1710 H     1 <1>   0.0800 
 27 H        1.2900     1.4780     0.5140 H     1 <1>   0.0800 
 28 H        2.7230     0.1310    -1.2720 H     1 <1>   0.0800 
 29 H        4.0270    -0.8350    -0.6350 H     1 <1>   0.0800 
 30 H        3.8490     2.4460     1.7870 H     1 <1>   0.0800 
 31 H        2.5390     3.4390     1.2020 H     1 <1>   0.0800 
 32 H        4.8270     1.2980    -1.6380 H     1 <1>   0.0800 
 33 H        5.2490     1.1330     0.0470 H     1 <1>   0.0800 
 34 H        4.3910     3.3530    -0.3890 H     1 <1>   0.4500 
 35 H        2.9960     2.7140    -1.0290 H     1 <1>   0.4500 
@<TRIPOS>BOND
  1   1   2  1   
  2   1   3  1   
  3   2   4  ar  
  4   2   5  ar  
  5   3   6  1   
  6   3   7  1   
  7   3  17  1   
  8   4   6  1   
  9   4   8  ar  
 10   5   9  ar  
 11   5  18  1   
 12   6  19  1   
 13   6  20  1   
 14   7  10  1   
 15   7  21  1   
 16   7  22  1   
 17   8  11  ar  
 18   8  23  1   
 19   9  11  ar  
 20   9  24  1   
 21  10  12  1   
 22  10  13  1   
 23  11  25  1   
 24  12  14  1   
 25  12  26  1   
 26  12  27  1   
 27  13  15  1   
 28  13  28  1   
 29  13  29  1   
 30  14  16  1   
 31  14  30  1   
 32  14  31  1   
 33  15  16  1   
 34  15  32  1   
 35  15  33  1   
 36  16  34  1   
 37  16  35  1   
@<TRIPOS>SUBSTRUCTURE
  1 ****   1 GROUP 4 **** **** 0

# MOE 2024.06 (io_trps.svl 2023.06)
