@<TRIPOS>MOLECULE
2-(4-Amino-6-oxo-5-phenyl-1,6-dihydro-pyrimidin-2-ylsulfanyl)-N-tert-butyl-aceta
43 44 1 0 0 
SMALL
USER_CHARGES


@<TRIPOS>ATOM
  1 S        0.4850     0.7520    -0.4510 S.3   1 <1>  -0.3710 
  2 C       -1.1240     1.4800    -0.3130 C.2   1 <1>   0.6410 
  3 C        1.4600     1.6110     0.8900 C.3   1 <1>   0.1310 
  4 N       -2.0310     1.0110    -1.2000 N.pl3 1 <1>  -0.5500 
  5 N       -1.3370     2.3690     0.5720 N.2   1 <1>  -0.6610 
  6 C        2.9040     1.1340     0.9520 C.2   1 <1>   0.5690 
  7 C       -3.2930     1.4820    -1.2070 C.2   1 <1>   0.2000 
  8 C       -2.6090     2.8780     0.6130 C.2   1 <1>   0.7670 
  9 O        3.6270     1.6280     1.7840 O.2   1 <1>  -0.5700 
 10 N        3.3250     0.1780     0.0770 N.am  1 <1>  -0.7300 
 11 N       -4.1140     0.9710    -2.1560 N.pl3 1 <1>  -0.9000 
 12 C       -3.6350     2.4380    -0.2730 C.2   1 <1>  -0.0140 
 13 O       -2.8090     3.7430     1.4600 O.2   1 <1>  -0.5700 
 14 C        4.6430    -0.4400    -0.0670 C.3   1 <1>   0.3000 
 15 C       -4.9710     2.9730    -0.1910 C.ar  1 <1>   0.0280 
 16 C        5.6770     0.6280    -0.4210 C.3   1 <1>  -0.2400 
 17 C        5.0130    -1.1700     1.2240 C.3   1 <1>  -0.2400 
 18 C        4.5260    -1.4450    -1.2110 C.3   1 <1>  -0.2400 
 19 C       -6.0660     2.1390     0.0400 C.ar  1 <1>  -0.1500 
 20 C       -5.2210     4.3360    -0.3500 C.ar  1 <1>  -0.1500 
 21 C       -7.3530     2.6400     0.0970 C.ar  1 <1>  -0.1500 
 22 C       -6.5060     4.8430    -0.2930 C.ar  1 <1>  -0.1500 
 23 C       -7.5770     3.9950    -0.0710 C.ar  1 <1>  -0.1500 
 24 H        0.9660     1.4130     1.8230 H     1 <1>   0.0800 
 25 H        1.4300     2.6650     0.6840 H     1 <1>   0.0800 
 26 H       -1.7280     0.3000    -1.8600 H     1 <1>   0.4000 
 27 H        2.6340    -0.1730    -0.5870 H     1 <1>   0.3700 
 28 H       -5.0760     1.3170    -2.2650 H     1 <1>   0.4000 
 29 H       -3.8390     0.2870    -2.8650 H     1 <1>   0.4000 
 30 H        5.7910     1.3270     0.3880 H     1 <1>   0.0800 
 31 H        5.3800     1.1620    -1.3050 H     1 <1>   0.0800 
 32 H        6.6330     0.1720    -0.6010 H     1 <1>   0.0800 
 33 H        5.1260    -0.4730     2.0350 H     1 <1>   0.0800 
 34 H        5.9460    -1.6890     1.1020 H     1 <1>   0.0800 
 35 H        4.2550    -1.8870     1.4830 H     1 <1>   0.0800 
 36 H        4.2530    -0.9470    -2.1250 H     1 <1>   0.0800 
 37 H        3.7920    -2.1960    -0.9820 H     1 <1>   0.0800 
 38 H        5.4700    -1.9360    -1.3670 H     1 <1>   0.0800 
 39 H       -5.9020     1.0850     0.1790 H     1 <1>   0.1500 
 40 H       -4.3960     5.0070    -0.5150 H     1 <1>   0.1500 
 41 H       -8.1830     1.9790     0.2770 H     1 <1>   0.1500 
 42 H       -6.6740     5.8990    -0.4180 H     1 <1>   0.1500 
 43 H       -8.5770     4.3890    -0.0260 H     1 <1>   0.1500 
@<TRIPOS>BOND
  1   1   2  1   
  2   1   3  1   
  3   2   4  1   
  4   2   5  2   
  5   3   6  1   
  6   3  24  1   
  7   3  25  1   
  8   4   7  1   
  9   4  26  1   
 10   5   8  1   
 11   6   9  2   
 12   6  10  am  
 13   7  11  1   
 14   7  12  2   
 15   8  12  1   
 16   8  13  2   
 17  10  14  1   
 18  10  27  1   
 19  11  28  1   
 20  11  29  1   
 21  12  15  1   
 22  14  16  1   
 23  14  17  1   
 24  14  18  1   
 25  15  19  ar  
 26  15  20  ar  
 27  16  30  1   
 28  16  31  1   
 29  16  32  1   
 30  17  33  1   
 31  17  34  1   
 32  17  35  1   
 33  18  36  1   
 34  18  37  1   
 35  18  38  1   
 36  19  21  ar  
 37  19  39  1   
 38  20  22  ar  
 39  20  40  1   
 40  21  23  ar  
 41  21  41  1   
 42  22  23  ar  
 43  22  42  1   
 44  23  43  1   
@<TRIPOS>SUBSTRUCTURE
  1 ****   2 GROUP 4 **** **** 0

# MOE 2024.06 (io_trps.svl 2023.06)
