@<TRIPOS>MOLECULE
4-(2,4,6-Trimethyl-benzenesulfonyl)-piperazine-1-carboxylic acid diethylamide
54 55 1 0 0 
SMALL
USER_CHARGES


@<TRIPOS>ATOM
  1 S        0.0710     0.0170    -1.7550 S.o2  1 <1>   1.4470 
  2 O       -0.1880    -1.2780    -2.3500 O.2   1 <1>  -0.6500 
  3 O        0.4180     1.1050    -2.6430 O.2   1 <1>  -0.6500 
  4 N       -1.4010     0.4410    -1.0270 N.am  1 <1>  -0.8490 
  5 C        1.2610    -0.0490    -0.3540 C.ar  1 <1>  -0.0090 
  6 C       -1.9200    -0.6310    -0.1590 C.3   1 <1>   0.1960 
  7 C       -2.4080     0.8140    -2.0370 C.3   1 <1>   0.1960 
  8 C        1.3880     1.0350     0.5310 C.ar  1 <1>  -0.1440 
  9 C        2.0780    -1.1660    -0.1180 C.ar  1 <1>  -0.1430 
 10 C       -3.2180    -0.2080     0.5500 C.3   1 <1>   0.1400 
 11 C       -3.7320     1.2620    -1.3940 C.3   1 <1>   0.1400 
 12 C        2.2500     0.9740     1.6150 C.ar  1 <1>  -0.1500 
 13 C        0.6090     2.3380     0.3660 C.3   1 <1>  -0.0960 
 14 C        2.9330    -1.2060     0.9740 C.ar  1 <1>  -0.1500 
 15 C        2.0990    -2.3910    -1.0260 C.3   1 <1>  -0.0960 
 16 N       -4.2360     0.2320    -0.4440 N.am  1 <1>  -0.6600 
 17 C        3.0200    -0.1450     1.8490 C.ar  1 <1>  -0.1430 
 18 C       -5.5800     0.0490    -0.2510 C.2   1 <1>   0.6900 
 19 C        3.9590    -0.2000     3.0400 C.3   1 <1>  -0.0970 
 20 O       -6.3560     0.9310    -0.5750 O.2   1 <1>  -0.5700 
 21 N       -6.0520    -1.1170     0.2960 N.am  1 <1>  -0.6600 
 22 C       -7.2970    -1.1170     1.1070 C.3   1 <1>   0.1400 
 23 C       -5.6060    -2.4330    -0.2290 C.3   1 <1>   0.1400 
 24 C       -6.9480    -1.4310     2.5590 C.3   1 <1>  -0.2400 
 25 C       -6.3950    -2.7870    -1.4880 C.3   1 <1>  -0.2400 
 26 H       -1.1860    -0.8780     0.5890 H     1 <1>   0.0800 
 27 H       -2.1150    -1.5180    -0.7390 H     1 <1>   0.0800 
 28 H       -2.5980    -0.0210    -2.6910 H     1 <1>   0.0800 
 29 H       -2.0330     1.6240    -2.6390 H     1 <1>   0.0800 
 30 H       -3.0050     0.6090     1.2160 H     1 <1>   0.0800 
 31 H       -3.5940    -1.0240     1.1400 H     1 <1>   0.0800 
 32 H       -4.4630     1.4340    -2.1660 H     1 <1>   0.0800 
 33 H       -3.5810     2.1860    -0.8660 H     1 <1>   0.0800 
 34 H        2.3290     1.8090     2.2890 H     1 <1>   0.1500 
 35 H       -0.4100     2.2060     0.6810 H     1 <1>   0.0800 
 36 H        0.6220     2.6730    -0.6540 H     1 <1>   0.0800 
 37 H        1.0400     3.1220     0.9610 H     1 <1>   0.0800 
 38 H        3.5460    -2.0720     1.1480 H     1 <1>   0.1500 
 39 H        1.1770    -2.9370    -0.9390 H     1 <1>   0.0800 
 40 H        2.9020    -3.0580    -0.7690 H     1 <1>   0.0800 
 41 H        2.2430    -2.0970    -2.0510 H     1 <1>   0.0800 
 42 H        3.5660     0.3780     3.8570 H     1 <1>   0.0800 
 43 H        4.9200     0.1970     2.7640 H     1 <1>   0.0800 
 44 H        4.0860    -1.2140     3.3740 H     1 <1>   0.0800 
 45 H       -7.9890    -1.8460     0.7220 H     1 <1>   0.0800 
 46 H       -7.7730    -0.1520     1.0570 H     1 <1>   0.0800 
 47 H       -5.7460    -3.1910     0.5220 H     1 <1>   0.0800 
 48 H       -4.5600    -2.3950    -0.4740 H     1 <1>   0.0800 
 49 H       -6.5140    -2.4100     2.6440 H     1 <1>   0.0800 
 50 H       -7.8410    -1.4010     3.1570 H     1 <1>   0.0800 
 51 H       -6.2600    -0.6970     2.9380 H     1 <1>   0.0800 
 52 H       -7.4430    -2.8780    -1.2700 H     1 <1>   0.0800 
 53 H       -6.0470    -3.7230    -1.8830 H     1 <1>   0.0800 
 54 H       -6.2540    -2.0280    -2.2370 H     1 <1>   0.0800 
@<TRIPOS>BOND
  1   1   2  2   
  2   1   3  2   
  3   1   4  am  
  4   1   5  1   
  5   4   6  1   
  6   4   7  1   
  7   5   8  ar  
  8   5   9  ar  
  9   6  10  1   
 10   6  26  1   
 11   6  27  1   
 12   7  11  1   
 13   7  28  1   
 14   7  29  1   
 15   8  12  ar  
 16   8  13  1   
 17   9  14  ar  
 18   9  15  1   
 19  10  16  1   
 20  10  30  1   
 21  10  31  1   
 22  11  16  1   
 23  11  32  1   
 24  11  33  1   
 25  12  17  ar  
 26  12  34  1   
 27  13  35  1   
 28  13  36  1   
 29  13  37  1   
 30  14  17  ar  
 31  14  38  1   
 32  15  39  1   
 33  15  40  1   
 34  15  41  1   
 35  16  18  am  
 36  17  19  1   
 37  18  20  2   
 38  18  21  am  
 39  19  42  1   
 40  19  43  1   
 41  19  44  1   
 42  21  22  1   
 43  21  23  1   
 44  22  24  1   
 45  22  45  1   
 46  22  46  1   
 47  23  25  1   
 48  23  47  1   
 49  23  48  1   
 50  24  49  1   
 51  24  50  1   
 52  24  51  1   
 53  25  52  1   
 54  25  53  1   
 55  25  54  1   
@<TRIPOS>SUBSTRUCTURE
  1 ****   6 GROUP 4 **** **** 0

# MOE 2024.06 (io_trps.svl 2023.06)
