@<TRIPOS>MOLECULE
2,2-Dimethyl-N-(3-m-tolyl-[1,2,4]oxadiazol-5-ylmethyl)-propionamide
39 40 1 0 0 
SMALL
USER_CHARGES


@<TRIPOS>ATOM
  1 O       -0.9450    -0.8630    -0.6330 O.2   1 <1>  -0.5700 
  2 C       -2.0510    -0.8010    -0.1550 C.2   1 <1>   0.5690 
  3 N       -2.3420    -1.7290     0.7910 N.am  1 <1>  -0.7300 
  4 C       -3.0290     0.3130    -0.6420 C.3   1 <1>   0.0610 
  5 C       -3.5720    -2.0300     1.5690 C.3   1 <1>   0.3200 
  6 C       -3.3150     1.3310     0.4800 C.3   1 <1>  -0.2400 
  7 C       -4.3570    -0.2660    -1.1710 C.3   1 <1>  -0.2400 
  8 C       -2.4080     1.1100    -1.8120 C.3   1 <1>  -0.2400 
  9 C       -4.3120    -3.2380     1.0130 C.2   1 <1>   0.2980 
 10 O       -3.6920    -4.3880     0.9820 O.3   1 <1>  -0.0190 
 11 N       -5.5010    -3.2490     0.5700 N.2   1 <1>  -0.5650 
 12 N       -4.5600    -5.2010     0.4700 N.2   1 <1>  -0.4100 
 13 C       -5.6310    -4.5330     0.2180 C.2   1 <1>   0.4620 
 14 C       -6.8460    -5.0680    -0.3750 C.ar  1 <1>   0.0540 
 15 C       -7.9660    -4.2670    -0.6090 C.ar  1 <1>  -0.1500 
 16 C       -6.9400    -6.4130    -0.7370 C.ar  1 <1>  -0.1500 
 17 C       -9.1240    -4.7730    -1.1750 C.ar  1 <1>  -0.1440 
 18 C       -8.0910    -6.9310    -1.3020 C.ar  1 <1>  -0.1500 
 19 C       -9.1830    -6.1120    -1.5210 C.ar  1 <1>  -0.1500 
 20 C      -10.3250    -3.8770    -1.4150 C.3   1 <1>  -0.0970 
 21 H       -1.5900    -2.4100     0.9200 H     1 <1>   0.3700 
 22 H       -4.2350    -1.1890     1.5780 H     1 <1>   0.0800 
 23 H       -3.2960    -2.2350     2.5880 H     1 <1>   0.0800 
 24 H       -2.3920     1.7620     0.8270 H     1 <1>   0.0800 
 25 H       -3.8050     0.8760     1.3180 H     1 <1>   0.0800 
 26 H       -3.9440     2.1250     0.1190 H     1 <1>   0.0800 
 27 H       -4.9570    -0.6820    -0.3880 H     1 <1>   0.0800 
 28 H       -4.1610    -1.0380    -1.8940 H     1 <1>   0.0800 
 29 H       -4.9420     0.5010    -1.6480 H     1 <1>   0.0800 
 30 H       -1.4820     1.5670    -1.5070 H     1 <1>   0.0800 
 31 H       -3.0700     1.8860    -2.1540 H     1 <1>   0.0800 
 32 H       -2.1960     0.4540    -2.6390 H     1 <1>   0.0800 
 33 H       -7.9250    -3.2270    -0.3400 H     1 <1>   0.1500 
 34 H       -6.0990    -7.0650    -0.5740 H     1 <1>   0.1500 
 35 H       -8.1380    -7.9710    -1.5720 H     1 <1>   0.1500 
 36 H      -10.0770    -6.5200    -1.9600 H     1 <1>   0.1500 
 37 H      -10.0430    -2.8400    -1.3770 H     1 <1>   0.0800 
 38 H      -11.0710    -4.0590    -0.6630 H     1 <1>   0.0800 
 39 H      -10.7500    -4.0770    -2.3820 H     1 <1>   0.0800 
@<TRIPOS>BOND
  1   1   2  2   
  2   2   3  am  
  3   2   4  1   
  4   3   5  1   
  5   3  21  1   
  6   4   6  1   
  7   4   7  1   
  8   4   8  1   
  9   5   9  1   
 10   5  22  1   
 11   5  23  1   
 12   6  24  1   
 13   6  25  1   
 14   6  26  1   
 15   7  27  1   
 16   7  28  1   
 17   7  29  1   
 18   8  30  1   
 19   8  31  1   
 20   8  32  1   
 21   9  10  1   
 22   9  11  2   
 23  10  12  1   
 24  11  13  1   
 25  12  13  2   
 26  13  14  1   
 27  14  15  ar  
 28  14  16  ar  
 29  15  17  ar  
 30  15  33  1   
 31  16  18  ar  
 32  16  34  1   
 33  17  19  ar  
 34  17  20  1   
 35  18  19  ar  
 36  18  35  1   
 37  19  36  1   
 38  20  37  1   
 39  20  38  1   
 40  20  39  1   
@<TRIPOS>SUBSTRUCTURE
  1 ****  11 GROUP 4 **** **** 0

# MOE 2024.06 (io_trps.svl 2023.06)
