@<TRIPOS>MOLECULE
2-Benzenesulfonyl-N-[4-(piperidine-1-sulfonyl)-phenyl]-acetamide
50 52 1 0 0 
SMALL
USER_CHARGES


@<TRIPOS>ATOM
  1 S        0.2460    -0.6310    -1.4510 S.o2  1 <1>   1.4470 
  2 O        0.1230    -0.1360    -2.8070 O.2   1 <1>  -0.6500 
  3 O        1.5440    -1.0530    -0.9700 O.2   1 <1>  -0.6500 
  4 N       -0.2850     0.6140    -0.4310 N.am  1 <1>  -0.8490 
  5 C       -0.9570    -1.9590    -1.1520 C.ar  1 <1>  -0.0090 
  6 C       -1.5430     1.2070    -0.8990 C.3   1 <1>   0.1960 
  7 C        0.7480     1.6410    -0.2670 C.3   1 <1>   0.1960 
  8 C       -1.1000    -2.5260     0.1090 C.ar  1 <1>  -0.1500 
  9 C       -1.7730    -2.4430    -2.1680 C.ar  1 <1>  -0.1500 
 10 C       -2.0670     2.2180     0.1270 C.3   1 <1>  -0.1600 
 11 C        0.3100     2.6790     0.7730 C.3   1 <1>  -0.1600 
 12 C       -2.0180    -3.5350     0.3470 C.ar  1 <1>  -0.1500 
 13 C       -2.6930    -3.4500    -1.9350 C.ar  1 <1>  -0.1500 
 14 C       -1.0340     3.3160     0.4010 C.3   1 <1>  -0.1600 
 15 C       -2.8330    -4.0120    -0.6720 C.ar  1 <1>   0.1170 
 16 N       -3.7400    -5.0440    -0.3880 N.am  1 <1>  -0.5470 
 17 C       -4.9180    -5.3850    -1.0000 C.2   1 <1>   0.5690 
 18 O       -5.3980    -4.7580    -1.9080 O.2   1 <1>  -0.5700 
 19 C       -5.6670    -6.5990    -0.5390 C.3   1 <1>   0.0060 
 20 S       -6.1270    -6.4060     1.1620 S.o2  1 <1>   1.2040 
 21 O       -4.8970    -6.1970     1.9000 O.2   1 <1>  -0.6500 
 22 O       -6.9600    -7.5370     1.5010 O.2   1 <1>  -0.6500 
 23 C       -7.1210    -4.8930     1.1660 C.ar  1 <1>  -0.0090 
 24 C       -6.5360    -3.6450     1.3520 C.ar  1 <1>  -0.1500 
 25 C       -8.4940    -4.9410     0.9520 C.ar  1 <1>  -0.1500 
 26 C       -7.2920    -2.4860     1.3230 C.ar  1 <1>  -0.1500 
 27 C       -9.2570    -3.7870     0.9220 C.ar  1 <1>  -0.1500 
 28 C       -8.6550    -2.5570     1.1070 C.ar  1 <1>  -0.1500 
 29 H       -2.2830     0.4360    -1.0350 H     1 <1>   0.0800 
 30 H       -1.3900     1.6980    -1.8470 H     1 <1>   0.0800 
 31 H        0.9400     2.1210    -1.2140 H     1 <1>   0.0800 
 32 H        1.6660     1.1870     0.0690 H     1 <1>   0.0800 
 33 H       -0.4790    -2.1680     0.9140 H     1 <1>   0.1500 
 34 H       -1.6870    -2.0270    -3.1590 H     1 <1>   0.1500 
 35 H       -2.2980     1.6970     1.0390 H     1 <1>   0.0800 
 36 H       -2.9760     2.6600    -0.2400 H     1 <1>   0.0800 
 37 H        1.0630     3.4420     0.8540 H     1 <1>   0.0800 
 38 H        0.2300     2.1930     1.7300 H     1 <1>   0.0800 
 39 H       -2.1010    -3.9510     1.3350 H     1 <1>   0.1500 
 40 H       -3.3020    -3.8000    -2.7500 H     1 <1>   0.1500 
 41 H       -1.3740     3.9530     1.2000 H     1 <1>   0.0800 
 42 H       -0.9110     3.9210    -0.4810 H     1 <1>   0.0800 
 43 H       -3.5470    -5.5420     0.4910 H     1 <1>   0.3700 
 44 H       -5.0460    -7.4630    -0.6610 H     1 <1>   0.0800 
 45 H       -6.5430    -6.7220    -1.1460 H     1 <1>   0.0800 
 46 H       -5.4750    -3.5700     1.5230 H     1 <1>   0.1500 
 47 H       -8.9770    -5.8940     0.8100 H     1 <1>   0.1500 
 48 H       -6.8190    -1.5290     1.4670 H     1 <1>   0.1500 
 49 H      -10.3190    -3.8460     0.7560 H     1 <1>   0.1500 
 50 H       -9.2460    -1.6570     1.0820 H     1 <1>   0.1500 
@<TRIPOS>BOND
  1   1   2  2   
  2   1   3  2   
  3   1   4  am  
  4   1   5  1   
  5   4   6  1   
  6   4   7  1   
  7   5   8  ar  
  8   5   9  ar  
  9   6  10  1   
 10   6  29  1   
 11   6  30  1   
 12   7  11  1   
 13   7  31  1   
 14   7  32  1   
 15   8  12  ar  
 16   8  33  1   
 17   9  13  ar  
 18   9  34  1   
 19  10  14  1   
 20  10  35  1   
 21  10  36  1   
 22  11  14  1   
 23  11  37  1   
 24  11  38  1   
 25  12  15  ar  
 26  12  39  1   
 27  13  15  ar  
 28  13  40  1   
 29  14  41  1   
 30  14  42  1   
 31  15  16  1   
 32  16  17  am  
 33  16  43  1   
 34  17  18  2   
 35  17  19  1   
 36  19  20  1   
 37  19  44  1   
 38  19  45  1   
 39  20  21  2   
 40  20  22  2   
 41  20  23  1   
 42  23  24  ar  
 43  23  25  ar  
 44  24  26  ar  
 45  24  46  1   
 46  25  27  ar  
 47  25  47  1   
 48  26  28  ar  
 49  26  48  1   
 50  27  28  ar  
 51  27  49  1   
 52  28  50  1   
@<TRIPOS>SUBSTRUCTURE
  1 ****  15 GROUP 4 **** **** 0

# MOE 2024.06 (io_trps.svl 2023.06)
