@<TRIPOS>MOLECULE
4-Fluoro-N-(4-methoxy-phenyl)-N-(2-oxo-2-pyrrolidin-1-yl-ethyl)-benzenesulfonami
48 50 1 0 0 
SMALL
USER_CHARGES


@<TRIPOS>ATOM
  1 S        0.3410     0.0300    -0.5860 S.o2  1 <1>   1.4470 
  2 O        0.6440    -0.1460     0.8150 O.2   1 <1>  -0.6500 
  3 O        1.3620    -0.2110    -1.5820 O.2   1 <1>  -0.6500 
  4 N       -0.1370     1.6770    -0.7990 N.am  1 <1>  -0.6930 
  5 C       -1.1690    -0.8700    -1.0370 C.ar  1 <1>  -0.0090 
  6 C       -1.2900     2.1450    -0.1790 C.ar  1 <1>   0.1990 
  7 C        0.9590     2.6580    -1.0700 C.3   1 <1>   0.2570 
  8 C       -2.1790    -1.0800    -0.1000 C.ar  1 <1>  -0.1500 
  9 C       -1.3660    -1.3380    -2.3360 C.ar  1 <1>  -0.1500 
 10 C       -1.3420     2.3510     1.1950 C.ar  1 <1>  -0.1500 
 11 C       -2.4270     2.3920    -0.9360 C.ar  1 <1>  -0.1500 
 12 C        1.7760     3.0820     0.1610 C.2   1 <1>   0.5690 
 13 C       -3.3510    -1.7370    -0.4370 C.ar  1 <1>  -0.1500 
 14 C       -2.5300    -2.0000    -2.6930 C.ar  1 <1>  -0.1500 
 15 C       -2.5040     2.7890     1.8030 C.ar  1 <1>  -0.1500 
 16 C       -3.5930     2.8270    -0.3330 C.ar  1 <1>  -0.1500 
 17 O        1.3580     4.0150     0.8100 O.2   1 <1>  -0.5700 
 18 N        2.9530     2.4670     0.5060 N.am  1 <1>  -0.6600 
 19 C       -3.5040    -2.1860    -1.7330 C.ar  1 <1>   0.1900 
 20 C       -3.6410     3.0290     1.0370 C.ar  1 <1>   0.0830 
 21 C        3.7360     2.9020     1.6840 C.3   1 <1>   0.1400 
 22 C        3.6400     1.3560    -0.1920 C.3   1 <1>   0.1400 
 23 F       -4.6040    -2.8060    -2.0620 F     1 <1>  -0.1900 
 24 O       -4.8250     3.4580     1.5500 O.3   1 <1>  -0.3620 
 25 C        4.9220     1.9450     1.7550 C.3   1 <1>  -0.1600 
 26 C        5.0670     1.4020     0.3370 C.3   1 <1>  -0.1600 
 27 C       -4.9360     3.8010     2.9140 C.3   1 <1>   0.0400 
 28 H        0.5160     3.5480    -1.4780 H     1 <1>   0.0800 
 29 H        1.6180     2.2660    -1.8220 H     1 <1>   0.0800 
 30 H       -2.0480    -0.7180     0.9080 H     1 <1>   0.1500 
 31 H       -0.5980    -1.1830    -3.0760 H     1 <1>   0.1500 
 32 H       -0.4620     2.1680     1.7880 H     1 <1>   0.1500 
 33 H       -2.3960     2.2370    -1.9990 H     1 <1>   0.1500 
 34 H       -4.1310    -1.8960     0.2860 H     1 <1>   0.1500 
 35 H       -2.6820    -2.3630    -3.6940 H     1 <1>   0.1500 
 36 H       -2.5010     2.9380     2.8660 H     1 <1>   0.1500 
 37 H       -4.4740     3.0150    -0.9200 H     1 <1>   0.1500 
 38 H        3.1340     2.8560     2.5760 H     1 <1>   0.0800 
 39 H        4.0710     3.9140     1.5290 H     1 <1>   0.0800 
 40 H        3.6100     1.4680    -1.2620 H     1 <1>   0.0800 
 41 H        3.1840     0.4240     0.0950 H     1 <1>   0.0800 
 42 H        4.6800     1.1430     2.4300 H     1 <1>   0.0800 
 43 H        5.8130     2.4380     2.1000 H     1 <1>   0.0800 
 44 H        5.6430     2.0850    -0.2630 H     1 <1>   0.0800 
 45 H        5.5320     0.4320     0.3130 H     1 <1>   0.0800 
 46 H       -5.9370     4.1530     3.0890 H     1 <1>   0.0800 
 47 H       -4.2300     4.5810     3.1360 H     1 <1>   0.0800 
 48 H       -4.7470     2.9260     3.5100 H     1 <1>   0.0800 
@<TRIPOS>BOND
  1   1   2  2   
  2   1   3  2   
  3   1   4  am  
  4   1   5  1   
  5   4   6  1   
  6   4   7  1   
  7   5   8  ar  
  8   5   9  ar  
  9   6  10  ar  
 10   6  11  ar  
 11   7  12  1   
 12   7  28  1   
 13   7  29  1   
 14   8  13  ar  
 15   8  30  1   
 16   9  14  ar  
 17   9  31  1   
 18  10  15  ar  
 19  10  32  1   
 20  11  16  ar  
 21  11  33  1   
 22  12  17  2   
 23  12  18  am  
 24  13  19  ar  
 25  13  34  1   
 26  14  19  ar  
 27  14  35  1   
 28  15  20  ar  
 29  15  36  1   
 30  16  20  ar  
 31  16  37  1   
 32  18  21  1   
 33  18  22  1   
 34  19  23  1   
 35  20  24  1   
 36  21  25  1   
 37  21  38  1   
 38  21  39  1   
 39  22  26  1   
 40  22  40  1   
 41  22  41  1   
 42  24  27  1   
 43  25  26  1   
 44  25  42  1   
 45  25  43  1   
 46  26  44  1   
 47  26  45  1   
 48  27  46  1   
 49  27  47  1   
 50  27  48  1   
@<TRIPOS>SUBSTRUCTURE
  1 ****   4 GROUP 4 **** **** 0

# MOE 2024.06 (io_trps.svl 2023.06)
