@<TRIPOS>MOLECULE
4-(6-Chloro-benzo[1,3]dioxol-5-yl)-6-methyl-2-oxo-1,2,3,4-tetrahydro-pyrimidine-
38 40 1 0 0 
SMALL
USER_CHARGES


@<TRIPOS>ATOM
  1 CL       1.1820    -0.6760    -2.8840 Cl    1 <1>  -0.1770 
  2 C        1.7840     0.0510    -1.4110 C.ar  1 <1>   0.1770 
  3 C        2.2120    -0.7470    -0.3460 C.ar  1 <1>  -0.1440 
  4 C        1.8040     1.4360    -1.3520 C.ar  1 <1>  -0.1500 
  5 C        2.6580    -0.1260     0.8210 C.ar  1 <1>  -0.1500 
  6 C        2.2000    -2.2710    -0.4380 C.3   1 <1>   0.5020 
  7 C        2.2600     2.0140    -0.1860 C.ar  1 <1>   0.0820 
  8 C        2.6730     1.2540     0.8700 C.ar  1 <1>   0.0820 
  9 N        1.0740    -2.7420     0.3920 N.am  1 <1>  -0.7300 
 10 C        3.5440    -2.8610     0.0050 C.2   1 <1>  -0.1240 
 11 O        2.3710     3.3120     0.1100 O.3   1 <1>  -0.3630 
 12 O        3.0630     2.0410     1.8770 O.3   1 <1>  -0.3630 
 13 C        1.2220    -3.4420     1.5270 C.2   1 <1>   0.6900 
 14 C        3.6000    -3.6340     1.1270 C.2   1 <1>  -0.0290 
 15 C        4.6050    -2.4760    -0.8740 C.2   1 <1>   0.7060 
 16 C        2.8860     3.3870     1.4380 C.3   1 <1>   0.4000 
 17 O        0.2720    -3.6810     2.2360 O.2   1 <1>  -0.5700 
 18 N        2.4610    -3.8730     1.8670 N.am  1 <1>  -0.5390 
 19 C        4.8380    -4.3170     1.6910 C.3   1 <1>  -0.1020 
 20 O        4.4210    -2.1680    -2.0360 O.2   1 <1>  -0.5700 
 21 O        5.8510    -2.4220    -0.3960 O.3   1 <1>  -0.4300 
 22 C        6.9340    -2.0050    -1.1980 C.3   1 <1>   0.1200 
 23 C        8.1990    -2.0620    -0.3480 C.3   1 <1>  -0.2400 
 24 H        1.4760     2.0380    -2.1780 H     1 <1>   0.1500 
 25 H        2.9850    -0.6910     1.6770 H     1 <1>   0.1500 
 26 H        2.0130    -2.5950    -1.4470 H     1 <1>   0.0800 
 27 H        0.1600    -2.3350     0.2100 H     1 <1>   0.3700 
 28 H        2.1750     3.8840     2.0740 H     1 <1>   0.0800 
 29 H        3.8360     3.8920     1.4300 H     1 <1>   0.0800 
 30 H        2.4790    -4.4200     2.7270 H     1 <1>   0.3700 
 31 H        4.5870    -5.2960     2.0570 H     1 <1>   0.0800 
 32 H        5.2370    -3.7360     2.5030 H     1 <1>   0.0800 
 33 H        5.6010    -4.4440     0.9470 H     1 <1>   0.0800 
 34 H        6.7400    -1.0000    -1.5360 H     1 <1>   0.0800 
 35 H        7.0060    -2.6650    -2.0460 H     1 <1>   0.0800 
 36 H        8.1060    -1.4070     0.4990 H     1 <1>   0.0800 
 37 H        9.0430    -1.7460    -0.9340 H     1 <1>   0.0800 
 38 H        8.3740    -3.0680    -0.0110 H     1 <1>   0.0800 
@<TRIPOS>BOND
  1   1   2  1   
  2   2   3  ar  
  3   2   4  ar  
  4   3   5  ar  
  5   3   6  1   
  6   4   7  ar  
  7   4  24  1   
  8   5   8  ar  
  9   5  25  1   
 10   6   9  1   
 11   6  10  1   
 12   6  26  1   
 13   7   8  ar  
 14   7  11  1   
 15   8  12  1   
 16   9  13  am  
 17   9  27  1   
 18  10  14  2   
 19  10  15  1   
 20  11  16  1   
 21  12  16  1   
 22  13  17  2   
 23  13  18  am  
 24  14  18  1   
 25  14  19  1   
 26  15  20  2   
 27  15  21  1   
 28  16  28  1   
 29  16  29  1   
 30  18  30  1   
 31  19  31  1   
 32  19  32  1   
 33  19  33  1   
 34  21  22  1   
 35  22  23  1   
 36  22  34  1   
 37  22  35  1   
 38  23  36  1   
 39  23  37  1   
 40  23  38  1   
@<TRIPOS>SUBSTRUCTURE
  1 ****   3 GROUP 4 **** **** 0

# MOE 2024.06 (io_trps.svl 2023.06)
