@<TRIPOS>MOLECULE
8-(2-Methoxy-phenyl)-1,6-dimethyl-5,6,7,8-tetrahydro-1H-1,3,4b,8,9-pentaaza-fluo
45 48 1 0 0 
SMALL
USER_CHARGES


@<TRIPOS>ATOM
  1 O        1.6770    -0.0220     2.6960 O.2   1 <1>  -0.5750 
  2 C        2.4610     0.6840     2.1050 C.2   1 <1>   0.6860 
  3 N        3.6880     0.2150     1.6570 N.am  1 <1>  -0.4420 
  4 N        2.1190     1.9870     1.8780 N.am  1 <1>  -0.4960 
  5 C        4.5160     1.1100     0.9970 C.2   1 <1>   0.4200 
  6 C        4.1090    -1.1990     1.8780 C.3   1 <1>   0.0510 
  7 C        2.9230     2.8820     1.2310 C.2   1 <1>   0.6990 
  8 N        5.7550     0.8810     0.4860 N.pl3 1 <1>  -0.7040 
  9 C        4.1920     2.4050     0.7710 C.2   1 <1>   0.2700 
 10 O        2.5370     4.0240     1.0790 O.2   1 <1>  -0.5750 
 11 C        6.2050     2.0190    -0.0370 C.cat 1 <1>   1.0690 
 12 N        5.2860     2.9690     0.1010 N.pl3 1 <1>  -0.7680 
 13 N        7.3950     2.2250    -0.6320 N.pl3 1 <1>  -0.5800 
 14 C        5.4460     4.3700    -0.3400 C.3   1 <1>   0.3470 
 15 C        8.3590     1.2100    -0.8120 C.ar  1 <1>   0.3040 
 16 C        7.7840     3.6170    -0.9970 C.3   1 <1>   0.1590 
 17 C        6.5510     4.4440    -1.4080 C.3   1 <1>  -0.0890 
 18 C        8.8930     0.4910     0.2690 C.ar  1 <1>   0.0740 
 19 C        8.7850     0.9050    -2.0980 C.ar  1 <1>  -0.1580 
 20 C        6.9490     5.9020    -1.6840 C.3   1 <1>  -0.2480 
 21 O        8.4540     0.7930     1.5260 O.3   1 <1>  -0.3690 
 22 C        9.8360    -0.5060     0.0380 C.ar  1 <1>  -0.1580 
 23 C        9.7220    -0.0870    -2.3190 C.ar  1 <1>  -0.1580 
 24 C        9.2070     0.4220     2.6640 C.3   1 <1>   0.0310 
 25 C       10.2470    -0.7900    -1.2510 C.ar  1 <1>  -0.1580 
 26 H        1.2120     2.3000     2.2190 H     1 <1>   0.3630 
 27 H        3.3150    -1.7700     2.3300 H     1 <1>   0.0710 
 28 H        4.9630    -1.2260     2.5320 H     1 <1>   0.0710 
 29 H        4.3620    -1.6570     0.9380 H     1 <1>   0.0710 
 30 H        6.3470     0.0580     0.5860 H     1 <1>   0.4440 
 31 H        5.7090     4.9760     0.5110 H     1 <1>   0.0710 
 32 H        4.5170     4.7380    -0.7450 H     1 <1>   0.0710 
 33 H        8.4910     3.6010    -1.8100 H     1 <1>   0.0710 
 34 H        8.2660     4.0730    -0.1480 H     1 <1>   0.0710 
 35 H        6.1620     4.0370    -2.3260 H     1 <1>   0.0710 
 36 H        8.3820     1.4420    -2.9380 H     1 <1>   0.1420 
 37 H        7.3550     6.3660    -0.8010 H     1 <1>   0.0710 
 38 H        6.0940     6.4710    -2.0060 H     1 <1>   0.0710 
 39 H        7.6910     5.9480    -2.4630 H     1 <1>   0.0710 
 40 H       10.2640    -1.0760     0.8430 H     1 <1>   0.1420 
 41 H       10.0470    -0.3140    -3.3220 H     1 <1>   0.1420 
 42 H        8.7710     0.8940     3.5260 H     1 <1>   0.0710 
 43 H       10.2220     0.7610     2.5400 H     1 <1>   0.0710 
 44 H        9.1730    -0.6460     2.7800 H     1 <1>   0.0710 
 45 H       10.9790    -1.5630    -1.4260 H     1 <1>   0.1420 
@<TRIPOS>BOND
  1   1   2  2   
  2   2   3  am  
  3   2   4  am  
  4   3   5  1   
  5   3   6  1   
  6   4   7  am  
  7   4  26  1   
  8   5   8  1   
  9   5   9  2   
 10   6  27  1   
 11   6  28  1   
 12   6  29  1   
 13   7   9  1   
 14   7  10  2   
 15   8  11  ar  
 16   8  30  1   
 17   9  12  1   
 18  11  12  ar  
 19  11  13  ar  
 20  12  14  1   
 21  13  15  1   
 22  13  16  1   
 23  14  17  1   
 24  14  31  1   
 25  14  32  1   
 26  15  18  ar  
 27  15  19  ar  
 28  16  17  1   
 29  16  33  1   
 30  16  34  1   
 31  17  20  1   
 32  17  35  1   
 33  18  21  1   
 34  18  22  ar  
 35  19  23  ar  
 36  19  36  1   
 37  20  37  1   
 38  20  38  1   
 39  20  39  1   
 40  21  24  1   
 41  22  25  ar  
 42  22  40  1   
 43  23  25  ar  
 44  23  41  1   
 45  24  42  1   
 46  24  43  1   
 47  24  44  1   
 48  25  45  1   
@<TRIPOS>SUBSTRUCTURE
  1 ****  11 GROUP 4 **** **** 0

# MOE 2024.06 (io_trps.svl 2023.06)
