@<TRIPOS>MOLECULE
7-(3-Chloro-benzyl)-1,3-dimethyl-8-piperidin-1-ylmethyl-3,7-dihydro-purine-2,6-d
53 56 1 0 0 
SMALL
USER_CHARGES


@<TRIPOS>ATOM
  1 CL       1.7970    -2.5530    -3.4400 Cl    1 <1>  -0.1770 
  2 C        1.5640    -3.0080    -1.7740 C.ar  1 <1>   0.1770 
  3 C        0.3960    -3.6510    -1.4100 C.ar  1 <1>  -0.1500 
  4 C        2.5500    -2.7280    -0.8480 C.ar  1 <1>  -0.1500 
  5 C        0.2090    -4.0370    -0.0890 C.ar  1 <1>  -0.1440 
  6 C        2.3590    -3.1000     0.4720 C.ar  1 <1>  -0.1500 
  7 C        1.1940    -3.7500     0.8480 C.ar  1 <1>  -0.1500 
  8 C       -1.0590    -4.7640     0.3280 C.3   1 <1>   0.4980 
  9 N       -0.9300    -6.2490     0.1920 N.pl3 1 <1>  -0.7640 
 10 C       -1.9730    -7.0930     0.5990 C.2   1 <1>   0.2770 
 11 C        0.0360    -7.0420    -0.2850 C.cat 1 <1>   0.6560 
 12 C       -3.2650    -6.8870     1.1870 C.2   1 <1>   0.7030 
 13 C       -1.5800    -8.3620     0.3430 C.2   1 <1>   0.4260 
 14 N       -0.3450    -8.3100    -0.2000 N.pl3 1 <1>  -0.7000 
 15 C        1.4190    -6.7170    -0.8850 C.3   1 <1>   0.2540 
 16 O       -3.6610    -5.7610     1.4370 O.2   1 <1>  -0.5700 
 17 N       -4.0480    -7.9990     1.4670 N.am  1 <1>  -0.4200 
 18 N       -2.3490    -9.4770     0.6160 N.am  1 <1>  -0.4360 
 19 N        2.2320    -7.9520    -1.0790 N.3   1 <1>  -0.8100 
 20 C       -3.5860    -9.2860     1.2130 C.2   1 <1>   0.6900 
 21 C       -5.3980    -7.8280     2.0900 C.3   1 <1>   0.0600 
 22 C       -1.8450   -10.8490     0.3090 C.3   1 <1>   0.0600 
 23 C        3.1700    -7.8010    -2.2050 C.3   1 <1>   0.1100 
 24 C        2.9580    -8.3170     0.1540 C.3   1 <1>   0.1100 
 25 O       -4.2640   -10.2450     1.5210 O.2   1 <1>  -0.5700 
 26 C        3.8700    -9.1360    -2.4770 C.3   1 <1>  -0.1600 
 27 C        3.6430    -9.6740    -0.0320 C.3   1 <1>  -0.1600 
 28 C        4.5990    -9.6510    -1.2300 C.3   1 <1>  -0.1600 
 29 H       -0.3480    -3.8410    -2.1650 H     1 <1>   0.1500 
 30 H        3.4480    -2.2230    -1.1570 H     1 <1>   0.1500 
 31 H        3.1180    -2.8800     1.2050 H     1 <1>   0.1500 
 32 H        1.0660    -4.0260     1.8830 H     1 <1>   0.1500 
 33 H       -1.8840    -4.4230    -0.2760 H     1 <1>   0.0800 
 34 H       -1.2860    -4.5200     1.3530 H     1 <1>   0.0800 
 35 H        0.2830    -9.0560    -0.5260 H     1 <1>   0.4500 
 36 H        1.9540    -6.0300    -0.2550 H     1 <1>   0.0800 
 37 H        1.2530    -6.2440    -1.8360 H     1 <1>   0.0800 
 38 H       -5.7830    -6.8370     1.9190 H     1 <1>   0.0800 
 39 H       -5.3300    -8.0000     3.1500 H     1 <1>   0.0800 
 40 H       -6.0930    -8.5350     1.6690 H     1 <1>   0.0800 
 41 H       -1.3150   -10.8520    -0.6270 H     1 <1>   0.0800 
 42 H       -2.6630   -11.5460     0.2330 H     1 <1>   0.0800 
 43 H       -1.1870   -11.1780     1.0950 H     1 <1>   0.0800 
 44 H        3.9030    -7.0430    -1.9800 H     1 <1>   0.0800 
 45 H        2.6350    -7.5060    -3.0930 H     1 <1>   0.0800 
 46 H        2.2770    -8.3810     0.9850 H     1 <1>   0.0800 
 47 H        3.7000    -7.5680     0.3810 H     1 <1>   0.0800 
 48 H        4.5760    -9.0130    -3.2800 H     1 <1>   0.0800 
 49 H        3.1370    -9.8570    -2.7940 H     1 <1>   0.0800 
 50 H        2.8940   -10.4320    -0.1800 H     1 <1>   0.0800 
 51 H        4.1910    -9.9240     0.8600 H     1 <1>   0.0800 
 52 H        5.4300    -9.0020    -1.0100 H     1 <1>   0.0800 
 53 H        4.9870   -10.6390    -1.4110 H     1 <1>   0.0800 
@<TRIPOS>BOND
  1   1   2  1   
  2   2   3  ar  
  3   2   4  ar  
  4   3   5  ar  
  5   3  29  1   
  6   4   6  ar  
  7   4  30  1   
  8   5   7  ar  
  9   5   8  1   
 10   6   7  ar  
 11   6  31  1   
 12   7  32  1   
 13   8   9  1   
 14   8  33  1   
 15   8  34  1   
 16   9  10  1   
 17   9  11  ar  
 18  10  12  1   
 19  10  13  2   
 20  11  14  ar  
 21  11  15  1   
 22  12  16  2   
 23  12  17  am  
 24  13  14  1   
 25  13  18  1   
 26  14  35  1   
 27  15  19  1   
 28  15  36  1   
 29  15  37  1   
 30  17  20  am  
 31  17  21  1   
 32  18  20  am  
 33  18  22  1   
 34  19  23  1   
 35  19  24  1   
 36  20  25  2   
 37  21  38  1   
 38  21  39  1   
 39  21  40  1   
 40  22  41  1   
 41  22  42  1   
 42  22  43  1   
 43  23  26  1   
 44  23  44  1   
 45  23  45  1   
 46  24  27  1   
 47  24  46  1   
 48  24  47  1   
 49  26  28  1   
 50  26  48  1   
 51  26  49  1   
 52  27  28  1   
 53  27  50  1   
 54  27  51  1   
 55  28  52  1   
 56  28  53  1   
@<TRIPOS>SUBSTRUCTURE
  1 ****  11 GROUP 4 **** **** 0

# MOE 2024.06 (io_trps.svl 2023.06)
