@<TRIPOS>MOLECULE
8-(4-Ethyl-piperazin-1-yl)-3-methyl-7-phenethyl-3,7-dihydro-purine-2,6-dione
56 59 1 0 0 
SMALL
USER_CHARGES


@<TRIPOS>ATOM
  1 O        1.6560     0.4520    -2.5530 O.2   1 <1>  -0.5740 
  2 C        2.4100     1.0590    -1.8310 C.2   1 <1>   0.6870 
  3 N        3.6480     0.5550    -1.4610 N.am  1 <1>  -0.4410 
  4 N        2.0250     2.2840    -1.3710 N.am  1 <1>  -0.4950 
  5 C        4.4480     1.3490    -0.6540 C.2   1 <1>   0.4210 
  6 C        4.0950    -0.7900    -1.9310 C.3   1 <1>   0.0530 
  7 C        2.7980     3.0690    -0.5660 C.2   1 <1>   0.7000 
  8 N        5.6920     1.0650    -0.1940 N.pl3 1 <1>  -0.7030 
  9 C        4.0940     2.5680    -0.1980 C.2   1 <1>   0.2710 
 10 O        2.3610     4.1420    -0.2020 O.2   1 <1>  -0.5740 
 11 C        6.1390     2.0910     0.5410 C.cat 1 <1>   1.0690 
 12 N        5.1820     3.0430     0.5710 N.pl3 1 <1>  -0.7670 
 13 N        7.3810     2.0560     1.1160 N.pl3 1 <1>  -0.5960 
 14 C        5.0600     4.3810     1.2340 C.3   1 <1>   0.3490 
 15 C        8.2260     0.8060     1.1860 C.3   1 <1>   0.1610 
 16 C        8.0950     3.2150     1.7550 C.3   1 <1>   0.1610 
 17 C        5.3510     5.5320     0.2560 C.3   1 <1>  -0.0240 
 18 C        9.6460     1.0160     0.6090 C.3   1 <1>   0.3380 
 19 C        9.5060     3.4270     1.1660 C.3   1 <1>   0.3380 
 20 C        6.7510     5.5040    -0.3490 C.ar  1 <1>  -0.1500 
 21 N       10.3490     2.1880     1.2320 N.4   1 <1>  -0.9610 
 22 C        7.0270     4.7180    -1.4580 C.ar  1 <1>  -0.1570 
 23 C        7.7560     6.3010     0.1810 C.ar  1 <1>  -0.1570 
 24 C       11.6680     2.4470     0.5930 C.3   1 <1>   0.3380 
 25 C        8.2910     4.7190    -2.0230 C.ar  1 <1>  -0.1570 
 26 C        9.0180     6.3070    -0.3860 C.ar  1 <1>  -0.1570 
 27 C       12.6470     1.3460     0.9770 C.3   1 <1>  -0.2460 
 28 C        9.2870     5.5170    -1.4890 C.ar  1 <1>  -0.1570 
 29 H        1.1060     2.6220    -1.6540 H     1 <1>   0.3650 
 30 H        3.2790    -1.3280    -2.3850 H     1 <1>   0.0730 
 31 H        4.4560    -1.3720    -1.1020 H     1 <1>   0.0730 
 32 H        4.8750    -0.6800    -2.6640 H     1 <1>   0.0730 
 33 H        6.1870     0.2050    -0.3970 H     1 <1>   0.4450 
 34 H        5.6910     4.4460     2.0990 H     1 <1>   0.0730 
 35 H        4.0540     4.4980     1.6030 H     1 <1>   0.0730 
 36 H        7.7670    -0.0130     0.6640 H     1 <1>   0.0730 
 37 H        8.3160     0.5060     2.2170 H     1 <1>   0.0730 
 38 H        8.1730     3.0470     2.8160 H     1 <1>   0.0730 
 39 H        7.5680     4.1280     1.6140 H     1 <1>   0.0730 
 40 H        5.2140     6.4620     0.7800 H     1 <1>   0.0730 
 41 H        4.6240     5.5270    -0.5360 H     1 <1>   0.0730 
 42 H        9.5720     1.1700    -0.4550 H     1 <1>   0.0730 
 43 H       10.2260     0.1210     0.7700 H     1 <1>   0.0730 
 44 H        9.9940     4.2300     1.6940 H     1 <1>   0.0730 
 45 H        9.4010     3.7310     0.1390 H     1 <1>   0.0730 
 46 H       10.5440     1.9760     2.2210 H     1 <1>   0.4450 
 47 H        6.2550     4.1210    -1.9090 H     1 <1>   0.1430 
 48 H        7.5590     6.9420     1.0250 H     1 <1>   0.1430 
 49 H       12.0580     3.3930     0.9360 H     1 <1>   0.0730 
 50 H       11.5630     2.4960    -0.4800 H     1 <1>   0.0730 
 51 H        8.4940     4.1220    -2.8970 H     1 <1>   0.1430 
 52 H        9.7860     6.9460     0.0180 H     1 <1>   0.1430 
 53 H       12.7450     1.2730     2.0460 H     1 <1>   0.0730 
 54 H       13.6160     1.5860     0.5750 H     1 <1>   0.0730 
 55 H       12.3570     0.3950     0.5700 H     1 <1>   0.0730 
 56 H       10.2630     5.5400    -1.9450 H     1 <1>   0.1430 
@<TRIPOS>BOND
  1   1   2  2   
  2   2   3  am  
  3   2   4  am  
  4   3   5  1   
  5   3   6  1   
  6   4   7  am  
  7   4  29  1   
  8   5   8  1   
  9   5   9  2   
 10   6  30  1   
 11   6  31  1   
 12   6  32  1   
 13   7   9  1   
 14   7  10  2   
 15   8  11  ar  
 16   8  33  1   
 17   9  12  1   
 18  11  12  ar  
 19  11  13  ar  
 20  12  14  1   
 21  13  15  1   
 22  13  16  1   
 23  14  17  1   
 24  14  34  1   
 25  14  35  1   
 26  15  18  1   
 27  15  36  1   
 28  15  37  1   
 29  16  19  1   
 30  16  38  1   
 31  16  39  1   
 32  17  20  1   
 33  17  40  1   
 34  17  41  1   
 35  18  21  1   
 36  18  42  1   
 37  18  43  1   
 38  19  21  1   
 39  19  44  1   
 40  19  45  1   
 41  20  22  ar  
 42  20  23  ar  
 43  21  24  1   
 44  21  46  1   
 45  22  25  ar  
 46  22  47  1   
 47  23  26  ar  
 48  23  48  1   
 49  24  27  1   
 50  24  49  1   
 51  24  50  1   
 52  25  28  ar  
 53  25  51  1   
 54  26  28  ar  
 55  26  52  1   
 56  27  53  1   
 57  27  54  1   
 58  27  55  1   
 59  28  56  1   
@<TRIPOS>SUBSTRUCTURE
  1 ****  11 GROUP 4 **** **** 0

# MOE 2024.06 (io_trps.svl 2023.06)
