@<TRIPOS>MOLECULE
4-(2,4-Dichloro-phenoxy)-N-[5-(tetrahydro-furan-2-yl)-[1,3,4]thiadiazol-2-yl]-bu
42 44 1 0 0 
SMALL
USER_CHARGES


@<TRIPOS>ATOM
  1 CL       0.5030     1.2770    -0.4740 Cl    1 <1>  -0.1770 
  2 C       -0.0510    -0.3840    -0.4880 C.ar  1 <1>   0.1770 
  3 C        0.8630    -1.4330    -0.4100 C.ar  1 <1>   0.0820 
  4 C       -1.4110    -0.6130    -0.5790 C.ar  1 <1>  -0.1500 
  5 O        2.1850    -1.1250    -0.3230 O.3   1 <1>  -0.3630 
  6 C        0.3850    -2.7440    -0.4240 C.ar  1 <1>  -0.1500 
  7 C       -1.8580    -1.9190    -0.5910 C.ar  1 <1>   0.1770 
  8 C        3.1780    -2.1210    -0.2400 C.3   1 <1>   0.1200 
  9 C       -0.9780    -2.9840    -0.5140 C.ar  1 <1>  -0.1500 
 10 CL      -3.5710    -2.2350    -0.7040 Cl    1 <1>  -0.1770 
 11 C        4.5400    -1.4310    -0.1590 C.3   1 <1>  -0.1600 
 12 C        5.6860    -2.4580    -0.0730 C.3   1 <1>  -0.0990 
 13 C        7.0800    -1.8420    -0.0140 C.2   1 <1>   0.5690 
 14 O        7.1980    -0.6590     0.1690 O.2   1 <1>  -0.5700 
 15 N        8.2090    -2.5810    -0.1780 N.am  1 <1>  -0.4940 
 16 C        8.5140    -3.9190    -0.3130 C.2   1 <1>   0.4420 
 17 S        7.3490    -5.1710    -0.0100 S.3   1 <1>  -0.0800 
 18 N        9.6580    -4.3950    -0.6390 N.2   1 <1>  -0.3380 
 19 C        8.5880    -6.3190    -0.3980 C.2   1 <1>   0.1980 
 20 N        9.6940    -5.7600    -0.6910 N.2   1 <1>  -0.3380 
 21 C        8.2600    -7.8060    -0.3460 C.3   1 <1>   0.3800 
 22 O        6.9950    -8.0700    -0.8700 O.3   1 <1>  -0.5600 
 23 C        8.2030    -8.3790     1.0650 C.3   1 <1>  -0.1600 
 24 C        6.5300    -9.2970    -0.4030 C.3   1 <1>   0.1200 
 25 C        7.2320    -9.5430     0.9320 C.3   1 <1>  -0.1600 
 26 H       -2.1030     0.2060    -0.6380 H     1 <1>   0.1500 
 27 H        1.0510    -3.5840    -0.3660 H     1 <1>   0.1500 
 28 H        3.1150    -2.7360    -1.1220 H     1 <1>   0.0800 
 29 H        2.9960    -2.7090     0.6430 H     1 <1>   0.0800 
 30 H       -1.3600    -3.9890    -0.5260 H     1 <1>   0.1500 
 31 H        4.5630    -0.7970     0.7110 H     1 <1>   0.0800 
 32 H        4.6780    -0.8160    -1.0320 H     1 <1>   0.0800 
 33 H        5.6350    -3.0950    -0.9370 H     1 <1>   0.0800 
 34 H        5.5480    -3.0580     0.8080 H     1 <1>   0.0800 
 35 H        9.0340    -1.9840    -0.2200 H     1 <1>   0.3700 
 36 H        8.9730    -8.3540    -0.9380 H     1 <1>   0.0800 
 37 H        7.8080    -7.6410     1.7410 H     1 <1>   0.0800 
 38 H        9.1770    -8.6840     1.4050 H     1 <1>   0.0800 
 39 H        6.7880   -10.0520    -1.1270 H     1 <1>   0.0800 
 40 H        5.4600    -9.2390    -0.2960 H     1 <1>   0.0800 
 41 H        6.5250    -9.5620     1.7430 H     1 <1>   0.0800 
 42 H        7.7520   -10.4850     0.9000 H     1 <1>   0.0800 
@<TRIPOS>BOND
  1   1   2  1   
  2   2   3  ar  
  3   2   4  ar  
  4   3   5  1   
  5   3   6  ar  
  6   4   7  ar  
  7   4  26  1   
  8   5   8  1   
  9   6   9  ar  
 10   6  27  1   
 11   7   9  ar  
 12   7  10  1   
 13   8  11  1   
 14   8  28  1   
 15   8  29  1   
 16   9  30  1   
 17  11  12  1   
 18  11  31  1   
 19  11  32  1   
 20  12  13  1   
 21  12  33  1   
 22  12  34  1   
 23  13  14  2   
 24  13  15  am  
 25  15  16  1   
 26  15  35  1   
 27  16  17  1   
 28  16  18  2   
 29  17  19  1   
 30  18  20  1   
 31  19  20  2   
 32  19  21  1   
 33  21  22  1   
 34  21  23  1   
 35  21  36  1   
 36  22  24  1   
 37  23  25  1   
 38  23  37  1   
 39  23  38  1   
 40  24  25  1   
 41  24  39  1   
 42  24  40  1   
 43  25  41  1   
 44  25  42  1   
@<TRIPOS>SUBSTRUCTURE
  1 ****  12 GROUP 4 **** **** 0

# MOE 2024.06 (io_trps.svl 2023.06)
