@<TRIPOS>MOLECULE
7-(2-Hydroxy-2-phenyl-ethyl)-3-methyl-8-pyrrolidin-1-yl-3,7-dihydro-purine-2,6-d
48 51 1 0 0 
SMALL
USER_CHARGES


@<TRIPOS>ATOM
  1 O        0.7550     1.0550     0.5820 O.2   1 <1>  -0.5750 
  2 C        1.8550     1.4440     0.2640 C.2   1 <1>   0.6860 
  3 N        2.9770     0.6330     0.3370 N.am  1 <1>  -0.4420 
  4 N        1.9870     2.7260    -0.1820 N.am  1 <1>  -0.4950 
  5 C        4.1960     1.1900    -0.0240 C.2   1 <1>   0.4200 
  6 C        2.8770    -0.7740     0.8220 C.3   1 <1>   0.0520 
  7 C        3.1750     3.2810    -0.5630 C.2   1 <1>   0.6990 
  8 N        5.4190     0.6020     0.0240 N.pl3 1 <1>  -0.7040 
  9 C        4.3460     2.4560    -0.4710 C.2   1 <1>   0.2700 
 10 O        3.1740     4.4270    -0.9690 O.2   1 <1>  -0.5750 
 11 C        6.3340     1.4890    -0.3720 C.cat 1 <1>   1.0690 
 12 N        5.7260     2.6380    -0.7050 N.pl3 1 <1>  -0.7680 
 13 N        7.6540     1.2040    -0.3930 N.pl3 1 <1>  -0.5970 
 14 C        6.2930     4.0230    -0.8120 C.3   1 <1>   0.3480 
 15 C        8.7100     1.9820    -1.0880 C.3   1 <1>   0.1600 
 16 C        8.2380    -0.0450     0.1640 C.3   1 <1>   0.1600 
 17 C        6.6400     4.6310     0.5710 C.3   1 <1>   0.3370 
 18 C        9.9090     1.0480    -1.1760 C.3   1 <1>  -0.1680 
 19 C        9.7450     0.1080     0.0090 C.3   1 <1>  -0.1680 
 20 O        5.6840     4.2980     1.5230 O.3   1 <1>  -0.6840 
 21 C        6.7330     6.1460     0.5170 C.ar  1 <1>  -0.1510 
 22 C        5.6070     6.9190     0.2590 C.ar  1 <1>  -0.1580 
 23 C        7.9520     6.7750     0.7230 C.ar  1 <1>  -0.1580 
 24 C        5.7030     8.2970     0.2030 C.ar  1 <1>  -0.1580 
 25 C        8.0470     8.1540     0.6680 C.ar  1 <1>  -0.1580 
 26 C        6.9220     8.9160     0.4070 C.ar  1 <1>  -0.1580 
 27 H        1.1460     3.2980    -0.2270 H     1 <1>   0.3640 
 28 H        1.8490    -1.0970     0.8460 H     1 <1>   0.0720 
 29 H        3.2800    -0.8450     1.8170 H     1 <1>   0.0720 
 30 H        3.4180    -1.4310     0.1640 H     1 <1>   0.0720 
 31 H        5.6260    -0.3390     0.3360 H     1 <1>   0.4440 
 32 H        5.5810     4.6620    -1.3030 H     1 <1>   0.0720 
 33 H        7.1670     4.0340    -1.4340 H     1 <1>   0.0720 
 34 H        8.9710     2.8440    -0.4970 H     1 <1>   0.0720 
 35 H        8.3930     2.2870    -2.0720 H     1 <1>   0.0720 
 36 H        7.9000    -0.8890    -0.4150 H     1 <1>   0.0720 
 37 H        7.9700    -0.1770     1.1990 H     1 <1>   0.0720 
 38 H        7.5760     4.2260     0.9140 H     1 <1>   0.0720 
 39 H       10.8410     1.5860    -1.1450 H     1 <1>   0.0720 
 40 H        9.8620     0.4920    -2.0970 H     1 <1>   0.0720 
 41 H       10.2330    -0.8380    -0.1490 H     1 <1>   0.0720 
 42 H       10.1510     0.5620     0.8980 H     1 <1>   0.0720 
 43 H        5.6680     5.0160     2.1930 H     1 <1>   0.3940 
 44 H        4.6460     6.4580     0.1000 H     1 <1>   0.1420 
 45 H        8.8410     6.2050     0.9320 H     1 <1>   0.1420 
 46 H        4.8270     8.8890     0.0010 H     1 <1>   0.1420 
 47 H        8.9940     8.6380     0.8290 H     1 <1>   0.1420 
 48 H        6.9960     9.9890     0.3630 H     1 <1>   0.1420 
@<TRIPOS>BOND
  1   1   2  2   
  2   2   3  am  
  3   2   4  am  
  4   3   5  1   
  5   3   6  1   
  6   4   7  am  
  7   4  27  1   
  8   5   8  1   
  9   5   9  2   
 10   6  28  1   
 11   6  29  1   
 12   6  30  1   
 13   7   9  1   
 14   7  10  2   
 15   8  11  ar  
 16   8  31  1   
 17   9  12  1   
 18  11  12  ar  
 19  11  13  ar  
 20  12  14  1   
 21  13  15  1   
 22  13  16  1   
 23  14  17  1   
 24  14  32  1   
 25  14  33  1   
 26  15  18  1   
 27  15  34  1   
 28  15  35  1   
 29  16  19  1   
 30  16  36  1   
 31  16  37  1   
 32  17  20  1   
 33  17  21  1   
 34  17  38  1   
 35  18  19  1   
 36  18  39  1   
 37  18  40  1   
 38  19  41  1   
 39  19  42  1   
 40  20  43  1   
 41  21  22  ar  
 42  21  23  ar  
 43  22  24  ar  
 44  22  44  1   
 45  23  25  ar  
 46  23  45  1   
 47  24  26  ar  
 48  24  46  1   
 49  25  26  ar  
 50  25  47  1   
 51  26  48  1   
@<TRIPOS>SUBSTRUCTURE
  1 ****  12 GROUP 4 **** **** 0

# MOE 2024.06 (io_trps.svl 2023.06)
