@<TRIPOS>MOLECULE
1-(5-Chloro-2-ethoxy-benzenesulfonyl)-piperidine-4-carboxylic acid (2-hydroxy-et
48 49 1 0 0 
SMALL
USER_CHARGES


@<TRIPOS>ATOM
  1 CL       0.2870     0.8690    -3.1090 Cl    1 <1>  -0.1770 
  2 C        0.2730     2.4460    -2.3620 C.ar  1 <1>   0.1770 
  3 C        1.0440     2.6700    -1.2370 C.ar  1 <1>  -0.1500 
  4 C       -0.5070     3.4450    -2.9100 C.ar  1 <1>  -0.1500 
  5 C        1.0500     3.9140    -0.6140 C.ar  1 <1>  -0.0090 
  6 C       -0.5070     4.6910    -2.3120 C.ar  1 <1>  -0.1500 
  7 S        2.0750     4.1800     0.8600 S.o2  1 <1>   1.4470 
  8 C        0.2630     4.9190    -1.1780 C.ar  1 <1>   0.0830 
  9 O        2.3240     2.8840     1.4550 O.2   1 <1>  -0.6500 
 10 O        1.5640     5.2220     1.7260 O.2   1 <1>  -0.6500 
 11 N        3.5670     4.7260     0.2590 N.am  1 <1>  -0.8490 
 12 O        0.2570     6.1580    -0.6500 O.3   1 <1>  -0.3630 
 13 C        4.6130     4.6060     1.2790 C.3   1 <1>   0.1960 
 14 C        3.4820     6.0930    -0.2690 C.3   1 <1>   0.1960 
 15 C       -0.8770     6.5260     0.1010 C.3   1 <1>   0.1200 
 16 C        5.9800     4.9810     0.7010 C.3   1 <1>  -0.1600 
 17 C        4.8140     6.5130    -0.8960 C.3   1 <1>  -0.1600 
 18 C       -0.6120     7.8990     0.7080 C.3   1 <1>  -0.2400 
 19 C        5.9680     6.4010     0.1130 C.3   1 <1>  -0.0190 
 20 C        7.3110     6.7620    -0.5200 C.2   1 <1>   0.5690 
 21 O        7.7290     6.1190    -1.4520 O.2   1 <1>  -0.5700 
 22 N        8.0160     7.8060    -0.0110 N.am  1 <1>  -0.7300 
 23 C        9.3090     8.2850    -0.5620 C.3   1 <1>   0.1400 
 24 C       10.4690     7.4810     0.0310 C.3   1 <1>   0.1200 
 25 O       11.6650     7.9460    -0.4940 O.3   1 <1>  -0.6800 
 26 H        1.6420     1.8650    -0.8440 H     1 <1>   0.1500 
 27 H       -1.0960     3.2470    -3.7870 H     1 <1>   0.1500 
 28 H       -1.0950     5.4910    -2.7270 H     1 <1>   0.1500 
 29 H        4.6620     3.5880     1.6320 H     1 <1>   0.0800 
 30 H        4.3760     5.2390     2.1190 H     1 <1>   0.0800 
 31 H        3.2120     6.7780     0.5190 H     1 <1>   0.0800 
 32 H        2.7260     6.1420    -1.0320 H     1 <1>   0.0800 
 33 H       -1.0270     5.7920     0.8750 H     1 <1>   0.0800 
 34 H       -1.7320     6.5510    -0.5520 H     1 <1>   0.0800 
 35 H        6.2380     4.2700    -0.0650 H     1 <1>   0.0800 
 36 H        6.7240     4.9140     1.4740 H     1 <1>   0.0800 
 37 H        4.7380     7.5250    -1.2500 H     1 <1>   0.0800 
 38 H        5.0100     5.8820    -1.7470 H     1 <1>   0.0800 
 39 H        0.2430     7.8510     1.3590 H     1 <1>   0.0800 
 40 H       -1.4630     8.2120     1.2850 H     1 <1>   0.0800 
 41 H       -0.4360     8.6220    -0.0680 H     1 <1>   0.0800 
 42 H        5.7770     7.0910     0.9140 H     1 <1>   0.0800 
 43 H        7.6600     8.3190     0.7970 H     1 <1>   0.3700 
 44 H        9.4310     9.3280    -0.3300 H     1 <1>   0.0800 
 45 H        9.3000     8.1630    -1.6320 H     1 <1>   0.0800 
 46 H       10.3750     6.4360    -0.2110 H     1 <1>   0.0800 
 47 H       10.5080     7.6080     1.0990 H     1 <1>   0.0800 
 48 H       11.7490     7.6870    -1.4330 H     1 <1>   0.4000 
@<TRIPOS>BOND
  1   1   2  1   
  2   2   3  ar  
  3   2   4  ar  
  4   3   5  ar  
  5   3  26  1   
  6   4   6  ar  
  7   4  27  1   
  8   5   7  1   
  9   5   8  ar  
 10   6   8  ar  
 11   6  28  1   
 12   7   9  2   
 13   7  10  2   
 14   7  11  am  
 15   8  12  1   
 16  11  13  1   
 17  11  14  1   
 18  12  15  1   
 19  13  16  1   
 20  13  29  1   
 21  13  30  1   
 22  14  17  1   
 23  14  31  1   
 24  14  32  1   
 25  15  18  1   
 26  15  33  1   
 27  15  34  1   
 28  16  19  1   
 29  16  35  1   
 30  16  36  1   
 31  17  19  1   
 32  17  37  1   
 33  17  38  1   
 34  18  39  1   
 35  18  40  1   
 36  18  41  1   
 37  19  20  1   
 38  19  42  1   
 39  20  21  2   
 40  20  22  am  
 41  22  23  1   
 42  22  43  1   
 43  23  24  1   
 44  23  44  1   
 45  23  45  1   
 46  24  25  1   
 47  24  46  1   
 48  24  47  1   
 49  25  48  1   
@<TRIPOS>SUBSTRUCTURE
  1 ****  14 GROUP 4 **** **** 0

# MOE 2024.06 (io_trps.svl 2023.06)
