@<TRIPOS>MOLECULE
8-sec-Butylamino-7-(2-hydroxy-3-p-tolyloxy-propyl)-1,3-dimethyl-3,7-dihydro-puri
60 62 1 0 0 
SMALL
USER_CHARGES


@<TRIPOS>ATOM
  1 O        1.1780     1.9340    -0.6110 O.2   1 <1>  -0.5740 
  2 C        2.3910     1.9630    -0.6430 C.2   1 <1>   0.6870 
  3 N        3.0520     3.1480    -0.9490 N.am  1 <1>  -0.4250 
  4 N        3.1160     0.8120    -0.3680 N.am  1 <1>  -0.4410 
  5 C        4.4390     3.2240    -0.9280 C.2   1 <1>   0.7000 
  6 C        2.2460     4.3710    -1.2550 C.3   1 <1>   0.0540 
  7 C        4.4940     0.9040    -0.3410 C.2   1 <1>   0.4210 
  8 C        2.4180    -0.4710    -0.0570 C.3   1 <1>   0.0540 
  9 O        5.0030     4.2760    -1.1840 O.2   1 <1>  -0.5740 
 10 C        5.1770     2.0370    -0.6050 C.2   1 <1>   0.2720 
 11 N        5.3850    -0.0790    -0.0380 N.pl3 1 <1>  -0.7030 
 12 N        6.5450     1.7200    -0.4530 N.pl3 1 <1>  -0.7670 
 13 C        6.6070     0.4410    -0.0970 C.cat 1 <1>   1.0690 
 14 C        7.6170     2.7650    -0.4580 C.3   1 <1>   0.3490 
 15 N        7.7260    -0.2220     0.1770 N.pl3 1 <1>  -0.7170 
 16 C        7.7730     3.4450     0.9270 C.3   1 <1>   0.1940 
 17 C        7.8720    -1.6290     0.5710 C.3   1 <1>   0.2420 
 18 O        6.5270     3.7970     1.4390 O.3   1 <1>  -0.6830 
 19 C        8.6360     4.7080     0.8450 C.3   1 <1>   0.1140 
 20 C        8.0340    -1.6880     2.0950 C.3   1 <1>  -0.1660 
 21 C        9.0820    -2.1860    -0.1760 C.3   1 <1>  -0.2460 
 22 O        8.0110     5.6160    -0.0330 O.3   1 <1>  -0.3670 
 23 C        8.0230    -3.1210     2.6440 C.3   1 <1>  -0.2460 
 24 C        8.6240     6.7620    -0.4150 C.ar  1 <1>   0.0760 
 25 C        8.0110     7.4890    -1.4220 C.ar  1 <1>  -0.1560 
 26 C        9.8130     7.2260     0.1390 C.ar  1 <1>  -0.1560 
 27 C        8.5780     8.6640    -1.8810 C.ar  1 <1>  -0.1560 
 28 C       10.3770     8.4020    -0.3240 C.ar  1 <1>  -0.1560 
 29 C        9.7640     9.1270    -1.3340 C.ar  1 <1>  -0.1500 
 30 C       10.3860    10.4150    -1.8410 C.3   1 <1>  -0.1030 
 31 H        1.9780     4.8650    -0.3370 H     1 <1>   0.0740 
 32 H        1.3450     4.1050    -1.7810 H     1 <1>   0.0740 
 33 H        2.8030     5.0560    -1.8710 H     1 <1>   0.0740 
 34 H        1.4280    -0.4760    -0.4820 H     1 <1>   0.0740 
 35 H        2.3330    -0.5880     1.0100 H     1 <1>   0.0740 
 36 H        2.9590    -1.3040    -0.4690 H     1 <1>   0.0740 
 37 H        5.1710    -1.0300     0.2420 H     1 <1>   0.4460 
 38 H        7.3860     3.5070    -1.2040 H     1 <1>   0.0740 
 39 H        8.5570     2.3260    -0.7430 H     1 <1>   0.0740 
 40 H        8.6120     0.2680     0.1060 H     1 <1>   0.4460 
 41 H        8.2180     2.7530     1.6190 H     1 <1>   0.0740 
 42 H        6.9970    -2.1870     0.2820 H     1 <1>   0.0740 
 43 H        6.2540     4.6520     1.0290 H     1 <1>   0.3950 
 44 H        9.6140     4.4770     0.4580 H     1 <1>   0.0740 
 45 H        8.7280     5.1700     1.8130 H     1 <1>   0.0740 
 46 H        7.2230    -1.1540     2.5600 H     1 <1>   0.0740 
 47 H        8.9560    -1.2140     2.3870 H     1 <1>   0.0740 
 48 H        9.9900    -1.7030     0.1380 H     1 <1>   0.0740 
 49 H        8.9600    -2.0660    -1.2380 H     1 <1>   0.0740 
 50 H        9.1830    -3.2390     0.0180 H     1 <1>   0.0740 
 51 H        7.1250    -3.6380     2.3530 H     1 <1>   0.0740 
 52 H        8.0660    -3.1010     3.7190 H     1 <1>   0.0740 
 53 H        8.8740    -3.6790     2.2920 H     1 <1>   0.0740 
 54 H        7.0890     7.1320    -1.8450 H     1 <1>   0.1440 
 55 H       10.3110     6.6960     0.9270 H     1 <1>   0.1440 
 56 H        8.0920     9.2170    -2.6650 H     1 <1>   0.1440 
 57 H       11.2980     8.7550     0.1060 H     1 <1>   0.1440 
 58 H       11.0300    10.2040    -2.6750 H     1 <1>   0.0740 
 59 H       10.9640    10.8850    -1.0650 H     1 <1>   0.0740 
 60 H        9.6210    11.1010    -2.1560 H     1 <1>   0.0740 
@<TRIPOS>BOND
  1   1   2  2   
  2   2   3  am  
  3   2   4  am  
  4   3   5  am  
  5   3   6  1   
  6   4   7  1   
  7   4   8  1   
  8   5   9  2   
  9   5  10  1   
 10   6  31  1   
 11   6  32  1   
 12   6  33  1   
 13   7  10  2   
 14   7  11  1   
 15   8  34  1   
 16   8  35  1   
 17   8  36  1   
 18  10  12  1   
 19  11  13  ar  
 20  11  37  1   
 21  12  13  ar  
 22  12  14  1   
 23  13  15  ar  
 24  14  16  1   
 25  14  38  1   
 26  14  39  1   
 27  15  17  1   
 28  15  40  1   
 29  16  18  1   
 30  16  19  1   
 31  16  41  1   
 32  17  20  1   
 33  17  21  1   
 34  17  42  1   
 35  18  43  1   
 36  19  22  1   
 37  19  44  1   
 38  19  45  1   
 39  20  23  1   
 40  20  46  1   
 41  20  47  1   
 42  21  48  1   
 43  21  49  1   
 44  21  50  1   
 45  22  24  1   
 46  23  51  1   
 47  23  52  1   
 48  23  53  1   
 49  24  25  ar  
 50  24  26  ar  
 51  25  27  ar  
 52  25  54  1   
 53  26  28  ar  
 54  26  55  1   
 55  27  29  ar  
 56  27  56  1   
 57  28  29  ar  
 58  28  57  1   
 59  29  30  1   
 60  30  58  1   
 61  30  59  1   
 62  30  60  1   
@<TRIPOS>SUBSTRUCTURE
  1 ****  14 GROUP 4 **** **** 0

# MOE 2024.06 (io_trps.svl 2023.06)
