@<TRIPOS>MOLECULE
2-Piperidin-1-ylmethyl-phenylamine
33 34 1 0 0 
SMALL
USER_CHARGES


@<TRIPOS>ATOM
  1 N       -0.1360    -0.6880     0.4680 N.4   1 <1>  -0.9590 
  2 C        0.9920    -1.2210     1.2730 C.3   1 <1>   0.3430 
  3 C        0.1290     0.6610    -0.1070 C.3   1 <1>   0.3430 
  4 C       -1.4320    -0.7500     1.1800 C.3   1 <1>   0.4860 
  5 C        2.2480    -1.3050     0.4030 C.3   1 <1>  -0.1600 
  6 C        1.3740     0.6030    -0.9940 C.3   1 <1>  -0.1600 
  7 C       -2.5370    -0.5540     0.1590 C.ar  1 <1>  -0.1440 
  8 C        2.5890     0.0470    -0.2390 C.3   1 <1>  -0.1600 
  9 C       -2.6280    -1.3880    -0.9570 C.ar  1 <1>   0.1000 
 10 C       -3.4470     0.4770     0.3290 C.ar  1 <1>  -0.1500 
 11 N       -1.7440    -2.4380    -1.1620 N.pl3 1 <1>  -0.9000 
 12 C       -3.6280    -1.1560    -1.8920 C.ar  1 <1>  -0.1500 
 13 C       -4.4430     0.6930    -0.6070 C.ar  1 <1>  -0.1500 
 14 C       -4.5300    -0.1240    -1.7200 C.ar  1 <1>  -0.1500 
 15 H       -0.3050    -1.3250    -0.3370 H     1 <1>   0.4500 
 16 H        0.7490    -2.2030     1.6460 H     1 <1>   0.0800 
 17 H        1.1800    -0.5720     2.1120 H     1 <1>   0.0800 
 18 H        0.2850     1.3720     0.6880 H     1 <1>   0.0800 
 19 H       -0.7140     0.9850    -0.6960 H     1 <1>   0.0800 
 20 H       -1.4810     0.0100     1.9410 H     1 <1>   0.0800 
 21 H       -1.5530    -1.7160     1.6410 H     1 <1>   0.0800 
 22 H        2.0990    -2.0460    -0.3640 H     1 <1>   0.0800 
 23 H        3.0750    -1.6310     1.0090 H     1 <1>   0.0800 
 24 H        1.5970     1.5930    -1.3510 H     1 <1>   0.0800 
 25 H        1.1650    -0.0090    -1.8540 H     1 <1>   0.0800 
 26 H        3.4190    -0.0690    -0.9170 H     1 <1>   0.0800 
 27 H        2.8870     0.7450     0.5270 H     1 <1>   0.0800 
 28 H       -3.3970     1.1270     1.1870 H     1 <1>   0.1500 
 29 H       -2.0530    -3.3010    -0.6930 H     1 <1>   0.4000 
 30 H       -1.6640    -2.6880    -2.1580 H     1 <1>   0.4000 
 31 H       -3.7100    -1.7860    -2.7600 H     1 <1>   0.1500 
 32 H       -5.1510     1.4940    -0.4740 H     1 <1>   0.1500 
 33 H       -5.3050     0.0450    -2.4500 H     1 <1>   0.1500 
@<TRIPOS>BOND
  1   1   2  1   
  2   1   3  1   
  3   1   4  1   
  4   1  15  1   
  5   2   5  1   
  6   2  16  1   
  7   2  17  1   
  8   3   6  1   
  9   3  18  1   
 10   3  19  1   
 11   4   7  1   
 12   4  20  1   
 13   4  21  1   
 14   5   8  1   
 15   5  22  1   
 16   5  23  1   
 17   6   8  1   
 18   6  24  1   
 19   6  25  1   
 20   7   9  ar  
 21   7  10  ar  
 22   8  26  1   
 23   8  27  1   
 24   9  11  1   
 25   9  12  ar  
 26  10  13  ar  
 27  10  28  1   
 28  11  29  1   
 29  11  30  1   
 30  12  14  ar  
 31  12  31  1   
 32  13  14  ar  
 33  13  32  1   
 34  14  33  1   
@<TRIPOS>SUBSTRUCTURE
  1 ****   1 GROUP 4 **** **** 0

# MOE 2024.06 (io_trps.svl 2023.06)
