@<TRIPOS>MOLECULE
N-Cyclopropyl-2-[4-(morpholine-4-sulfonyl)-phenoxy]-acetamide
43 45 1 0 0 
SMALL
USER_CHARGES


@<TRIPOS>ATOM
  1 S       -0.0270    -0.1710    -1.3010 S.o2  1 <1>   1.4470 
  2 O        0.0320    -1.6020    -1.5130 O.2   1 <1>  -0.6500 
  3 O       -1.1230     0.5870    -1.8640 O.2   1 <1>  -0.6500 
  4 N       -0.0800     0.0610     0.3750 N.am  1 <1>  -0.8490 
  5 C        1.5490     0.6000    -1.7640 C.ar  1 <1>  -0.0090 
  6 C       -1.4540    -0.0120     0.9050 C.3   1 <1>   0.1960 
  7 C        0.8160    -0.8260     1.1230 C.3   1 <1>   0.1960 
  8 C        2.4780    -0.0700    -2.5530 C.ar  1 <1>  -0.1500 
  9 C        1.8670     1.8840    -1.3380 C.ar  1 <1>  -0.1500 
 10 C       -1.5250    -0.3450     2.4140 C.3   1 <1>   0.1200 
 11 C        0.8280    -0.4740     2.6290 C.3   1 <1>   0.1200 
 12 C        3.6850     0.5150    -2.8910 C.ar  1 <1>  -0.1500 
 13 C        3.0710     2.4800    -1.6710 C.ar  1 <1>  -0.1500 
 14 O       -0.3780     0.0860     3.0870 O.3   1 <1>  -0.5600 
 15 C        3.9950     1.7890    -2.4490 C.ar  1 <1>   0.0830 
 16 O        5.2110     2.2770    -2.7990 O.3   1 <1>  -0.3630 
 17 C        5.6820     3.5500    -2.3620 C.3   1 <1>   0.1810 
 18 C        6.0200     3.5770    -0.8730 C.2   1 <1>   0.5690 
 19 O        6.2520     4.6460    -0.3590 O.2   1 <1>  -0.5700 
 20 N        6.0330     2.4110    -0.1730 N.am  1 <1>  -0.5790 
 21 C        6.2260     2.2650     1.2740 C.3   1 <1>   0.0490 
 22 C        6.7040     0.9490     1.7900 C.3   1 <1>  -0.2000 
 23 C        5.2820     1.3720     2.0090 C.3   1 <1>  -0.2000 
 24 H       -2.0180    -0.7600     0.3710 H     1 <1>   0.0800 
 25 H       -1.9380     0.9340     0.7310 H     1 <1>   0.0800 
 26 H        1.8190    -0.7520     0.7390 H     1 <1>   0.0800 
 27 H        0.4970    -1.8480     1.0040 H     1 <1>   0.0800 
 28 H        2.2530    -1.0640    -2.9060 H     1 <1>   0.1500 
 29 H        1.1570     2.4230    -0.7310 H     1 <1>   0.1500 
 30 H       -1.6190    -1.4070     2.5590 H     1 <1>   0.0800 
 31 H       -2.3760     0.1350     2.8610 H     1 <1>   0.0800 
 32 H        1.6010     0.2470     2.8250 H     1 <1>   0.0800 
 33 H        1.0320    -1.3540     3.2130 H     1 <1>   0.0800 
 34 H        4.3940    -0.0170    -3.5010 H     1 <1>   0.1500 
 35 H        3.2650     3.4740    -1.3110 H     1 <1>   0.1500 
 36 H        4.9400     4.2920    -2.5930 H     1 <1>   0.0800 
 37 H        6.5710     3.7720    -2.9210 H     1 <1>   0.0800 
 38 H        5.7800     1.5570    -0.6760 H     1 <1>   0.3700 
 39 H        6.5630     3.1710     1.7550 H     1 <1>   0.1000 
 40 H        7.3690     0.9410     2.6360 H     1 <1>   0.1000 
 41 H        6.9170     0.1620     1.0890 H     1 <1>   0.1000 
 42 H        4.4950     0.8900     1.4570 H     1 <1>   0.1000 
 43 H        4.9810     1.6530     3.0030 H     1 <1>   0.1000 
@<TRIPOS>BOND
  1   1   2  2   
  2   1   3  2   
  3   1   4  am  
  4   1   5  1   
  5   4   6  1   
  6   4   7  1   
  7   5   8  ar  
  8   5   9  ar  
  9   6  10  1   
 10   6  24  1   
 11   6  25  1   
 12   7  11  1   
 13   7  26  1   
 14   7  27  1   
 15   8  12  ar  
 16   8  28  1   
 17   9  13  ar  
 18   9  29  1   
 19  10  14  1   
 20  10  30  1   
 21  10  31  1   
 22  11  14  1   
 23  11  32  1   
 24  11  33  1   
 25  12  15  ar  
 26  12  34  1   
 27  13  15  ar  
 28  13  35  1   
 29  15  16  1   
 30  16  17  1   
 31  17  18  1   
 32  17  36  1   
 33  17  37  1   
 34  18  19  2   
 35  18  20  am  
 36  20  21  1   
 37  20  38  1   
 38  21  22  1   
 39  21  23  1   
 40  21  39  1   
 41  22  23  1   
 42  22  40  1   
 43  22  41  1   
 44  23  42  1   
 45  23  43  1   
@<TRIPOS>SUBSTRUCTURE
  1 ****   9 GROUP 4 **** **** 0

# MOE 2024.06 (io_trps.svl 2023.06)
