@<TRIPOS>MOLECULE
(5,6-Dimethyl-benzoimidazol-1-yl)-pyrrolidin-1-yl-methanone
35 37 1 0 0 
SMALL
USER_CHARGES


@<TRIPOS>ATOM
  1 O       -0.4390     0.3610    -1.5330 O.2   1 <1>  -0.5700 
  2 C       -0.8670     1.4390    -1.1600 C.2   1 <1>   0.6390 
  3 N       -0.0630     2.5870    -1.2710 N.pl3 1 <1>   0.2940 
  4 N       -2.1420     1.5110    -0.6340 N.am  1 <1>  -0.6600 
  5 C        1.2100     2.7870    -0.8010 C.ar  1 <1>  -0.1520 
  6 C       -0.4350     3.8210    -1.7370 C.2   1 <1>   0.0360 
  7 C       -2.6640     2.6220     0.1970 C.3   1 <1>   0.1400 
  8 C       -3.0070     0.3150    -0.5160 C.3   1 <1>   0.1400 
  9 C        1.4960     4.1200    -1.0050 C.ar  1 <1>   0.2270 
 10 C        2.1440     1.9370    -0.2090 C.ar  1 <1>  -0.1500 
 11 N        0.4400     4.7500    -1.5960 N.2   1 <1>  -0.5650 
 12 C       -3.7280     1.9790     1.0780 C.3   1 <1>  -0.1600 
 13 C       -4.2260     0.7860     0.2680 C.3   1 <1>  -0.1600 
 14 C        2.7260     4.6350    -0.6140 C.ar  1 <1>  -0.1500 
 15 C        3.3670     2.4470     0.1800 C.ar  1 <1>  -0.1430 
 16 C        3.6620     3.8070    -0.0230 C.ar  1 <1>  -0.1430 
 17 C        4.3820     1.5140     0.8240 C.3   1 <1>  -0.0970 
 18 C        5.0030     4.3910     0.3970 C.3   1 <1>  -0.0970 
 19 H       -1.4030     3.9630    -2.1820 H     1 <1>   0.1500 
 20 H       -3.1130     3.3630    -0.4420 H     1 <1>   0.0800 
 21 H       -1.8860     3.0740     0.7910 H     1 <1>   0.0800 
 22 H       -2.4790    -0.4510     0.0290 H     1 <1>   0.0800 
 23 H       -3.2770    -0.0590    -1.4890 H     1 <1>   0.0800 
 24 H        1.8980     0.8980    -0.0700 H     1 <1>   0.1500 
 25 H       -4.5170     2.6680     1.3230 H     1 <1>   0.0800 
 26 H       -3.2680     1.6360     1.9890 H     1 <1>   0.0800 
 27 H       -4.6260     0.0050     0.8900 H     1 <1>   0.0800 
 28 H       -4.9860     1.1040    -0.4250 H     1 <1>   0.0800 
 29 H        2.9140     5.6770    -0.7880 H     1 <1>   0.1500 
 30 H        3.9940     0.5140     0.8950 H     1 <1>   0.0800 
 31 H        4.6200     1.8540     1.8150 H     1 <1>   0.0800 
 32 H        5.2810     1.4840     0.2350 H     1 <1>   0.0800 
 33 H        5.0530     5.4410     0.1700 H     1 <1>   0.0800 
 34 H        5.8000     3.8950    -0.1260 H     1 <1>   0.0800 
 35 H        5.1440     4.2680     1.4550 H     1 <1>   0.0800 
@<TRIPOS>BOND
  1   1   2  2   
  2   2   3  1   
  3   2   4  am  
  4   3   5  1   
  5   3   6  1   
  6   4   7  1   
  7   4   8  1   
  8   5   9  ar  
  9   5  10  ar  
 10   6  11  2   
 11   6  19  1   
 12   7  12  1   
 13   7  20  1   
 14   7  21  1   
 15   8  13  1   
 16   8  22  1   
 17   8  23  1   
 18   9  11  1   
 19   9  14  ar  
 20  10  15  ar  
 21  10  24  1   
 22  12  13  1   
 23  12  25  1   
 24  12  26  1   
 25  13  27  1   
 26  13  28  1   
 27  14  16  ar  
 28  14  29  1   
 29  15  16  ar  
 30  15  17  1   
 31  16  18  1   
 32  17  30  1   
 33  17  31  1   
 34  17  32  1   
 35  18  33  1   
 36  18  34  1   
 37  18  35  1   
@<TRIPOS>SUBSTRUCTURE
  1 ****   5 GROUP 4 **** **** 0

# MOE 2024.06 (io_trps.svl 2023.06)
