@<TRIPOS>MOLECULE
N-{1-[3-(4-Methoxy-phenyl)-[1,2,4]oxadiazol-5-yl]-ethyl}-isobutyramide
40 41 1 0 0 
SMALL
USER_CHARGES


@<TRIPOS>ATOM
  1 O       -1.3120    -0.7720     0.6150 O.2   1 <1>  -0.5700 
  2 C       -2.3240    -0.4420     0.0490 C.2   1 <1>   0.5690 
  3 N       -3.5270    -0.9620     0.3910 N.am  1 <1>  -0.7300 
  4 C       -2.2520     0.5860    -1.0810 C.3   1 <1>  -0.0190 
  5 C       -3.7260    -2.0200     1.4000 C.3   1 <1>   0.4000 
  6 C       -3.0470     1.8610    -0.7510 C.3   1 <1>  -0.2400 
  7 C       -2.7250    -0.0020    -2.4220 C.3   1 <1>  -0.2400 
  8 C       -4.4060    -3.2340     0.7600 C.2   1 <1>   0.2980 
  9 C       -4.5390    -1.4160     2.5470 C.3   1 <1>  -0.2400 
 10 O       -3.6480    -4.0920     0.1290 O.3   1 <1>  -0.0190 
 11 N       -5.6500    -3.5060     0.7570 N.2   1 <1>  -0.5650 
 12 N       -4.4770    -4.9870    -0.3090 N.2   1 <1>  -0.4100 
 13 C       -5.6610    -4.6460     0.0580 C.2   1 <1>   0.4620 
 14 C       -6.8830    -5.3780    -0.2310 C.ar  1 <1>   0.0540 
 15 C       -8.1270    -4.9470     0.2370 C.ar  1 <1>  -0.1500 
 16 C       -6.8630    -6.5480    -0.9930 C.ar  1 <1>  -0.1500 
 17 C       -9.2860    -5.6460    -0.0430 C.ar  1 <1>  -0.1500 
 18 C       -8.0180    -7.2540    -1.2780 C.ar  1 <1>  -0.1500 
 19 C       -9.2450    -6.8030    -0.8020 C.ar  1 <1>   0.0820 
 20 O      -10.4230    -7.4290    -1.0320 O.3   1 <1>  -0.3620 
 21 C      -10.4900    -8.6150    -1.7930 C.3   1 <1>   0.0400 
 22 H       -4.3640    -0.6900    -0.1230 H     1 <1>   0.3700 
 23 H       -1.2170     0.8630    -1.1900 H     1 <1>   0.0800 
 24 H       -2.7720    -2.3380     1.7880 H     1 <1>   0.0800 
 25 H       -4.0970     1.6470    -0.6600 H     1 <1>   0.0800 
 26 H       -2.9110     2.5960    -1.5240 H     1 <1>   0.0800 
 27 H       -2.7000     2.2780     0.1780 H     1 <1>   0.0800 
 28 H       -3.7660    -0.2670    -2.3810 H     1 <1>   0.0800 
 29 H       -2.1550    -0.8850    -2.6540 H     1 <1>   0.0800 
 30 H       -2.5810     0.7110    -3.2140 H     1 <1>   0.0800 
 31 H       -5.4960    -1.0750     2.1940 H     1 <1>   0.0800 
 32 H       -4.0020    -0.5930     2.9840 H     1 <1>   0.0800 
 33 H       -4.7000    -2.1600     3.3060 H     1 <1>   0.0800 
 34 H       -8.1890    -4.0510     0.8290 H     1 <1>   0.1500 
 35 H       -5.9230    -6.9130    -1.3700 H     1 <1>   0.1500 
 36 H      -10.2350    -5.2990     0.3250 H     1 <1>   0.1500 
 37 H       -7.9450    -8.1470    -1.8690 H     1 <1>   0.1500 
 38 H      -11.5180    -8.9240    -1.8400 H     1 <1>   0.0800 
 39 H       -9.9020    -9.3740    -1.3080 H     1 <1>   0.0800 
 40 H      -10.1220    -8.4150    -2.7830 H     1 <1>   0.0800 
@<TRIPOS>BOND
  1   1   2  2   
  2   2   3  am  
  3   2   4  1   
  4   3   5  1   
  5   3  22  1   
  6   4   6  1   
  7   4   7  1   
  8   4  23  1   
  9   5   8  1   
 10   5   9  1   
 11   5  24  1   
 12   6  25  1   
 13   6  26  1   
 14   6  27  1   
 15   7  28  1   
 16   7  29  1   
 17   7  30  1   
 18   8  10  1   
 19   8  11  2   
 20   9  31  1   
 21   9  32  1   
 22   9  33  1   
 23  10  12  1   
 24  11  13  1   
 25  12  13  2   
 26  13  14  1   
 27  14  15  ar  
 28  14  16  ar  
 29  15  17  ar  
 30  15  34  1   
 31  16  18  ar  
 32  16  35  1   
 33  17  19  ar  
 34  17  36  1   
 35  18  19  ar  
 36  18  37  1   
 37  19  20  1   
 38  20  21  1   
 39  21  38  1   
 40  21  39  1   
 41  21  40  1   
@<TRIPOS>SUBSTRUCTURE
  1 ****  11 GROUP 4 **** **** 0

# MOE 2024.06 (io_trps.svl 2023.06)
