@<TRIPOS>MOLECULE
(4-Benzo[1,3]dioxol-5-ylmethyl-piperazin-1-yl)-(1-methanesulfonyl-piperidin-3-yl
56 59 1 0 0 
SMALL
USER_CHARGES


@<TRIPOS>ATOM
  1 S        1.1000     0.1360     1.7370 S.o2  1 <1>   1.3330 
  2 O        2.1070     0.6340     2.6460 O.2   1 <1>  -0.6500 
  3 O       -0.0720    -0.5440     2.2350 O.2   1 <1>  -0.6500 
  4 N        1.8800    -0.9000     0.6470 N.am  1 <1>  -0.8490 
  5 C        0.5490     1.5010     0.7310 C.3   1 <1>  -0.1350 
  6 C        3.0860    -0.3400     0.0360 C.3   1 <1>   0.1960 
  7 C        1.0020    -1.5630    -0.3200 C.3   1 <1>   0.1960 
  8 C        3.9180    -1.4740    -0.5720 C.3   1 <1>  -0.0190 
  9 C        1.7600    -2.7030    -1.0140 C.3   1 <1>  -0.1600 
 10 C        5.2220    -0.9280    -1.1500 C.2   1 <1>   0.5690 
 11 C        3.0900    -2.2330    -1.6260 C.3   1 <1>  -0.1600 
 12 O        5.2050     0.1850    -1.6180 O.2   1 <1>  -0.5700 
 13 N        6.3960    -1.6490    -1.1180 N.am  1 <1>  -0.6600 
 14 C        7.6790    -1.0210    -1.5600 C.3   1 <1>   0.1400 
 15 C        6.6080    -2.9800    -0.4740 C.3   1 <1>   0.1400 
 16 C        8.6050    -0.8320    -0.3460 C.3   1 <1>   0.3430 
 17 C        7.5300    -2.8210     0.7550 C.3   1 <1>   0.3430 
 18 N        8.8220    -2.1220     0.4150 N.4   1 <1>  -0.9590 
 19 C        9.6520    -1.8950     1.6310 C.3   1 <1>   0.4860 
 20 C       11.0020    -1.3580     1.1990 C.ar  1 <1>  -0.1440 
 21 C       11.9220    -2.2050     0.5860 C.ar  1 <1>  -0.1500 
 22 C       11.3190    -0.0140     1.4070 C.ar  1 <1>  -0.1500 
 23 C       13.1290    -1.6700     0.1840 C.ar  1 <1>   0.0820 
 24 C       12.5420     0.5020     0.9970 C.ar  1 <1>  -0.1500 
 25 O       14.1420    -2.2900    -0.4260 O.3   1 <1>  -0.3630 
 26 C       13.4310    -0.3550     0.3820 C.ar  1 <1>   0.0820 
 27 C       15.1670    -1.3120    -0.6120 C.3   1 <1>   0.4000 
 28 O       14.6510    -0.0870    -0.0930 O.3   1 <1>  -0.3620 
 29 H       -0.1270     1.1600    -0.0270 H     1 <1>   0.0800 
 30 H        1.3840     1.9880     0.2670 H     1 <1>   0.0800 
 31 H        0.0380     2.2160     1.3440 H     1 <1>   0.0800 
 32 H        3.6790     0.1610     0.7840 H     1 <1>   0.0800 
 33 H        2.8200     0.3780    -0.7230 H     1 <1>   0.0800 
 34 H        0.6570    -0.8530    -1.0520 H     1 <1>   0.0800 
 35 H        0.1450    -1.9750     0.1880 H     1 <1>   0.0800 
 36 H        4.1380    -2.1310     0.2450 H     1 <1>   0.0800 
 37 H        1.1370    -3.1270    -1.7820 H     1 <1>   0.0800 
 38 H        1.9480    -3.4750    -0.2880 H     1 <1>   0.0800 
 39 H        3.6420    -3.0800    -1.9950 H     1 <1>   0.0800 
 40 H        2.8900    -1.5790    -2.4580 H     1 <1>   0.0800 
 41 H        7.5060    -0.0640    -2.0230 H     1 <1>   0.0800 
 42 H        8.1550    -1.6490    -2.2940 H     1 <1>   0.0800 
 43 H        7.0680    -3.6450    -1.1850 H     1 <1>   0.0800 
 44 H        5.6820    -3.4340    -0.1780 H     1 <1>   0.0800 
 45 H        8.1590    -0.0960     0.3030 H     1 <1>   0.0800 
 46 H        9.5510    -0.4400    -0.6850 H     1 <1>   0.0800 
 47 H        7.7370    -3.7950     1.1680 H     1 <1>   0.0800 
 48 H        6.9980    -2.2540     1.5010 H     1 <1>   0.0800 
 49 H        9.3740    -2.7310    -0.2010 H     1 <1>   0.4500 
 50 H        9.7920    -2.8210     2.1660 H     1 <1>   0.0800 
 51 H        9.1690    -1.1900     2.2880 H     1 <1>   0.0800 
 52 H       11.7370    -3.2500     0.4170 H     1 <1>   0.1500 
 53 H       10.6210     0.6500     1.8920 H     1 <1>   0.1500 
 54 H       12.8060     1.5340     1.1480 H     1 <1>   0.1500 
 55 H       15.3770    -1.2010    -1.6620 H     1 <1>   0.0800 
 56 H       16.0440    -1.5980    -0.0580 H     1 <1>   0.0800 
@<TRIPOS>BOND
  1   1   2  2   
  2   1   3  2   
  3   1   4  am  
  4   1   5  1   
  5   4   6  1   
  6   4   7  1   
  7   5  29  1   
  8   5  30  1   
  9   5  31  1   
 10   6   8  1   
 11   6  32  1   
 12   6  33  1   
 13   7   9  1   
 14   7  34  1   
 15   7  35  1   
 16   8  10  1   
 17   8  11  1   
 18   8  36  1   
 19   9  11  1   
 20   9  37  1   
 21   9  38  1   
 22  10  12  2   
 23  10  13  am  
 24  11  39  1   
 25  11  40  1   
 26  13  14  1   
 27  13  15  1   
 28  14  16  1   
 29  14  41  1   
 30  14  42  1   
 31  15  17  1   
 32  15  43  1   
 33  15  44  1   
 34  16  18  1   
 35  16  45  1   
 36  16  46  1   
 37  17  18  1   
 38  17  47  1   
 39  17  48  1   
 40  18  19  1   
 41  18  49  1   
 42  19  20  1   
 43  19  50  1   
 44  19  51  1   
 45  20  21  ar  
 46  20  22  ar  
 47  21  23  ar  
 48  21  52  1   
 49  22  24  ar  
 50  22  53  1   
 51  23  25  1   
 52  23  26  ar  
 53  24  26  ar  
 54  24  54  1   
 55  25  27  1   
 56  26  28  1   
 57  27  28  1   
 58  27  55  1   
 59  27  56  1   
@<TRIPOS>SUBSTRUCTURE
  1 ****  16 GROUP 4 **** **** 0

# MOE 2024.06 (io_trps.svl 2023.06)
