@<TRIPOS>MOLECULE
1-(2,3-Dimethyl-indol-1-yl)-3-methylamino-propan-2-ol
38 39 1 0 0 
SMALL
USER_CHARGES


@<TRIPOS>ATOM
  1 O       -0.4620     0.4000     1.0500 O.3   1 <1>  -0.6800 
  2 C       -0.3570     1.6790     0.4940 C.3   1 <1>   0.2000 
  3 C       -0.0650     2.7030     1.6050 C.3   1 <1>   0.0960 
  4 C       -1.6630     1.9850    -0.2810 C.3   1 <1>   0.3430 
  5 N       -0.3200     4.0660     1.0950 N.pl3 1 <1>   0.0480 
  6 N       -2.1790     0.7610    -0.9600 N.4   1 <1>  -0.9060 
  7 C       -1.5590     4.6660     1.1300 C.ar  1 <1>  -0.1520 
  8 C        0.4350     4.7120     0.1490 C.2   1 <1>  -0.3320 
  9 C       -3.6110     0.8790    -1.3550 C.3   1 <1>   0.2630 
 10 C       -1.5860     5.6690     0.1690 C.ar  1 <1>   0.0000 
 11 C       -2.6870     4.4070     1.9180 C.ar  1 <1>  -0.1500 
 12 C       -0.3090     5.6880    -0.4300 C.2   1 <1>  -0.1810 
 13 C        1.8900     4.3510    -0.1250 C.3   1 <1>  -0.0600 
 14 C       -2.7550     6.4120    -0.0270 C.ar  1 <1>  -0.1500 
 15 C       -3.8310     5.1430     1.7150 C.ar  1 <1>  -0.1500 
 16 C        0.0630     6.6840    -1.5140 C.3   1 <1>  -0.0590 
 17 C       -3.8660     6.1450     0.7390 C.ar  1 <1>  -0.1500 
 18 H        0.3590     0.1510     1.5310 H     1 <1>   0.4000 
 19 H        0.4660     1.6630    -0.1990 H     1 <1>   0.0800 
 20 H        0.9600     2.6370     1.9220 H     1 <1>   0.0800 
 21 H       -0.7020     2.5290     2.4520 H     1 <1>   0.0800 
 22 H       -1.4930     2.7820    -0.9890 H     1 <1>   0.0800 
 23 H       -2.3970     2.3330     0.4250 H     1 <1>   0.0800 
 24 H       -2.0350     0.0010    -0.2710 H     1 <1>   0.4500 
 25 H       -1.5860     0.5290    -1.7650 H     1 <1>   0.4500 
 26 H       -4.2220     1.0820    -0.4900 H     1 <1>   0.0800 
 27 H       -3.9500    -0.0390    -1.8080 H     1 <1>   0.0800 
 28 H       -3.7390     1.6820    -2.0630 H     1 <1>   0.0800 
 29 H       -2.6610     3.6520     2.6840 H     1 <1>   0.1500 
 30 H        2.4470     4.3470     0.7960 H     1 <1>   0.0800 
 31 H        2.3490     5.0710    -0.7770 H     1 <1>   0.0800 
 32 H        1.9690     3.3860    -0.5880 H     1 <1>   0.0800 
 33 H       -2.7670     7.1870    -0.7710 H     1 <1>   0.1500 
 34 H       -4.7090     4.9660     2.3110 H     1 <1>   0.1500 
 35 H        1.0540     6.5080    -1.8870 H     1 <1>   0.0800 
 36 H        0.0190     7.6810    -1.1160 H     1 <1>   0.0800 
 37 H       -0.6280     6.6070    -2.3330 H     1 <1>   0.0800 
 38 H       -4.7700     6.7130     0.6000 H     1 <1>   0.1500 
@<TRIPOS>BOND
  1   1   2  1   
  2   1  18  1   
  3   2   3  1   
  4   2   4  1   
  5   2  19  1   
  6   3   5  1   
  7   3  20  1   
  8   3  21  1   
  9   4   6  1   
 10   4  22  1   
 11   4  23  1   
 12   5   7  1   
 13   5   8  1   
 14   6   9  1   
 15   6  24  1   
 16   6  25  1   
 17   7  10  ar  
 18   7  11  ar  
 19   8  12  2   
 20   8  13  1   
 21   9  26  1   
 22   9  27  1   
 23   9  28  1   
 24  10  12  1   
 25  10  14  ar  
 26  11  15  ar  
 27  11  29  1   
 28  12  16  1   
 29  13  30  1   
 30  13  31  1   
 31  13  32  1   
 32  14  17  ar  
 33  14  33  1   
 34  15  17  ar  
 35  15  34  1   
 36  16  35  1   
 37  16  36  1   
 38  16  37  1   
 39  17  38  1   
@<TRIPOS>SUBSTRUCTURE
  1 ****   7 GROUP 4 **** **** 0

# MOE 2024.06 (io_trps.svl 2023.06)
