@<TRIPOS>MOLECULE
4-(Piperidine-1-carbonyl)-piperazine-1-sulfonic acid dimethylamide
44 45 1 0 0 
SMALL
USER_CHARGES


@<TRIPOS>ATOM
  1 S        0.0570    -0.2460    -0.7470 S.o2  1 <1>   1.5760 
  2 O       -0.6570     0.6660    -1.6140 O.2   1 <1>  -0.6500 
  3 O        0.5920    -1.4850    -1.2640 O.2   1 <1>  -0.6500 
  4 N        1.3040     0.5980     0.0100 N.am  1 <1>  -0.8490 
  5 N       -0.9270    -0.5830     0.5880 N.am  1 <1>  -0.8490 
  6 C        2.1150    -0.2870     0.8670 C.3   1 <1>   0.1960 
  7 C        2.1690     1.2500    -0.9830 C.3   1 <1>   0.1960 
  8 C       -1.5690     0.6190     1.1250 C.3   1 <1>   0.1160 
  9 C       -1.9330    -1.5950     0.2690 C.3   1 <1>   0.1160 
 10 C        3.2060     0.5030     1.6080 C.3   1 <1>   0.1400 
 11 C        3.2780     2.0820    -0.3150 C.3   1 <1>   0.1400 
 12 N        4.0650     1.2530     0.6450 N.am  1 <1>  -0.6600 
 13 C        5.2970     0.7650     0.2940 C.2   1 <1>   0.6900 
 14 O        5.5440    -0.4160     0.4730 O.2   1 <1>  -0.5700 
 15 N        6.2380     1.5860    -0.2750 N.am  1 <1>  -0.6600 
 16 C        7.3820     1.0220    -1.0400 C.3   1 <1>   0.1400 
 17 C        6.3940     3.0110     0.1260 C.3   1 <1>   0.1400 
 18 C        8.6780     1.1880    -0.2420 C.3   1 <1>  -0.1600 
 19 C        7.6910     3.1900     0.9230 C.3   1 <1>  -0.1600 
 20 C        8.9100     2.6500     0.1630 C.3   1 <1>  -0.1600 
 21 H        2.5830    -1.0570     0.2760 H     1 <1>   0.0800 
 22 H        1.4820    -0.7670     1.5940 H     1 <1>   0.0800 
 23 H        1.5760     1.9020    -1.6020 H     1 <1>   0.0800 
 24 H        2.6200     0.5060    -1.6210 H     1 <1>   0.0800 
 25 H       -0.8220     1.3480     1.3910 H     1 <1>   0.0800 
 26 H       -2.1320     0.3740     2.0080 H     1 <1>   0.0800 
 27 H       -2.2310     1.0540     0.3940 H     1 <1>   0.0800 
 28 H       -1.4500    -2.5030    -0.0520 H     1 <1>   0.0800 
 29 H       -2.5780    -1.2480    -0.5220 H     1 <1>   0.0800 
 30 H       -2.5250    -1.8170     1.1390 H     1 <1>   0.0800 
 31 H        3.8060    -0.1750     2.1900 H     1 <1>   0.0800 
 32 H        2.7430     1.1980     2.2850 H     1 <1>   0.0800 
 33 H        2.8340     2.9070     0.2130 H     1 <1>   0.0800 
 34 H        3.9210     2.4790    -1.0790 H     1 <1>   0.0800 
 35 H        7.4620     1.5420    -1.9790 H     1 <1>   0.0800 
 36 H        7.2140    -0.0200    -1.2520 H     1 <1>   0.0800 
 37 H        5.5630     3.3260     0.7320 H     1 <1>   0.0800 
 38 H        6.4200     3.6220    -0.7600 H     1 <1>   0.0800 
 39 H        9.5060     0.8380    -0.8320 H     1 <1>   0.0800 
 40 H        8.6200     0.5700     0.6380 H     1 <1>   0.0800 
 41 H        7.5920     2.6710     1.8610 H     1 <1>   0.0800 
 42 H        7.8330     4.2340     1.1410 H     1 <1>   0.0800 
 43 H        9.0740     3.2440    -0.7200 H     1 <1>   0.0800 
 44 H        9.7870     2.7210     0.7830 H     1 <1>   0.0800 
@<TRIPOS>BOND
  1   1   2  2   
  2   1   3  2   
  3   1   4  am  
  4   1   5  am  
  5   4   6  1   
  6   4   7  1   
  7   5   8  1   
  8   5   9  1   
  9   6  10  1   
 10   6  21  1   
 11   6  22  1   
 12   7  11  1   
 13   7  23  1   
 14   7  24  1   
 15   8  25  1   
 16   8  26  1   
 17   8  27  1   
 18   9  28  1   
 19   9  29  1   
 20   9  30  1   
 21  10  12  1   
 22  10  31  1   
 23  10  32  1   
 24  11  12  1   
 25  11  33  1   
 26  11  34  1   
 27  12  13  am  
 28  13  14  2   
 29  13  15  am  
 30  15  16  1   
 31  15  17  1   
 32  16  18  1   
 33  16  35  1   
 34  16  36  1   
 35  17  19  1   
 36  17  37  1   
 37  17  38  1   
 38  18  20  1   
 39  18  39  1   
 40  18  40  1   
 41  19  20  1   
 42  19  41  1   
 43  19  42  1   
 44  20  43  1   
 45  20  44  1   
@<TRIPOS>SUBSTRUCTURE
  1 ****  12 GROUP 4 **** **** 0

# MOE 2024.06 (io_trps.svl 2023.06)
