@<TRIPOS>MOLECULE
4-Amino-1-(3-methoxy-phenyl)-pyrrolidin-2-one
30 31 1 0 0 
SMALL
USER_CHARGES


@<TRIPOS>ATOM
  1 O       -0.6290    -0.4640     1.0050 O.2   1 <1>  -0.5700 
  2 C       -1.5700    -0.7020     0.2990 C.2   1 <1>   0.5690 
  3 N       -2.5730     0.1530    -0.0640 N.am  1 <1>  -0.4770 
  4 C       -1.8280    -2.0910    -0.2120 C.3   1 <1>  -0.0990 
  5 C       -2.6120     1.5550     0.0800 C.ar  1 <1>   0.1170 
  6 C       -3.5770    -0.5780    -0.8620 C.3   1 <1>   0.1400 
  7 C       -3.3300    -2.0460    -0.4670 C.3   1 <1>   0.4230 
  8 C       -1.4520     2.3120    -0.0390 C.ar  1 <1>  -0.1500 
  9 C       -3.8090     2.2210     0.3360 C.ar  1 <1>  -0.1500 
 10 N       -4.0270    -2.3500     0.8170 N.4   1 <1>  -0.8530 
 11 C       -1.4750     3.6900     0.0780 C.ar  1 <1>   0.0820 
 12 C       -3.8430     3.5980     0.4570 C.ar  1 <1>  -0.1500 
 13 O       -0.2900     4.3330    -0.0630 O.3   1 <1>  -0.3630 
 14 C       -2.6810     4.3380     0.3280 C.ar  1 <1>  -0.1500 
 15 C       -0.1860     5.7290     0.1120 C.3   1 <1>   0.0400 
 16 H       -1.5260    -2.8430     0.4930 H     1 <1>   0.0800 
 17 H       -1.2860    -2.2190    -1.1310 H     1 <1>   0.0800 
 18 H       -3.3650    -0.4250    -1.9070 H     1 <1>   0.0800 
 19 H       -4.5810    -0.2590    -0.6480 H     1 <1>   0.0800 
 20 H       -3.6360    -2.7320    -1.2410 H     1 <1>   0.0800 
 21 H       -0.5080     1.8340    -0.2270 H     1 <1>   0.1500 
 22 H       -4.7250     1.6760     0.4500 H     1 <1>   0.1500 
 23 H       -3.7550    -1.6570     1.5310 H     1 <1>   0.4500 
 24 H       -3.7680    -3.2780     1.1740 H     1 <1>   0.4500 
 25 H       -5.0480    -2.3190     0.7200 H     1 <1>   0.4500 
 26 H       -4.7750     4.1020     0.6540 H     1 <1>   0.1500 
 27 H       -2.7330     5.4060     0.4240 H     1 <1>   0.1500 
 28 H        0.8440     6.0050    -0.0170 H     1 <1>   0.0800 
 29 H       -0.5100     5.9810     1.1060 H     1 <1>   0.0800 
 30 H       -0.7920     6.2190    -0.6290 H     1 <1>   0.0800 
@<TRIPOS>BOND
  1   1   2  2   
  2   2   3  am  
  3   2   4  1   
  4   3   5  1   
  5   3   6  1   
  6   4   7  1   
  7   4  16  1   
  8   4  17  1   
  9   5   8  ar  
 10   5   9  ar  
 11   6   7  1   
 12   6  18  1   
 13   6  19  1   
 14   7  10  1   
 15   7  20  1   
 16   8  11  ar  
 17   8  21  1   
 18   9  12  ar  
 19   9  22  1   
 20  10  23  1   
 21  10  24  1   
 22  10  25  1   
 23  11  13  1   
 24  11  14  ar  
 25  12  14  ar  
 26  12  26  1   
 27  13  15  1   
 28  14  27  1   
 29  15  28  1   
 30  15  29  1   
 31  15  30  1   
@<TRIPOS>SUBSTRUCTURE
  1 ****   5 GROUP 4 **** **** 0

# MOE 2024.06 (io_trps.svl 2023.06)
