@<TRIPOS>MOLECULE
8-[4-(Furan-2-carbonyl)-piperazin-1-ylmethyl]-7-isobutyl-1,3-dimethyl-3,7-dihydr
60 63 1 0 0 
SMALL
USER_CHARGES


@<TRIPOS>ATOM
  1 O        0.2170     0.9270     1.4480 O.2   1 <1>  -0.5700 
  2 C        1.2900     1.3380     1.0560 C.2   1 <1>   0.6900 
  3 N        1.3430     2.3240     0.0770 N.am  1 <1>  -0.4200 
  4 N        2.4620     0.8140     1.5800 N.am  1 <1>  -0.4360 
  5 C        2.5540     2.7540    -0.4500 C.2   1 <1>   0.7030 
  6 C        0.0600     2.8910    -0.4460 C.3   1 <1>   0.0600 
  7 C        3.6610     1.2520     1.0520 C.2   1 <1>   0.4260 
  8 C        2.4230    -0.2100     2.6660 C.3   1 <1>   0.0600 
  9 O        2.5770     3.5850    -1.3410 O.2   1 <1>  -0.5700 
 10 C        3.7650     2.1860     0.0750 C.2   1 <1>   0.2770 
 11 N        4.9100     0.8450     1.3820 N.pl3 1 <1>  -0.7000 
 12 N        5.1350     2.3440    -0.1800 N.pl3 1 <1>  -0.7640 
 13 C        5.7790     1.5110     0.6320 C.cat 1 <1>   0.6560 
 14 C        5.7020     3.2940    -1.1820 C.3   1 <1>   0.3540 
 15 C        7.2940     1.2790     0.7500 C.3   1 <1>   0.2540 
 16 C        6.2320     4.5740    -0.5030 C.3   1 <1>  -0.0800 
 17 N        7.6130    -0.0790     1.2690 N.3   1 <1>  -0.8100 
 18 C        5.1410     5.3380     0.2660 C.3   1 <1>  -0.2400 
 19 C        6.8570     5.5060    -1.5510 C.3   1 <1>  -0.2400 
 20 C        7.4420    -1.1150     0.2150 C.3   1 <1>   0.1100 
 21 C        9.0000    -0.1200     1.7970 C.3   1 <1>   0.1100 
 22 C        7.7770    -2.5270     0.7280 C.3   1 <1>   0.1400 
 23 C        9.3610    -1.5090     2.3480 C.3   1 <1>   0.1400 
 24 N        9.1520    -2.5460     1.2960 N.am  1 <1>  -0.6600 
 25 C       10.2210    -3.0710     0.5960 C.2   1 <1>   0.7150 
 26 O       11.2790    -2.4660     0.6320 O.2   1 <1>  -0.5700 
 27 C       10.0860    -4.2930    -0.1690 C.2   1 <1>   0.0550 
 28 O       10.7880    -4.4920    -1.2820 O.3   1 <1>  -0.2800 
 29 C        9.3040    -5.3910     0.0410 C.2   1 <1>  -0.1500 
 30 C       10.4780    -5.6670    -1.7800 C.2   1 <1>  -0.0100 
 31 C        9.5590    -6.2790    -1.0050 C.2   1 <1>  -0.1500 
 32 H       -0.3310     2.2500    -1.2170 H     1 <1>   0.0800 
 33 H        0.2110     3.8760    -0.8530 H     1 <1>   0.0800 
 34 H       -0.6670     2.9650     0.3450 H     1 <1>   0.0800 
 35 H        1.4990    -0.1430     3.2160 H     1 <1>   0.0800 
 36 H        3.2330    -0.0560     3.3570 H     1 <1>   0.0800 
 37 H        2.4960    -1.1950     2.2380 H     1 <1>   0.0800 
 38 H        5.2060     0.1370     2.0600 H     1 <1>   0.4500 
 39 H        4.9540     3.5560    -1.9110 H     1 <1>   0.0800 
 40 H        6.5060     2.8130    -1.7130 H     1 <1>   0.0800 
 41 H        7.6780     2.0180     1.4310 H     1 <1>   0.0800 
 42 H        7.7670     1.4280    -0.2040 H     1 <1>   0.0800 
 43 H        7.0090     4.3000     0.1900 H     1 <1>   0.0800 
 44 H        4.3280     5.6030    -0.3900 H     1 <1>   0.0800 
 45 H        5.5440     6.2450     0.6830 H     1 <1>   0.0800 
 46 H        4.7530     4.7500     1.0770 H     1 <1>   0.0800 
 47 H        6.1180     5.8270    -2.2660 H     1 <1>   0.0800 
 48 H        7.6530     5.0110    -2.0790 H     1 <1>   0.0800 
 49 H        7.2670     6.3810    -1.0760 H     1 <1>   0.0800 
 50 H        8.0860    -0.8970    -0.6210 H     1 <1>   0.0800 
 51 H        6.4260    -1.1150    -0.1410 H     1 <1>   0.0800 
 52 H        9.1090     0.5990     2.5920 H     1 <1>   0.0800 
 53 H        9.7050     0.1320     1.0210 H     1 <1>   0.0800 
 54 H        7.6930    -3.2240    -0.0870 H     1 <1>   0.0800 
 55 H        7.0730    -2.8160     1.4890 H     1 <1>   0.0800 
 56 H        8.7420    -1.7340     3.1980 H     1 <1>   0.0800 
 57 H       10.3860    -1.5120     2.6790 H     1 <1>   0.0800 
 58 H        8.6210    -5.5640     0.8530 H     1 <1>   0.1500 
 59 H       10.9590    -5.9930    -2.6860 H     1 <1>   0.1500 
 60 H        9.1050    -7.2450    -1.1390 H     1 <1>   0.1500 
@<TRIPOS>BOND
  1   1   2  2   
  2   2   3  am  
  3   2   4  am  
  4   3   5  am  
  5   3   6  1   
  6   4   7  1   
  7   4   8  1   
  8   5   9  2   
  9   5  10  1   
 10   6  32  1   
 11   6  33  1   
 12   6  34  1   
 13   7  10  2   
 14   7  11  1   
 15   8  35  1   
 16   8  36  1   
 17   8  37  1   
 18  10  12  1   
 19  11  13  ar  
 20  11  38  1   
 21  12  13  ar  
 22  12  14  1   
 23  13  15  1   
 24  14  16  1   
 25  14  39  1   
 26  14  40  1   
 27  15  17  1   
 28  15  41  1   
 29  15  42  1   
 30  16  18  1   
 31  16  19  1   
 32  16  43  1   
 33  17  20  1   
 34  17  21  1   
 35  18  44  1   
 36  18  45  1   
 37  18  46  1   
 38  19  47  1   
 39  19  48  1   
 40  19  49  1   
 41  20  22  1   
 42  20  50  1   
 43  20  51  1   
 44  21  23  1   
 45  21  52  1   
 46  21  53  1   
 47  22  24  1   
 48  22  54  1   
 49  22  55  1   
 50  23  24  1   
 51  23  56  1   
 52  23  57  1   
 53  24  25  am  
 54  25  26  2   
 55  25  27  1   
 56  27  28  1   
 57  27  29  2   
 58  28  30  1   
 59  29  31  1   
 60  29  58  1   
 61  30  31  2   
 62  30  59  1   
 63  31  60  1   
@<TRIPOS>SUBSTRUCTURE
  1 ****  13 GROUP 4 **** **** 0

# MOE 2024.06 (io_trps.svl 2023.06)
