@<TRIPOS>MOLECULE
3-(2-Fluoro-phenoxymethyl)-piperidine
32 33 1 0 0 
SMALL
USER_CHARGES


@<TRIPOS>ATOM
  1 F       -0.7540     0.3140     0.4800 F     1 <1>  -0.1900 
  2 C       -0.5140     1.5800     0.2360 C.ar  1 <1>   0.1900 
  3 C       -1.5540     2.4990     0.3260 C.ar  1 <1>   0.0820 
  4 C        0.7700     1.9460    -0.1170 C.ar  1 <1>  -0.1500 
  5 O       -2.7900     2.0590     0.6750 O.3   1 <1>  -0.3630 
  6 C       -1.2770     3.8350     0.0490 C.ar  1 <1>  -0.1500 
  7 C        1.0280     3.2790    -0.3930 C.ar  1 <1>  -0.1500 
  8 C       -3.9450     2.7310     0.2320 C.3   1 <1>   0.1200 
  9 C        0.0080     4.2160    -0.3100 C.ar  1 <1>  -0.1500 
 10 C       -5.1310     1.7800     0.4320 C.3   1 <1>  -0.0800 
 11 C       -4.7780     0.3810    -0.1000 C.3   1 <1>   0.3430 
 12 C       -6.3990     2.3280    -0.2450 C.3   1 <1>  -0.1600 
 13 N       -5.9420    -0.5400     0.0490 N.4   1 <1>  -0.9060 
 14 C       -7.5520     1.3190    -0.1390 C.3   1 <1>  -0.1600 
 15 C       -7.1550    -0.0630    -0.6670 C.3   1 <1>   0.3430 
 16 H        1.5470     1.2060    -0.1760 H     1 <1>   0.1500 
 17 H       -2.0410     4.5870     0.1170 H     1 <1>   0.1500 
 18 H        2.0210     3.5880    -0.6710 H     1 <1>   0.1500 
 19 H       -3.8140     2.9750    -0.8090 H     1 <1>   0.0800 
 20 H       -4.0640     3.6320     0.8100 H     1 <1>   0.0800 
 21 H        0.2180     5.2500    -0.5230 H     1 <1>   0.1500 
 22 H       -5.3060     1.7080     1.4920 H     1 <1>   0.0800 
 23 H       -3.9300    -0.0050     0.4440 H     1 <1>   0.0800 
 24 H       -4.5010     0.4550    -1.1390 H     1 <1>   0.0800 
 25 H       -6.2000     2.5300    -1.2850 H     1 <1>   0.0800 
 26 H       -6.6900     3.2570     0.2180 H     1 <1>   0.0800 
 27 H       -6.1560    -0.6310     1.0490 H     1 <1>   0.4500 
 28 H       -5.6790    -1.4760    -0.2860 H     1 <1>   0.4500 
 29 H       -8.3930     1.6810    -0.7060 H     1 <1>   0.0800 
 30 H       -7.8720     1.2320     0.8850 H     1 <1>   0.0800 
 31 H       -7.9690    -0.7550    -0.5220 H     1 <1>   0.0800 
 32 H       -6.9510     0.0030    -1.7250 H     1 <1>   0.0800 
@<TRIPOS>BOND
  1   1   2  1   
  2   2   3  ar  
  3   2   4  ar  
  4   3   5  1   
  5   3   6  ar  
  6   4   7  ar  
  7   4  16  1   
  8   5   8  1   
  9   6   9  ar  
 10   6  17  1   
 11   7   9  ar  
 12   7  18  1   
 13   8  10  1   
 14   8  19  1   
 15   8  20  1   
 16   9  21  1   
 17  10  11  1   
 18  10  12  1   
 19  10  22  1   
 20  11  13  1   
 21  11  23  1   
 22  11  24  1   
 23  12  14  1   
 24  12  25  1   
 25  12  26  1   
 26  13  15  1   
 27  13  27  1   
 28  13  28  1   
 29  14  15  1   
 30  14  29  1   
 31  14  30  1   
 32  15  31  1   
 33  15  32  1   
@<TRIPOS>SUBSTRUCTURE
  1 ****   5 GROUP 4 **** **** 0

# MOE 2024.06 (io_trps.svl 2023.06)
