@<TRIPOS>MOLECULE
2-Fluoro-N-[2-(4-isobutyryl-piperazin-1-yl)-phenyl]-benzamide
51 53 1 0 0 
SMALL
USER_CHARGES


@<TRIPOS>ATOM
  1 F        2.1950    -3.4790     1.4040 F     1 <1>  -0.1900 
  2 C        1.1490    -2.7430     1.1430 C.ar  1 <1>   0.1900 
  3 C        1.3030    -1.4900     0.5410 C.ar  1 <1>   0.0860 
  4 C       -0.0780    -3.2700     1.5000 C.ar  1 <1>  -0.1500 
  5 C        2.5810    -0.9190     0.1510 C.2   1 <1>   0.5440 
  6 C        0.1200    -0.7770     0.3240 C.ar  1 <1>  -0.1500 
  7 C       -1.2240    -2.5340     1.2630 C.ar  1 <1>  -0.1500 
  8 O        2.6980     0.2890     0.0780 O.2   1 <1>  -0.5700 
  9 N        3.6490    -1.7220    -0.1570 N.am  1 <1>  -0.5470 
 10 C       -1.1200    -1.2850     0.6740 C.ar  1 <1>  -0.1500 
 11 C        4.9730    -1.4970    -0.5740 C.ar  1 <1>   0.1170 
 12 C        5.8240    -2.6120    -0.5770 C.ar  1 <1>   0.1000 
 13 C        5.4640    -0.2630    -0.9790 C.ar  1 <1>  -0.1500 
 14 N        5.3370    -3.8700    -0.1760 N.pl3 1 <1>  -0.8380 
 15 C        7.1460    -2.4540    -0.9730 C.ar  1 <1>  -0.1500 
 16 C        6.7830    -0.1220    -1.3760 C.ar  1 <1>  -0.1500 
 17 C        5.5860    -4.2820     1.2430 C.3   1 <1>   0.2090 
 18 C        5.3230    -4.9890    -1.1700 C.3   1 <1>   0.2090 
 19 C        7.6250    -1.2190    -1.3710 C.ar  1 <1>  -0.1500 
 20 C        6.7810    -5.2390     1.3660 C.3   1 <1>   0.1400 
 21 C        6.4890    -5.9810    -0.9870 C.3   1 <1>   0.1400 
 22 N        6.6330    -6.4070     0.4410 N.am  1 <1>  -0.6600 
 23 C        6.4860    -7.6830     0.9320 C.2   1 <1>   0.5690 
 24 O        6.4230    -7.8840     2.1240 O.2   1 <1>  -0.5700 
 25 C        6.3800    -8.8950    -0.0110 C.3   1 <1>  -0.0190 
 26 C        4.9240    -9.1300    -0.4500 C.3   1 <1>  -0.2400 
 27 C        6.9390   -10.1880     0.6110 C.3   1 <1>  -0.2400 
 28 H       -0.1340    -4.2410     1.9600 H     1 <1>   0.1500 
 29 H        0.1780     0.1990    -0.1300 H     1 <1>   0.1500 
 30 H       -2.1900    -2.9270     1.5340 H     1 <1>   0.1500 
 31 H        3.5280    -2.7230     0.0350 H     1 <1>   0.3700 
 32 H       -2.0090    -0.7050     0.4890 H     1 <1>   0.1500 
 33 H        4.8210     0.5980    -0.9900 H     1 <1>   0.1500 
 34 H        7.8060    -3.2990    -0.9650 H     1 <1>   0.1500 
 35 H        7.1480     0.8420    -1.6860 H     1 <1>   0.1500 
 36 H        4.7070    -4.7700     1.6280 H     1 <1>   0.0800 
 37 H        5.7660    -3.4070     1.8440 H     1 <1>   0.0800 
 38 H        5.3550    -4.5810    -2.1650 H     1 <1>   0.0800 
 39 H        4.3940    -5.5230    -1.0680 H     1 <1>   0.0800 
 40 H        8.6520    -1.1090    -1.6760 H     1 <1>   0.1500 
 41 H        6.8630    -5.5660     2.3880 H     1 <1>   0.0800 
 42 H        7.6840    -4.7080     1.1240 H     1 <1>   0.0800 
 43 H        7.4030    -5.5120    -1.3020 H     1 <1>   0.0800 
 44 H        6.3210    -6.8210    -1.6320 H     1 <1>   0.0800 
 45 H        6.9790    -8.6980    -0.8810 H     1 <1>   0.0800 
 46 H        4.3160    -9.3650     0.4060 H     1 <1>   0.0800 
 47 H        4.8680    -9.9460    -1.1480 H     1 <1>   0.0800 
 48 H        4.5220    -8.2500    -0.9180 H     1 <1>   0.0800 
 49 H        6.3630   -10.4690     1.4760 H     1 <1>   0.0800 
 50 H        7.9580   -10.0360     0.9200 H     1 <1>   0.0800 
 51 H        6.9110   -10.9950    -0.0990 H     1 <1>   0.0800 
@<TRIPOS>BOND
  1   1   2  1   
  2   2   3  ar  
  3   2   4  ar  
  4   3   5  1   
  5   3   6  ar  
  6   4   7  ar  
  7   4  28  1   
  8   5   8  2   
  9   5   9  am  
 10   6  10  ar  
 11   6  29  1   
 12   7  10  ar  
 13   7  30  1   
 14   9  11  1   
 15   9  31  1   
 16  10  32  1   
 17  11  12  ar  
 18  11  13  ar  
 19  12  14  1   
 20  12  15  ar  
 21  13  16  ar  
 22  13  33  1   
 23  14  17  1   
 24  14  18  1   
 25  15  19  ar  
 26  15  34  1   
 27  16  19  ar  
 28  16  35  1   
 29  17  20  1   
 30  17  36  1   
 31  17  37  1   
 32  18  21  1   
 33  18  38  1   
 34  18  39  1   
 35  19  40  1   
 36  20  22  1   
 37  20  41  1   
 38  20  42  1   
 39  21  22  1   
 40  21  43  1   
 41  21  44  1   
 42  22  23  am  
 43  23  24  2   
 44  23  25  1   
 45  25  26  1   
 46  25  27  1   
 47  25  45  1   
 48  26  46  1   
 49  26  47  1   
 50  26  48  1   
 51  27  49  1   
 52  27  50  1   
 53  27  51  1   
@<TRIPOS>SUBSTRUCTURE
  1 ****  14 GROUP 4 **** **** 0

# MOE 2024.06 (io_trps.svl 2023.06)
