@<TRIPOS>MOLECULE
7-(3-Chloro-benzyl)-1,3-dimethyl-8-(3-methyl-piperidin-1-ylmethyl)-3,7-dihydro-p
56 59 1 0 0 
SMALL
USER_CHARGES


@<TRIPOS>ATOM
  1 CL      -1.4700    -1.8520    -0.6470 Cl    1 <1>  -0.1770 
  2 C       -0.1040    -2.9300    -0.5340 C.ar  1 <1>   0.1770 
  3 C       -0.2190    -4.0820     0.2200 C.ar  1 <1>  -0.1500 
  4 C        1.0660    -2.6190    -1.2000 C.ar  1 <1>  -0.1500 
  5 C        0.8570    -4.9560     0.3070 C.ar  1 <1>  -0.1440 
  6 C        2.1440    -3.4820    -1.1050 C.ar  1 <1>  -0.1500 
  7 C        2.0390    -4.6420    -0.3540 C.ar  1 <1>  -0.1500 
  8 C        0.7420    -6.2400     1.1130 C.3   1 <1>   0.4980 
  9 N       -0.1980    -7.1600     0.4080 N.pl3 1 <1>  -0.7640 
 10 C       -1.5170    -7.4090     0.7900 C.2   1 <1>   0.2770 
 11 C        0.0400    -7.8570    -0.6990 C.cat 1 <1>   0.6560 
 12 C       -2.3780    -6.9520     1.8440 C.2   1 <1>   0.7030 
 13 C       -2.0140    -8.2840    -0.1160 C.2   1 <1>   0.4260 
 14 N       -1.0470    -8.5530    -1.0320 N.pl3 1 <1>  -0.7000 
 15 C        1.3550    -7.8800    -1.5080 C.3   1 <1>   0.2540 
 16 O       -1.9800    -6.1670     2.6870 O.2   1 <1>  -0.5700 
 17 N       -3.6840    -7.4220     1.8760 N.am  1 <1>  -0.4200 
 18 N       -3.3030    -8.7840    -0.0740 N.am  1 <1>  -0.4360 
 19 N        2.5730    -8.0880    -0.6860 N.3   1 <1>  -0.8100 
 20 C       -4.1430    -8.3390     0.9370 C.2   1 <1>   0.6900 
 21 C       -4.6200    -6.9590     2.9490 C.3   1 <1>   0.0600 
 22 C       -3.7860    -9.7600    -1.0970 C.3   1 <1>   0.0600 
 23 C        2.6030    -9.4210    -0.0500 C.3   1 <1>   0.1100 
 24 C        3.7920    -7.8660    -1.4830 C.3   1 <1>   0.1100 
 25 O       -5.2830    -8.7520     1.0020 O.2   1 <1>  -0.5700 
 26 C        3.7910    -9.5210     0.9180 C.3   1 <1>  -0.0800 
 27 C        5.0220    -7.9070    -0.5720 C.3   1 <1>  -0.1600 
 28 C        5.1110    -9.2370     0.1860 C.3   1 <1>  -0.1600 
 29 C        3.8350   -10.9030     1.5820 C.3   1 <1>  -0.2400 
 30 H       -1.1440    -4.2790     0.7310 H     1 <1>   0.1500 
 31 H        1.1280    -1.7150    -1.7780 H     1 <1>   0.1500 
 32 H        3.0640    -3.2480    -1.6130 H     1 <1>   0.1500 
 33 H        2.8910    -5.2990    -0.2870 H     1 <1>   0.1500 
 34 H        0.3840    -6.0140     2.1020 H     1 <1>   0.0800 
 35 H        1.7070    -6.7040     1.2230 H     1 <1>   0.0800 
 36 H       -1.1550    -9.1750    -1.8340 H     1 <1>   0.4500 
 37 H        1.4340    -6.9330    -2.0140 H     1 <1>   0.0800 
 38 H        1.2990    -8.6480    -2.2580 H     1 <1>   0.0800 
 39 H       -4.2960    -6.0240     3.3740 H     1 <1>   0.0800 
 40 H       -4.6690    -7.6990     3.7290 H     1 <1>   0.0800 
 41 H       -5.6080    -6.8170     2.5450 H     1 <1>   0.0800 
 42 H       -3.0250   -10.4910    -1.3050 H     1 <1>   0.0800 
 43 H       -4.0440    -9.2390    -2.0030 H     1 <1>   0.0800 
 44 H       -4.6600   -10.2830    -0.7440 H     1 <1>   0.0800 
 45 H        2.6860   -10.1870    -0.8040 H     1 <1>   0.0800 
 46 H        1.6960    -9.5870     0.5060 H     1 <1>   0.0800 
 47 H        3.7490    -6.9040    -1.9660 H     1 <1>   0.0800 
 48 H        3.8810    -8.6240    -2.2450 H     1 <1>   0.0800 
 49 H        3.6580    -8.7820     1.6900 H     1 <1>   0.0800 
 50 H        4.9670    -7.0920     0.1290 H     1 <1>   0.0800 
 51 H        5.9100    -7.7710    -1.1630 H     1 <1>   0.0800 
 52 H        5.3140   -10.0290    -0.5140 H     1 <1>   0.0800 
 53 H        5.9230    -9.1990     0.8910 H     1 <1>   0.0800 
 54 H        3.9650   -11.6770     0.8470 H     1 <1>   0.0800 
 55 H        2.9240   -11.0900     2.1230 H     1 <1>   0.0800 
 56 H        4.6540   -10.9530     2.2780 H     1 <1>   0.0800 
@<TRIPOS>BOND
  1   1   2  1   
  2   2   3  ar  
  3   2   4  ar  
  4   3   5  ar  
  5   3  30  1   
  6   4   6  ar  
  7   4  31  1   
  8   5   7  ar  
  9   5   8  1   
 10   6   7  ar  
 11   6  32  1   
 12   7  33  1   
 13   8   9  1   
 14   8  34  1   
 15   8  35  1   
 16   9  10  1   
 17   9  11  ar  
 18  10  12  1   
 19  10  13  2   
 20  11  14  ar  
 21  11  15  1   
 22  12  16  2   
 23  12  17  am  
 24  13  14  1   
 25  13  18  1   
 26  14  36  1   
 27  15  19  1   
 28  15  37  1   
 29  15  38  1   
 30  17  20  am  
 31  17  21  1   
 32  18  20  am  
 33  18  22  1   
 34  19  23  1   
 35  19  24  1   
 36  20  25  2   
 37  21  39  1   
 38  21  40  1   
 39  21  41  1   
 40  22  42  1   
 41  22  43  1   
 42  22  44  1   
 43  23  26  1   
 44  23  45  1   
 45  23  46  1   
 46  24  27  1   
 47  24  47  1   
 48  24  48  1   
 49  26  28  1   
 50  26  29  1   
 51  26  49  1   
 52  27  28  1   
 53  27  50  1   
 54  27  51  1   
 55  28  52  1   
 56  28  53  1   
 57  29  54  1   
 58  29  55  1   
 59  29  56  1   
@<TRIPOS>SUBSTRUCTURE
  1 ****   9 GROUP 4 **** **** 0

# MOE 2024.06 (io_trps.svl 2023.06)
