@<TRIPOS>MOLECULE
1-(4-Methoxy-3-methyl-benzenesulfonyl)-piperidine-4-carboxylic acid (1-phenyl-et
57 59 1 0 0 
SMALL
USER_CHARGES


@<TRIPOS>ATOM
  1 S        0.0400    -0.2000    -2.3800 S.o2  1 <1>   1.4470 
  2 O        0.5660    -1.3520    -3.0790 O.2   1 <1>  -0.6500 
  3 O       -0.8020     0.7400    -3.0910 O.2   1 <1>  -0.6500 
  4 N        1.3690     0.6880    -1.8120 N.am  1 <1>  -0.8490 
  5 C       -0.7630    -0.7470    -0.8490 C.ar  1 <1>  -0.0090 
  6 C        0.9570     1.9510    -1.1930 C.3   1 <1>   0.1960 
  7 C        2.3440     0.9220    -2.8800 C.3   1 <1>   0.1960 
  8 C       -2.0090    -0.2600    -0.4700 C.ar  1 <1>  -0.1500 
  9 C       -0.1360    -1.6530    -0.0030 C.ar  1 <1>  -0.1500 
 10 C        2.1610     2.6180    -0.5280 C.3   1 <1>  -0.1600 
 11 C        3.6090     1.5560    -2.2980 C.3   1 <1>  -0.1600 
 12 C       -2.6150    -0.6530     0.7130 C.ar  1 <1>  -0.1440 
 13 C       -0.7250    -2.0590     1.1800 C.ar  1 <1>  -0.1500 
 14 C        3.2920     2.8590    -1.5440 C.3   1 <1>  -0.0190 
 15 C       -1.9710    -1.5590     1.5490 C.ar  1 <1>   0.0820 
 16 C       -3.9800    -0.0920     1.0860 C.3   1 <1>  -0.0970 
 17 C        4.5340     3.4440    -0.8820 C.2   1 <1>   0.5690 
 18 O       -2.5980    -1.9160     2.6990 O.3   1 <1>  -0.3630 
 19 O        4.9420     4.5200    -1.2440 O.2   1 <1>  -0.5700 
 20 N        5.1480     2.7360     0.0950 N.am  1 <1>  -0.7300 
 21 C       -2.0470    -2.8660     3.5840 C.3   1 <1>   0.0400 
 22 C        6.4130     3.1030     0.7300 C.3   1 <1>   0.3640 
 23 C        7.1550     1.8130     1.0600 C.ar  1 <1>  -0.1440 
 24 C        6.1200     3.9410     1.9710 C.3   1 <1>  -0.2400 
 25 C        6.6580     0.9060     1.9880 C.ar  1 <1>  -0.1500 
 26 C        8.3480     1.5260     0.4120 C.ar  1 <1>  -0.1500 
 27 C        7.3440    -0.2640     2.2650 C.ar  1 <1>  -0.1500 
 28 C        9.0350     0.3560     0.6870 C.ar  1 <1>  -0.1500 
 29 C        8.5330    -0.5400     1.6140 C.ar  1 <1>  -0.1500 
 30 H        0.2060     1.7640    -0.4420 H     1 <1>   0.0800 
 31 H        0.5330     2.6080    -1.9360 H     1 <1>   0.0800 
 32 H        1.9160     1.5610    -3.6360 H     1 <1>   0.0800 
 33 H        2.6130    -0.0130    -3.3450 H     1 <1>   0.0800 
 34 H       -2.5100     0.4400    -1.1170 H     1 <1>   0.1500 
 35 H        0.8300    -2.0420    -0.2800 H     1 <1>   0.1500 
 36 H        2.5010     1.9850     0.2720 H     1 <1>   0.0800 
 37 H        1.8570     3.5560    -0.1000 H     1 <1>   0.0800 
 38 H        4.3020     1.7620    -3.0950 H     1 <1>   0.0800 
 39 H        4.0720     0.8430    -1.6380 H     1 <1>   0.0800 
 40 H       -0.2010    -2.7620     1.7990 H     1 <1>   0.1500 
 41 H        2.9420     3.5810    -2.2630 H     1 <1>   0.0800 
 42 H       -4.3420     0.5890     0.3380 H     1 <1>   0.0800 
 43 H       -3.9160     0.4280     2.0250 H     1 <1>   0.0800 
 44 H       -4.6870    -0.8970     1.1870 H     1 <1>   0.0800 
 45 H        4.8330     1.7940     0.3210 H     1 <1>   0.3700 
 46 H       -2.7310    -2.9930     4.4040 H     1 <1>   0.0800 
 47 H       -1.1050    -2.4980     3.9490 H     1 <1>   0.0800 
 48 H       -1.9250    -3.7990     3.0630 H     1 <1>   0.0800 
 49 H        6.9960     3.6930     0.0410 H     1 <1>   0.0800 
 50 H        5.4670     3.4230     2.6470 H     1 <1>   0.0800 
 51 H        5.6620     4.8700     1.6790 H     1 <1>   0.0800 
 52 H        7.0400     4.1620     2.4790 H     1 <1>   0.0800 
 53 H        5.7350     1.1030     2.5030 H     1 <1>   0.1500 
 54 H        8.7500     2.2110    -0.3140 H     1 <1>   0.1500 
 55 H        6.9550    -0.9600     2.9870 H     1 <1>   0.1500 
 56 H        9.9590     0.1430     0.1800 H     1 <1>   0.1500 
 57 H        9.0670    -1.4490     1.8290 H     1 <1>   0.1500 
@<TRIPOS>BOND
  1   1   2  2   
  2   1   3  2   
  3   1   4  am  
  4   1   5  1   
  5   4   6  1   
  6   4   7  1   
  7   5   8  ar  
  8   5   9  ar  
  9   6  10  1   
 10   6  30  1   
 11   6  31  1   
 12   7  11  1   
 13   7  32  1   
 14   7  33  1   
 15   8  12  ar  
 16   8  34  1   
 17   9  13  ar  
 18   9  35  1   
 19  10  14  1   
 20  10  36  1   
 21  10  37  1   
 22  11  14  1   
 23  11  38  1   
 24  11  39  1   
 25  12  15  ar  
 26  12  16  1   
 27  13  15  ar  
 28  13  40  1   
 29  14  17  1   
 30  14  41  1   
 31  15  18  1   
 32  16  42  1   
 33  16  43  1   
 34  16  44  1   
 35  17  19  2   
 36  17  20  am  
 37  18  21  1   
 38  20  22  1   
 39  20  45  1   
 40  21  46  1   
 41  21  47  1   
 42  21  48  1   
 43  22  23  1   
 44  22  24  1   
 45  22  49  1   
 46  23  25  ar  
 47  23  26  ar  
 48  24  50  1   
 49  24  51  1   
 50  24  52  1   
 51  25  27  ar  
 52  25  53  1   
 53  26  28  ar  
 54  26  54  1   
 55  27  29  ar  
 56  27  55  1   
 57  28  29  ar  
 58  28  56  1   
 59  29  57  1   
@<TRIPOS>SUBSTRUCTURE
  1 ****  10 GROUP 4 **** **** 0

# MOE 2024.06 (io_trps.svl 2023.06)
