@<TRIPOS>MOLECULE
7-(3-Chloro-benzyl)-1,3-dimethyl-8-(2-methyl-piperidin-1-ylmethyl)-3,7-dihydro-p
56 59 1 0 0 
SMALL
USER_CHARGES


@<TRIPOS>ATOM
  1 CL       2.6220    -2.3710    -2.8040 Cl    1 <1>  -0.1770 
  2 C        1.9690    -2.9360    -1.2900 C.ar  1 <1>   0.1770 
  3 C        0.7330    -3.5550    -1.2810 C.ar  1 <1>  -0.1500 
  4 C        2.6970    -2.7660    -0.1290 C.ar  1 <1>  -0.1500 
  5 C        0.2130    -4.0290    -0.0840 C.ar  1 <1>  -0.1440 
  6 C        2.1740    -3.2260     1.0680 C.ar  1 <1>  -0.1500 
  7 C        0.9380    -3.8520     1.0890 C.ar  1 <1>  -0.1500 
  8 C       -1.1310    -4.7370    -0.0510 C.3   1 <1>   0.4980 
  9 N       -0.9690    -6.2240    -0.0150 N.pl3 1 <1>  -0.7640 
 10 C       -2.0280    -7.0600     0.3650 C.2   1 <1>   0.2770 
 11 C        0.0610    -7.0240    -0.3090 C.cat 1 <1>   0.6560 
 12 C       -3.3880    -6.8470     0.7740 C.2   1 <1>   0.7030 
 13 C       -1.5740    -8.3330     0.2920 C.2   1 <1>   0.4260 
 14 N       -0.2920    -8.2900    -0.1290 N.pl3 1 <1>  -0.7000 
 15 C        1.4850    -6.7080    -0.8080 C.3   1 <1>   0.2540 
 16 O       -3.8430    -5.7190     0.8590 O.2   1 <1>  -0.5700 
 17 N       -4.1700    -7.9560     1.0670 N.am  1 <1>  -0.4200 
 18 N       -2.3340    -9.4440     0.6040 N.am  1 <1>  -0.4360 
 19 N        2.3290    -7.9440    -0.8550 N.3   1 <1>  -0.8100 
 20 C       -3.6510    -9.2450     0.9910 C.2   1 <1>   0.6900 
 21 C       -5.5940    -7.7820     1.4960 C.3   1 <1>   0.0600 
 22 C       -1.7540   -10.8160     0.5080 C.3   1 <1>   0.0600 
 23 C        3.2780    -8.0460     0.2810 C.3   1 <1>   0.1900 
 24 C        3.0440    -8.0080    -2.1470 C.3   1 <1>   0.1100 
 25 O       -4.3530   -10.1970     1.2650 O.2   1 <1>  -0.5700 
 26 C        4.0480    -9.3740     0.1970 C.3   1 <1>  -0.1600 
 27 C        2.5540    -7.9890     1.6320 C.3   1 <1>  -0.2400 
 28 C        3.7820    -9.3390    -2.2890 C.3   1 <1>  -0.1600 
 29 C        4.7730    -9.5370    -1.1420 C.3   1 <1>  -0.1600 
 30 H        0.1990    -3.6570    -2.2110 H     1 <1>   0.1500 
 31 H        3.6550    -2.2770    -0.1630 H     1 <1>   0.1500 
 32 H        2.7300    -3.0910     1.9820 H     1 <1>   0.1500 
 33 H        0.5480    -4.2000     2.0320 H     1 <1>   0.1500 
 34 H       -1.7170    -4.4620    -0.9120 H     1 <1>   0.0800 
 35 H       -1.6670    -4.4120     0.8250 H     1 <1>   0.0800 
 36 H        0.3930    -9.0360    -0.3070 H     1 <1>   0.4500 
 37 H        1.9540    -5.9710    -0.1850 H     1 <1>   0.0800 
 38 H        1.3900    -6.2850    -1.7920 H     1 <1>   0.0800 
 39 H       -6.2170    -8.5150     1.0120 H     1 <1>   0.0800 
 40 H       -5.9640    -6.8040     1.2390 H     1 <1>   0.0800 
 41 H       -5.6680    -7.9160     2.5610 H     1 <1>   0.0800 
 42 H       -1.7470   -11.1360    -0.5190 H     1 <1>   0.0800 
 43 H       -2.3350   -11.5180     1.0830 H     1 <1>   0.0800 
 44 H       -0.7480   -10.8230     0.8910 H     1 <1>   0.0800 
 45 H        3.9860    -7.2330     0.2270 H     1 <1>   0.0800 
 46 H        3.7480    -7.1950    -2.2190 H     1 <1>   0.0800 
 47 H        2.3410    -7.9220    -2.9590 H     1 <1>   0.0800 
 48 H        3.3630   -10.1920     0.3310 H     1 <1>   0.0800 
 49 H        4.7720    -9.4220     0.9910 H     1 <1>   0.0800 
 50 H        1.8160    -8.7670     1.7030 H     1 <1>   0.0800 
 51 H        2.0980    -7.0330     1.8030 H     1 <1>   0.0800 
 52 H        3.2670    -8.1400     2.4230 H     1 <1>   0.0800 
 53 H        4.3100    -9.3570    -3.2270 H     1 <1>   0.0800 
 54 H        3.0660   -10.1420    -2.2990 H     1 <1>   0.0800 
 55 H        5.2190   -10.5140    -1.2030 H     1 <1>   0.0800 
 56 H        5.5600    -8.8050    -1.2160 H     1 <1>   0.0800 
@<TRIPOS>BOND
  1   1   2  1   
  2   2   3  ar  
  3   2   4  ar  
  4   3   5  ar  
  5   3  30  1   
  6   4   6  ar  
  7   4  31  1   
  8   5   7  ar  
  9   5   8  1   
 10   6   7  ar  
 11   6  32  1   
 12   7  33  1   
 13   8   9  1   
 14   8  34  1   
 15   8  35  1   
 16   9  10  1   
 17   9  11  ar  
 18  10  12  1   
 19  10  13  2   
 20  11  14  ar  
 21  11  15  1   
 22  12  16  2   
 23  12  17  am  
 24  13  14  1   
 25  13  18  1   
 26  14  36  1   
 27  15  19  1   
 28  15  37  1   
 29  15  38  1   
 30  17  20  am  
 31  17  21  1   
 32  18  20  am  
 33  18  22  1   
 34  19  23  1   
 35  19  24  1   
 36  20  25  2   
 37  21  39  1   
 38  21  40  1   
 39  21  41  1   
 40  22  42  1   
 41  22  43  1   
 42  22  44  1   
 43  23  26  1   
 44  23  27  1   
 45  23  45  1   
 46  24  28  1   
 47  24  46  1   
 48  24  47  1   
 49  26  29  1   
 50  26  48  1   
 51  26  49  1   
 52  27  50  1   
 53  27  51  1   
 54  27  52  1   
 55  28  29  1   
 56  28  53  1   
 57  28  54  1   
 58  29  55  1   
 59  29  56  1   
@<TRIPOS>SUBSTRUCTURE
  1 ****  11 GROUP 4 **** **** 0

# MOE 2024.06 (io_trps.svl 2023.06)
