@<TRIPOS>MOLECULE
N-(5-Cyclohexylcarbamoylmethylsulfanyl-4-ethyl-4H-[1,2,4]triazol-3-ylmethyl)-2-f
55 57 1 0 0 
SMALL
USER_CHARGES


@<TRIPOS>ATOM
  1 S       -2.2500    -0.4730     0.4580 S.3   1 <1>  -0.2860 
  2 C       -2.2650     1.2780     0.8570 C.2   1 <1>   0.2420 
  3 C       -0.6820    -1.0590     1.2710 C.3   1 <1>   0.1310 
  4 N       -1.3830     1.8410     1.6030 N.2   1 <1>  -0.3380 
  5 N       -3.1990     2.1150     0.4050 N.pl3 1 <1>   0.0480 
  6 C       -0.4720    -2.5510     1.0670 C.2   1 <1>   0.5690 
  7 N       -1.7320     3.1280     1.6670 N.2   1 <1>  -0.3380 
  8 C       -2.8040     3.2740     0.9580 C.2   1 <1>   0.0060 
  9 C       -4.3570     1.8060    -0.4660 C.3   1 <1>   0.0960 
 10 O        0.6510    -2.9880     1.1470 O.2   1 <1>  -0.5700 
 11 N       -1.5390    -3.3530     0.8140 N.am  1 <1>  -0.7300 
 12 C       -3.5120     4.6070     0.7870 C.3   1 <1>   0.3200 
 13 C       -3.9460     1.7660    -1.9420 C.3   1 <1>  -0.2400 
 14 C       -1.4890    -4.8060     0.5930 C.3   1 <1>   0.2200 
 15 N       -3.5200     4.9880    -0.6390 N.am  1 <1>  -0.7300 
 16 C       -1.9380    -5.1030    -0.8410 C.3   1 <1>  -0.1600 
 17 C       -2.4000    -5.4930     1.6160 C.3   1 <1>  -0.1600 
 18 C       -4.3650     5.8290    -1.2900 C.2   1 <1>   0.5440 
 19 C       -2.0120    -6.6150    -1.0980 C.3   1 <1>  -0.1600 
 20 C       -2.4760    -7.0060     1.3630 C.3   1 <1>  -0.1600 
 21 O       -4.1040     6.0490    -2.4520 O.2   1 <1>  -0.5700 
 22 C       -5.4860     6.4830    -0.6530 C.ar  1 <1>   0.0860 
 23 C       -2.9220    -7.3080    -0.0740 C.3   1 <1>  -0.1600 
 24 C       -6.6010     5.7910    -0.1850 C.ar  1 <1>   0.1900 
 25 C       -5.5000     7.8680    -0.4850 C.ar  1 <1>  -0.1500 
 26 F       -6.6550     4.4950    -0.3260 F     1 <1>  -0.1900 
 27 C       -7.6720     6.4100     0.4310 C.ar  1 <1>  -0.1500 
 28 C       -6.5620     8.5100     0.1300 C.ar  1 <1>  -0.1500 
 29 C       -7.6490     7.7840     0.5910 C.ar  1 <1>  -0.1500 
 30 H       -0.7580    -0.8320     2.3170 H     1 <1>   0.0800 
 31 H        0.1280    -0.5040     0.8360 H     1 <1>   0.0800 
 32 H       -5.1150     2.5510    -0.3200 H     1 <1>   0.0800 
 33 H       -4.7640     0.8540    -0.1750 H     1 <1>   0.0800 
 34 H       -2.4600    -2.9250     0.7080 H     1 <1>   0.3700 
 35 H       -2.9870     5.3600     1.3500 H     1 <1>   0.0800 
 36 H       -4.5150     4.5340     1.1670 H     1 <1>   0.0800 
 37 H       -3.5650     2.7200    -2.2580 H     1 <1>   0.0800 
 38 H       -4.8020     1.5310    -2.5490 H     1 <1>   0.0800 
 39 H       -3.1970     1.0110    -2.1070 H     1 <1>   0.0800 
 40 H       -0.4790    -5.1600     0.7270 H     1 <1>   0.0800 
 41 H       -2.6920     4.6990    -1.1660 H     1 <1>   0.3700 
 42 H       -1.2390    -4.6600    -1.5290 H     1 <1>   0.0800 
 43 H       -2.9080    -4.6710    -1.0130 H     1 <1>   0.0800 
 44 H       -3.3910    -5.0790     1.5520 H     1 <1>   0.0800 
 45 H       -2.0180    -5.3170     2.6050 H     1 <1>   0.0800 
 46 H       -1.0230    -7.0360    -1.0360 H     1 <1>   0.0800 
 47 H       -2.3840    -6.7950    -2.0920 H     1 <1>   0.0800 
 48 H       -3.1650    -7.4550     2.0580 H     1 <1>   0.0800 
 49 H       -1.5060    -7.4440     1.5330 H     1 <1>   0.0800 
 50 H       -2.9070    -8.3710    -0.2400 H     1 <1>   0.0800 
 51 H       -3.9350    -6.9690    -0.2110 H     1 <1>   0.0800 
 52 H       -4.6650     8.4420    -0.8490 H     1 <1>   0.1500 
 53 H       -8.5090     5.8280     0.7760 H     1 <1>   0.1500 
 54 H       -6.5460     9.5810     0.2470 H     1 <1>   0.1500 
 55 H       -8.4730     8.2890     1.0680 H     1 <1>   0.1500 
@<TRIPOS>BOND
  1   1   2  1   
  2   1   3  1   
  3   2   4  2   
  4   2   5  1   
  5   3   6  1   
  6   3  30  1   
  7   3  31  1   
  8   4   7  1   
  9   5   8  1   
 10   5   9  1   
 11   6  10  2   
 12   6  11  am  
 13   7   8  2   
 14   8  12  1   
 15   9  13  1   
 16   9  32  1   
 17   9  33  1   
 18  11  14  1   
 19  11  34  1   
 20  12  15  1   
 21  12  35  1   
 22  12  36  1   
 23  13  37  1   
 24  13  38  1   
 25  13  39  1   
 26  14  16  1   
 27  14  17  1   
 28  14  40  1   
 29  15  18  am  
 30  15  41  1   
 31  16  19  1   
 32  16  42  1   
 33  16  43  1   
 34  17  20  1   
 35  17  44  1   
 36  17  45  1   
 37  18  21  2   
 38  18  22  1   
 39  19  23  1   
 40  19  46  1   
 41  19  47  1   
 42  20  23  1   
 43  20  48  1   
 44  20  49  1   
 45  22  24  ar  
 46  22  25  ar  
 47  23  50  1   
 48  23  51  1   
 49  24  26  1   
 50  24  27  ar  
 51  25  28  ar  
 52  25  52  1   
 53  27  29  ar  
 54  27  53  1   
 55  28  29  ar  
 56  28  54  1   
 57  29  55  1   
@<TRIPOS>SUBSTRUCTURE
  1 ****   5 GROUP 4 **** **** 0

# MOE 2024.06 (io_trps.svl 2023.06)
