@<TRIPOS>MOLECULE
1-[4-(3,4,5-Trihydroxy-tetrahydro-pyran-2-ylamino)-phenyl]-ethanone
36 37 1 0 0 
SMALL
USER_CHARGES


@<TRIPOS>ATOM
  1 O       -0.0630    -0.0730    -1.1760 O.2   1 <1>  -0.5700 
  2 C       -0.8550     0.4890    -0.4620 C.2   1 <1>   0.4230 
  3 C       -2.1080    -0.1010    -0.0440 C.ar  1 <1>   0.0860 
  4 C       -0.4710     1.8830    -0.0050 C.3   1 <1>  -0.1790 
  5 C       -3.0540     0.5750     0.7370 C.ar  1 <1>  -0.1500 
  6 C       -2.4310    -1.4110    -0.4140 C.ar  1 <1>  -0.1500 
  7 C       -4.2410    -0.0200     1.1160 C.ar  1 <1>  -0.1500 
  8 C       -3.6160    -2.0070    -0.0360 C.ar  1 <1>  -0.1500 
  9 C       -4.5480    -1.3180     0.7310 C.ar  1 <1>   0.1000 
 10 N       -5.7460    -1.8850     1.1210 N.pl3 1 <1>  -0.8690 
 11 C       -6.5960    -2.5670     0.1520 C.3   1 <1>   0.5690 
 12 O       -7.8180    -1.9270     0.3500 O.3   1 <1>  -0.5600 
 13 C       -6.7420    -4.0920     0.4210 C.3   1 <1>   0.2000 
 14 C       -8.8620    -2.3420    -0.4870 C.3   1 <1>   0.1200 
 15 O       -5.5900    -4.8200     0.0990 O.3   1 <1>  -0.6800 
 16 C       -7.9040    -4.6600    -0.4050 C.3   1 <1>   0.2000 
 17 C       -9.1730    -3.8190    -0.2190 C.3   1 <1>   0.2000 
 18 O       -8.1450    -6.0020    -0.0820 O.3   1 <1>  -0.6800 
 19 O      -10.1440    -4.2560    -1.1060 O.3   1 <1>  -0.6800 
 20 H       -0.4520     1.9270     1.0680 H     1 <1>   0.0800 
 21 H       -1.1720     2.6010    -0.3880 H     1 <1>   0.0800 
 22 H        0.5080     2.1320    -0.3740 H     1 <1>   0.0800 
 23 H       -2.8670     1.5820     1.0590 H     1 <1>   0.1500 
 24 H       -1.7290    -1.9700    -1.0100 H     1 <1>   0.1500 
 25 H       -4.9470     0.5240     1.7170 H     1 <1>   0.1500 
 26 H       -3.8180    -3.0210    -0.3270 H     1 <1>   0.1500 
 27 H       -6.3650    -1.2690     1.6520 H     1 <1>   0.4000 
 28 H       -6.2670    -2.3780    -0.8570 H     1 <1>   0.0800 
 29 H       -6.9330    -4.2270     1.4700 H     1 <1>   0.0800 
 30 H       -8.5680    -2.1830    -1.5110 H     1 <1>   0.0800 
 31 H       -9.7220    -1.7350    -0.2630 H     1 <1>   0.0800 
 32 H       -5.8040    -5.7770     0.1030 H     1 <1>   0.4000 
 33 H       -7.6260    -4.6220    -1.4460 H     1 <1>   0.0800 
 34 H       -9.5610    -3.9250     0.7800 H     1 <1>   0.0800 
 35 H       -8.3930    -6.0980     0.8600 H     1 <1>   0.4000 
 36 H      -10.1480    -5.2370    -1.1160 H     1 <1>   0.4000 
@<TRIPOS>BOND
  1   1   2  2   
  2   2   3  1   
  3   2   4  1   
  4   3   5  ar  
  5   3   6  ar  
  6   4  20  1   
  7   4  21  1   
  8   4  22  1   
  9   5   7  ar  
 10   5  23  1   
 11   6   8  ar  
 12   6  24  1   
 13   7   9  ar  
 14   7  25  1   
 15   8   9  ar  
 16   8  26  1   
 17   9  10  1   
 18  10  11  1   
 19  10  27  1   
 20  11  12  1   
 21  11  13  1   
 22  11  28  1   
 23  12  14  1   
 24  13  15  1   
 25  13  16  1   
 26  13  29  1   
 27  14  17  1   
 28  14  30  1   
 29  14  31  1   
 30  15  32  1   
 31  16  17  1   
 32  16  18  1   
 33  16  33  1   
 34  17  19  1   
 35  17  34  1   
 36  18  35  1   
 37  19  36  1   
@<TRIPOS>SUBSTRUCTURE
  1 ****   9 GROUP 4 **** **** 0

# MOE 2024.06 (io_trps.svl 2023.06)
