@<TRIPOS>MOLECULE
[5-(4-Isopropyl-phenoxymethyl)-furan-2-yl]-pyrrolidin-1-yl-methanone
46 48 1 0 0 
SMALL
USER_CHARGES


@<TRIPOS>ATOM
  1 O       -0.3610     0.5320    -0.1240 O.2   1 <1>  -0.5700 
  2 C       -1.5110     0.7910     0.1900 C.2   1 <1>   0.7150 
  3 N       -2.4330    -0.2370     0.1750 N.am  1 <1>  -0.6600 
  4 C       -1.8830     2.1390     0.5720 C.2   1 <1>   0.0550 
  5 C       -2.0560    -1.6190    -0.1970 C.3   1 <1>   0.1400 
  6 C       -3.9000    -0.0560     0.1090 C.3   1 <1>   0.1400 
  7 O       -1.2940     3.1920     0.0100 O.3   1 <1>  -0.2800 
  8 C       -2.7950     2.6000     1.4760 C.2   1 <1>  -0.1500 
  9 C       -3.3770    -2.3740    -0.3020 C.3   1 <1>  -0.1600 
 10 C       -4.4120    -1.2970    -0.6120 C.3   1 <1>  -0.1600 
 11 C       -1.7980     4.2940     0.5180 C.2   1 <1>  -0.0400 
 12 C       -2.7400     3.9930     1.4360 C.2   1 <1>  -0.1500 
 13 C       -1.2680     5.6280     0.0220 C.3   1 <1>   0.3000 
 14 O       -1.9540     6.6820     0.6660 O.3   1 <1>  -0.3630 
 15 C       -1.6600     7.9770     0.3930 C.ar  1 <1>   0.0820 
 16 C       -2.3880     8.9380     1.0720 C.ar  1 <1>  -0.1500 
 17 C       -0.6850     8.3790    -0.5170 C.ar  1 <1>  -0.1500 
 18 C       -2.1520    10.2840     0.8530 C.ar  1 <1>  -0.1500 
 19 C       -0.4540     9.7260    -0.7330 C.ar  1 <1>  -0.1500 
 20 C       -1.1820    10.6920    -0.0520 C.ar  1 <1>  -0.1430 
 21 C       -0.9090    12.1730    -0.3070 C.3   1 <1>   0.0630 
 22 C       -0.4300    12.8680     0.9710 C.3   1 <1>  -0.2400 
 23 C       -2.1510    12.8690    -0.8720 C.3   1 <1>  -0.2400 
 24 H       -1.4060    -2.0500     0.5460 H     1 <1>   0.0800 
 25 H       -1.5520    -1.6040    -1.1490 H     1 <1>   0.0800 
 26 H       -4.1620     0.8430    -0.4220 H     1 <1>   0.0800 
 27 H       -4.2950    -0.0210     1.1100 H     1 <1>   0.0800 
 28 H       -3.4380     2.0250     2.1170 H     1 <1>   0.1500 
 29 H       -3.5940    -2.8300     0.6480 H     1 <1>   0.0800 
 30 H       -3.3390    -3.1390    -1.0570 H     1 <1>   0.0800 
 31 H       -4.4310    -1.1030    -1.6700 H     1 <1>   0.0800 
 32 H       -5.4000    -1.5710    -0.2880 H     1 <1>   0.0800 
 33 H       -3.3320     4.6710     2.0260 H     1 <1>   0.1500 
 34 H       -1.4290     5.7140    -1.0370 H     1 <1>   0.0800 
 35 H       -0.2210     5.7120     0.2490 H     1 <1>   0.0800 
 36 H       -3.1400     8.6280     1.7740 H     1 <1>   0.1500 
 37 H       -0.0980     7.6670    -1.0650 H     1 <1>   0.1500 
 38 H       -2.7300    11.0120     1.3930 H     1 <1>   0.1500 
 39 H        0.3030    10.0210    -1.4390 H     1 <1>   0.1500 
 40 H       -0.1240    12.2590    -1.0400 H     1 <1>   0.0800 
 41 H       -1.1960    12.8570     1.7250 H     1 <1>   0.0800 
 42 H       -0.1670    13.8900     0.7640 H     1 <1>   0.0800 
 43 H        0.4380    12.3630     1.3580 H     1 <1>   0.0800 
 44 H       -2.9550    12.8580    -0.1590 H     1 <1>   0.0800 
 45 H       -2.4780    12.3650    -1.7640 H     1 <1>   0.0800 
 46 H       -1.9260    13.8910    -1.1200 H     1 <1>   0.0800 
@<TRIPOS>BOND
  1   1   2  2   
  2   2   3  am  
  3   2   4  1   
  4   3   5  1   
  5   3   6  1   
  6   4   7  1   
  7   4   8  2   
  8   5   9  1   
  9   5  24  1   
 10   5  25  1   
 11   6  10  1   
 12   6  26  1   
 13   6  27  1   
 14   7  11  1   
 15   8  12  1   
 16   8  28  1   
 17   9  10  1   
 18   9  29  1   
 19   9  30  1   
 20  10  31  1   
 21  10  32  1   
 22  11  12  2   
 23  11  13  1   
 24  12  33  1   
 25  13  14  1   
 26  13  34  1   
 27  13  35  1   
 28  14  15  1   
 29  15  16  ar  
 30  15  17  ar  
 31  16  18  ar  
 32  16  36  1   
 33  17  19  ar  
 34  17  37  1   
 35  18  20  ar  
 36  18  38  1   
 37  19  20  ar  
 38  19  39  1   
 39  20  21  1   
 40  21  22  1   
 41  21  23  1   
 42  21  40  1   
 43  22  41  1   
 44  22  42  1   
 45  22  43  1   
 46  23  44  1   
 47  23  45  1   
 48  23  46  1   
@<TRIPOS>SUBSTRUCTURE
  1 ****  13 GROUP 4 **** **** 0

# MOE 2024.06 (io_trps.svl 2023.06)
