@<TRIPOS>MOLECULE
3-(5-Methyl-tetrazol-1-yl)-propionic acid
18 18 1 0 0 
SMALL
USER_CHARGES


@<TRIPOS>ATOM
  1 O        0.3860    -1.0930    -0.1480 O.co2 1 <1>  -0.9000 
  2 C       -0.8250    -1.2380     0.0110 C.2   1 <1>   0.9060 
  3 O       -1.4550    -0.7350     0.9440 O.co2 1 <1>  -0.9000 
  4 C       -1.5740    -2.1280    -0.9330 C.3   1 <1>  -0.2660 
  5 C       -2.0210    -3.3860    -0.1750 C.3   1 <1>   0.0960 
  6 N       -3.4730    -3.6310    -0.3050 N.pl3 1 <1>   0.3140 
  7 N       -3.9700    -4.6210    -1.0180 N.2   1 <1>  -0.4180 
  8 C       -4.4930    -2.9940     0.2520 C.2   1 <1>   0.0060 
  9 N       -5.2470    -4.5600    -0.8870 N.2   1 <1>   0.0000 
 10 N       -5.5910    -3.5500    -0.0950 N.2   1 <1>  -0.3380 
 11 C       -4.3830    -1.7850     1.1630 C.3   1 <1>  -0.0600 
 12 H       -0.9210    -2.3930    -1.7420 H     1 <1>   0.0800 
 13 H       -2.4080    -1.5750    -1.3210 H     1 <1>   0.0800 
 14 H       -1.7950    -3.2950     0.8730 H     1 <1>   0.0800 
 15 H       -1.4920    -4.2420    -0.5520 H     1 <1>   0.0800 
 16 H       -3.6640    -1.9630     1.9410 H     1 <1>   0.0800 
 17 H       -5.3350    -1.5710     1.6130 H     1 <1>   0.0800 
 18 H       -4.0690    -0.9260     0.5980 H     1 <1>   0.0800 
@<TRIPOS>BOND
  1   1   2  ar  
  2   2   3  ar  
  3   2   4  1   
  4   4   5  1   
  5   4  12  1   
  6   4  13  1   
  7   5   6  1   
  8   5  14  1   
  9   5  15  1   
 10   6   7  1   
 11   6   8  1   
 12   7   9  2   
 13   8  10  2   
 14   8  11  1   
 15   9  10  1   
 16  11  16  1   
 17  11  17  1   
 18  11  18  1   
@<TRIPOS>SUBSTRUCTURE
  1 ****   6 GROUP 4 **** **** 0

# MOE 2024.06 (io_trps.svl 2023.06)
