@<TRIPOS>MOLECULE
2-p-Tolyl-tetrahydro-2,3b,6a-triaza-cyclopenta[a]pentalene-1,3-dione
37 40 1 0 0 
SMALL
USER_CHARGES


@<TRIPOS>ATOM
  1 O        0.0250     0.4720    -0.6510 O.2   1 <1>  -0.5700 
  2 C        0.0860     1.6090    -0.2490 C.2   1 <1>   0.5690 
  3 N        1.2240     2.3680    -0.0410 N.am  1 <1>  -0.2370 
  4 C       -1.1030     2.4440     0.1890 C.3   1 <1>   0.2510 
  5 C        2.5570     1.8930    -0.0650 C.ar  1 <1>   0.1170 
  6 C        0.8360     3.6710     0.2100 C.2   1 <1>   0.5690 
  7 N       -2.4400     2.6000    -0.3340 N.3   1 <1>  -0.5400 
  8 C       -0.6050     3.8210    -0.1710 C.3   1 <1>  -0.0190 
  9 C        2.8800     0.6360     0.4380 C.ar  1 <1>  -0.1500 
 10 C        3.5840     2.6710    -0.5900 C.ar  1 <1>  -0.1500 
 11 O        1.5060     4.5750     0.6410 O.2   1 <1>  -0.5700 
 12 N       -2.8520     3.7570     0.3790 N.3   1 <1>  -0.5400 
 13 C       -3.5000     1.6620    -0.0570 C.3   1 <1>   0.1100 
 14 C       -1.7360     4.7170     0.3300 C.3   1 <1>   0.1100 
 15 C        4.1840     0.1730     0.4160 C.ar  1 <1>  -0.1500 
 16 C        4.8880     2.2110    -0.6120 C.ar  1 <1>  -0.1500 
 17 C       -4.1900     4.0020    -0.0980 C.3   1 <1>   0.1100 
 18 C       -4.7390     2.5670    -0.1770 C.3   1 <1>  -0.1600 
 19 C        5.1960     0.9570    -0.1110 C.ar  1 <1>  -0.1430 
 20 C        6.6270     0.4510    -0.1340 C.3   1 <1>  -0.0970 
 21 H       -1.1690     2.3380     1.2600 H     1 <1>   0.0800 
 22 H       -0.5970     3.9210    -1.2440 H     1 <1>   0.0800 
 23 H        2.1110     0.0070     0.8490 H     1 <1>   0.1500 
 24 H        3.3690     3.6490    -0.9820 H     1 <1>   0.1500 
 25 H       -3.4040     1.2810     0.9460 H     1 <1>   0.0800 
 26 H       -3.4990     0.8560    -0.7710 H     1 <1>   0.0800 
 27 H       -1.9380     5.5190    -0.3570 H     1 <1>   0.0800 
 28 H       -1.5380     5.0980     1.3170 H     1 <1>   0.0800 
 29 H        4.4060    -0.8030     0.8100 H     1 <1>   0.1500 
 30 H        5.6630     2.8350    -1.0210 H     1 <1>   0.1500 
 31 H       -4.1530     4.4520    -1.0750 H     1 <1>   0.0800 
 32 H       -4.7390     4.6210     0.5900 H     1 <1>   0.0800 
 33 H       -5.4280     2.3690     0.6240 H     1 <1>   0.0800 
 34 H       -5.2400     2.4100    -1.1150 H     1 <1>   0.0800 
 35 H        6.6460    -0.6200    -0.2190 H     1 <1>   0.0800 
 36 H        7.1280     0.7370     0.7730 H     1 <1>   0.0800 
 37 H        7.1590     0.8660    -0.9710 H     1 <1>   0.0800 
@<TRIPOS>BOND
  1   1   2  2   
  2   2   3  am  
  3   2   4  1   
  4   3   5  1   
  5   3   6  am  
  6   4   7  1   
  7   4   8  1   
  8   4  21  1   
  9   5   9  ar  
 10   5  10  ar  
 11   6   8  1   
 12   6  11  2   
 13   7  12  1   
 14   7  13  1   
 15   8  14  1   
 16   8  22  1   
 17   9  15  ar  
 18   9  23  1   
 19  10  16  ar  
 20  10  24  1   
 21  12  14  1   
 22  12  17  1   
 23  13  18  1   
 24  13  25  1   
 25  13  26  1   
 26  14  27  1   
 27  14  28  1   
 28  15  19  ar  
 29  15  29  1   
 30  16  19  ar  
 31  16  30  1   
 32  17  18  1   
 33  17  31  1   
 34  17  32  1   
 35  18  33  1   
 36  18  34  1   
 37  19  20  1   
 38  20  35  1   
 39  20  36  1   
 40  20  37  1   
@<TRIPOS>SUBSTRUCTURE
  1 ****   3 GROUP 4 **** **** 0

# MOE 2024.06 (io_trps.svl 2023.06)
