@<TRIPOS>MOLECULE
1-Pyrrolidin-1-ylmethyl-cyclohexylamine
37 38 1 0 0 
SMALL
USER_CHARGES


@<TRIPOS>ATOM
  1 N        0.1430    -0.0780    -0.1720 N.4   1 <1>  -0.9590 
  2 C        0.8840     0.9330    -0.9870 C.3   1 <1>   0.3430 
  3 C        1.2060    -1.0230     0.2790 C.3   1 <1>   0.3430 
  4 C       -0.9970    -0.6810    -0.9740 C.3   1 <1>   0.3430 
  5 C        2.1970     1.1340    -0.2470 C.3   1 <1>  -0.1600 
  6 C        2.4060    -0.1360     0.5780 C.3   1 <1>  -0.1600 
  7 C       -2.2320    -1.2490    -0.1800 C.3   1 <1>   0.5030 
  8 N       -1.9000    -2.3720     0.7280 N.4   1 <1>  -0.8530 
  9 C       -3.2720    -1.7930    -1.1740 C.3   1 <1>  -0.1600 
 10 C       -2.8720    -0.1340     0.6810 C.3   1 <1>  -0.1600 
 11 C       -4.5340    -2.3830    -0.5040 C.3   1 <1>  -0.1600 
 12 C       -4.3950    -0.2640     0.9070 C.3   1 <1>  -0.1600 
 13 C       -4.9090    -1.7060     0.8280 C.3   1 <1>  -0.1600 
 14 H       -0.1930     0.4520     0.6460 H     1 <1>   0.4500 
 15 H        0.3380     1.8600    -1.0790 H     1 <1>   0.0800 
 16 H        1.0880     0.5400    -1.9710 H     1 <1>   0.0800 
 17 H        1.4620    -1.7000    -0.5220 H     1 <1>   0.0800 
 18 H        0.9150    -1.5860     1.1500 H     1 <1>   0.0800 
 19 H       -0.6110    -1.4510    -1.6210 H     1 <1>   0.0800 
 20 H       -1.3860     0.0880    -1.6220 H     1 <1>   0.0800 
 21 H        2.1320     1.9960     0.3950 H     1 <1>   0.0800 
 22 H        3.0020     1.2940    -0.9460 H     1 <1>   0.0800 
 23 H        3.3220    -0.6370     0.3130 H     1 <1>   0.0800 
 24 H        2.4420     0.1000     1.6280 H     1 <1>   0.0800 
 25 H       -1.3230    -2.0980     1.5260 H     1 <1>   0.4500 
 26 H       -1.4980    -3.1790     0.2410 H     1 <1>   0.4500 
 27 H       -2.7980    -2.6950     1.1150 H     1 <1>   0.4500 
 28 H       -2.8370    -2.5300    -1.8280 H     1 <1>   0.0800 
 29 H       -3.5910    -0.9780    -1.8040 H     1 <1>   0.0800 
 30 H       -2.7240     0.8180     0.1970 H     1 <1>   0.0800 
 31 H       -2.3770    -0.0680     1.6350 H     1 <1>   0.0800 
 32 H       -4.4210    -3.4430    -0.3420 H     1 <1>   0.0800 
 33 H       -5.3590    -2.2710    -1.1900 H     1 <1>   0.0800 
 34 H       -4.9110     0.3100     0.1530 H     1 <1>   0.0800 
 35 H       -4.6640     0.1670     1.8580 H     1 <1>   0.0800 
 36 H       -4.5330    -2.2700     1.6640 H     1 <1>   0.0800 
 37 H       -5.9830    -1.7030     0.9280 H     1 <1>   0.0800 
@<TRIPOS>BOND
  1   1   2  1   
  2   1   3  1   
  3   1   4  1   
  4   1  14  1   
  5   2   5  1   
  6   2  15  1   
  7   2  16  1   
  8   3   6  1   
  9   3  17  1   
 10   3  18  1   
 11   4   7  1   
 12   4  19  1   
 13   4  20  1   
 14   5   6  1   
 15   5  21  1   
 16   5  22  1   
 17   6  23  1   
 18   6  24  1   
 19   7   8  1   
 20   7   9  1   
 21   7  10  1   
 22   8  25  1   
 23   8  26  1   
 24   8  27  1   
 25   9  11  1   
 26   9  28  1   
 27   9  29  1   
 28  10  12  1   
 29  10  30  1   
 30  10  31  1   
 31  11  13  1   
 32  11  32  1   
 33  11  33  1   
 34  12  13  1   
 35  12  34  1   
 36  12  35  1   
 37  13  36  1   
 38  13  37  1   
@<TRIPOS>SUBSTRUCTURE
  1 ****   7 GROUP 4 **** **** 0

# MOE 2024.06 (io_trps.svl 2023.06)
