@<TRIPOS>MOLECULE
2-(4-Ethoxy-benzylamino)-5,6-dimethyl-4H-[1,2,4]triazolo[1,5-a]pyrimidin-7-one
42 44 1 0 0 
SMALL
USER_CHARGES


@<TRIPOS>ATOM
  1 O       -1.1730    -1.2670     0.6000 O.2   1 <1>  -0.5700 
  2 C       -0.2550    -2.0310     0.3230 C.2   1 <1>   0.5650 
  3 N       -0.3880    -3.4270     0.4970 N.pl3 1 <1>   0.5610 
  4 C        0.9980    -1.5440    -0.2010 C.2   1 <1>  -0.1240 
  5 N       -1.3980    -4.2070     0.9650 N.2   1 <1>  -0.7070 
  6 C        0.6230    -4.2580     0.1520 C.2   1 <1>   0.2700 
  7 C        1.9930    -2.4150    -0.5500 C.2   1 <1>  -0.0380 
  8 C        1.1310    -0.0230    -0.3320 C.3   1 <1>  -0.1020 
  9 C       -0.8920    -5.3790     0.8640 C.2   1 <1>   0.5990 
 10 N        0.3430    -5.4890     0.3600 N.2   1 <1>  -0.5650 
 11 N        1.8050    -3.7660    -0.3680 N.pl3 1 <1>  -0.5840 
 12 C        3.3470    -2.0580    -1.1460 C.3   1 <1>  -0.1020 
 13 N       -1.6070    -6.4680     1.2550 N.pl3 1 <1>  -0.8520 
 14 C       -1.8200    -7.4810     0.2100 C.3   1 <1>   0.3530 
 15 C       -3.3150    -7.6060    -0.0280 C.ar  1 <1>  -0.1440 
 16 C       -4.0000    -8.7540     0.3450 C.ar  1 <1>  -0.1500 
 17 C       -4.0120    -6.5630    -0.6210 C.ar  1 <1>  -0.1500 
 18 C       -5.3620    -8.8630     0.1240 C.ar  1 <1>  -0.1500 
 19 C       -5.3730    -6.6700    -0.8420 C.ar  1 <1>  -0.1500 
 20 C       -6.0580    -7.8160    -0.4750 C.ar  1 <1>   0.0820 
 21 O       -7.3900    -7.8390    -0.7280 O.3   1 <1>  -0.3630 
 22 C       -8.1840    -8.9460    -0.3750 C.3   1 <1>   0.1200 
 23 C       -9.6230    -8.6460    -0.7860 C.3   1 <1>  -0.2400 
 24 H        0.7330     0.4600     0.5440 H     1 <1>   0.0800 
 25 H        0.5740     0.3190    -1.1860 H     1 <1>   0.0800 
 26 H        2.1500     0.2970    -0.4300 H     1 <1>   0.0800 
 27 H        2.5280    -4.4600    -0.5940 H     1 <1>   0.4000 
 28 H        3.5900    -2.7430    -1.9390 H     1 <1>   0.0800 
 29 H        4.1070    -2.1270    -0.3890 H     1 <1>   0.0800 
 30 H        3.3620    -1.0710    -1.5650 H     1 <1>   0.0800 
 31 H       -2.5230    -6.1190     1.5450 H     1 <1>   0.4000 
 32 H       -1.4070    -8.4180     0.5400 H     1 <1>   0.0800 
 33 H       -1.3310    -7.2020    -0.7090 H     1 <1>   0.0800 
 34 H       -3.4740    -9.5680     0.8130 H     1 <1>   0.1500 
 35 H       -3.4970    -5.6610    -0.9080 H     1 <1>   0.1500 
 36 H       -5.8610    -9.7640     0.4240 H     1 <1>   0.1500 
 37 H       -5.9140    -5.8620    -1.3010 H     1 <1>   0.1500 
 38 H       -8.1140    -9.0900     0.6890 H     1 <1>   0.0800 
 39 H       -7.8130    -9.8120    -0.8960 H     1 <1>   0.0800 
 40 H       -9.9770    -7.7700    -0.2730 H     1 <1>   0.0800 
 41 H      -10.2570    -9.4750    -0.5280 H     1 <1>   0.0800 
 42 H       -9.6780    -8.4880    -1.8480 H     1 <1>   0.0800 
@<TRIPOS>BOND
  1   1   2  2   
  2   2   3  1   
  3   2   4  1   
  4   3   5  1   
  5   3   6  1   
  6   4   7  2   
  7   4   8  1   
  8   5   9  2   
  9   6  10  2   
 10   6  11  1   
 11   7  11  1   
 12   7  12  1   
 13   8  24  1   
 14   8  25  1   
 15   8  26  1   
 16   9  10  1   
 17   9  13  1   
 18  11  27  1   
 19  12  28  1   
 20  12  29  1   
 21  12  30  1   
 22  13  14  1   
 23  13  31  1   
 24  14  15  1   
 25  14  32  1   
 26  14  33  1   
 27  15  16  ar  
 28  15  17  ar  
 29  16  18  ar  
 30  16  34  1   
 31  17  19  ar  
 32  17  35  1   
 33  18  20  ar  
 34  18  36  1   
 35  19  20  ar  
 36  19  37  1   
 37  20  21  1   
 38  21  22  1   
 39  22  23  1   
 40  22  38  1   
 41  22  39  1   
 42  23  40  1   
 43  23  41  1   
 44  23  42  1   
@<TRIPOS>SUBSTRUCTURE
  1 ****   9 GROUP 4 **** **** 0

# MOE 2024.06 (io_trps.svl 2023.06)
