@<TRIPOS>MOLECULE
1-Cyclopropyl-4-hydroxy-2-oxo-1,2,5,6,7,8-hexahydro-quinoline-3-carboxylic acid
45 49 1 0 0 
SMALL
USER_CHARGES


@<TRIPOS>ATOM
  1 S       -0.3590    -0.2650     0.3730 S.3   1 <1>  -0.0800 
  2 C       -1.5930     0.9760     0.1320 C.2   1 <1>   0.4420 
  3 C        0.8900     0.9330     0.1290 C.ar  1 <1>   0.0400 
  4 N       -1.1150     2.1430    -0.1080 N.2   1 <1>  -0.5650 
  5 N       -2.8880     0.5440     0.2160 N.am  1 <1>  -0.4940 
  6 C        0.2690     2.1440    -0.1110 C.ar  1 <1>   0.2270 
  7 C        2.2620     0.7680     0.1590 C.ar  1 <1>  -0.1500 
  8 C       -4.1110     1.1690     0.2280 C.2   1 <1>   0.6160 
  9 C        1.0720     3.2540    -0.3350 C.ar  1 <1>  -0.1500 
 10 C        3.0470     1.8870    -0.0670 C.ar  1 <1>  -0.1500 
 11 O       -4.1120     2.3910     0.3770 O.2   1 <1>  -0.5700 
 12 C       -5.2890     0.3770     0.1200 C.2   1 <1>   0.0290 
 13 C        2.4520     3.1230    -0.3120 C.ar  1 <1>  -0.1500 
 14 C       -5.2660    -1.0290     0.3670 C.2   1 <1>  -0.0500 
 15 C       -6.5290     0.9530    -0.2370 C.2   1 <1>   0.5410 
 16 O       -4.2450    -1.6150     0.7440 O.3   1 <1>  -0.8500 
 17 N       -6.4230    -1.7920     0.2080 N.pl3 1 <1>  -0.3690 
 18 O       -6.6470     2.1170    -0.6540 O.2   1 <1>  -0.5700 
 19 C       -7.7280     0.1680    -0.1390 C.2   1 <1>  -0.1240 
 20 C       -7.6620    -1.1660     0.1020 C.2   1 <1>  -0.0380 
 21 C       -6.2970    -3.2800     0.2290 C.3   1 <1>   0.0690 
 22 C       -9.0630     0.9060    -0.2940 C.3   1 <1>  -0.0220 
 23 C       -8.9190    -2.0180     0.2870 C.3   1 <1>  -0.0220 
 24 C       -5.3560    -3.9470    -0.7300 C.3   1 <1>  -0.2000 
 25 C       -6.8270    -4.0970    -0.9150 C.3   1 <1>  -0.2000 
 26 C      -10.2690    -0.0310    -0.4280 C.3   1 <1>  -0.1600 
 27 C      -10.1680    -1.1780     0.5760 C.3   1 <1>  -0.1600 
 28 H       -3.0530    -0.4690     0.3790 H     1 <1>   0.3700 
 29 H        2.6940    -0.1980     0.3510 H     1 <1>   0.1500 
 30 H        0.5990     4.2010    -0.5220 H     1 <1>   0.1500 
 31 H        4.1200     1.8040    -0.0540 H     1 <1>   0.1500 
 32 H        3.0720     3.9860    -0.4860 H     1 <1>   0.1500 
 33 H       -6.2980    -3.6620     1.2340 H     1 <1>   0.1000 
 34 H       -9.0310     1.5410    -1.1630 H     1 <1>   0.0800 
 35 H       -9.1940     1.5380     0.5660 H     1 <1>   0.0800 
 36 H       -8.7750    -2.7000     1.1060 H     1 <1>   0.0800 
 37 H       -9.0850    -2.5910    -0.6060 H     1 <1>   0.0800 
 38 H       -4.7740    -4.7670    -0.3530 H     1 <1>   0.1000 
 39 H       -4.7810    -3.2880    -1.3560 H     1 <1>   0.1000 
 40 H       -7.2690    -3.5970    -1.7570 H     1 <1>   0.1000 
 41 H       -7.2730    -5.0520    -0.7060 H     1 <1>   0.1000 
 42 H      -10.2950    -0.4340    -1.4260 H     1 <1>   0.0800 
 43 H      -11.1770     0.5250    -0.2680 H     1 <1>   0.0800 
 44 H      -10.1030    -0.7780     1.5740 H     1 <1>   0.0800 
 45 H      -11.0430    -1.8010     0.5190 H     1 <1>   0.0800 
@<TRIPOS>BOND
  1   1   2  1   
  2   1   3  1   
  3   2   4  2   
  4   2   5  1   
  5   3   6  ar  
  6   3   7  ar  
  7   4   6  1   
  8   5   8  am  
  9   5  28  1   
 10   6   9  ar  
 11   7  10  ar  
 12   7  29  1   
 13   8  11  2   
 14   8  12  1   
 15   9  13  ar  
 16   9  30  1   
 17  10  13  ar  
 18  10  31  1   
 19  12  14  2   
 20  12  15  1   
 21  13  32  1   
 22  14  16  1   
 23  14  17  1   
 24  15  18  2   
 25  15  19  1   
 26  17  20  1   
 27  17  21  1   
 28  19  20  2   
 29  19  22  1   
 30  20  23  1   
 31  21  24  1   
 32  21  25  1   
 33  21  33  1   
 34  22  26  1   
 35  22  34  1   
 36  22  35  1   
 37  23  27  1   
 38  23  36  1   
 39  23  37  1   
 40  24  25  1   
 41  24  38  1   
 42  24  39  1   
 43  25  40  1   
 44  25  41  1   
 45  26  27  1   
 46  26  42  1   
 47  26  43  1   
 48  27  44  1   
 49  27  45  1   
@<TRIPOS>SUBSTRUCTURE
  1 ****   8 GROUP 4 **** **** 0

# MOE 2024.06 (io_trps.svl 2023.06)
