@<TRIPOS>MOLECULE
3-(2-Amino-thiazol-4-yl)-propionic acid
18 18 1 0 0 
SMALL
USER_CHARGES


@<TRIPOS>ATOM
  1 S       -0.0420    -0.0790    -0.5240 S.3   1 <1>  -0.0800 
  2 C        0.6560    -1.3550     0.4580 C.2   1 <1>   0.4620 
  3 C        1.5040     0.7230    -0.5240 C.2   1 <1>  -0.1100 
  4 N        1.8900    -1.1880     0.7440 N.2   1 <1>  -0.5650 
  5 N       -0.1230    -2.3980     0.8310 N.pl3 1 <1>  -0.8840 
  6 C        2.3720    -0.0150     0.1870 C.2   1 <1>   0.0460 
  7 C        3.8290     0.3480     0.4210 C.3   1 <1>   0.0210 
  8 C        4.7740    -0.5260    -0.4100 C.3   1 <1>  -0.2660 
  9 C        6.1870    -0.0220    -0.2940 C.2   1 <1>   0.9060 
 10 O        6.4610     1.0620    -0.8180 O.co2 1 <1>  -0.9000 
 11 O        7.0120    -0.6940     0.3290 O.co2 1 <1>  -0.9000 
 12 H        1.6010     1.6520    -1.0540 H     1 <1>   0.1500 
 13 H        0.3270    -3.1880     1.2930 H     1 <1>   0.4000 
 14 H       -1.0420    -2.5500     0.4200 H     1 <1>   0.4000 
 15 H        4.0660     0.2440     1.4650 H     1 <1>   0.0800 
 16 H        3.9820     1.3780     0.1490 H     1 <1>   0.0800 
 17 H        4.4970    -0.4930    -1.4450 H     1 <1>   0.0800 
 18 H        4.7360    -1.5430    -0.0700 H     1 <1>   0.0800 
@<TRIPOS>BOND
  1   1   2  1   
  2   1   3  1   
  3   2   4  2   
  4   2   5  1   
  5   3   6  2   
  6   3  12  1   
  7   4   6  1   
  8   5  13  1   
  9   5  14  1   
 10   6   7  1   
 11   7   8  1   
 12   7  15  1   
 13   7  16  1   
 14   8   9  1   
 15   8  17  1   
 16   8  18  1   
 17   9  10  ar  
 18   9  11  ar  
@<TRIPOS>SUBSTRUCTURE
  1 ****   6 GROUP 4 **** **** 0

# MOE 2024.06 (io_trps.svl 2023.06)
