@<TRIPOS>MOLECULE
1-(4-Ethoxy-3-methyl-benzenesulfonyl)-piperidine-4-carboxylic acid
42 43 1 0 0 
SMALL
USER_CHARGES


@<TRIPOS>ATOM
  1 S        0.1930     0.3190     2.0250 S.o2  1 <1>   1.4470 
  2 O        0.8680    -0.5500     2.9660 O.2   1 <1>  -0.6500 
  3 O       -0.2530     1.6230     2.4730 O.2   1 <1>  -0.6500 
  4 N        1.2370     0.5680     0.7150 N.am  1 <1>  -0.8490 
  5 C       -1.1910    -0.5870     1.2790 C.ar  1 <1>  -0.0090 
  6 C        2.5960     0.9070     1.1480 C.3   1 <1>   0.1960 
  7 C        0.7200     1.5720    -0.2250 C.3   1 <1>   0.1960 
  8 C       -2.5070    -0.3020     1.6240 C.ar  1 <1>  -0.1500 
  9 C       -0.9700    -1.5970     0.3510 C.ar  1 <1>  -0.1500 
 10 C        3.5460     0.9660    -0.0520 C.3   1 <1>  -0.1600 
 11 C        1.5980     1.6400    -1.4750 C.3   1 <1>  -0.1600 
 12 C       -3.5730    -0.9880     1.0630 C.ar  1 <1>  -0.1440 
 13 C       -2.0190    -2.2930    -0.2210 C.ar  1 <1>  -0.1500 
 14 C        3.0580     1.9680    -1.1120 C.3   1 <1>  -0.1860 
 15 C       -3.3320    -1.9920     0.1310 C.ar  1 <1>   0.0820 
 16 C       -4.9970    -0.6380     1.4710 C.3   1 <1>  -0.0970 
 17 C        3.9680     1.9940    -2.3350 C.2   1 <1>   0.9060 
 18 O       -4.4050    -2.6370    -0.3960 O.3   1 <1>  -0.3630 
 19 O        4.6440     3.0070    -2.5360 O.co2 1 <1>  -0.9000 
 20 O        4.0040     1.0110    -3.0840 O.co2 1 <1>  -0.9000 
 21 C       -4.2620    -3.6770    -1.3350 C.3   1 <1>   0.1200 
 22 C       -5.6560    -4.1710    -1.7090 C.3   1 <1>  -0.2400 
 23 H        2.9590     0.1580     1.8320 H     1 <1>   0.0800 
 24 H        2.5910     1.8560     1.6590 H     1 <1>   0.0800 
 25 H        0.6930     2.5400     0.2490 H     1 <1>   0.0800 
 26 H       -0.2820     1.3130    -0.5210 H     1 <1>   0.0800 
 27 H       -2.6940     0.4750     2.3460 H     1 <1>   0.1500 
 28 H        0.0440    -1.8360     0.0710 H     1 <1>   0.1500 
 29 H        3.6200    -0.0130    -0.4930 H     1 <1>   0.0800 
 30 H        4.5300     1.2500     0.2770 H     1 <1>   0.0800 
 31 H        1.2220     2.3930    -2.1440 H     1 <1>   0.0800 
 32 H        1.5580     0.6960    -1.9900 H     1 <1>   0.0800 
 33 H       -1.7920    -3.0620    -0.9350 H     1 <1>   0.1500 
 34 H        3.0880     2.9540    -0.6860 H     1 <1>   0.0800 
 35 H       -5.0130     0.1570     2.1940 H     1 <1>   0.0800 
 36 H       -5.4750    -1.5010     1.8980 H     1 <1>   0.0800 
 37 H       -5.5570    -0.3290     0.6060 H     1 <1>   0.0800 
 38 H       -3.6870    -4.4670    -0.8830 H     1 <1>   0.0800 
 39 H       -3.7510    -3.2890    -2.1990 H     1 <1>   0.0800 
 40 H       -6.1630    -4.5410    -0.8360 H     1 <1>   0.0800 
 41 H       -5.5810    -4.9680    -2.4260 H     1 <1>   0.0800 
 42 H       -6.2270    -3.3700    -2.1440 H     1 <1>   0.0800 
@<TRIPOS>BOND
  1   1   2  2   
  2   1   3  2   
  3   1   4  am  
  4   1   5  1   
  5   4   6  1   
  6   4   7  1   
  7   5   8  ar  
  8   5   9  ar  
  9   6  10  1   
 10   6  23  1   
 11   6  24  1   
 12   7  11  1   
 13   7  25  1   
 14   7  26  1   
 15   8  12  ar  
 16   8  27  1   
 17   9  13  ar  
 18   9  28  1   
 19  10  14  1   
 20  10  29  1   
 21  10  30  1   
 22  11  14  1   
 23  11  31  1   
 24  11  32  1   
 25  12  15  ar  
 26  12  16  1   
 27  13  15  ar  
 28  13  33  1   
 29  14  17  1   
 30  14  34  1   
 31  15  18  1   
 32  16  35  1   
 33  16  36  1   
 34  16  37  1   
 35  17  19  ar  
 36  17  20  ar  
 37  18  21  1   
 38  21  22  1   
 39  21  38  1   
 40  21  39  1   
 41  22  40  1   
 42  22  41  1   
 43  22  42  1   
@<TRIPOS>SUBSTRUCTURE
  1 ****   5 GROUP 4 **** **** 0

# MOE 2024.06 (io_trps.svl 2023.06)
