@<TRIPOS>MOLECULE
Pentanoic acid [3-(4-tert-butyl-phenyl)-[1,2,4]oxadiazol-5-ylmethyl]-amide
48 49 1 0 0 
SMALL
USER_CHARGES


@<TRIPOS>ATOM
  1 O       -1.2650    -0.7480    -1.6250 O.2   1 <1>  -0.5700 
  2 C       -2.0580    -0.8730    -0.7300 C.2   1 <1>   0.5690 
  3 N       -1.7580    -1.6840     0.3090 N.am  1 <1>  -0.7300 
  4 C       -3.3730    -0.1140    -0.8000 C.3   1 <1>  -0.0990 
  5 C       -2.5980    -2.0210     1.4880 C.3   1 <1>   0.3200 
  6 C       -3.3140     1.2220    -0.0430 C.3   1 <1>  -0.1600 
  7 C       -3.5730    -3.1500     1.1880 C.2   1 <1>   0.2980 
  8 C       -4.6600     1.9540    -0.1000 C.3   1 <1>  -0.1600 
  9 O       -3.0930    -4.3390     0.9360 O.3   1 <1>  -0.0190 
 10 N       -4.8380    -3.0540     1.1590 N.2   1 <1>  -0.5650 
 11 C       -4.5950     3.2850     0.6540 C.3   1 <1>  -0.2400 
 12 N       -4.1450    -5.0650     0.7260 N.2   1 <1>  -0.4100 
 13 C       -5.1800    -4.3110     0.8510 C.2   1 <1>   0.4620 
 14 C       -6.5620    -4.7320     0.6870 C.ar  1 <1>   0.0540 
 15 C       -6.8850    -6.0370     0.3220 C.ar  1 <1>  -0.1500 
 16 C       -7.6290    -3.8570     0.8840 C.ar  1 <1>  -0.1500 
 17 C       -8.1960    -6.4470     0.1620 C.ar  1 <1>  -0.1500 
 18 C       -8.9400    -4.2640     0.7250 C.ar  1 <1>  -0.1500 
 19 C       -9.2560    -5.5680     0.3600 C.ar  1 <1>  -0.1430 
 20 C      -10.7360    -5.9770     0.1950 C.3   1 <1>   0.1430 
 21 C      -11.3890    -5.1120    -0.8950 C.3   1 <1>  -0.2400 
 22 C      -11.4780    -5.7690     1.5230 C.3   1 <1>  -0.2400 
 23 C      -10.9160    -7.4490    -0.2120 C.3   1 <1>  -0.2400 
 24 H       -0.8850    -2.2060     0.2100 H     1 <1>   0.3700 
 25 H       -4.1660    -0.7280    -0.4160 H     1 <1>   0.0800 
 26 H       -3.5910     0.0760    -1.8360 H     1 <1>   0.0800 
 27 H       -3.1560    -1.1540     1.7950 H     1 <1>   0.0800 
 28 H       -1.9620    -2.3120     2.3050 H     1 <1>   0.0800 
 29 H       -2.5490     1.8390    -0.4850 H     1 <1>   0.0800 
 30 H       -3.0440     1.0480     0.9830 H     1 <1>   0.0800 
 31 H       -5.4280     1.3380     0.3360 H     1 <1>   0.0800 
 32 H       -4.9260     2.1430    -1.1270 H     1 <1>   0.0800 
 33 H       -4.3530     3.1210     1.6890 H     1 <1>   0.0800 
 34 H       -5.5460     3.7850     0.6000 H     1 <1>   0.0800 
 35 H       -3.8480     3.9270     0.2200 H     1 <1>   0.0800 
 36 H       -6.0940    -6.7480     0.1590 H     1 <1>   0.1500 
 37 H       -7.4310    -2.8380     1.1670 H     1 <1>   0.1500 
 38 H       -8.3630    -7.4690    -0.1210 H     1 <1>   0.1500 
 39 H       -9.7210    -3.5450     0.8910 H     1 <1>   0.1500 
 40 H      -11.3780    -4.0730    -0.6240 H     1 <1>   0.0800 
 41 H      -12.4110    -5.4060    -1.0510 H     1 <1>   0.0800 
 42 H      -10.8540    -5.2240    -1.8210 H     1 <1>   0.0800 
 43 H      -12.5030    -6.0830     1.4400 H     1 <1>   0.0800 
 44 H      -11.4680    -4.7360     1.8160 H     1 <1>   0.0800 
 45 H      -11.0060    -6.3440     2.3010 H     1 <1>   0.0800 
 46 H      -11.9590    -7.6890    -0.3160 H     1 <1>   0.0800 
 47 H      -10.4980    -8.1000     0.5350 H     1 <1>   0.0800 
 48 H      -10.4350    -7.6420    -1.1550 H     1 <1>   0.0800 
@<TRIPOS>BOND
  1   1   2  2   
  2   2   3  am  
  3   2   4  1   
  4   3   5  1   
  5   3  24  1   
  6   4   6  1   
  7   4  25  1   
  8   4  26  1   
  9   5   7  1   
 10   5  27  1   
 11   5  28  1   
 12   6   8  1   
 13   6  29  1   
 14   6  30  1   
 15   7   9  1   
 16   7  10  2   
 17   8  11  1   
 18   8  31  1   
 19   8  32  1   
 20   9  12  1   
 21  10  13  1   
 22  11  33  1   
 23  11  34  1   
 24  11  35  1   
 25  12  13  2   
 26  13  14  1   
 27  14  15  ar  
 28  14  16  ar  
 29  15  17  ar  
 30  15  36  1   
 31  16  18  ar  
 32  16  37  1   
 33  17  19  ar  
 34  17  38  1   
 35  18  19  ar  
 36  18  39  1   
 37  19  20  1   
 38  20  21  1   
 39  20  22  1   
 40  20  23  1   
 41  21  40  1   
 42  21  41  1   
 43  21  42  1   
 44  22  43  1   
 45  22  44  1   
 46  22  45  1   
 47  23  46  1   
 48  23  47  1   
 49  23  48  1   
@<TRIPOS>SUBSTRUCTURE
  1 ****  10 GROUP 4 **** **** 0

# MOE 2024.06 (io_trps.svl 2023.06)
