@<TRIPOS>MOLECULE
1-Methanesulfonyl-piperidine-3-carboxylic acid (3-methoxy-phenyl)-amide
41 42 1 0 0 
SMALL
USER_CHARGES


@<TRIPOS>ATOM
  1 S        0.2160     0.0110     1.1800 S.o2  1 <1>   1.3330 
  2 O        0.7500     0.9280     2.1590 O.2   1 <1>  -0.6500 
  3 O       -0.8370    -0.9120     1.5330 O.2   1 <1>  -0.6500 
  4 N        1.5090    -0.8870     0.5540 N.am  1 <1>  -0.8490 
  5 C       -0.3610     0.9770    -0.2040 C.3   1 <1>  -0.1350 
  6 C        2.6580    -0.0780     0.1300 C.3   1 <1>   0.1960 
  7 C        1.1260    -1.9140    -0.4180 C.3   1 <1>   0.1960 
  8 C        3.8820    -0.9700    -0.1060 C.3   1 <1>  -0.0190 
  9 C        2.3070    -2.8540    -0.6810 C.3   1 <1>  -0.1600 
 10 C        5.0540    -0.1180    -0.5690 C.2   1 <1>   0.5690 
 11 C        3.5610    -2.0840    -1.1210 C.3   1 <1>  -0.1600 
 12 O        4.8690     0.6780    -1.4580 O.2   1 <1>  -0.5700 
 13 N        6.2620    -0.3110     0.0450 N.am  1 <1>  -0.5470 
 14 C        7.5110     0.3050    -0.1340 C.ar  1 <1>   0.1170 
 15 C        8.6310    -0.3110     0.4070 C.ar  1 <1>  -0.1500 
 16 C        7.6860     1.5080    -0.8120 C.ar  1 <1>  -0.1500 
 17 C        9.8930     0.2420     0.2790 C.ar  1 <1>   0.0820 
 18 C        8.9420     2.0710    -0.9490 C.ar  1 <1>  -0.1500 
 19 O       10.9180    -0.4430     0.8460 O.3   1 <1>  -0.3620 
 20 C       10.0490     1.4440    -0.4060 C.ar  1 <1>  -0.1500 
 21 C       12.2450     0.0270     0.7620 C.3   1 <1>   0.0400 
 22 H        0.4130     1.6270    -0.5590 H     1 <1>   0.0800 
 23 H       -1.1940     1.5790     0.1020 H     1 <1>   0.0800 
 24 H       -0.6800     0.3380    -1.0020 H     1 <1>   0.0800 
 25 H        2.8980     0.6430     0.8940 H     1 <1>   0.0800 
 26 H        2.4160     0.4560    -0.7740 H     1 <1>   0.0800 
 27 H        0.8140    -1.4520    -1.3390 H     1 <1>   0.0800 
 28 H        0.3030    -2.4930    -0.0300 H     1 <1>   0.0800 
 29 H        4.1350    -1.4200     0.8370 H     1 <1>   0.0800 
 30 H        2.0330    -3.5640    -1.4410 H     1 <1>   0.0800 
 31 H        2.5150    -3.4030     0.2210 H     1 <1>   0.0800 
 32 H        4.3950    -2.7590    -1.2050 H     1 <1>   0.0800 
 33 H        3.3900    -1.6450    -2.0900 H     1 <1>   0.0800 
 34 H        6.2720    -1.0560     0.7390 H     1 <1>   0.3700 
 35 H        8.5360    -1.2390     0.9380 H     1 <1>   0.1500 
 36 H        6.8420     2.0190    -1.2370 H     1 <1>   0.1500 
 37 H        9.0550     3.0000    -1.4790 H     1 <1>   0.1500 
 38 H       11.0130     1.9010    -0.5260 H     1 <1>   0.1500 
 39 H       12.8800    -0.6740     1.2740 H     1 <1>   0.0800 
 40 H       12.3060     0.9900     1.2380 H     1 <1>   0.0800 
 41 H       12.5290     0.0890    -0.2730 H     1 <1>   0.0800 
@<TRIPOS>BOND
  1   1   2  2   
  2   1   3  2   
  3   1   4  am  
  4   1   5  1   
  5   4   6  1   
  6   4   7  1   
  7   5  22  1   
  8   5  23  1   
  9   5  24  1   
 10   6   8  1   
 11   6  25  1   
 12   6  26  1   
 13   7   9  1   
 14   7  27  1   
 15   7  28  1   
 16   8  10  1   
 17   8  11  1   
 18   8  29  1   
 19   9  11  1   
 20   9  30  1   
 21   9  31  1   
 22  10  12  2   
 23  10  13  am  
 24  11  32  1   
 25  11  33  1   
 26  13  14  1   
 27  13  34  1   
 28  14  15  ar  
 29  14  16  ar  
 30  15  17  ar  
 31  15  35  1   
 32  16  18  ar  
 33  16  36  1   
 34  17  19  1   
 35  17  20  ar  
 36  18  20  ar  
 37  18  37  1   
 38  19  21  1   
 39  20  38  1   
 40  21  39  1   
 41  21  40  1   
 42  21  41  1   
@<TRIPOS>SUBSTRUCTURE
  1 ****  10 GROUP 4 **** **** 0

# MOE 2024.06 (io_trps.svl 2023.06)
