@<TRIPOS>MOLECULE
4-[3-(2-Chloro-phenyl)-[1,2,4]oxadiazol-5-yl]-N-isopropyl-butyramide
39 40 1 0 0 
SMALL
USER_CHARGES


@<TRIPOS>ATOM
  1 CL       0.3300    -0.1370     1.4690 Cl    1 <1>  -0.1770 
  2 C        0.7960    -1.6420     0.7100 C.ar  1 <1>   0.1770 
  3 C        1.8130    -1.6760    -0.2450 C.ar  1 <1>   0.0540 
  4 C        0.1030    -2.7790     1.0830 C.ar  1 <1>  -0.1500 
  5 C        2.5600    -0.5030    -0.6340 C.2   1 <1>   0.4620 
  6 C        2.0920    -2.9120    -0.8300 C.ar  1 <1>  -0.1500 
  7 C        0.4080    -3.9930     0.4950 C.ar  1 <1>  -0.1500 
  8 N        2.7140    -0.0900    -1.8410 N.2   1 <1>  -0.4100 
  9 N        3.2160     0.2600     0.2430 N.2   1 <1>  -0.5650 
 10 C        1.4020    -4.0560    -0.4660 C.ar  1 <1>  -0.1500 
 11 O        3.4570     0.9710    -1.8020 O.3   1 <1>  -0.0190 
 12 C        3.7240     1.1260    -0.5320 C.2   1 <1>   0.2980 
 13 C        4.6060     2.2840    -0.1030 C.3   1 <1>   0.0200 
 14 C        6.0750     2.0830    -0.5090 C.3   1 <1>  -0.1600 
 15 C        6.6910     0.8110     0.1110 C.3   1 <1>  -0.0990 
 16 C        8.1520     0.5890    -0.2560 C.2   1 <1>   0.5690 
 17 O        8.8050     1.4940    -0.7090 O.2   1 <1>  -0.5700 
 18 N        8.7310    -0.6190    -0.0740 N.am  1 <1>  -0.7300 
 19 C        8.1700    -1.8400     0.5150 C.3   1 <1>   0.2200 
 20 C        9.2190    -2.4420     1.4440 C.3   1 <1>  -0.2400 
 21 C        7.8160    -2.7990    -0.6160 C.3   1 <1>  -0.2400 
 22 H       -0.6710    -2.7100     1.8270 H     1 <1>   0.1500 
 23 H        2.8610    -2.9720    -1.5800 H     1 <1>   0.1500 
 24 H       -0.1280    -4.8840     0.7790 H     1 <1>   0.1500 
 25 H        1.6390    -4.9980    -0.9310 H     1 <1>   0.1500 
 26 H        4.5410     2.3930     0.9650 H     1 <1>   0.0800 
 27 H        4.2290     3.1870    -0.5480 H     1 <1>   0.0800 
 28 H        6.6440     2.9410    -0.1930 H     1 <1>   0.0800 
 29 H        6.1470     2.0230    -1.5820 H     1 <1>   0.0800 
 30 H        6.1330    -0.0440    -0.2190 H     1 <1>   0.0800 
 31 H        6.6230     0.8650     1.1820 H     1 <1>   0.0800 
 32 H        9.7040    -0.6860    -0.3750 H     1 <1>   0.3700 
 33 H        7.2860    -1.6070     1.0850 H     1 <1>   0.0800 
 34 H       10.1110    -2.6960     0.9000 H     1 <1>   0.0800 
 35 H        8.8330    -3.3340     1.9020 H     1 <1>   0.0800 
 36 H        9.4650    -1.7430     2.2240 H     1 <1>   0.0800 
 37 H        8.6880    -3.0460    -1.1930 H     1 <1>   0.0800 
 38 H        7.0800    -2.3530    -1.2610 H     1 <1>   0.0800 
 39 H        7.4040    -3.7060    -0.2120 H     1 <1>   0.0800 
@<TRIPOS>BOND
  1   1   2  1   
  2   2   3  ar  
  3   2   4  ar  
  4   3   5  1   
  5   3   6  ar  
  6   4   7  ar  
  7   4  22  1   
  8   5   8  2   
  9   5   9  1   
 10   6  10  ar  
 11   6  23  1   
 12   7  10  ar  
 13   7  24  1   
 14   8  11  1   
 15   9  12  2   
 16  10  25  1   
 17  11  12  1   
 18  12  13  1   
 19  13  14  1   
 20  13  26  1   
 21  13  27  1   
 22  14  15  1   
 23  14  28  1   
 24  14  29  1   
 25  15  16  1   
 26  15  30  1   
 27  15  31  1   
 28  16  17  2   
 29  16  18  am  
 30  18  19  1   
 31  18  32  1   
 32  19  20  1   
 33  19  21  1   
 34  19  33  1   
 35  20  34  1   
 36  20  35  1   
 37  20  36  1   
 38  21  37  1   
 39  21  38  1   
 40  21  39  1   
@<TRIPOS>SUBSTRUCTURE
  1 ****   9 GROUP 4 **** **** 0

# MOE 2024.06 (io_trps.svl 2023.06)
