@<TRIPOS>MOLECULE
1-(4-Methoxy-3-methyl-benzenesulfonyl)-piperidine-4-carboxylic acid (benzo[1,3]d
57 60 1 0 0 
SMALL
USER_CHARGES


@<TRIPOS>ATOM
  1 S        0.5280    -0.3010    -2.0710 S.o2  1 <1>   1.4470 
  2 O        0.1430     0.8280    -2.8920 O.2   1 <1>  -0.6500 
  3 O        1.1210    -1.4620    -2.6980 O.2   1 <1>  -0.6500 
  4 N        1.6570     0.2900    -0.9510 N.am  1 <1>  -0.8490 
  5 C       -0.8570    -0.8280    -1.0240 C.ar  1 <1>  -0.0090 
  6 C        1.2030     1.5360    -0.3240 C.3   1 <1>   0.1960 
  7 C        2.9760     0.4470    -1.5640 C.3   1 <1>   0.1960 
  8 C       -2.1500    -0.3710    -1.2510 C.ar  1 <1>  -0.1500 
  9 C       -0.6540    -1.7000     0.0380 C.ar  1 <1>  -0.1500 
 10 C        2.1720     1.9480     0.7860 C.3   1 <1>  -0.1600 
 11 C        4.0100     0.8340    -0.5040 C.3   1 <1>  -0.1600 
 12 C       -3.2110    -0.7600    -0.4490 C.ar  1 <1>  -0.1430 
 13 C       -1.7000    -2.1010     0.8490 C.ar  1 <1>  -0.1500 
 14 C        3.6020     2.1160     0.2420 C.3   1 <1>  -0.0190 
 15 C       -2.9890    -1.6320     0.6120 C.ar  1 <1>   0.0820 
 16 C       -4.6090    -0.2330    -0.7370 C.3   1 <1>  -0.0970 
 17 C        4.6250     2.4600     1.3230 C.2   1 <1>   0.5690 
 18 O       -4.0550    -1.9860     1.3750 O.3   1 <1>  -0.3630 
 19 O        4.3980     2.2160     2.4840 O.2   1 <1>  -0.5700 
 20 N        5.7970     3.0140     0.9300 N.am  1 <1>  -0.7300 
 21 C       -3.9310    -2.8790     2.4590 C.3   1 <1>   0.0400 
 22 C        6.9800     3.1670     1.7940 C.3   1 <1>   0.2840 
 23 C        8.0900     2.3350     1.1820 C.ar  1 <1>  -0.1430 
 24 C        9.1020     2.9430     0.4440 C.ar  1 <1>  -0.1500 
 25 C        8.0830     0.9500     1.3490 C.ar  1 <1>  -0.1500 
 26 C       10.0780     2.1370    -0.1070 C.ar  1 <1>   0.0820 
 27 C        9.0750     0.1560     0.7880 C.ar  1 <1>  -0.1500 
 28 O       11.1310     2.5000    -0.8470 O.3   1 <1>  -0.3630 
 29 C       10.0660     0.7830     0.0600 C.ar  1 <1>   0.0820 
 30 C       11.8400     1.3030    -1.1630 C.3   1 <1>   0.4000 
 31 O       11.1110     0.2320    -0.5670 O.3   1 <1>  -0.3620 
 32 H        0.2250     1.3950     0.1060 H     1 <1>   0.0800 
 33 H        1.1360     2.3200    -1.0620 H     1 <1>   0.0800 
 34 H        2.9330     1.1960    -2.3390 H     1 <1>   0.0800 
 35 H        3.2810    -0.4840    -2.0150 H     1 <1>   0.0800 
 36 H       -2.3230     0.3020    -2.0740 H     1 <1>   0.1500 
 37 H        0.3400    -2.0680     0.2290 H     1 <1>   0.1500 
 38 H        2.1550     1.1950     1.5550 H     1 <1>   0.0800 
 39 H        1.8420     2.8720     1.2270 H     1 <1>   0.0800 
 40 H        4.9660     0.9710    -0.9780 H     1 <1>   0.0800 
 41 H        4.1060     0.0230     0.1970 H     1 <1>   0.0800 
 42 H       -1.4910    -2.7760     1.6570 H     1 <1>   0.1500 
 43 H        3.5920     2.9290    -0.4620 H     1 <1>   0.0800 
 44 H       -4.6120     0.4260    -1.5860 H     1 <1>   0.0800 
 45 H       -4.9780     0.3060     0.1170 H     1 <1>   0.0800 
 46 H       -5.2730    -1.0550    -0.9380 H     1 <1>   0.0800 
 47 H        5.9970     3.1270    -0.0630 H     1 <1>   0.3700 
 48 H       -4.9030    -3.0070     2.8990 H     1 <1>   0.0800 
 49 H       -3.2550    -2.4580     3.1820 H     1 <1>   0.0800 
 50 H       -3.5690    -3.8230     2.0930 H     1 <1>   0.0800 
 51 H        6.7680     2.8250     2.7940 H     1 <1>   0.0800 
 52 H        7.2610     4.2040     1.8420 H     1 <1>   0.0800 
 53 H        9.1400     4.0060     0.2930 H     1 <1>   0.1500 
 54 H        7.2940     0.4870     1.9180 H     1 <1>   0.1500 
 55 H        9.0820    -0.9120     0.9090 H     1 <1>   0.1500 
 56 H       12.8280     1.3470    -0.7390 H     1 <1>   0.0800 
 57 H       11.8690     1.1710    -2.2300 H     1 <1>   0.0800 
@<TRIPOS>BOND
  1   1   2  2   
  2   1   3  2   
  3   1   4  am  
  4   1   5  1   
  5   4   6  1   
  6   4   7  1   
  7   5   8  ar  
  8   5   9  ar  
  9   6  10  1   
 10   6  32  1   
 11   6  33  1   
 12   7  11  1   
 13   7  34  1   
 14   7  35  1   
 15   8  12  ar  
 16   8  36  1   
 17   9  13  ar  
 18   9  37  1   
 19  10  14  1   
 20  10  38  1   
 21  10  39  1   
 22  11  14  1   
 23  11  40  1   
 24  11  41  1   
 25  12  15  ar  
 26  12  16  1   
 27  13  15  ar  
 28  13  42  1   
 29  14  17  1   
 30  14  43  1   
 31  15  18  1   
 32  16  44  1   
 33  16  45  1   
 34  16  46  1   
 35  17  19  2   
 36  17  20  am  
 37  18  21  1   
 38  20  22  1   
 39  20  47  1   
 40  21  48  1   
 41  21  49  1   
 42  21  50  1   
 43  22  23  1   
 44  22  51  1   
 45  22  52  1   
 46  23  24  ar  
 47  23  25  ar  
 48  24  26  ar  
 49  24  53  1   
 50  25  27  ar  
 51  25  54  1   
 52  26  28  1   
 53  26  29  ar  
 54  27  29  ar  
 55  27  55  1   
 56  28  30  1   
 57  29  31  1   
 58  30  31  1   
 59  30  56  1   
 60  30  57  1   
@<TRIPOS>SUBSTRUCTURE
  1 ****  11 GROUP 4 **** **** 0

# MOE 2024.06 (io_trps.svl 2023.06)
