@<TRIPOS>MOLECULE
3-Imidazol-1-ylmethyl-piperidine
28 29 1 0 0 
SMALL
USER_CHARGES


@<TRIPOS>ATOM
  1 N       -0.0200     0.3630    -0.6060 N.2   1 <1>  -0.5650 
  2 C       -0.9500     1.0360    -1.1970 C.2   1 <1>   0.0360 
  3 C       -0.0790     0.7830     0.6710 C.2   1 <1>   0.0770 
  4 N       -1.6380     1.8580    -0.3730 N.pl3 1 <1>   0.0480 
  5 C       -1.0660     1.6910     0.8330 C.2   1 <1>  -0.3020 
  6 C       -2.8610     2.6200    -0.6860 C.3   1 <1>   0.0960 
  7 C       -4.0870     1.9520    -0.0300 C.3   1 <1>  -0.0800 
  8 C       -4.1160     0.4330    -0.2960 C.3   1 <1>   0.3430 
  9 C       -5.3880     2.6180    -0.5120 C.3   1 <1>  -0.1600 
 10 N       -5.3310    -0.1810     0.3140 N.4   1 <1>  -0.9060 
 11 C       -6.6170     1.9100     0.0790 C.3   1 <1>  -0.1600 
 12 C       -6.6010     0.4040    -0.1960 C.3   1 <1>   0.3430 
 13 H       -1.1730     0.9490    -2.2460 H     1 <1>   0.1500 
 14 H        0.6040     0.4030     1.4150 H     1 <1>   0.1500 
 15 H       -1.3700     2.2130     1.7220 H     1 <1>   0.1500 
 16 H       -2.9760     2.6570    -1.7550 H     1 <1>   0.0800 
 17 H       -2.7430     3.6270    -0.3240 H     1 <1>   0.0800 
 18 H       -4.0010     2.1040     1.0330 H     1 <1>   0.0800 
 19 H       -3.2300    -0.0250     0.1180 H     1 <1>   0.0800 
 20 H       -4.1160     0.2560    -1.3600 H     1 <1>   0.0800 
 21 H       -5.4420     2.5820    -1.5880 H     1 <1>   0.0800 
 22 H       -5.3990     3.6560    -0.2200 H     1 <1>   0.0800 
 23 H       -5.2910    -0.0530     1.3330 H     1 <1>   0.4500 
 24 H       -5.3230    -1.1950     0.1440 H     1 <1>   0.4500 
 25 H       -7.5090     2.3330    -0.3510 H     1 <1>   0.0800 
 26 H       -6.6650     2.0800     1.1410 H     1 <1>   0.0800 
 27 H       -7.4460    -0.0620     0.2860 H     1 <1>   0.0800 
 28 H       -6.6810     0.2330    -1.2580 H     1 <1>   0.0800 
@<TRIPOS>BOND
  1   1   2  2   
  2   1   3  1   
  3   2   4  1   
  4   2  13  1   
  5   3   5  2   
  6   3  14  1   
  7   4   5  1   
  8   4   6  1   
  9   5  15  1   
 10   6   7  1   
 11   6  16  1   
 12   6  17  1   
 13   7   8  1   
 14   7   9  1   
 15   7  18  1   
 16   8  10  1   
 17   8  19  1   
 18   8  20  1   
 19   9  11  1   
 20   9  21  1   
 21   9  22  1   
 22  10  12  1   
 23  10  23  1   
 24  10  24  1   
 25  11  12  1   
 26  11  25  1   
 27  11  26  1   
 28  12  27  1   
 29  12  28  1   
@<TRIPOS>SUBSTRUCTURE
  1 ****   7 GROUP 4 **** **** 0

# MOE 2024.06 (io_trps.svl 2023.06)
