@<TRIPOS>MOLECULE
1-Allyl-4-hydroxy-6,7-dimethoxy-2-oxo-1,2-dihydro-quinoline-3-carboxylic acid (2
44 45 1 0 0 
SMALL
USER_CHARGES


@<TRIPOS>ATOM
  1 O       -0.1920     0.2850     0.0020 O.2   1 <1>  -0.5700 
  2 C       -1.2580     0.9010    -0.0890 C.2   1 <1>   0.5350 
  3 N       -2.4300     0.1620    -0.2200 N.am  1 <1>  -0.4770 
  4 C       -1.2990     2.3060    -0.0570 C.3   1 <1>  -0.7150 
  5 C       -3.6950     0.7820    -0.1910 C.ar  1 <1>   0.1170 
  6 C       -2.3090    -1.2960    -0.5220 C.3   1 <1>   0.2780 
  7 C       -2.5480     2.9380     0.0410 C.2   1 <1>   0.3890 
  8 C       -0.1210     3.0650    -0.1380 C.2   1 <1>   0.5350 
  9 C       -3.7660     2.1750    -0.0740 C.ar  1 <1>   0.0860 
 10 C       -4.8890     0.0610    -0.2630 C.ar  1 <1>  -0.1500 
 11 C       -2.6280    -2.1760     0.6860 C.2   1 <1>  -0.2880 
 12 O       -2.6430     4.1500     0.2650 O.2   1 <1>  -0.5700 
 13 O        0.0390     3.9790    -0.9410 O.2   1 <1>  -0.5700 
 14 N        0.9280     2.7080     0.6510 N.am  1 <1>  -0.7300 
 15 C       -5.0210     2.7910    -0.0720 C.ar  1 <1>  -0.1500 
 16 C       -6.1270     0.6710    -0.2490 C.ar  1 <1>   0.0830 
 17 C       -2.8920    -1.7750     1.9350 C.2   1 <1>  -0.3000 
 18 C        2.3120     3.1200     0.3510 C.3   1 <1>   0.1400 
 19 C       -6.2020     2.0720    -0.1700 C.ar  1 <1>   0.0830 
 20 O       -7.1920    -0.1740    -0.3170 O.3   1 <1>  -0.3630 
 21 C        2.8410     2.3340    -0.8530 C.3   1 <1>   0.1200 
 22 O       -7.4210     2.6950    -0.2080 O.3   1 <1>  -0.3630 
 23 C       -8.4050     0.1180     0.3410 C.3   1 <1>   0.0400 
 24 O        4.0730     2.8520    -1.2400 O.3   1 <1>  -0.6800 
 25 C       -7.5190     4.0960    -0.3520 C.3   1 <1>   0.0400 
 26 H       -1.3200    -1.5290    -0.8750 H     1 <1>   0.0800 
 27 H       -2.9790    -1.5330    -1.3280 H     1 <1>   0.0800 
 28 H       -4.8770    -1.0090    -0.3220 H     1 <1>   0.1500 
 29 H       -2.6130    -3.2180     0.4220 H     1 <1>   0.1500 
 30 H        0.8070     1.7250     0.9200 H     1 <1>   0.3700 
 31 H       -5.0280     3.8610     0.0090 H     1 <1>   0.1500 
 32 H       -3.1090    -2.4380     2.7530 H     1 <1>   0.1500 
 33 H       -2.9060    -0.7410     2.2430 H     1 <1>   0.1500 
 34 H        2.9290     2.9360     1.2110 H     1 <1>   0.0800 
 35 H        2.3150     4.1740     0.1320 H     1 <1>   0.0800 
 36 H        2.1630     2.4190    -1.6850 H     1 <1>   0.0800 
 37 H        2.9720     1.2970    -0.5970 H     1 <1>   0.0800 
 38 H       -8.9420    -0.8030     0.4770 H     1 <1>   0.0800 
 39 H       -8.9800     0.7870    -0.2730 H     1 <1>   0.0800 
 40 H       -8.1880     0.5650     1.2950 H     1 <1>   0.0800 
 41 H        3.9370     3.7500    -1.6010 H     1 <1>   0.4000 
 42 H       -7.1110     4.5670     0.5250 H     1 <1>   0.0800 
 43 H       -8.5580     4.3510    -0.4540 H     1 <1>   0.0800 
 44 H       -6.9800     4.3950    -1.2350 H     1 <1>   0.0800 
@<TRIPOS>BOND
  1   1   2  2   
  2   2   3  am  
  3   2   4  1   
  4   3   5  1   
  5   3   6  1   
  6   4   7  1   
  7   4   8  1   
  8   5   9  ar  
  9   5  10  ar  
 10   6  11  1   
 11   6  26  1   
 12   6  27  1   
 13   7   9  1   
 14   7  12  2   
 15   8  13  2   
 16   8  14  am  
 17   9  15  ar  
 18  10  16  ar  
 19  10  28  1   
 20  11  17  2   
 21  11  29  1   
 22  14  18  1   
 23  14  30  1   
 24  15  19  ar  
 25  15  31  1   
 26  16  19  ar  
 27  16  20  1   
 28  17  32  1   
 29  17  33  1   
 30  18  21  1   
 31  18  34  1   
 32  18  35  1   
 33  19  22  1   
 34  20  23  1   
 35  21  24  1   
 36  21  36  1   
 37  21  37  1   
 38  22  25  1   
 39  23  38  1   
 40  23  39  1   
 41  23  40  1   
 42  24  41  1   
 43  25  42  1   
 44  25  43  1   
 45  25  44  1   
@<TRIPOS>SUBSTRUCTURE
  1 ****   9 GROUP 4 **** **** 0

# MOE 2024.06 (io_trps.svl 2023.06)
