@<TRIPOS>MOLECULE
4-[3-(4-Chloro-phenyl)-[1,2,4]oxadiazol-5-yl]-N-methyl-butyramide
33 34 1 0 0 
SMALL
USER_CHARGES


@<TRIPOS>ATOM
  1 CL       0.5840     0.1620     1.4820 Cl    1 <1>  -0.1770 
  2 C        1.9470     1.0720     0.8860 C.ar  1 <1>   0.1770 
  3 C        2.1380     2.3710     1.3130 C.ar  1 <1>  -0.1500 
  4 C        2.8200     0.4830    -0.0080 C.ar  1 <1>  -0.1500 
  5 C        3.2220     3.0880     0.8360 C.ar  1 <1>  -0.1500 
  6 C        3.9000     1.2110    -0.4780 C.ar  1 <1>  -0.1500 
  7 C        4.1300     2.5290    -0.0690 C.ar  1 <1>   0.0540 
  8 C        5.2690     3.2820    -0.5690 C.2   1 <1>   0.4620 
  9 N        6.1720     2.8350    -1.3690 N.2   1 <1>  -0.4100 
 10 N        5.4980     4.5540    -0.2300 N.2   1 <1>  -0.5650 
 11 O        7.0190     3.7900    -1.5880 O.3   1 <1>  -0.0190 
 12 C        6.5640     4.7880    -0.8750 C.2   1 <1>   0.2980 
 13 C        7.3280     6.1000    -0.8810 C.3   1 <1>   0.0200 
 14 C        8.4640     6.1420     0.1560 C.3   1 <1>  -0.1600 
 15 C        9.5240     5.0390    -0.0450 C.3   1 <1>  -0.0990 
 16 C       10.7100     5.1360     0.9060 C.2   1 <1>   0.5690 
 17 O       10.8820     6.1330     1.5610 O.2   1 <1>  -0.5700 
 18 N       11.5870     4.1110     1.0190 N.am  1 <1>  -0.7300 
 19 C       11.6180     2.8080     0.3080 C.3   1 <1>   0.0600 
 20 H        1.4470     2.8110     2.0090 H     1 <1>   0.1500 
 21 H        2.6540    -0.5290    -0.3290 H     1 <1>   0.1500 
 22 H        3.3670     4.1000     1.1730 H     1 <1>   0.1500 
 23 H        4.5780     0.7480    -1.1750 H     1 <1>   0.1500 
 24 H        6.6360     6.8940    -0.6670 H     1 <1>   0.0800 
 25 H        7.7240     6.2710    -1.8670 H     1 <1>   0.0800 
 26 H        8.0450     6.0500     1.1440 H     1 <1>   0.0800 
 27 H        8.9420     7.1060     0.0980 H     1 <1>   0.0800 
 28 H        9.9030     5.0830    -1.0490 H     1 <1>   0.0800 
 29 H        9.0640     4.0800     0.1050 H     1 <1>   0.0800 
 30 H       12.3370     4.2710     1.6980 H     1 <1>   0.3700 
 31 H       10.9060     2.7890    -0.4980 H     1 <1>   0.0800 
 32 H       11.3860     2.0140     0.9980 H     1 <1>   0.0800 
 33 H       12.6010     2.6420    -0.0980 H     1 <1>   0.0800 
@<TRIPOS>BOND
  1   1   2  1   
  2   2   3  ar  
  3   2   4  ar  
  4   3   5  ar  
  5   3  20  1   
  6   4   6  ar  
  7   4  21  1   
  8   5   7  ar  
  9   5  22  1   
 10   6   7  ar  
 11   6  23  1   
 12   7   8  1   
 13   8   9  2   
 14   8  10  1   
 15   9  11  1   
 16  10  12  2   
 17  11  12  1   
 18  12  13  1   
 19  13  14  1   
 20  13  24  1   
 21  13  25  1   
 22  14  15  1   
 23  14  26  1   
 24  14  27  1   
 25  15  16  1   
 26  15  28  1   
 27  15  29  1   
 28  16  17  2   
 29  16  18  am  
 30  18  19  1   
 31  18  30  1   
 32  19  31  1   
 33  19  32  1   
 34  19  33  1   
@<TRIPOS>SUBSTRUCTURE
  1 ****   8 GROUP 4 **** **** 0

# MOE 2024.06 (io_trps.svl 2023.06)
