@<TRIPOS>MOLECULE
2-(4-Methyl-5,6,7,8-tetrahydro-quinazolin-2-ylsulfanylmethyl)-3H-quinazolin-4-on
42 45 1 0 0 
SMALL
USER_CHARGES


@<TRIPOS>ATOM
  1 S       -0.7410    -0.0800     0.1320 S.3   1 <1>  -0.3320 
  2 C       -0.4180    -1.8340     0.1090 C.ar  1 <1>   0.7220 
  3 C        0.9510     0.6930     0.0650 C.3   1 <1>   0.1310 
  4 N        0.8530    -2.1820     0.0540 N.ar  1 <1>  -0.6200 
  5 N       -1.4960    -2.5900     0.1490 N.ar  1 <1>  -0.6200 
  6 C        0.8730     2.2150     0.0630 C.2   1 <1>   0.4390 
  7 C        1.0640    -3.4780     0.0360 C.ar  1 <1>   0.1660 
  8 C       -1.2620    -3.8820     0.1330 C.ar  1 <1>   0.1660 
  9 N       -0.3550     2.7960    -0.0500 N.pl3 1 <1>  -0.5500 
 10 N        1.9560     2.8900     0.1640 N.2   1 <1>  -0.6610 
 11 C        0.0240    -4.3930     0.0680 C.ar  1 <1>  -0.1430 
 12 C        2.5230    -3.9080    -0.0380 C.3   1 <1>  -0.0170 
 13 C       -2.4930    -4.7680     0.1900 C.3   1 <1>  -0.0970 
 14 C       -0.5310     4.1650    -0.0640 C.ar  1 <1>   0.1000 
 15 C        1.8800     4.2620     0.1580 C.2   1 <1>   0.6950 
 16 C        0.2880    -5.9000     0.0410 C.3   1 <1>  -0.0160 
 17 C        2.7370    -5.3880     0.2990 C.3   1 <1>  -0.1600 
 18 C        0.6170     4.9490     0.0420 C.ar  1 <1>   0.0860 
 19 C       -1.7870     4.7550    -0.1780 C.ar  1 <1>  -0.1500 
 20 O        2.9230     4.8820     0.2540 O.2   1 <1>  -0.5700 
 21 C        1.7040    -6.2520    -0.4270 C.3   1 <1>  -0.1600 
 22 C        0.4710     6.3410     0.0310 C.ar  1 <1>  -0.1500 
 23 C       -1.9080     6.1280    -0.1880 C.ar  1 <1>  -0.1500 
 24 C       -0.7740     6.9240    -0.0830 C.ar  1 <1>  -0.1500 
 25 H        1.4270     0.3420    -0.8330 H     1 <1>   0.0800 
 26 H        1.4960     0.3460     0.9230 H     1 <1>   0.0800 
 27 H       -1.1660     2.1690    -0.1050 H     1 <1>   0.4000 
 28 H        3.1060    -3.3040     0.6340 H     1 <1>   0.0800 
 29 H        2.8730    -3.7150    -1.0370 H     1 <1>   0.0800 
 30 H       -3.3310    -4.2140     0.5750 H     1 <1>   0.0800 
 31 H       -2.3300    -5.6120     0.8330 H     1 <1>   0.0800 
 32 H       -2.7370    -5.1110    -0.7980 H     1 <1>   0.0800 
 33 H       -0.4160    -6.3890    -0.6100 H     1 <1>   0.0800 
 34 H        0.1430    -6.2870     1.0350 H     1 <1>   0.0800 
 35 H        2.6400    -5.5290     1.3620 H     1 <1>   0.0800 
 36 H        3.7330    -5.6820     0.0130 H     1 <1>   0.0800 
 37 H       -2.6620     4.1360    -0.2590 H     1 <1>   0.1500 
 38 H        1.7820    -6.0890    -1.4890 H     1 <1>   0.0800 
 39 H        1.8980    -7.2940    -0.2360 H     1 <1>   0.0800 
 40 H        1.3520     6.9560     0.1130 H     1 <1>   0.1500 
 41 H       -2.8770     6.5910    -0.2760 H     1 <1>   0.1500 
 42 H       -0.8720     7.9970    -0.0900 H     1 <1>   0.1500 
@<TRIPOS>BOND
  1   1   2  1   
  2   1   3  1   
  3   2   4  ar  
  4   2   5  ar  
  5   3   6  1   
  6   3  25  1   
  7   3  26  1   
  8   4   7  ar  
  9   5   8  ar  
 10   6   9  1   
 11   6  10  2   
 12   7  11  ar  
 13   7  12  1   
 14   8  11  ar  
 15   8  13  1   
 16   9  14  1   
 17   9  27  1   
 18  10  15  1   
 19  11  16  1   
 20  12  17  1   
 21  12  28  1   
 22  12  29  1   
 23  13  30  1   
 24  13  31  1   
 25  13  32  1   
 26  14  18  ar  
 27  14  19  ar  
 28  15  18  1   
 29  15  20  2   
 30  16  21  1   
 31  16  33  1   
 32  16  34  1   
 33  17  21  1   
 34  17  35  1   
 35  17  36  1   
 36  18  22  ar  
 37  19  23  ar  
 38  19  37  1   
 39  21  38  1   
 40  21  39  1   
 41  22  24  ar  
 42  22  40  1   
 43  23  24  ar  
 44  23  41  1   
 45  24  42  1   
@<TRIPOS>SUBSTRUCTURE
  1 ****   3 GROUP 4 **** **** 0

# MOE 2024.06 (io_trps.svl 2023.06)
