@<TRIPOS>MOLECULE
4-(4-Fluoro-phenoxy)-piperidine
29 30 1 0 0 
SMALL
USER_CHARGES


@<TRIPOS>ATOM
  1 F       -0.5480    -0.4360     0.8480 F     1 <1>  -0.1900 
  2 C       -0.2150    -1.6400     0.4630 C.ar  1 <1>   0.1900 
  3 C        0.0130    -1.8710    -0.8800 C.ar  1 <1>  -0.1500 
  4 C       -0.1030    -2.6370     1.4140 C.ar  1 <1>  -0.1500 
  5 C        0.3680    -3.1490    -1.2790 C.ar  1 <1>  -0.1500 
  6 C        0.2520    -3.9120     1.0060 C.ar  1 <1>  -0.1500 
  7 C        0.4940    -4.1700    -0.3450 C.ar  1 <1>   0.0820 
  8 O        0.8530    -5.3850    -0.8330 O.3   1 <1>  -0.3630 
  9 C        1.3350    -6.4320    -0.0270 C.3   1 <1>   0.2000 
 10 C        2.7690    -6.1000     0.4080 C.3   1 <1>  -0.1600 
 11 C        1.2980    -7.6990    -0.8840 C.3   1 <1>  -0.1600 
 12 C        3.4380    -7.2960     1.0800 C.3   1 <1>   0.3430 
 13 C        1.9870    -8.8660    -0.1840 C.3   1 <1>   0.3430 
 14 N        3.3780    -8.4770     0.1760 N.4   1 <1>  -0.9060 
 15 H       -0.0870    -1.0710    -1.5910 H     1 <1>   0.1500 
 16 H       -0.2950    -2.4110     2.4480 H     1 <1>   0.1500 
 17 H        0.5480    -3.3590    -2.3180 H     1 <1>   0.1500 
 18 H        0.3250    -4.6790     1.7510 H     1 <1>   0.1500 
 19 H        0.6790    -6.5550     0.8180 H     1 <1>   0.0800 
 20 H        2.7570    -5.2770     1.1010 H     1 <1>   0.0800 
 21 H        3.3490    -5.8020    -0.4480 H     1 <1>   0.0800 
 22 H        1.7790    -7.5170    -1.8300 H     1 <1>   0.0800 
 23 H        0.2730    -7.9620    -1.0790 H     1 <1>   0.0800 
 24 H        2.9310    -7.5190     2.0060 H     1 <1>   0.0800 
 25 H        4.4650    -7.0540     1.3080 H     1 <1>   0.0800 
 26 H        1.9990    -9.7240    -0.8390 H     1 <1>   0.0800 
 27 H        1.4380    -9.1290     0.7060 H     1 <1>   0.0800 
 28 H        3.8600    -9.2750     0.6130 H     1 <1>   0.4500 
 29 H        3.8950    -8.2600    -0.6870 H     1 <1>   0.4500 
@<TRIPOS>BOND
  1   1   2  1   
  2   2   3  ar  
  3   2   4  ar  
  4   3   5  ar  
  5   3  15  1   
  6   4   6  ar  
  7   4  16  1   
  8   5   7  ar  
  9   5  17  1   
 10   6   7  ar  
 11   6  18  1   
 12   7   8  1   
 13   8   9  1   
 14   9  10  1   
 15   9  11  1   
 16   9  19  1   
 17  10  12  1   
 18  10  20  1   
 19  10  21  1   
 20  11  13  1   
 21  11  22  1   
 22  11  23  1   
 23  12  14  1   
 24  12  24  1   
 25  12  25  1   
 26  13  14  1   
 27  13  26  1   
 28  13  27  1   
 29  14  28  1   
 30  14  29  1   
@<TRIPOS>SUBSTRUCTURE
  1 ****   7 GROUP 4 **** **** 0

# MOE 2024.06 (io_trps.svl 2023.06)
