@<TRIPOS>MOLECULE
8-Furan-2-ylmethyl-1-methyl-3-propyl-7,8-dihydro-1H,6H-imidazo[2,1-f]purine-2,4-
44 47 1 0 0 
SMALL
USER_CHARGES


@<TRIPOS>ATOM
  1 O        1.9110     0.8580     2.3200 O.2   1 <1>  -0.5750 
  2 C        2.5470     1.3540     1.4130 C.2   1 <1>   0.6860 
  3 N        1.9040     2.0980     0.4270 N.am  1 <1>  -0.4260 
  4 N        3.9250     1.1780     1.3670 N.am  1 <1>  -0.4420 
  5 C        2.6160     2.7060    -0.5980 C.2   1 <1>   0.6990 
  6 C        0.4160     2.2240     0.4580 C.3   1 <1>   0.1320 
  7 C        4.6250     1.7900     0.3470 C.2   1 <1>   0.4200 
  8 C        4.6330     0.3720     2.4050 C.3   1 <1>   0.0510 
  9 O        2.0580     3.3700    -1.4560 O.2   1 <1>  -0.5750 
 10 C        4.0340     2.5330    -0.6170 C.2   1 <1>   0.2700 
 11 C       -0.2240     1.0800    -0.3350 C.3   1 <1>  -0.1680 
 12 N        5.9740     1.7780     0.1250 N.pl3 1 <1>  -0.7040 
 13 N        5.0770     2.9740    -1.4420 N.pl3 1 <1>  -0.7680 
 14 C       -1.7520     1.1850    -0.3180 C.3   1 <1>  -0.2480 
 15 C        6.2030     2.5040    -0.9590 C.cat 1 <1>   1.0690 
 16 C        5.2850     3.8070    -2.6400 C.3   1 <1>   0.3470 
 17 N        7.2710     2.8740    -1.6650 N.pl3 1 <1>  -0.5970 
 18 C        6.8270     3.7400    -2.8010 C.3   1 <1>   0.1590 
 19 C        8.7040     2.5310    -1.4610 C.3   1 <1>   0.3410 
 20 C        8.8890     1.5230    -0.3370 C.2   1 <1>  -0.0490 
 21 O        8.6890     1.9070     0.9110 O.3   1 <1>  -0.2870 
 22 C        9.2380     0.2190    -0.3770 C.2   1 <1>  -0.1580 
 23 C        8.9220     0.8700     1.6910 C.2   1 <1>  -0.0190 
 24 C        9.2580    -0.2100     0.9560 C.2   1 <1>  -0.1580 
 25 H        0.1180     3.1700     0.0380 H     1 <1>   0.0710 
 26 H        0.0660     2.2010     1.4770 H     1 <1>   0.0710 
 27 H        3.9650    -0.3540     2.8380 H     1 <1>   0.0710 
 28 H        4.9880     1.0220     3.1860 H     1 <1>   0.0710 
 29 H        5.4640    -0.1550     1.9710 H     1 <1>   0.0710 
 30 H        0.0640     0.1370     0.0980 H     1 <1>   0.0710 
 31 H        0.1150     1.1120    -1.3560 H     1 <1>   0.0710 
 32 H        6.7360     1.3720     0.6770 H     1 <1>   0.4440 
 33 H       -2.1220     1.1350     0.6910 H     1 <1>   0.0710 
 34 H       -2.1810     0.3730    -0.8780 H     1 <1>   0.0710 
 35 H       -2.0720     2.1110    -0.7620 H     1 <1>   0.0710 
 36 H        4.9470     4.8160    -2.4710 H     1 <1>   0.0710 
 37 H        4.7780     3.3860    -3.4930 H     1 <1>   0.0710 
 38 H        7.2620     4.7220    -2.7240 H     1 <1>   0.0710 
 39 H        7.0930     3.2970    -3.7460 H     1 <1>   0.0710 
 40 H        9.2590     3.4240    -1.2310 H     1 <1>   0.0710 
 41 H        9.0980     2.1140    -2.3730 H     1 <1>   0.0710 
 42 H        9.4710    -0.4020    -1.2260 H     1 <1>   0.1420 
 43 H        8.8350     0.9850     2.7600 H     1 <1>   0.1420 
 44 H        9.5100    -1.2030     1.2900 H     1 <1>   0.1420 
@<TRIPOS>BOND
  1   1   2  2   
  2   2   3  am  
  3   2   4  am  
  4   3   5  am  
  5   3   6  1   
  6   4   7  1   
  7   4   8  1   
  8   5   9  2   
  9   5  10  1   
 10   6  11  1   
 11   6  25  1   
 12   6  26  1   
 13   7  10  2   
 14   7  12  1   
 15   8  27  1   
 16   8  28  1   
 17   8  29  1   
 18  10  13  1   
 19  11  14  1   
 20  11  30  1   
 21  11  31  1   
 22  12  15  ar  
 23  12  32  1   
 24  13  15  ar  
 25  13  16  1   
 26  14  33  1   
 27  14  34  1   
 28  14  35  1   
 29  15  17  ar  
 30  16  18  1   
 31  16  36  1   
 32  16  37  1   
 33  17  18  1   
 34  17  19  1   
 35  18  38  1   
 36  18  39  1   
 37  19  20  1   
 38  19  40  1   
 39  19  41  1   
 40  20  21  1   
 41  20  22  2   
 42  21  23  1   
 43  22  24  1   
 44  22  42  1   
 45  23  24  2   
 46  23  43  1   
 47  24  44  1   
@<TRIPOS>SUBSTRUCTURE
  1 ****   7 GROUP 4 **** **** 0

# MOE 2024.06 (io_trps.svl 2023.06)
