@<TRIPOS>MOLECULE
N-tert-Butyl-4-[3-(4-methoxy-phenyl)-[1,2,4]oxadiazol-5-yl]-butyramide
46 47 1 0 0 
SMALL
USER_CHARGES


@<TRIPOS>ATOM
  1 O       -0.0860    -1.1910     0.1510 O.2   1 <1>  -0.5700 
  2 C       -1.0330    -1.9170    -0.0120 C.2   1 <1>   0.5690 
  3 N       -0.9450    -3.2010     0.4120 N.am  1 <1>  -0.7300 
  4 C       -2.2620    -1.3240    -0.6780 C.3   1 <1>  -0.0990 
  5 C       -1.8210    -4.3790     0.3850 C.3   1 <1>   0.3000 
  6 C       -3.1050    -0.5040     0.3170 C.3   1 <1>  -0.1600 
  7 C       -3.1800    -4.0760     1.0170 C.3   1 <1>  -0.2400 
  8 C       -1.9600    -4.8880    -1.0500 C.3   1 <1>  -0.2400 
  9 C       -1.1130    -5.4410     1.2260 C.3   1 <1>  -0.2400 
 10 C       -4.4270     0.0030    -0.2850 C.3   1 <1>   0.0200 
 11 C       -5.3300    -1.1460    -0.6950 C.2   1 <1>   0.2980 
 12 O       -5.3470    -1.5220    -1.9470 O.3   1 <1>  -0.0190 
 13 N       -6.0700    -1.8170     0.0860 N.2   1 <1>  -0.5650 
 14 N       -6.1560    -2.5340    -1.9600 N.2   1 <1>  -0.4100 
 15 C       -6.5850    -2.7140    -0.7610 C.2   1 <1>   0.4620 
 16 C       -7.4930    -3.7640    -0.3330 C.ar  1 <1>   0.0540 
 17 C       -7.8360    -3.9370     1.0100 C.ar  1 <1>  -0.1500 
 18 C       -8.0560    -4.6550    -1.2510 C.ar  1 <1>  -0.1500 
 19 C       -8.6890    -4.9470     1.4150 C.ar  1 <1>  -0.1500 
 20 C       -8.9100    -5.6670    -0.8550 C.ar  1 <1>  -0.1500 
 21 C       -9.2330    -5.8210     0.4900 C.ar  1 <1>   0.0820 
 22 O      -10.0570    -6.7840     0.9660 O.3   1 <1>  -0.3620 
 23 C      -10.6740    -7.7160     0.1050 C.3   1 <1>   0.0400 
 24 H       -0.0400    -3.4100     0.8320 H     1 <1>   0.3700 
 25 H       -2.8400    -2.1020    -1.1260 H     1 <1>   0.0800 
 26 H       -1.9280    -0.6810    -1.4730 H     1 <1>   0.0800 
 27 H       -2.5240     0.3370     0.6550 H     1 <1>   0.0800 
 28 H       -3.3270    -1.1080     1.1800 H     1 <1>   0.0800 
 29 H       -3.7690    -3.4340     0.3930 H     1 <1>   0.0800 
 30 H       -3.0550    -3.6180     1.9810 H     1 <1>   0.0800 
 31 H       -3.7370    -4.9860     1.1460 H     1 <1>   0.0800 
 32 H       -2.5100    -5.8110    -1.0590 H     1 <1>   0.0800 
 33 H       -0.9910    -5.0670    -1.4790 H     1 <1>   0.0800 
 34 H       -2.4900    -4.1890    -1.6670 H     1 <1>   0.0800 
 35 H       -1.6940    -6.3450     1.2480 H     1 <1>   0.0800 
 36 H       -0.9880    -5.0990     2.2380 H     1 <1>   0.0800 
 37 H       -0.1490    -5.6750     0.8100 H     1 <1>   0.0800 
 38 H       -4.2330     0.6310    -1.1350 H     1 <1>   0.0800 
 39 H       -4.9430     0.5920     0.4520 H     1 <1>   0.0800 
 40 H       -7.4270    -3.2710     1.7500 H     1 <1>   0.1500 
 41 H       -7.8170    -4.5520    -2.2950 H     1 <1>   0.1500 
 42 H       -8.9400    -5.0650     2.4530 H     1 <1>   0.1500 
 43 H       -9.3130    -6.3240    -1.6020 H     1 <1>   0.1500 
 44 H      -11.2800    -8.3720     0.7040 H     1 <1>   0.0800 
 45 H       -9.9120    -8.2820    -0.4000 H     1 <1>   0.0800 
 46 H      -11.2920    -7.1860    -0.5970 H     1 <1>   0.0800 
@<TRIPOS>BOND
  1   1   2  2   
  2   2   3  am  
  3   2   4  1   
  4   3   5  1   
  5   3  24  1   
  6   4   6  1   
  7   4  25  1   
  8   4  26  1   
  9   5   7  1   
 10   5   8  1   
 11   5   9  1   
 12   6  10  1   
 13   6  27  1   
 14   6  28  1   
 15   7  29  1   
 16   7  30  1   
 17   7  31  1   
 18   8  32  1   
 19   8  33  1   
 20   8  34  1   
 21   9  35  1   
 22   9  36  1   
 23   9  37  1   
 24  10  11  1   
 25  10  38  1   
 26  10  39  1   
 27  11  12  1   
 28  11  13  2   
 29  12  14  1   
 30  13  15  1   
 31  14  15  2   
 32  15  16  1   
 33  16  17  ar  
 34  16  18  ar  
 35  17  19  ar  
 36  17  40  1   
 37  18  20  ar  
 38  18  41  1   
 39  19  21  ar  
 40  19  42  1   
 41  20  21  ar  
 42  20  43  1   
 43  21  22  1   
 44  22  23  1   
 45  23  44  1   
 46  23  45  1   
 47  23  46  1   
@<TRIPOS>SUBSTRUCTURE
  1 ****  15 GROUP 4 **** **** 0

# MOE 2024.06 (io_trps.svl 2023.06)
