@<TRIPOS>MOLECULE
(4,6-Di-morpholin-4-yl-[1,3,5]triazin-2-yloxy)-acetonitrile
40 42 1 0 0 
SMALL
USER_CHARGES


@<TRIPOS>ATOM
  1 O       -0.7800     0.6520     0.4230 O.3   1 <1>  -0.5600 
  2 C       -1.9970    -0.0310     0.5470 C.3   1 <1>   0.1200 
  3 C       -0.8800     2.0230     0.6950 C.3   1 <1>   0.1200 
  4 C       -3.0480     0.5240    -0.4310 C.3   1 <1>   0.2090 
  5 C       -1.8570     2.7110    -0.2740 C.3   1 <1>   0.2090 
  6 N       -3.1810     2.0080    -0.2870 N.pl3 1 <1>  -0.8380 
  7 C       -4.3920     2.6640    -0.2550 C.ar  1 <1>   0.7200 
  8 N       -4.3700     3.9620    -0.0780 N.ar  1 <1>  -0.6200 
  9 N       -5.4750     1.9470    -0.4060 N.ar  1 <1>  -0.6200 
 10 C       -5.5440     4.5120    -0.0560 C.ar  1 <1>   0.7030 
 11 C       -6.5940     2.6180    -0.3630 C.ar  1 <1>   0.7200 
 12 O       -5.5390     5.8410     0.1150 O.3   1 <1>  -0.3630 
 13 N       -6.6960     3.9120    -0.1830 N.ar  1 <1>  -0.6200 
 14 N       -7.7670     1.9180    -0.5150 N.pl3 1 <1>  -0.8380 
 15 C       -6.7450     6.5770     0.0920 C.3   1 <1>   0.3200 
 16 C       -7.8270     0.5240    -1.0540 C.3   1 <1>   0.2090 
 17 C       -9.0540     2.3430     0.1170 C.3   1 <1>   0.2090 
 18 C       -6.4660     8.0260     0.3050 C.1   1 <1>   0.3570 
 19 C       -8.3770    -0.4410     0.0110 C.3   1 <1>   0.1200 
 20 C       -9.5440     1.2740     1.1110 C.3   1 <1>   0.1200 
 21 N       -6.2930     9.1400     0.4670 N.1   1 <1>  -0.5570 
 22 O       -9.6090     0.0110     0.5060 O.3   1 <1>  -0.5600 
 23 H       -2.3440     0.0650     1.5610 H     1 <1>   0.0800 
 24 H       -1.8120    -1.0700     0.3410 H     1 <1>   0.0800 
 25 H        0.1020     2.4500     0.5950 H     1 <1>   0.0800 
 26 H       -1.2100     2.1500     1.7110 H     1 <1>   0.0800 
 27 H       -3.9830     0.0280    -0.2430 H     1 <1>   0.0800 
 28 H       -2.7490     0.2930    -1.4390 H     1 <1>   0.0800 
 29 H       -1.4410     2.6940    -1.2650 H     1 <1>   0.0800 
 30 H       -1.9600     3.7410     0.0200 H     1 <1>   0.0800 
 31 H       -7.3840     6.2130     0.8760 H     1 <1>   0.0800 
 32 H       -7.2150     6.4330    -0.8640 H     1 <1>   0.0800 
 33 H       -6.8600     0.1850    -1.3800 H     1 <1>   0.0800 
 34 H       -8.4790     0.5080    -1.9100 H     1 <1>   0.0800 
 35 H       -9.7950     2.4810    -0.6500 H     1 <1>   0.0800 
 36 H       -8.9410     3.2750     0.6390 H     1 <1>   0.0800 
 37 H       -7.6850    -0.5270     0.8300 H     1 <1>   0.0800 
 38 H       -8.5330    -1.4150    -0.4170 H     1 <1>   0.0800 
 39 H      -10.5300     1.5190     1.4620 H     1 <1>   0.0800 
 40 H       -8.8800     1.2160     1.9550 H     1 <1>   0.0800 
@<TRIPOS>BOND
  1   1   2  1   
  2   1   3  1   
  3   2   4  1   
  4   2  23  1   
  5   2  24  1   
  6   3   5  1   
  7   3  25  1   
  8   3  26  1   
  9   4   6  1   
 10   4  27  1   
 11   4  28  1   
 12   5   6  1   
 13   5  29  1   
 14   5  30  1   
 15   6   7  1   
 16   7   8  ar  
 17   7   9  ar  
 18   8  10  ar  
 19   9  11  ar  
 20  10  12  1   
 21  10  13  ar  
 22  11  13  ar  
 23  11  14  1   
 24  12  15  1   
 25  14  16  1   
 26  14  17  1   
 27  15  18  1   
 28  15  31  1   
 29  15  32  1   
 30  16  19  1   
 31  16  33  1   
 32  16  34  1   
 33  17  20  1   
 34  17  35  1   
 35  17  36  1   
 36  18  21  3   
 37  19  22  1   
 38  19  37  1   
 39  19  38  1   
 40  20  22  1   
 41  20  39  1   
 42  20  40  1   
@<TRIPOS>SUBSTRUCTURE
  1 ****   9 GROUP 4 **** **** 0

# MOE 2024.06 (io_trps.svl 2023.06)
