@<TRIPOS>MOLECULE
7-(2-Ethoxy-3-methoxy-phenyl)-5-methyl-4,7-dihydro-[1,2,4]triazolo[1,5-a]pyrimid
52 54 1 0 0 
SMALL
USER_CHARGES


@<TRIPOS>ATOM
  1 O       -0.0860    -1.7840    -1.2230 O.2   1 <1>  -0.5740 
  2 C       -0.4380    -1.7450    -0.0650 C.2   1 <1>   0.7020 
  3 O        0.3610    -1.2060     0.8630 O.3   1 <1>  -0.4350 
  4 C       -1.6910    -2.2650     0.3750 C.2   1 <1>  -0.1310 
  5 C        1.6040    -0.5590     0.6540 C.3   1 <1>   0.1930 
  6 C       -2.4240    -3.2550    -0.2020 C.2   1 <1>   0.1580 
  7 C       -2.2080    -1.5630     1.6330 C.3   1 <1>   0.7120 
  8 C        1.4220     0.6860    -0.2170 C.3   1 <1>  -0.2460 
  9 C        2.6450    -1.5410     0.1120 C.3   1 <1>  -0.2460 
 10 N       -3.6510    -3.6210     0.3200 N.pl3 1 <1>  -0.6930 
 11 C       -2.0240    -4.0690    -1.4240 C.3   1 <1>  -0.1090 
 12 N       -3.4620    -2.1740     2.1400 N.pl3 1 <1>  -0.4620 
 13 C       -2.4340    -0.0630     1.4290 C.ar  1 <1>  -0.1500 
 14 C       -4.1300    -3.0560     1.4380 C.cat 1 <1>   1.0690 
 15 N       -4.1670    -1.8000     3.2500 N.2   1 <1>  -0.2660 
 16 C       -3.3900     0.4300     0.5380 C.ar  1 <1>   0.0750 
 17 C       -1.6580     0.8200     2.1690 C.ar  1 <1>  -0.1570 
 18 N       -5.2650    -3.2830     2.0510 N.pl3 1 <1>  -0.7030 
 19 C       -5.2510    -2.4800     3.1600 C.2   1 <1>   0.4980 
 20 O       -4.0940    -0.5160    -0.1610 O.3   1 <1>  -0.3680 
 21 C       -3.5730     1.8230     0.4190 C.ar  1 <1>   0.0750 
 22 C       -1.8210     2.1820     2.0360 C.ar  1 <1>  -0.1570 
 23 C       -4.7620    -0.2310    -1.3730 C.3   1 <1>   0.1130 
 24 O       -4.5380     2.3260    -0.4040 O.3   1 <1>  -0.3680 
 25 C       -2.7720     2.6810     1.1690 C.ar  1 <1>  -0.1570 
 26 C       -5.1330    -1.5470    -2.0470 C.3   1 <1>  -0.2460 
 27 C       -4.7250     3.7110    -0.6070 C.3   1 <1>   0.0320 
 28 H        1.9310    -0.2350     1.6280 H     1 <1>   0.0730 
 29 H       -1.4760    -1.6950     2.4110 H     1 <1>   0.0730 
 30 H        1.1720     0.4230    -1.2280 H     1 <1>   0.0730 
 31 H        2.3400     1.2440    -0.2400 H     1 <1>   0.0730 
 32 H        0.6530     1.3180     0.1900 H     1 <1>   0.0730 
 33 H        2.4170    -1.8370    -0.8950 H     1 <1>   0.0730 
 34 H        2.7000    -2.4110     0.7410 H     1 <1>   0.0730 
 35 H        3.6100    -1.0690     0.1040 H     1 <1>   0.0730 
 36 H       -4.2330    -4.2880    -0.1850 H     1 <1>   0.4450 
 37 H       -2.5280    -3.7020    -2.3000 H     1 <1>   0.0730 
 38 H       -2.2770    -5.1050    -1.2880 H     1 <1>   0.0730 
 39 H       -0.9660    -4.0280    -1.6050 H     1 <1>   0.0730 
 40 H       -0.9110     0.4610     2.8580 H     1 <1>   0.1430 
 41 H       -6.0150    -3.9040     1.7600 H     1 <1>   0.4450 
 42 H       -6.0660    -2.4380     3.8680 H     1 <1>   0.1430 
 43 H       -1.2100     2.8590     2.6090 H     1 <1>   0.1430 
 44 H       -4.1050     0.3480    -2.0000 H     1 <1>   0.0730 
 45 H       -5.6510     0.3320    -1.1480 H     1 <1>   0.0730 
 46 H       -2.8710     3.7470     1.1030 H     1 <1>   0.1430 
 47 H       -4.2460    -2.0920    -2.3050 H     1 <1>   0.0730 
 48 H       -5.6730    -1.3380    -2.9530 H     1 <1>   0.0730 
 49 H       -5.7630    -2.1330    -1.4040 H     1 <1>   0.0730 
 50 H       -5.5200     3.8400    -1.3190 H     1 <1>   0.0730 
 51 H       -3.8150     4.1330    -0.9960 H     1 <1>   0.0730 
 52 H       -4.9960     4.1690     0.3280 H     1 <1>   0.0730 
@<TRIPOS>BOND
  1   1   2  2   
  2   2   3  1   
  3   2   4  1   
  4   3   5  1   
  5   4   6  2   
  6   4   7  1   
  7   5   8  1   
  8   5   9  1   
  9   5  28  1   
 10   6  10  1   
 11   6  11  1   
 12   7  12  1   
 13   7  13  1   
 14   7  29  1   
 15   8  30  1   
 16   8  31  1   
 17   8  32  1   
 18   9  33  1   
 19   9  34  1   
 20   9  35  1   
 21  10  14  ar  
 22  10  36  1   
 23  11  37  1   
 24  11  38  1   
 25  11  39  1   
 26  12  14  ar  
 27  12  15  1   
 28  13  16  ar  
 29  13  17  ar  
 30  14  18  ar  
 31  15  19  2   
 32  16  20  1   
 33  16  21  ar  
 34  17  22  ar  
 35  17  40  1   
 36  18  19  1   
 37  18  41  1   
 38  19  42  1   
 39  20  23  1   
 40  21  24  1   
 41  21  25  ar  
 42  22  25  ar  
 43  22  43  1   
 44  23  26  1   
 45  23  44  1   
 46  23  45  1   
 47  24  27  1   
 48  25  46  1   
 49  26  47  1   
 50  26  48  1   
 51  26  49  1   
 52  27  50  1   
 53  27  51  1   
 54  27  52  1   
@<TRIPOS>SUBSTRUCTURE
  1 ****  13 GROUP 4 **** **** 0

# MOE 2024.06 (io_trps.svl 2023.06)
