@<TRIPOS>MOLECULE
8-(2-Methoxy-5-methyl-phenyl)-1,6,7-trimethyl-3-(2-methyl-allyl)-1H,8H-imidazo[2
56 59 1 0 0 
SMALL
USER_CHARGES


@<TRIPOS>ATOM
  1 O        0.6610    -0.4560     0.5080 O.2   1 <1>  -0.5740 
  2 C        1.6020     0.3110     0.4950 C.2   1 <1>   0.6870 
  3 N        1.4260     1.6430     0.8420 N.am  1 <1>  -0.4250 
  4 N        2.8620    -0.1520     0.1370 N.am  1 <1>  -0.4410 
  5 C        2.5010     2.5090     0.9680 C.2   1 <1>   0.7000 
  6 C        0.0520     2.1960     0.9500 C.3   1 <1>   0.2730 
  7 C        3.9210     0.7320     0.1980 C.2   1 <1>   0.4210 
  8 C        3.0650    -1.5700    -0.2840 C.3   1 <1>   0.0530 
  9 O        2.3530     3.6370     1.4090 O.2   1 <1>  -0.5740 
 10 C        3.7900     2.0220     0.5960 C.2   1 <1>   0.2710 
 11 C       -0.3300     2.8480    -0.3740 C.2   1 <1>  -0.2820 
 12 N        5.2290     0.4820    -0.0930 N.pl3 1 <1>  -0.7030 
 13 N        5.0780     2.5810     0.5480 N.pl3 1 <1>  -0.6330 
 14 C       -0.3410     4.1730    -0.5520 C.2   1 <1>  -0.3060 
 15 C       -0.7150     1.8760    -1.4810 C.3   1 <1>  -0.1090 
 16 C        5.8910     1.6180     0.1370 C.cat 1 <1>   1.0690 
 17 C        5.8690     3.6810     0.8060 C.2   1 <1>   0.2350 
 18 N        7.1640     2.0210     0.0700 N.pl3 1 <1>  -0.5550 
 19 C        7.1470     3.3370     0.5200 C.2   1 <1>   0.1580 
 20 C        5.2560     4.9670     1.3250 C.3   1 <1>  -0.1090 
 21 C        8.2600     1.2030    -0.2910 C.ar  1 <1>   0.3060 
 22 C        8.4260     4.1480     0.6500 C.3   1 <1>  -0.1090 
 23 C        8.5190    -0.0010     0.3760 C.ar  1 <1>   0.0760 
 24 C        9.0820     1.5890    -1.3390 C.ar  1 <1>  -0.1560 
 25 O        7.6760    -0.3780     1.3810 O.3   1 <1>  -0.3680 
 26 C        9.6080    -0.7780    -0.0080 C.ar  1 <1>  -0.1560 
 27 C       10.1620     0.8130    -1.7220 C.ar  1 <1>  -0.1500 
 28 C        8.0680    -1.3560     2.3260 C.3   1 <1>   0.0330 
 29 C       10.4220    -0.3680    -1.0490 C.ar  1 <1>  -0.1560 
 30 C       11.0630     1.2460    -2.8650 C.3   1 <1>  -0.1030 
 31 H        0.0230     2.9300     1.7380 H     1 <1>   0.0730 
 32 H       -0.6580     1.4290     1.2060 H     1 <1>   0.0730 
 33 H        2.1450    -1.9890    -0.6560 H     1 <1>   0.0730 
 34 H        3.3920    -2.1550     0.5590 H     1 <1>   0.0730 
 35 H        3.7980    -1.6290    -1.0690 H     1 <1>   0.0730 
 36 H        5.6970    -0.3980    -0.3020 H     1 <1>   0.4450 
 37 H       -0.6140     4.6590    -1.4730 H     1 <1>   0.1440 
 38 H       -0.0760     4.8880     0.2090 H     1 <1>   0.1440 
 39 H        0.1200     1.2570    -1.7540 H     1 <1>   0.0730 
 40 H       -1.0390     2.4090    -2.3570 H     1 <1>   0.0730 
 41 H       -1.5210     1.2430    -1.1550 H     1 <1>   0.0730 
 42 H        4.5180     5.3280     0.6310 H     1 <1>   0.0730 
 43 H        6.0040     5.7270     1.4550 H     1 <1>   0.0730 
 44 H        4.7780     4.7900     2.2720 H     1 <1>   0.0730 
 45 H        9.1420     3.6130     1.2490 H     1 <1>   0.0730 
 46 H        8.2350     5.0950     1.1190 H     1 <1>   0.0730 
 47 H        8.8540     4.3310    -0.3190 H     1 <1>   0.0730 
 48 H        8.8780     2.5040    -1.8650 H     1 <1>   0.1440 
 49 H        9.8430    -1.7050     0.4820 H     1 <1>   0.1440 
 50 H        7.3280    -1.3880     3.1060 H     1 <1>   0.0730 
 51 H        9.0210    -1.0800     2.7420 H     1 <1>   0.0730 
 52 H        8.1250    -2.3140     1.8410 H     1 <1>   0.0730 
 53 H       11.2630    -0.9760    -1.3360 H     1 <1>   0.1440 
 54 H       10.5660     1.9580    -3.4990 H     1 <1>   0.0730 
 55 H       11.3400     0.3970    -3.4640 H     1 <1>   0.0730 
 56 H       11.9580     1.6980    -2.4750 H     1 <1>   0.0730 
@<TRIPOS>BOND
  1   1   2  2   
  2   2   3  am  
  3   2   4  am  
  4   3   5  am  
  5   3   6  1   
  6   4   7  1   
  7   4   8  1   
  8   5   9  2   
  9   5  10  1   
 10   6  11  1   
 11   6  31  1   
 12   6  32  1   
 13   7  10  2   
 14   7  12  1   
 15   8  33  1   
 16   8  34  1   
 17   8  35  1   
 18  10  13  1   
 19  11  14  2   
 20  11  15  1   
 21  12  16  ar  
 22  12  36  1   
 23  13  16  ar  
 24  13  17  1   
 25  14  37  1   
 26  14  38  1   
 27  15  39  1   
 28  15  40  1   
 29  15  41  1   
 30  16  18  ar  
 31  17  19  2   
 32  17  20  1   
 33  18  19  1   
 34  18  21  1   
 35  19  22  1   
 36  20  42  1   
 37  20  43  1   
 38  20  44  1   
 39  21  23  ar  
 40  21  24  ar  
 41  22  45  1   
 42  22  46  1   
 43  22  47  1   
 44  23  25  1   
 45  23  26  ar  
 46  24  27  ar  
 47  24  48  1   
 48  25  28  1   
 49  26  29  ar  
 50  26  49  1   
 51  27  29  ar  
 52  27  30  1   
 53  28  50  1   
 54  28  51  1   
 55  28  52  1   
 56  29  53  1   
 57  30  54  1   
 58  30  55  1   
 59  30  56  1   
@<TRIPOS>SUBSTRUCTURE
  1 ****  16 GROUP 4 **** **** 0

# MOE 2024.06 (io_trps.svl 2023.06)
