@<TRIPOS>MOLECULE
1-(5-Chloro-2-ethoxy-benzenesulfonyl)-piperidine-4-carboxylic acid allylamide
48 49 1 0 0 
SMALL
USER_CHARGES


@<TRIPOS>ATOM
  1 CL      -0.2070     0.9500    -2.6000 Cl    1 <1>  -0.1770 
  2 C        0.0040     2.5490    -1.9340 C.ar  1 <1>   0.1770 
  3 C        0.8650     2.7320    -0.8690 C.ar  1 <1>  -0.1500 
  4 C       -0.6930     3.6070    -2.4840 C.ar  1 <1>  -0.1500 
  5 C        1.0510     3.9930    -0.3100 C.ar  1 <1>  -0.0090 
  6 C       -0.5150     4.8690    -1.9510 C.ar  1 <1>  -0.1500 
  7 S        2.1920     4.2030     1.0860 S.o2  1 <1>   1.4470 
  8 C        0.3470     5.0560    -0.8770 C.ar  1 <1>   0.0830 
  9 O        2.3320     2.9130     1.7290 O.2   1 <1>  -0.6500 
 10 O        1.8570     5.3330     1.9270 O.2   1 <1>  -0.6500 
 11 N        3.6930     4.5480     0.3710 N.am  1 <1>  -0.8490 
 12 O        0.5130     6.3090    -0.4110 O.3   1 <1>  -0.3630 
 13 C        4.7820     4.3550     1.3340 C.3   1 <1>   0.1960 
 14 C        3.7270     5.8920    -0.2180 C.3   1 <1>   0.1960 
 15 C       -0.5230     6.8370     0.3850 C.3   1 <1>   0.1200 
 16 C        6.1430     4.5490     0.6600 C.3   1 <1>  -0.1600 
 17 C        5.0550     6.1320    -0.9410 C.3   1 <1>  -0.1600 
 18 C       -0.0680     8.1950     0.9060 C.3   1 <1>  -0.2400 
 19 C        6.2510     5.9340     0.0040 C.3   1 <1>  -0.0190 
 20 C        7.5840     6.1140    -0.7200 C.2   1 <1>   0.5690 
 21 O        7.8680     5.3880    -1.6420 O.2   1 <1>  -0.5700 
 22 N        8.4230     7.0960    -0.3090 N.am  1 <1>  -0.7300 
 23 C        9.7400     7.3680    -0.8990 C.3   1 <1>   0.2780 
 24 C       10.6410     7.8500     0.2170 C.2   1 <1>  -0.2880 
 25 C       11.1790     9.0700     0.3090 C.2   1 <1>  -0.3000 
 26 H        1.3940     1.8820    -0.4720 H     1 <1>   0.1500 
 27 H       -1.3560     3.4400    -3.3140 H     1 <1>   0.1500 
 28 H       -1.0360     5.7130    -2.3700 H     1 <1>   0.1500 
 29 H        4.7410     3.3550     1.7330 H     1 <1>   0.0800 
 30 H        4.6700     5.0470     2.1530 H     1 <1>   0.0800 
 31 H        3.5840     6.6370     0.5490 H     1 <1>   0.0800 
 32 H        2.9340     5.9940    -0.9380 H     1 <1>   0.0800 
 33 H       -0.7050     6.1590     1.2020 H     1 <1>   0.0800 
 34 H       -1.4100     6.9320    -0.2180 H     1 <1>   0.0800 
 35 H        6.2730     3.7810    -0.0840 H     1 <1>   0.0800 
 36 H        6.9220     4.4310     1.3910 H     1 <1>   0.0800 
 37 H        5.0690     7.1310    -1.3390 H     1 <1>   0.0800 
 38 H        5.1280     5.4480    -1.7690 H     1 <1>   0.0800 
 39 H        0.8160     8.0770     1.5080 H     1 <1>   0.0800 
 40 H       -0.8400     8.6280     1.5160 H     1 <1>   0.0800 
 41 H        0.1390     8.8590     0.0860 H     1 <1>   0.0800 
 42 H        6.1870     6.6750     0.7810 H     1 <1>   0.0800 
 43 H        8.1750     7.7150     0.4620 H     1 <1>   0.3700 
 44 H        9.6410     8.1240    -1.6590 H     1 <1>   0.0800 
 45 H       10.1430     6.4750    -1.3490 H     1 <1>   0.0800 
 46 H       10.8130     7.0840     0.9550 H     1 <1>   0.1500 
 47 H       11.8200     9.3840     1.1150 H     1 <1>   0.1500 
 48 H       11.0290     9.8570    -0.4110 H     1 <1>   0.1500 
@<TRIPOS>BOND
  1   1   2  1   
  2   2   3  ar  
  3   2   4  ar  
  4   3   5  ar  
  5   3  26  1   
  6   4   6  ar  
  7   4  27  1   
  8   5   7  1   
  9   5   8  ar  
 10   6   8  ar  
 11   6  28  1   
 12   7   9  2   
 13   7  10  2   
 14   7  11  am  
 15   8  12  1   
 16  11  13  1   
 17  11  14  1   
 18  12  15  1   
 19  13  16  1   
 20  13  29  1   
 21  13  30  1   
 22  14  17  1   
 23  14  31  1   
 24  14  32  1   
 25  15  18  1   
 26  15  33  1   
 27  15  34  1   
 28  16  19  1   
 29  16  35  1   
 30  16  36  1   
 31  17  19  1   
 32  17  37  1   
 33  17  38  1   
 34  18  39  1   
 35  18  40  1   
 36  18  41  1   
 37  19  20  1   
 38  19  42  1   
 39  20  21  2   
 40  20  22  am  
 41  22  23  1   
 42  22  43  1   
 43  23  24  1   
 44  23  44  1   
 45  23  45  1   
 46  24  25  2   
 47  24  46  1   
 48  25  47  1   
 49  25  48  1   
@<TRIPOS>SUBSTRUCTURE
  1 ****  14 GROUP 4 **** **** 0

# MOE 2024.06 (io_trps.svl 2023.06)
