@<TRIPOS>MOLECULE
8-[4-(2-Fluoro-phenyl)-piperazin-1-ylmethyl]-1,3-dimethyl-7-propyl-3,7-dihydro-p
58 61 1 0 0 
SMALL
USER_CHARGES


@<TRIPOS>ATOM
  1 F        0.2110     0.6600     1.1460 F     1 <1>  -0.1900 
  2 C        1.3020     0.5380     0.4240 C.ar  1 <1>   0.1900 
  3 C        1.8060     1.6470    -0.2690 C.ar  1 <1>   0.1000 
  4 C        1.9030    -0.7040     0.3870 C.ar  1 <1>  -0.1500 
  5 N        1.2330     2.9250    -0.2630 N.pl3 1 <1>  -0.8380 
  6 C        2.9620     1.4470    -1.0120 C.ar  1 <1>  -0.1500 
  7 C        3.0550    -0.8700    -0.3650 C.ar  1 <1>  -0.1500 
  8 C        1.3070     3.6490     1.0400 C.3   1 <1>   0.2090 
  9 C       -0.1120     3.0240    -0.8930 C.3   1 <1>   0.2090 
 10 C        3.5800     0.2070    -1.0620 C.ar  1 <1>  -0.1500 
 11 C        0.8210     5.1040     0.8920 C.3   1 <1>   0.1100 
 12 C       -0.5560     4.4930    -1.0020 C.3   1 <1>   0.1100 
 13 N       -0.5470     5.1780     0.3190 N.3   1 <1>  -0.8100 
 14 C       -1.0300     6.5790     0.2170 C.3   1 <1>   0.2540 
 15 C       -2.5650     6.6310     0.1450 C.cat 1 <1>   0.6560 
 16 N       -3.3110     5.6220     0.5780 N.pl3 1 <1>  -0.7000 
 17 N       -3.3410     7.6000    -0.3290 N.pl3 1 <1>  -0.7640 
 18 C       -4.6130     5.9370     0.3800 C.2   1 <1>   0.4260 
 19 C       -4.6670     7.1660    -0.1870 C.2   1 <1>   0.2770 
 20 C       -2.9590     8.9160    -0.9080 C.3   1 <1>   0.3540 
 21 N       -5.7240     5.1700     0.6710 N.am  1 <1>  -0.4360 
 22 C       -5.9560     7.7090    -0.5090 C.2   1 <1>   0.7030 
 23 C       -3.0230     9.9880     0.1820 C.3   1 <1>  -0.1600 
 24 C       -6.9700     5.6760     0.3330 C.2   1 <1>   0.6900 
 25 C       -5.5860     3.8230     1.3000 C.3   1 <1>   0.0600 
 26 O       -6.0670     8.8040    -1.0330 O.2   1 <1>  -0.5700 
 27 N       -7.0810     6.9480    -0.2190 N.am  1 <1>  -0.4200 
 28 C       -2.5910    11.3600    -0.3490 C.3   1 <1>  -0.2400 
 29 O       -7.9630     5.0010     0.5100 O.2   1 <1>  -0.5700 
 30 C       -8.4430     7.4770    -0.5460 C.3   1 <1>   0.0600 
 31 H        1.4780    -1.5250     0.9360 H     1 <1>   0.1500 
 32 H        3.3730     2.2790    -1.5550 H     1 <1>   0.1500 
 33 H        3.5400    -1.8300    -0.4070 H     1 <1>   0.1500 
 34 H        2.3250     3.6440     1.3880 H     1 <1>   0.0800 
 35 H        0.7010     3.1430     1.7710 H     1 <1>   0.0800 
 36 H       -0.8300     2.4760    -0.3090 H     1 <1>   0.0800 
 37 H       -0.0730     2.5850    -1.8750 H     1 <1>   0.0800 
 38 H        4.4750     0.0810    -1.6460 H     1 <1>   0.1500 
 39 H        1.5160     5.6330     0.2620 H     1 <1>   0.0800 
 40 H        0.8320     5.5650     1.8650 H     1 <1>   0.0800 
 41 H       -1.5440     4.5170    -1.4260 H     1 <1>   0.0800 
 42 H        0.1120     4.9960    -1.6820 H     1 <1>   0.0800 
 43 H       -0.5980     7.0570    -0.6440 H     1 <1>   0.0800 
 44 H       -0.7290     7.1250     1.0930 H     1 <1>   0.0800 
 45 H       -2.8900     4.7700     0.9600 H     1 <1>   0.4500 
 46 H       -3.6260     9.1710    -1.7150 H     1 <1>   0.0800 
 47 H       -1.9610     8.8650    -1.3100 H     1 <1>   0.0800 
 48 H       -2.3810     9.7140     1.0010 H     1 <1>   0.0800 
 49 H       -4.0320    10.0640     0.5490 H     1 <1>   0.0800 
 50 H       -4.8070     3.8330     2.0410 H     1 <1>   0.0800 
 51 H       -5.3540     3.0920     0.5450 H     1 <1>   0.0800 
 52 H       -6.5040     3.5350     1.7840 H     1 <1>   0.0800 
 53 H       -1.5770    11.3350    -0.7070 H     1 <1>   0.0800 
 54 H       -2.6530    12.0930     0.4370 H     1 <1>   0.0800 
 55 H       -3.2360    11.6760    -1.1520 H     1 <1>   0.0800 
 56 H       -8.4430     8.5530    -0.5740 H     1 <1>   0.0800 
 57 H       -9.1540     7.1610     0.1990 H     1 <1>   0.0800 
 58 H       -8.7550     7.1000    -1.5040 H     1 <1>   0.0800 
@<TRIPOS>BOND
  1   1   2  1   
  2   2   3  ar  
  3   2   4  ar  
  4   3   5  1   
  5   3   6  ar  
  6   4   7  ar  
  7   4  31  1   
  8   5   8  1   
  9   5   9  1   
 10   6  10  ar  
 11   6  32  1   
 12   7  10  ar  
 13   7  33  1   
 14   8  11  1   
 15   8  34  1   
 16   8  35  1   
 17   9  12  1   
 18   9  36  1   
 19   9  37  1   
 20  10  38  1   
 21  11  13  1   
 22  11  39  1   
 23  11  40  1   
 24  12  13  1   
 25  12  41  1   
 26  12  42  1   
 27  13  14  1   
 28  14  15  1   
 29  14  43  1   
 30  14  44  1   
 31  15  16  ar  
 32  15  17  ar  
 33  16  18  1   
 34  16  45  1   
 35  17  19  1   
 36  17  20  1   
 37  18  19  2   
 38  18  21  1   
 39  19  22  1   
 40  20  23  1   
 41  20  46  1   
 42  20  47  1   
 43  21  24  am  
 44  21  25  1   
 45  22  26  2   
 46  22  27  am  
 47  23  28  1   
 48  23  48  1   
 49  23  49  1   
 50  24  27  am  
 51  24  29  2   
 52  25  50  1   
 53  25  51  1   
 54  25  52  1   
 55  27  30  1   
 56  28  53  1   
 57  28  54  1   
 58  28  55  1   
 59  30  56  1   
 60  30  57  1   
 61  30  58  1   
@<TRIPOS>SUBSTRUCTURE
  1 ****  16 GROUP 4 **** **** 0

# MOE 2024.06 (io_trps.svl 2023.06)
