@<TRIPOS>MOLECULE
1-(2,5-Dimethoxy-benzenesulfonyl)-piperidine-4-carboxylic acid (4-chloro-phenyl)
52 54 1 0 0 
SMALL
USER_CHARGES


@<TRIPOS>ATOM
  1 CL      -0.5880    -0.0990     1.8530 Cl    1 <1>  -0.1770 
  2 C       -2.1100    -0.7730     1.3270 C.ar  1 <1>   0.1770 
  3 C       -2.8220    -1.5940     2.1800 C.ar  1 <1>  -0.1500 
  4 C       -2.5850    -0.4740     0.0640 C.ar  1 <1>  -0.1500 
  5 C       -4.0290    -2.1250     1.7580 C.ar  1 <1>  -0.1500 
  6 C       -3.7920    -1.0110    -0.3500 C.ar  1 <1>  -0.1500 
  7 C       -4.5300    -1.8450     0.4880 C.ar  1 <1>   0.1170 
  8 N       -5.7530    -2.3500     0.0170 N.am  1 <1>  -0.5470 
  9 C       -6.4830    -3.4420     0.4050 C.2   1 <1>   0.5690 
 10 O       -6.1320    -4.2020     1.2730 O.2   1 <1>  -0.5700 
 11 C       -7.8060    -3.7020    -0.3160 C.3   1 <1>  -0.0190 
 12 C       -9.0050    -3.6000     0.6390 C.3   1 <1>  -0.1600 
 13 C       -7.8280    -5.0810    -0.9940 C.3   1 <1>  -0.1600 
 14 C      -10.3190    -3.9060    -0.0840 C.3   1 <1>   0.1960 
 15 C       -9.1750    -5.3460    -1.6710 C.3   1 <1>   0.1960 
 16 N      -10.2730    -5.2350    -0.7050 N.am  1 <1>  -0.8490 
 17 S      -11.7500    -5.6460    -1.4360 S.o2  1 <1>   1.4470 
 18 O      -11.5430    -6.9330    -2.0670 O.2   1 <1>  -0.6500 
 19 O      -12.1100    -4.5360    -2.2930 O.2   1 <1>  -0.6500 
 20 C      -12.9020    -5.8880    -0.0550 C.ar  1 <1>  -0.0090 
 21 C      -13.6570    -4.8480     0.4850 C.ar  1 <1>   0.0830 
 22 C      -13.0400    -7.1490     0.5160 C.ar  1 <1>  -0.1500 
 23 O      -13.5420    -3.5920     0.0050 O.3   1 <1>  -0.3620 
 24 C      -14.5220    -5.0620     1.5480 C.ar  1 <1>  -0.1500 
 25 C      -13.9090    -7.3770     1.5790 C.ar  1 <1>   0.0830 
 26 C      -14.5890    -3.1430    -0.8280 C.3   1 <1>   0.0400 
 27 C      -14.6490    -6.3260     2.0910 C.ar  1 <1>  -0.1500 
 28 O      -14.0850    -8.5890     2.1650 O.3   1 <1>  -0.3620 
 29 C      -13.3750    -9.7250     1.7220 C.3   1 <1>   0.0400 
 30 H       -2.4350    -1.8140     3.1580 H     1 <1>   0.1500 
 31 H       -2.0130     0.1680    -0.5810 H     1 <1>   0.1500 
 32 H       -4.5790    -2.7590     2.4290 H     1 <1>   0.1500 
 33 H       -4.1590    -0.7810    -1.3330 H     1 <1>   0.1500 
 34 H       -6.1390    -1.8360    -0.7700 H     1 <1>   0.3700 
 35 H       -7.9290    -2.9570    -1.0810 H     1 <1>   0.0800 
 36 H       -9.0530    -2.6120     1.0610 H     1 <1>   0.0800 
 37 H       -8.8860    -4.2980     1.4510 H     1 <1>   0.0800 
 38 H       -7.6510    -5.8520    -0.2640 H     1 <1>   0.0800 
 39 H       -7.0430    -5.1410    -1.7270 H     1 <1>   0.0800 
 40 H      -10.5140    -3.1540    -0.8330 H     1 <1>   0.0800 
 41 H      -11.1130    -3.8720     0.6410 H     1 <1>   0.0800 
 42 H       -9.1570    -6.3410    -2.0860 H     1 <1>   0.0800 
 43 H       -9.3290    -4.6500    -2.4790 H     1 <1>   0.0800 
 44 H      -12.4530    -7.9520     0.1100 H     1 <1>   0.1500 
 45 H      -15.0860    -4.2410     1.9520 H     1 <1>   0.1500 
 46 H      -14.3430    -2.1540    -1.1730 H     1 <1>   0.0800 
 47 H      -15.5050    -3.1210    -0.2660 H     1 <1>   0.0800 
 48 H      -14.6770    -3.8090    -1.6690 H     1 <1>   0.0800 
 49 H      -15.3170    -6.5050     2.9140 H     1 <1>   0.1500 
 50 H      -13.6740   -10.5620     2.3260 H     1 <1>   0.0800 
 51 H      -12.3210    -9.5470     1.8400 H     1 <1>   0.0800 
 52 H      -13.6220    -9.9120     0.6910 H     1 <1>   0.0800 
@<TRIPOS>BOND
  1   1   2  1   
  2   2   3  ar  
  3   2   4  ar  
  4   3   5  ar  
  5   3  30  1   
  6   4   6  ar  
  7   4  31  1   
  8   5   7  ar  
  9   5  32  1   
 10   6   7  ar  
 11   6  33  1   
 12   7   8  1   
 13   8   9  am  
 14   8  34  1   
 15   9  10  2   
 16   9  11  1   
 17  11  12  1   
 18  11  13  1   
 19  11  35  1   
 20  12  14  1   
 21  12  36  1   
 22  12  37  1   
 23  13  15  1   
 24  13  38  1   
 25  13  39  1   
 26  14  16  1   
 27  14  40  1   
 28  14  41  1   
 29  15  16  1   
 30  15  42  1   
 31  15  43  1   
 32  16  17  am  
 33  17  18  2   
 34  17  19  2   
 35  17  20  1   
 36  20  21  ar  
 37  20  22  ar  
 38  21  23  1   
 39  21  24  ar  
 40  22  25  ar  
 41  22  44  1   
 42  23  26  1   
 43  24  27  ar  
 44  24  45  1   
 45  25  27  ar  
 46  25  28  1   
 47  26  46  1   
 48  26  47  1   
 49  26  48  1   
 50  27  49  1   
 51  28  29  1   
 52  29  50  1   
 53  29  51  1   
 54  29  52  1   
@<TRIPOS>SUBSTRUCTURE
  1 ****  12 GROUP 4 **** **** 0

# MOE 2024.06 (io_trps.svl 2023.06)
