@<TRIPOS>MOLECULE
8-Ethyl-1,3,6,7-tetramethyl-1H,8H-imidazo[2,1-f]purine-2,4-dione
38 40 1 0 0 
SMALL
USER_CHARGES


@<TRIPOS>ATOM
  1 O        0.7570     0.0220    -0.2920 O.2   1 <1>  -0.5760 
  2 C        1.7320     0.7370    -0.1870 C.2   1 <1>   0.6850 
  3 N        1.5850     2.1210    -0.1880 N.am  1 <1>  -0.4270 
  4 N        2.9950     0.1690    -0.0640 N.am  1 <1>  -0.4430 
  5 C        2.6850     2.9640    -0.0860 C.2   1 <1>   0.6980 
  6 C        0.2140     2.7040    -0.3330 C.3   1 <1>   0.0500 
  7 C        4.0780     1.0130     0.0740 C.2   1 <1>   0.4190 
  8 C        3.1640    -1.3150    -0.0610 C.3   1 <1>   0.0500 
  9 O        2.5480     4.1750    -0.1280 O.2   1 <1>  -0.5760 
 10 C        3.9720     2.3650     0.0650 C.2   1 <1>   0.2680 
 11 N        5.3880     0.6610     0.2350 N.pl3 1 <1>  -0.7050 
 12 N        5.2780     2.8600     0.2220 N.pl3 1 <1>  -0.6350 
 13 C        6.0750     1.8060     0.3190 C.cat 1 <1>   1.0680 
 14 C        6.0840     3.9770     0.3070 C.2   1 <1>   0.2320 
 15 N        7.3560     2.1580     0.4690 N.pl3 1 <1>  -0.5730 
 16 C        7.3610     3.5460     0.4580 C.2   1 <1>   0.1550 
 17 C        5.4890     5.3690     0.2260 C.3   1 <1>  -0.1120 
 18 C        8.5210     1.2530     0.5940 C.3   1 <1>   0.1580 
 19 C        8.6470     4.3420     0.5990 C.3   1 <1>  -0.1120 
 20 C        9.0160     0.8740    -0.7980 C.3   1 <1>  -0.2490 
 21 H       -0.5070     2.0990     0.1890 H     1 <1>   0.0700 
 22 H       -0.0530     2.7410    -1.3750 H     1 <1>   0.0700 
 23 H        0.1720     3.6990     0.0760 H     1 <1>   0.0700 
 24 H        2.3410    -1.7910    -0.5670 H     1 <1>   0.0700 
 25 H        3.1970    -1.6740     0.9530 H     1 <1>   0.0700 
 26 H        4.0700    -1.5910    -0.5710 H     1 <1>   0.0700 
 27 H        5.7920    -0.2710     0.2750 H     1 <1>   0.4430 
 28 H        4.7770     5.5100     1.0200 H     1 <1>   0.0700 
 29 H        4.9840     5.4980    -0.7140 H     1 <1>   0.0700 
 30 H        6.2500     6.1210     0.3120 H     1 <1>   0.0700 
 31 H        8.2380     0.3670     1.1370 H     1 <1>   0.0700 
 32 H        9.3080     1.7410     1.1430 H     1 <1>   0.0700 
 33 H        9.1110     4.1320     1.5460 H     1 <1>   0.0700 
 34 H        8.4540     5.3980     0.5440 H     1 <1>   0.0700 
 35 H        9.3310     4.0830    -0.1890 H     1 <1>   0.0700 
 36 H        8.2560     0.3520    -1.3510 H     1 <1>   0.0700 
 37 H        9.8710     0.2260    -0.7100 H     1 <1>   0.0700 
 38 H        9.3180     1.7500    -1.3440 H     1 <1>   0.0700 
@<TRIPOS>BOND
  1   1   2  2   
  2   2   3  am  
  3   2   4  am  
  4   3   5  am  
  5   3   6  1   
  6   4   7  1   
  7   4   8  1   
  8   5   9  2   
  9   5  10  1   
 10   6  21  1   
 11   6  22  1   
 12   6  23  1   
 13   7  10  2   
 14   7  11  1   
 15   8  24  1   
 16   8  25  1   
 17   8  26  1   
 18  10  12  1   
 19  11  13  ar  
 20  11  27  1   
 21  12  13  ar  
 22  12  14  1   
 23  13  15  ar  
 24  14  16  2   
 25  14  17  1   
 26  15  16  1   
 27  15  18  1   
 28  16  19  1   
 29  17  28  1   
 30  17  29  1   
 31  17  30  1   
 32  18  20  1   
 33  18  31  1   
 34  18  32  1   
 35  19  33  1   
 36  19  34  1   
 37  19  35  1   
 38  20  36  1   
 39  20  37  1   
 40  20  38  1   
@<TRIPOS>SUBSTRUCTURE
  1 ****  10 GROUP 4 **** **** 0

# MOE 2024.06 (io_trps.svl 2023.06)
