@<TRIPOS>MOLECULE
N-[1-(3-o-Tolyl-[1,2,4]oxadiazol-5-yl)-ethyl]-isobutyramide
39 40 1 0 0 
SMALL
USER_CHARGES


@<TRIPOS>ATOM
  1 O       -0.9690    -1.1600     0.3810 O.2   1 <1>  -0.5700 
  2 C       -1.9880    -0.6390     0.0010 C.2   1 <1>   0.5690 
  3 N       -3.2000    -1.0520     0.4420 N.am  1 <1>  -0.7300 
  4 C       -1.9150     0.5100    -1.0060 C.3   1 <1>  -0.0190 
  5 C       -3.4180    -2.2100     1.3310 C.3   1 <1>   0.4000 
  6 C       -2.4860     1.8170    -0.4290 C.3   1 <1>  -0.2400 
  7 C       -2.6210     0.1590    -2.3270 C.3   1 <1>  -0.2400 
  8 C       -4.2780    -3.2620     0.6240 C.2   1 <1>   0.2980 
  9 C       -4.0510    -1.6860     2.6210 C.3   1 <1>  -0.2400 
 10 O       -3.6950    -4.0250    -0.2630 O.3   1 <1>  -0.0190 
 11 N       -5.5210    -3.4810     0.7900 N.2   1 <1>  -0.5650 
 12 N       -4.6420    -4.7980    -0.6920 N.2   1 <1>  -0.4100 
 13 C       -5.7230    -4.4790    -0.0750 C.2   1 <1>   0.4620 
 14 C       -7.0090    -5.1310    -0.2570 C.ar  1 <1>   0.0540 
 15 C       -8.2220    -4.4420    -0.4190 C.ar  1 <1>  -0.1440 
 16 C       -7.0510    -6.5260    -0.2790 C.ar  1 <1>  -0.1500 
 17 C       -9.4080    -5.1420    -0.5740 C.ar  1 <1>  -0.1500 
 18 C       -8.2790    -2.9200    -0.4390 C.3   1 <1>  -0.0970 
 19 C       -8.2360    -7.2180    -0.4380 C.ar  1 <1>  -0.1500 
 20 C       -9.4210    -6.5240    -0.5840 C.ar  1 <1>  -0.1500 
 21 H       -4.0470    -0.6160     0.0800 H     1 <1>   0.3700 
 22 H       -0.8730     0.6730    -1.2230 H     1 <1>   0.0800 
 23 H       -2.4720    -2.6650     1.5750 H     1 <1>   0.0800 
 24 H       -3.5360     1.7200    -0.2210 H     1 <1>   0.0800 
 25 H       -2.3460     2.6250    -1.1260 H     1 <1>   0.0800 
 26 H       -1.9760     2.0670     0.4850 H     1 <1>   0.0800 
 27 H       -3.6760     0.0160    -2.1750 H     1 <1>   0.0800 
 28 H       -2.2070    -0.7470    -2.7320 H     1 <1>   0.0800 
 29 H       -2.4810     0.9470    -3.0460 H     1 <1>   0.0800 
 30 H       -4.9960    -1.2170     2.4170 H     1 <1>   0.0800 
 31 H       -3.3920    -0.9800     3.0940 H     1 <1>   0.0800 
 32 H       -4.2170    -2.5040     3.2990 H     1 <1>   0.0800 
 33 H       -6.1330    -7.0760    -0.1670 H     1 <1>   0.1500 
 34 H      -10.3380    -4.6140    -0.6920 H     1 <1>   0.1500 
 35 H       -8.1310    -2.5360     0.5550 H     1 <1>   0.0800 
 36 H       -9.2290    -2.5720    -0.8010 H     1 <1>   0.0800 
 37 H       -7.5120    -2.5260    -1.0830 H     1 <1>   0.0800 
 38 H       -8.2370    -8.2940    -0.4480 H     1 <1>   0.1500 
 39 H      -10.3480    -7.0560    -0.7060 H     1 <1>   0.1500 
@<TRIPOS>BOND
  1   1   2  2   
  2   2   3  am  
  3   2   4  1   
  4   3   5  1   
  5   3  21  1   
  6   4   6  1   
  7   4   7  1   
  8   4  22  1   
  9   5   8  1   
 10   5   9  1   
 11   5  23  1   
 12   6  24  1   
 13   6  25  1   
 14   6  26  1   
 15   7  27  1   
 16   7  28  1   
 17   7  29  1   
 18   8  10  1   
 19   8  11  2   
 20   9  30  1   
 21   9  31  1   
 22   9  32  1   
 23  10  12  1   
 24  11  13  1   
 25  12  13  2   
 26  13  14  1   
 27  14  15  ar  
 28  14  16  ar  
 29  15  17  ar  
 30  15  18  1   
 31  16  19  ar  
 32  16  33  1   
 33  17  20  ar  
 34  17  34  1   
 35  18  35  1   
 36  18  36  1   
 37  18  37  1   
 38  19  20  ar  
 39  19  38  1   
 40  20  39  1   
@<TRIPOS>SUBSTRUCTURE
  1 ****  11 GROUP 4 **** **** 0

# MOE 2024.06 (io_trps.svl 2023.06)
