@<TRIPOS>MOLECULE
[8-(3-Chloro-2-methyl-phenyl)-1-methyl-2,4-dioxo-1,4,5,6,7,8-hexahydro-2H-1,3,4b
50 53 1 0 0 
SMALL
USER_CHARGES


@<TRIPOS>ATOM
  1 CL      -2.6280    -1.7150    -2.0540 Cl    1 <1>  -0.1840 
  2 C       -3.4610    -1.3270    -0.5670 C.ar  1 <1>   0.1700 
  3 C       -4.1800    -0.1450    -0.4530 C.ar  1 <1>  -0.1510 
  4 C       -3.3810    -2.2410     0.4670 C.ar  1 <1>  -0.1570 
  5 C       -4.8630     0.0960     0.7420 C.ar  1 <1>   0.3050 
  6 C       -4.1930     0.8430    -1.6240 C.3   1 <1>  -0.1040 
  7 C       -4.0380    -1.9830     1.6550 C.ar  1 <1>  -0.1570 
  8 N       -5.6710     1.2270     0.9110 N.pl3 1 <1>  -0.5800 
  9 C       -4.7740    -0.8200     1.7850 C.ar  1 <1>  -0.1570 
 10 C       -6.8690     1.3600     0.3090 C.cat 1 <1>   1.0690 
 11 C       -5.1830     2.3030     1.8170 C.3   1 <1>   0.1600 
 12 N       -7.4820     0.4580    -0.4530 N.pl3 1 <1>  -0.7040 
 13 N       -7.6120     2.4540     0.4040 N.pl3 1 <1>  -0.7670 
 14 C       -5.7320     3.6700     1.3790 C.3   1 <1>  -0.1670 
 15 C       -8.6690     0.9920    -0.8560 C.2   1 <1>   0.4200 
 16 C       -8.7830     2.2330    -0.3360 C.2   1 <1>   0.2700 
 17 C       -7.2520     3.6550     1.1830 C.3   1 <1>   0.3480 
 18 N       -9.6320     0.4120    -1.6610 N.am  1 <1>  -0.4420 
 19 C       -9.9590     2.9970    -0.6150 C.2   1 <1>   0.6990 
 20 C      -10.8040     1.1220    -1.8870 C.2   1 <1>   0.6860 
 21 C       -9.4570    -0.9660    -2.2070 C.3   1 <1>   0.0520 
 22 O      -10.0860     4.1410    -0.2130 O.2   1 <1>  -0.5750 
 23 N      -10.9570     2.4000    -1.3680 N.am  1 <1>  -0.4260 
 24 O      -11.7000     0.6250    -2.5360 O.2   1 <1>  -0.5750 
 25 C      -12.3450     2.9650    -1.2640 C.3   1 <1>   0.1940 
 26 C      -13.0260     2.5320     0.0320 C.2   1 <1>   0.6550 
 27 O      -12.4350     1.9130     0.8850 O.2   1 <1>  -0.5750 
 28 O      -14.2990     2.8830     0.1620 O.3   1 <1>  -0.4360 
 29 C      -15.0520     2.5470     1.3090 C.3   1 <1>   0.0320 
 30 H       -2.8070    -3.1430     0.3390 H     1 <1>   0.1430 
 31 H       -4.8510     0.4910    -2.3990 H     1 <1>   0.0720 
 32 H       -3.2050     0.9380    -2.0400 H     1 <1>   0.0720 
 33 H       -4.5000     1.8280    -1.3260 H     1 <1>   0.0720 
 34 H       -3.9730    -2.6870     2.4690 H     1 <1>   0.1430 
 35 H       -5.2880    -0.6280     2.7110 H     1 <1>   0.1430 
 36 H       -4.1050     2.3270     1.8050 H     1 <1>   0.0720 
 37 H       -5.5030     2.0860     2.8230 H     1 <1>   0.0720 
 38 H       -7.1080    -0.4640    -0.6630 H     1 <1>   0.4450 
 39 H       -5.2580     3.9650     0.4580 H     1 <1>   0.0720 
 40 H       -5.4760     4.4120     2.1150 H     1 <1>   0.0720 
 41 H       -7.7520     3.6210     2.1380 H     1 <1>   0.0720 
 42 H       -7.5680     4.5450     0.6640 H     1 <1>   0.0720 
 43 H       -8.4320    -1.1310    -2.4890 H     1 <1>   0.0720 
 44 H      -10.0700    -1.1050    -3.0810 H     1 <1>   0.0720 
 45 H       -9.7480    -1.6890    -1.4650 H     1 <1>   0.0720 
 46 H      -12.9450     2.6410    -2.0950 H     1 <1>   0.0720 
 47 H      -12.3080     4.0390    -1.2920 H     1 <1>   0.0720 
 48 H      -16.0460     2.9390     1.1920 H     1 <1>   0.0720 
 49 H      -14.5820     2.9820     2.1750 H     1 <1>   0.0720 
 50 H      -15.0850     1.4750     1.4030 H     1 <1>   0.0720 
@<TRIPOS>BOND
  1   1   2  1   
  2   2   3  ar  
  3   2   4  ar  
  4   3   5  ar  
  5   3   6  1   
  6   4   7  ar  
  7   4  30  1   
  8   5   8  1   
  9   5   9  ar  
 10   6  31  1   
 11   6  32  1   
 12   6  33  1   
 13   7   9  ar  
 14   7  34  1   
 15   8  10  ar  
 16   8  11  1   
 17   9  35  1   
 18  10  12  ar  
 19  10  13  ar  
 20  11  14  1   
 21  11  36  1   
 22  11  37  1   
 23  12  15  1   
 24  12  38  1   
 25  13  16  1   
 26  13  17  1   
 27  14  17  1   
 28  14  39  1   
 29  14  40  1   
 30  15  16  2   
 31  15  18  1   
 32  16  19  1   
 33  17  41  1   
 34  17  42  1   
 35  18  20  am  
 36  18  21  1   
 37  19  22  2   
 38  19  23  am  
 39  20  23  am  
 40  20  24  2   
 41  21  43  1   
 42  21  44  1   
 43  21  45  1   
 44  23  25  1   
 45  25  26  1   
 46  25  46  1   
 47  25  47  1   
 48  26  27  2   
 49  26  28  1   
 50  28  29  1   
 51  29  48  1   
 52  29  49  1   
 53  29  50  1   
@<TRIPOS>SUBSTRUCTURE
  1 ****  15 GROUP 4 **** **** 0

# MOE 2024.06 (io_trps.svl 2023.06)
