@<TRIPOS>MOLECULE
7-[2-Hydroxy-3-(naphthalen-2-yloxy)-propyl]-3-methyl-8-pyrrolidin-1-yl-3,7-dihyd
58 62 1 0 0 
SMALL
USER_CHARGES


@<TRIPOS>ATOM
  1 O        0.9150     1.6960     0.7220 O.2   1 <1>  -0.5740 
  2 C        2.0480     1.9920     0.4220 C.2   1 <1>   0.6870 
  3 N        3.0700     1.0560     0.3740 N.am  1 <1>  -0.4410 
  4 N        2.3210     3.2930     0.1200 N.am  1 <1>  -0.4940 
  5 C        4.3380     1.5080     0.0390 C.2   1 <1>   0.4210 
  6 C        2.8160    -0.3760     0.7070 C.3   1 <1>   0.0530 
  7 C        3.5600     3.7510    -0.2260 C.2   1 <1>   0.7000 
  8 N        5.4840     0.7830    -0.0220 N.pl3 1 <1>  -0.7030 
  9 C        4.6280     2.7920    -0.2700 C.2   1 <1>   0.2710 
 10 O        3.6880     4.9320    -0.4810 O.2   1 <1>  -0.5740 
 11 C        6.4890     1.5970    -0.3530 C.cat 1 <1>   1.0690 
 12 N        6.0140     2.8390    -0.5330 N.pl3 1 <1>  -0.7670 
 13 N        7.7640     1.1580    -0.4560 N.pl3 1 <1>  -0.5960 
 14 C        6.7290     4.1550    -0.5860 C.3   1 <1>   0.3490 
 15 C        8.2010    -0.2070    -0.0580 C.3   1 <1>   0.1610 
 16 C        8.9000     1.8840    -1.0780 C.3   1 <1>   0.1610 
 17 C        7.1590     4.6260     0.8250 C.3   1 <1>   0.1940 
 18 C        9.7160    -0.2050    -0.2050 C.3   1 <1>  -0.1660 
 19 C        9.9900     0.8390    -1.2780 C.3   1 <1>  -0.1660 
 20 O        6.0930     4.5190     1.7160 O.3   1 <1>  -0.6830 
 21 C        7.6350     6.0820     0.8170 C.3   1 <1>   0.1140 
 22 O        6.5550     6.8960     0.4160 O.3   1 <1>  -0.3680 
 23 C        6.7240     8.2150     0.1680 C.ar  1 <1>   0.0760 
 24 C        7.8680     8.9210     0.4560 C.ar  1 <1>  -0.1560 
 25 C        5.6380     8.8680    -0.4280 C.ar  1 <1>  -0.1560 
 26 C        7.9730    10.2930     0.1520 C.ar  1 <1>  -0.0070 
 27 C        5.7140    10.1980    -0.7320 C.ar  1 <1>  -0.1560 
 28 C        6.8770    10.9440    -0.4550 C.ar  1 <1>  -0.0070 
 29 C        9.1340    11.0430     0.4310 C.ar  1 <1>  -0.1560 
 30 C        6.9870    12.3160    -0.7600 C.ar  1 <1>  -0.1560 
 31 C        9.2130    12.3730     0.1240 C.ar  1 <1>  -0.1560 
 32 C        8.1270    13.0170    -0.4780 C.ar  1 <1>  -0.1560 
 33 H        1.5510     3.9580     0.1670 H     1 <1>   0.3650 
 34 H        1.7590    -0.5760     0.7490 H     1 <1>   0.0730 
 35 H        3.2450    -0.6080     1.6660 H     1 <1>   0.0730 
 36 H        3.2480    -1.0120    -0.0450 H     1 <1>   0.0730 
 37 H        5.5840    -0.2070     0.1730 H     1 <1>   0.4450 
 38 H        6.0840     4.8950    -1.0280 H     1 <1>   0.0730 
 39 H        7.5890     4.0970    -1.2240 H     1 <1>   0.0730 
 40 H        7.7740    -0.9320    -0.7320 H     1 <1>   0.0730 
 41 H        7.9150    -0.4330     0.9560 H     1 <1>   0.0730 
 42 H        9.2530     2.6450    -0.4040 H     1 <1>   0.0730 
 43 H        8.6180     2.3210    -2.0220 H     1 <1>   0.0730 
 44 H        7.9480     3.9930     1.1910 H     1 <1>   0.0730 
 45 H       10.0960    -1.1760    -0.4730 H     1 <1>   0.0730 
 46 H       10.1650     0.0960     0.7260 H     1 <1>   0.0730 
 47 H       10.9750     1.2630    -1.1920 H     1 <1>   0.0730 
 48 H        9.8870     0.3980    -2.2550 H     1 <1>   0.0730 
 49 H        5.5730     5.3560     1.6750 H     1 <1>   0.3950 
 50 H        8.4430     6.2170     0.1200 H     1 <1>   0.0730 
 51 H        7.9490     6.3860     1.8010 H     1 <1>   0.0730 
 52 H        8.7140     8.4590     0.9230 H     1 <1>   0.1440 
 53 H        4.7500     8.2990    -0.6400 H     1 <1>   0.1440 
 54 H        4.8810    10.6990    -1.1900 H     1 <1>   0.1440 
 55 H        9.9660    10.5450     0.8950 H     1 <1>   0.1440 
 56 H        6.1490    12.8050    -1.2220 H     1 <1>   0.1440 
 57 H       10.1020    12.9400     0.3390 H     1 <1>   0.1440 
 58 H        8.2040    14.0640    -0.7140 H     1 <1>   0.1440 
@<TRIPOS>BOND
  1   1   2  2   
  2   2   3  am  
  3   2   4  am  
  4   3   5  1   
  5   3   6  1   
  6   4   7  am  
  7   4  33  1   
  8   5   8  1   
  9   5   9  2   
 10   6  34  1   
 11   6  35  1   
 12   6  36  1   
 13   7   9  1   
 14   7  10  2   
 15   8  11  ar  
 16   8  37  1   
 17   9  12  1   
 18  11  12  ar  
 19  11  13  ar  
 20  12  14  1   
 21  13  15  1   
 22  13  16  1   
 23  14  17  1   
 24  14  38  1   
 25  14  39  1   
 26  15  18  1   
 27  15  40  1   
 28  15  41  1   
 29  16  19  1   
 30  16  42  1   
 31  16  43  1   
 32  17  20  1   
 33  17  21  1   
 34  17  44  1   
 35  18  19  1   
 36  18  45  1   
 37  18  46  1   
 38  19  47  1   
 39  19  48  1   
 40  20  49  1   
 41  21  22  1   
 42  21  50  1   
 43  21  51  1   
 44  22  23  1   
 45  23  24  ar  
 46  23  25  ar  
 47  24  26  ar  
 48  24  52  1   
 49  25  27  ar  
 50  25  53  1   
 51  26  28  ar  
 52  26  29  ar  
 53  27  28  ar  
 54  27  54  1   
 55  28  30  ar  
 56  29  31  ar  
 57  29  55  1   
 58  30  32  ar  
 59  30  56  1   
 60  31  32  ar  
 61  31  57  1   
 62  32  58  1   
@<TRIPOS>SUBSTRUCTURE
  1 ****  14 GROUP 4 **** **** 0

# MOE 2024.06 (io_trps.svl 2023.06)
