@<TRIPOS>MOLECULE
N-(4-Bromo-phenyl)-2-[4-(furan-2-carbonyl)-piperazin-1-yl]-acetamide
42 44 1 0 0 
SMALL
USER_CHARGES


@<TRIPOS>ATOM
  1 BR      -0.2920     0.1000    -0.7820 Br    1 <1>  -0.1110 
  2 C       -2.0620     0.8080    -0.5090 C.ar  1 <1>   0.1110 
  3 C       -2.7630     1.2900    -1.5970 C.ar  1 <1>  -0.1500 
  4 C       -2.5890     0.8160     0.7680 C.ar  1 <1>  -0.1500 
  5 C       -4.0350     1.7970    -1.3930 C.ar  1 <1>  -0.1500 
  6 C       -3.8620     1.3260     0.9550 C.ar  1 <1>  -0.1500 
  7 C       -4.5990     1.8260    -0.1190 C.ar  1 <1>   0.1170 
  8 N       -5.8960     2.3420     0.0270 N.am  1 <1>  -0.5470 
  9 C       -6.5350     2.8750     1.1190 C.2   1 <1>   0.5690 
 10 O       -5.9960     3.0310     2.1880 O.2   1 <1>  -0.5700 
 11 C       -7.9830     3.3580     0.9470 C.3   1 <1>   0.1710 
 12 N       -9.0460     2.3130     1.0130 N.3   1 <1>  -0.8100 
 13 C      -10.3840     2.9450     1.0360 C.3   1 <1>   0.1100 
 14 C       -8.9580     1.3020    -0.0650 C.3   1 <1>   0.1100 
 15 C      -11.5220     1.9150     1.1570 C.3   1 <1>   0.1400 
 16 C      -10.0600     0.2390     0.0610 C.3   1 <1>   0.1400 
 17 N      -11.4060     0.8800     0.0900 N.am  1 <1>  -0.6600 
 18 C      -12.3190     0.7130    -0.9340 C.2   1 <1>   0.7150 
 19 O      -11.9030     0.3020    -2.0050 O.2   1 <1>  -0.5700 
 20 C      -13.7320     1.0150    -0.8050 C.2   1 <1>   0.0550 
 21 O      -14.3400     1.1340     0.3750 O.3   1 <1>  -0.2800 
 22 C      -14.6660     1.1980    -1.7810 C.2   1 <1>  -0.1500 
 23 C      -15.6140     1.3900     0.1770 C.2   1 <1>  -0.0100 
 24 C      -15.8830     1.4440    -1.1440 C.2   1 <1>  -0.1500 
 25 H       -2.3200     1.2680    -2.5770 H     1 <1>   0.1500 
 26 H       -2.0170     0.4340     1.5940 H     1 <1>   0.1500 
 27 H       -4.5880     2.1780    -2.2310 H     1 <1>   0.1500 
 28 H       -4.2810     1.3310     1.9450 H     1 <1>   0.1500 
 29 H       -6.4510     2.3360    -0.8250 H     1 <1>   0.3700 
 30 H       -8.0590     3.8870     0.0150 H     1 <1>   0.0800 
 31 H       -8.1610     4.0700     1.7340 H     1 <1>   0.0800 
 32 H      -10.5310     3.5180     0.1370 H     1 <1>   0.0800 
 33 H      -10.4440     3.6180     1.8740 H     1 <1>   0.0800 
 34 H       -8.0100     0.7970    -0.0100 H     1 <1>   0.0800 
 35 H       -9.0410     1.7770    -1.0280 H     1 <1>   0.0800 
 36 H      -12.4580     2.4370     1.0890 H     1 <1>   0.0800 
 37 H      -11.4730     1.4380     2.1210 H     1 <1>   0.0800 
 38 H       -9.9140    -0.3130     0.9730 H     1 <1>   0.0800 
 39 H       -9.9870    -0.4550    -0.7580 H     1 <1>   0.0800 
 40 H      -14.5080     1.1570    -2.8450 H     1 <1>   0.1500 
 41 H      -16.2610     1.5170     1.0270 H     1 <1>   0.1500 
 42 H      -16.8230     1.6320    -1.6330 H     1 <1>   0.1500 
@<TRIPOS>BOND
  1   1   2  1   
  2   2   3  ar  
  3   2   4  ar  
  4   3   5  ar  
  5   3  25  1   
  6   4   6  ar  
  7   4  26  1   
  8   5   7  ar  
  9   5  27  1   
 10   6   7  ar  
 11   6  28  1   
 12   7   8  1   
 13   8   9  am  
 14   8  29  1   
 15   9  10  2   
 16   9  11  1   
 17  11  12  1   
 18  11  30  1   
 19  11  31  1   
 20  12  13  1   
 21  12  14  1   
 22  13  15  1   
 23  13  32  1   
 24  13  33  1   
 25  14  16  1   
 26  14  34  1   
 27  14  35  1   
 28  15  17  1   
 29  15  36  1   
 30  15  37  1   
 31  16  17  1   
 32  16  38  1   
 33  16  39  1   
 34  17  18  am  
 35  18  19  2   
 36  18  20  1   
 37  20  21  1   
 38  20  22  2   
 39  21  23  1   
 40  22  24  1   
 41  22  40  1   
 42  23  24  2   
 43  23  41  1   
 44  24  42  1   
@<TRIPOS>SUBSTRUCTURE
  1 ****  14 GROUP 4 **** **** 0

# MOE 2024.06 (io_trps.svl 2023.06)
