@<TRIPOS>MOLECULE
3-(5-Amino-[1,3,4]thiadiazol-2-yl)-propionic acid
17 17 1 0 0 
SMALL
USER_CHARGES


@<TRIPOS>ATOM
  1 S       -0.0780    -0.2580    -0.3720 S.3   1 <1>  -0.0800 
  2 C        1.1100     0.9750    -0.1160 C.2   1 <1>   0.4620 
  3 C       -1.2840     0.9620    -0.1230 C.2   1 <1>   0.1980 
  4 N        0.5930     2.1250     0.1170 N.2   1 <1>  -0.3380 
  5 N        2.4290     0.6420    -0.1790 N.pl3 1 <1>  -0.8840 
  6 N       -0.7760     2.1080     0.1110 N.2   1 <1>  -0.3380 
  7 C       -2.7340     0.5140    -0.2140 C.3   1 <1>   0.0200 
  8 C       -3.7480     1.6210     0.0990 C.3   1 <1>  -0.2660 
  9 C       -5.1450     1.0730     0.0000 C.2   1 <1>   0.9060 
 10 O       -5.8750     1.4680    -0.9120 O.co2 1 <1>  -0.9000 
 11 O       -5.4930     0.2180     0.8180 O.co2 1 <1>  -0.9000 
 12 H        3.1430     1.3540    -0.0190 H     1 <1>   0.4000 
 13 H        2.7440    -0.3110    -0.3570 H     1 <1>   0.4000 
 14 H       -2.8860    -0.2990     0.4740 H     1 <1>   0.0800 
 15 H       -2.9220     0.1430    -1.2060 H     1 <1>   0.0800 
 16 H       -3.6440     2.4330    -0.5940 H     1 <1>   0.0800 
 17 H       -3.6020     1.9900     1.0950 H     1 <1>   0.0800 
@<TRIPOS>BOND
  1   1   2  1   
  2   1   3  1   
  3   2   4  2   
  4   2   5  1   
  5   3   6  2   
  6   3   7  1   
  7   4   6  1   
  8   5  12  1   
  9   5  13  1   
 10   7   8  1   
 11   7  14  1   
 12   7  15  1   
 13   8   9  1   
 14   8  16  1   
 15   8  17  1   
 16   9  10  ar  
 17   9  11  ar  
@<TRIPOS>SUBSTRUCTURE
  1 ****   3 GROUP 4 **** **** 0

# MOE 2024.06 (io_trps.svl 2023.06)
