@<TRIPOS>MOLECULE
2-Ethylamino-6-methyl-10-oxo-10H-1,9,10a-triaza-anthracene-3-carboxylic acid cyc
51 54 1 0 0 
SMALL
USER_CHARGES


@<TRIPOS>ATOM
  1 O        0.1590    -0.1800    -0.2090 O.2   1 <1>  -0.5700 
  2 C        0.2200    -1.3810    -0.0840 C.2   1 <1>   0.8650 
  3 N       -0.9670    -2.0950     0.1650 N.pl3 1 <1>  -0.5760 
  4 C        1.4740    -2.0570    -0.1830 C.ar  1 <1>   0.0860 
  5 C       -0.9240    -3.4370     0.3390 C.cat 1 <1>   0.7390 
  6 C       -2.1820    -1.4480     0.2390 C.2   1 <1>   0.1910 
  7 C        1.4460    -3.4330     0.0090 C.ar  1 <1>   0.6590 
  8 C        2.7050    -1.4710    -0.4520 C.ar  1 <1>  -0.1500 
  9 N        0.2640    -4.0530     0.2640 N.pl3 1 <1>  -0.6530 
 10 C       -2.1020    -4.1510     0.5920 C.2   1 <1>  -0.1800 
 11 C       -3.3460    -2.1260     0.4840 C.2   1 <1>  -0.1380 
 12 N        2.4820    -4.2310    -0.0330 N.ar  1 <1>  -0.6200 
 13 C        3.8310    -2.2750    -0.5180 C.ar  1 <1>   0.0860 
 14 C       -3.3100    -3.5120     0.6660 C.2   1 <1>  -0.1500 
 15 C       -4.6880    -1.4150     0.5660 C.3   1 <1>  -0.1020 
 16 C        3.6540    -3.6630    -0.2970 C.ar  1 <1>   0.4100 
 17 C        5.1310    -1.7140    -0.8090 C.2   1 <1>   0.5440 
 18 N        4.7200    -4.5120    -0.3450 N.pl3 1 <1>  -0.8690 
 19 O        5.9080    -2.2890    -1.5470 O.2   1 <1>  -0.5700 
 20 N        5.5110    -0.5150    -0.2710 N.am  1 <1>  -0.7300 
 21 C        4.7280    -5.9760    -0.1640 C.3   1 <1>   0.2090 
 22 C        6.8070     0.1500    -0.5100 C.3   1 <1>   0.2200 
 23 C        6.1280    -6.3880     0.2710 C.3   1 <1>  -0.2400 
 24 C        7.6020     0.1610     0.7900 C.3   1 <1>  -0.1600 
 25 C        6.5590     1.6280    -0.7820 C.3   1 <1>  -0.1600 
 26 C        7.0620     1.3430     1.6020 C.3   1 <1>  -0.1600 
 27 C        6.3960     2.2880     0.5930 C.3   1 <1>  -0.1600 
 28 H       -2.2070    -0.3760     0.0970 H     1 <1>   0.1500 
 29 H        2.7790    -0.4080    -0.6210 H     1 <1>   0.1500 
 30 H        0.3490    -5.0630     0.3860 H     1 <1>   0.4500 
 31 H       -2.0490    -5.2160     0.7280 H     1 <1>   0.1500 
 32 H       -4.2240    -4.0530     0.8600 H     1 <1>   0.1500 
 33 H       -5.3580    -1.8010    -0.1830 H     1 <1>   0.0800 
 34 H       -4.5800    -0.3560     0.4090 H     1 <1>   0.0800 
 35 H       -5.1300    -1.5700     1.5340 H     1 <1>   0.0800 
 36 H        5.5840    -4.1320    -0.7690 H     1 <1>   0.4000 
 37 H        4.9640    -0.0690     0.4630 H     1 <1>   0.3700 
 38 H        4.4720    -6.4540    -1.0950 H     1 <1>   0.0800 
 39 H        4.0110    -6.2620     0.5860 H     1 <1>   0.0800 
 40 H        7.3450    -0.3260    -1.3140 H     1 <1>   0.0800 
 41 H        6.8470    -6.1240    -0.4830 H     1 <1>   0.0800 
 42 H        6.1630    -7.4520     0.4180 H     1 <1>   0.0800 
 43 H        6.3840    -5.9060     1.1970 H     1 <1>   0.0800 
 44 H        8.6350     0.3450     0.5520 H     1 <1>   0.0800 
 45 H        7.5350    -0.7760     1.3160 H     1 <1>   0.0800 
 46 H        5.7140     1.7900    -1.4270 H     1 <1>   0.0800 
 47 H        7.4340     2.0350    -1.2590 H     1 <1>   0.0800 
 48 H        7.8580     1.8350     2.1350 H     1 <1>   0.0800 
 49 H        6.3320     0.9970     2.3140 H     1 <1>   0.0800 
 50 H        5.3520     2.3960     0.8300 H     1 <1>   0.0800 
 51 H        6.8560     3.2610     0.6060 H     1 <1>   0.0800 
@<TRIPOS>BOND
  1   1   2  2   
  2   2   3  1   
  3   2   4  1   
  4   3   5  ar  
  5   3   6  1   
  6   4   7  ar  
  7   4   8  ar  
  8   5   9  ar  
  9   5  10  1   
 10   6  11  2   
 11   6  28  1   
 12   7   9  1   
 13   7  12  ar  
 14   8  13  ar  
 15   8  29  1   
 16   9  30  1   
 17  10  14  2   
 18  10  31  1   
 19  11  14  1   
 20  11  15  1   
 21  12  16  ar  
 22  13  16  ar  
 23  13  17  1   
 24  14  32  1   
 25  15  33  1   
 26  15  34  1   
 27  15  35  1   
 28  16  18  1   
 29  17  19  2   
 30  17  20  am  
 31  18  21  1   
 32  18  36  1   
 33  20  22  1   
 34  20  37  1   
 35  21  23  1   
 36  21  38  1   
 37  21  39  1   
 38  22  24  1   
 39  22  25  1   
 40  22  40  1   
 41  23  41  1   
 42  23  42  1   
 43  23  43  1   
 44  24  26  1   
 45  24  44  1   
 46  24  45  1   
 47  25  27  1   
 48  25  46  1   
 49  25  47  1   
 50  26  27  1   
 51  26  48  1   
 52  26  49  1   
 53  27  50  1   
 54  27  51  1   
@<TRIPOS>SUBSTRUCTURE
  1 ****   8 GROUP 4 **** **** 0

# MOE 2024.06 (io_trps.svl 2023.06)
