@<TRIPOS>MOLECULE
(2-Isopropyl-imidazol-1-yl)-acetic acid
23 23 1 0 0 
SMALL
USER_CHARGES


@<TRIPOS>ATOM
  1 O       -1.8730     0.9320    -0.6290 O.co2 1 <1>  -0.9000 
  2 C       -1.8910    -0.2790    -0.3850 C.2   1 <1>   0.9060 
  3 O       -1.6140    -1.1330    -1.2340 O.co2 1 <1>  -0.9000 
  4 C       -2.1680    -0.7300     1.0240 C.3   1 <1>  -0.0100 
  5 N       -3.6090    -0.9570     1.2700 N.pl3 1 <1>   0.0480 
  6 C       -4.3690    -2.0640     1.0500 C.2   1 <1>   0.0060 
  7 C       -4.4360    -0.0920     1.8850 C.2   1 <1>  -0.3020 
  8 N       -5.5860    -1.9500     1.4920 N.2   1 <1>  -0.5650 
  9 C       -3.8220    -3.3160     0.3600 C.3   1 <1>   0.1000 
 10 C       -5.6280    -0.7100     2.0080 C.2   1 <1>   0.0770 
 11 C       -4.8940    -4.0050    -0.4950 C.3   1 <1>  -0.2400 
 12 C       -3.2720    -4.2940     1.4040 C.3   1 <1>  -0.2400 
 13 H       -1.8120     0.0270     1.6940 H     1 <1>   0.0800 
 14 H       -1.6280    -1.6370     1.2030 H     1 <1>   0.0800 
 15 H       -4.1300     0.8930     2.1830 H     1 <1>   0.1500 
 16 H       -3.0230    -3.0310    -0.3020 H     1 <1>   0.0800 
 17 H       -6.5300    -0.3190     2.4460 H     1 <1>   0.1500 
 18 H       -5.7080    -4.3410     0.1220 H     1 <1>   0.0800 
 19 H       -4.4750    -4.8440    -1.0190 H     1 <1>   0.0800 
 20 H       -5.2780    -3.3040    -1.2160 H     1 <1>   0.0800 
 21 H       -4.0580    -4.5950     2.0730 H     1 <1>   0.0800 
 22 H       -2.4960    -3.8210     1.9760 H     1 <1>   0.0800 
 23 H       -2.8650    -5.1650     0.9220 H     1 <1>   0.0800 
@<TRIPOS>BOND
  1   1   2  ar  
  2   2   3  ar  
  3   2   4  1   
  4   4   5  1   
  5   4  13  1   
  6   4  14  1   
  7   5   6  1   
  8   5   7  1   
  9   6   8  2   
 10   6   9  1   
 11   7  10  2   
 12   7  15  1   
 13   8  10  1   
 14   9  11  1   
 15   9  12  1   
 16   9  16  1   
 17  10  17  1   
 18  11  18  1   
 19  11  19  1   
 20  11  20  1   
 21  12  21  1   
 22  12  22  1   
 23  12  23  1   
@<TRIPOS>SUBSTRUCTURE
  1 ****   5 GROUP 4 **** **** 0

# MOE 2024.06 (io_trps.svl 2023.06)
