@<TRIPOS>MOLECULE
[3-(3,4-Dimethoxy-phenyl)-[1,2,4]oxadiazol-5-ylmethyl]-ethyl-amine
36 37 1 0 0 
SMALL
USER_CHARGES


@<TRIPOS>ATOM
  1 O       -0.4150    -0.4240     1.2000 O.3   1 <1>  -0.0190 
  2 N       -1.6810    -0.1590     1.1230 N.2   1 <1>  -0.4100 
  3 C       -0.3080    -1.6260     0.6950 C.2   1 <1>   0.2980 
  4 C       -2.2660    -1.1740     0.5900 C.2   1 <1>   0.4620 
  5 N       -1.3980    -2.1510     0.3070 N.2   1 <1>  -0.5650 
  6 C        1.0730    -2.2690     0.6430 C.3   1 <1>   0.2900 
  7 C       -3.6890    -1.2870     0.3150 C.ar  1 <1>   0.0540 
  8 N        2.0430    -1.4630    -0.1210 N.3   1 <1>  -0.9000 
  9 C       -4.5810    -0.2810     0.6830 C.ar  1 <1>  -0.1500 
 10 C       -4.2270    -2.4000    -0.3300 C.ar  1 <1>  -0.1500 
 11 C        3.3870    -2.0100    -0.0640 C.3   1 <1>   0.1100 
 12 C       -5.9380    -0.3630     0.4290 C.ar  1 <1>   0.0830 
 13 C       -5.5810    -2.5110    -0.5850 C.ar  1 <1>  -0.1500 
 14 C        4.3000    -1.0900    -0.8610 C.3   1 <1>  -0.2400 
 15 O       -6.6710     0.7090     0.8420 O.3   1 <1>  -0.3630 
 16 C       -6.4610    -1.5010    -0.2050 C.ar  1 <1>   0.0830 
 17 C       -7.7470     1.1830     0.0620 C.3   1 <1>   0.0400 
 18 O       -7.8040    -1.6080    -0.4170 O.3   1 <1>  -0.3630 
 19 C       -8.3990    -2.8020    -0.8760 C.3   1 <1>   0.0400 
 20 H        0.9840    -3.2400     0.1880 H     1 <1>   0.0800 
 21 H        1.4240    -2.3970     1.6520 H     1 <1>   0.0800 
 22 H        2.0520    -0.5080     0.2610 H     1 <1>   0.3600 
 23 H       -4.2110     0.5980     1.1810 H     1 <1>   0.1500 
 24 H       -3.5710    -3.1970    -0.6370 H     1 <1>   0.1500 
 25 H        3.3980    -2.9980    -0.4970 H     1 <1>   0.0800 
 26 H        3.7260    -2.0690     0.9570 H     1 <1>   0.0800 
 27 H       -5.9280    -3.3950    -1.0840 H     1 <1>   0.1500 
 28 H        3.9620    -1.0280    -1.8800 H     1 <1>   0.0800 
 29 H        5.3020    -1.4810    -0.8570 H     1 <1>   0.0800 
 30 H        4.3160    -0.1060    -0.4280 H     1 <1>   0.0800 
 31 H       -7.9160     2.2130     0.3170 H     1 <1>   0.0800 
 32 H       -8.6230     0.6030     0.2910 H     1 <1>   0.0800 
 33 H       -7.4930     1.0960    -0.9800 H     1 <1>   0.0800 
 34 H       -9.4650    -2.6600    -0.8870 H     1 <1>   0.0800 
 35 H       -8.1450    -3.6000    -0.2010 H     1 <1>   0.0800 
 36 H       -8.0480    -3.0080    -1.8710 H     1 <1>   0.0800 
@<TRIPOS>BOND
  1   1   2  1   
  2   1   3  1   
  3   2   4  2   
  4   3   5  2   
  5   3   6  1   
  6   4   5  1   
  7   4   7  1   
  8   6   8  1   
  9   6  20  1   
 10   6  21  1   
 11   7   9  ar  
 12   7  10  ar  
 13   8  11  1   
 14   8  22  1   
 15   9  12  ar  
 16   9  23  1   
 17  10  13  ar  
 18  10  24  1   
 19  11  14  1   
 20  11  25  1   
 21  11  26  1   
 22  12  15  1   
 23  12  16  ar  
 24  13  16  ar  
 25  13  27  1   
 26  14  28  1   
 27  14  29  1   
 28  14  30  1   
 29  15  17  1   
 30  16  18  1   
 31  17  31  1   
 32  17  32  1   
 33  17  33  1   
 34  18  19  1   
 35  19  34  1   
 36  19  35  1   
 37  19  36  1   
@<TRIPOS>SUBSTRUCTURE
  1 ****   7 GROUP 4 **** **** 0

# MOE 2024.06 (io_trps.svl 2023.06)
