@<TRIPOS>MOLECULE
N-{2-[4-(4-Chloro-benzoyl)-piperazin-1-yl]-phenyl}-propionamide
48 50 1 0 0 
SMALL
USER_CHARGES


@<TRIPOS>ATOM
  1 CL      -0.5350     0.5230     1.8840 Cl    1 <1>  -0.1770 
  2 C       -1.8850     1.1580     0.9840 C.ar  1 <1>   0.1770 
  3 C       -2.1770     0.6400    -0.2630 C.ar  1 <1>  -0.1500 
  4 C       -2.6470     2.1740     1.5280 C.ar  1 <1>  -0.1500 
  5 C       -3.2520     1.1470    -0.9710 C.ar  1 <1>  -0.1500 
  6 C       -3.7210     2.6730     0.8110 C.ar  1 <1>  -0.1500 
  7 C       -4.0530     2.1650    -0.4490 C.ar  1 <1>   0.0860 
  8 C       -5.1840     2.6780    -1.2010 C.2   1 <1>   0.5440 
  9 O       -5.0400     2.9530    -2.3770 O.2   1 <1>  -0.5700 
 10 N       -6.4260     2.8490    -0.6280 N.am  1 <1>  -0.6600 
 11 C       -6.9180     2.0440     0.5360 C.3   1 <1>   0.1400 
 12 C       -7.5170     3.5970    -1.3350 C.3   1 <1>   0.1400 
 13 C       -8.0860     1.1270     0.1260 C.3   1 <1>   0.2090 
 14 C       -8.6630     2.6550    -1.7370 C.3   1 <1>   0.2090 
 15 N       -9.1730     1.8990    -0.5500 N.pl3 1 <1>  -0.8380 
 16 C      -10.3740     1.1960    -0.7690 C.ar  1 <1>   0.1000 
 17 C      -11.5640     1.6370    -0.1720 C.ar  1 <1>   0.1170 
 18 C      -10.4030     0.0670    -1.5790 C.ar  1 <1>  -0.1500 
 19 N      -11.4710     2.7850     0.6290 N.am  1 <1>  -0.5470 
 20 C      -12.7420     0.9380    -0.3920 C.ar  1 <1>  -0.1500 
 21 C      -11.5830    -0.6230    -1.7930 C.ar  1 <1>  -0.1500 
 22 C      -12.3820     3.5820     1.2520 C.2   1 <1>   0.5690 
 23 C      -12.7540    -0.1880    -1.1990 C.ar  1 <1>  -0.1500 
 24 O      -13.5730     3.3920     1.2320 O.2   1 <1>  -0.5700 
 25 C      -11.8500     4.7800     2.0190 C.3   1 <1>  -0.0990 
 26 C      -11.0800     5.7750     1.1330 C.3   1 <1>  -0.2400 
 27 H       -1.5660    -0.1460    -0.6710 H     1 <1>   0.1500 
 28 H       -2.3960     2.5670     2.4970 H     1 <1>   0.1500 
 29 H       -3.4830     0.7570    -1.9490 H     1 <1>   0.1500 
 30 H       -4.3130     3.4720     1.2230 H     1 <1>   0.1500 
 31 H       -7.2520     2.7130     1.3090 H     1 <1>   0.0800 
 32 H       -6.1300     1.4350     0.9390 H     1 <1>   0.0800 
 33 H       -7.1350     4.0850    -2.2150 H     1 <1>   0.0800 
 34 H       -7.9010     4.3590    -0.6820 H     1 <1>   0.0800 
 35 H       -8.4860     0.6430     1.0000 H     1 <1>   0.0800 
 36 H       -7.7180     0.3650    -0.5380 H     1 <1>   0.0800 
 37 H       -8.3090     1.9670    -2.4850 H     1 <1>   0.0800 
 38 H       -9.4660     3.2300    -2.1650 H     1 <1>   0.0800 
 39 H       -9.4980    -0.2720    -2.0470 H     1 <1>   0.1500 
 40 H      -10.4930     3.0830     0.6700 H     1 <1>   0.3700 
 41 H      -13.6580     1.2660     0.0650 H     1 <1>   0.1500 
 42 H      -11.5920    -1.4960    -2.4220 H     1 <1>   0.1500 
 43 H      -13.6750    -0.7200    -1.3610 H     1 <1>   0.1500 
 44 H      -11.2140     4.4260     2.8090 H     1 <1>   0.0800 
 45 H      -12.6830     5.2870     2.4750 H     1 <1>   0.0800 
 46 H      -10.2080     5.3120     0.7050 H     1 <1>   0.0800 
 47 H      -10.7670     6.6220     1.7170 H     1 <1>   0.0800 
 48 H      -11.7130     6.1230     0.3360 H     1 <1>   0.0800 
@<TRIPOS>BOND
  1   1   2  1   
  2   2   3  ar  
  3   2   4  ar  
  4   3   5  ar  
  5   3  27  1   
  6   4   6  ar  
  7   4  28  1   
  8   5   7  ar  
  9   5  29  1   
 10   6   7  ar  
 11   6  30  1   
 12   7   8  1   
 13   8   9  2   
 14   8  10  am  
 15  10  11  1   
 16  10  12  1   
 17  11  13  1   
 18  11  31  1   
 19  11  32  1   
 20  12  14  1   
 21  12  33  1   
 22  12  34  1   
 23  13  15  1   
 24  13  35  1   
 25  13  36  1   
 26  14  15  1   
 27  14  37  1   
 28  14  38  1   
 29  15  16  1   
 30  16  17  ar  
 31  16  18  ar  
 32  17  19  1   
 33  17  20  ar  
 34  18  21  ar  
 35  18  39  1   
 36  19  22  am  
 37  19  40  1   
 38  20  23  ar  
 39  20  41  1   
 40  21  23  ar  
 41  21  42  1   
 42  22  24  2   
 43  22  25  1   
 44  23  43  1   
 45  25  26  1   
 46  25  44  1   
 47  25  45  1   
 48  26  46  1   
 49  26  47  1   
 50  26  48  1   
@<TRIPOS>SUBSTRUCTURE
  1 ****  13 GROUP 4 **** **** 0

# MOE 2024.06 (io_trps.svl 2023.06)
