@<TRIPOS>MOLECULE
2-Chloro-N-[2-(4-isobutyryl-piperazin-1-yl)-phenyl]-benzamide
51 53 1 0 0 
SMALL
USER_CHARGES


@<TRIPOS>ATOM
  1 CL       2.4000    -3.2920     2.3590 Cl    1 <1>  -0.1770 
  2 C        1.0500    -2.6560     1.4490 C.ar  1 <1>   0.1770 
  3 C        1.2180    -1.6080     0.5400 C.ar  1 <1>   0.0860 
  4 C       -0.1840    -3.2340     1.6860 C.ar  1 <1>  -0.1500 
  5 C        2.4940    -0.9870     0.2520 C.2   1 <1>   0.5440 
  6 C        0.0670    -1.1550    -0.1090 C.ar  1 <1>  -0.1500 
  7 C       -1.3020    -2.7690     1.0180 C.ar  1 <1>  -0.1500 
  8 O        2.5590     0.2230     0.1620 O.2   1 <1>  -0.5700 
  9 N        3.6070    -1.7580     0.0350 N.am  1 <1>  -0.5470 
 10 C       -1.1730    -1.7240     0.1200 C.ar  1 <1>  -0.1500 
 11 C        4.9470    -1.4940    -0.2930 C.ar  1 <1>   0.1170 
 12 C        5.8110    -2.6000    -0.3140 C.ar  1 <1>   0.1000 
 13 C        5.4460    -0.2330    -0.5920 C.ar  1 <1>  -0.1500 
 14 N        5.3160    -3.8850    -0.0200 N.pl3 1 <1>  -0.8380 
 15 C        7.1510    -2.4060    -0.6220 C.ar  1 <1>  -0.1500 
 16 C        6.7830    -0.0570    -0.9030 C.ar  1 <1>  -0.1500 
 17 C        5.5820    -4.4270     1.3520 C.3   1 <1>   0.2090 
 18 C        5.3060    -4.9060    -1.1130 C.3   1 <1>   0.2090 
 19 C        7.6380    -1.1440    -0.9160 C.ar  1 <1>  -0.1500 
 20 C        6.7850    -5.3830     1.3790 C.3   1 <1>   0.1400 
 21 C        6.4880    -5.8930    -1.0350 C.3   1 <1>   0.1400 
 22 N        6.6450    -6.4560     0.3430 N.am  1 <1>  -0.6600 
 23 C        6.5170    -7.7760     0.7060 C.2   1 <1>   0.5690 
 24 O        6.4590    -8.0940     1.8720 O.2   1 <1>  -0.5700 
 25 C        6.4280    -8.8900    -0.3530 C.3   1 <1>  -0.0190 
 26 C        4.9740    -9.1040    -0.8110 C.3   1 <1>  -0.2400 
 27 C        7.0090   -10.2290     0.1380 C.3   1 <1>  -0.2400 
 28 H       -0.2690    -4.0410     2.3920 H     1 <1>   0.1500 
 29 H        0.1550    -0.3380    -0.8070 H     1 <1>   0.1500 
 30 H       -2.2670    -3.2130     1.1970 H     1 <1>   0.1500 
 31 H        3.5050    -2.7630     0.2070 H     1 <1>   0.3700 
 32 H       -2.0400    -1.3520    -0.3990 H     1 <1>   0.1500 
 33 H        4.7960     0.6220    -0.5860 H     1 <1>   0.1500 
 34 H        7.8200    -3.2440    -0.6290 H     1 <1>   0.1500 
 35 H        7.1540     0.9270    -1.1320 H     1 <1>   0.1500 
 36 H        4.7110    -4.9570     1.6950 H     1 <1>   0.0800 
 37 H        5.7590    -3.6120     2.0320 H     1 <1>   0.0800 
 38 H        5.3220    -4.4070    -2.0670 H     1 <1>   0.0800 
 39 H        4.3870    -5.4620    -1.0530 H     1 <1>   0.0800 
 40 H        8.6780    -1.0080    -1.1550 H     1 <1>   0.1500 
 41 H        6.8690    -5.8100     2.3630 H     1 <1>   0.0800 
 42 H        7.6840    -4.8260     1.1920 H     1 <1>   0.0800 
 43 H        7.3930    -5.3800    -1.3070 H     1 <1>   0.0800 
 44 H        6.3290    -6.6670    -1.7600 H     1 <1>   0.0800 
 45 H        7.0210    -8.5990    -1.1990 H     1 <1>   0.0800 
 46 H        4.3730    -9.4320     0.0190 H     1 <1>   0.0800 
 47 H        4.9290    -9.8490    -1.5860 H     1 <1>   0.0800 
 48 H        4.5570    -8.1890    -1.1900 H     1 <1>   0.0800 
 49 H        6.4400   -10.6030     0.9720 H     1 <1>   0.0800 
 50 H        8.0260   -10.0920     0.4590 H     1 <1>   0.0800 
 51 H        6.9920   -10.9620    -0.6480 H     1 <1>   0.0800 
@<TRIPOS>BOND
  1   1   2  1   
  2   2   3  ar  
  3   2   4  ar  
  4   3   5  1   
  5   3   6  ar  
  6   4   7  ar  
  7   4  28  1   
  8   5   8  2   
  9   5   9  am  
 10   6  10  ar  
 11   6  29  1   
 12   7  10  ar  
 13   7  30  1   
 14   9  11  1   
 15   9  31  1   
 16  10  32  1   
 17  11  12  ar  
 18  11  13  ar  
 19  12  14  1   
 20  12  15  ar  
 21  13  16  ar  
 22  13  33  1   
 23  14  17  1   
 24  14  18  1   
 25  15  19  ar  
 26  15  34  1   
 27  16  19  ar  
 28  16  35  1   
 29  17  20  1   
 30  17  36  1   
 31  17  37  1   
 32  18  21  1   
 33  18  38  1   
 34  18  39  1   
 35  19  40  1   
 36  20  22  1   
 37  20  41  1   
 38  20  42  1   
 39  21  22  1   
 40  21  43  1   
 41  21  44  1   
 42  22  23  am  
 43  23  24  2   
 44  23  25  1   
 45  25  26  1   
 46  25  27  1   
 47  25  45  1   
 48  26  46  1   
 49  26  47  1   
 50  26  48  1   
 51  27  49  1   
 52  27  50  1   
 53  27  51  1   
@<TRIPOS>SUBSTRUCTURE
  1 ****  14 GROUP 4 **** **** 0

# MOE 2024.06 (io_trps.svl 2023.06)
