@<TRIPOS>MOLECULE
3-Allyl-8-(3,5-dimethyl-phenyl)-1-methyl-7,8-dihydro-1H,6H-imidazo[2,1-f]purine-
48 51 1 0 0 
SMALL
USER_CHARGES


@<TRIPOS>ATOM
  1 O        0.7530    -0.0340    -1.7170 O.2   1 <1>  -0.5750 
  2 C        1.6600     0.6400    -1.2770 C.2   1 <1>   0.6860 
  3 N        1.3980     1.8660    -0.6780 N.am  1 <1>  -0.4260 
  4 N        2.9690     0.1830    -1.3800 N.am  1 <1>  -0.4420 
  5 C        2.4180     2.6960    -0.2440 C.2   1 <1>   0.6990 
  6 C       -0.0080     2.2420    -0.3740 C.3   1 <1>   0.2710 
  7 C        3.9780     0.9790    -0.8740 C.2   1 <1>   0.4200 
  8 C        3.2700    -1.1410    -2.0020 C.3   1 <1>   0.0520 
  9 O        2.1920     3.8150     0.1850 O.2   1 <1>  -0.5750 
 10 C        3.7540     2.1980    -0.3250 C.2   1 <1>   0.2700 
 11 C       -0.4000     1.8020     1.0320 C.2   1 <1>  -0.2950 
 12 N        5.3210     0.7140    -0.8300 N.pl3 1 <1>  -0.7040 
 13 N        5.0120     2.6760     0.0510 N.pl3 1 <1>  -0.7670 
 14 C        0.2920     1.0490     1.8970 C.2   1 <1>  -0.3070 
 15 C        5.8980     1.7660    -0.2640 C.cat 1 <1>   1.0690 
 16 C        5.6320     3.8570     0.6790 C.3   1 <1>   0.3480 
 17 N        7.1470     2.1000     0.0510 N.pl3 1 <1>  -0.5800 
 18 C        7.1310     3.4610     0.6710 C.3   1 <1>   0.1600 
 19 C        8.2900     1.3040    -0.0530 C.ar  1 <1>   0.3040 
 20 C        8.3230     0.0470     0.5360 C.ar  1 <1>  -0.1580 
 21 C        9.3960     1.7510    -0.7630 C.ar  1 <1>  -0.1580 
 22 C        9.4350    -0.7640     0.4040 C.ar  1 <1>  -0.1510 
 23 C       10.5150     0.9500    -0.8990 C.ar  1 <1>  -0.1510 
 24 C       10.5270    -0.3060    -0.3150 C.ar  1 <1>  -0.1580 
 25 C        9.4810    -2.1400     1.0440 C.3   1 <1>  -0.1050 
 26 C       11.7290     1.4270    -1.6760 C.3   1 <1>  -0.1050 
 27 H       -0.6790     1.7980    -1.0890 H     1 <1>   0.0720 
 28 H       -0.1210     3.3100    -0.4550 H     1 <1>   0.0720 
 29 H        2.4870    -1.4250    -2.6860 H     1 <1>   0.0720 
 30 H        3.3430    -1.8930    -1.2350 H     1 <1>   0.0720 
 31 H        4.1920    -1.0980    -2.5530 H     1 <1>   0.0720 
 32 H       -1.3750     2.1800     1.2900 H     1 <1>   0.1420 
 33 H        5.8190    -0.1070    -1.1700 H     1 <1>   0.4440 
 34 H       -0.0760     0.7910     2.8760 H     1 <1>   0.1420 
 35 H        1.2620     0.6220     1.7220 H     1 <1>   0.1420 
 36 H        5.2640     3.9960     1.6830 H     1 <1>   0.0720 
 37 H        5.4520     4.7440     0.0950 H     1 <1>   0.0720 
 38 H        7.5240     3.4240     1.6730 H     1 <1>   0.0720 
 39 H        7.7070     4.1540     0.0830 H     1 <1>   0.0720 
 40 H        7.4840    -0.3010     1.1090 H     1 <1>   0.1420 
 41 H        9.3800     2.7250    -1.2170 H     1 <1>   0.1420 
 42 H       11.3970    -0.9320    -0.4180 H     1 <1>   0.1420 
 43 H        8.5070    -2.4460     1.3810 H     1 <1>   0.0720 
 44 H       10.1480    -2.1260     1.8880 H     1 <1>   0.0720 
 45 H        9.8400    -2.8660     0.3360 H     1 <1>   0.0720 
 46 H       11.5250     2.3510    -2.1870 H     1 <1>   0.0720 
 47 H       12.0120     0.6900    -2.4060 H     1 <1>   0.0720 
 48 H       12.5550     1.5810    -1.0040 H     1 <1>   0.0720 
@<TRIPOS>BOND
  1   1   2  2   
  2   2   3  am  
  3   2   4  am  
  4   3   5  am  
  5   3   6  1   
  6   4   7  1   
  7   4   8  1   
  8   5   9  2   
  9   5  10  1   
 10   6  11  1   
 11   6  27  1   
 12   6  28  1   
 13   7  10  2   
 14   7  12  1   
 15   8  29  1   
 16   8  30  1   
 17   8  31  1   
 18  10  13  1   
 19  11  14  2   
 20  11  32  1   
 21  12  15  ar  
 22  12  33  1   
 23  13  15  ar  
 24  13  16  1   
 25  14  34  1   
 26  14  35  1   
 27  15  17  ar  
 28  16  18  1   
 29  16  36  1   
 30  16  37  1   
 31  17  18  1   
 32  17  19  1   
 33  18  38  1   
 34  18  39  1   
 35  19  20  ar  
 36  19  21  ar  
 37  20  22  ar  
 38  20  40  1   
 39  21  23  ar  
 40  21  41  1   
 41  22  24  ar  
 42  22  25  1   
 43  23  24  ar  
 44  23  26  1   
 45  24  42  1   
 46  25  43  1   
 47  25  44  1   
 48  25  45  1   
 49  26  46  1   
 50  26  47  1   
 51  26  48  1   
@<TRIPOS>SUBSTRUCTURE
  1 ****  12 GROUP 4 **** **** 0

# MOE 2024.06 (io_trps.svl 2023.06)
