@<TRIPOS>MOLECULE
4-(4-Chloro-phenyl)-3,6-dihydroxy-6-methyl-4,5,6,7-tetrahydro-1H-indazole-5-carb
44 46 1 0 0 
SMALL
USER_CHARGES


@<TRIPOS>ATOM
  1 CL      -1.3360    -0.4910     1.3670 Cl    1 <1>  -0.1770 
  2 C       -2.6420     0.5670     0.8970 C.ar  1 <1>   0.1770 
  3 C       -2.7350     1.8230     1.4630 C.ar  1 <1>  -0.1500 
  4 C       -3.5630     0.1330    -0.0360 C.ar  1 <1>  -0.1500 
  5 C       -3.7730     2.6590     1.0880 C.ar  1 <1>  -0.1500 
  6 C       -4.5980     0.9740    -0.4080 C.ar  1 <1>  -0.1500 
  7 C       -4.7120     2.2410     0.1520 C.ar  1 <1>  -0.1430 
  8 C       -5.8690     3.1530    -0.2590 C.3   1 <1>   0.2450 
  9 C       -5.4040     4.5700    -0.5600 C.2   1 <1>  -0.1810 
 10 C       -6.9450     3.1930     0.8510 C.3   1 <1>  -0.0190 
 11 C       -4.3430     5.0440    -1.3170 C.2   1 <1>   0.3510 
 12 C       -6.0080     5.6920    -0.1190 C.2   1 <1>  -0.3320 
 13 C       -7.5710     1.8230     1.0260 C.2   1 <1>   0.6590 
 14 C       -7.9720     4.3420     0.6590 C.3   1 <1>   0.2800 
 15 O       -3.4580     4.3140    -1.9930 O.3   1 <1>  -0.5120 
 16 N       -4.2510     6.3290    -1.3490 N.2   1 <1>  -0.7070 
 17 N       -5.2950     6.7400    -0.5910 N.pl3 1 <1>   0.3000 
 18 C       -7.2590     5.7150     0.7420 C.3   1 <1>   0.0200 
 19 O       -7.5770     1.2660     2.0940 O.2   1 <1>  -0.5700 
 20 O       -8.0690     1.2480    -0.0630 O.3   1 <1>  -0.4300 
 21 O       -8.8800     4.2900     1.6930 O.3   1 <1>  -0.6800 
 22 C       -8.8050     4.2430    -0.6290 C.3   1 <1>  -0.2400 
 23 C       -8.5990    -0.0580    -0.0400 C.3   1 <1>   0.2580 
 24 C       -7.4550    -1.0450    -0.1870 C.2   1 <1>  -0.2880 
 25 C       -7.2760    -1.8820    -1.2140 C.2   1 <1>  -0.3000 
 26 H       -2.0060     2.1400     2.1860 H     1 <1>   0.1500 
 27 H       -3.4700    -0.8490    -0.4640 H     1 <1>   0.1500 
 28 H       -3.8440     3.6410     1.5250 H     1 <1>   0.1500 
 29 H       -5.3150     0.6330    -1.1360 H     1 <1>   0.1500 
 30 H       -6.3020     2.7730    -1.1680 H     1 <1>   0.0800 
 31 H       -6.4300     3.4050     1.7700 H     1 <1>   0.0800 
 32 H       -2.8430     4.9520    -2.3910 H     1 <1>   0.4500 
 33 H       -5.4910     7.7360    -0.4290 H     1 <1>   0.2700 
 34 H       -7.9170     6.5000     0.4150 H     1 <1>   0.0800 
 35 H       -6.9650     5.9100     1.7600 H     1 <1>   0.0800 
 36 H       -9.6270     4.8950     1.5220 H     1 <1>   0.4000 
 37 H       -8.1680     4.2560    -1.4940 H     1 <1>   0.0800 
 38 H       -9.3830     3.3380    -0.6480 H     1 <1>   0.0800 
 39 H       -9.4790     5.0770    -0.7110 H     1 <1>   0.0800 
 40 H       -9.2830    -0.1460    -0.8650 H     1 <1>   0.0800 
 41 H       -9.1370    -0.2120     0.8800 H     1 <1>   0.0800 
 42 H       -6.7780    -1.0010     0.6520 H     1 <1>   0.1500 
 43 H       -6.4530    -2.5720    -1.2860 H     1 <1>   0.1500 
 44 H       -7.9310    -1.9510    -2.0650 H     1 <1>   0.1500 
@<TRIPOS>BOND
  1   1   2  1   
  2   2   3  ar  
  3   2   4  ar  
  4   3   5  ar  
  5   3  26  1   
  6   4   6  ar  
  7   4  27  1   
  8   5   7  ar  
  9   5  28  1   
 10   6   7  ar  
 11   6  29  1   
 12   7   8  1   
 13   8   9  1   
 14   8  10  1   
 15   8  30  1   
 16   9  11  1   
 17   9  12  2   
 18  10  13  1   
 19  10  14  1   
 20  10  31  1   
 21  11  15  1   
 22  11  16  2   
 23  12  17  1   
 24  12  18  1   
 25  13  19  2   
 26  13  20  1   
 27  14  18  1   
 28  14  21  1   
 29  14  22  1   
 30  15  32  1   
 31  16  17  1   
 32  17  33  1   
 33  18  34  1   
 34  18  35  1   
 35  20  23  1   
 36  21  36  1   
 37  22  37  1   
 38  22  38  1   
 39  22  39  1   
 40  23  24  1   
 41  23  40  1   
 42  23  41  1   
 43  24  25  2   
 44  24  42  1   
 45  25  43  1   
 46  25  44  1   
@<TRIPOS>SUBSTRUCTURE
  1 ****   8 GROUP 4 **** **** 0

# MOE 2024.06 (io_trps.svl 2023.06)
