@<TRIPOS>MOLECULE
(4-Benzo[1,3]dioxol-5-ylmethyl-piperazin-1-yl)-cyclohexyl-methanone
51 54 1 0 0 
SMALL
USER_CHARGES


@<TRIPOS>ATOM
  1 O        2.7670    -0.4620    -1.4210 O.2   1 <1>  -0.5700 
  2 C        1.8630    -0.9510    -0.7800 C.2   1 <1>   0.5690 
  3 N        1.7940    -0.6980     0.5620 N.am  1 <1>  -0.6600 
  4 C        0.8760    -1.8930    -1.4750 C.3   1 <1>  -0.0190 
  5 C        2.0240     0.7160     1.0180 C.3   1 <1>   0.1400 
  6 C        2.4500    -1.6850     1.4720 C.3   1 <1>   0.1400 
  7 C       -0.4530    -2.0690    -0.7080 C.3   1 <1>  -0.1600 
  8 C        1.5180    -3.2630    -1.7710 C.3   1 <1>  -0.1600 
  9 C        3.5020     0.9720     1.4050 C.3   1 <1>   0.3430 
 10 C        3.9870    -1.4680     1.5000 C.3   1 <1>   0.3430 
 11 C       -1.4170    -2.9960    -1.4600 C.3   1 <1>  -0.1600 
 12 C        0.5490    -4.1900    -2.5170 C.3   1 <1>  -0.1600 
 13 N        4.3750    -0.1430     0.9020 N.4   1 <1>  -0.9590 
 14 C       -0.7670    -4.3550    -1.7480 C.3   1 <1>  -0.1600 
 15 C        5.8320     0.1450     0.9220 C.3   1 <1>   0.4860 
 16 C        6.0900     1.4570     0.2030 C.ar  1 <1>  -0.1440 
 17 C        5.7680     1.5900    -1.1470 C.ar  1 <1>  -0.1500 
 18 C        6.6390     2.5340     0.9000 C.ar  1 <1>  -0.1500 
 19 C        6.0020     2.8080    -1.7530 C.ar  1 <1>   0.0820 
 20 C        6.8670     3.7510     0.2680 C.ar  1 <1>  -0.1500 
 21 O        5.7670     3.1570    -3.0210 O.3   1 <1>  -0.3620 
 22 C        6.5340     3.8580    -1.0660 C.ar  1 <1>   0.0820 
 23 C        6.1880     4.5140    -3.1560 C.3   1 <1>   0.4000 
 24 O        6.6590     4.9180    -1.8710 O.3   1 <1>  -0.3620 
 25 H        0.6420    -1.4350    -2.4200 H     1 <1>   0.0800 
 26 H        1.3830     0.9360     1.8540 H     1 <1>   0.0800 
 27 H        1.7530     1.3910     0.2230 H     1 <1>   0.0800 
 28 H        2.2300    -2.6900     1.1560 H     1 <1>   0.0800 
 29 H        2.0510    -1.5680     2.4650 H     1 <1>   0.0800 
 30 H       -0.9190    -1.1090    -0.5700 H     1 <1>   0.0800 
 31 H       -0.2610    -2.4860     0.2650 H     1 <1>   0.0800 
 32 H        1.8120    -3.7360    -0.8510 H     1 <1>   0.0800 
 33 H        2.4020    -3.1230    -2.3700 H     1 <1>   0.0800 
 34 H        3.5850     1.0500     2.4760 H     1 <1>   0.0800 
 35 H        3.8090     1.9140     0.9810 H     1 <1>   0.0800 
 36 H        4.4560    -2.2610     0.9390 H     1 <1>   0.0800 
 37 H        4.3350    -1.5370     2.5170 H     1 <1>   0.0800 
 38 H       -1.7050    -2.5360    -2.3900 H     1 <1>   0.0800 
 39 H       -2.3100    -3.1410    -0.8750 H     1 <1>   0.0800 
 40 H        1.0060    -5.1540    -2.6590 H     1 <1>   0.0800 
 41 H        0.3410    -3.7800    -3.4910 H     1 <1>   0.0800 
 42 H        4.0920    -0.2090    -0.1010 H     1 <1>   0.4500 
 43 H       -1.4450    -4.9620    -2.3230 H     1 <1>   0.0800 
 44 H       -0.5790    -4.8660    -0.8190 H     1 <1>   0.0800 
 45 H        6.3710    -0.6450     0.4230 H     1 <1>   0.0800 
 46 H        6.1830     0.2120     1.9380 H     1 <1>   0.0800 
 47 H        5.3460     0.7900    -1.7310 H     1 <1>   0.1500 
 48 H        6.9000     2.4430     1.9410 H     1 <1>   0.1500 
 49 H        7.2910     4.5930     0.7870 H     1 <1>   0.1500 
 50 H        5.3510     5.1260    -3.4430 H     1 <1>   0.0800 
 51 H        6.9900     4.5740    -3.8700 H     1 <1>   0.0800 
@<TRIPOS>BOND
  1   1   2  2   
  2   2   3  am  
  3   2   4  1   
  4   3   5  1   
  5   3   6  1   
  6   4   7  1   
  7   4   8  1   
  8   4  25  1   
  9   5   9  1   
 10   5  26  1   
 11   5  27  1   
 12   6  10  1   
 13   6  28  1   
 14   6  29  1   
 15   7  11  1   
 16   7  30  1   
 17   7  31  1   
 18   8  12  1   
 19   8  32  1   
 20   8  33  1   
 21   9  13  1   
 22   9  34  1   
 23   9  35  1   
 24  10  13  1   
 25  10  36  1   
 26  10  37  1   
 27  11  14  1   
 28  11  38  1   
 29  11  39  1   
 30  12  14  1   
 31  12  40  1   
 32  12  41  1   
 33  13  15  1   
 34  13  42  1   
 35  14  43  1   
 36  14  44  1   
 37  15  16  1   
 38  15  45  1   
 39  15  46  1   
 40  16  17  ar  
 41  16  18  ar  
 42  17  19  ar  
 43  17  47  1   
 44  18  20  ar  
 45  18  48  1   
 46  19  21  1   
 47  19  22  ar  
 48  20  22  ar  
 49  20  49  1   
 50  21  23  1   
 51  22  24  1   
 52  23  24  1   
 53  23  50  1   
 54  23  51  1   
@<TRIPOS>SUBSTRUCTURE
  1 ****   1 GROUP 4 **** **** 0

# MOE 2024.06 (io_trps.svl 2023.06)
