@<TRIPOS>MOLECULE
2-(2-Dimethylamino-ethyl)-8,8-dimethyl-3-propyl-8,9-dihydro-2H,6H-7-oxa-11-thia-
57 60 1 0 0 
SMALL
USER_CHARGES


@<TRIPOS>ATOM
  1 S        0.6040    -0.2400    -0.0790 S.3   1 <1>  -0.0800 
  2 C       -0.4020     1.2130    -0.1660 C.ar  1 <1>   0.2970 
  3 C        2.0780     0.7050    -0.3360 C.2   1 <1>  -0.0450 
  4 N       -1.7150     1.1640    -0.0330 N.ar  1 <1>  -0.5670 
  5 C        0.3930     2.3320    -0.3820 C.ar  1 <1>   0.0000 
  6 C        3.4000     0.2280    -0.3930 C.2   1 <1>   0.7150 
  7 C        1.7920     2.0170    -0.4730 C.2   1 <1>   0.1250 
  8 C       -2.2970     2.3480    -0.1250 C.ar  1 <1>   0.1660 
  9 C       -0.2500     3.5550    -0.4730 C.ar  1 <1>  -0.1500 
 10 O        3.7130    -0.9450    -0.2230 O.2   1 <1>  -0.5700 
 11 N        4.3840     1.1760    -0.6210 N.am  1 <1>  -0.4200 
 12 N        2.7940     2.9280    -0.6730 N.2   1 <1>  -0.5750 
 13 C       -1.6240     3.5540    -0.3390 C.ar  1 <1>  -0.1430 
 14 C       -3.8070     2.3570     0.0040 C.3   1 <1>  -0.0170 
 15 C        4.0150     2.5160    -0.7440 C.2   1 <1>   0.4490 
 16 C        5.7910     0.6740    -0.7620 C.3   1 <1>   0.1400 
 17 C       -2.3840     4.8720    -0.4100 C.3   1 <1>   0.2640 
 18 C       -4.3540     3.7480     0.3590 C.3   1 <1>   0.2800 
 19 C        5.1160     3.5580    -0.9690 C.3   1 <1>  -0.0990 
 20 C        6.3450     0.2130     0.6040 C.3   1 <1>   0.3430 
 21 O       -3.7700     4.6870    -0.4900 O.3   1 <1>  -0.5600 
 22 C       -5.8560     3.8200     0.0790 C.3   1 <1>  -0.2400 
 23 C       -4.0970     4.1310     1.8260 C.3   1 <1>  -0.2400 
 24 C        4.6530     5.0270    -0.9410 C.3   1 <1>  -0.1600 
 25 N        7.1870    -1.0300     0.5200 N.4   1 <1>  -0.9590 
 26 C        5.8280     5.9880    -1.1520 C.3   1 <1>  -0.2400 
 27 C        6.3440    -2.2370     0.2140 C.3   1 <1>   0.2630 
 28 C        7.9180    -1.2500     1.8070 C.3   1 <1>   0.2630 
 29 H        0.3200     4.4520    -0.6390 H     1 <1>   0.1500 
 30 H       -4.1090     1.6500     0.7550 H     1 <1>   0.0800 
 31 H       -4.2210     2.0330    -0.9330 H     1 <1>   0.0800 
 32 H        6.4380     1.4220    -1.1780 H     1 <1>   0.0800 
 33 H        5.7770    -0.1490    -1.4550 H     1 <1>   0.0800 
 34 H       -2.0870     5.4220    -1.2850 H     1 <1>   0.0800 
 35 H       -2.1730     5.4730     0.4570 H     1 <1>   0.0800 
 36 H        5.5670     3.3720    -1.9280 H     1 <1>   0.0800 
 37 H        5.8650     3.4380    -0.2080 H     1 <1>   0.0800 
 38 H        5.5160     0.0210     1.2670 H     1 <1>   0.0800 
 39 H        6.9260     1.0170     1.0260 H     1 <1>   0.0800 
 40 H       -6.0520     3.6110    -0.9570 H     1 <1>   0.0800 
 41 H       -6.2310     4.8000     0.3120 H     1 <1>   0.0800 
 42 H       -6.3840     3.1010     0.6790 H     1 <1>   0.0800 
 43 H       -3.0630     4.0100     2.0920 H     1 <1>   0.0800 
 44 H       -4.6710     3.4950     2.4740 H     1 <1>   0.0800 
 45 H       -4.3950     5.1490     2.0030 H     1 <1>   0.0800 
 46 H        4.1860     5.2420     0.0050 H     1 <1>   0.0800 
 47 H        3.9220     5.1910    -1.7150 H     1 <1>   0.0800 
 48 H        7.8900    -0.9230    -0.2290 H     1 <1>   0.4500 
 49 H        6.5620     5.8690    -0.3750 H     1 <1>   0.0800 
 50 H        5.4750     7.0050    -1.1310 H     1 <1>   0.0800 
 51 H        6.2960     5.8130    -2.1050 H     1 <1>   0.0800 
 52 H        5.5850    -2.3650     0.9690 H     1 <1>   0.0800 
 53 H        6.9540    -3.1260     0.1830 H     1 <1>   0.0800 
 54 H        5.8510    -2.1270    -0.7380 H     1 <1>   0.0800 
 55 H        7.2190    -1.3800     2.6180 H     1 <1>   0.0800 
 56 H        8.5520    -0.4070     2.0300 H     1 <1>   0.0800 
 57 H        8.5340    -2.1330     1.7420 H     1 <1>   0.0800 
@<TRIPOS>BOND
  1   1   2  1   
  2   1   3  1   
  3   2   4  ar  
  4   2   5  ar  
  5   3   6  1   
  6   3   7  2   
  7   4   8  ar  
  8   5   7  1   
  9   5   9  ar  
 10   6  10  2   
 11   6  11  am  
 12   7  12  1   
 13   8  13  ar  
 14   8  14  1   
 15   9  13  ar  
 16   9  29  1   
 17  11  15  1   
 18  11  16  1   
 19  12  15  2   
 20  13  17  1   
 21  14  18  1   
 22  14  30  1   
 23  14  31  1   
 24  15  19  1   
 25  16  20  1   
 26  16  32  1   
 27  16  33  1   
 28  17  21  1   
 29  17  34  1   
 30  17  35  1   
 31  18  21  1   
 32  18  22  1   
 33  18  23  1   
 34  19  24  1   
 35  19  36  1   
 36  19  37  1   
 37  20  25  1   
 38  20  38  1   
 39  20  39  1   
 40  22  40  1   
 41  22  41  1   
 42  22  42  1   
 43  23  43  1   
 44  23  44  1   
 45  23  45  1   
 46  24  26  1   
 47  24  46  1   
 48  24  47  1   
 49  25  27  1   
 50  25  28  1   
 51  25  48  1   
 52  26  49  1   
 53  26  50  1   
 54  26  51  1   
 55  27  52  1   
 56  27  53  1   
 57  27  54  1   
 58  28  55  1   
 59  28  56  1   
 60  28  57  1   
@<TRIPOS>SUBSTRUCTURE
  1 ****   7 GROUP 4 **** **** 0

# MOE 2024.06 (io_trps.svl 2023.06)
