@<TRIPOS>MOLECULE
N-[2-(4-Acetyl-piperazin-1-yl)-phenyl]-2-(4-chloro-2-methyl-phenoxy)-acetamide
52 54 1 0 0 
SMALL
USER_CHARGES


@<TRIPOS>ATOM
  1 CL       4.9990    -0.1220     1.1800 Cl    1 <1>  -0.1770 
  2 C        4.7350    -1.6700     0.4180 C.ar  1 <1>   0.1770 
  3 C        4.5690    -1.7280    -0.9520 C.ar  1 <1>  -0.1500 
  4 C        4.6980    -2.8100     1.1960 C.ar  1 <1>  -0.1500 
  5 C        4.3670    -2.9540    -1.5670 C.ar  1 <1>  -0.1440 
  6 C        4.4930    -4.0370     0.5890 C.ar  1 <1>  -0.1500 
  7 C        4.3240    -4.1130    -0.7930 C.ar  1 <1>   0.0830 
  8 C        4.1880    -3.0190    -3.0770 C.3   1 <1>  -0.0960 
  9 O        4.1170    -5.2880    -1.4440 O.3   1 <1>  -0.3630 
 10 C        3.6380    -6.4570    -0.7850 C.3   1 <1>   0.1810 
 11 C        4.7640    -7.3670    -0.3060 C.2   1 <1>   0.5690 
 12 O        4.4900    -8.5140    -0.0420 O.2   1 <1>  -0.5700 
 13 N        6.0170    -6.8460    -0.1780 N.am  1 <1>  -0.5470 
 14 C        7.2580    -7.3670     0.2200 C.ar  1 <1>   0.1170 
 15 C        8.2790    -6.4380     0.4660 C.ar  1 <1>   0.1000 
 16 C        7.5180    -8.7230     0.3600 C.ar  1 <1>  -0.1500 
 17 N        8.0210    -5.0620     0.3430 N.pl3 1 <1>  -0.8380 
 18 C        9.5370    -6.8950     0.8360 C.ar  1 <1>  -0.1500 
 19 C        8.7750    -9.1640     0.7360 C.ar  1 <1>  -0.1500 
 20 C        8.5420    -4.4130    -0.8990 C.3   1 <1>   0.2090 
 21 C        8.1440    -4.2470     1.5990 C.3   1 <1>   0.2090 
 22 C        9.7870    -8.2500     0.9720 C.ar  1 <1>  -0.1500 
 23 C        8.1940    -2.9140    -0.9460 C.3   1 <1>   0.1400 
 24 C        9.0530    -3.0160     1.4410 C.3   1 <1>   0.1400 
 25 N        8.6490    -2.1690     0.2740 N.am  1 <1>  -0.6600 
 26 C        8.6430    -0.8050     0.3760 C.2   1 <1>   0.5690 
 27 O        9.0270    -0.2340     1.3670 O.2   1 <1>  -0.5700 
 28 C        8.1550     0.0430    -0.7750 C.3   1 <1>  -0.1790 
 29 H        4.5970    -0.8170    -1.5210 H     1 <1>   0.1500 
 30 H        4.8300    -2.7320     2.2600 H     1 <1>   0.1500 
 31 H        4.4760    -4.9160     1.2080 H     1 <1>   0.1500 
 32 H        4.2690    -2.0440    -3.5230 H     1 <1>   0.0800 
 33 H        3.2180    -3.4220    -3.3110 H     1 <1>   0.0800 
 34 H        4.9380    -3.6580    -3.5090 H     1 <1>   0.0800 
 35 H        3.0460    -7.0010    -1.4980 H     1 <1>   0.0800 
 36 H        3.0020    -6.1740     0.0330 H     1 <1>   0.0800 
 37 H        6.1000    -5.8370    -0.3480 H     1 <1>   0.3700 
 38 H        6.7410    -9.4420     0.1740 H     1 <1>   0.1500 
 39 H       10.3230    -6.1870     1.0180 H     1 <1>   0.1500 
 40 H        8.9630   -10.2180     0.8420 H     1 <1>   0.1500 
 41 H        8.1140    -4.9040    -1.7560 H     1 <1>   0.0800 
 42 H        9.6100    -4.5340    -0.9480 H     1 <1>   0.0800 
 43 H        8.5190    -4.8610     2.3990 H     1 <1>   0.0800 
 44 H        7.1650    -3.9110     1.8860 H     1 <1>   0.0800 
 45 H       10.7650    -8.5920     1.2620 H     1 <1>   0.1500 
 46 H        7.1280    -2.8180    -1.0350 H     1 <1>   0.0800 
 47 H        8.6450    -2.4810    -1.8200 H     1 <1>   0.0800 
 48 H       10.0690    -3.3410     1.3040 H     1 <1>   0.0800 
 49 H        9.0140    -2.4400     2.3490 H     1 <1>   0.0800 
 50 H        7.1800    -0.2780    -1.0850 H     1 <1>   0.0800 
 51 H        8.8420    -0.0280    -1.5960 H     1 <1>   0.0800 
 52 H        8.0930     1.0700    -0.4640 H     1 <1>   0.0800 
@<TRIPOS>BOND
  1   1   2  1   
  2   2   3  ar  
  3   2   4  ar  
  4   3   5  ar  
  5   3  29  1   
  6   4   6  ar  
  7   4  30  1   
  8   5   7  ar  
  9   5   8  1   
 10   6   7  ar  
 11   6  31  1   
 12   7   9  1   
 13   8  32  1   
 14   8  33  1   
 15   8  34  1   
 16   9  10  1   
 17  10  11  1   
 18  10  35  1   
 19  10  36  1   
 20  11  12  2   
 21  11  13  am  
 22  13  14  1   
 23  13  37  1   
 24  14  15  ar  
 25  14  16  ar  
 26  15  17  1   
 27  15  18  ar  
 28  16  19  ar  
 29  16  38  1   
 30  17  20  1   
 31  17  21  1   
 32  18  22  ar  
 33  18  39  1   
 34  19  22  ar  
 35  19  40  1   
 36  20  23  1   
 37  20  41  1   
 38  20  42  1   
 39  21  24  1   
 40  21  43  1   
 41  21  44  1   
 42  22  45  1   
 43  23  25  1   
 44  23  46  1   
 45  23  47  1   
 46  24  25  1   
 47  24  48  1   
 48  24  49  1   
 49  25  26  am  
 50  26  27  2   
 51  26  28  1   
 52  28  50  1   
 53  28  51  1   
 54  28  52  1   
@<TRIPOS>SUBSTRUCTURE
  1 ****  17 GROUP 4 **** **** 0

# MOE 2024.06 (io_trps.svl 2023.06)
