@<TRIPOS>MOLECULE
8-[2-(2-Hydroxy-ethoxy)-ethyl]-1,3,6,7-tetramethyl-1H,8H-imidazo[2,1-f]purine-2,
46 48 1 0 0 
SMALL
USER_CHARGES


@<TRIPOS>ATOM
  1 O        2.3940    -0.8190     1.2330 O.2   1 <1>  -0.5750 
  2 C        3.0670     0.1090     0.8330 C.2   1 <1>   0.6860 
  3 N        2.5790     1.4100     0.9130 N.am  1 <1>  -0.4260 
  4 N        4.3270    -0.1310     0.3010 N.am  1 <1>  -0.4420 
  5 C        3.3550     2.4960     0.5260 C.2   1 <1>   0.6990 
  6 C        1.2090     1.6380     1.4700 C.3   1 <1>   0.0510 
  7 C        5.0870     0.9520    -0.0930 C.2   1 <1>   0.4200 
  8 C        4.8400    -1.5290     0.1880 C.3   1 <1>   0.0510 
  9 O        2.9310     3.6350     0.6380 O.2   1 <1>  -0.5750 
 10 C        4.6570     2.2340     0.0040 C.2   1 <1>   0.2700 
 11 N        6.3480     0.9430    -0.6090 N.pl3 1 <1>  -0.7040 
 12 N        5.7130     3.0390    -0.4640 N.pl3 1 <1>  -0.6340 
 13 C        6.6920     2.2130    -0.8070 C.cat 1 <1>   1.0690 
 14 C        6.1740     4.3170    -0.6960 C.2   1 <1>   0.2330 
 15 N        7.7700     2.8670    -1.2560 N.pl3 1 <1>  -0.5720 
 16 C        7.4350     4.2130    -1.1840 C.2   1 <1>   0.1570 
 17 C        5.2960     5.5180    -0.4040 C.3   1 <1>  -0.1100 
 18 C        9.0200     2.2620    -1.8120 C.3   1 <1>   0.1600 
 19 C        8.4020     5.3050    -1.6110 C.3   1 <1>  -0.1100 
 20 C        9.7450     1.3390    -0.8190 C.3   1 <1>   0.1120 
 21 O        8.9510     0.2280    -0.5150 O.3   1 <1>  -0.5650 
 22 C        9.5710    -0.6620     0.3690 C.3   1 <1>   0.1120 
 23 C        8.6460    -1.8580     0.5920 C.3   1 <1>   0.1120 
 24 O        9.1880    -2.6850     1.5610 O.3   1 <1>  -0.6840 
 25 H        0.5510     0.8350     1.1850 H     1 <1>   0.0710 
 26 H        0.7920     2.5590     1.1010 H     1 <1>   0.0710 
 27 H        1.2600     1.6820     2.5440 H     1 <1>   0.0710 
 28 H        4.0300    -2.2020    -0.0380 H     1 <1>   0.0710 
 29 H        5.2830    -1.8280     1.1220 H     1 <1>   0.0710 
 30 H        5.5700    -1.6060    -0.5980 H     1 <1>   0.0710 
 31 H        7.0720     0.2150    -0.6450 H     1 <1>   0.4440 
 32 H        5.0320     5.5350     0.6380 H     1 <1>   0.0710 
 33 H        4.3930     5.4620    -0.9850 H     1 <1>   0.0710 
 34 H        5.8000     6.4350    -0.6440 H     1 <1>   0.0710 
 35 H        9.7000     3.0440    -2.0980 H     1 <1>   0.0710 
 36 H        8.7820     1.7050    -2.7020 H     1 <1>   0.0710 
 37 H        9.3030     5.2510    -1.0260 H     1 <1>   0.0710 
 38 H        7.9690     6.2790    -1.4720 H     1 <1>   0.0710 
 39 H        8.6520     5.1930    -2.6510 H     1 <1>   0.0710 
 40 H        9.9730     1.8700     0.0900 H     1 <1>   0.0710 
 41 H       10.6630     0.9870    -1.2610 H     1 <1>   0.0710 
 42 H        9.7470    -0.1510     1.3010 H     1 <1>   0.0710 
 43 H       10.5030    -0.9870    -0.0610 H     1 <1>   0.0710 
 44 H        8.5220    -2.4310    -0.3100 H     1 <1>   0.0710 
 45 H        7.6920    -1.5270     0.9590 H     1 <1>   0.0710 
 46 H        9.9900    -3.1410     1.2350 H     1 <1>   0.3940 
@<TRIPOS>BOND
  1   1   2  2   
  2   2   3  am  
  3   2   4  am  
  4   3   5  am  
  5   3   6  1   
  6   4   7  1   
  7   4   8  1   
  8   5   9  2   
  9   5  10  1   
 10   6  25  1   
 11   6  26  1   
 12   6  27  1   
 13   7  10  2   
 14   7  11  1   
 15   8  28  1   
 16   8  29  1   
 17   8  30  1   
 18  10  12  1   
 19  11  13  ar  
 20  11  31  1   
 21  12  13  ar  
 22  12  14  1   
 23  13  15  ar  
 24  14  16  2   
 25  14  17  1   
 26  15  16  1   
 27  15  18  1   
 28  16  19  1   
 29  17  32  1   
 30  17  33  1   
 31  17  34  1   
 32  18  20  1   
 33  18  35  1   
 34  18  36  1   
 35  19  37  1   
 36  19  38  1   
 37  19  39  1   
 38  20  21  1   
 39  20  40  1   
 40  20  41  1   
 41  21  22  1   
 42  22  23  1   
 43  22  42  1   
 44  22  43  1   
 45  23  24  1   
 46  23  44  1   
 47  23  45  1   
 48  24  46  1   
@<TRIPOS>SUBSTRUCTURE
  1 ****  11 GROUP 4 **** **** 0

# MOE 2024.06 (io_trps.svl 2023.06)
