@<TRIPOS>MOLECULE
2-(4-Chloro-3-methyl-phenoxy)-N-[2-(4-methanesulfonyl-piperazin-1-yl)-phenyl]-ac
53 55 1 0 0 
SMALL
USER_CHARGES


@<TRIPOS>ATOM
  1 CL      -1.5160    -0.7850    -1.1240 Cl    1 <1>  -0.1770 
  2 C       -2.9880     0.1350    -0.9090 C.ar  1 <1>   0.1770 
  3 C       -2.9730     1.5190    -1.0290 C.ar  1 <1>  -0.1440 
  4 C       -4.1530    -0.5510    -0.6190 C.ar  1 <1>  -0.1500 
  5 C       -4.1590     2.2160    -0.8520 C.ar  1 <1>  -0.1500 
  6 C       -1.6830     2.2610    -1.3490 C.3   1 <1>  -0.0960 
  7 C       -5.3280     0.1550    -0.4440 C.ar  1 <1>  -0.1500 
  8 C       -5.3410     1.5360    -0.5590 C.ar  1 <1>   0.0830 
  9 O       -6.5370     2.1460    -0.3730 O.3   1 <1>  -0.3630 
 10 C       -6.6560     3.5650    -0.3860 C.3   1 <1>   0.1810 
 11 C       -8.0920     4.0060    -0.1280 C.2   1 <1>   0.5690 
 12 O       -8.3310     5.1900    -0.1260 O.2   1 <1>  -0.5700 
 13 N       -9.0310     3.0410     0.0820 N.am  1 <1>  -0.5470 
 14 C      -10.4150     3.0340     0.3170 C.ar  1 <1>   0.1170 
 15 C      -11.0300     1.7760     0.3840 C.ar  1 <1>   0.1000 
 16 C      -11.1780     4.1810     0.4830 C.ar  1 <1>  -0.1500 
 17 N      -10.2580     0.6140     0.2110 N.pl3 1 <1>  -0.8380 
 18 C      -12.3970     1.7010     0.6140 C.ar  1 <1>  -0.1500 
 19 C      -12.5400     4.0910     0.7140 C.ar  1 <1>  -0.1500 
 20 C      -10.3940    -0.0800    -1.1030 C.3   1 <1>   0.2090 
 21 C      -10.2110    -0.3530     1.3460 C.3   1 <1>   0.2090 
 22 C      -13.1510     2.8510     0.7790 C.ar  1 <1>  -0.1500 
 23 C       -9.2900    -1.1410    -1.2830 C.3   1 <1>   0.1960 
 24 C       -9.0960    -1.3930     1.1210 C.3   1 <1>   0.1960 
 25 N       -9.2450    -2.1110    -0.1660 N.am  1 <1>  -0.8490 
 26 S       -8.0470    -3.2820    -0.4080 S.o2  1 <1>   1.3330 
 27 O       -6.8480    -2.8390     0.2660 O.2   1 <1>  -0.6500 
 28 O       -8.0090    -3.6000    -1.8160 O.2   1 <1>  -0.6500 
 29 C       -8.7090    -4.6940     0.4500 C.3   1 <1>  -0.1350 
 30 H       -4.1430    -1.6240    -0.5290 H     1 <1>   0.1500 
 31 H       -4.1480     3.2850    -0.9460 H     1 <1>   0.1500 
 32 H       -1.2910     1.9260    -2.2930 H     1 <1>   0.0800 
 33 H       -0.9510     2.0700    -0.5840 H     1 <1>   0.0800 
 34 H       -1.8480     3.3220    -1.4060 H     1 <1>   0.0800 
 35 H       -6.2370    -0.3690    -0.2150 H     1 <1>   0.1500 
 36 H       -6.3470     3.9230    -1.3510 H     1 <1>   0.0800 
 37 H       -6.0200     3.9670     0.3800 H     1 <1>   0.0800 
 38 H       -8.6820     2.0770     0.0380 H     1 <1>   0.3700 
 39 H      -10.7130     5.1490     0.4350 H     1 <1>   0.1500 
 40 H      -12.8730     0.7410     0.6600 H     1 <1>   0.1500 
 41 H      -13.1220     4.9880     0.8410 H     1 <1>   0.1500 
 42 H      -10.3260     0.6450    -1.8960 H     1 <1>   0.0800 
 43 H      -11.3570    -0.5540    -1.1640 H     1 <1>   0.0800 
 44 H      -11.1570    -0.8570     1.4350 H     1 <1>   0.0800 
 45 H      -10.0250     0.1830     2.2610 H     1 <1>   0.0800 
 46 H      -14.2100     2.7820     0.9560 H     1 <1>   0.1500 
 47 H       -8.3390    -0.6430    -1.3730 H     1 <1>   0.0800 
 48 H       -9.4760    -1.6620    -2.2060 H     1 <1>   0.0800 
 49 H       -9.1130    -2.1000     1.9320 H     1 <1>   0.0800 
 50 H       -8.1490    -0.8820     1.1500 H     1 <1>   0.0800 
 51 H       -8.8310    -4.4760     1.4920 H     1 <1>   0.0800 
 52 H       -8.0420    -5.5270     0.3480 H     1 <1>   0.0800 
 53 H       -9.6600    -4.9610     0.0350 H     1 <1>   0.0800 
@<TRIPOS>BOND
  1   1   2  1   
  2   2   3  ar  
  3   2   4  ar  
  4   3   5  ar  
  5   3   6  1   
  6   4   7  ar  
  7   4  30  1   
  8   5   8  ar  
  9   5  31  1   
 10   6  32  1   
 11   6  33  1   
 12   6  34  1   
 13   7   8  ar  
 14   7  35  1   
 15   8   9  1   
 16   9  10  1   
 17  10  11  1   
 18  10  36  1   
 19  10  37  1   
 20  11  12  2   
 21  11  13  am  
 22  13  14  1   
 23  13  38  1   
 24  14  15  ar  
 25  14  16  ar  
 26  15  17  1   
 27  15  18  ar  
 28  16  19  ar  
 29  16  39  1   
 30  17  20  1   
 31  17  21  1   
 32  18  22  ar  
 33  18  40  1   
 34  19  22  ar  
 35  19  41  1   
 36  20  23  1   
 37  20  42  1   
 38  20  43  1   
 39  21  24  1   
 40  21  44  1   
 41  21  45  1   
 42  22  46  1   
 43  23  25  1   
 44  23  47  1   
 45  23  48  1   
 46  24  25  1   
 47  24  49  1   
 48  24  50  1   
 49  25  26  am  
 50  26  27  2   
 51  26  28  2   
 52  26  29  1   
 53  29  51  1   
 54  29  52  1   
 55  29  53  1   
@<TRIPOS>SUBSTRUCTURE
  1 ****   9 GROUP 4 **** **** 0

# MOE 2024.06 (io_trps.svl 2023.06)
