@<TRIPOS>MOLECULE
5-Methyl-7-pyridin-2-yl-4,7-dihydro-tetrazolo[1,5-a]pyrimidine-6-carboxylic acid
35 37 1 0 0 
SMALL
USER_CHARGES


@<TRIPOS>ATOM
  1 O        0.3370    -1.2080     1.5290 O.2   1 <1>  -0.5700 
  2 C       -0.0900    -1.6070     0.4610 C.2   1 <1>   0.7060 
  3 O        0.6520    -1.4770    -0.6420 O.3   1 <1>  -0.4300 
  4 C       -1.3800    -2.2130     0.3180 C.2   1 <1>   0.0140 
  5 C        1.8930    -0.8020    -0.6560 C.3   1 <1>   0.1200 
  6 C       -1.5150    -3.5750     0.4610 C.2   1 <1>  -0.0380 
  7 C       -2.5240    -1.3660    -0.0400 C.2   1 <1>  -0.0310 
  8 C        1.6380     0.6950    -0.8180 C.3   1 <1>  -0.2400 
  9 N       -2.7110    -4.1980     0.1900 N.pl3 1 <1>  -0.5840 
 10 C       -0.4060    -4.5280     0.8880 C.3   1 <1>  -0.1020 
 11 N       -3.6810    -2.1270    -0.4560 N.pl3 1 <1>   0.6010 
 12 C       -2.5540     0.0120     0.0460 C.2   1 <1>   0.1000 
 13 C       -3.7700    -3.4500    -0.3070 C.2   1 <1>   0.2700 
 14 N       -4.8660    -1.7440    -0.9260 N.2   1 <1>  -0.4180 
 15 N       -1.6760     0.7040     0.9230 N.pl3 1 <1>  -0.6000 
 16 C       -3.4360     0.9000    -0.6730 C.2   1 <1>  -0.1500 
 17 N       -4.9180    -3.8840    -0.6690 N.2   1 <1>  -0.3380 
 18 N       -5.5850    -2.8020    -1.0540 N.2   1 <1>   0.0000 
 19 C       -1.7050     2.0750     1.1220 C.2   1 <1>  -0.0500 
 20 C       -3.4610     2.2430    -0.4910 C.2   1 <1>  -0.1500 
 21 C       -2.5760     2.8490     0.4410 C.2   1 <1>  -0.1500 
 22 H        2.4560    -1.1770    -1.4930 H     1 <1>   0.0800 
 23 H        2.4300    -1.0180     0.2530 H     1 <1>   0.0800 
 24 H        1.0690     0.8820    -1.7110 H     1 <1>   0.0800 
 25 H        2.5750     1.2160    -0.8930 H     1 <1>   0.0800 
 26 H        1.1050     1.0810     0.0330 H     1 <1>   0.0800 
 27 H       -2.8500    -5.2110     0.2820 H     1 <1>   0.4000 
 28 H       -0.7230    -5.0920     1.7470 H     1 <1>   0.0800 
 29 H        0.5010    -4.0150     1.1490 H     1 <1>   0.0800 
 30 H       -0.1860    -5.2130     0.0880 H     1 <1>   0.0800 
 31 H       -1.0030     0.1520     1.4820 H     1 <1>   0.4000 
 32 H       -4.0960     0.4860    -1.4080 H     1 <1>   0.1500 
 33 H       -1.0090     2.4830     1.8370 H     1 <1>   0.1500 
 34 H       -4.1320     2.8810    -1.0390 H     1 <1>   0.1500 
 35 H       -2.6240     3.9150     0.5750 H     1 <1>   0.1500 
@<TRIPOS>BOND
  1   1   2  2   
  2   2   3  1   
  3   2   4  1   
  4   3   5  1   
  5   4   6  2   
  6   4   7  1   
  7   5   8  1   
  8   5  22  1   
  9   5  23  1   
 10   6   9  1   
 11   6  10  1   
 12   7  11  1   
 13   7  12  2   
 14   8  24  1   
 15   8  25  1   
 16   8  26  1   
 17   9  13  1   
 18   9  27  1   
 19  10  28  1   
 20  10  29  1   
 21  10  30  1   
 22  11  13  1   
 23  11  14  1   
 24  12  15  1   
 25  12  16  1   
 26  13  17  2   
 27  14  18  2   
 28  15  19  1   
 29  15  31  1   
 30  16  20  2   
 31  16  32  1   
 32  17  18  1   
 33  19  21  2   
 34  19  33  1   
 35  20  21  1   
 36  20  34  1   
 37  21  35  1   
@<TRIPOS>SUBSTRUCTURE
  1 ****   7 GROUP 4 **** **** 0

# MOE 2024.06 (io_trps.svl 2023.06)
