@<TRIPOS>MOLECULE
1-Allyl-4-hydroxy-6,7-dimethoxy-2-oxo-1,2-dihydro-quinoline-3-carboxylic acid cy
44 46 1 0 0 
SMALL
USER_CHARGES


@<TRIPOS>ATOM
  1 O       -0.1910     0.7040    -0.9820 O.2   1 <1>  -0.5700 
  2 C       -1.2910     1.2500    -0.8640 C.2   1 <1>   0.5350 
  3 N       -2.4250     0.4480    -0.9370 N.am  1 <1>  -0.4770 
  4 C       -1.4080     2.6350    -0.6510 C.3   1 <1>  -0.7150 
  5 C       -3.7020     0.9550    -0.6260 C.ar  1 <1>   0.1170 
  6 C       -2.2700    -0.9310    -1.4850 C.3   1 <1>   0.2780 
  7 C       -2.6560     3.1440    -0.2620 C.2   1 <1>   0.3890 
  8 C       -0.3080     3.4940    -0.8360 C.2   1 <1>   0.5350 
  9 C       -3.8320     2.3100    -0.2990 C.ar  1 <1>   0.0860 
 10 C       -4.8470     0.1560    -0.6180 C.ar  1 <1>  -0.1500 
 11 C       -2.3180    -2.0050    -0.3990 C.2   1 <1>  -0.2880 
 12 O       -2.7800     4.2980     0.1630 O.2   1 <1>  -0.5700 
 13 O       -0.3770     4.5380    -1.4800 O.2   1 <1>  -0.5700 
 14 N        0.9010     3.1150    -0.3340 N.am  1 <1>  -0.5790 
 15 C       -5.1040     2.8180    -0.0170 C.ar  1 <1>  -0.1500 
 16 C       -6.0990     0.6590    -0.3260 C.ar  1 <1>   0.0830 
 17 C       -2.3910    -1.8160     0.9240 C.2   1 <1>  -0.3000 
 18 C        2.1850     3.7080    -0.7230 C.3   1 <1>   0.0490 
 19 C       -6.2410     2.0260    -0.0360 C.ar  1 <1>   0.0830 
 20 O       -7.1110    -0.2520    -0.3520 O.3   1 <1>  -0.3630 
 21 C        3.1840     2.8180    -1.3850 C.3   1 <1>  -0.2000 
 22 C        3.4060     3.2800     0.0230 C.3   1 <1>  -0.2000 
 23 O       -7.4830     2.5500     0.2030 O.3   1 <1>  -0.3630 
 24 C       -8.2140    -0.1490     0.5210 C.3   1 <1>   0.0400 
 25 C       -7.6840     3.9450     0.2800 C.3   1 <1>   0.0400 
 26 H       -1.3440    -1.0190    -2.0260 H     1 <1>   0.0800 
 27 H       -3.0530    -1.1060    -2.2000 H     1 <1>   0.0800 
 28 H       -4.7810    -0.8910    -0.8310 H     1 <1>   0.1500 
 29 H       -2.2780    -2.9910    -0.8240 H     1 <1>   0.1500 
 30 H        0.9050     2.0970    -0.2140 H     1 <1>   0.3700 
 31 H       -5.1580     3.8630     0.2170 H     1 <1>   0.1500 
 32 H       -2.4190    -2.6090     1.6490 H     1 <1>   0.1500 
 33 H       -2.4220    -0.8440     1.3910 H     1 <1>   0.1500 
 34 H        2.0970     4.7320    -1.0490 H     1 <1>   0.1000 
 35 H        3.7870     3.2350    -2.1710 H     1 <1>   0.1000 
 36 H        2.8900     1.8010    -1.5780 H     1 <1>   0.1000 
 37 H        3.2820     2.5850     0.8340 H     1 <1>   0.1000 
 38 H        4.1700     4.0120     0.2100 H     1 <1>   0.1000 
 39 H       -7.8700     0.1820     1.4850 H     1 <1>   0.0800 
 40 H       -8.6670    -1.1190     0.6030 H     1 <1>   0.0800 
 41 H       -8.9190     0.5490     0.1070 H     1 <1>   0.0800 
 42 H       -7.1680     4.3250     1.1440 H     1 <1>   0.0800 
 43 H       -8.7390     4.1260     0.3770 H     1 <1>   0.0800 
 44 H       -7.3150     4.4020    -0.6210 H     1 <1>   0.0800 
@<TRIPOS>BOND
  1   1   2  2   
  2   2   3  am  
  3   2   4  1   
  4   3   5  1   
  5   3   6  1   
  6   4   7  1   
  7   4   8  1   
  8   5   9  ar  
  9   5  10  ar  
 10   6  11  1   
 11   6  26  1   
 12   6  27  1   
 13   7   9  1   
 14   7  12  2   
 15   8  13  2   
 16   8  14  am  
 17   9  15  ar  
 18  10  16  ar  
 19  10  28  1   
 20  11  17  2   
 21  11  29  1   
 22  14  18  1   
 23  14  30  1   
 24  15  19  ar  
 25  15  31  1   
 26  16  19  ar  
 27  16  20  1   
 28  17  32  1   
 29  17  33  1   
 30  18  21  1   
 31  18  22  1   
 32  18  34  1   
 33  19  23  1   
 34  20  24  1   
 35  21  22  1   
 36  21  35  1   
 37  21  36  1   
 38  22  37  1   
 39  22  38  1   
 40  23  25  1   
 41  24  39  1   
 42  24  40  1   
 43  24  41  1   
 44  25  42  1   
 45  25  43  1   
 46  25  44  1   
@<TRIPOS>SUBSTRUCTURE
  1 ****   9 GROUP 4 **** **** 0

# MOE 2024.06 (io_trps.svl 2023.06)
