@<TRIPOS>MOLECULE
5-Amino-2-methyl-3-oxo-7-p-tolyl-2,3-dihydro-7H-thiazolo[3,2-a]pyridine-6,8-dica
50 52 1 0 0 
SMALL
USER_CHARGES


@<TRIPOS>ATOM
  1 S        0.0080     0.1930     0.5730 S.3   1 <1>  -0.3310 
  2 C        1.3800     1.2720     0.2420 C.2   1 <1>   0.2100 
  3 C        0.8960    -0.8650     1.7690 C.3   1 <1>   0.2110 
  4 N        2.4990     0.8290     0.9400 N.am  1 <1>  -0.2780 
  5 C        1.3240     2.3460    -0.5780 C.2   1 <1>  -0.1240 
  6 C        2.2760    -0.2200     1.8400 C.2   1 <1>   0.5690 
  7 C        0.8840    -2.2980     1.2250 C.3   1 <1>  -0.2400 
  8 C        3.7390     1.4040     0.6200 C.2   1 <1>   0.2090 
  9 C        0.2030     2.8460    -1.3100 C.2   1 <1>   0.7060 
 10 C        2.5910     3.1720    -0.7480 C.3   1 <1>   0.3400 
 11 O        3.0680    -0.6280     2.6600 O.2   1 <1>  -0.5700 
 12 N        4.8290     0.7810     1.1470 N.pl3 1 <1>  -0.9000 
 13 C        3.8540     2.5040    -0.1940 C.2   1 <1>  -0.1240 
 14 O        0.3190     3.4570    -2.3560 O.2   1 <1>  -0.5700 
 15 O       -1.0270     2.6550    -0.8230 O.3   1 <1>  -0.4300 
 16 C        2.3830     4.5120    -0.0410 C.ar  1 <1>  -0.1440 
 17 C        5.0560     3.1450    -0.6040 C.2   1 <1>   0.7060 
 18 C       -2.1760     3.1500    -1.4810 C.3   1 <1>   0.0400 
 19 C        2.2740     4.5790     1.3410 C.ar  1 <1>  -0.1500 
 20 C        2.2940     5.6840    -0.7780 C.ar  1 <1>  -0.1500 
 21 O        5.1080     3.9490    -1.5240 O.2   1 <1>  -0.5700 
 22 O        6.2100     2.8690     0.0280 O.3   1 <1>  -0.4300 
 23 C        2.0800     5.7940     1.9730 C.ar  1 <1>  -0.1500 
 24 C        2.1000     6.8990    -0.1450 C.ar  1 <1>  -0.1500 
 25 C        7.4170     3.5050    -0.3320 C.3   1 <1>   0.1200 
 26 C        1.9900     6.9610     1.2340 C.ar  1 <1>  -0.1440 
 27 C        8.5210     2.9660     0.5720 C.3   1 <1>  -0.2400 
 28 C        1.7790     8.2960     1.9240 C.3   1 <1>  -0.0970 
 29 H        0.3900    -0.7870     2.7140 H     1 <1>   0.0800 
 30 H        1.3530    -2.3360     0.2580 H     1 <1>   0.0800 
 31 H       -0.1280    -2.6530     1.1400 H     1 <1>   0.0800 
 32 H        1.4220    -2.9450     1.8940 H     1 <1>   0.0800 
 33 H        2.7380     3.3330    -1.8030 H     1 <1>   0.0800 
 34 H        5.7710     1.1910     1.0840 H     1 <1>   0.4000 
 35 H        4.7060     0.0670     1.8840 H     1 <1>   0.4000 
 36 H       -2.1020     4.2210    -1.5510 H     1 <1>   0.0800 
 37 H       -3.0410     2.8740    -0.9050 H     1 <1>   0.0800 
 38 H       -2.2300     2.7140    -2.4640 H     1 <1>   0.0800 
 39 H        2.3400     3.6870     1.9400 H     1 <1>   0.1500 
 40 H        2.3760     5.6580    -1.8520 H     1 <1>   0.1500 
 41 H        2.0000     5.8270     3.0450 H     1 <1>   0.1500 
 42 H        2.0360     7.7970    -0.7340 H     1 <1>   0.1500 
 43 H        7.2940     4.5670    -0.2020 H     1 <1>   0.0800 
 44 H        7.6240     3.2880    -1.3670 H     1 <1>   0.0800 
 45 H        8.2950     3.1800     1.6010 H     1 <1>   0.0800 
 46 H        9.4540     3.4370     0.3220 H     1 <1>   0.0800 
 47 H        8.6270     1.9040     0.4370 H     1 <1>   0.0800 
 48 H        1.2640     8.1610     2.8580 H     1 <1>   0.0800 
 49 H        1.1910     8.9490     1.3040 H     1 <1>   0.0800 
 50 H        2.7300     8.7600     2.1150 H     1 <1>   0.0800 
@<TRIPOS>BOND
  1   1   2  1   
  2   1   3  1   
  3   2   4  1   
  4   2   5  2   
  5   3   6  1   
  6   3   7  1   
  7   3  29  1   
  8   4   6  am  
  9   4   8  1   
 10   5   9  1   
 11   5  10  1   
 12   6  11  2   
 13   7  30  1   
 14   7  31  1   
 15   7  32  1   
 16   8  12  1   
 17   8  13  2   
 18   9  14  2   
 19   9  15  1   
 20  10  13  1   
 21  10  16  1   
 22  10  33  1   
 23  12  34  1   
 24  12  35  1   
 25  13  17  1   
 26  15  18  1   
 27  16  19  ar  
 28  16  20  ar  
 29  17  21  2   
 30  17  22  1   
 31  18  36  1   
 32  18  37  1   
 33  18  38  1   
 34  19  23  ar  
 35  19  39  1   
 36  20  24  ar  
 37  20  40  1   
 38  22  25  1   
 39  23  26  ar  
 40  23  41  1   
 41  24  26  ar  
 42  24  42  1   
 43  25  27  1   
 44  25  43  1   
 45  25  44  1   
 46  26  28  1   
 47  27  45  1   
 48  27  46  1   
 49  27  47  1   
 50  28  48  1   
 51  28  49  1   
 52  28  50  1   
@<TRIPOS>SUBSTRUCTURE
  1 ****  10 GROUP 4 **** **** 0

# MOE 2024.06 (io_trps.svl 2023.06)
