@<TRIPOS>MOLECULE
7-(4-Chloro-benzyl)-8-(4-ethyl-piperazin-1-yl)-3-methyl-3,7-dihydro-purine-2,6-d
53 56 1 0 0 
SMALL
USER_CHARGES


@<TRIPOS>ATOM
  1 CL      -2.0550     2.3890    -1.7620 Cl    1 <1>  -0.1840 
  2 C       -3.0700     1.3170    -0.8350 C.ar  1 <1>   0.1700 
  3 C       -2.7310     1.0250     0.4710 C.ar  1 <1>  -0.1570 
  4 C       -4.1960     0.7730    -1.4200 C.ar  1 <1>  -0.1570 
  5 C       -3.5270     0.1590     1.2010 C.ar  1 <1>  -0.1570 
  6 C       -4.9910    -0.0920    -0.6870 C.ar  1 <1>  -0.1570 
  7 C       -4.6530    -0.4200     0.6230 C.ar  1 <1>  -0.1510 
  8 C       -5.4860    -1.4010     1.4350 C.3   1 <1>   0.4930 
  9 N       -5.8700    -2.5940     0.6220 N.pl3 1 <1>  -0.7670 
 10 C       -5.2030    -3.7310     0.3760 C.cat 1 <1>   1.0690 
 11 C       -7.1960    -2.7840     0.1760 C.2   1 <1>   0.2710 
 12 N       -6.0380    -4.6250    -0.1580 N.pl3 1 <1>  -0.7040 
 13 N       -3.8910    -4.0060     0.6020 N.pl3 1 <1>  -0.5960 
 14 C       -8.3880    -1.9850     0.1290 C.2   1 <1>   0.6990 
 15 C       -7.2620    -4.0470    -0.3000 C.2   1 <1>   0.4210 
 16 C       -3.4160    -5.3540     1.0810 C.3   1 <1>   0.1610 
 17 C       -2.7970    -2.9890     0.4130 C.3   1 <1>   0.1610 
 18 O       -8.4440    -0.8410     0.5320 O.2   1 <1>  -0.5740 
 19 N       -9.5090    -2.5580    -0.3960 N.am  1 <1>  -0.4950 
 20 N       -8.4070    -4.6150    -0.8360 N.am  1 <1>  -0.4410 
 21 C       -2.1590    -5.8630     0.3390 C.3   1 <1>   0.3370 
 22 C       -1.5410    -3.5490    -0.2920 C.3   1 <1>   0.3370 
 23 C       -9.5560    -3.8360    -0.8710 C.2   1 <1>   0.6860 
 24 C       -8.4230    -6.0190    -1.3460 C.3   1 <1>   0.0520 
 25 N       -1.0640    -4.8370     0.3090 N.4   1 <1>  -0.9610 
 26 O      -10.6030    -4.2510    -1.3050 O.2   1 <1>  -0.5740 
 27 C        0.1350    -5.3270    -0.4260 C.3   1 <1>   0.3370 
 28 C        0.8430    -6.3890     0.4060 C.3   1 <1>  -0.2470 
 29 H       -1.8580     1.4800     0.9060 H     1 <1>   0.1430 
 30 H       -4.4470     1.0330    -2.4340 H     1 <1>   0.1430 
 31 H       -3.2570    -0.0480     2.2240 H     1 <1>   0.1430 
 32 H       -5.8740    -0.4950    -1.1510 H     1 <1>   0.1430 
 33 H       -6.3610    -0.8950     1.8060 H     1 <1>   0.0720 
 34 H       -4.9250    -1.7280     2.2940 H     1 <1>   0.0720 
 35 H       -5.8050    -5.5610    -0.4720 H     1 <1>   0.4450 
 36 H       -4.1960    -6.0890     0.9870 H     1 <1>   0.0720 
 37 H       -3.1820    -5.2800     2.1310 H     1 <1>   0.0720 
 38 H       -2.5160    -2.5820     1.3690 H     1 <1>   0.0720 
 39 H       -3.1530    -2.1880    -0.2050 H     1 <1>   0.0720 
 40 H      -10.3680    -2.0130    -0.4360 H     1 <1>   0.3640 
 41 H       -2.4280    -6.1290    -0.6700 H     1 <1>   0.0720 
 42 H       -1.8040    -6.7570     0.8270 H     1 <1>   0.0720 
 43 H       -0.7550    -2.8120    -0.2440 H     1 <1>   0.0720 
 44 H       -1.7720    -3.7050    -1.3330 H     1 <1>   0.0720 
 45 H       -8.3680    -6.7070    -0.5210 H     1 <1>   0.0720 
 46 H       -7.5930    -6.1820    -2.0100 H     1 <1>   0.0720 
 47 H       -9.3300    -6.2180    -1.8920 H     1 <1>   0.0720 
 48 H       -0.7510    -4.6550     1.2740 H     1 <1>   0.4450 
 49 H        0.8180    -4.5090    -0.5950 H     1 <1>   0.0720 
 50 H       -0.1490    -5.7330    -1.3840 H     1 <1>   0.0720 
 51 H        1.1150    -6.0040     1.3730 H     1 <1>   0.0720 
 52 H        1.7490    -6.6770    -0.0980 H     1 <1>   0.0720 
 53 H        0.2430    -7.2730     0.5190 H     1 <1>   0.0720 
@<TRIPOS>BOND
  1   1   2  1   
  2   2   3  ar  
  3   2   4  ar  
  4   3   5  ar  
  5   3  29  1   
  6   4   6  ar  
  7   4  30  1   
  8   5   7  ar  
  9   5  31  1   
 10   6   7  ar  
 11   6  32  1   
 12   7   8  1   
 13   8   9  1   
 14   8  33  1   
 15   8  34  1   
 16   9  10  ar  
 17   9  11  1   
 18  10  12  ar  
 19  10  13  ar  
 20  11  14  1   
 21  11  15  2   
 22  12  15  1   
 23  12  35  1   
 24  13  16  1   
 25  13  17  1   
 26  14  18  2   
 27  14  19  am  
 28  15  20  1   
 29  16  21  1   
 30  16  36  1   
 31  16  37  1   
 32  17  22  1   
 33  17  38  1   
 34  17  39  1   
 35  19  23  am  
 36  19  40  1   
 37  20  23  am  
 38  20  24  1   
 39  21  25  1   
 40  21  41  1   
 41  21  42  1   
 42  22  25  1   
 43  22  43  1   
 44  22  44  1   
 45  23  26  2   
 46  24  45  1   
 47  24  46  1   
 48  24  47  1   
 49  25  27  1   
 50  25  48  1   
 51  27  28  1   
 52  27  49  1   
 53  27  50  1   
 54  28  51  1   
 55  28  52  1   
 56  28  53  1   
@<TRIPOS>SUBSTRUCTURE
  1 ****  10 GROUP 4 **** **** 0

# MOE 2024.06 (io_trps.svl 2023.06)
