@<TRIPOS>MOLECULE
1-(Piperidine-1-sulfonyl)-4-(toluene-4-sulfonyl)-piperazine
50 52 1 0 0 
SMALL
USER_CHARGES


@<TRIPOS>ATOM
  1 S        0.0890     1.1710    -0.0140 S.o2  1 <1>   1.5760 
  2 O        0.1930     1.7760     1.2950 O.2   1 <1>  -0.6500 
  3 O       -0.4390     1.9210    -1.1320 O.2   1 <1>  -0.6500 
  4 N        1.6080     0.6020    -0.4630 N.am  1 <1>  -0.8490 
  5 N       -0.7460    -0.2870     0.1270 N.am  1 <1>  -0.8490 
  6 C        1.6170     0.0170    -1.8100 C.3   1 <1>   0.1960 
  7 C        2.6370     1.6490    -0.3300 C.3   1 <1>   0.1960 
  8 C       -2.1860    -0.0490     0.2240 C.3   1 <1>   0.1960 
  9 C       -0.2640    -1.0700     1.2690 C.3   1 <1>   0.1960 
 10 C        2.9840    -0.6160    -2.1640 C.3   1 <1>   0.1960 
 11 C        3.9190     1.3920    -1.1600 C.3   1 <1>   0.1960 
 12 C       -2.9450    -1.3810     0.2150 C.3   1 <1>  -0.1600 
 13 C       -0.9450    -2.4420     1.2930 C.3   1 <1>  -0.1600 
 14 N        4.1310    -0.0370    -1.4340 N.am  1 <1>  -0.8490 
 15 C       -2.4710    -2.3050     1.3430 C.3   1 <1>  -0.1600 
 16 S        5.6040    -0.3680    -2.1990 S.o2  1 <1>   1.4470 
 17 O        5.5670    -1.7630    -2.5820 O.2   1 <1>  -0.6500 
 18 O        5.7600     0.6430    -3.2230 O.2   1 <1>  -0.6500 
 19 C        6.8150    -0.1220    -0.8710 C.ar  1 <1>  -0.0090 
 20 C        7.9480     0.6600    -1.0620 C.ar  1 <1>  -0.1500 
 21 C        6.6360    -0.7120     0.3740 C.ar  1 <1>  -0.1500 
 22 C        8.8650     0.8550    -0.0430 C.ar  1 <1>  -0.1500 
 23 C        7.5490    -0.5210     1.3970 C.ar  1 <1>  -0.1500 
 24 C        8.6680     0.2670     1.1940 C.ar  1 <1>  -0.1440 
 25 C        9.6720     0.4760     2.3130 C.3   1 <1>  -0.0970 
 26 H        1.3870     0.7800    -2.5350 H     1 <1>   0.0800 
 27 H        0.8550    -0.7410    -1.8900 H     1 <1>   0.0800 
 28 H        2.9050     1.7250     0.7110 H     1 <1>   0.0800 
 29 H        2.2340     2.6040    -0.6250 H     1 <1>   0.0800 
 30 H       -2.5130     0.5420    -0.6170 H     1 <1>   0.0800 
 31 H       -2.4080     0.4970     1.1270 H     1 <1>   0.0800 
 32 H       -0.4640    -0.5450     2.1890 H     1 <1>   0.0800 
 33 H        0.8020    -1.2120     1.1910 H     1 <1>   0.0800 
 34 H        3.1350    -0.5160    -3.2260 H     1 <1>   0.0800 
 35 H        2.9440    -1.6690    -1.9470 H     1 <1>   0.0800 
 36 H        4.7630     1.7960    -0.6270 H     1 <1>   0.0800 
 37 H        3.8400     1.9260    -2.0920 H     1 <1>   0.0800 
 38 H       -2.7890    -1.8590    -0.7370 H     1 <1>   0.0800 
 39 H       -3.9980    -1.1920     0.3190 H     1 <1>   0.0800 
 40 H       -0.6030    -2.9950     2.1490 H     1 <1>   0.0800 
 41 H       -0.6560    -2.9870     0.4110 H     1 <1>   0.0800 
 42 H       -2.9320    -3.2730     1.2460 H     1 <1>   0.0800 
 43 H       -2.7610    -1.8870     2.2920 H     1 <1>   0.0800 
 44 H        8.1150     1.1240    -2.0200 H     1 <1>   0.1500 
 45 H        5.7680    -1.3270     0.5440 H     1 <1>   0.1500 
 46 H        9.7330     1.4660    -0.2200 H     1 <1>   0.1500 
 47 H        7.3830    -0.9920     2.3510 H     1 <1>   0.1500 
 48 H       10.1670     1.4240     2.2040 H     1 <1>   0.0800 
 49 H       10.4100    -0.3060     2.2910 H     1 <1>   0.0800 
 50 H        9.1780     0.4610     3.2680 H     1 <1>   0.0800 
@<TRIPOS>BOND
  1   1   2  2   
  2   1   3  2   
  3   1   4  am  
  4   1   5  am  
  5   4   6  1   
  6   4   7  1   
  7   5   8  1   
  8   5   9  1   
  9   6  10  1   
 10   6  26  1   
 11   6  27  1   
 12   7  11  1   
 13   7  28  1   
 14   7  29  1   
 15   8  12  1   
 16   8  30  1   
 17   8  31  1   
 18   9  13  1   
 19   9  32  1   
 20   9  33  1   
 21  10  14  1   
 22  10  34  1   
 23  10  35  1   
 24  11  14  1   
 25  11  36  1   
 26  11  37  1   
 27  12  15  1   
 28  12  38  1   
 29  12  39  1   
 30  13  15  1   
 31  13  40  1   
 32  13  41  1   
 33  14  16  am  
 34  15  42  1   
 35  15  43  1   
 36  16  17  2   
 37  16  18  2   
 38  16  19  1   
 39  19  20  ar  
 40  19  21  ar  
 41  20  22  ar  
 42  20  44  1   
 43  21  23  ar  
 44  21  45  1   
 45  22  24  ar  
 46  22  46  1   
 47  23  24  ar  
 48  23  47  1   
 49  24  25  1   
 50  25  48  1   
 51  25  49  1   
 52  25  50  1   
@<TRIPOS>SUBSTRUCTURE
  1 ****  14 GROUP 4 **** **** 0

# MOE 2024.06 (io_trps.svl 2023.06)
