@<TRIPOS>MOLECULE
2-Amino-5,5-dimethyl-4,7-dihydro-5H-thieno[2,3-c]pyran-3-carboxylic acid methyl
31 32 1 0 0 
SMALL
USER_CHARGES


@<TRIPOS>ATOM
  1 S        0.0080    -0.0050     0.4690 S.3   1 <1>  -0.0800 
  2 C       -1.4800     0.8040     0.0050 C.2   1 <1>   0.1240 
  3 C        0.8550     1.5240     0.5640 C.2   1 <1>  -0.1400 
  4 N       -2.5590     0.0000    -0.2120 N.pl3 1 <1>  -0.8840 
  5 C       -1.3150     2.1680    -0.0660 C.2   1 <1>  -0.0860 
  6 C        0.0480     2.5420     0.2480 C.2   1 <1>  -0.1810 
  7 C        2.3150     1.5960     0.9550 C.3   1 <1>   0.3000 
  8 C       -2.3540     3.1050    -0.3950 C.2   1 <1>   0.8060 
  9 C        0.6420     3.9440     0.2680 C.3   1 <1>   0.0210 
 10 O        2.6760     2.9400     1.1700 O.3   1 <1>  -0.5600 
 11 O       -2.2040     4.3160    -0.3980 O.2   1 <1>  -0.5700 
 12 O       -3.5710     2.6350    -0.7210 O.3   1 <1>  -0.4300 
 13 C        2.1960     3.9120     0.2740 C.3   1 <1>   0.2800 
 14 C       -4.6410     3.5000    -1.0540 C.3   1 <1>   0.0400 
 15 C        2.7750     3.6320    -1.1220 C.3   1 <1>  -0.2400 
 16 C        2.7510     5.2430     0.7840 C.3   1 <1>  -0.2400 
 17 H       -3.4730     0.3790    -0.4860 H     1 <1>   0.4000 
 18 H       -2.5190    -1.0190    -0.1090 H     1 <1>   0.4000 
 19 H        2.9410     1.1880     0.1810 H     1 <1>   0.0800 
 20 H        2.4880     1.0610     1.8710 H     1 <1>   0.0800 
 21 H        0.2820     4.4550     1.1430 H     1 <1>   0.0800 
 22 H        0.3160     4.5000    -0.5910 H     1 <1>   0.0800 
 23 H       -5.5060     2.9020    -1.2760 H     1 <1>   0.0800 
 24 H       -4.3630     4.0850    -1.9140 H     1 <1>   0.0800 
 25 H       -4.8410     4.1450    -0.2150 H     1 <1>   0.0800 
 26 H        2.3490     2.7430    -1.5490 H     1 <1>   0.0800 
 27 H        3.8430     3.5270    -1.0680 H     1 <1>   0.0800 
 28 H        2.5480     4.4480    -1.7830 H     1 <1>   0.0800 
 29 H        2.4050     5.4300     1.7850 H     1 <1>   0.0800 
 30 H        2.4250     6.0500     0.1530 H     1 <1>   0.0800 
 31 H        3.8250     5.2210     0.7860 H     1 <1>   0.0800 
@<TRIPOS>BOND
  1   1   2  1   
  2   1   3  1   
  3   2   4  1   
  4   2   5  2   
  5   3   6  2   
  6   3   7  1   
  7   4  17  1   
  8   4  18  1   
  9   5   6  1   
 10   5   8  1   
 11   6   9  1   
 12   7  10  1   
 13   7  19  1   
 14   7  20  1   
 15   8  11  2   
 16   8  12  1   
 17   9  13  1   
 18   9  21  1   
 19   9  22  1   
 20  10  13  1   
 21  12  14  1   
 22  13  15  1   
 23  13  16  1   
 24  14  23  1   
 25  14  24  1   
 26  14  25  1   
 27  15  26  1   
 28  15  27  1   
 29  15  28  1   
 30  16  29  1   
 31  16  30  1   
 32  16  31  1   
@<TRIPOS>SUBSTRUCTURE
  1 ****   6 GROUP 4 **** **** 0

# MOE 2024.06 (io_trps.svl 2023.06)
