@<TRIPOS>MOLECULE
1,7-Dimethyl-3-phenethyl-8-(tetrahydro-furan-2-ylmethyl)-1H,8H-imidazo[2,1-f]pur
56 60 1 0 0 
SMALL
USER_CHARGES


@<TRIPOS>ATOM
  1 O        1.6200     0.0580    -0.8730 O.2   1 <1>  -0.5740 
  2 C        2.3820     0.9440    -0.5430 C.2   1 <1>   0.6870 
  3 N        1.9160     2.2470    -0.3920 N.am  1 <1>  -0.4250 
  4 N        3.7210     0.6510    -0.3130 N.am  1 <1>  -0.4410 
  5 C        2.7640     3.2750     0.0010 C.2   1 <1>   0.7000 
  6 C        0.4760     2.5460    -0.6640 C.3   1 <1>   0.1340 
  7 C        4.5610     1.6830     0.0520 C.2   1 <1>   0.4210 
  8 C        4.2360    -0.7420    -0.4690 C.3   1 <1>   0.0530 
  9 O        2.3460     4.4090     0.1630 O.2   1 <1>  -0.5740 
 10 C        4.1380     2.9600     0.2090 C.2   1 <1>   0.2710 
 11 C       -0.3640     2.3580     0.6020 C.3   1 <1>  -0.0240 
 12 N        5.9010     1.6260     0.2930 N.pl3 1 <1>  -0.7030 
 13 N        5.2740     3.7120     0.5520 N.pl3 1 <1>  -0.6330 
 14 C       -1.8180     2.6700     0.3000 C.ar  1 <1>  -0.1500 
 15 C        6.2960     2.8660     0.5780 C.cat 1 <1>   1.0690 
 16 C        5.7830     4.9620     0.8430 C.2   1 <1>   0.2230 
 17 C       -2.3130     3.9530     0.4800 C.ar  1 <1>  -0.1560 
 18 C       -2.6620     1.6740    -0.1650 C.ar  1 <1>  -0.1560 
 19 N        7.4480     3.4850     0.8730 N.pl3 1 <1>  -0.5710 
 20 C        7.1140     4.8230     1.0420 C.2   1 <1>   0.1580 
 21 C       -3.6380     4.2360     0.1980 C.ar  1 <1>  -0.1560 
 22 C       -3.9880     1.9560    -0.4480 C.ar  1 <1>  -0.1560 
 23 C        8.7860     2.8440     1.0750 C.3   1 <1>   0.1610 
 24 C        8.1370     5.8870     1.3930 C.3   1 <1>  -0.1090 
 25 C       -4.4760     3.2380    -0.2660 C.ar  1 <1>  -0.1560 
 26 C        9.2680     2.0220    -0.1370 C.3   1 <1>   0.1940 
 27 O        8.4040     0.9580    -0.4000 O.3   1 <1>  -0.5640 
 28 C       10.6190     1.3560     0.0840 C.3   1 <1>  -0.1660 
 29 C        9.0720    -0.0100    -1.1530 C.3   1 <1>   0.1130 
 30 C       10.5520     0.1300    -0.8120 C.3   1 <1>  -0.1660 
 31 H        0.1050     1.8970    -1.4390 H     1 <1>   0.0730 
 32 H        0.3670     3.5570    -1.0180 H     1 <1>   0.0730 
 33 H        3.4530    -1.4560    -0.2750 H     1 <1>   0.0730 
 34 H        5.0370    -0.9290     0.2230 H     1 <1>   0.0730 
 35 H        4.5900    -0.8860    -1.4750 H     1 <1>   0.0730 
 36 H       -0.0110     3.0150     1.3770 H     1 <1>   0.0730 
 37 H       -0.2820     1.3430     0.9470 H     1 <1>   0.0730 
 38 H        6.6090     0.9090     0.0790 H     1 <1>   0.4450 
 39 H        5.1610     5.8450     0.8860 H     1 <1>   0.1440 
 40 H       -1.6700     4.7370     0.8390 H     1 <1>   0.1440 
 41 H       -2.2930     0.6730    -0.3110 H     1 <1>   0.1440 
 42 H       -4.0160     5.2330     0.3390 H     1 <1>   0.1440 
 43 H       -4.6370     1.1790    -0.8080 H     1 <1>   0.1440 
 44 H        8.7440     2.2040     1.9400 H     1 <1>   0.0730 
 45 H        9.5200     3.6040     1.2750 H     1 <1>   0.0730 
 46 H        8.6010     5.6610     2.3360 H     1 <1>   0.0730 
 47 H        7.6640     6.8510     1.4690 H     1 <1>   0.0730 
 48 H        8.8950     5.9400     0.6320 H     1 <1>   0.0730 
 49 H       -5.5060     3.4580    -0.4850 H     1 <1>   0.1440 
 50 H        9.3110     2.6390    -1.0190 H     1 <1>   0.0730 
 51 H       10.7240     1.0510     1.1110 H     1 <1>   0.0730 
 52 H       11.4350     2.0070    -0.1760 H     1 <1>   0.0730 
 53 H        8.8960     0.1900    -2.1960 H     1 <1>   0.0730 
 54 H        8.6890    -0.9820    -0.8930 H     1 <1>   0.0730 
 55 H       10.9200    -0.7470    -0.3080 H     1 <1>   0.0730 
 56 H       11.1220     0.2740    -1.7140 H     1 <1>   0.0730 
@<TRIPOS>BOND
  1   1   2  2   
  2   2   3  am  
  3   2   4  am  
  4   3   5  am  
  5   3   6  1   
  6   4   7  1   
  7   4   8  1   
  8   5   9  2   
  9   5  10  1   
 10   6  11  1   
 11   6  31  1   
 12   6  32  1   
 13   7  10  2   
 14   7  12  1   
 15   8  33  1   
 16   8  34  1   
 17   8  35  1   
 18  10  13  1   
 19  11  14  1   
 20  11  36  1   
 21  11  37  1   
 22  12  15  ar  
 23  12  38  1   
 24  13  15  ar  
 25  13  16  1   
 26  14  17  ar  
 27  14  18  ar  
 28  15  19  ar  
 29  16  20  2   
 30  16  39  1   
 31  17  21  ar  
 32  17  40  1   
 33  18  22  ar  
 34  18  41  1   
 35  19  20  1   
 36  19  23  1   
 37  20  24  1   
 38  21  25  ar  
 39  21  42  1   
 40  22  25  ar  
 41  22  43  1   
 42  23  26  1   
 43  23  44  1   
 44  23  45  1   
 45  24  46  1   
 46  24  47  1   
 47  24  48  1   
 48  25  49  1   
 49  26  27  1   
 50  26  28  1   
 51  26  50  1   
 52  27  29  1   
 53  28  30  1   
 54  28  51  1   
 55  28  52  1   
 56  29  30  1   
 57  29  53  1   
 58  29  54  1   
 59  30  55  1   
 60  30  56  1   
@<TRIPOS>SUBSTRUCTURE
  1 ****  10 GROUP 4 **** **** 0

# MOE 2024.06 (io_trps.svl 2023.06)
