@<TRIPOS>MOLECULE
5-Chloro-N-[2-(4-isobutyryl-piperazin-1-yl)-phenyl]-2-methoxy-benzamide
55 57 1 0 0 
SMALL
USER_CHARGES


@<TRIPOS>ATOM
  1 CL      -2.3340     3.4940     1.1080 Cl    1 <1>  -0.1770 
  2 C       -0.7630     3.2800     0.3770 C.ar  1 <1>   0.1770 
  3 C        0.3010     4.0340     0.8180 C.ar  1 <1>  -0.1500 
  4 C       -0.6140     2.3550    -0.6340 C.ar  1 <1>  -0.1500 
  5 C        1.5780     3.8930     0.2630 C.ar  1 <1>   0.0860 
  6 C        0.6320     2.1900    -1.2060 C.ar  1 <1>  -0.1500 
  7 C        1.7240     2.9460    -0.7720 C.ar  1 <1>   0.0830 
  8 C        2.6540     4.7240     0.7880 C.2   1 <1>   0.5440 
  9 O        2.9430     2.7790    -1.3450 O.3   1 <1>  -0.3630 
 10 O        2.3800     5.7280     1.4190 O.2   1 <1>  -0.5700 
 11 N        3.9720     4.3770     0.6280 N.am  1 <1>  -0.5470 
 12 C        3.1140     2.1180    -2.5860 C.3   1 <1>   0.0400 
 13 C        5.1700     4.8260     1.2240 C.ar  1 <1>   0.1170 
 14 C        6.2600     3.9380     1.3250 C.ar  1 <1>   0.1000 
 15 C        5.3170     6.1240     1.6980 C.ar  1 <1>  -0.1500 
 16 N        6.2260     2.6110     0.8650 N.pl3 1 <1>  -0.8380 
 17 C        7.4400     4.3800     1.9030 C.ar  1 <1>  -0.1500 
 18 C        6.5030     6.5470     2.2730 C.ar  1 <1>  -0.1500 
 19 C        6.3960     2.4070    -0.6070 C.3   1 <1>   0.2090 
 20 C        5.2800     1.6650     1.5350 C.3   1 <1>   0.2090 
 21 C        7.5680     5.6730     2.3770 C.ar  1 <1>  -0.1500 
 22 C        6.6580     0.9310    -0.9510 C.3   1 <1>   0.1400 
 23 C        5.5850     0.2040     1.1630 C.3   1 <1>   0.1400 
 24 N        5.6320     0.0370    -0.3250 N.am  1 <1>  -0.6600 
 25 C        4.7630    -0.7010    -1.0920 C.2   1 <1>   0.5690 
 26 O        4.7550    -0.5900    -2.2980 O.2   1 <1>  -0.5700 
 27 C        3.7550    -1.6690    -0.4470 C.3   1 <1>  -0.0190 
 28 C        3.4180    -2.8700    -1.3500 C.3   1 <1>  -0.2400 
 29 C        2.4540    -0.9460    -0.0570 C.3   1 <1>  -0.2400 
 30 H        0.1340     4.7450     1.6090 H     1 <1>   0.1500 
 31 H       -1.4600     1.7780    -0.9620 H     1 <1>   0.1500 
 32 H        0.7280     1.4630    -1.9900 H     1 <1>   0.1500 
 33 H        4.1130     3.5350     0.0640 H     1 <1>   0.3700 
 34 H        4.1480     2.1880    -2.8710 H     1 <1>   0.0800 
 35 H        2.4990     2.5970    -3.3270 H     1 <1>   0.0800 
 36 H        2.8470     1.0830    -2.4780 H     1 <1>   0.0800 
 37 H        4.5040     6.8210     1.6170 H     1 <1>   0.1500 
 38 H        8.2640     3.6950     1.9800 H     1 <1>   0.1500 
 39 H        6.5920     7.5560     2.6370 H     1 <1>   0.1500 
 40 H        7.2230     3.0030    -0.9510 H     1 <1>   0.0800 
 41 H        5.5160     2.7410    -1.1220 H     1 <1>   0.0800 
 42 H        4.2700     1.8870     1.2470 H     1 <1>   0.0800 
 43 H        5.3570     1.7880     2.6010 H     1 <1>   0.0800 
 44 H        8.4920     5.9960     2.8240 H     1 <1>   0.1500 
 45 H        7.6310     0.6560    -0.5850 H     1 <1>   0.0800 
 46 H        6.6690     0.8130    -2.0200 H     1 <1>   0.0800 
 47 H        4.8400    -0.4260     1.6090 H     1 <1>   0.0800 
 48 H        6.5390    -0.0690     1.5780 H     1 <1>   0.0800 
 49 H        4.2040    -2.0780     0.4390 H     1 <1>   0.0800 
 50 H        2.9340    -2.5400    -2.2530 H     1 <1>   0.0800 
 51 H        2.7680    -3.5580    -0.8400 H     1 <1>   0.0800 
 52 H        4.3210    -3.3890    -1.6220 H     1 <1>   0.0800 
 53 H        1.9510    -0.5920    -0.9390 H     1 <1>   0.0800 
 54 H        2.6620    -0.1010     0.5740 H     1 <1>   0.0800 
 55 H        1.7950    -1.6140     0.4690 H     1 <1>   0.0800 
@<TRIPOS>BOND
  1   1   2  1   
  2   2   3  ar  
  3   2   4  ar  
  4   3   5  ar  
  5   3  30  1   
  6   4   6  ar  
  7   4  31  1   
  8   5   7  ar  
  9   5   8  1   
 10   6   7  ar  
 11   6  32  1   
 12   7   9  1   
 13   8  10  2   
 14   8  11  am  
 15   9  12  1   
 16  11  13  1   
 17  11  33  1   
 18  12  34  1   
 19  12  35  1   
 20  12  36  1   
 21  13  14  ar  
 22  13  15  ar  
 23  14  16  1   
 24  14  17  ar  
 25  15  18  ar  
 26  15  37  1   
 27  16  19  1   
 28  16  20  1   
 29  17  21  ar  
 30  17  38  1   
 31  18  21  ar  
 32  18  39  1   
 33  19  22  1   
 34  19  40  1   
 35  19  41  1   
 36  20  23  1   
 37  20  42  1   
 38  20  43  1   
 39  21  44  1   
 40  22  24  1   
 41  22  45  1   
 42  22  46  1   
 43  23  24  1   
 44  23  47  1   
 45  23  48  1   
 46  24  25  am  
 47  25  26  2   
 48  25  27  1   
 49  27  28  1   
 50  27  29  1   
 51  27  49  1   
 52  28  50  1   
 53  28  51  1   
 54  28  52  1   
 55  29  53  1   
 56  29  54  1   
 57  29  55  1   
@<TRIPOS>SUBSTRUCTURE
  1 ****   9 GROUP 4 **** **** 0

# MOE 2024.06 (io_trps.svl 2023.06)
