@<TRIPOS>MOLECULE
N-(3-m-Tolyl-[1,2,4]oxadiazol-5-ylmethyl)-isobutyramide
36 37 1 0 0 
SMALL
USER_CHARGES


@<TRIPOS>ATOM
  1 O       -1.5160    -0.4640     1.4330 O.2   1 <1>  -0.5700 
  2 C       -2.3420    -0.8960     0.6700 C.2   1 <1>   0.5690 
  3 N       -1.9400    -1.7780    -0.2750 N.am  1 <1>  -0.7300 
  4 C       -3.8050    -0.4440     0.8050 C.3   1 <1>  -0.0190 
  5 C       -2.7530    -2.5190    -1.2750 C.3   1 <1>   0.3200 
  6 C       -3.9240     1.0860     0.9040 C.3   1 <1>  -0.2400 
  7 C       -4.4740    -1.0980     2.0250 C.3   1 <1>  -0.2400 
  8 C       -3.7070    -3.5140    -0.6280 C.2   1 <1>   0.2980 
  9 O       -3.2070    -4.4930     0.0780 O.3   1 <1>  -0.0190 
 10 N       -4.9740    -3.4880    -0.7040 N.2   1 <1>  -0.5650 
 11 N       -4.2470    -5.1450     0.4920 N.2   1 <1>  -0.4100 
 12 C       -5.2960    -4.5540     0.0370 C.2   1 <1>   0.4620 
 13 C       -6.6710    -4.9600     0.2790 C.ar  1 <1>   0.0540 
 14 C       -7.7520    -4.2450    -0.2420 C.ar  1 <1>  -0.1500 
 15 C       -6.9660    -6.0860     1.0490 C.ar  1 <1>  -0.1500 
 16 C       -9.0630    -4.6280    -0.0120 C.ar  1 <1>  -0.1440 
 17 C       -8.2700    -6.4790     1.2860 C.ar  1 <1>  -0.1500 
 18 C       -9.3190    -5.7500     0.7560 C.ar  1 <1>  -0.1500 
 19 C      -10.2200    -3.8340    -0.5900 C.3   1 <1>  -0.0970 
 20 H       -0.9550    -2.0420    -0.2130 H     1 <1>   0.3700 
 21 H       -4.3510    -0.7450    -0.0690 H     1 <1>   0.0800 
 22 H       -2.0960    -3.0520    -1.9390 H     1 <1>   0.0800 
 23 H       -3.3200    -1.8180    -1.8620 H     1 <1>   0.0800 
 24 H       -3.4210     1.4440     1.7860 H     1 <1>   0.0800 
 25 H       -4.9570     1.3830     0.9510 H     1 <1>   0.0800 
 26 H       -3.4720     1.5480     0.0450 H     1 <1>   0.0800 
 27 H       -3.9760    -0.7940     2.9290 H     1 <1>   0.0800 
 28 H       -4.4170    -2.1700     1.9520 H     1 <1>   0.0800 
 29 H       -5.5090    -0.8150     2.0860 H     1 <1>   0.0800 
 30 H       -7.5570    -3.3720    -0.8380 H     1 <1>   0.1500 
 31 H       -6.1620    -6.6650     1.4700 H     1 <1>   0.1500 
 32 H       -8.4710    -7.3520     1.8830 H     1 <1>   0.1500 
 33 H      -10.3330    -6.0600     0.9430 H     1 <1>   0.1500 
 34 H       -9.8650    -3.0340    -1.2150 H     1 <1>   0.0800 
 35 H      -10.8080    -3.4130     0.2060 H     1 <1>   0.0800 
 36 H      -10.8460    -4.4770    -1.1820 H     1 <1>   0.0800 
@<TRIPOS>BOND
  1   1   2  2   
  2   2   3  am  
  3   2   4  1   
  4   3   5  1   
  5   3  20  1   
  6   4   6  1   
  7   4   7  1   
  8   4  21  1   
  9   5   8  1   
 10   5  22  1   
 11   5  23  1   
 12   6  24  1   
 13   6  25  1   
 14   6  26  1   
 15   7  27  1   
 16   7  28  1   
 17   7  29  1   
 18   8   9  1   
 19   8  10  2   
 20   9  11  1   
 21  10  12  1   
 22  11  12  2   
 23  12  13  1   
 24  13  14  ar  
 25  13  15  ar  
 26  14  16  ar  
 27  14  30  1   
 28  15  17  ar  
 29  15  31  1   
 30  16  18  ar  
 31  16  19  1   
 32  17  18  ar  
 33  17  32  1   
 34  18  33  1   
 35  19  34  1   
 36  19  35  1   
 37  19  36  1   
@<TRIPOS>SUBSTRUCTURE
  1 ****  10 GROUP 4 **** **** 0

# MOE 2024.06 (io_trps.svl 2023.06)
