@<TRIPOS>MOLECULE
3-Oxo-3H-benzo[f]chromene-2-carboxylic acid cyclohexylamide
43 46 1 0 0 
SMALL
USER_CHARGES


@<TRIPOS>ATOM
  1 O       -0.4150     1.0010     1.4640 O.2   1 <1>  -0.5700 
  2 C       -1.4190     1.5310     1.0230 C.2   1 <1>   0.7060 
  3 O       -2.5780     0.9580     1.3570 O.3   1 <1>  -0.2330 
  4 C       -1.4460     2.7020     0.1870 C.2   1 <1>   0.0290 
  5 C       -3.7770     1.4100     0.9580 C.ar  1 <1>   0.0820 
  6 C       -0.2130     3.3540    -0.1980 C.2   1 <1>   0.6160 
  7 C       -2.6650     3.1680    -0.2220 C.2   1 <1>  -0.1780 
  8 C       -3.8850     2.5340     0.1510 C.ar  1 <1>   0.0280 
  9 C       -4.9050     0.7070     1.3860 C.ar  1 <1>  -0.1500 
 10 O       -0.2550     4.3430    -0.9050 O.2   1 <1>  -0.5700 
 11 N        1.0160     2.9120     0.1950 N.am  1 <1>  -0.7300 
 12 C       -5.1850     2.9790    -0.2490 C.ar  1 <1>   0.0000 
 13 C       -6.1480     1.1220     1.0110 C.ar  1 <1>  -0.1500 
 14 C        2.3210     3.5030    -0.1430 C.3   1 <1>   0.2200 
 15 C       -6.3200     2.2570     0.1920 C.ar  1 <1>   0.0000 
 16 C       -5.4160     4.1070    -1.0670 C.ar  1 <1>  -0.1500 
 17 C        3.1500     2.4640    -0.9040 C.3   1 <1>  -0.1600 
 18 C        3.0180     3.9290     1.1530 C.3   1 <1>  -0.1600 
 19 C       -7.6070     2.6810    -0.1920 C.ar  1 <1>  -0.1500 
 20 C       -6.6780     4.4990    -1.4270 C.ar  1 <1>  -0.1500 
 21 C        4.5670     2.9830    -1.1870 C.3   1 <1>  -0.1600 
 22 C        4.4350     4.4520     0.8750 C.3   1 <1>  -0.1600 
 23 C       -7.7870     3.7790    -0.9850 C.ar  1 <1>  -0.1500 
 24 C        5.2680     3.4150     0.1080 C.3   1 <1>  -0.1600 
 25 H       -2.7080     4.0400    -0.8470 H     1 <1>   0.1500 
 26 H       -4.7710    -0.1590     2.0110 H     1 <1>   0.1500 
 27 H        1.0560     2.0760     0.7930 H     1 <1>   0.3700 
 28 H       -7.0220     0.5860     1.3370 H     1 <1>   0.1500 
 29 H        2.1810     4.3690    -0.7690 H     1 <1>   0.0800 
 30 H       -4.5910     4.6880    -1.4280 H     1 <1>   0.1500 
 31 H        2.6630     2.2350    -1.8360 H     1 <1>   0.0800 
 32 H        3.2170     1.5610    -0.3230 H     1 <1>   0.0800 
 33 H        3.0800     3.0880     1.8220 H     1 <1>   0.0800 
 34 H        2.4410     4.7020     1.6280 H     1 <1>   0.0800 
 35 H       -8.4580     2.1210     0.1520 H     1 <1>   0.1500 
 36 H       -6.8290     5.3630    -2.0520 H     1 <1>   0.1500 
 37 H        4.5110     3.8230    -1.8580 H     1 <1>   0.0800 
 38 H        5.1440     2.2130    -1.6710 H     1 <1>   0.0800 
 39 H        4.9210     4.6890     1.8060 H     1 <1>   0.0800 
 40 H        4.3730     5.3570     0.2950 H     1 <1>   0.0800 
 41 H       -8.7740     4.0980    -1.2760 H     1 <1>   0.1500 
 42 H        6.2330     3.8300    -0.1250 H     1 <1>   0.0800 
 43 H        5.4240     2.5520     0.7330 H     1 <1>   0.0800 
@<TRIPOS>BOND
  1   1   2  2   
  2   2   3  1   
  3   2   4  1   
  4   3   5  1   
  5   4   6  1   
  6   4   7  2   
  7   5   8  ar  
  8   5   9  ar  
  9   6  10  2   
 10   6  11  am  
 11   7   8  1   
 12   7  25  1   
 13   8  12  ar  
 14   9  13  ar  
 15   9  26  1   
 16  11  14  1   
 17  11  27  1   
 18  12  15  ar  
 19  12  16  ar  
 20  13  15  ar  
 21  13  28  1   
 22  14  17  1   
 23  14  18  1   
 24  14  29  1   
 25  15  19  ar  
 26  16  20  ar  
 27  16  30  1   
 28  17  21  1   
 29  17  31  1   
 30  17  32  1   
 31  18  22  1   
 32  18  33  1   
 33  18  34  1   
 34  19  23  ar  
 35  19  35  1   
 36  20  23  ar  
 37  20  36  1   
 38  21  24  1   
 39  21  37  1   
 40  21  38  1   
 41  22  24  1   
 42  22  39  1   
 43  22  40  1   
 44  23  41  1   
 45  24  42  1   
 46  24  43  1   
@<TRIPOS>SUBSTRUCTURE
  1 ****   4 GROUP 4 **** **** 0

# MOE 2024.06 (io_trps.svl 2023.06)
