@<TRIPOS>MOLECULE
2-(3-Allyl-4-oxo-3,5,6,7-tetrahydro-4H-cyclopenta[4,5]thieno[2,3-d]pyrimidin-2-y
49 52 1 0 0 
SMALL
USER_CHARGES


@<TRIPOS>ATOM
  1 S       -0.4360     0.5820     2.0240 S.3   1 <1>  -0.0800 
  2 C        1.0340     0.7630     1.0660 C.2   1 <1>   0.1660 
  3 C       -1.1680     1.9140     1.1490 C.2   1 <1>  -0.1400 
  4 N        2.1120    -0.0330     1.2420 N.2   1 <1>  -0.5760 
  5 C        0.9240     1.7760     0.1610 C.2   1 <1>  -0.0860 
  6 C       -0.3550     2.4190     0.2340 C.2   1 <1>  -0.1810 
  7 C       -2.5160     2.5490     1.2680 C.3   1 <1>   0.0200 
  8 C        3.1050     0.2310     0.4610 C.2   1 <1>   0.6510 
  9 C        2.0460     2.0230    -0.6750 C.2   1 <1>   0.7160 
 10 C       -1.0110     3.5580    -0.4970 C.3   1 <1>   0.0210 
 11 C       -2.4150     3.6440     0.1720 C.3   1 <1>  -0.1600 
 12 S        4.5410    -0.8130     0.6470 S.3   1 <1>  -0.3710 
 13 N        3.1520     1.2170    -0.5030 N.am  1 <1>  -0.4200 
 14 O        2.0420     2.9090    -1.5210 O.2   1 <1>  -0.5700 
 15 C        4.1420    -1.8950     2.1090 C.3   1 <1>   0.1310 
 16 C        4.3680     1.4900    -1.3110 C.3   1 <1>   0.2780 
 17 C        5.1610    -3.0170     2.2410 C.2   1 <1>   0.5690 
 18 C        5.2580     2.4610    -0.5570 C.2   1 <1>  -0.2880 
 19 O        5.9310    -2.9990     3.1680 O.2   1 <1>  -0.5700 
 20 N        5.2120    -4.0400     1.3530 N.am  1 <1>  -0.7300 
 21 C        6.4740     2.1840    -0.0750 C.2   1 <1>  -0.3000 
 22 C        4.4090    -4.2580     0.1370 C.3   1 <1>   0.2200 
 23 C        3.9620    -5.7140     0.1000 C.3   1 <1>  -0.1600 
 24 C        5.3200    -4.1380    -1.0780 C.3   1 <1>  -0.1600 
 25 C        5.1520    -6.5040    -0.4550 C.3   1 <1>  -0.1600 
 26 C        6.0310    -5.4900    -1.1990 C.3   1 <1>  -0.1600 
 27 H       -2.6520     2.9740     2.2470 H     1 <1>   0.0800 
 28 H       -3.2930     1.8370     1.0530 H     1 <1>   0.0800 
 29 H       -1.0880     3.3370    -1.5470 H     1 <1>   0.0800 
 30 H       -0.4520     4.4670    -0.3560 H     1 <1>   0.0800 
 31 H       -2.5510     4.6160     0.6120 H     1 <1>   0.0800 
 32 H       -3.1810     3.4920    -0.5680 H     1 <1>   0.0800 
 33 H        3.1580    -2.3000     1.9670 H     1 <1>   0.0800 
 34 H        4.1550    -1.2680     2.9810 H     1 <1>   0.0800 
 35 H        4.0970     1.9170    -2.2620 H     1 <1>   0.0800 
 36 H        4.8980     0.5790    -1.5220 H     1 <1>   0.0800 
 37 H        4.7980     3.4300    -0.4430 H     1 <1>   0.1500 
 38 H        5.9490    -4.7290     1.5060 H     1 <1>   0.3700 
 39 H        7.0840     2.8940     0.4570 H     1 <1>   0.1500 
 40 H        6.9620     1.2280    -0.1650 H     1 <1>   0.1500 
 41 H        3.5760    -3.5780     0.0890 H     1 <1>   0.0800 
 42 H        3.1380    -5.7990    -0.5860 H     1 <1>   0.0800 
 43 H        3.6430    -6.0680     1.0650 H     1 <1>   0.0800 
 44 H        6.0060    -3.3140    -0.9930 H     1 <1>   0.0800 
 45 H        4.7070    -3.9880    -1.9500 H     1 <1>   0.0800 
 46 H        4.8170    -7.2900    -1.1120 H     1 <1>   0.0800 
 47 H        5.7110    -6.9440     0.3530 H     1 <1>   0.0800 
 48 H        6.9980    -5.4360    -0.7270 H     1 <1>   0.0800 
 49 H        6.1660    -5.7650    -2.2310 H     1 <1>   0.0800 
@<TRIPOS>BOND
  1   1   2  1   
  2   1   3  1   
  3   2   4  1   
  4   2   5  2   
  5   3   6  2   
  6   3   7  1   
  7   4   8  2   
  8   5   6  1   
  9   5   9  1   
 10   6  10  1   
 11   7  11  1   
 12   7  27  1   
 13   7  28  1   
 14   8  12  1   
 15   8  13  1   
 16   9  13  am  
 17   9  14  2   
 18  10  11  1   
 19  10  29  1   
 20  10  30  1   
 21  11  31  1   
 22  11  32  1   
 23  12  15  1   
 24  13  16  1   
 25  15  17  1   
 26  15  33  1   
 27  15  34  1   
 28  16  18  1   
 29  16  35  1   
 30  16  36  1   
 31  17  19  2   
 32  17  20  am  
 33  18  21  2   
 34  18  37  1   
 35  20  22  1   
 36  20  38  1   
 37  21  39  1   
 38  21  40  1   
 39  22  23  1   
 40  22  24  1   
 41  22  41  1   
 42  23  25  1   
 43  23  42  1   
 44  23  43  1   
 45  24  26  1   
 46  24  44  1   
 47  24  45  1   
 48  25  26  1   
 49  25  46  1   
 50  25  47  1   
 51  26  48  1   
 52  26  49  1   
@<TRIPOS>SUBSTRUCTURE
  1 ****   8 GROUP 4 **** **** 0

# MOE 2024.06 (io_trps.svl 2023.06)
