@<TRIPOS>MOLECULE
1-(3,4-Dihydro-1H-isoquinolin-2-yl)-2-(2,3-dimethyl-phenoxy)-ethanone
43 45 1 0 0 
SMALL
USER_CHARGES


@<TRIPOS>ATOM
  1 O        0.0780     0.2060    -1.3370 O.2   1 <1>  -0.5700 
  2 C        0.0600     1.2740    -0.7670 C.2   1 <1>   0.5690 
  3 N        1.1510     1.7250    -0.0650 N.am  1 <1>  -0.6600 
  4 C       -1.2160     2.1020    -0.8900 C.3   1 <1>   0.1810 
  5 C        2.4020     0.9140    -0.0210 C.3   1 <1>   0.2840 
  6 C        1.1880     2.9540     0.7720 C.3   1 <1>   0.1400 
  7 O       -1.8580     2.2570     0.3650 O.3   1 <1>  -0.3630 
  8 C        3.6670     1.7720     0.0310 C.ar  1 <1>  -0.1440 
  9 C        2.2900     3.8820     0.2640 C.3   1 <1>  -0.0160 
 10 C       -3.0890     2.8030     0.3180 C.ar  1 <1>   0.0820 
 11 C        3.6230     3.1560     0.1700 C.ar  1 <1>  -0.1430 
 12 C        4.8980     1.1390    -0.0590 C.ar  1 <1>  -0.1500 
 13 C       -4.2240     2.0000     0.2070 C.ar  1 <1>  -0.1440 
 14 C       -3.1950     4.1820     0.3850 C.ar  1 <1>  -0.1500 
 15 C        4.8020     3.8840     0.2170 C.ar  1 <1>  -0.1500 
 16 C        6.0720     1.8690    -0.0110 C.ar  1 <1>  -0.1500 
 17 C       -5.4740     2.6110     0.1330 C.ar  1 <1>  -0.1430 
 18 C       -4.0950     0.4770     0.1650 C.3   1 <1>  -0.0970 
 19 C       -4.4380     4.7790     0.3200 C.ar  1 <1>  -0.1500 
 20 C        6.0250     3.2430     0.1270 C.ar  1 <1>  -0.1500 
 21 C       -5.5690     3.9940     0.1910 C.ar  1 <1>  -0.1500 
 22 C       -6.7550     1.8000    -0.0100 C.3   1 <1>  -0.0970 
 23 H       -1.8980     1.6070    -1.5580 H     1 <1>   0.0800 
 24 H       -0.9860     3.0760    -1.2780 H     1 <1>   0.0800 
 25 H        2.4550     0.2790    -0.8880 H     1 <1>   0.0800 
 26 H        2.3700     0.2830     0.8500 H     1 <1>   0.0800 
 27 H        1.3960     2.6740     1.7910 H     1 <1>   0.0800 
 28 H        0.2480     3.4740     0.7570 H     1 <1>   0.0800 
 29 H        2.3760     4.7200     0.9310 H     1 <1>   0.0800 
 30 H        2.0220     4.2540    -0.7080 H     1 <1>   0.0800 
 31 H        4.9480     0.0700    -0.1680 H     1 <1>   0.1500 
 32 H       -2.3090     4.7800     0.4880 H     1 <1>   0.1500 
 33 H        4.7750     4.9540     0.3210 H     1 <1>   0.1500 
 34 H        7.0220     1.3670    -0.0820 H     1 <1>   0.1500 
 35 H       -3.1350     0.1500     0.5200 H     1 <1>   0.0800 
 36 H       -4.2210     0.1290    -0.8430 H     1 <1>   0.0800 
 37 H       -4.8380     0.0180     0.7910 H     1 <1>   0.0800 
 38 H       -4.5280     5.8500     0.3700 H     1 <1>   0.1500 
 39 H        6.9360     3.8130     0.1640 H     1 <1>   0.1500 
 40 H       -6.5320     4.4720     0.1390 H     1 <1>   0.1500 
 41 H       -6.6660     1.1050    -0.8250 H     1 <1>   0.0800 
 42 H       -7.5960     2.4390    -0.2080 H     1 <1>   0.0800 
 43 H       -6.9480     1.2580     0.8970 H     1 <1>   0.0800 
@<TRIPOS>BOND
  1   1   2  2   
  2   2   3  am  
  3   2   4  1   
  4   3   5  1   
  5   3   6  1   
  6   4   7  1   
  7   4  23  1   
  8   4  24  1   
  9   5   8  1   
 10   5  25  1   
 11   5  26  1   
 12   6   9  1   
 13   6  27  1   
 14   6  28  1   
 15   7  10  1   
 16   8  11  ar  
 17   8  12  ar  
 18   9  11  1   
 19   9  29  1   
 20   9  30  1   
 21  10  13  ar  
 22  10  14  ar  
 23  11  15  ar  
 24  12  16  ar  
 25  12  31  1   
 26  13  17  ar  
 27  13  18  1   
 28  14  19  ar  
 29  14  32  1   
 30  15  20  ar  
 31  15  33  1   
 32  16  20  ar  
 33  16  34  1   
 34  17  21  ar  
 35  17  22  1   
 36  18  35  1   
 37  18  36  1   
 38  18  37  1   
 39  19  21  ar  
 40  19  38  1   
 41  20  39  1   
 42  21  40  1   
 43  22  41  1   
 44  22  42  1   
 45  22  43  1   
@<TRIPOS>SUBSTRUCTURE
  1 ****   2 GROUP 4 **** **** 0

# MOE 2024.06 (io_trps.svl 2023.06)
