@<TRIPOS>MOLECULE
N-(3-Chloro-2-morpholin-4-yl-phenyl)-3,4,5-trimethoxy-benzamide
51 53 1 0 0 
SMALL
USER_CHARGES


@<TRIPOS>ATOM
  1 CL       0.4050    -0.8840     1.2320 Cl    1 <1>  -0.1770 
  2 C        1.3400    -1.7490     0.0240 C.ar  1 <1>   0.1770 
  3 C        2.7350    -1.7770     0.0870 C.ar  1 <1>   0.1000 
  4 C        0.6390    -2.3970    -0.9780 C.ar  1 <1>  -0.1500 
  5 N        3.5010    -1.1340     1.0920 N.pl3 1 <1>  -0.8380 
  6 C        3.4180    -2.4930    -0.9070 C.ar  1 <1>   0.1170 
  7 C        1.3300    -3.0970    -1.9510 C.ar  1 <1>  -0.1500 
  8 C        3.4610    -1.7270     2.4680 C.3   1 <1>   0.2090 
  9 C        3.5350     0.3580     1.0820 C.3   1 <1>   0.2090 
 10 N        4.8150    -2.4890    -0.7990 N.am  1 <1>  -0.5470 
 11 C        2.7130    -3.1430    -1.9130 C.ar  1 <1>  -0.1500 
 12 C        3.9040    -0.7230     3.5530 C.3   1 <1>   0.1200 
 13 C        4.6530     0.9040     2.0030 C.3   1 <1>   0.1200 
 14 C        5.8490    -3.1730    -1.3810 C.2   1 <1>   0.5440 
 15 O        4.9680     0.0610     3.0880 O.3   1 <1>  -0.5600 
 16 O        5.6340    -3.9170    -2.3180 O.2   1 <1>  -0.5700 
 17 C        7.1980    -2.9900    -0.8680 C.ar  1 <1>   0.0860 
 18 C        8.3050    -3.3530    -1.6360 C.ar  1 <1>  -0.1500 
 19 C        7.4410    -2.4500     0.3990 C.ar  1 <1>  -0.1500 
 20 C        9.6050    -3.1800    -1.1780 C.ar  1 <1>   0.0830 
 21 C        8.7310    -2.2590     0.8770 C.ar  1 <1>   0.0830 
 22 O       10.6970    -3.5390    -1.9150 O.3   1 <1>  -0.3630 
 23 C        9.8170    -2.6250     0.0830 C.ar  1 <1>   0.0830 
 24 O        8.9780    -1.7240     2.1080 O.3   1 <1>  -0.3630 
 25 C       10.5740    -4.0240    -3.2340 C.3   1 <1>   0.0400 
 26 O       11.0840    -2.4230     0.5240 O.3   1 <1>  -0.3630 
 27 C        7.9850    -1.0150     2.8190 C.3   1 <1>   0.0400 
 28 C       11.6050    -3.4230     1.3640 C.3   1 <1>   0.0400 
 29 H       -0.4350    -2.3520    -0.9930 H     1 <1>   0.1500 
 30 H        0.7970    -3.6060    -2.7370 H     1 <1>   0.1500 
 31 H        4.1230    -2.5740     2.4930 H     1 <1>   0.0800 
 32 H        2.4710    -2.0830     2.6930 H     1 <1>   0.0800 
 33 H        2.5890     0.7390     1.4220 H     1 <1>   0.0800 
 34 H        3.6860     0.7150     0.0770 H     1 <1>   0.0800 
 35 H        5.0670    -1.8760    -0.0180 H     1 <1>   0.3700 
 36 H        3.2440    -3.6880    -2.6730 H     1 <1>   0.1500 
 37 H        4.2310    -1.2460     4.4330 H     1 <1>   0.0800 
 38 H        3.0900    -0.0730     3.8230 H     1 <1>   0.0800 
 39 H        4.3660     1.8630     2.3960 H     1 <1>   0.0800 
 40 H        5.5550     1.0340     1.4320 H     1 <1>   0.0800 
 41 H        8.1160    -3.7780    -2.6040 H     1 <1>   0.1500 
 42 H        6.6080    -2.1880     1.0210 H     1 <1>   0.1500 
 43 H       11.5620    -4.2010    -3.6170 H     1 <1>   0.0800 
 44 H       10.0760    -3.2830    -3.8340 H     1 <1>   0.0800 
 45 H       10.0180    -4.9450    -3.2170 H     1 <1>   0.0800 
 46 H        8.4450    -0.5720     3.6840 H     1 <1>   0.0800 
 47 H        7.2140    -1.6970     3.1300 H     1 <1>   0.0800 
 48 H        7.5830    -0.2440     2.1870 H     1 <1>   0.0800 
 49 H       12.6120    -3.1520     1.6240 H     1 <1>   0.0800 
 50 H       11.5980    -4.3580     0.8330 H     1 <1>   0.0800 
 51 H       10.9980    -3.4860     2.2500 H     1 <1>   0.0800 
@<TRIPOS>BOND
  1   1   2  1   
  2   2   3  ar  
  3   2   4  ar  
  4   3   5  1   
  5   3   6  ar  
  6   4   7  ar  
  7   4  29  1   
  8   5   8  1   
  9   5   9  1   
 10   6  10  1   
 11   6  11  ar  
 12   7  11  ar  
 13   7  30  1   
 14   8  12  1   
 15   8  31  1   
 16   8  32  1   
 17   9  13  1   
 18   9  33  1   
 19   9  34  1   
 20  10  14  am  
 21  10  35  1   
 22  11  36  1   
 23  12  15  1   
 24  12  37  1   
 25  12  38  1   
 26  13  15  1   
 27  13  39  1   
 28  13  40  1   
 29  14  16  2   
 30  14  17  1   
 31  17  18  ar  
 32  17  19  ar  
 33  18  20  ar  
 34  18  41  1   
 35  19  21  ar  
 36  19  42  1   
 37  20  22  1   
 38  20  23  ar  
 39  21  23  ar  
 40  21  24  1   
 41  22  25  1   
 42  23  26  1   
 43  24  27  1   
 44  25  43  1   
 45  25  44  1   
 46  25  45  1   
 47  26  28  1   
 48  27  46  1   
 49  27  47  1   
 50  27  48  1   
 51  28  49  1   
 52  28  50  1   
 53  28  51  1   
@<TRIPOS>SUBSTRUCTURE
  1 ****  10 GROUP 4 **** **** 0

# MOE 2024.06 (io_trps.svl 2023.06)
