@<TRIPOS>MOLECULE
(3-Amino-4-methoxymethyl-6-methyl-thieno[2,3-b]pyridin-2-yl)-morpholin-4-yl-meth
41 43 1 0 0 
SMALL
USER_CHARGES


@<TRIPOS>ATOM
  1 S        0.1730     0.1260     0.1410 S.3   1 <1>  -0.0800 
  2 C       -1.4530     0.7950     0.2410 C.ar  1 <1>   0.2970 
  3 C        0.8380     1.6240    -0.5610 C.2   1 <1>  -0.0450 
  4 N       -2.4450     0.0900     0.7570 N.ar  1 <1>  -0.5670 
  5 C       -1.4790     2.0820    -0.2830 C.ar  1 <1>   0.0000 
  6 C       -0.1720     2.5310    -0.7100 C.2   1 <1>   0.0830 
  7 C        2.2430     1.6770    -0.8160 C.2   1 <1>   0.7150 
  8 C       -3.5990     0.7250     0.7450 C.ar  1 <1>   0.1670 
  9 C       -2.7260     2.7110    -0.3150 C.ar  1 <1>  -0.1440 
 10 N        0.0120     3.8060    -1.2040 N.pl3 1 <1>  -0.8830 
 11 O        2.8510     0.6790    -1.1730 O.2   1 <1>  -0.5700 
 12 N        2.9630     2.8470    -0.6470 N.am  1 <1>  -0.6600 
 13 C       -3.7840     2.0050     0.2270 C.ar  1 <1>  -0.1500 
 14 C       -4.7710    -0.0290     1.3380 C.3   1 <1>  -0.0970 
 15 C       -2.9710     4.0810    -0.9350 C.3   1 <1>   0.2630 
 16 C        2.7370     3.7200     0.5440 C.3   1 <1>   0.1400 
 17 C        4.3300     3.0030    -1.2290 C.3   1 <1>   0.1400 
 18 O       -2.3330     5.0660    -0.1760 O.3   1 <1>  -0.5600 
 19 C        3.9000     3.5860     1.5410 C.3   1 <1>   0.1200 
 20 C        5.3970     2.8980    -0.1290 C.3   1 <1>   0.1200 
 21 C       -2.6000     6.3650    -0.5990 C.3   1 <1>   0.0400 
 22 O        5.1260     3.8060     0.9030 O.3   1 <1>  -0.5600 
 23 H       -0.6590     4.5210    -0.8690 H     1 <1>   0.4000 
 24 H        0.9660     4.1530    -1.3500 H     1 <1>   0.4000 
 25 H       -4.7650     2.4410     0.2470 H     1 <1>   0.1500 
 26 H       -4.9210    -0.9430     0.7930 H     1 <1>   0.0800 
 27 H       -5.6730     0.5540     1.2960 H     1 <1>   0.0800 
 28 H       -4.5590    -0.2690     2.3640 H     1 <1>   0.0800 
 29 H       -4.0250     4.2980    -0.9610 H     1 <1>   0.0800 
 30 H       -2.5790     4.1080    -1.9380 H     1 <1>   0.0800 
 31 H        1.8190     3.4590     1.0410 H     1 <1>   0.0800 
 32 H        2.6620     4.7450     0.2260 H     1 <1>   0.0800 
 33 H        4.4050     3.9650    -1.7040 H     1 <1>   0.0800 
 34 H        4.5100     2.2530    -1.9800 H     1 <1>   0.0800 
 35 H        3.9120     2.6030     1.9800 H     1 <1>   0.0800 
 36 H        3.8040     4.3140     2.3270 H     1 <1>   0.0800 
 37 H        6.3680     3.1330    -0.5280 H     1 <1>   0.0800 
 38 H        5.4210     1.9020     0.2790 H     1 <1>   0.0800 
 39 H       -2.0560     7.0420     0.0360 H     1 <1>   0.0800 
 40 H       -3.6550     6.5590    -0.5100 H     1 <1>   0.0800 
 41 H       -2.2770     6.4840    -1.6190 H     1 <1>   0.0800 
@<TRIPOS>BOND
  1   1   2  1   
  2   1   3  1   
  3   2   4  ar  
  4   2   5  ar  
  5   3   6  2   
  6   3   7  1   
  7   4   8  ar  
  8   5   6  1   
  9   5   9  ar  
 10   6  10  1   
 11   7  11  2   
 12   7  12  am  
 13   8  13  ar  
 14   8  14  1   
 15   9  13  ar  
 16   9  15  1   
 17  10  23  1   
 18  10  24  1   
 19  12  16  1   
 20  12  17  1   
 21  13  25  1   
 22  14  26  1   
 23  14  27  1   
 24  14  28  1   
 25  15  18  1   
 26  15  29  1   
 27  15  30  1   
 28  16  19  1   
 29  16  31  1   
 30  16  32  1   
 31  17  20  1   
 32  17  33  1   
 33  17  34  1   
 34  18  21  1   
 35  19  22  1   
 36  19  35  1   
 37  19  36  1   
 38  20  22  1   
 39  20  37  1   
 40  20  38  1   
 41  21  39  1   
 42  21  40  1   
 43  21  41  1   
@<TRIPOS>SUBSTRUCTURE
  1 ****   6 GROUP 4 **** **** 0

# MOE 2024.06 (io_trps.svl 2023.06)
