@<TRIPOS>MOLECULE
1-(2,5-Dimethoxy-benzenesulfonyl)-piperidine-4-carboxylic acid (2,4,6-trimethyl-
61 63 1 0 0 
SMALL
USER_CHARGES


@<TRIPOS>ATOM
  1 S       -0.0990    -0.5780     1.5270 S.o2  1 <1>   1.4470 
  2 O        0.0130    -1.9630     1.9360 O.2   1 <1>  -0.6500 
  3 O       -0.4450     0.3910     2.5450 O.2   1 <1>  -0.6500 
  4 N        1.4300    -0.1340     0.9360 N.am  1 <1>  -0.8490 
  5 C       -1.1890    -0.5160     0.0770 C.ar  1 <1>  -0.0090 
  6 C        2.4770    -0.4800     1.9020 C.3   1 <1>   0.1960 
  7 C        1.4830     1.2830     0.5630 C.3   1 <1>   0.1960 
  8 C       -1.8670     0.6400    -0.3050 C.ar  1 <1>   0.0830 
  9 C       -1.3530    -1.6510    -0.7110 C.ar  1 <1>  -0.1500 
 10 C        3.8630    -0.1890     1.3230 C.3   1 <1>  -0.1600 
 11 C        2.8400     1.6280    -0.0560 C.3   1 <1>  -0.1600 
 12 O       -1.7210     1.7870     0.3920 O.3   1 <1>  -0.3620 
 13 C       -2.6830     0.6580    -1.4260 C.ar  1 <1>  -0.1500 
 14 C       -2.1730    -1.6460    -1.8340 C.ar  1 <1>   0.0830 
 15 C        3.9930     1.2830     0.8980 C.3   1 <1>  -0.0190 
 16 C       -2.7870     2.1390     1.2460 C.3   1 <1>   0.0400 
 17 C       -2.8370    -0.4840    -2.1860 C.ar  1 <1>  -0.1500 
 18 O       -2.3710    -2.7270    -2.6310 O.3   1 <1>  -0.3630 
 19 C        5.3450     1.6060     0.2630 C.2   1 <1>   0.5690 
 20 C       -1.7420    -3.9600    -2.3580 C.3   1 <1>   0.0400 
 21 O        5.9150     0.7650    -0.3890 O.2   1 <1>  -0.5700 
 22 N        5.8480     2.8600     0.4620 N.am  1 <1>  -0.5470 
 23 C        7.0480     3.4060    -0.0190 C.ar  1 <1>   0.1170 
 24 C        7.2460     3.6370    -1.3830 C.ar  1 <1>  -0.1430 
 25 C        8.0510     3.7560     0.8870 C.ar  1 <1>  -0.1430 
 26 C        8.4320     4.2050    -1.8180 C.ar  1 <1>  -0.1500 
 27 C        6.1880     3.2820    -2.4220 C.3   1 <1>  -0.0970 
 28 C        9.2260     4.3280     0.4300 C.ar  1 <1>  -0.1500 
 29 C        7.8860     3.5100     2.3820 C.3   1 <1>  -0.0970 
 30 C        9.4240     4.5570    -0.9200 C.ar  1 <1>  -0.1430 
 31 C       10.7180     5.1780    -1.4130 C.3   1 <1>  -0.0970 
 32 H        2.4220    -1.5310     2.1380 H     1 <1>   0.0800 
 33 H        2.3300     0.0750     2.8140 H     1 <1>   0.0800 
 34 H        1.3030     1.9000     1.4290 H     1 <1>   0.0800 
 35 H        0.7210     1.4960    -0.1650 H     1 <1>   0.0800 
 36 H       -0.8240    -2.5420    -0.4250 H     1 <1>   0.1500 
 37 H        4.0220    -0.8340     0.4750 H     1 <1>   0.0800 
 38 H        4.6140    -0.4240     2.0560 H     1 <1>   0.0800 
 39 H        2.8630     2.6760    -0.2960 H     1 <1>   0.0800 
 40 H        2.9530     1.0780    -0.9750 H     1 <1>   0.0800 
 41 H       -3.1890     1.5650    -1.7050 H     1 <1>   0.1500 
 42 H        3.8920     1.8860     1.7830 H     1 <1>   0.0800 
 43 H       -2.5170     3.0400     1.7660 H     1 <1>   0.0800 
 44 H       -2.9450     1.3440     1.9530 H     1 <1>   0.0800 
 45 H       -3.6730     2.3030     0.6580 H     1 <1>   0.0800 
 46 H       -3.4680    -0.4830    -3.0570 H     1 <1>   0.1500 
 47 H       -2.0470    -4.6640    -3.1120 H     1 <1>   0.0800 
 48 H       -2.0550    -4.3060    -1.3890 H     1 <1>   0.0800 
 49 H       -0.6760    -3.8250    -2.3950 H     1 <1>   0.0800 
 50 H        5.3410     3.4610     1.1050 H     1 <1>   0.3700 
 51 H        8.5890     4.3760    -2.8680 H     1 <1>   0.1500 
 52 H        5.2150     3.5910    -2.0880 H     1 <1>   0.0800 
 53 H        6.1820     2.2190    -2.5820 H     1 <1>   0.0800 
 54 H        6.3910     3.7660    -3.3590 H     1 <1>   0.0800 
 55 H       10.0000     4.5950     1.1260 H     1 <1>   0.1500 
 56 H        7.6500     2.4760     2.5580 H     1 <1>   0.0800 
 57 H        7.0970     4.1250     2.7730 H     1 <1>   0.0800 
 58 H        8.7920     3.7410     2.9130 H     1 <1>   0.0800 
 59 H       10.5420     5.7580    -2.3000 H     1 <1>   0.0800 
 60 H       11.4280     4.4030    -1.6390 H     1 <1>   0.0800 
 61 H       11.1350     5.8240    -0.6620 H     1 <1>   0.0800 
@<TRIPOS>BOND
  1   1   2  2   
  2   1   3  2   
  3   1   4  am  
  4   1   5  1   
  5   4   6  1   
  6   4   7  1   
  7   5   8  ar  
  8   5   9  ar  
  9   6  10  1   
 10   6  32  1   
 11   6  33  1   
 12   7  11  1   
 13   7  34  1   
 14   7  35  1   
 15   8  12  1   
 16   8  13  ar  
 17   9  14  ar  
 18   9  36  1   
 19  10  15  1   
 20  10  37  1   
 21  10  38  1   
 22  11  15  1   
 23  11  39  1   
 24  11  40  1   
 25  12  16  1   
 26  13  17  ar  
 27  13  41  1   
 28  14  17  ar  
 29  14  18  1   
 30  15  19  1   
 31  15  42  1   
 32  16  43  1   
 33  16  44  1   
 34  16  45  1   
 35  17  46  1   
 36  18  20  1   
 37  19  21  2   
 38  19  22  am  
 39  20  47  1   
 40  20  48  1   
 41  20  49  1   
 42  22  23  1   
 43  22  50  1   
 44  23  24  ar  
 45  23  25  ar  
 46  24  26  ar  
 47  24  27  1   
 48  25  28  ar  
 49  25  29  1   
 50  26  30  ar  
 51  26  51  1   
 52  27  52  1   
 53  27  53  1   
 54  27  54  1   
 55  28  30  ar  
 56  28  55  1   
 57  29  56  1   
 58  29  57  1   
 59  29  58  1   
 60  30  31  1   
 61  31  59  1   
 62  31  60  1   
 63  31  61  1   
@<TRIPOS>SUBSTRUCTURE
  1 ****  11 GROUP 4 **** **** 0

# MOE 2024.06 (io_trps.svl 2023.06)
