@<TRIPOS>MOLECULE
3-(1-Methyl-1H-tetrazol-5-ylsulfanyl)-N-p-tolyl-propionamide
34 35 1 0 0 
SMALL
USER_CHARGES


@<TRIPOS>ATOM
  1 S       -0.7350    -0.4700    -1.1220 S.3   1 <1>  -0.2860 
  2 C       -1.7650     0.3210     0.1340 C.2   1 <1>   0.2420 
  3 C       -0.2020    -2.0870    -0.4110 C.3   1 <1>   0.0700 
  4 N       -1.7840     1.5850     0.2960 N.2   1 <1>  -0.3380 
  5 N       -2.5830    -0.2850     0.9820 N.pl3 1 <1>   0.3140 
  6 C        1.0390    -2.5620    -1.1720 C.3   1 <1>  -0.0990 
  7 N       -2.6390     1.7810     1.2960 N.2   1 <1>   0.0000 
  8 N       -3.1270     0.6640     1.7150 N.2   1 <1>  -0.4180 
  9 C       -2.9660    -1.6970     1.1390 C.3   1 <1>   0.0160 
 10 C        1.5560    -3.8810    -0.6330 C.2   1 <1>   0.5690 
 11 O        0.8440    -4.5310     0.0930 O.2   1 <1>  -0.5700 
 12 N        2.8100    -4.2620    -1.0190 N.am  1 <1>  -0.5470 
 13 C        3.5790    -5.3900    -0.6900 C.ar  1 <1>   0.1170 
 14 C        4.6450    -5.7310    -1.5130 C.ar  1 <1>  -0.1500 
 15 C        3.3390    -6.1780     0.4320 C.ar  1 <1>  -0.1500 
 16 C        5.4440    -6.8250    -1.2320 C.ar  1 <1>  -0.1500 
 17 C        4.1350    -7.2730     0.7150 C.ar  1 <1>  -0.1500 
 18 C        5.1930    -7.6050    -0.1160 C.ar  1 <1>  -0.1440 
 19 C        6.0660    -8.8060     0.1970 C.3   1 <1>  -0.0970 
 20 H       -1.0140    -2.7820    -0.5270 H     1 <1>   0.0800 
 21 H        0.0190    -1.9300     0.6300 H     1 <1>   0.0800 
 22 H        1.8100    -1.8190    -1.0840 H     1 <1>   0.0800 
 23 H        0.7930    -2.6880    -2.2100 H     1 <1>   0.0800 
 24 H       -2.1920    -2.2220     1.6670 H     1 <1>   0.0800 
 25 H       -3.1210    -2.1360     0.1710 H     1 <1>   0.0800 
 26 H       -3.8800    -1.7540     1.7020 H     1 <1>   0.0800 
 27 H        3.2610    -3.6420    -1.6880 H     1 <1>   0.3700 
 28 H        4.8570    -5.1410    -2.3860 H     1 <1>   0.1500 
 29 H        2.5290    -5.9420     1.0960 H     1 <1>   0.1500 
 30 H        6.2640    -7.0680    -1.8850 H     1 <1>   0.1500 
 31 H        3.9270    -7.8660     1.5880 H     1 <1>   0.1500 
 32 H        5.4900    -9.5690     0.6900 H     1 <1>   0.0800 
 33 H        6.8740    -8.5100     0.8420 H     1 <1>   0.0800 
 34 H        6.4750    -9.2210    -0.7060 H     1 <1>   0.0800 
@<TRIPOS>BOND
  1   1   2  1   
  2   1   3  1   
  3   2   4  2   
  4   2   5  1   
  5   3   6  1   
  6   3  20  1   
  7   3  21  1   
  8   4   7  1   
  9   5   8  1   
 10   5   9  1   
 11   6  10  1   
 12   6  22  1   
 13   6  23  1   
 14   7   8  2   
 15   9  24  1   
 16   9  25  1   
 17   9  26  1   
 18  10  11  2   
 19  10  12  am  
 20  12  13  1   
 21  12  27  1   
 22  13  14  ar  
 23  13  15  ar  
 24  14  16  ar  
 25  14  28  1   
 26  15  17  ar  
 27  15  29  1   
 28  16  18  ar  
 29  16  30  1   
 30  17  18  ar  
 31  17  31  1   
 32  18  19  1   
 33  19  32  1   
 34  19  33  1   
 35  19  34  1   
@<TRIPOS>SUBSTRUCTURE
  1 ****  10 GROUP 4 **** **** 0

# MOE 2024.06 (io_trps.svl 2023.06)
