@<TRIPOS>MOLECULE
7-Benzyl-8-(3-isopropoxy-propylamino)-3-methyl-3,7-dihydro-purine-2,6-dione
53 55 1 0 0 
SMALL
USER_CHARGES


@<TRIPOS>ATOM
  1 O        1.5730    -0.4550    -1.2310 O.2   1 <1>  -0.5740 
  2 C        2.4540     0.3460    -1.0270 C.2   1 <1>   0.6860 
  3 N        3.6880    -0.0230    -0.5080 N.am  1 <1>  -0.4410 
  4 N        2.2180     1.6590    -1.3200 N.am  1 <1>  -0.4950 
  5 C        4.6250     0.9780    -0.3040 C.2   1 <1>   0.4210 
  6 C        4.0000    -1.4470    -0.1910 C.3   1 <1>   0.0530 
  7 C        3.1340     2.6530    -1.1330 C.2   1 <1>   0.6990 
  8 N        5.8830     0.8580     0.1940 N.pl3 1 <1>  -0.7040 
  9 C        4.4070     2.2810    -0.5920 C.2   1 <1>   0.2710 
 10 O        2.8460     3.7970    -1.4240 O.2   1 <1>  -0.5740 
 11 C        6.4470     2.0630     0.2090 C.cat 1 <1>   1.0690 
 12 N        5.5850     2.9740    -0.2610 N.pl3 1 <1>  -0.7670 
 13 N        7.6910     2.2730     0.6290 N.pl3 1 <1>  -0.7180 
 14 C        5.6980     4.4490    -0.4740 C.3   1 <1>   0.4930 
 15 C        8.6830     1.3010     1.1330 C.3   1 <1>   0.1610 
 16 C        7.0980     4.9280    -0.1410 C.ar  1 <1>  -0.1510 
 17 C        9.2400     0.4980    -0.0390 C.3   1 <1>  -0.1670 
 18 C        7.3990     5.3690     1.1400 C.ar  1 <1>  -0.1570 
 19 C        8.1000     4.8720    -1.0990 C.ar  1 <1>  -0.1570 
 20 C       10.2400    -0.5530     0.4340 C.3   1 <1>   0.1130 
 21 C        8.6940     5.7280     1.4650 C.ar  1 <1>  -0.1570 
 22 C        9.3950     5.2310    -0.7710 C.ar  1 <1>  -0.1570 
 23 O       10.4380    -1.4140    -0.6330 O.3   1 <1>  -0.5640 
 24 C        9.6930     5.6550     0.5110 C.ar  1 <1>  -0.1570 
 25 C       11.4240    -2.3790    -0.4540 C.3   1 <1>   0.1930 
 26 C       11.8670    -2.8130    -1.8460 C.3   1 <1>  -0.2460 
 27 C       10.8400    -3.5550     0.3300 C.3   1 <1>  -0.2460 
 28 H        1.3040     1.8960    -1.7010 H     1 <1>   0.3640 
 29 H        3.1810    -2.0910    -0.4650 H     1 <1>   0.0730 
 30 H        4.1790    -1.5570     0.8640 H     1 <1>   0.0730 
 31 H        4.8720    -1.7620    -0.7370 H     1 <1>   0.0730 
 32 H        6.3610     0.0050     0.4690 H     1 <1>   0.4450 
 33 H        8.0460     3.2380     0.5390 H     1 <1>   0.4450 
 34 H        4.9780     4.9590     0.1450 H     1 <1>   0.0730 
 35 H        5.4720     4.6840    -1.5020 H     1 <1>   0.0730 
 36 H        8.2200     0.6430     1.8500 H     1 <1>   0.0730 
 37 H        9.4820     1.8300     1.6280 H     1 <1>   0.0730 
 38 H        9.7370     1.1560    -0.7300 H     1 <1>   0.0730 
 39 H        8.4410    -0.0080    -0.5500 H     1 <1>   0.0730 
 40 H        6.6350     5.4350     1.8990 H     1 <1>   0.1430 
 41 H        7.8890     4.5460    -2.1040 H     1 <1>   0.1430 
 42 H        9.8480    -1.1190     1.2610 H     1 <1>   0.0730 
 43 H       11.1790    -0.0980     0.7040 H     1 <1>   0.0730 
 44 H        8.9280     6.0710     2.4590 H     1 <1>   0.1430 
 45 H       10.1730     5.1880    -1.5150 H     1 <1>   0.1430 
 46 H       10.7010     5.9390     0.7630 H     1 <1>   0.1430 
 47 H       12.2600    -1.9430     0.0680 H     1 <1>   0.0730 
 48 H       11.0370    -3.2280    -2.3910 H     1 <1>   0.0730 
 49 H       12.6380    -3.5580    -1.7720 H     1 <1>   0.0730 
 50 H       12.2590    -1.9700    -2.3850 H     1 <1>   0.0730 
 51 H        9.9670    -3.9370    -0.1680 H     1 <1>   0.0730 
 52 H       10.5850    -3.2610     1.3300 H     1 <1>   0.0730 
 53 H       11.5670    -4.3430     0.3940 H     1 <1>   0.0730 
@<TRIPOS>BOND
  1   1   2  2   
  2   2   3  am  
  3   2   4  am  
  4   3   5  1   
  5   3   6  1   
  6   4   7  am  
  7   4  28  1   
  8   5   8  1   
  9   5   9  2   
 10   6  29  1   
 11   6  30  1   
 12   6  31  1   
 13   7   9  1   
 14   7  10  2   
 15   8  11  ar  
 16   8  32  1   
 17   9  12  1   
 18  11  12  ar  
 19  11  13  ar  
 20  12  14  1   
 21  13  15  1   
 22  13  33  1   
 23  14  16  1   
 24  14  34  1   
 25  14  35  1   
 26  15  17  1   
 27  15  36  1   
 28  15  37  1   
 29  16  18  ar  
 30  16  19  ar  
 31  17  20  1   
 32  17  38  1   
 33  17  39  1   
 34  18  21  ar  
 35  18  40  1   
 36  19  22  ar  
 37  19  41  1   
 38  20  23  1   
 39  20  42  1   
 40  20  43  1   
 41  21  24  ar  
 42  21  44  1   
 43  22  24  ar  
 44  22  45  1   
 45  23  25  1   
 46  24  46  1   
 47  25  26  1   
 48  25  27  1   
 49  25  47  1   
 50  26  48  1   
 51  26  49  1   
 52  26  50  1   
 53  27  51  1   
 54  27  52  1   
 55  27  53  1   
@<TRIPOS>SUBSTRUCTURE
  1 ****  11 GROUP 4 **** **** 0

# MOE 2024.06 (io_trps.svl 2023.06)
