@<TRIPOS>MOLECULE
4-[4-(2,4,6-Trimethyl-phenyl)-piperazine-1-sulfonyl]-morpholine
51 53 1 0 0 
SMALL
USER_CHARGES


@<TRIPOS>ATOM
  1 S       -0.0640    -0.1100     1.2950 S.o2  1 <1>   1.5760 
  2 O        0.3860     0.9660     2.1490 O.2   1 <1>  -0.6500 
  3 O       -0.3220    -1.4250     1.8370 O.2   1 <1>  -0.6500 
  4 N        1.0200    -0.2590     0.0130 N.am  1 <1>  -0.8490 
  5 N       -1.4340     0.4000     0.4580 N.am  1 <1>  -0.8490 
  6 C        1.3860     1.0490    -0.5510 C.3   1 <1>   0.1960 
  7 C        2.2380    -0.9610     0.4350 C.3   1 <1>   0.1960 
  8 C       -1.9980    -0.6860    -0.3730 C.3   1 <1>   0.1960 
  9 C       -2.4630     0.8920     1.3950 C.3   1 <1>   0.1960 
 10 C        2.4010     0.8880    -1.6960 C.3   1 <1>   0.1200 
 11 C        3.2400    -1.0750    -0.7280 C.3   1 <1>   0.1200 
 12 C       -3.2370    -0.2320    -1.1690 C.3   1 <1>   0.2090 
 13 C       -3.7230     1.4030     0.6700 C.3   1 <1>   0.2090 
 14 O        3.5320     0.1890    -1.2560 O.3   1 <1>  -0.5600 
 15 N       -4.2490     0.3660    -0.2570 N.pl3 1 <1>  -0.8380 
 16 C       -5.6140     0.2590    -0.5310 C.ar  1 <1>   0.1000 
 17 C       -6.3440    -0.7930     0.0290 C.ar  1 <1>  -0.1430 
 18 C       -6.2720     1.1790    -1.3540 C.ar  1 <1>  -0.1430 
 19 C       -7.6980    -0.9170    -0.2330 C.ar  1 <1>  -0.1500 
 20 C       -5.6680    -1.8140     0.9340 C.3   1 <1>  -0.0970 
 21 C       -7.6280     1.0370    -1.6010 C.ar  1 <1>  -0.1500 
 22 C       -5.5370     2.3480    -1.9960 C.3   1 <1>  -0.0970 
 23 C       -8.3480    -0.0050    -1.0460 C.ar  1 <1>  -0.1430 
 24 C       -9.8320    -0.1490    -1.3270 C.3   1 <1>  -0.0970 
 25 H        1.8180     1.6800     0.2090 H     1 <1>   0.0800 
 26 H        0.5050     1.5400    -0.9280 H     1 <1>   0.0800 
 27 H        1.9830    -1.9500     0.7760 H     1 <1>   0.0800 
 28 H        2.7040    -0.4360     1.2530 H     1 <1>   0.0800 
 29 H       -2.2830    -1.5170     0.2510 H     1 <1>   0.0800 
 30 H       -1.2530    -1.0350    -1.0660 H     1 <1>   0.0800 
 31 H       -2.0590     1.6980     1.9830 H     1 <1>   0.0800 
 32 H       -2.7500     0.1020     2.0690 H     1 <1>   0.0800 
 33 H        2.7260     1.8510    -2.0450 H     1 <1>   0.0800 
 34 H        1.9610     0.3490    -2.5170 H     1 <1>   0.0800 
 35 H        2.8380    -1.6910    -1.5120 H     1 <1>   0.0800 
 36 H        4.1620    -1.5080    -0.3840 H     1 <1>   0.0800 
 37 H       -3.6710    -1.0730    -1.6820 H     1 <1>   0.0800 
 38 H       -2.9390     0.4950    -1.9010 H     1 <1>   0.0800 
 39 H       -3.4730     2.2880     0.1130 H     1 <1>   0.0800 
 40 H       -4.4830     1.6570     1.3890 H     1 <1>   0.0800 
 41 H       -8.2550    -1.7290     0.1970 H     1 <1>   0.1500 
 42 H       -4.9230    -2.3530     0.3790 H     1 <1>   0.0800 
 43 H       -6.3780    -2.5170     1.3290 H     1 <1>   0.0800 
 44 H       -5.1910    -1.3110     1.7550 H     1 <1>   0.0800 
 45 H       -8.1330     1.7450    -2.2340 H     1 <1>   0.1500 
 46 H       -4.6350     2.0060    -2.4670 H     1 <1>   0.0800 
 47 H       -5.2880     3.0740    -1.2450 H     1 <1>   0.0800 
 48 H       -6.1460     2.8240    -2.7430 H     1 <1>   0.0800 
 49 H       -9.9770    -0.7510    -2.2060 H     1 <1>   0.0800 
 50 H      -10.2790     0.8150    -1.4880 H     1 <1>   0.0800 
 51 H      -10.3280    -0.6190    -0.4970 H     1 <1>   0.0800 
@<TRIPOS>BOND
  1   1   2  2   
  2   1   3  2   
  3   1   4  am  
  4   1   5  am  
  5   4   6  1   
  6   4   7  1   
  7   5   8  1   
  8   5   9  1   
  9   6  10  1   
 10   6  25  1   
 11   6  26  1   
 12   7  11  1   
 13   7  27  1   
 14   7  28  1   
 15   8  12  1   
 16   8  29  1   
 17   8  30  1   
 18   9  13  1   
 19   9  31  1   
 20   9  32  1   
 21  10  14  1   
 22  10  33  1   
 23  10  34  1   
 24  11  14  1   
 25  11  35  1   
 26  11  36  1   
 27  12  15  1   
 28  12  37  1   
 29  12  38  1   
 30  13  15  1   
 31  13  39  1   
 32  13  40  1   
 33  15  16  1   
 34  16  17  ar  
 35  16  18  ar  
 36  17  19  ar  
 37  17  20  1   
 38  18  21  ar  
 39  18  22  1   
 40  19  23  ar  
 41  19  41  1   
 42  20  42  1   
 43  20  43  1   
 44  20  44  1   
 45  21  23  ar  
 46  21  45  1   
 47  22  46  1   
 48  22  47  1   
 49  22  48  1   
 50  23  24  1   
 51  24  49  1   
 52  24  50  1   
 53  24  51  1   
@<TRIPOS>SUBSTRUCTURE
  1 ****   8 GROUP 4 **** **** 0

# MOE 2024.06 (io_trps.svl 2023.06)
