@<TRIPOS>MOLECULE
1-(2,5-Dimethoxy-benzenesulfonyl)-piperidine-4-carboxylic acid (2,3-dimethyl-phe
58 60 1 0 0 
SMALL
USER_CHARGES


@<TRIPOS>ATOM
  1 S        0.0780    -0.5530     1.2270 S.o2  1 <1>   1.4470 
  2 O        0.2850    -1.8950     1.7300 O.2   1 <1>  -0.6500 
  3 O       -0.1840     0.4880     2.2000 O.2   1 <1>  -0.6500 
  4 N        1.5150    -0.1210     0.4310 N.am  1 <1>  -0.8490 
  5 C       -1.1750    -0.6410    -0.0830 C.ar  1 <1>  -0.0090 
  6 C        2.6710    -0.3490     1.3020 C.3   1 <1>   0.1960 
  7 C        1.4720     1.2580    -0.0690 C.3   1 <1>   0.1960 
  8 C       -1.9280     0.4640    -0.4770 C.ar  1 <1>   0.0830 
  9 C       -1.3970    -1.8430    -0.7460 C.ar  1 <1>  -0.1500 
 10 C        3.9780    -0.0630     0.5580 C.3   1 <1>  -0.1600 
 11 C        2.7430     1.5880    -0.8550 C.3   1 <1>  -0.1600 
 12 O       -1.7360     1.6690     0.0980 O.3   1 <1>  -0.3620 
 13 C       -2.8710     0.3680    -1.4900 C.ar  1 <1>  -0.1500 
 14 C       -2.3450    -1.9530    -1.7590 C.ar  1 <1>   0.0830 
 15 C        4.0000     1.3680     0.0020 C.3   1 <1>  -0.0190 
 16 C       -2.7060     2.0760     1.0390 C.3   1 <1>   0.0400 
 17 C       -3.0800    -0.8400    -2.1260 C.ar  1 <1>  -0.1500 
 18 O       -2.6040    -3.1040    -2.4300 O.3   1 <1>  -0.3630 
 19 C        5.2850     1.6480    -0.7760 C.2   1 <1>   0.5690 
 20 C       -1.9060    -4.2940    -2.1360 C.3   1 <1>   0.0400 
 21 O        5.4730     1.0750    -1.8210 O.2   1 <1>  -0.5700 
 22 N        6.1730     2.5330    -0.2260 N.am  1 <1>  -0.5470 
 23 C        7.4210     3.0000    -0.6730 C.ar  1 <1>   0.1170 
 24 C        8.3750     3.4430     0.2530 C.ar  1 <1>  -0.1430 
 25 C        7.7170     3.0610    -2.0300 C.ar  1 <1>  -0.1500 
 26 C        9.5920     3.9540    -0.1960 C.ar  1 <1>  -0.1430 
 27 C        8.0640     3.3580     1.7510 C.3   1 <1>  -0.0970 
 28 C        8.9270     3.5530    -2.4710 C.ar  1 <1>  -0.1500 
 29 C        9.8590     4.0000    -1.5560 C.ar  1 <1>  -0.1500 
 30 C       10.6660     4.4760     0.7500 C.3   1 <1>  -0.0970 
 31 H        2.6840    -1.3770     1.6270 H     1 <1>   0.0800 
 32 H        2.5970     0.2770     2.1770 H     1 <1>   0.0800 
 33 H        1.3560     1.9460     0.7520 H     1 <1>   0.0800 
 34 H        0.6320     1.3780    -0.7300 H     1 <1>   0.0800 
 35 H       -0.8120    -2.6950    -0.4520 H     1 <1>   0.1500 
 36 H        4.0790    -0.7700    -0.2490 H     1 <1>   0.0800 
 37 H        4.8080    -0.2100     1.2250 H     1 <1>   0.0800 
 38 H        2.7030     2.6110    -1.1860 H     1 <1>   0.0800 
 39 H        2.7820     0.9620    -1.7300 H     1 <1>   0.0800 
 40 H       -3.4320     1.2370    -1.7810 H     1 <1>   0.1500 
 41 H        3.9520     2.0490     0.8340 H     1 <1>   0.0800 
 42 H       -2.4020     3.0230     1.4460 H     1 <1>   0.0800 
 43 H       -2.7580     1.3420     1.8250 H     1 <1>   0.0800 
 44 H       -3.6580     2.1720     0.5480 H     1 <1>   0.0800 
 45 H       -3.8100    -0.9280    -2.9110 H     1 <1>   0.1500 
 46 H       -2.2760    -5.0670    -2.7860 H     1 <1>   0.0800 
 47 H       -2.0870    -4.5620    -1.1100 H     1 <1>   0.0800 
 48 H       -0.8570    -4.1380    -2.3160 H     1 <1>   0.0800 
 49 H        5.9220     2.8840     0.6930 H     1 <1>   0.3700 
 50 H        6.9980     2.7260    -2.7550 H     1 <1>   0.1500 
 51 H        7.5790     2.4270     1.9840 H     1 <1>   0.0800 
 52 H        7.4230     4.1730     2.0360 H     1 <1>   0.0800 
 53 H        8.9510     3.3980     2.3530 H     1 <1>   0.0800 
 54 H        9.1430     3.5900    -3.5250 H     1 <1>   0.1500 
 55 H       10.7970     4.3850    -1.9150 H     1 <1>   0.1500 
 56 H       10.2460     5.2000     1.4250 H     1 <1>   0.0800 
 57 H       11.4620     4.9530     0.2080 H     1 <1>   0.0800 
 58 H       11.0840     3.6630     1.3160 H     1 <1>   0.0800 
@<TRIPOS>BOND
  1   1   2  2   
  2   1   3  2   
  3   1   4  am  
  4   1   5  1   
  5   4   6  1   
  6   4   7  1   
  7   5   8  ar  
  8   5   9  ar  
  9   6  10  1   
 10   6  31  1   
 11   6  32  1   
 12   7  11  1   
 13   7  33  1   
 14   7  34  1   
 15   8  12  1   
 16   8  13  ar  
 17   9  14  ar  
 18   9  35  1   
 19  10  15  1   
 20  10  36  1   
 21  10  37  1   
 22  11  15  1   
 23  11  38  1   
 24  11  39  1   
 25  12  16  1   
 26  13  17  ar  
 27  13  40  1   
 28  14  17  ar  
 29  14  18  1   
 30  15  19  1   
 31  15  41  1   
 32  16  42  1   
 33  16  43  1   
 34  16  44  1   
 35  17  45  1   
 36  18  20  1   
 37  19  21  2   
 38  19  22  am  
 39  20  46  1   
 40  20  47  1   
 41  20  48  1   
 42  22  23  1   
 43  22  49  1   
 44  23  24  ar  
 45  23  25  ar  
 46  24  26  ar  
 47  24  27  1   
 48  25  28  ar  
 49  25  50  1   
 50  26  29  ar  
 51  26  30  1   
 52  27  51  1   
 53  27  52  1   
 54  27  53  1   
 55  28  29  ar  
 56  28  54  1   
 57  29  55  1   
 58  30  56  1   
 59  30  57  1   
 60  30  58  1   
@<TRIPOS>SUBSTRUCTURE
  1 ****  11 GROUP 4 **** **** 0

# MOE 2024.06 (io_trps.svl 2023.06)
