@<TRIPOS>MOLECULE
Methoxy-acetic acid 3-[(2-oxo-2H-chromene-3-carbonyl)-amino]-propyl ester
40 41 1 0 0 
SMALL
USER_CHARGES


@<TRIPOS>ATOM
  1 O       -0.3390    -0.2610    -1.2230 O.2   1 <1>  -0.5700 
  2 C       -0.4080    -1.4040    -0.8100 C.2   1 <1>   0.7060 
  3 O        0.7320    -2.1060    -0.8350 O.3   1 <1>  -0.2330 
  4 C       -1.6060    -2.0320    -0.3080 C.2   1 <1>   0.0290 
  5 C        0.8340    -3.3820    -0.4130 C.ar  1 <1>   0.0830 
  6 C       -2.8560    -1.3010    -0.2720 C.2   1 <1>   0.6160 
  7 C       -1.5210    -3.3240     0.1230 C.2   1 <1>  -0.1780 
  8 C       -0.2930    -4.0410     0.0840 C.ar  1 <1>   0.0280 
  9 C        2.0620    -4.0220    -0.4790 C.ar  1 <1>  -0.1500 
 10 O       -3.8650    -1.8630     0.1110 O.2   1 <1>  -0.5700 
 11 N       -2.9720     0.0080    -0.6470 N.am  1 <1>  -0.7300 
 12 C       -0.1530    -5.3610     0.5140 C.ar  1 <1>  -0.1500 
 13 C        2.1810    -5.3290    -0.0490 C.ar  1 <1>  -0.1500 
 14 C       -4.2120     0.8140    -0.6630 C.3   1 <1>   0.1400 
 15 C        1.0700    -5.9980     0.4480 C.ar  1 <1>  -0.1500 
 16 C       -4.0610     1.9910     0.2990 C.3   1 <1>  -0.1600 
 17 C       -5.3610     2.7920     0.3700 C.3   1 <1>   0.1200 
 18 O       -5.1610     3.8840     1.2380 O.3   1 <1>  -0.4300 
 19 C       -6.1040     4.7610     1.5850 C.2   1 <1>   0.6590 
 20 O       -5.7900     5.7870     2.1290 O.2   1 <1>  -0.5700 
 21 C       -7.5870     4.4370     1.3620 C.3   1 <1>   0.1810 
 22 O       -7.9110     4.2020     0.0120 O.3   1 <1>  -0.5600 
 23 C       -9.2710     4.0210    -0.2200 C.3   1 <1>   0.0400 
 24 H       -2.3820    -3.8440     0.5080 H     1 <1>   0.1500 
 25 H        2.9160    -3.4940    -0.8660 H     1 <1>   0.1500 
 26 H       -2.1200     0.4830    -0.9790 H     1 <1>   0.3700 
 27 H       -1.0100    -5.8840     0.8990 H     1 <1>   0.1500 
 28 H        3.1320    -5.8320    -0.0980 H     1 <1>   0.1500 
 29 H       -5.0500     0.2040    -0.3670 H     1 <1>   0.0800 
 30 H       -4.3890     1.1700    -1.6640 H     1 <1>   0.0800 
 31 H        1.1680    -7.0170     0.7820 H     1 <1>   0.1500 
 32 H       -3.2670     2.6320    -0.0410 H     1 <1>   0.0800 
 33 H       -3.8270     1.6180     1.2810 H     1 <1>   0.0800 
 34 H       -6.1610     2.1830     0.7540 H     1 <1>   0.0800 
 35 H       -5.6270     3.1780    -0.6000 H     1 <1>   0.0800 
 36 H       -8.1700     5.2720     1.7090 H     1 <1>   0.0800 
 37 H       -7.8460     3.5650     1.9330 H     1 <1>   0.0800 
 38 H       -9.4110     3.8420    -1.2720 H     1 <1>   0.0800 
 39 H       -9.8040     4.9120     0.0660 H     1 <1>   0.0800 
 40 H       -9.6210     3.1720     0.3410 H     1 <1>   0.0800 
@<TRIPOS>BOND
  1   1   2  2   
  2   2   3  1   
  3   2   4  1   
  4   3   5  1   
  5   4   6  1   
  6   4   7  2   
  7   5   8  ar  
  8   5   9  ar  
  9   6  10  2   
 10   6  11  am  
 11   7   8  1   
 12   7  24  1   
 13   8  12  ar  
 14   9  13  ar  
 15   9  25  1   
 16  11  14  1   
 17  11  26  1   
 18  12  15  ar  
 19  12  27  1   
 20  13  15  ar  
 21  13  28  1   
 22  14  16  1   
 23  14  29  1   
 24  14  30  1   
 25  15  31  1   
 26  16  17  1   
 27  16  32  1   
 28  16  33  1   
 29  17  18  1   
 30  17  34  1   
 31  17  35  1   
 32  18  19  1   
 33  19  20  2   
 34  19  21  1   
 35  21  22  1   
 36  21  36  1   
 37  21  37  1   
 38  22  23  1   
 39  23  38  1   
 40  23  39  1   
 41  23  40  1   
@<TRIPOS>SUBSTRUCTURE
  1 ****  11 GROUP 4 **** **** 0

# MOE 2024.06 (io_trps.svl 2023.06)
