@<TRIPOS>MOLECULE
2-Chloro-N-(2-isopropyl-2H-pyrazol-3-yl)-propionamide
28 28 1 0 0 
SMALL
USER_CHARGES


@<TRIPOS>ATOM
  1 CL      -1.7990    -2.9920     1.5510 Cl    1 <1>  -0.2900 
  2 C       -1.3540    -1.4660     0.7780 C.3   1 <1>   0.2710 
  3 C       -2.6010    -0.7670     0.2300 C.2   1 <1>   0.5690 
  4 C       -0.3220    -1.7950    -0.3070 C.3   1 <1>  -0.2400 
  5 O       -2.5160     0.4010    -0.0740 O.2   1 <1>  -0.5700 
  6 N       -3.7560    -1.4950     0.1070 N.am  1 <1>  -0.4940 
  7 C       -5.0280    -1.1160    -0.3880 C.2   1 <1>  -0.0880 
  8 N       -6.1360    -1.9130    -0.4170 N.pl3 1 <1>   0.3140 
  9 C       -5.4030     0.0710    -0.9190 C.2   1 <1>  -0.1500 
 10 N       -7.1940    -1.2590    -0.9530 N.2   1 <1>  -0.7070 
 11 C       -6.2960    -3.3220     0.0510 C.3   1 <1>   0.1760 
 12 C       -6.7430    -0.0790    -1.2470 C.2   1 <1>   0.1390 
 13 C       -6.0580    -3.4470     1.5640 C.3   1 <1>  -0.2400 
 14 C       -5.3980    -4.2870    -0.7410 C.3   1 <1>  -0.2400 
 15 H       -0.9110    -0.8470     1.5370 H     1 <1>   0.0800 
 16 H       -0.7550    -2.4370    -1.0530 H     1 <1>   0.0800 
 17 H        0.5350    -2.2760     0.1290 H     1 <1>   0.0800 
 18 H        0.0010    -0.8870    -0.7850 H     1 <1>   0.0800 
 19 H       -3.6790    -2.4540     0.4530 H     1 <1>   0.3700 
 20 H       -4.8090     0.9540    -1.0660 H     1 <1>   0.1500 
 21 H       -7.3190    -3.5930    -0.1440 H     1 <1>   0.0800 
 22 H       -7.3470     0.6920    -1.6950 H     1 <1>   0.1500 
 23 H       -5.0380    -3.2350     1.8230 H     1 <1>   0.0800 
 24 H       -6.2890    -4.4460     1.8880 H     1 <1>   0.0800 
 25 H       -6.7040    -2.7660     2.0900 H     1 <1>   0.0800 
 26 H       -4.3570    -4.1050    -0.5500 H     1 <1>   0.0800 
 27 H       -5.5890    -4.1790    -1.7940 H     1 <1>   0.0800 
 28 H       -5.6210    -5.3010    -0.4620 H     1 <1>   0.0800 
@<TRIPOS>BOND
  1   1   2  1   
  2   2   3  1   
  3   2   4  1   
  4   2  15  1   
  5   3   5  2   
  6   3   6  am  
  7   4  16  1   
  8   4  17  1   
  9   4  18  1   
 10   6   7  1   
 11   6  19  1   
 12   7   8  1   
 13   7   9  2   
 14   8  10  1   
 15   8  11  1   
 16   9  12  1   
 17   9  20  1   
 18  10  12  2   
 19  11  13  1   
 20  11  14  1   
 21  11  21  1   
 22  12  22  1   
 23  13  23  1   
 24  13  24  1   
 25  13  25  1   
 26  14  26  1   
 27  14  27  1   
 28  14  28  1   
@<TRIPOS>SUBSTRUCTURE
  1 ****   6 GROUP 4 **** **** 0

# MOE 2024.06 (io_trps.svl 2023.06)
