@<TRIPOS>MOLECULE
8-[4-(2-Fluoro-phenyl)-piperazin-1-ylmethyl]-7-(2-methoxy-ethyl)-1,3-dimethyl-3,
59 62 1 0 0 
SMALL
USER_CHARGES


@<TRIPOS>ATOM
  1 F        0.4120     0.9120     1.4730 F     1 <1>  -0.1900 
  2 C        1.4590     0.8050     0.6870 C.ar  1 <1>   0.1900 
  3 C        1.8310     1.8820    -0.1280 C.ar  1 <1>   0.1000 
  4 C        2.1510    -0.3900     0.7100 C.ar  1 <1>  -0.1500 
  5 N        1.1640     3.1120    -0.1870 N.pl3 1 <1>  -0.8380 
  6 C        2.9480     1.7010    -0.9330 C.ar  1 <1>  -0.1500 
  7 C        3.2610    -0.5370    -0.1060 C.ar  1 <1>  -0.1500 
  8 C        1.2640     3.9530     1.0410 C.3   1 <1>   0.2090 
  9 C       -0.2240     3.0630    -0.7260 C.3   1 <1>   0.2090 
 10 C        3.6560     0.5090    -0.9240 C.ar  1 <1>  -0.1500 
 11 C        0.6670     5.3540     0.8020 C.3   1 <1>   0.1100 
 12 C       -0.7760     4.4850    -0.9340 C.3   1 <1>   0.1100 
 13 N       -0.7330     5.2880     0.3170 N.3   1 <1>  -0.8100 
 14 C       -1.3030     6.6470     0.1160 C.3   1 <1>   0.2540 
 15 C       -2.8390     6.6050     0.0700 C.cat 1 <1>   0.6560 
 16 N       -3.5180     5.6590     0.7070 N.pl3 1 <1>  -0.7000 
 17 N       -3.6800     7.4140    -0.5690 N.pl3 1 <1>  -0.7640 
 18 C       -4.8390     5.8640     0.4940 C.2   1 <1>   0.4260 
 19 C       -4.9740     6.9580    -0.2930 C.2   1 <1>   0.2770 
 20 C       -3.3520     8.6190    -1.3930 C.3   1 <1>   0.3540 
 21 N       -5.9010     5.1140     0.9610 N.am  1 <1>  -0.4360 
 22 C       -6.2980     7.3840    -0.6460 C.2   1 <1>   0.7030 
 23 C       -3.0740     9.8440    -0.5100 C.3   1 <1>   0.1200 
 24 C       -7.1800     5.4880     0.5780 C.2   1 <1>   0.6900 
 25 C       -5.6740     3.9150     1.8220 C.3   1 <1>   0.0600 
 26 O       -6.4780     8.3780    -1.3280 O.2   1 <1>  -0.5700 
 27 N       -7.3730     6.6320    -0.1890 N.am  1 <1>  -0.4200 
 28 O       -2.0310     9.5580     0.3780 O.3   1 <1>  -0.5600 
 29 O       -8.1310     4.8090     0.9060 O.2   1 <1>  -0.5700 
 30 C       -8.7700     7.0270    -0.5530 C.3   1 <1>   0.0600 
 31 C       -1.6980    10.6230     1.2130 C.3   1 <1>   0.0400 
 32 H        1.8260    -1.1880     1.3530 H     1 <1>   0.1500 
 33 H        3.2570     2.5100    -1.5690 H     1 <1>   0.1500 
 34 H        3.8140    -1.4610    -0.1040 H     1 <1>   0.1500 
 35 H        2.2990     4.0470     1.3210 H     1 <1>   0.0800 
 36 H        0.7410     3.4760     1.8520 H     1 <1>   0.0800 
 37 H       -0.8610     2.5290    -0.0440 H     1 <1>   0.0800 
 38 H       -0.2180     2.5370    -1.6640 H     1 <1>   0.0800 
 39 H        4.5180     0.3970    -1.5590 H     1 <1>   0.1500 
 40 H        1.2840     5.8690     0.0840 H     1 <1>   0.0800 
 41 H        0.7040     5.9020     1.7280 H     1 <1>   0.0800 
 42 H       -1.7880     4.4050    -1.2880 H     1 <1>   0.0800 
 43 H       -0.1900     4.9640    -1.7000 H     1 <1>   0.0800 
 44 H       -0.9110     7.0880    -0.7830 H     1 <1>   0.0800 
 45 H       -1.0230     7.2740     0.9450 H     1 <1>   0.0800 
 46 H       -3.0400     4.9180     1.2280 H     1 <1>   0.4500 
 47 H       -4.1640     8.8420    -2.0640 H     1 <1>   0.0800 
 48 H       -2.4840     8.4220    -1.9980 H     1 <1>   0.0800 
 49 H       -3.9540    10.1020     0.0540 H     1 <1>   0.0800 
 50 H       -2.7850    10.6810    -1.1230 H     1 <1>   0.0800 
 51 H       -4.8890     4.1080     2.5320 H     1 <1>   0.0800 
 52 H       -5.4030     3.0740     1.2080 H     1 <1>   0.0800 
 53 H       -6.5670     3.6670     2.3700 H     1 <1>   0.0800 
 54 H       -8.8270     8.0740    -0.7980 H     1 <1>   0.0800 
 55 H       -9.4370     6.8400     0.2720 H     1 <1>   0.0800 
 56 H       -9.0980     6.4510    -1.4010 H     1 <1>   0.0800 
 57 H       -0.8950    10.3110     1.8570 H     1 <1>   0.0800 
 58 H       -2.5530    10.8940     1.8080 H     1 <1>   0.0800 
 59 H       -1.3740    11.4590     0.6160 H     1 <1>   0.0800 
@<TRIPOS>BOND
  1   1   2  1   
  2   2   3  ar  
  3   2   4  ar  
  4   3   5  1   
  5   3   6  ar  
  6   4   7  ar  
  7   4  32  1   
  8   5   8  1   
  9   5   9  1   
 10   6  10  ar  
 11   6  33  1   
 12   7  10  ar  
 13   7  34  1   
 14   8  11  1   
 15   8  35  1   
 16   8  36  1   
 17   9  12  1   
 18   9  37  1   
 19   9  38  1   
 20  10  39  1   
 21  11  13  1   
 22  11  40  1   
 23  11  41  1   
 24  12  13  1   
 25  12  42  1   
 26  12  43  1   
 27  13  14  1   
 28  14  15  1   
 29  14  44  1   
 30  14  45  1   
 31  15  16  ar  
 32  15  17  ar  
 33  16  18  1   
 34  16  46  1   
 35  17  19  1   
 36  17  20  1   
 37  18  19  2   
 38  18  21  1   
 39  19  22  1   
 40  20  23  1   
 41  20  47  1   
 42  20  48  1   
 43  21  24  am  
 44  21  25  1   
 45  22  26  2   
 46  22  27  am  
 47  23  28  1   
 48  23  49  1   
 49  23  50  1   
 50  24  27  am  
 51  24  29  2   
 52  25  51  1   
 53  25  52  1   
 54  25  53  1   
 55  27  30  1   
 56  28  31  1   
 57  30  54  1   
 58  30  55  1   
 59  30  56  1   
 60  31  57  1   
 61  31  58  1   
 62  31  59  1   
@<TRIPOS>SUBSTRUCTURE
  1 ****  16 GROUP 4 **** **** 0

# MOE 2024.06 (io_trps.svl 2023.06)
