@<TRIPOS>MOLECULE
7-(2,4-Dichloro-benzyl)-3-methyl-8-morpholin-4-ylmethyl-3,7-dihydro-purine-2,6-d
48 51 1 0 0 
SMALL
USER_CHARGES


@<TRIPOS>ATOM
  1 CL       0.0720    -1.9940    -1.8960 Cl    1 <1>  -0.1770 
  2 C        1.4100    -1.7090    -0.8090 C.ar  1 <1>   0.1770 
  3 C        1.3400    -2.1350     0.5130 C.ar  1 <1>  -0.1440 
  4 C        2.5270    -1.0660    -1.3060 C.ar  1 <1>  -0.1500 
  5 C        2.4210    -1.8900     1.3540 C.ar  1 <1>  -0.1500 
  6 C        0.1000    -2.8470     1.0330 C.3   1 <1>   0.4980 
  7 C        3.5910    -0.8450    -0.4550 C.ar  1 <1>   0.1770 
  8 C        3.5480    -1.2470     0.8680 C.ar  1 <1>  -0.1500 
  9 N       -0.0540    -4.1930     0.3990 N.pl3 1 <1>  -0.7640 
 10 CL       5.0160    -0.0460    -1.0600 Cl    1 <1>  -0.1770 
 11 C       -1.3070    -4.7190     0.0580 C.2   1 <1>   0.2770 
 12 C        0.8550    -5.0790    -0.0090 C.cat 1 <1>   0.6560 
 13 C       -2.6720    -4.2990     0.2210 C.2   1 <1>   0.7030 
 14 C       -1.0820    -5.9070    -0.5580 C.2   1 <1>   0.4260 
 15 N        0.2540    -6.1140    -0.5840 N.pl3 1 <1>  -0.7000 
 16 C        2.3900    -5.0290     0.1040 C.3   1 <1>   0.2540 
 17 O       -2.9930    -3.2730     0.7850 O.2   1 <1>  -0.5700 
 18 N       -3.6450    -5.1170    -0.2750 N.am  1 <1>  -0.4900 
 19 N       -2.0850    -6.7290    -1.0500 N.am  1 <1>  -0.4360 
 20 N        3.0080    -6.3730    -0.0590 N.3   1 <1>  -0.8100 
 21 C       -3.3970    -6.3080    -0.8930 C.2   1 <1>   0.6900 
 22 C       -1.7590    -8.0120    -1.7380 C.3   1 <1>   0.0600 
 23 C        4.4300    -6.2560    -0.4590 C.3   1 <1>   0.1100 
 24 C        2.9220    -7.1730     1.1880 C.3   1 <1>   0.1100 
 25 O       -4.3360    -6.9630    -1.2800 O.2   1 <1>  -0.5700 
 26 C        5.1000    -7.6390    -0.5590 C.3   1 <1>   0.1200 
 27 C        3.6300    -8.5300     1.0290 C.3   1 <1>   0.1200 
 28 O        4.9570    -8.3320     0.6460 O.3   1 <1>  -0.5600 
 29 H        2.5710    -0.7420    -2.3300 H     1 <1>   0.1500 
 30 H        2.4000    -2.1880     2.3910 H     1 <1>   0.1500 
 31 H       -0.7570    -2.2340     0.8120 H     1 <1>   0.0800 
 32 H        0.1510    -2.9610     2.1030 H     1 <1>   0.0800 
 33 H        4.3930    -1.0510     1.5070 H     1 <1>   0.1500 
 34 H        0.7910    -6.9030    -0.9590 H     1 <1>   0.4500 
 35 H        2.6770    -4.6090     1.0520 H     1 <1>   0.0800 
 36 H        2.7480    -4.3780    -0.6740 H     1 <1>   0.0800 
 37 H       -4.6190    -4.8370    -0.1730 H     1 <1>   0.3700 
 38 H       -1.0910    -7.8280    -2.5610 H     1 <1>   0.0800 
 39 H       -2.6500    -8.4790    -2.1240 H     1 <1>   0.0800 
 40 H       -1.2950    -8.6900    -1.0430 H     1 <1>   0.0800 
 41 H        4.9730    -5.6640     0.2590 H     1 <1>   0.0800 
 42 H        4.5000    -5.7690    -1.4170 H     1 <1>   0.0800 
 43 H        1.8930    -7.3480     1.4470 H     1 <1>   0.0800 
 44 H        3.3880    -6.6440     2.0030 H     1 <1>   0.0800 
 45 H        6.1530    -7.5310    -0.7520 H     1 <1>   0.0800 
 46 H        4.6610    -8.2220    -1.3490 H     1 <1>   0.0800 
 47 H        3.1430    -9.1360     0.2860 H     1 <1>   0.0800 
 48 H        3.6370    -9.0620     1.9640 H     1 <1>   0.0800 
@<TRIPOS>BOND
  1   1   2  1   
  2   2   3  ar  
  3   2   4  ar  
  4   3   5  ar  
  5   3   6  1   
  6   4   7  ar  
  7   4  29  1   
  8   5   8  ar  
  9   5  30  1   
 10   6   9  1   
 11   6  31  1   
 12   6  32  1   
 13   7   8  ar  
 14   7  10  1   
 15   8  33  1   
 16   9  11  1   
 17   9  12  ar  
 18  11  13  1   
 19  11  14  2   
 20  12  15  ar  
 21  12  16  1   
 22  13  17  2   
 23  13  18  am  
 24  14  15  1   
 25  14  19  1   
 26  15  34  1   
 27  16  20  1   
 28  16  35  1   
 29  16  36  1   
 30  18  21  am  
 31  18  37  1   
 32  19  21  am  
 33  19  22  1   
 34  20  23  1   
 35  20  24  1   
 36  21  25  2   
 37  22  38  1   
 38  22  39  1   
 39  22  40  1   
 40  23  26  1   
 41  23  41  1   
 42  23  42  1   
 43  24  27  1   
 44  24  43  1   
 45  24  44  1   
 46  26  28  1   
 47  26  45  1   
 48  26  46  1   
 49  27  28  1   
 50  27  47  1   
 51  27  48  1   
@<TRIPOS>SUBSTRUCTURE
  1 ****  12 GROUP 4 **** **** 0

# MOE 2024.06 (io_trps.svl 2023.06)
