@<TRIPOS>MOLECULE
N-Cyclohexyl-4-[3-(4-methoxy-phenyl)-[1,2,4]oxadiazol-5-yl]-butyramide
50 52 1 0 0 
SMALL
USER_CHARGES


@<TRIPOS>ATOM
  1 O        0.1550    -1.3080    -0.5220 O.2   1 <1>  -0.5700 
  2 C       -0.9050    -1.8280    -0.2860 C.2   1 <1>   0.5690 
  3 N       -1.2020    -3.0360    -0.8200 N.am  1 <1>  -0.7300 
  4 C       -1.8930    -1.1080     0.6130 C.3   1 <1>  -0.0990 
  5 C       -2.4460    -3.8200    -0.7080 C.3   1 <1>   0.2200 
  6 C       -2.9710    -0.3630    -0.2020 C.3   1 <1>  -0.1600 
  7 C       -2.1900    -5.0550     0.1580 C.3   1 <1>  -0.1600 
  8 C       -2.9190    -4.2150    -2.1090 C.3   1 <1>  -0.1600 
  9 C       -4.2390    -0.0560     0.6110 C.3   1 <1>   0.0200 
 10 C       -3.4530    -5.9240     0.2530 C.3   1 <1>  -0.1600 
 11 C       -4.1880    -5.0750    -2.0290 C.3   1 <1>  -0.1600 
 12 C       -4.9790    -1.3310     0.9780 C.2   1 <1>   0.2980 
 13 C       -3.9760    -6.3080    -1.1390 C.3   1 <1>  -0.1600 
 14 O       -4.8050    -1.8440     2.1670 O.3   1 <1>  -0.0190 
 15 N       -5.7490    -1.9820     0.2100 N.2   1 <1>  -0.5650 
 16 N       -5.5140    -2.9290     2.1480 N.2   1 <1>  -0.4100 
 17 C       -6.0770    -3.0140     0.9950 C.2   1 <1>   0.4620 
 18 C       -6.9410    -4.0940     0.5490 C.ar  1 <1>   0.0540 
 19 C       -7.6280    -4.0330    -0.6650 C.ar  1 <1>  -0.1500 
 20 C       -7.1060    -5.2500     1.3150 C.ar  1 <1>  -0.1500 
 21 C       -8.4260    -5.0760    -1.0970 C.ar  1 <1>  -0.1500 
 22 C       -7.9020    -6.2980     0.8910 C.ar  1 <1>  -0.1500 
 23 C       -8.5690    -6.2180    -0.3270 C.ar  1 <1>   0.0820 
 24 O       -9.3650    -7.1960    -0.8220 O.3   1 <1>  -0.3620 
 25 C       -9.5870    -8.3930    -0.1110 C.3   1 <1>   0.0400 
 26 H       -0.4690    -3.4550    -1.3930 H     1 <1>   0.3700 
 27 H       -1.3560    -0.4050     1.2230 H     1 <1>   0.0800 
 28 H       -2.3250    -1.8340     1.2750 H     1 <1>   0.0800 
 29 H       -3.2170    -3.2300    -0.2460 H     1 <1>   0.0800 
 30 H       -3.2540    -0.9550    -1.0560 H     1 <1>   0.0800 
 31 H       -2.5490     0.5540    -0.5760 H     1 <1>   0.0800 
 32 H       -1.8990    -4.7460     1.1460 H     1 <1>   0.0800 
 33 H       -1.3920    -5.6370    -0.2690 H     1 <1>   0.0800 
 34 H       -2.1460    -4.7720    -2.6090 H     1 <1>   0.0800 
 35 H       -3.1280    -3.3280    -2.6790 H     1 <1>   0.0800 
 36 H       -4.8960     0.5540     0.0160 H     1 <1>   0.0800 
 37 H       -3.9930     0.4940     1.5020 H     1 <1>   0.0800 
 38 H       -4.2160    -5.3800     0.7810 H     1 <1>   0.0800 
 39 H       -3.2380    -6.8150     0.8160 H     1 <1>   0.0800 
 40 H       -4.4760    -5.3900    -3.0180 H     1 <1>   0.0800 
 41 H       -4.9910    -4.4820    -1.6290 H     1 <1>   0.0800 
 42 H       -4.9070    -6.8400    -1.0380 H     1 <1>   0.0800 
 43 H       -3.2690    -6.9690    -1.6120 H     1 <1>   0.0800 
 44 H       -7.5330    -3.1570    -1.2830 H     1 <1>   0.1500 
 45 H       -6.5980    -5.3310     2.2600 H     1 <1>   0.1500 
 46 H       -8.9450    -5.0130    -2.0360 H     1 <1>   0.1500 
 47 H       -7.9920    -7.1650     1.5170 H     1 <1>   0.1500 
 48 H      -10.2470    -9.0100    -0.6930 H     1 <1>   0.0800 
 49 H      -10.0440    -8.1590     0.8340 H     1 <1>   0.0800 
 50 H       -8.6460    -8.8960     0.0290 H     1 <1>   0.0800 
@<TRIPOS>BOND
  1   1   2  2   
  2   2   3  am  
  3   2   4  1   
  4   3   5  1   
  5   3  26  1   
  6   4   6  1   
  7   4  27  1   
  8   4  28  1   
  9   5   7  1   
 10   5   8  1   
 11   5  29  1   
 12   6   9  1   
 13   6  30  1   
 14   6  31  1   
 15   7  10  1   
 16   7  32  1   
 17   7  33  1   
 18   8  11  1   
 19   8  34  1   
 20   8  35  1   
 21   9  12  1   
 22   9  36  1   
 23   9  37  1   
 24  10  13  1   
 25  10  38  1   
 26  10  39  1   
 27  11  13  1   
 28  11  40  1   
 29  11  41  1   
 30  12  14  1   
 31  12  15  2   
 32  13  42  1   
 33  13  43  1   
 34  14  16  1   
 35  15  17  1   
 36  16  17  2   
 37  17  18  1   
 38  18  19  ar  
 39  18  20  ar  
 40  19  21  ar  
 41  19  44  1   
 42  20  22  ar  
 43  20  45  1   
 44  21  23  ar  
 45  21  46  1   
 46  22  23  ar  
 47  22  47  1   
 48  23  24  1   
 49  24  25  1   
 50  25  48  1   
 51  25  49  1   
 52  25  50  1   
@<TRIPOS>SUBSTRUCTURE
  1 ****  17 GROUP 4 **** **** 0

# MOE 2024.06 (io_trps.svl 2023.06)
