@<TRIPOS>MOLECULE
4-(4-Carbamoylmethoxy-3-methoxy-phenyl)-6-methyl-2-oxo-1,2,3,4-tetrahydro-pyrimi
53 54 1 0 0 
SMALL
USER_CHARGES


@<TRIPOS>ATOM
  1 O        0.4670     0.8720    -2.1890 O.2   1 <1>  -0.5700 
  2 C        0.9500     1.7500    -1.5130 C.2   1 <1>   0.6900 
  3 N        0.6980     3.0530    -1.7960 N.am  1 <1>  -0.5390 
  4 N        1.7600     1.4590    -0.4820 N.am  1 <1>  -0.7300 
  5 C        1.2360     4.1180    -1.1030 C.2   1 <1>  -0.0290 
  6 C        2.5100     2.4730     0.2860 C.3   1 <1>   0.5020 
  7 C        2.1160     3.9010    -0.0870 C.2   1 <1>  -0.1240 
  8 C        0.7420     5.4750    -1.5760 C.3   1 <1>  -0.1020 
  9 C        4.0010     2.2640     0.0300 C.ar  1 <1>  -0.1440 
 10 C        2.7930     4.8560     0.7280 C.2   1 <1>   0.7060 
 11 C        4.8830     2.1710     1.0990 C.ar  1 <1>  -0.1500 
 12 C        4.5010     2.1930    -1.2650 C.ar  1 <1>  -0.1500 
 13 O        3.0080     4.6600     1.9090 O.2   1 <1>  -0.5700 
 14 O        3.2370     5.9720     0.1400 O.3   1 <1>  -0.4300 
 15 C        6.2400     2.0110     0.8840 C.ar  1 <1>   0.0830 
 16 C        5.8590     2.0450    -1.4900 C.ar  1 <1>  -0.1500 
 17 C        4.0910     6.9530     0.6890 C.3   1 <1>   0.2800 
 18 O        7.0410     1.9030     1.9700 O.3   1 <1>  -0.3630 
 19 C        6.7360     1.9730    -0.4220 C.ar  1 <1>   0.0830 
 20 C        4.3210     7.9560    -0.4420 C.3   1 <1>  -0.2400 
 21 C        3.4060     7.6620     1.8630 C.3   1 <1>  -0.2400 
 22 C        5.4310     6.3180     1.0830 C.3   1 <1>  -0.2400 
 23 C        7.6170     0.6350     2.1950 C.3   1 <1>   0.0400 
 24 O        8.0580     1.8820    -0.7020 O.3   1 <1>  -0.3630 
 25 C        8.8630     2.9780    -0.2800 C.3   1 <1>   0.1810 
 26 C       10.2640     2.9010    -0.8750 C.2   1 <1>   0.5690 
 27 O       11.0440     3.7960    -0.6720 O.2   1 <1>  -0.5700 
 28 N       10.6360     1.8420    -1.6230 N.am  1 <1>  -0.8000 
 29 H        0.0570     3.1850    -2.5780 H     1 <1>   0.3700 
 30 H        2.0520     0.4900    -0.3780 H     1 <1>   0.3700 
 31 H        2.2970     2.3130     1.3300 H     1 <1>   0.0800 
 32 H       -0.3290     5.4620    -1.6770 H     1 <1>   0.0800 
 33 H        1.1780     5.7090    -2.5310 H     1 <1>   0.0800 
 34 H        0.9910     6.2570    -0.8850 H     1 <1>   0.0800 
 35 H        4.5270     2.2310     2.1130 H     1 <1>   0.1500 
 36 H        3.8320     2.2610    -2.1080 H     1 <1>   0.1500 
 37 H        6.2400     1.9970    -2.4940 H     1 <1>   0.1500 
 38 H        3.3880     8.3940    -0.7490 H     1 <1>   0.0800 
 39 H        4.7760     7.4700    -1.2850 H     1 <1>   0.0800 
 40 H        4.9730     8.7460    -0.1140 H     1 <1>   0.0800 
 41 H        3.2980     7.0050     2.7060 H     1 <1>   0.0800 
 42 H        2.4380     8.0240     1.5690 H     1 <1>   0.0800 
 43 H        4.0000     8.4990     2.1810 H     1 <1>   0.0800 
 44 H        5.8420     5.7670     0.2570 H     1 <1>   0.0800 
 45 H        5.3170     5.6590     1.9240 H     1 <1>   0.0800 
 46 H        6.1300     7.0840     1.3650 H     1 <1>   0.0800 
 47 H        6.8290    -0.0910     2.2860 H     1 <1>   0.0800 
 48 H        8.1840     0.6810     3.1070 H     1 <1>   0.0800 
 49 H        8.2620     0.3860     1.3730 H     1 <1>   0.0800 
 50 H        8.9330     2.9690     0.7910 H     1 <1>   0.0800 
 51 H        8.3910     3.8890    -0.5990 H     1 <1>   0.0800 
 52 H       11.5720     1.7970    -2.0250 H     1 <1>   0.3700 
 53 H        9.9920     1.0760    -1.8280 H     1 <1>   0.3700 
@<TRIPOS>BOND
  1   1   2  2   
  2   2   3  am  
  3   2   4  am  
  4   3   5  1   
  5   3  29  1   
  6   4   6  1   
  7   4  30  1   
  8   5   7  2   
  9   5   8  1   
 10   6   7  1   
 11   6   9  1   
 12   6  31  1   
 13   7  10  1   
 14   8  32  1   
 15   8  33  1   
 16   8  34  1   
 17   9  11  ar  
 18   9  12  ar  
 19  10  13  2   
 20  10  14  1   
 21  11  15  ar  
 22  11  35  1   
 23  12  16  ar  
 24  12  36  1   
 25  14  17  1   
 26  15  18  1   
 27  15  19  ar  
 28  16  19  ar  
 29  16  37  1   
 30  17  20  1   
 31  17  21  1   
 32  17  22  1   
 33  18  23  1   
 34  19  24  1   
 35  20  38  1   
 36  20  39  1   
 37  20  40  1   
 38  21  41  1   
 39  21  42  1   
 40  21  43  1   
 41  22  44  1   
 42  22  45  1   
 43  22  46  1   
 44  23  47  1   
 45  23  48  1   
 46  23  49  1   
 47  24  25  1   
 48  25  26  1   
 49  25  50  1   
 50  25  51  1   
 51  26  27  2   
 52  26  28  am  
 53  28  52  1   
 54  28  53  1   
@<TRIPOS>SUBSTRUCTURE
  1 ****   9 GROUP 4 **** **** 0

# MOE 2024.06 (io_trps.svl 2023.06)
