@<TRIPOS>MOLECULE
1-(2-Difluoromethoxy-phenyl)-ethylamine
25 25 1 0 0 
SMALL
USER_CHARGES


@<TRIPOS>ATOM
  1 F        0.5800    -0.5780     0.2260 F     1 <1>  -0.3400 
  2 C        1.7470    -1.1810     0.3690 C.3   1 <1>   0.8800 
  3 F        2.2390    -0.7410     1.5200 F     1 <1>  -0.3400 
  4 O        2.5920    -0.6940    -0.6530 O.3   1 <1>  -0.3630 
  5 C        3.7930    -1.2980    -0.7730 C.ar  1 <1>   0.0830 
  6 C        4.9460    -0.5990    -0.4250 C.ar  1 <1>  -0.1440 
  7 C        3.8570    -2.5920    -1.2670 C.ar  1 <1>  -0.1500 
  8 C        6.1740    -1.2370    -0.5730 C.ar  1 <1>  -0.1500 
  9 C        4.7930     0.8250     0.1020 C.3   1 <1>   0.5660 
 10 C        5.0850    -3.2100    -1.4060 C.ar  1 <1>  -0.1500 
 11 C        6.2400    -2.5330    -1.0580 C.ar  1 <1>  -0.1500 
 12 N        4.2890     1.6290    -1.0060 N.4   1 <1>  -0.8530 
 13 C        6.0700     1.4830     0.6150 C.3   1 <1>  -0.2400 
 14 H        1.6300    -2.2510     0.3800 H     1 <1>   0.0800 
 15 H        2.9640    -3.1200    -1.5540 H     1 <1>   0.1500 
 16 H        7.1030    -0.7580    -0.3160 H     1 <1>   0.1500 
 17 H        4.0650     0.8140     0.8990 H     1 <1>   0.0800 
 18 H        5.1470    -4.2160    -1.7870 H     1 <1>   0.1500 
 19 H        7.1950    -3.0200    -1.1670 H     1 <1>   0.1500 
 20 H        4.9670     1.6170    -1.7710 H     1 <1>   0.4500 
 21 H        4.0860     2.5880    -0.7170 H     1 <1>   0.4500 
 22 H        3.4280     1.1750    -1.3390 H     1 <1>   0.4500 
 23 H        6.8120     1.5640    -0.1590 H     1 <1>   0.0800 
 24 H        6.4770     0.8930     1.4170 H     1 <1>   0.0800 
 25 H        5.8580     2.4610     1.0090 H     1 <1>   0.0800 
@<TRIPOS>BOND
  1   1   2  1   
  2   2   3  1   
  3   2   4  1   
  4   2  14  1   
  5   4   5  1   
  6   5   6  ar  
  7   5   7  ar  
  8   6   8  ar  
  9   6   9  1   
 10   7  10  ar  
 11   7  15  1   
 12   8  11  ar  
 13   8  16  1   
 14   9  12  1   
 15   9  13  1   
 16   9  17  1   
 17  10  11  ar  
 18  10  18  1   
 19  11  19  1   
 20  12  20  1   
 21  12  21  1   
 22  12  22  1   
 23  13  23  1   
 24  13  24  1   
 25  13  25  1   
@<TRIPOS>SUBSTRUCTURE
  1 ****   5 GROUP 4 **** **** 0

# MOE 2024.06 (io_trps.svl 2023.06)
