@<TRIPOS>MOLECULE
8-(4-Methoxy-phenyl)-1,6,7-trimethyl-3-(1-methyl-2-oxo-propyl)-1H,8H-imidazo[2,1
54 57 1 0 0 
SMALL
USER_CHARGES


@<TRIPOS>ATOM
  1 O        0.6020     0.3970     0.0010 O.2   1 <1>  -0.5740 
  2 C        1.6020     1.0420    -0.2390 C.2   1 <1>   0.6870 
  3 N        1.5090     2.3930    -0.5670 N.am  1 <1>  -0.4250 
  4 N        2.8430     0.4180    -0.1800 N.am  1 <1>  -0.4410 
  5 C        2.6410     3.1260    -0.8900 C.2   1 <1>   0.7000 
  6 C        0.2640     3.1480    -0.1900 C.3   1 <1>   0.2750 
  7 C        3.9680     1.1830    -0.4070 C.2   1 <1>   0.4210 
  8 C        2.9470    -1.0220     0.2030 C.3   1 <1>   0.0530 
  9 O        2.5470     4.2750    -1.2880 O.2   1 <1>  -0.5740 
 10 C        3.9130     2.4910    -0.7580 C.2   1 <1>   0.2710 
 11 C        0.0000     2.9860     1.3180 C.2   1 <1>   0.4430 
 12 C       -0.8910     2.7930    -1.1450 C.3   1 <1>  -0.2460 
 13 N        5.2730     0.7890    -0.3250 N.pl3 1 <1>  -0.7030 
 14 N        5.2450     2.9130    -0.9050 N.pl3 1 <1>  -0.6330 
 15 O        0.9100     3.0510     2.0930 O.2   1 <1>  -0.5740 
 16 C       -1.4130     2.7520     1.8150 C.3   1 <1>  -0.1860 
 17 C        6.0060     1.8640    -0.6300 C.cat 1 <1>   1.0690 
 18 C        6.1000     3.9580    -1.1940 C.2   1 <1>   0.2350 
 19 N        7.3090     2.1460    -0.7210 N.pl3 1 <1>  -0.5550 
 20 C        7.3650     3.4860    -1.0820 C.2   1 <1>   0.1580 
 21 C        5.5570     5.3270    -1.5530 C.3   1 <1>  -0.1090 
 22 C        8.3700     1.2560    -0.4920 C.ar  1 <1>   0.3050 
 23 C        8.7010     4.1820    -1.2860 C.3   1 <1>  -0.1090 
 24 C        8.9670     1.1830     0.7590 C.ar  1 <1>  -0.1570 
 25 C        8.8200     0.4290    -1.5110 C.ar  1 <1>  -0.1570 
 26 C        9.9940     0.2870     0.9970 C.ar  1 <1>  -0.1570 
 27 C        9.8450    -0.4690    -1.2760 C.ar  1 <1>  -0.1570 
 28 C       10.4360    -0.5490    -0.0250 C.ar  1 <1>   0.0750 
 29 O       11.4310    -1.4580     0.1190 O.3   1 <1>  -0.3680 
 30 C       12.1410    -1.5860     1.3310 C.3   1 <1>   0.0330 
 31 H        0.4360     4.2010    -0.3240 H     1 <1>   0.0730 
 32 H        2.0630    -1.5560    -0.1030 H     1 <1>   0.0730 
 33 H        3.0430    -1.1050     1.2720 H     1 <1>   0.0730 
 34 H        3.7950    -1.4820    -0.2720 H     1 <1>   0.0730 
 35 H       -1.2220     1.7790    -1.0120 H     1 <1>   0.0730 
 36 H       -0.5810     2.9310    -2.1650 H     1 <1>   0.0730 
 37 H       -1.7280     3.4430    -0.9640 H     1 <1>   0.0730 
 38 H        5.6510    -0.1190    -0.0650 H     1 <1>   0.4450 
 39 H       -1.7860     1.8190     1.4350 H     1 <1>   0.0730 
 40 H       -2.0570     3.5530     1.5030 H     1 <1>   0.0730 
 41 H       -1.4160     2.7080     2.8890 H     1 <1>   0.0730 
 42 H        4.9560     5.7070    -0.7460 H     1 <1>   0.0730 
 43 H        4.9440     5.2600    -2.4340 H     1 <1>   0.0730 
 44 H        6.3540     6.0210    -1.7430 H     1 <1>   0.0730 
 45 H        9.2600     3.6890    -2.0610 H     1 <1>   0.0730 
 46 H        9.2740     4.1550    -0.3760 H     1 <1>   0.0730 
 47 H        8.5610     5.2090    -1.5690 H     1 <1>   0.0730 
 48 H        8.6320     1.8290     1.5510 H     1 <1>   0.1430 
 49 H        8.3770     0.4840    -2.4890 H     1 <1>   0.1430 
 50 H       10.4400     0.2500     1.9740 H     1 <1>   0.1430 
 51 H       10.2020    -1.1150    -2.0600 H     1 <1>   0.1430 
 52 H       12.8880    -2.3470     1.2010 H     1 <1>   0.0730 
 53 H       11.4570    -1.8750     2.1090 H     1 <1>   0.0730 
 54 H       12.6130    -0.6470     1.5610 H     1 <1>   0.0730 
@<TRIPOS>BOND
  1   1   2  2   
  2   2   3  am  
  3   2   4  am  
  4   3   5  am  
  5   3   6  1   
  6   4   7  1   
  7   4   8  1   
  8   5   9  2   
  9   5  10  1   
 10   6  11  1   
 11   6  12  1   
 12   6  31  1   
 13   7  10  2   
 14   7  13  1   
 15   8  32  1   
 16   8  33  1   
 17   8  34  1   
 18  10  14  1   
 19  11  15  2   
 20  11  16  1   
 21  12  35  1   
 22  12  36  1   
 23  12  37  1   
 24  13  17  ar  
 25  13  38  1   
 26  14  17  ar  
 27  14  18  1   
 28  16  39  1   
 29  16  40  1   
 30  16  41  1   
 31  17  19  ar  
 32  18  20  2   
 33  18  21  1   
 34  19  20  1   
 35  19  22  1   
 36  20  23  1   
 37  21  42  1   
 38  21  43  1   
 39  21  44  1   
 40  22  24  ar  
 41  22  25  ar  
 42  23  45  1   
 43  23  46  1   
 44  23  47  1   
 45  24  26  ar  
 46  24  48  1   
 47  25  27  ar  
 48  25  49  1   
 49  26  28  ar  
 50  26  50  1   
 51  27  28  ar  
 52  27  51  1   
 53  28  29  1   
 54  29  30  1   
 55  30  52  1   
 56  30  53  1   
 57  30  54  1   
@<TRIPOS>SUBSTRUCTURE
  1 ****  17 GROUP 4 **** **** 0

# MOE 2024.06 (io_trps.svl 2023.06)
