@<TRIPOS>MOLECULE
N-Bicyclo[2.2.1]hept-2-yl-2-[(4-fluoro-benzenesulfonyl)-(4-methoxy-phenyl)-amino
55 58 1 0 0 
SMALL
USER_CHARGES


@<TRIPOS>ATOM
  1 S        0.6480    -0.2990    -0.3580 S.o2  1 <1>   1.4470 
  2 O        1.5270    -1.1910     0.3590 O.2   1 <1>  -0.6500 
  3 O        1.1350     0.4180    -1.5160 O.2   1 <1>  -0.6500 
  4 N        0.2020     0.9310     0.7730 N.am  1 <1>  -0.6930 
  5 C       -0.9370    -1.1170    -0.6920 C.ar  1 <1>  -0.0090 
  6 C       -0.8310     1.8200     0.5050 C.ar  1 <1>   0.1990 
  7 C        1.2010     1.2860     1.8310 C.3   1 <1>   0.2570 
  8 C       -1.8330    -0.5850    -1.6190 C.ar  1 <1>  -0.1500 
  9 C       -1.3060    -2.2740    -0.0070 C.ar  1 <1>  -0.1500 
 10 C       -2.0210     1.7230     1.2150 C.ar  1 <1>  -0.1500 
 11 C       -0.7120     2.8010    -0.4720 C.ar  1 <1>  -0.1500 
 12 C        2.4060     2.1250     1.3810 C.2   1 <1>   0.5690 
 13 C       -3.0590    -1.1820    -1.8610 C.ar  1 <1>  -0.1500 
 14 C       -2.5270    -2.8870    -0.2360 C.ar  1 <1>  -0.1500 
 15 C       -3.0770     2.5770     0.9530 C.ar  1 <1>  -0.1500 
 16 C       -1.7640     3.6580    -0.7380 C.ar  1 <1>  -0.1500 
 17 O        3.0670     2.6250     2.2590 O.2   1 <1>  -0.5700 
 18 N        2.6950     2.2660     0.0510 N.am  1 <1>  -0.7300 
 19 C       -3.3840    -2.3270    -1.1620 C.ar  1 <1>   0.1900 
 20 C       -2.9520     3.5530    -0.0330 C.ar  1 <1>   0.0830 
 21 C        3.7980     2.9470    -0.6780 C.3   1 <1>   0.2200 
 22 F       -4.5370    -2.8960    -1.3810 F     1 <1>  -0.1900 
 23 O       -3.9360     4.4310    -0.3620 O.3   1 <1>  -0.3630 
 24 C        4.9740     2.0040    -1.0060 C.3   1 <1>  -0.0800 
 25 C        4.4880     4.1430     0.0070 C.3   1 <1>  -0.1600 
 26 C       -5.1750     4.4170     0.3120 C.3   1 <1>   0.0400 
 27 C        6.0530     3.0130    -1.3740 C.3   1 <1>  -0.1600 
 28 C        5.5780     1.4070     0.2790 C.3   1 <1>  -0.1600 
 29 C        5.9780     3.7610    -0.0520 C.3   1 <1>  -0.0800 
 30 C        6.2300     2.6260     0.9540 C.3   1 <1>  -0.1600 
 31 H        1.5760     0.3870     2.2860 H     1 <1>   0.0800 
 32 H        0.6980     1.8410     2.6030 H     1 <1>   0.0800 
 33 H       -1.5690     0.3120    -2.1560 H     1 <1>   0.1500 
 34 H       -0.6280    -2.7010     0.7150 H     1 <1>   0.1500 
 35 H       -2.1180     0.9670     1.9740 H     1 <1>   0.1500 
 36 H        0.2030     2.8970    -1.0270 H     1 <1>   0.1500 
 37 H       -3.7510    -0.7710    -2.5750 H     1 <1>   0.1500 
 38 H       -2.8120    -3.7810     0.2910 H     1 <1>   0.1500 
 39 H       -3.9830     2.4690     1.5190 H     1 <1>   0.1500 
 40 H       -1.6720     4.4160    -1.4950 H     1 <1>   0.1500 
 41 H        2.1120     1.7260    -0.6000 H     1 <1>   0.3700 
 42 H        3.3900     3.3010    -1.6100 H     1 <1>   0.0800 
 43 H        4.7530     1.2830    -1.7730 H     1 <1>   0.0800 
 44 H        4.1640     4.3360     1.0100 H     1 <1>   0.0800 
 45 H        4.3220     5.0290    -0.5790 H     1 <1>   0.0800 
 46 H       -5.7910     5.1930    -0.1050 H     1 <1>   0.0800 
 47 H       -5.0060     4.6080     1.3570 H     1 <1>   0.0800 
 48 H       -5.6430     3.4600     0.1640 H     1 <1>   0.0800 
 49 H        5.7850     3.6280    -2.2170 H     1 <1>   0.0800 
 50 H        7.0140     2.5560    -1.5390 H     1 <1>   0.0800 
 51 H        6.3290     0.6780     0.0300 H     1 <1>   0.0800 
 52 H        4.8430     0.9390     0.9090 H     1 <1>   0.0800 
 53 H        6.6510     4.5960     0.0500 H     1 <1>   0.0800 
 54 H        7.2850     2.4610     1.0840 H     1 <1>   0.0800 
 55 H        5.7840     2.8370     1.9120 H     1 <1>   0.0800 
@<TRIPOS>BOND
  1   1   2  2   
  2   1   3  2   
  3   1   4  am  
  4   1   5  1   
  5   4   6  1   
  6   4   7  1   
  7   5   8  ar  
  8   5   9  ar  
  9   6  10  ar  
 10   6  11  ar  
 11   7  12  1   
 12   7  31  1   
 13   7  32  1   
 14   8  13  ar  
 15   8  33  1   
 16   9  14  ar  
 17   9  34  1   
 18  10  15  ar  
 19  10  35  1   
 20  11  16  ar  
 21  11  36  1   
 22  12  17  2   
 23  12  18  am  
 24  13  19  ar  
 25  13  37  1   
 26  14  19  ar  
 27  14  38  1   
 28  15  20  ar  
 29  15  39  1   
 30  16  20  ar  
 31  16  40  1   
 32  18  21  1   
 33  18  41  1   
 34  19  22  1   
 35  20  23  1   
 36  21  24  1   
 37  21  25  1   
 38  21  42  1   
 39  23  26  1   
 40  24  27  1   
 41  24  28  1   
 42  24  43  1   
 43  25  29  1   
 44  25  44  1   
 45  25  45  1   
 46  26  46  1   
 47  26  47  1   
 48  26  48  1   
 49  27  29  1   
 50  27  49  1   
 51  27  50  1   
 52  28  30  1   
 53  28  51  1   
 54  28  52  1   
 55  29  30  1   
 56  29  53  1   
 57  30  54  1   
 58  30  55  1   
@<TRIPOS>SUBSTRUCTURE
  1 ****   4 GROUP 4 **** **** 0

# MOE 2024.06 (io_trps.svl 2023.06)
