@<TRIPOS>MOLECULE
3-(2-Ethoxy-ethyl)-8-(4-methoxy-benzyl)-1,6,7-trimethyl-1H,8H-imidazo[2,1-f]puri
59 62 1 0 0 
SMALL
USER_CHARGES


@<TRIPOS>ATOM
  1 O        2.2620     0.9130    -2.2870 O.2   1 <1>  -0.5740 
  2 C        2.8560     1.1440    -1.2540 C.2   1 <1>   0.6870 
  3 N        2.1930     1.7370    -0.1840 N.am  1 <1>  -0.4250 
  4 N        4.2030     0.8240    -1.1460 N.am  1 <1>  -0.4410 
  5 C        2.8620     2.0670     0.9890 C.2   1 <1>   0.7000 
  6 C        0.7270     2.0220    -0.3020 C.3   1 <1>   0.1340 
  7 C        4.8460     1.1210     0.0370 C.2   1 <1>   0.4210 
  8 C        4.9370     0.1510    -2.2620 C.3   1 <1>   0.0540 
  9 O        2.2850     2.6430     1.8950 O.2   1 <1>  -0.5740 
 10 C        4.2420     1.7200     1.0910 C.2   1 <1>   0.2720 
 11 C        0.4920     3.3780    -0.9670 C.3   1 <1>   0.1140 
 12 N        6.1460     0.8800     0.3470 N.pl3 1 <1>  -0.7030 
 13 N        5.2280     1.8510     2.0890 N.pl3 1 <1>  -0.6320 
 14 O       -0.8760     3.6110    -0.9890 O.3   1 <1>  -0.5640 
 15 C        6.3430     1.3320     1.5900 C.cat 1 <1>   1.0690 
 16 C        5.5270     2.2860     3.3630 C.2   1 <1>   0.2350 
 17 C       -1.2350     4.8050    -1.5980 C.3   1 <1>   0.1140 
 18 N        7.3600     1.4020     2.4640 N.pl3 1 <1>  -0.5710 
 19 C        6.8340     2.0100     3.5930 C.2   1 <1>   0.1590 
 20 C        4.4620     2.9380     4.2250 C.3   1 <1>  -0.1080 
 21 C       -2.7530     4.9110    -1.5410 C.3   1 <1>  -0.2460 
 22 C        8.7620     0.9300     2.2710 C.3   1 <1>   0.3060 
 23 C        7.6880     2.2700     4.8240 C.3   1 <1>  -0.1080 
 24 C        8.9090     0.3830     0.8620 C.ar  1 <1>  -0.1500 
 25 C        9.2410     1.2320    -0.1840 C.ar  1 <1>  -0.1560 
 26 C        8.6190    -0.9480     0.5990 C.ar  1 <1>  -0.1560 
 27 C        9.2330     0.7700    -1.4880 C.ar  1 <1>  -0.1560 
 28 C        8.6060    -1.4070    -0.7040 C.ar  1 <1>  -0.1560 
 29 C        8.8950    -0.5520    -1.7540 C.ar  1 <1>   0.0760 
 30 O        8.8190    -1.0710    -3.0010 O.3   1 <1>  -0.3670 
 31 C        9.3600    -0.3900    -4.1130 C.3   1 <1>   0.0330 
 32 H        0.2700     2.0220     0.6720 H     1 <1>   0.0740 
 33 H        0.2530     1.2550    -0.8900 H     1 <1>   0.0740 
 34 H        4.4030     0.2590    -3.1910 H     1 <1>   0.0740 
 35 H        5.0420    -0.8990    -2.0480 H     1 <1>   0.0740 
 36 H        5.9130     0.5860    -2.3850 H     1 <1>   0.0740 
 37 H        0.8550     3.3690    -1.9810 H     1 <1>   0.0740 
 38 H        0.9600     4.1650    -0.4000 H     1 <1>   0.0740 
 39 H        6.8910     0.4420    -0.2080 H     1 <1>   0.4460 
 40 H       -0.8940     4.7910    -2.6200 H     1 <1>   0.0740 
 41 H       -0.7770     5.6210    -1.0650 H     1 <1>   0.0740 
 42 H        3.6430     2.2570     4.3750 H     1 <1>   0.0740 
 43 H        4.0870     3.8210     3.7400 H     1 <1>   0.0740 
 44 H        4.8560     3.2160     5.1840 H     1 <1>   0.0740 
 45 H       -3.2010     4.0860    -2.0650 H     1 <1>   0.0740 
 46 H       -3.0720     5.8270    -2.0040 H     1 <1>   0.0740 
 47 H       -3.0840     4.9100    -0.5180 H     1 <1>   0.0740 
 48 H        8.9880     0.1620     2.9910 H     1 <1>   0.0740 
 49 H        9.4440     1.7500     2.4210 H     1 <1>   0.0740 
 50 H        8.0740     1.3440     5.2100 H     1 <1>   0.0740 
 51 H        7.1120     2.7440     5.5970 H     1 <1>   0.0740 
 52 H        8.5120     2.9150     4.5750 H     1 <1>   0.0740 
 53 H        9.4960     2.2630     0.0040 H     1 <1>   0.1440 
 54 H        8.3870    -1.6330     1.3990 H     1 <1>   0.1440 
 55 H        9.4880     1.4480    -2.2820 H     1 <1>   0.1440 
 56 H        8.3750    -2.4370    -0.9190 H     1 <1>   0.1440 
 57 H        9.2810    -1.0340    -4.9700 H     1 <1>   0.0740 
 58 H       10.3950    -0.1690    -3.9170 H     1 <1>   0.0740 
 59 H        8.7990     0.5110    -4.2820 H     1 <1>   0.0740 
@<TRIPOS>BOND
  1   1   2  2   
  2   2   3  am  
  3   2   4  am  
  4   3   5  am  
  5   3   6  1   
  6   4   7  1   
  7   4   8  1   
  8   5   9  2   
  9   5  10  1   
 10   6  11  1   
 11   6  32  1   
 12   6  33  1   
 13   7  10  2   
 14   7  12  1   
 15   8  34  1   
 16   8  35  1   
 17   8  36  1   
 18  10  13  1   
 19  11  14  1   
 20  11  37  1   
 21  11  38  1   
 22  12  15  ar  
 23  12  39  1   
 24  13  15  ar  
 25  13  16  1   
 26  14  17  1   
 27  15  18  ar  
 28  16  19  2   
 29  16  20  1   
 30  17  21  1   
 31  17  40  1   
 32  17  41  1   
 33  18  19  1   
 34  18  22  1   
 35  19  23  1   
 36  20  42  1   
 37  20  43  1   
 38  20  44  1   
 39  21  45  1   
 40  21  46  1   
 41  21  47  1   
 42  22  24  1   
 43  22  48  1   
 44  22  49  1   
 45  23  50  1   
 46  23  51  1   
 47  23  52  1   
 48  24  25  ar  
 49  24  26  ar  
 50  25  27  ar  
 51  25  53  1   
 52  26  28  ar  
 53  26  54  1   
 54  27  29  ar  
 55  27  55  1   
 56  28  29  ar  
 57  28  56  1   
 58  29  30  1   
 59  30  31  1   
 60  31  57  1   
 61  31  58  1   
 62  31  59  1   
@<TRIPOS>SUBSTRUCTURE
  1 ****   7 GROUP 4 **** **** 0

# MOE 2024.06 (io_trps.svl 2023.06)
