@<TRIPOS>MOLECULE
1-(4-Fluoro-benzenesulfonyl)-piperidine-3-carboxylic acid (3-imidazol-1-yl-propy
50 52 1 0 0 
SMALL
USER_CHARGES


@<TRIPOS>ATOM
  1 S        0.1350    -0.5960     1.2630 S.o2  1 <1>   1.4470 
  2 O       -0.8800    -1.4560     1.8310 O.2   1 <1>  -0.6500 
  3 O        1.2150    -0.1210     2.1040 O.2   1 <1>  -0.6500 
  4 N        0.8560    -1.4560    -0.0090 N.am  1 <1>  -0.8490 
  5 C       -0.6680     0.7980     0.4200 C.ar  1 <1>  -0.0090 
  6 C        2.0350    -0.7720    -0.5870 C.3   1 <1>   0.1960 
  7 C        1.0690    -2.8700     0.3480 C.3   1 <1>   0.1960 
  8 C       -1.4880     0.5820    -0.6860 C.ar  1 <1>  -0.1500 
  9 C       -0.4870     2.1070     0.8650 C.ar  1 <1>  -0.1500 
 10 C        3.3500    -1.3480    -0.0470 C.3   1 <1>  -0.0190 
 11 C        2.1170    -3.5310    -0.5550 C.3   1 <1>  -0.1600 
 12 C       -2.1080     1.6350    -1.3390 C.ar  1 <1>  -0.1500 
 13 C       -1.0990     3.1730     0.2260 C.ar  1 <1>  -0.1500 
 14 C        4.5220    -0.5110    -0.5330 C.2   1 <1>   0.5690 
 15 C        3.4880    -2.8350    -0.4430 C.3   1 <1>  -0.1600 
 16 C       -1.9010     2.9160    -0.8680 C.ar  1 <1>   0.1900 
 17 O        4.6220    -0.2600    -1.7100 O.2   1 <1>  -0.5700 
 18 N        5.4270    -0.0650     0.3760 N.am  1 <1>  -0.7300 
 19 F       -2.4800     3.9140    -1.4760 F     1 <1>  -0.1900 
 20 C        6.6160     0.7470     0.0520 C.3   1 <1>   0.1400 
 21 C        7.8660    -0.0990     0.2800 C.3   1 <1>  -0.1600 
 22 C        9.1260     0.6700    -0.1330 C.3   1 <1>   0.0960 
 23 N       10.3280    -0.1490     0.1130 N.pl3 1 <1>   0.0480 
 24 C       11.1550    -0.1090     1.1810 C.2   1 <1>   0.0360 
 25 C       10.8390    -1.1090    -0.6780 C.2   1 <1>  -0.3020 
 26 N       12.1310    -0.9560     1.1250 N.2   1 <1>  -0.5650 
 27 C       11.9340    -1.5880    -0.0470 C.2   1 <1>   0.0770 
 28 H        1.9910     0.2880    -0.3970 H     1 <1>   0.0800 
 29 H        2.0170    -0.9030    -1.6560 H     1 <1>   0.0800 
 30 H        0.1320    -3.3960     0.2730 H     1 <1>   0.0800 
 31 H        1.4030    -2.9400     1.3720 H     1 <1>   0.0800 
 32 H       -1.6390    -0.4260    -1.0380 H     1 <1>   0.1500 
 33 H        0.1400     2.2930     1.7210 H     1 <1>   0.1500 
 34 H        3.3200    -1.2760     1.0250 H     1 <1>   0.0800 
 35 H        1.7640    -3.4840    -1.5710 H     1 <1>   0.0800 
 36 H        2.2160    -4.5700    -0.2950 H     1 <1>   0.0800 
 37 H       -2.7400     1.4690    -2.1930 H     1 <1>   0.1500 
 38 H       -0.9600     4.1840     0.5670 H     1 <1>   0.1500 
 39 H        4.0950    -3.3340     0.2920 H     1 <1>   0.0800 
 40 H        3.9910    -2.9200    -1.3920 H     1 <1>   0.0800 
 41 H        5.3000    -0.2960     1.3640 H     1 <1>   0.3700 
 42 H        6.6300     1.6240     0.6780 H     1 <1>   0.0800 
 43 H        6.5700     1.0650    -0.9770 H     1 <1>   0.0800 
 44 H        7.7940    -0.9960    -0.3110 H     1 <1>   0.0800 
 45 H        7.9340    -0.3650     1.3210 H     1 <1>   0.0800 
 46 H        9.2090     1.5820     0.4290 H     1 <1>   0.0800 
 47 H        9.0860     0.9130    -1.1800 H     1 <1>   0.0800 
 48 H       11.0010     0.5740     1.9980 H     1 <1>   0.1500 
 49 H       10.4110    -1.3960    -1.6210 H     1 <1>   0.1500 
 50 H       12.6010    -2.3670    -0.3800 H     1 <1>   0.1500 
@<TRIPOS>BOND
  1   1   2  2   
  2   1   3  2   
  3   1   4  am  
  4   1   5  1   
  5   4   6  1   
  6   4   7  1   
  7   5   8  ar  
  8   5   9  ar  
  9   6  10  1   
 10   6  28  1   
 11   6  29  1   
 12   7  11  1   
 13   7  30  1   
 14   7  31  1   
 15   8  12  ar  
 16   8  32  1   
 17   9  13  ar  
 18   9  33  1   
 19  10  14  1   
 20  10  15  1   
 21  10  34  1   
 22  11  15  1   
 23  11  35  1   
 24  11  36  1   
 25  12  16  ar  
 26  12  37  1   
 27  13  16  ar  
 28  13  38  1   
 29  14  17  2   
 30  14  18  am  
 31  15  39  1   
 32  15  40  1   
 33  16  19  1   
 34  18  20  1   
 35  18  41  1   
 36  20  21  1   
 37  20  42  1   
 38  20  43  1   
 39  21  22  1   
 40  21  44  1   
 41  21  45  1   
 42  22  23  1   
 43  22  46  1   
 44  22  47  1   
 45  23  24  1   
 46  23  25  1   
 47  24  26  2   
 48  24  48  1   
 49  25  27  2   
 50  25  49  1   
 51  26  27  1   
 52  27  50  1   
@<TRIPOS>SUBSTRUCTURE
  1 ****  14 GROUP 4 **** **** 0

# MOE 2024.06 (io_trps.svl 2023.06)
