@<TRIPOS>MOLECULE
1-(4-Fluoro-phenyl)-4-(piperidine-1-sulfonyl)-piperazine
44 46 1 0 0 
SMALL
USER_CHARGES


@<TRIPOS>ATOM
  1 S        0.7240    -0.4060    -1.4190 S.o2  1 <1>   1.5760 
  2 O        1.3390    -1.6850    -1.6940 O.2   1 <1>  -0.6500 
  3 O        0.2600     0.4330    -2.5020 O.2   1 <1>  -0.6500 
  4 N        1.7950     0.4840    -0.4710 N.am  1 <1>  -0.8490 
  5 N       -0.5410    -0.6200    -0.3250 N.am  1 <1>  -0.8490 
  6 C        2.3240    -0.3220     0.6460 C.3   1 <1>   0.1960 
  7 C        2.9050     0.9930    -1.2930 C.3   1 <1>   0.1960 
  8 C       -1.2410     0.6420    -0.0640 C.3   1 <1>   0.1960 
  9 C       -1.4690    -1.6450    -0.8020 C.3   1 <1>   0.1960 
 10 C        3.3100     0.4640     1.5300 C.3   1 <1>   0.2090 
 11 C        3.9160     1.8250    -0.4790 C.3   1 <1>   0.2090 
 12 C       -2.2930     0.4450     1.0330 C.3   1 <1>  -0.1600 
 13 C       -2.5380    -1.9280     0.2600 C.3   1 <1>  -0.1600 
 14 N        4.4040     1.1060     0.7380 N.pl3 1 <1>  -0.8380 
 15 C       -3.2930    -0.6530     0.6520 C.3   1 <1>  -0.1600 
 16 C        5.6280     0.4520     0.6630 C.ar  1 <1>   0.1000 
 17 C        6.7210     0.9880     1.3370 C.ar  1 <1>  -0.1500 
 18 C        5.7880    -0.7230    -0.0690 C.ar  1 <1>  -0.1500 
 19 C        7.9580     0.3690     1.2880 C.ar  1 <1>  -0.1500 
 20 C        7.0180    -1.3550    -0.1290 C.ar  1 <1>  -0.1500 
 21 C        8.0810    -0.7950     0.5530 C.ar  1 <1>   0.1900 
 22 F        9.2460    -1.3880     0.5000 F     1 <1>  -0.1900 
 23 H        2.8230    -1.1980     0.2680 H     1 <1>   0.0800 
 24 H        1.5080    -0.6570     1.2630 H     1 <1>   0.0800 
 25 H        2.5100     1.6150    -2.0780 H     1 <1>   0.0800 
 26 H        3.4220     0.1710    -1.7580 H     1 <1>   0.0800 
 27 H       -1.7140     0.9960    -0.9650 H     1 <1>   0.0800 
 28 H       -0.5360     1.3900     0.2590 H     1 <1>   0.0800 
 29 H       -0.9310    -2.5570    -1.0020 H     1 <1>   0.0800 
 30 H       -1.9350    -1.3200    -1.7190 H     1 <1>   0.0800 
 31 H        3.7400    -0.1990     2.2610 H     1 <1>   0.0800 
 32 H        2.7710     1.2300     2.0600 H     1 <1>   0.0800 
 33 H        3.4460     2.7430    -0.1730 H     1 <1>   0.0800 
 34 H        4.7540     2.0790    -1.1040 H     1 <1>   0.0800 
 35 H       -2.8150     1.3700     1.1960 H     1 <1>   0.0800 
 36 H       -1.7920     0.1810     1.9480 H     1 <1>   0.0800 
 37 H       -2.0580    -2.3480     1.1270 H     1 <1>   0.0800 
 38 H       -3.2310    -2.6590    -0.1170 H     1 <1>   0.0800 
 39 H       -3.8880    -0.3200    -0.1820 H     1 <1>   0.0800 
 40 H       -3.9540    -0.8530     1.4770 H     1 <1>   0.0800 
 41 H        6.5850     1.8940     1.8980 H     1 <1>   0.1500 
 42 H        4.9500    -1.1420    -0.5920 H     1 <1>   0.1500 
 43 H        8.8070     0.7750     1.8060 H     1 <1>   0.1500 
 44 H        7.1540    -2.2620    -0.6900 H     1 <1>   0.1500 
@<TRIPOS>BOND
  1   1   2  2   
  2   1   3  2   
  3   1   4  am  
  4   1   5  am  
  5   4   6  1   
  6   4   7  1   
  7   5   8  1   
  8   5   9  1   
  9   6  10  1   
 10   6  23  1   
 11   6  24  1   
 12   7  11  1   
 13   7  25  1   
 14   7  26  1   
 15   8  12  1   
 16   8  27  1   
 17   8  28  1   
 18   9  13  1   
 19   9  29  1   
 20   9  30  1   
 21  10  14  1   
 22  10  31  1   
 23  10  32  1   
 24  11  14  1   
 25  11  33  1   
 26  11  34  1   
 27  12  15  1   
 28  12  35  1   
 29  12  36  1   
 30  13  15  1   
 31  13  37  1   
 32  13  38  1   
 33  14  16  1   
 34  15  39  1   
 35  15  40  1   
 36  16  17  ar  
 37  16  18  ar  
 38  17  19  ar  
 39  17  41  1   
 40  18  20  ar  
 41  18  42  1   
 42  19  21  ar  
 43  19  43  1   
 44  20  21  ar  
 45  20  44  1   
 46  21  22  1   
@<TRIPOS>SUBSTRUCTURE
  1 ****   6 GROUP 4 **** **** 0

# MOE 2024.06 (io_trps.svl 2023.06)
