@<TRIPOS>MOLECULE
NONAME
55 58 1 0 0 
SMALL
USER_CHARGES


@<TRIPOS>ATOM
  1 O       -2.2980     0.1910     2.2040 O.2   1 <1>  -0.5700 
  2 C       -2.4330     1.0180     1.3380 C.2   1 <1>   0.4950 
  3 C       -2.9140     0.7460     0.0360 C.2   1 <1>  -0.1240 
  4 C       -2.0840     2.4690     1.6370 C.3   1 <1>  -0.0990 
  5 C       -2.9830     1.6390    -0.9680 C.2   1 <1>  -0.0290 
  6 C       -3.4420    -0.6060    -0.4340 C.3   1 <1>   0.4810 
  7 C       -1.5710     3.2460     0.3940 C.3   1 <1>   0.0000 
  8 N       -3.4930     1.0850    -2.1190 N.am  1 <1>  -0.4690 
  9 C       -2.5350     3.0850    -0.8120 C.3   1 <1>  -0.0220 
 10 C       -2.4260    -1.7480    -0.2870 C.2   1 <1>  -0.1240 
 11 C       -4.7710    -0.8720     0.2800 C.ar  1 <1>  -0.1440 
 12 C       -3.7290    -0.2520    -1.9090 C.2   1 <1>   0.5690 
 13 C       -0.1720     2.7250     0.0100 C.3   1 <1>  -0.2400 
 14 C       -1.4400     4.7360     0.7460 C.3   1 <1>  -0.2400 
 15 C       -3.6460     1.7320    -3.4390 C.3   1 <1>   0.3400 
 16 C       -2.7810    -2.8520     0.4420 C.2   1 <1>   0.1770 
 17 C       -1.1760    -1.5540    -0.9450 C.2   1 <1>   0.7060 
 18 C       -4.9440    -2.0530     0.9840 C.ar  1 <1>   0.0820 
 19 C       -5.8180     0.0430     0.2440 C.ar  1 <1>  -0.1500 
 20 O       -4.0990    -1.0340    -2.7560 O.2   1 <1>  -0.5700 
 21 C       -4.6620     2.8230    -3.3520 C.1   1 <1>  -0.2000 
 22 O       -3.9670    -2.9810     1.0440 O.3   1 <1>  -0.1590 
 23 N       -2.0010    -3.9490     0.6520 N.pl3 1 <1>  -0.9000 
 24 O       -0.8890    -0.5520    -1.5800 O.2   1 <1>  -0.5700 
 25 O       -0.2340    -2.5130    -0.8780 O.3   1 <1>  -0.4300 
 26 C       -6.1330    -2.3170     1.6460 C.ar  1 <1>  -0.1500 
 27 C       -7.0080    -0.2190     0.9030 C.ar  1 <1>  -0.1500 
 28 C       -5.4720     3.6910    -3.2810 C.1   1 <1>  -0.1770 
 29 C        1.0110    -2.4260    -1.5440 C.3   1 <1>   0.1200 
 30 C       -7.1660    -1.4000     1.6070 C.ar  1 <1>  -0.1500 
 31 C        0.8340    -2.9030    -2.9840 C.3   1 <1>  -0.2400 
 32 H       -1.3440     2.4930     2.4170 H     1 <1>   0.0800 
 33 H       -2.9720     2.9390     2.0180 H     1 <1>   0.0800 
 34 H       -3.4120     3.6910    -0.6710 H     1 <1>   0.0800 
 35 H       -2.0460     3.4180    -1.7110 H     1 <1>   0.0800 
 36 H        0.5120     2.8310     0.8330 H     1 <1>   0.0800 
 37 H        0.2220     3.2750    -0.8260 H     1 <1>   0.0800 
 38 H       -0.2030     1.6860    -0.2650 H     1 <1>   0.0800 
 39 H       -2.3940     5.1460     1.0300 H     1 <1>   0.0800 
 40 H       -1.0710     5.2940    -0.0970 H     1 <1>   0.0800 
 41 H       -0.7570     4.8730     1.5660 H     1 <1>   0.0800 
 42 H       -3.9600     1.0080    -4.1700 H     1 <1>   0.0800 
 43 H       -2.6980     2.1350    -3.7470 H     1 <1>   0.0800 
 44 H       -5.7240     0.9690    -0.2980 H     1 <1>   0.1500 
 45 H       -1.0430    -4.0070     0.2830 H     1 <1>   0.4000 
 46 H       -2.3030    -4.7260     1.2460 H     1 <1>   0.4000 
 47 H       -6.2420    -3.2390     2.1890 H     1 <1>   0.1500 
 48 H       -7.8110     0.4960     0.8670 H     1 <1>   0.1500 
 49 H       -6.2100     4.4730    -3.2210 H     1 <1>   0.1770 
 50 H        1.7030    -3.0640    -1.0220 H     1 <1>   0.0800 
 51 H        1.3720    -1.4120    -1.5010 H     1 <1>   0.0800 
 52 H       -8.0900    -1.6040     2.1200 H     1 <1>   0.1500 
 53 H        0.4600    -3.9110    -3.0000 H     1 <1>   0.0800 
 54 H        1.7820    -2.8800    -3.4910 H     1 <1>   0.0800 
 55 H        0.1530    -2.2580    -3.5110 H     1 <1>   0.0800 
@<TRIPOS>BOND
  1   1   2  2   
  2   2   3  1   
  3   2   4  1   
  4   3   5  2   
  5   3   6  1   
  6   4   7  1   
  7   4  32  1   
  8   4  33  1   
  9   5   8  1   
 10   5   9  1   
 11   6  10  1   
 12   6  11  1   
 13   6  12  1   
 14   7   9  1   
 15   7  13  1   
 16   7  14  1   
 17   8  12  am  
 18   8  15  1   
 19   9  34  1   
 20   9  35  1   
 21  10  16  2   
 22  10  17  1   
 23  11  18  ar  
 24  11  19  ar  
 25  12  20  2   
 26  13  36  1   
 27  13  37  1   
 28  13  38  1   
 29  14  39  1   
 30  14  40  1   
 31  14  41  1   
 32  15  21  1   
 33  15  42  1   
 34  15  43  1   
 35  16  22  1   
 36  16  23  1   
 37  17  24  2   
 38  17  25  1   
 39  18  22  1   
 40  18  26  ar  
 41  19  27  ar  
 42  19  44  1   
 43  21  28  3   
 44  23  45  1   
 45  23  46  1   
 46  25  29  1   
 47  26  30  ar  
 48  26  47  1   
 49  27  30  ar  
 50  27  48  1   
 51  28  49  1   
 52  29  31  1   
 53  29  50  1   
 54  29  51  1   
 55  30  52  1   
 56  31  53  1   
 57  31  54  1   
 58  31  55  1   
@<TRIPOS>SUBSTRUCTURE
  1 ****   6 GROUP 4 **** **** 0

# MOE 2024.06 (io_trps.svl 2023.06)
