@<TRIPOS>MOLECULE
(2,6-Dimethyl-morpholin-4-yl)-[5-(4-isopropyl-phenoxymethyl)-furan-2-yl]-methano
53 55 1 0 0 
SMALL
USER_CHARGES


@<TRIPOS>ATOM
  1 O       -0.5270    -0.4070     0.2470 O.2   1 <1>  -0.5700 
  2 C       -0.7530    -1.5400    -0.1430 C.2   1 <1>   0.7150 
  3 N        0.2900    -2.4450    -0.1430 N.am  1 <1>  -0.6600 
  4 C       -2.0790    -1.9110    -0.5930 C.2   1 <1>   0.0550 
  5 C        0.0920    -3.9260    -0.1820 C.3   1 <1>   0.1400 
  6 C        1.6820    -2.0070     0.1810 C.3   1 <1>   0.1400 
  7 O       -3.1630    -1.4370     0.0150 O.3   1 <1>  -0.2800 
  8 C       -2.4870    -2.7240    -1.6100 C.2   1 <1>  -0.1500 
  9 C        1.1920    -4.6560     0.6140 C.3   1 <1>   0.2000 
 10 C        2.7270    -3.0360    -0.3030 C.3   1 <1>   0.2000 
 11 C       -4.2360    -1.9190    -0.5700 C.2   1 <1>  -0.0400 
 12 C       -3.8820    -2.7300    -1.5900 C.2   1 <1>  -0.1500 
 13 O        2.4690    -4.3470     0.1320 O.3   1 <1>  -0.5600 
 14 C        1.0470    -6.1730     0.5370 C.3   1 <1>  -0.2400 
 15 C        4.1360    -2.6850     0.1680 C.3   1 <1>  -0.2400 
 16 C       -5.5980    -1.5090    -0.0410 C.3   1 <1>   0.3000 
 17 O       -6.6100    -2.1700    -0.7730 O.3   1 <1>  -0.3630 
 18 C       -7.9210    -1.9690    -0.4890 C.ar  1 <1>   0.0820 
 19 C       -8.3790    -1.1190     0.5140 C.ar  1 <1>  -0.1500 
 20 C       -8.8390    -2.6630    -1.2590 C.ar  1 <1>  -0.1500 
 21 C       -9.7380    -0.9760     0.7320 C.ar  1 <1>  -0.1500 
 22 C      -10.1960    -2.5160    -1.0370 C.ar  1 <1>  -0.1500 
 23 C      -10.6600    -1.6720    -0.0390 C.ar  1 <1>  -0.1430 
 24 C      -12.1630    -1.5220     0.1940 C.3   1 <1>   0.0630 
 25 C      -12.6120    -0.0770    -0.0450 C.3   1 <1>  -0.2400 
 26 C      -12.5480    -1.9860     1.6020 C.3   1 <1>  -0.2400 
 27 H        0.1140    -4.2630    -1.2030 H     1 <1>   0.0800 
 28 H       -0.8670    -4.1750     0.2390 H     1 <1>   0.0800 
 29 H        1.7710    -1.8750     1.2460 H     1 <1>   0.0800 
 30 H        1.8770    -1.0570    -0.2850 H     1 <1>   0.0800 
 31 H       -1.8760    -3.2610    -2.3120 H     1 <1>   0.1500 
 32 H        1.1490    -4.3470     1.6450 H     1 <1>   0.0800 
 33 H        2.7120    -3.0550    -1.3800 H     1 <1>   0.0800 
 34 H       -4.5260    -3.2730    -2.2610 H     1 <1>   0.1500 
 35 H        1.1220    -6.5050    -0.4830 H     1 <1>   0.0800 
 36 H        0.0940    -6.4760     0.9320 H     1 <1>   0.0800 
 37 H        1.8200    -6.6410     1.1190 H     1 <1>   0.0800 
 38 H        4.1820    -2.6910     1.2420 H     1 <1>   0.0800 
 39 H        4.4120    -1.7080    -0.1850 H     1 <1>   0.0800 
 40 H        4.8390    -3.3990    -0.2220 H     1 <1>   0.0800 
 41 H       -5.7300    -0.4480    -0.1550 H     1 <1>   0.0800 
 42 H       -5.6880    -1.7890     0.9930 H     1 <1>   0.0800 
 43 H       -7.7030    -0.5620     1.1330 H     1 <1>   0.1500 
 44 H       -8.4840    -3.3180    -2.0330 H     1 <1>   0.1500 
 45 H      -10.0780    -0.3170     1.5100 H     1 <1>   0.1500 
 46 H      -10.8890    -3.0670    -1.6480 H     1 <1>   0.1500 
 47 H      -12.6850    -2.1470    -0.5110 H     1 <1>   0.0800 
 48 H      -12.1580     0.5890     0.6670 H     1 <1>   0.0800 
 49 H      -13.6800     0.0010     0.0450 H     1 <1>   0.0800 
 50 H      -12.3270     0.2350    -1.0340 H     1 <1>   0.0800 
 51 H      -12.0920    -1.3630     2.3500 H     1 <1>   0.0800 
 52 H      -12.2190    -2.9990     1.7540 H     1 <1>   0.0800 
 53 H      -13.6150    -1.9500     1.7270 H     1 <1>   0.0800 
@<TRIPOS>BOND
  1   1   2  2   
  2   2   3  am  
  3   2   4  1   
  4   3   5  1   
  5   3   6  1   
  6   4   7  1   
  7   4   8  2   
  8   5   9  1   
  9   5  27  1   
 10   5  28  1   
 11   6  10  1   
 12   6  29  1   
 13   6  30  1   
 14   7  11  1   
 15   8  12  1   
 16   8  31  1   
 17   9  13  1   
 18   9  14  1   
 19   9  32  1   
 20  10  13  1   
 21  10  15  1   
 22  10  33  1   
 23  11  12  2   
 24  11  16  1   
 25  12  34  1   
 26  14  35  1   
 27  14  36  1   
 28  14  37  1   
 29  15  38  1   
 30  15  39  1   
 31  15  40  1   
 32  16  17  1   
 33  16  41  1   
 34  16  42  1   
 35  17  18  1   
 36  18  19  ar  
 37  18  20  ar  
 38  19  21  ar  
 39  19  43  1   
 40  20  22  ar  
 41  20  44  1   
 42  21  23  ar  
 43  21  45  1   
 44  22  23  ar  
 45  22  46  1   
 46  23  24  1   
 47  24  25  1   
 48  24  26  1   
 49  24  47  1   
 50  25  48  1   
 51  25  49  1   
 52  25  50  1   
 53  26  51  1   
 54  26  52  1   
 55  26  53  1   
@<TRIPOS>SUBSTRUCTURE
  1 ****  11 GROUP 4 **** **** 0

# MOE 2024.06 (io_trps.svl 2023.06)
