@<TRIPOS>MOLECULE
2-[4-(2,6-Dimethyl-phenyl)-piperazin-1-yl]-N-(4-methoxy-phenyl)-acetamide
53 55 1 0 0 
SMALL
USER_CHARGES


@<TRIPOS>ATOM
  1 O       -0.7700    -0.0440     0.7860 O.2   1 <1>  -0.5700 
  2 C       -1.5050     0.6070     0.0830 C.2   1 <1>   0.5690 
  3 N       -1.1800     1.8070    -0.4820 N.am  1 <1>  -0.5470 
  4 C       -2.9120     0.0840    -0.2110 C.3   1 <1>   0.1710 
  5 C       -0.0330     2.6160    -0.4380 C.ar  1 <1>   0.1170 
  6 N       -3.8870     1.1570    -0.5740 N.3   1 <1>  -0.8100 
  7 C       -0.1080     3.8970    -0.9720 C.ar  1 <1>  -0.1500 
  8 C        1.1760     2.1990     0.1090 C.ar  1 <1>  -0.1500 
  9 C       -5.1040     0.5710    -1.1890 C.3   1 <1>   0.1100 
 10 C       -4.2730     1.9460     0.6300 C.3   1 <1>   0.1100 
 11 C        0.9890     4.7390    -0.9560 C.ar  1 <1>  -0.1500 
 12 C        2.2780     3.0370     0.1290 C.ar  1 <1>  -0.1500 
 13 C       -6.1430     1.6420    -1.5750 C.3   1 <1>   0.2090 
 14 C       -5.2850     3.0610     0.3050 C.3   1 <1>   0.2090 
 15 C        2.1880     4.3190    -0.4050 C.ar  1 <1>   0.0820 
 16 N       -6.4620     2.4950    -0.4020 N.pl3 1 <1>  -0.8380 
 17 O        3.2160     5.2080    -0.4260 O.3   1 <1>  -0.3620 
 18 C       -7.7430     3.0130    -0.2000 C.ar  1 <1>   0.1000 
 19 C        4.4730     4.8720     0.1190 C.3   1 <1>   0.0400 
 20 C       -8.5700     2.4400     0.7710 C.ar  1 <1>  -0.1430 
 21 C       -8.2190     4.0950    -0.9490 C.ar  1 <1>  -0.1430 
 22 C       -9.8420     2.9430     0.9840 C.ar  1 <1>  -0.1500 
 23 C       -8.0910     1.2590     1.6030 C.3   1 <1>  -0.0970 
 24 C       -9.4950     4.5830    -0.7220 C.ar  1 <1>  -0.1500 
 25 C       -7.3650     4.7610    -2.0200 C.3   1 <1>  -0.0970 
 26 C      -10.3060     4.0120     0.2410 C.ar  1 <1>  -0.1500 
 27 H       -1.9860     2.1990    -0.9780 H     1 <1>   0.3700 
 28 H       -3.2670    -0.4630     0.6440 H     1 <1>   0.0800 
 29 H       -2.8230    -0.6060    -1.0310 H     1 <1>   0.0800 
 30 H       -1.0300     4.2420    -1.4040 H     1 <1>   0.1500 
 31 H        1.2670     1.2130     0.5240 H     1 <1>   0.1500 
 32 H       -5.5650    -0.1180    -0.5020 H     1 <1>   0.0800 
 33 H       -4.8300     0.0260    -2.0760 H     1 <1>   0.0800 
 34 H       -3.4000     2.3950     1.0710 H     1 <1>   0.0800 
 35 H       -4.7150     1.2950     1.3650 H     1 <1>   0.0800 
 36 H        0.9240     5.7290    -1.3690 H     1 <1>   0.1500 
 37 H        3.1900     2.6740     0.5620 H     1 <1>   0.1500 
 38 H       -7.0440     1.1710    -1.9290 H     1 <1>   0.0800 
 39 H       -5.7460     2.2530    -2.3640 H     1 <1>   0.0800 
 40 H       -4.8150     3.8000    -0.3180 H     1 <1>   0.0800 
 41 H       -5.6090     3.5390     1.2130 H     1 <1>   0.0800 
 42 H        5.1250     5.7180    -0.0020 H     1 <1>   0.0800 
 43 H        4.8690     4.0260    -0.4120 H     1 <1>   0.0800 
 44 H        4.3510     4.6510     1.1650 H     1 <1>   0.0800 
 45 H      -10.4810     2.5060     1.7300 H     1 <1>   0.1500 
 46 H       -7.7870     0.4590     0.9540 H     1 <1>   0.0800 
 47 H       -8.8670     0.8990     2.2530 H     1 <1>   0.0800 
 48 H       -7.2500     1.5570     2.2020 H     1 <1>   0.0800 
 49 H       -9.8690     5.4130    -1.2940 H     1 <1>   0.1500 
 50 H       -7.2340     4.0890    -2.8470 H     1 <1>   0.0800 
 51 H       -6.4030     5.0150    -1.6180 H     1 <1>   0.0800 
 52 H       -7.8290     5.6610    -2.3800 H     1 <1>   0.0800 
 53 H      -11.2950     4.3970     0.4110 H     1 <1>   0.1500 
@<TRIPOS>BOND
  1   1   2  2   
  2   2   3  am  
  3   2   4  1   
  4   3   5  1   
  5   3  27  1   
  6   4   6  1   
  7   4  28  1   
  8   4  29  1   
  9   5   7  ar  
 10   5   8  ar  
 11   6   9  1   
 12   6  10  1   
 13   7  11  ar  
 14   7  30  1   
 15   8  12  ar  
 16   8  31  1   
 17   9  13  1   
 18   9  32  1   
 19   9  33  1   
 20  10  14  1   
 21  10  34  1   
 22  10  35  1   
 23  11  15  ar  
 24  11  36  1   
 25  12  15  ar  
 26  12  37  1   
 27  13  16  1   
 28  13  38  1   
 29  13  39  1   
 30  14  16  1   
 31  14  40  1   
 32  14  41  1   
 33  15  17  1   
 34  16  18  1   
 35  17  19  1   
 36  18  20  ar  
 37  18  21  ar  
 38  19  42  1   
 39  19  43  1   
 40  19  44  1   
 41  20  22  ar  
 42  20  23  1   
 43  21  24  ar  
 44  21  25  1   
 45  22  26  ar  
 46  22  45  1   
 47  23  46  1   
 48  23  47  1   
 49  23  48  1   
 50  24  26  ar  
 51  24  49  1   
 52  25  50  1   
 53  25  51  1   
 54  25  52  1   
 55  26  53  1   
@<TRIPOS>SUBSTRUCTURE
  1 ****  10 GROUP 4 **** **** 0

# MOE 2024.06 (io_trps.svl 2023.06)
