@<TRIPOS>MOLECULE
N-[2-(3,4-Dimethoxy-phenyl)-ethyl]-2-(4-methyl-piperidin-1-yl)-acetamide
52 53 1 0 0 
SMALL
USER_CHARGES


@<TRIPOS>ATOM
  1 O       -0.3430     0.4980    -0.8030 O.2   1 <1>  -0.5700 
  2 C       -0.3140     1.5600    -0.2250 C.2   1 <1>   0.5690 
  3 N       -1.4170     2.0750     0.3880 N.am  1 <1>  -0.7300 
  4 C        1.0320     2.3090    -0.1970 C.3   1 <1>   0.4040 
  5 C       -2.7360     1.3870     0.4450 C.3   1 <1>   0.1400 
  6 N        2.2230     1.4010    -0.4110 N.4   1 <1>  -0.9590 
  7 C       -3.6840     1.9690    -0.6050 C.3   1 <1>  -0.0170 
  8 C        2.4140     0.4640     0.7350 C.3   1 <1>   0.3430 
  9 C        3.4630     2.1450    -0.7630 C.3   1 <1>   0.3430 
 10 C       -5.0420     1.2920    -0.5110 C.ar  1 <1>  -0.1430 
 11 C        3.5090    -0.5460     0.3940 C.3   1 <1>  -0.1600 
 12 C        4.5710     1.1560    -1.1240 C.3   1 <1>  -0.1600 
 13 C       -6.0740     1.8770     0.2070 C.ar  1 <1>  -0.1500 
 14 C       -5.2540     0.0780    -1.1400 C.ar  1 <1>  -0.1500 
 15 C        4.8230     0.1470     0.0060 C.3   1 <1>  -0.0800 
 16 C       -7.3170     1.2560     0.3010 C.ar  1 <1>   0.0830 
 17 C       -6.4840    -0.5520    -1.0550 C.ar  1 <1>  -0.1500 
 18 C        5.8730    -0.8860    -0.4180 C.3   1 <1>  -0.2400 
 19 O       -8.3580     1.8010     0.9960 O.3   1 <1>  -0.3630 
 20 C       -7.5240     0.0290    -0.3350 C.ar  1 <1>   0.0830 
 21 C       -8.2700     3.0730     1.5960 C.3   1 <1>   0.0400 
 22 O       -8.7520    -0.5560    -0.2220 O.3   1 <1>  -0.3630 
 23 C       -9.0410    -1.7970    -0.8230 C.3   1 <1>   0.0400 
 24 H       -1.4060     2.9910     0.8450 H     1 <1>   0.3700 
 25 H        1.1290     2.8180     0.7460 H     1 <1>   0.0800 
 26 H        1.0050     3.0480    -0.9780 H     1 <1>   0.0800 
 27 H       -3.1620     1.5070     1.4260 H     1 <1>   0.0800 
 28 H       -2.6110     0.3320     0.2650 H     1 <1>   0.0800 
 29 H        1.9610     0.7980    -1.2100 H     1 <1>   0.4500 
 30 H       -3.2750     1.8080    -1.5870 H     1 <1>   0.0800 
 31 H       -3.7960     3.0270    -0.4530 H     1 <1>   0.0800 
 32 H        1.4960    -0.0650     0.9380 H     1 <1>   0.0800 
 33 H        2.6960     1.0150     1.6180 H     1 <1>   0.0800 
 34 H        3.7800     2.7470     0.0740 H     1 <1>   0.0800 
 35 H        3.2800     2.7970    -1.6030 H     1 <1>   0.0800 
 36 H        3.1680    -1.1770    -0.4090 H     1 <1>   0.0800 
 37 H        3.6760    -1.1780     1.2490 H     1 <1>   0.0800 
 38 H        5.4760     1.7050    -1.3210 H     1 <1>   0.0800 
 39 H        4.3050     0.6400    -2.0310 H     1 <1>   0.0800 
 40 H       -5.8970     2.8180     0.6900 H     1 <1>   0.1500 
 41 H       -4.4630    -0.3880    -1.7020 H     1 <1>   0.1500 
 42 H        5.2020     0.6770     0.8650 H     1 <1>   0.0800 
 43 H       -6.6090    -1.4910    -1.5560 H     1 <1>   0.1500 
 44 H        5.5410    -1.4450    -1.2760 H     1 <1>   0.0800 
 45 H        6.0640    -1.5770     0.3850 H     1 <1>   0.0800 
 46 H        6.8000    -0.4000    -0.6660 H     1 <1>   0.0800 
 47 H       -9.2220     3.2940     2.0440 H     1 <1>   0.0800 
 48 H       -8.0460     3.8020     0.8370 H     1 <1>   0.0800 
 49 H       -7.5070     3.0510     2.3520 H     1 <1>   0.0800 
 50 H      -10.0600    -2.0480    -0.5910 H     1 <1>   0.0800 
 51 H       -8.3790    -2.5420    -0.4180 H     1 <1>   0.0800 
 52 H       -8.9190    -1.7050    -1.8870 H     1 <1>   0.0800 
@<TRIPOS>BOND
  1   1   2  2   
  2   2   3  am  
  3   2   4  1   
  4   3   5  1   
  5   3  24  1   
  6   4   6  1   
  7   4  25  1   
  8   4  26  1   
  9   5   7  1   
 10   5  27  1   
 11   5  28  1   
 12   6   8  1   
 13   6   9  1   
 14   6  29  1   
 15   7  10  1   
 16   7  30  1   
 17   7  31  1   
 18   8  11  1   
 19   8  32  1   
 20   8  33  1   
 21   9  12  1   
 22   9  34  1   
 23   9  35  1   
 24  10  13  ar  
 25  10  14  ar  
 26  11  15  1   
 27  11  36  1   
 28  11  37  1   
 29  12  15  1   
 30  12  38  1   
 31  12  39  1   
 32  13  16  ar  
 33  13  40  1   
 34  14  17  ar  
 35  14  41  1   
 36  15  18  1   
 37  15  42  1   
 38  16  19  1   
 39  16  20  ar  
 40  17  20  ar  
 41  17  43  1   
 42  18  44  1   
 43  18  45  1   
 44  18  46  1   
 45  19  21  1   
 46  20  22  1   
 47  21  47  1   
 48  21  48  1   
 49  21  49  1   
 50  22  23  1   
 51  23  50  1   
 52  23  51  1   
 53  23  52  1   
@<TRIPOS>SUBSTRUCTURE
  1 ****   5 GROUP 4 **** **** 0

# MOE 2024.06 (io_trps.svl 2023.06)
