@<TRIPOS>MOLECULE
2-Azepan-1-yl-2-phenyl-ethylamine
40 41 1 0 0 
SMALL
USER_CHARGES


@<TRIPOS>ATOM
  1 N        0.3640     0.1990    -0.0450 N.4   1 <1>  -0.9590 
  2 C        1.7330    -0.4130    -0.0100 C.3   1 <1>   0.5660 
  3 C        0.3210     1.5950    -0.5670 C.3   1 <1>   0.3430 
  4 C       -0.4770     0.0790     1.1790 C.3   1 <1>   0.3430 
  5 C        1.5730    -1.9240    -0.0680 C.ar  1 <1>  -0.1440 
  6 C        2.6650    -0.0100     1.1830 C.3   1 <1>   0.3430 
  7 C       -0.9420     1.8110    -1.4050 C.3   1 <1>  -0.1600 
  8 C       -1.8170    -0.5560     0.8110 C.3   1 <1>  -0.1600 
  9 C        1.7610    -2.5580    -1.2890 C.ar  1 <1>  -0.1500 
 10 C        1.2590    -2.6930     1.0510 C.ar  1 <1>  -0.1500 
 11 N        3.9220    -0.8480     1.3130 N.4   1 <1>  -0.8530 
 12 C       -2.2830     1.4760    -0.7220 C.3   1 <1>  -0.1600 
 13 C       -2.4830    -0.0280    -0.4730 C.3   1 <1>  -0.1600 
 14 C        1.6460    -3.9320    -1.3910 C.ar  1 <1>  -0.1500 
 15 C        1.1440    -4.0670     0.9440 C.ar  1 <1>  -0.1500 
 16 C        1.3390    -4.6870    -0.2750 C.ar  1 <1>  -0.1500 
 17 H       -0.1550    -0.3600    -0.7420 H     1 <1>   0.4500 
 18 H        2.2380    -0.1180    -0.9160 H     1 <1>   0.0800 
 19 H        1.1770     1.7890    -1.1940 H     1 <1>   0.0800 
 20 H        0.3360     2.3000     0.2500 H     1 <1>   0.0800 
 21 H       -0.6580     1.0570     1.5980 H     1 <1>   0.0800 
 22 H        0.0010    -0.5240     1.9310 H     1 <1>   0.0800 
 23 H        2.0990    -0.1120     2.0930 H     1 <1>   0.0800 
 24 H        2.9380     1.0270     1.0780 H     1 <1>   0.0800 
 25 H       -0.8600     1.2560    -2.3240 H     1 <1>   0.0800 
 26 H       -0.9680     2.8510    -1.6860 H     1 <1>   0.0800 
 27 H       -2.4890    -0.3860     1.6360 H     1 <1>   0.0800 
 28 H       -1.7000    -1.6240     0.7320 H     1 <1>   0.0800 
 29 H        1.9980    -2.0060    -2.1850 H     1 <1>   0.1500 
 30 H        1.0900    -2.2620     2.0220 H     1 <1>   0.1500 
 31 H        3.7060    -1.8600     1.3110 H     1 <1>   0.4500 
 32 H        4.4210    -0.6560     2.1950 H     1 <1>   0.4500 
 33 H        4.6010    -0.6910     0.5550 H     1 <1>   0.4500 
 34 H       -3.0690     1.8020    -1.3840 H     1 <1>   0.0800 
 35 H       -2.4020     2.0340     0.1920 H     1 <1>   0.0800 
 36 H       -3.5420    -0.2210    -0.3950 H     1 <1>   0.0800 
 37 H       -2.1420    -0.5860    -1.3290 H     1 <1>   0.0800 
 38 H        1.7910    -4.4240    -2.3410 H     1 <1>   0.1500 
 39 H        0.8970    -4.6660     1.8070 H     1 <1>   0.1500 
 40 H        1.2470    -5.7580    -0.3580 H     1 <1>   0.1500 
@<TRIPOS>BOND
  1   1   2  1   
  2   1   3  1   
  3   1   4  1   
  4   1  17  1   
  5   2   5  1   
  6   2   6  1   
  7   2  18  1   
  8   3   7  1   
  9   3  19  1   
 10   3  20  1   
 11   4   8  1   
 12   4  21  1   
 13   4  22  1   
 14   5   9  ar  
 15   5  10  ar  
 16   6  11  1   
 17   6  23  1   
 18   6  24  1   
 19   7  12  1   
 20   7  25  1   
 21   7  26  1   
 22   8  13  1   
 23   8  27  1   
 24   8  28  1   
 25   9  14  ar  
 26   9  29  1   
 27  10  15  ar  
 28  10  30  1   
 29  11  31  1   
 30  11  32  1   
 31  11  33  1   
 32  12  13  1   
 33  12  34  1   
 34  12  35  1   
 35  13  36  1   
 36  13  37  1   
 37  14  16  ar  
 38  14  38  1   
 39  15  16  ar  
 40  15  39  1   
 41  16  40  1   
@<TRIPOS>SUBSTRUCTURE
  1 ****   1 GROUP 4 **** **** 0

# MOE 2024.06 (io_trps.svl 2023.06)
