@<TRIPOS>MOLECULE
7-(2-Methoxy-ethyl)-8-(2-methoxy-ethylamino)-1,3-dimethyl-3,7-dihydro-purine-2,6
44 45 1 0 0 
SMALL
USER_CHARGES


@<TRIPOS>ATOM
  1 O        0.3880     0.2020    -0.2090 O.2   1 <1>  -0.5750 
  2 C        1.4370     0.8090    -0.1350 C.2   1 <1>   0.6860 
  3 N        1.4380     2.2000    -0.1250 N.am  1 <1>  -0.4270 
  4 N        2.6340     0.1120    -0.0500 N.am  1 <1>  -0.4420 
  5 C        2.6170     2.9170     0.0350 C.2   1 <1>   0.6990 
  6 C        0.1350     2.9280    -0.2420 C.3   1 <1>   0.0510 
  7 C        3.7990     0.8390     0.1000 C.2   1 <1>   0.4200 
  8 C        2.6530    -1.3810    -0.0850 C.3   1 <1>   0.0510 
  9 O        2.5990     4.1350     0.0940 O.2   1 <1>  -0.5750 
 10 C        3.8460     2.1870     0.1410 C.2   1 <1>   0.2690 
 11 N        5.0610     0.3570     0.2400 N.pl3 1 <1>  -0.7040 
 12 N        5.2050     2.5380     0.3020 N.pl3 1 <1>  -0.7680 
 13 C        5.8850     1.3900     0.3680 C.cat 1 <1>   1.0680 
 14 C        5.6190     3.9840     0.3710 C.3   1 <1>   0.3470 
 15 N        7.1900     1.2620     0.5440 N.pl3 1 <1>  -0.7180 
 16 C        7.1150     4.2490     0.1550 C.3   1 <1>   0.1110 
 17 C        8.1050     0.1040     0.4700 C.3   1 <1>   0.1590 
 18 O        7.3040     5.6200     0.0770 O.3   1 <1>  -0.5650 
 19 C        9.4510     0.6040    -0.0810 C.3   1 <1>   0.1110 
 20 C        8.6290     6.0020    -0.1150 C.3   1 <1>   0.0310 
 21 O        9.6180     1.9540     0.2680 O.3   1 <1>  -0.5650 
 22 C       10.8480     2.4800    -0.1200 C.3   1 <1>   0.0310 
 23 H       -0.5300     2.3990    -0.9030 H     1 <1>   0.0710 
 24 H        0.2820     3.9180    -0.6370 H     1 <1>   0.0710 
 25 H       -0.3250     3.0010     0.7280 H     1 <1>   0.0710 
 26 H        1.7610    -1.7610    -0.5560 H     1 <1>   0.0710 
 27 H        2.7000    -1.7670     0.9190 H     1 <1>   0.0710 
 28 H        3.4990    -1.7320    -0.6470 H     1 <1>   0.0710 
 29 H        5.3450    -0.6150     0.2840 H     1 <1>   0.4440 
 30 H        5.3300     4.3840     1.3280 H     1 <1>   0.0710 
 31 H        5.0850     4.5280    -0.3890 H     1 <1>   0.0710 
 32 H        7.7690     2.1080     0.6220 H     1 <1>   0.4440 
 33 H        7.4510     3.8140    -0.7710 H     1 <1>   0.0710 
 34 H        7.6930     3.8880     0.9880 H     1 <1>   0.0710 
 35 H        7.7090    -0.6750    -0.1580 H     1 <1>   0.0710 
 36 H        8.2580    -0.2920     1.4600 H     1 <1>   0.0710 
 37 H        9.4660     0.5280    -1.1560 H     1 <1>   0.0710 
 38 H       10.2640     0.0250     0.3250 H     1 <1>   0.0710 
 39 H        8.6650     7.0760    -0.1620 H     1 <1>   0.0710 
 40 H        8.9900     5.5870    -1.0410 H     1 <1>   0.0710 
 41 H        9.2240     5.6560     0.7130 H     1 <1>   0.0710 
 42 H       10.8870     3.5120     0.1850 H     1 <1>   0.0710 
 43 H       10.9460     2.4140    -1.1900 H     1 <1>   0.0710 
 44 H       11.6390     1.9330     0.3650 H     1 <1>   0.0710 
@<TRIPOS>BOND
  1   1   2  2   
  2   2   3  am  
  3   2   4  am  
  4   3   5  am  
  5   3   6  1   
  6   4   7  1   
  7   4   8  1   
  8   5   9  2   
  9   5  10  1   
 10   6  23  1   
 11   6  24  1   
 12   6  25  1   
 13   7  10  2   
 14   7  11  1   
 15   8  26  1   
 16   8  27  1   
 17   8  28  1   
 18  10  12  1   
 19  11  13  ar  
 20  11  29  1   
 21  12  13  ar  
 22  12  14  1   
 23  13  15  ar  
 24  14  16  1   
 25  14  30  1   
 26  14  31  1   
 27  15  17  1   
 28  15  32  1   
 29  16  18  1   
 30  16  33  1   
 31  16  34  1   
 32  17  19  1   
 33  17  35  1   
 34  17  36  1   
 35  18  20  1   
 36  19  21  1   
 37  19  37  1   
 38  19  38  1   
 39  20  39  1   
 40  20  40  1   
 41  20  41  1   
 42  21  22  1   
 43  22  42  1   
 44  22  43  1   
 45  22  44  1   
@<TRIPOS>SUBSTRUCTURE
  1 ****  12 GROUP 4 **** **** 0

# MOE 2024.06 (io_trps.svl 2023.06)
