@<TRIPOS>MOLECULE
4-(2,4-Dimethyl-phenyl)-6-(1-methyl-1H-imidazol-2-ylsulfanylmethyl)-2-oxo-1,2,3,
49 51 1 0 0 
SMALL
USER_CHARGES


@<TRIPOS>ATOM
  1 S       -0.9890    -1.3090     0.1160 S.3   1 <1>  -0.2860 
  2 C       -2.2510    -0.0410     0.2380 C.2   1 <1>   0.2420 
  3 C        0.5700    -0.3340     0.3170 C.3   1 <1>   0.2080 
  4 N       -1.9700     1.2020     0.4440 N.2   1 <1>  -0.5650 
  5 N       -3.5640    -0.3350     0.1200 N.pl3 1 <1>   0.0480 
  6 C        1.7730    -1.2790     0.2690 C.2   1 <1>  -0.0290 
  7 C       -3.1920     1.7750     0.4630 C.2   1 <1>   0.0770 
  8 C       -4.1700     0.8600     0.2680 C.2   1 <1>  -0.3020 
  9 C       -4.1940    -1.6460    -0.1190 C.3   1 <1>   0.0160 
 10 N        1.6590    -2.4080     1.0610 N.am  1 <1>  -0.5390 
 11 C        2.8950    -1.0850    -0.4790 C.2   1 <1>  -0.1240 
 12 C        2.5750    -3.4050     1.1160 C.2   1 <1>   0.6900 
 13 C        3.2060     0.0080    -1.3440 C.2   1 <1>   0.7060 
 14 C        4.0240    -2.1180    -0.4400 C.3   1 <1>   0.5020 
 15 O        2.4150    -4.3460     1.8590 O.2   1 <1>  -0.5700 
 16 N        3.6670    -3.3180     0.3410 N.am  1 <1>  -0.7300 
 17 O        3.8940    -0.1080    -2.3400 O.2   1 <1>  -0.5700 
 18 O        2.7210     1.2170    -1.0420 O.3   1 <1>  -0.4300 
 19 C        5.2900    -1.5310     0.1920 C.ar  1 <1>  -0.1430 
 20 C        3.0050     2.3540    -1.8340 C.3   1 <1>   0.0400 
 21 C        6.5220    -1.5140    -0.4620 C.ar  1 <1>  -0.1430 
 22 C        5.2020    -0.9970     1.4720 C.ar  1 <1>  -0.1500 
 23 C        7.6240    -0.9590     0.1710 C.ar  1 <1>  -0.1500 
 24 C        6.7100    -2.0850    -1.8620 C.3   1 <1>  -0.0970 
 25 C        6.3080    -0.4480     2.0940 C.ar  1 <1>  -0.1500 
 26 C        7.5270    -0.4240     1.4440 C.ar  1 <1>  -0.1430 
 27 C        8.7480     0.1770     2.1160 C.3   1 <1>  -0.0970 
 28 H        0.5060     0.1670     1.2670 H     1 <1>   0.0800 
 29 H        0.5660     0.3920    -0.4730 H     1 <1>   0.0800 
 30 H       -3.3070     2.8360     0.6180 H     1 <1>   0.1500 
 31 H       -5.2360     0.9940     0.2290 H     1 <1>   0.1500 
 32 H       -3.8530    -2.0360    -1.0610 H     1 <1>   0.0800 
 33 H       -5.2620    -1.5360    -0.1400 H     1 <1>   0.0800 
 34 H       -3.9170    -2.3210     0.6700 H     1 <1>   0.0800 
 35 H        0.8100    -2.5920     1.5990 H     1 <1>   0.3700 
 36 H        4.2150    -2.4410    -1.4470 H     1 <1>   0.0800 
 37 H        4.4350    -3.9460     0.5640 H     1 <1>   0.3700 
 38 H        2.6410     2.1840    -2.8330 H     1 <1>   0.0800 
 39 H        4.0700     2.5100    -1.8470 H     1 <1>   0.0800 
 40 H        2.5110     3.2040    -1.3990 H     1 <1>   0.0800 
 41 H        4.2640    -1.0090     2.0000 H     1 <1>   0.1500 
 42 H        8.5760    -0.9410    -0.3290 H     1 <1>   0.1500 
 43 H        6.1290    -1.5250    -2.5720 H     1 <1>   0.0800 
 44 H        6.4070    -3.1160    -1.8890 H     1 <1>   0.0800 
 45 H        7.7410    -2.0340    -2.1640 H     1 <1>   0.0800 
 46 H        6.2120    -0.0420     3.0850 H     1 <1>   0.1500 
 47 H        9.3330    -0.6030     2.5690 H     1 <1>   0.0800 
 48 H        8.4560     0.8790     2.8760 H     1 <1>   0.0800 
 49 H        9.3550     0.6930     1.3930 H     1 <1>   0.0800 
@<TRIPOS>BOND
  1   1   2  1   
  2   1   3  1   
  3   2   4  2   
  4   2   5  1   
  5   3   6  1   
  6   3  28  1   
  7   3  29  1   
  8   4   7  1   
  9   5   8  1   
 10   5   9  1   
 11   6  10  1   
 12   6  11  2   
 13   7   8  2   
 14   7  30  1   
 15   8  31  1   
 16   9  32  1   
 17   9  33  1   
 18   9  34  1   
 19  10  12  am  
 20  10  35  1   
 21  11  13  1   
 22  11  14  1   
 23  12  15  2   
 24  12  16  am  
 25  13  17  2   
 26  13  18  1   
 27  14  16  1   
 28  14  19  1   
 29  14  36  1   
 30  16  37  1   
 31  18  20  1   
 32  19  21  ar  
 33  19  22  ar  
 34  20  38  1   
 35  20  39  1   
 36  20  40  1   
 37  21  23  ar  
 38  21  24  1   
 39  22  25  ar  
 40  22  41  1   
 41  23  26  ar  
 42  23  42  1   
 43  24  43  1   
 44  24  44  1   
 45  24  45  1   
 46  25  26  ar  
 47  25  46  1   
 48  26  27  1   
 49  27  47  1   
 50  27  48  1   
 51  27  49  1   
@<TRIPOS>SUBSTRUCTURE
  1 ****  11 GROUP 4 **** **** 0

# MOE 2024.06 (io_trps.svl 2023.06)
