@<TRIPOS>MOLECULE
4-tert-Butyl-N-(2,3-dihydro-benzo[1,4]dioxin-2-ylmethyl)-benzamide
47 49 1 0 0 
SMALL
USER_CHARGES


@<TRIPOS>ATOM
  1 O       -0.3560     0.1580    -0.4260 O.2   1 <1>  -0.5700 
  2 C       -1.3400     0.7520    -0.0300 C.2   1 <1>   0.5440 
  3 N       -2.3890     0.0170     0.4460 N.am  1 <1>  -0.7300 
  4 C       -1.4000     2.2040    -0.0520 C.ar  1 <1>   0.0860 
  5 C       -2.4850    -1.4640     0.4500 C.3   1 <1>   0.1400 
  6 C       -0.2400     2.9720    -0.0060 C.ar  1 <1>  -0.1500 
  7 C       -2.6080     2.8970    -0.1200 C.ar  1 <1>  -0.1500 
  8 C       -3.8260    -1.9210    -0.1350 C.3   1 <1>   0.2000 
  9 C       -0.2780     4.3540    -0.0150 C.ar  1 <1>  -0.1500 
 10 C       -2.6490     4.2790    -0.1280 C.ar  1 <1>  -0.1500 
 11 O       -4.8790    -1.2580     0.5520 O.3   1 <1>  -0.3630 
 12 C       -4.0060    -3.4440    -0.0290 C.3   1 <1>   0.1200 
 13 C       -1.4870     5.0400    -0.0730 C.ar  1 <1>  -0.1430 
 14 C       -6.1290    -1.7660     0.4010 C.ar  1 <1>   0.0830 
 15 O       -5.2850    -3.8240    -0.4990 O.3   1 <1>  -0.3630 
 16 C       -1.5840     6.5820    -0.0840 C.3   1 <1>   0.1430 
 17 C       -6.3310    -3.0390    -0.1360 C.ar  1 <1>   0.0830 
 18 C       -7.2140    -0.9970     0.7850 C.ar  1 <1>  -0.1500 
 19 C       -0.2130     7.2750    -0.0160 C.3   1 <1>  -0.2400 
 20 C       -2.2740     7.0450    -1.3760 C.3   1 <1>  -0.2400 
 21 C       -2.4020     7.0540     1.1280 C.3   1 <1>  -0.2400 
 22 C       -7.6180    -3.5220    -0.3010 C.ar  1 <1>  -0.1500 
 23 C       -8.5000    -1.4880     0.6240 C.ar  1 <1>  -0.1500 
 24 C       -8.7010    -2.7470     0.0800 C.ar  1 <1>  -0.1500 
 25 H       -3.2120     0.4910     0.8240 H     1 <1>   0.3700 
 26 H       -2.3900    -1.8190     1.4610 H     1 <1>   0.0800 
 27 H       -1.6800    -1.8850    -0.1280 H     1 <1>   0.0800 
 28 H        0.7110     2.4690     0.0370 H     1 <1>   0.1500 
 29 H       -3.5330     2.3520    -0.1760 H     1 <1>   0.1500 
 30 H       -3.8770    -1.6310    -1.1700 H     1 <1>   0.0800 
 31 H        0.6600     4.8750     0.0250 H     1 <1>   0.1500 
 32 H       -3.6090     4.7620    -0.1800 H     1 <1>   0.1500 
 33 H       -3.9200    -3.7630     0.9950 H     1 <1>   0.0800 
 34 H       -3.2720    -3.9570    -0.6230 H     1 <1>   0.0800 
 35 H       -7.0510    -0.0220     1.2050 H     1 <1>   0.1500 
 36 H        0.3920     7.0000    -0.8620 H     1 <1>   0.0800 
 37 H        0.3030     7.0030     0.8870 H     1 <1>   0.0800 
 38 H       -0.3280     8.3450    -0.0240 H     1 <1>   0.0800 
 39 H       -1.7260     6.6890    -2.2310 H     1 <1>   0.0800 
 40 H       -2.3180     8.1180    -1.4200 H     1 <1>   0.0800 
 41 H       -3.2770     6.6670    -1.4380 H     1 <1>   0.0800 
 42 H       -1.9460     6.7050     2.0370 H     1 <1>   0.0800 
 43 H       -3.4070     6.6780     1.0890 H     1 <1>   0.0800 
 44 H       -2.4500     8.1280     1.1590 H     1 <1>   0.0800 
 45 H       -7.7640    -4.5010    -0.7210 H     1 <1>   0.1500 
 46 H       -9.3450    -0.8910     0.9220 H     1 <1>   0.1500 
 47 H       -9.7010    -3.1250    -0.0470 H     1 <1>   0.1500 
@<TRIPOS>BOND
  1   1   2  2   
  2   2   3  am  
  3   2   4  1   
  4   3   5  1   
  5   3  25  1   
  6   4   6  ar  
  7   4   7  ar  
  8   5   8  1   
  9   5  26  1   
 10   5  27  1   
 11   6   9  ar  
 12   6  28  1   
 13   7  10  ar  
 14   7  29  1   
 15   8  11  1   
 16   8  12  1   
 17   8  30  1   
 18   9  13  ar  
 19   9  31  1   
 20  10  13  ar  
 21  10  32  1   
 22  11  14  1   
 23  12  15  1   
 24  12  33  1   
 25  12  34  1   
 26  13  16  1   
 27  14  17  ar  
 28  14  18  ar  
 29  15  17  1   
 30  16  19  1   
 31  16  20  1   
 32  16  21  1   
 33  17  22  ar  
 34  18  23  ar  
 35  18  35  1   
 36  19  36  1   
 37  19  37  1   
 38  19  38  1   
 39  20  39  1   
 40  20  40  1   
 41  20  41  1   
 42  21  42  1   
 43  21  43  1   
 44  21  44  1   
 45  22  24  ar  
 46  22  45  1   
 47  23  24  ar  
 48  23  46  1   
 49  24  47  1   
@<TRIPOS>SUBSTRUCTURE
  1 ****   3 GROUP 4 **** **** 0

# MOE 2024.06 (io_trps.svl 2023.06)
