@<TRIPOS>MOLECULE
8-(3-Imidazol-1-yl-propyl)-1,3,6,7-tetramethyl-1H,8H-imidazo[2,1-f]purine-2,4-di
48 51 1 0 0 
SMALL
USER_CHARGES


@<TRIPOS>ATOM
  1 O        0.9340    -0.1520    -0.0910 O.2   1 <1>  -0.5750 
  2 C        1.8950     0.5830     0.0010 C.2   1 <1>   0.6860 
  3 N        1.7130     1.9570     0.1210 N.am  1 <1>  -0.4260 
  4 N        3.1780     0.0490    -0.0240 N.am  1 <1>  -0.4420 
  5 C        2.7950     2.8290     0.1510 C.2   1 <1>   0.6990 
  6 C        0.3200     2.5030     0.1730 C.3   1 <1>   0.0520 
  7 C        4.2460     0.9220     0.0110 C.2   1 <1>   0.4200 
  8 C        3.3870    -1.4270    -0.1280 C.3   1 <1>   0.0520 
  9 O        2.6210     4.0340     0.2180 O.2   1 <1>  -0.5750 
 10 C        4.1060     2.2680     0.0950 C.2   1 <1>   0.2700 
 11 N        5.5730     0.6080    -0.0370 N.pl3 1 <1>  -0.7040 
 12 N        5.4100     2.7950     0.0990 N.pl3 1 <1>  -0.6330 
 13 C        6.2450     1.7670     0.0180 C.cat 1 <1>   1.0690 
 14 C        6.1800     3.9370     0.1470 C.2   1 <1>   0.2340 
 15 N        7.5310     2.1660     0.0100 N.pl3 1 <1>  -0.5720 
 16 C        7.4780     3.5530     0.0930 C.2   1 <1>   0.1570 
 17 C        5.5310     5.3040     0.2430 C.3   1 <1>  -0.1100 
 18 C        8.8000     1.3830    -0.0680 C.3   1 <1>   0.1600 
 19 C        8.7400     4.4010     0.1120 C.3   1 <1>  -0.1100 
 20 C        8.5550    -0.1260    -0.1020 C.3   1 <1>  -0.1680 
 21 C        9.8550    -0.9370    -0.1640 C.3   1 <1>   0.0880 
 22 N        9.4980    -2.3660    -0.1660 N.pl3 1 <1>   0.0390 
 23 C        9.1490    -3.1280    -1.2260 C.2   1 <1>   0.0280 
 24 C        9.2960    -3.1560     0.9040 C.2   1 <1>  -0.3080 
 25 N        8.7420    -4.3130    -0.9100 N.2   1 <1>  -0.5700 
 26 C        8.8430    -4.3380     0.4320 C.2   1 <1>   0.0690 
 27 H       -0.3280     1.8250     0.7020 H     1 <1>   0.0720 
 28 H       -0.0540     2.6310    -0.8280 H     1 <1>   0.0720 
 29 H        0.2970     3.4520     0.6810 H     1 <1>   0.0720 
 30 H        2.5260    -1.9580     0.2440 H     1 <1>   0.0720 
 31 H        4.2390    -1.7310     0.4530 H     1 <1>   0.0720 
 32 H        3.5380    -1.7010    -1.1580 H     1 <1>   0.0720 
 33 H        5.9920    -0.3170    -0.1080 H     1 <1>   0.4450 
 34 H        4.8950     5.4700    -0.6080 H     1 <1>   0.0720 
 35 H        6.2700     6.0840     0.2730 H     1 <1>   0.0720 
 36 H        4.9330     5.3660     1.1340 H     1 <1>   0.0720 
 37 H        9.4100     1.6240     0.7880 H     1 <1>   0.0720 
 38 H        9.3370     1.6780    -0.9540 H     1 <1>   0.0720 
 39 H        9.3090     4.2400    -0.7860 H     1 <1>   0.0720 
 40 H        9.3480     4.1440     0.9620 H     1 <1>   0.0720 
 41 H        8.5000     5.4460     0.1750 H     1 <1>   0.0720 
 42 H        7.9750    -0.3700    -0.9750 H     1 <1>   0.0720 
 43 H        8.0290    -0.4180     0.7910 H     1 <1>   0.0720 
 44 H       10.4770    -0.7360     0.6910 H     1 <1>   0.0720 
 45 H       10.4080    -0.7140    -1.0600 H     1 <1>   0.0720 
 46 H        9.2020    -2.7640    -2.2370 H     1 <1>   0.1420 
 47 H        9.4820    -2.8520     1.9180 H     1 <1>   0.1420 
 48 H        8.5800    -5.2180     0.9950 H     1 <1>   0.1420 
@<TRIPOS>BOND
  1   1   2  2   
  2   2   3  am  
  3   2   4  am  
  4   3   5  am  
  5   3   6  1   
  6   4   7  1   
  7   4   8  1   
  8   5   9  2   
  9   5  10  1   
 10   6  27  1   
 11   6  28  1   
 12   6  29  1   
 13   7  10  2   
 14   7  11  1   
 15   8  30  1   
 16   8  31  1   
 17   8  32  1   
 18  10  12  1   
 19  11  13  ar  
 20  11  33  1   
 21  12  13  ar  
 22  12  14  1   
 23  13  15  ar  
 24  14  16  2   
 25  14  17  1   
 26  15  16  1   
 27  15  18  1   
 28  16  19  1   
 29  17  34  1   
 30  17  35  1   
 31  17  36  1   
 32  18  20  1   
 33  18  37  1   
 34  18  38  1   
 35  19  39  1   
 36  19  40  1   
 37  19  41  1   
 38  20  21  1   
 39  20  42  1   
 40  20  43  1   
 41  21  22  1   
 42  21  44  1   
 43  21  45  1   
 44  22  23  1   
 45  22  24  1   
 46  23  25  2   
 47  23  46  1   
 48  24  26  2   
 49  24  47  1   
 50  25  26  1   
 51  26  48  1   
@<TRIPOS>SUBSTRUCTURE
  1 ****  11 GROUP 4 **** **** 0

# MOE 2024.06 (io_trps.svl 2023.06)
