@<TRIPOS>MOLECULE
1-(4-Ethoxy-3-methyl-benzenesulfonyl)-piperidine-4-carboxylic acid (3-imidazol-1
60 62 1 0 0 
SMALL
USER_CHARGES


@<TRIPOS>ATOM
  1 S       -0.6350     0.8220    -2.3900 S.o2  1 <1>   1.4470 
  2 O       -0.1250     0.0700    -3.5170 O.2   1 <1>  -0.6500 
  3 O       -1.5260     1.9360    -2.6350 O.2   1 <1>  -0.6500 
  4 N        0.7190     1.4300    -1.5680 N.am  1 <1>  -0.8490 
  5 C       -1.3940    -0.2990    -1.1820 C.ar  1 <1>  -0.0090 
  6 C        1.2480     2.6290    -2.2200 C.3   1 <1>   0.1960 
  7 C        1.7560     0.4090    -1.3890 C.3   1 <1>   0.1960 
  8 C       -1.5240     0.0670     0.1520 C.ar  1 <1>  -0.1500 
  9 C       -1.8710    -1.5480    -1.5600 C.ar  1 <1>  -0.1500 
 10 C        2.3650     3.2440    -1.3720 C.3   1 <1>  -0.1600 
 11 C        2.8800     0.9490    -0.5020 C.3   1 <1>  -0.1600 
 12 C       -2.0960    -0.7780     1.0890 C.ar  1 <1>  -0.1430 
 13 C       -2.4480    -2.4060    -0.6400 C.ar  1 <1>  -0.1500 
 14 C        3.4880     2.2310    -1.0940 C.3   1 <1>  -0.0190 
 15 C       -2.5640    -2.0270     0.6940 C.ar  1 <1>   0.0820 
 16 C       -2.2090    -0.3310     2.5390 C.3   1 <1>  -0.0970 
 17 C        4.5620     2.8210    -0.1820 C.2   1 <1>   0.5690 
 18 O       -3.1170    -2.8240     1.6440 O.3   1 <1>  -0.3630 
 19 O        4.2820     3.1210     0.9530 O.2   1 <1>  -0.5700 
 20 N        5.8180     2.9890    -0.6750 N.am  1 <1>  -0.7300 
 21 C       -3.6480    -4.0920     1.3380 C.3   1 <1>   0.1200 
 22 C        6.9510     3.5480     0.0920 C.3   1 <1>   0.1400 
 23 C       -4.1980    -4.6970     2.6250 C.3   1 <1>  -0.2400 
 24 C        7.9370     2.4260     0.4080 C.3   1 <1>  -0.1600 
 25 C        9.0840     2.9390     1.2870 C.3   1 <1>   0.0960 
 26 N       10.0410     1.8520     1.5650 N.pl3 1 <1>   0.0480 
 27 C       11.1930     1.5740     0.9140 C.2   1 <1>   0.0360 
 28 C        9.9560     0.9100     2.5210 C.2   1 <1>  -0.3020 
 29 N       11.8280     0.5480     1.3790 N.2   1 <1>  -0.5650 
 30 C       11.0490     0.1270     2.3930 C.2   1 <1>   0.0770 
 31 H        0.4630     3.3600    -2.3310 H     1 <1>   0.0800 
 32 H        1.6150     2.3790    -3.2020 H     1 <1>   0.0800 
 33 H        2.1530     0.1140    -2.3480 H     1 <1>   0.0800 
 34 H        1.3320    -0.4630    -0.9190 H     1 <1>   0.0800 
 35 H       -1.1650     1.0370     0.4550 H     1 <1>   0.1500 
 36 H       -1.7880    -1.8540    -2.5900 H     1 <1>   0.1500 
 37 H        1.9430     3.5830    -0.4410 H     1 <1>   0.0800 
 38 H        2.7670     4.1030    -1.8800 H     1 <1>   0.0800 
 39 H        3.6440     0.2000    -0.3960 H     1 <1>   0.0800 
 40 H        2.4800     1.1510     0.4770 H     1 <1>   0.0800 
 41 H       -2.8000    -3.3610    -0.9820 H     1 <1>   0.1500 
 42 H        3.9460     1.9770    -2.0340 H     1 <1>   0.0800 
 43 H       -1.7780     0.6430     2.6830 H     1 <1>   0.0800 
 44 H       -1.6980    -1.0300     3.1760 H     1 <1>   0.0800 
 45 H       -3.2440    -0.2960     2.8280 H     1 <1>   0.0800 
 46 H        6.0270     2.7050    -1.6330 H     1 <1>   0.3700 
 47 H       -2.8580    -4.7040     0.9370 H     1 <1>   0.0800 
 48 H       -4.4320    -3.9660     0.6110 H     1 <1>   0.0800 
 49 H        6.5880     3.9870     1.0080 H     1 <1>   0.0800 
 50 H        7.4270     4.3210    -0.4870 H     1 <1>   0.0800 
 51 H       -3.4100    -4.8030     3.3500 H     1 <1>   0.0800 
 52 H       -4.6110    -5.6690     2.4240 H     1 <1>   0.0800 
 53 H       -4.9730    -4.0700     3.0270 H     1 <1>   0.0800 
 54 H        8.3370     2.0320    -0.5090 H     1 <1>   0.0800 
 55 H        7.4180     1.6430     0.9350 H     1 <1>   0.0800 
 56 H        8.7000     3.3040     2.2240 H     1 <1>   0.0800 
 57 H        9.6050     3.7400     0.7950 H     1 <1>   0.0800 
 58 H       11.5370     2.1660     0.0830 H     1 <1>   0.1500 
 59 H        9.1440     0.8460     3.2230 H     1 <1>   0.1500 
 60 H       11.3210    -0.7310     2.9860 H     1 <1>   0.1500 
@<TRIPOS>BOND
  1   1   2  2   
  2   1   3  2   
  3   1   4  am  
  4   1   5  1   
  5   4   6  1   
  6   4   7  1   
  7   5   8  ar  
  8   5   9  ar  
  9   6  10  1   
 10   6  31  1   
 11   6  32  1   
 12   7  11  1   
 13   7  33  1   
 14   7  34  1   
 15   8  12  ar  
 16   8  35  1   
 17   9  13  ar  
 18   9  36  1   
 19  10  14  1   
 20  10  37  1   
 21  10  38  1   
 22  11  14  1   
 23  11  39  1   
 24  11  40  1   
 25  12  15  ar  
 26  12  16  1   
 27  13  15  ar  
 28  13  41  1   
 29  14  17  1   
 30  14  42  1   
 31  15  18  1   
 32  16  43  1   
 33  16  44  1   
 34  16  45  1   
 35  17  19  2   
 36  17  20  am  
 37  18  21  1   
 38  20  22  1   
 39  20  46  1   
 40  21  23  1   
 41  21  47  1   
 42  21  48  1   
 43  22  24  1   
 44  22  49  1   
 45  22  50  1   
 46  23  51  1   
 47  23  52  1   
 48  23  53  1   
 49  24  25  1   
 50  24  54  1   
 51  24  55  1   
 52  25  26  1   
 53  25  56  1   
 54  25  57  1   
 55  26  27  1   
 56  26  28  1   
 57  27  29  2   
 58  27  58  1   
 59  28  30  2   
 60  28  59  1   
 61  29  30  1   
 62  30  60  1   
@<TRIPOS>SUBSTRUCTURE
  1 ****  11 GROUP 4 **** **** 0

# MOE 2024.06 (io_trps.svl 2023.06)
