@<TRIPOS>MOLECULE
N-Bicyclo[2.2.1]hept-2-yl-2-[5-(4-chloro-phenoxymethyl)-[1,3,4]oxadiazol-2-ylsul
46 49 1 0 0 
SMALL
USER_CHARGES


@<TRIPOS>ATOM
  1 CL       0.6400     0.2700    -1.9060 Cl    1 <1>  -0.1770 
  2 C        2.1180    -0.5230    -1.4220 C.ar  1 <1>   0.1770 
  3 C        3.3060    -0.1740    -2.0380 C.ar  1 <1>  -0.1500 
  4 C        2.0790    -1.4850    -0.4310 C.ar  1 <1>  -0.1500 
  5 C        4.4820    -0.8000    -1.6570 C.ar  1 <1>  -0.1500 
  6 C        3.2550    -2.1100    -0.0520 C.ar  1 <1>  -0.1500 
  7 C        4.4570    -1.7740    -0.6580 C.ar  1 <1>   0.0830 
  8 O        5.5550    -2.4380    -0.2220 O.3   1 <1>  -0.3630 
  9 C        6.8370    -2.1830    -0.7630 C.3   1 <1>   0.3000 
 10 C        7.8970    -3.0570    -0.1050 C.2   1 <1>   0.2980 
 11 O        9.1290    -2.9400    -0.4950 O.3   1 <1>  -0.2800 
 12 N        7.7600    -3.9360     0.8230 N.2   1 <1>  -0.3380 
 13 C        9.7380    -3.8000     0.2480 C.2   1 <1>   0.5340 
 14 N        8.9790    -4.4280     1.0570 N.2   1 <1>  -0.3380 
 15 S       11.5030    -4.0050     0.0680 S.3   1 <1>  -0.2860 
 16 C       11.8860    -5.3220     1.3260 C.3   1 <1>   0.1310 
 17 C       13.3660    -5.6690     1.3580 C.2   1 <1>   0.5690 
 18 O       13.7320    -6.5190     2.1320 O.2   1 <1>  -0.5700 
 19 N       14.2350    -5.0310     0.5310 N.am  1 <1>  -0.7300 
 20 C       15.6950    -5.2690     0.4600 C.3   1 <1>   0.2200 
 21 C       16.5430    -3.9090     0.7960 C.3   1 <1>  -0.0800 
 22 C       16.1090    -5.7520    -1.0820 C.3   1 <1>  -0.1600 
 23 C       16.9540    -4.3520    -0.3990 C.3   1 <1>  -0.1600 
 24 C       17.7780    -2.9620     0.2920 C.3   1 <1>  -0.1600 
 25 C       17.3350    -4.7980    -1.5990 C.3   1 <1>  -0.0800 
 26 C       18.1970    -3.4520    -1.2530 C.3   1 <1>  -0.1600 
 27 H        3.3040     0.5790    -2.8060 H     1 <1>   0.1500 
 28 H        1.1430    -1.7400     0.0330 H     1 <1>   0.1500 
 29 H        5.3930    -0.5150    -2.1470 H     1 <1>   0.1500 
 30 H        3.2480    -2.8630     0.7170 H     1 <1>   0.1500 
 31 H        7.0720    -1.1480    -0.5970 H     1 <1>   0.0800 
 32 H        6.8050    -2.3920    -1.8170 H     1 <1>   0.0800 
 33 H       11.3080    -6.1890     1.0680 H     1 <1>   0.0800 
 34 H       11.5740    -4.9500     2.2840 H     1 <1>   0.0800 
 35 H       13.8750    -4.3250    -0.1150 H     1 <1>   0.3700 
 36 H       15.9660    -6.0430     1.1650 H     1 <1>   0.0800 
 37 H       15.7570    -3.1740     0.8940 H     1 <1>   0.0800 
 38 H       15.2650    -5.6670    -1.7490 H     1 <1>   0.0800 
 39 H       16.4130    -6.7870    -1.0690 H     1 <1>   0.0800 
 40 H       16.1450    -3.6670    -0.9150 H     1 <1>   0.0800 
 41 H       17.7520    -5.0490     0.1160 H     1 <1>   0.0800 
 42 H       18.6220    -3.0670     0.9570 H     1 <1>   0.0800 
 43 H       17.4940    -1.9210     0.2930 H     1 <1>   0.0800 
 44 H       18.1290    -5.5250    -1.7080 H     1 <1>   0.0800 
 45 H       19.2570    -3.6430    -1.3130 H     1 <1>   0.0800 
 46 H       17.9690    -2.6720    -1.9660 H     1 <1>   0.0800 
@<TRIPOS>BOND
  1   1   2  1   
  2   2   3  ar  
  3   2   4  ar  
  4   3   5  ar  
  5   3  27  1   
  6   4   6  ar  
  7   4  28  1   
  8   5   7  ar  
  9   5  29  1   
 10   6   7  ar  
 11   6  30  1   
 12   7   8  1   
 13   8   9  1   
 14   9  10  1   
 15   9  31  1   
 16   9  32  1   
 17  10  11  1   
 18  10  12  2   
 19  11  13  1   
 20  12  14  1   
 21  13  14  2   
 22  13  15  1   
 23  15  16  1   
 24  16  17  1   
 25  16  33  1   
 26  16  34  1   
 27  17  18  2   
 28  17  19  am  
 29  19  20  1   
 30  19  35  1   
 31  20  21  1   
 32  20  22  1   
 33  20  36  1   
 34  21  23  1   
 35  21  24  1   
 36  21  37  1   
 37  22  25  1   
 38  22  38  1   
 39  22  39  1   
 40  23  25  1   
 41  23  40  1   
 42  23  41  1   
 43  24  26  1   
 44  24  42  1   
 45  24  43  1   
 46  25  26  1   
 47  25  44  1   
 48  26  45  1   
 49  26  46  1   
@<TRIPOS>SUBSTRUCTURE
  1 ****  13 GROUP 4 **** **** 0

# MOE 2024.06 (io_trps.svl 2023.06)
