@<TRIPOS>MOLECULE
1,3-Diethyl-2-oxo-2,3-dihydro-1H-benzoimidazole-5-carbaldehyde
30 31 1 0 0 
SMALL
USER_CHARGES


@<TRIPOS>ATOM
  1 O        0.5880     0.3640     1.0160 O.2   1 <1>  -0.5700 
  2 C        1.7680     0.2690     0.7130 C.2   1 <1>   0.6900 
  3 N        2.6290     1.3200     0.5560 N.am  1 <1>  -0.4770 
  4 N        2.4320    -0.9060     0.4870 N.am  1 <1>  -0.4770 
  5 C        3.8730     0.7920     0.2280 C.ar  1 <1>   0.1170 
  6 C        2.2770     2.7430     0.7250 C.3   1 <1>   0.1400 
  7 C        3.7460    -0.5880     0.1860 C.ar  1 <1>   0.1170 
  8 C        1.8360    -2.2530     0.5690 C.3   1 <1>   0.1400 
  9 C        5.0870     1.4030    -0.0330 C.ar  1 <1>  -0.1500 
 10 C        2.0630     3.3860    -0.6440 C.3   1 <1>  -0.2400 
 11 C        4.8420    -1.3810    -0.1190 C.ar  1 <1>  -0.1500 
 12 C        1.5070    -2.7530    -0.8360 C.3   1 <1>  -0.2400 
 13 C        6.2060     0.6280    -0.3440 C.ar  1 <1>   0.0860 
 14 C        6.0540    -0.7680    -0.3800 C.ar  1 <1>  -0.1500 
 15 C        7.4770     1.2450    -0.6200 C.2   1 <1>   0.4240 
 16 O        8.4920     0.6560    -0.8950 O.2   1 <1>  -0.5700 
 17 H        3.0650     3.2440     1.2580 H     1 <1>   0.0800 
 18 H        1.3730     2.8170     1.3080 H     1 <1>   0.0800 
 19 H        0.9380    -2.2080     1.1610 H     1 <1>   0.0800 
 20 H        2.5290    -2.9190     1.0520 H     1 <1>   0.0800 
 21 H        5.1570     2.4740     0.0050 H     1 <1>   0.1500 
 22 H        2.9580     3.3260    -1.2350 H     1 <1>   0.0800 
 23 H        1.7990     4.4200    -0.5210 H     1 <1>   0.0800 
 24 H        1.2600     2.8890    -1.1600 H     1 <1>   0.0800 
 25 H        4.7410    -2.4500    -0.1510 H     1 <1>   0.1500 
 26 H        0.8010    -2.0900    -1.3050 H     1 <1>   0.0800 
 27 H        1.0680    -3.7320    -0.7790 H     1 <1>   0.0800 
 28 H        2.3970    -2.8100    -1.4360 H     1 <1>   0.0800 
 29 H        6.9130    -1.3730    -0.6190 H     1 <1>   0.1500 
 30 H        7.5190     2.3180    -0.5750 H     1 <1>   0.0600 
@<TRIPOS>BOND
  1   1   2  2   
  2   2   3  am  
  3   2   4  am  
  4   3   5  1   
  5   3   6  1   
  6   4   7  1   
  7   4   8  1   
  8   5   7  ar  
  9   5   9  ar  
 10   6  10  1   
 11   6  17  1   
 12   6  18  1   
 13   7  11  ar  
 14   8  12  1   
 15   8  19  1   
 16   8  20  1   
 17   9  13  ar  
 18   9  21  1   
 19  10  22  1   
 20  10  23  1   
 21  10  24  1   
 22  11  14  ar  
 23  11  25  1   
 24  12  26  1   
 25  12  27  1   
 26  12  28  1   
 27  13  14  ar  
 28  13  15  1   
 29  14  29  1   
 30  15  16  2   
 31  15  30  1   
@<TRIPOS>SUBSTRUCTURE
  1 ****   5 GROUP 4 **** **** 0

# MOE 2024.06 (io_trps.svl 2023.06)
