@<TRIPOS>MOLECULE
2-(4-Ethoxy-benzylamino)-7-oxo-4,7-dihydro-[1,2,4]triazolo[1,5-a]pyrimidine-6-ca
45 47 1 0 0 
SMALL
USER_CHARGES


@<TRIPOS>ATOM
  1 O       -0.1030    -1.9520     1.1170 O.2   1 <1>  -0.5700 
  2 C        0.3340    -2.3320     0.0400 C.2   1 <1>   0.5650 
  3 N       -0.4810    -3.0550    -0.8630 N.pl3 1 <1>   0.5610 
  4 C        1.6870    -2.0760    -0.3590 C.2   1 <1>   0.0290 
  5 N       -1.7630    -3.4870    -0.7870 N.2   1 <1>  -0.7070 
  6 C        0.0130    -3.4970    -2.0450 C.2   1 <1>   0.2700 
  7 C        2.5400    -1.3230     0.5050 C.2   1 <1>   0.7060 
  8 C        2.1320    -2.5190    -1.5820 C.2   1 <1>  -0.0500 
  9 C       -1.9040    -4.1000    -1.9030 C.2   1 <1>   0.5990 
 10 N       -0.8450    -4.1610    -2.7200 N.2   1 <1>  -0.5650 
 11 N        1.3200    -3.2300    -2.4160 N.pl3 1 <1>  -0.5840 
 12 O        3.0890    -0.3170     0.1110 O.2   1 <1>  -0.5700 
 13 O        2.8560    -1.7280     1.7390 O.3   1 <1>  -0.4300 
 14 N       -3.0950    -4.6690    -2.2280 N.pl3 1 <1>  -0.8520 
 15 C        2.6390    -3.0290     2.2380 C.3   1 <1>   0.1200 
 16 C       -3.0490    -6.1120    -2.5160 C.3   1 <1>   0.3530 
 17 C        3.5120    -3.2020     3.4750 C.3   1 <1>  -0.2400 
 18 C       -3.8590    -6.8320    -1.4520 C.ar  1 <1>  -0.1430 
 19 C       -5.0360    -7.4870    -1.7830 C.ar  1 <1>  -0.1500 
 20 C       -3.4280    -6.8390    -0.1320 C.ar  1 <1>  -0.1500 
 21 C       -5.7670    -8.1440    -0.8090 C.ar  1 <1>  -0.1500 
 22 C       -4.1590    -7.4940     0.8440 C.ar  1 <1>  -0.1500 
 23 C       -5.3370    -8.1540     0.5070 C.ar  1 <1>   0.0830 
 24 O       -6.1130    -8.8210     1.3980 O.3   1 <1>  -0.3620 
 25 C       -5.7740    -8.8800     2.7640 C.3   1 <1>   0.1200 
 26 C       -6.8470    -9.6930     3.4810 C.3   1 <1>  -0.2400 
 27 H        3.1390    -2.3070    -1.9160 H     1 <1>   0.1500 
 28 H        1.6070    -3.5660    -3.3470 H     1 <1>   0.4000 
 29 H       -3.7180    -4.5270    -1.4300 H     1 <1>   0.4000 
 30 H        2.9110    -3.7470     1.4830 H     1 <1>   0.0800 
 31 H        1.6000    -3.1320     2.4990 H     1 <1>   0.0800 
 32 H       -2.0360    -6.4790    -2.5100 H     1 <1>   0.0800 
 33 H       -3.4650    -6.2870    -3.4930 H     1 <1>   0.0800 
 34 H        4.5500    -3.0830     3.2200 H     1 <1>   0.0800 
 35 H        3.3710    -4.1850     3.8880 H     1 <1>   0.0800 
 36 H        3.2420    -2.4760     4.2220 H     1 <1>   0.0800 
 37 H       -5.3910    -7.4890    -2.7990 H     1 <1>   0.1500 
 38 H       -2.5200    -6.3280     0.1390 H     1 <1>   0.1500 
 39 H       -6.6790    -8.6530    -1.0630 H     1 <1>   0.1500 
 40 H       -3.7970    -7.4780     1.8540 H     1 <1>   0.1500 
 41 H       -5.7370    -7.8750     3.1490 H     1 <1>   0.0800 
 42 H       -4.8120    -9.3530     2.8560 H     1 <1>   0.0800 
 43 H       -7.8060    -9.2190     3.3680 H     1 <1>   0.0800 
 44 H       -6.6170    -9.7570     4.5290 H     1 <1>   0.0800 
 45 H       -6.8880   -10.6880     3.0770 H     1 <1>   0.0800 
@<TRIPOS>BOND
  1   1   2  2   
  2   2   3  1   
  3   2   4  1   
  4   3   5  1   
  5   3   6  1   
  6   4   7  1   
  7   4   8  2   
  8   5   9  2   
  9   6  10  2   
 10   6  11  1   
 11   7  12  2   
 12   7  13  1   
 13   8  11  1   
 14   8  27  1   
 15   9  10  1   
 16   9  14  1   
 17  11  28  1   
 18  13  15  1   
 19  14  16  1   
 20  14  29  1   
 21  15  17  1   
 22  15  30  1   
 23  15  31  1   
 24  16  18  1   
 25  16  32  1   
 26  16  33  1   
 27  17  34  1   
 28  17  35  1   
 29  17  36  1   
 30  18  19  ar  
 31  18  20  ar  
 32  19  21  ar  
 33  19  37  1   
 34  20  22  ar  
 35  20  38  1   
 36  21  23  ar  
 37  21  39  1   
 38  22  23  ar  
 39  22  40  1   
 40  23  24  1   
 41  24  25  1   
 42  25  26  1   
 43  25  41  1   
 44  25  42  1   
 45  26  43  1   
 46  26  44  1   
 47  26  45  1   
@<TRIPOS>SUBSTRUCTURE
  1 ****   5 GROUP 4 **** **** 0

# MOE 2024.06 (io_trps.svl 2023.06)
