@<TRIPOS>MOLECULE
3-tert-Butyl-6-(3,4,5-triethoxy-phenyl)-[1,2,4]triazolo[3,4-b][1,3,4]thiadiazole
53 55 1 0 0 
SMALL
USER_CHARGES


@<TRIPOS>ATOM
  1 S       -0.4260    -0.3230     0.6360 S.3   1 <1>  -0.1970 
  2 C        0.5650     1.1120     0.5560 C.2   1 <1>   0.2420 
  3 C       -1.8500     0.6620     0.1910 C.2   1 <1>   0.5050 
  4 N        1.8050     1.3870     0.7350 N.2   1 <1>  -0.3380 
  5 N       -0.2000     2.1360     0.2270 N.pl3 1 <1>   0.5050 
  6 N       -1.5620     1.9040     0.0170 N.2   1 <1>  -0.6520 
  7 C       -3.1420     0.0140     0.0680 C.ar  1 <1>   0.0860 
  8 N        1.8870     2.7110     0.5070 N.2   1 <1>  -0.3380 
  9 C        0.6940     3.1440     0.2070 C.2   1 <1>   0.0060 
 10 C       -4.2640     0.7680    -0.2830 C.ar  1 <1>  -0.1500 
 11 C       -3.3380    -1.3520     0.2810 C.ar  1 <1>  -0.1500 
 12 C        0.3180     4.5940    -0.1300 C.3   1 <1>   0.1800 
 13 C       -5.5250     0.1990    -0.4130 C.ar  1 <1>   0.0830 
 14 C       -4.5790    -1.9460     0.1510 C.ar  1 <1>   0.0830 
 15 C       -0.7160     5.1190     0.8790 C.3   1 <1>  -0.2400 
 16 C        1.5540     5.5080    -0.0680 C.3   1 <1>  -0.2400 
 17 C       -0.2650     4.6730    -1.5490 C.3   1 <1>  -0.2400 
 18 O       -6.6230     0.9320    -0.7590 O.3   1 <1>  -0.3630 
 19 C       -5.6920    -1.1680    -0.1840 C.ar  1 <1>   0.0830 
 20 O       -4.6100    -3.2880     0.3780 O.3   1 <1>  -0.3630 
 21 C       -6.5250     2.2710    -1.1850 C.3   1 <1>   0.1200 
 22 O       -6.9270    -1.7240    -0.2900 O.3   1 <1>  -0.3630 
 23 C       -5.4090    -4.1230    -0.4300 C.3   1 <1>   0.1200 
 24 C       -7.9200     2.7370    -1.5880 C.3   1 <1>  -0.2400 
 25 C       -7.7970    -1.5120     0.7960 C.3   1 <1>   0.1200 
 26 C       -4.8130    -5.5270    -0.3920 C.3   1 <1>  -0.2400 
 27 C       -9.0870    -2.2800     0.5260 C.3   1 <1>  -0.2400 
 28 H       -4.1250     1.8190    -0.4510 H     1 <1>   0.1500 
 29 H       -2.5180    -1.9910     0.5530 H     1 <1>   0.1500 
 30 H       -0.3250     5.0470     1.8790 H     1 <1>   0.0800 
 31 H       -1.6260     4.5510     0.8280 H     1 <1>   0.0800 
 32 H       -0.9510     6.1490     0.6780 H     1 <1>   0.0800 
 33 H        2.2990     5.1750    -0.7690 H     1 <1>   0.0800 
 34 H        1.9860     5.4850     0.9170 H     1 <1>   0.0800 
 35 H        1.2940     6.5240    -0.3030 H     1 <1>   0.0800 
 36 H        0.4440     4.2860    -2.2600 H     1 <1>   0.0800 
 37 H       -0.4890     5.6920    -1.8100 H     1 <1>   0.0800 
 38 H       -1.1710     4.1000    -1.6250 H     1 <1>   0.0800 
 39 H       -5.8530     2.3150    -2.0250 H     1 <1>   0.0800 
 40 H       -6.1490     2.8640    -0.3690 H     1 <1>   0.0800 
 41 H       -5.4120    -3.7350    -1.4350 H     1 <1>   0.0800 
 42 H       -6.4090    -4.1260    -0.0340 H     1 <1>   0.0800 
 43 H       -8.2950     2.1260    -2.3900 H     1 <1>   0.0800 
 44 H       -7.8820     3.7580    -1.9230 H     1 <1>   0.0800 
 45 H       -8.5880     2.6750    -0.7480 H     1 <1>   0.0800 
 46 H       -7.9910    -0.4570     0.8810 H     1 <1>   0.0800 
 47 H       -7.3160    -1.8690     1.6910 H     1 <1>   0.0800 
 48 H       -3.8100    -5.5130    -0.7790 H     1 <1>   0.0800 
 49 H       -5.4050    -6.1890    -0.9960 H     1 <1>   0.0800 
 50 H       -4.8050    -5.8960     0.6180 H     1 <1>   0.0800 
 51 H       -9.5430    -1.9230    -0.3800 H     1 <1>   0.0800 
 52 H       -9.7750    -2.1330     1.3380 H     1 <1>   0.0800 
 53 H       -8.8800    -3.3310     0.4350 H     1 <1>   0.0800 
@<TRIPOS>BOND
  1   1   2  1   
  2   1   3  1   
  3   2   4  2   
  4   2   5  1   
  5   3   6  2   
  6   3   7  1   
  7   4   8  1   
  8   5   6  1   
  9   5   9  1   
 10   7  10  ar  
 11   7  11  ar  
 12   8   9  2   
 13   9  12  1   
 14  10  13  ar  
 15  10  28  1   
 16  11  14  ar  
 17  11  29  1   
 18  12  15  1   
 19  12  16  1   
 20  12  17  1   
 21  13  18  1   
 22  13  19  ar  
 23  14  19  ar  
 24  14  20  1   
 25  15  30  1   
 26  15  31  1   
 27  15  32  1   
 28  16  33  1   
 29  16  34  1   
 30  16  35  1   
 31  17  36  1   
 32  17  37  1   
 33  17  38  1   
 34  18  21  1   
 35  19  22  1   
 36  20  23  1   
 37  21  24  1   
 38  21  39  1   
 39  21  40  1   
 40  22  25  1   
 41  23  26  1   
 42  23  41  1   
 43  23  42  1   
 44  24  43  1   
 45  24  44  1   
 46  24  45  1   
 47  25  27  1   
 48  25  46  1   
 49  25  47  1   
 50  26  48  1   
 51  26  49  1   
 52  26  50  1   
 53  27  51  1   
 54  27  52  1   
 55  27  53  1   
@<TRIPOS>SUBSTRUCTURE
  1 ****   7 GROUP 4 **** **** 0

# MOE 2024.06 (io_trps.svl 2023.06)
