@<TRIPOS>MOLECULE
4-Chloro-N-methyl-3-(morpholine-4-sulfonyl)-benzamide
35 36 1 0 0 
SMALL
USER_CHARGES


@<TRIPOS>ATOM
  1 CL       0.5460     0.0500     2.4250 Cl    1 <1>  -0.1770 
  2 C        1.6980    -0.8520     1.4760 C.ar  1 <1>   0.1770 
  3 C        1.3980    -2.0880     0.9150 C.ar  1 <1>  -0.0090 
  4 C        2.9360    -0.2600     1.3020 C.ar  1 <1>  -0.1500 
  5 S       -0.2110    -2.9030     1.0970 S.o2  1 <1>   1.4470 
  6 C        2.3950    -2.6940     0.1560 C.ar  1 <1>  -0.1500 
  7 C        3.9060    -0.8950     0.5510 C.ar  1 <1>  -0.1500 
  8 O       -0.0150    -4.3220     0.8920 O.2   1 <1>  -0.6500 
  9 O       -0.9330    -2.4900     2.2790 O.2   1 <1>  -0.6500 
 10 N       -1.0990    -2.3490    -0.2360 N.am  1 <1>  -0.8490 
 11 C        3.6580    -2.1330    -0.0400 C.ar  1 <1>   0.0860 
 12 C       -1.6900    -1.0170    -0.0550 C.3   1 <1>   0.1960 
 13 C       -2.1210    -3.3250    -0.6640 C.3   1 <1>   0.1960 
 14 C        4.6630    -2.8190    -0.8340 C.2   1 <1>   0.5440 
 15 C       -2.3950    -0.5250    -1.3410 C.3   1 <1>   0.1200 
 16 C       -3.3100    -2.7020    -1.4300 C.3   1 <1>   0.1200 
 17 O        4.3330    -3.5240    -1.7650 O.2   1 <1>  -0.5700 
 18 N        5.9940    -2.6920    -0.5390 N.am  1 <1>  -0.7300 
 19 O       -2.9200    -1.5600    -2.1330 O.3   1 <1>  -0.5600 
 20 C        7.1050    -3.3370    -1.2870 C.3   1 <1>   0.0600 
 21 H        3.1330     0.6970     1.7530 H     1 <1>   0.1500 
 22 H        2.1890    -3.6460    -0.3080 H     1 <1>   0.1500 
 23 H        4.8610    -0.4190     0.4110 H     1 <1>   0.1500 
 24 H       -0.9290    -0.3050     0.2070 H     1 <1>   0.0800 
 25 H       -2.4040    -1.0430     0.7520 H     1 <1>   0.0800 
 26 H       -2.5170    -3.8480     0.1910 H     1 <1>   0.0800 
 27 H       -1.6460    -4.0600    -1.2930 H     1 <1>   0.0800 
 28 H       -1.6920     0.0100    -1.9540 H     1 <1>   0.0800 
 29 H       -3.1980     0.1440    -1.0870 H     1 <1>   0.0800 
 30 H       -4.0930    -2.4240    -0.7450 H     1 <1>   0.0800 
 31 H       -3.7110    -3.4090    -2.1350 H     1 <1>   0.0800 
 32 H        6.2670    -2.2000     0.3140 H     1 <1>   0.3700 
 33 H        6.7340    -3.8030    -2.1850 H     1 <1>   0.0800 
 34 H        7.5690    -4.0890    -0.6740 H     1 <1>   0.0800 
 35 H        7.8380    -2.5980    -1.5610 H     1 <1>   0.0800 
@<TRIPOS>BOND
  1   1   2  1   
  2   2   3  ar  
  3   2   4  ar  
  4   3   5  1   
  5   3   6  ar  
  6   4   7  ar  
  7   4  21  1   
  8   5   8  2   
  9   5   9  2   
 10   5  10  am  
 11   6  11  ar  
 12   6  22  1   
 13   7  11  ar  
 14   7  23  1   
 15  10  12  1   
 16  10  13  1   
 17  11  14  1   
 18  12  15  1   
 19  12  24  1   
 20  12  25  1   
 21  13  16  1   
 22  13  26  1   
 23  13  27  1   
 24  14  17  2   
 25  14  18  am  
 26  15  19  1   
 27  15  28  1   
 28  15  29  1   
 29  16  19  1   
 30  16  30  1   
 31  16  31  1   
 32  18  20  1   
 33  18  32  1   
 34  20  33  1   
 35  20  34  1   
 36  20  35  1   
@<TRIPOS>SUBSTRUCTURE
  1 ****   3 GROUP 4 **** **** 0

# MOE 2024.06 (io_trps.svl 2023.06)
