@<TRIPOS>MOLECULE
(Benzo[1,3]dioxol-5-yl-methanesulfonyl-amino)-acetic acid methyl ester
32 33 1 0 0 
SMALL
USER_CHARGES


@<TRIPOS>ATOM
  1 S        0.2190    -0.1510    -0.7430 S.o2  1 <1>   1.3330 
  2 O        1.4470    -0.4060    -1.4540 O.2   1 <1>  -0.6500 
  3 O        0.0480    -0.5680     0.6260 O.2   1 <1>  -0.6500 
  4 N       -0.0240     1.5610    -0.8050 N.am  1 <1>  -0.6930 
  5 C       -1.1300    -0.7620    -1.7300 C.3   1 <1>  -0.1350 
  6 C       -1.2370     2.1280    -0.4280 C.ar  1 <1>   0.1990 
  7 C        1.2070     2.3740    -0.5540 C.3   1 <1>   0.2570 
  8 C       -1.7130     2.0230     0.8770 C.ar  1 <1>  -0.1500 
  9 C       -1.9890     2.8180    -1.3830 C.ar  1 <1>  -0.1500 
 10 C        1.7700     2.2450     0.8620 C.2   1 <1>   0.6590 
 11 C       -2.9280     2.6010     1.1790 C.ar  1 <1>   0.0820 
 12 C       -3.2090     3.3960    -1.0620 C.ar  1 <1>  -0.1500 
 13 O        1.4630     3.0150     1.7380 O.2   1 <1>  -0.5700 
 14 O        2.6190     1.2460     1.0700 O.3   1 <1>  -0.4300 
 15 O       -3.5700     2.6180     2.3520 O.3   1 <1>  -0.3630 
 16 C       -3.6560     3.2690     0.2380 C.ar  1 <1>   0.0830 
 17 C        3.1270     0.9520     2.3540 C.3   1 <1>   0.0400 
 18 C       -4.7760     3.3520     2.1490 C.3   1 <1>   0.4000 
 19 O       -4.7910     3.7370     0.7750 O.3   1 <1>  -0.3630 
 20 H       -1.0760    -1.8300    -1.8030 H     1 <1>   0.0800 
 21 H       -1.0840    -0.3460    -2.7170 H     1 <1>   0.0800 
 22 H       -2.0680    -0.4950    -1.2830 H     1 <1>   0.0800 
 23 H        0.9790     3.4110    -0.7250 H     1 <1>   0.0800 
 24 H        1.9710     2.0880    -1.2540 H     1 <1>   0.0800 
 25 H       -1.1540     1.5090     1.6390 H     1 <1>   0.1500 
 26 H       -1.6090     2.8990    -2.3850 H     1 <1>   0.1500 
 27 H       -3.7970     3.9290    -1.7880 H     1 <1>   0.1500 
 28 H        3.7860     0.1070     2.2730 H     1 <1>   0.0800 
 29 H        2.3020     0.7170     3.0040 H     1 <1>   0.0800 
 30 H        3.6610     1.8100     2.7230 H     1 <1>   0.0800 
 31 H       -4.7710     4.2300     2.7700 H     1 <1>   0.0800 
 32 H       -5.6220     2.7210     2.3580 H     1 <1>   0.0800 
@<TRIPOS>BOND
  1   1   2  2   
  2   1   3  2   
  3   1   4  am  
  4   1   5  1   
  5   4   6  1   
  6   4   7  1   
  7   5  20  1   
  8   5  21  1   
  9   5  22  1   
 10   6   8  ar  
 11   6   9  ar  
 12   7  10  1   
 13   7  23  1   
 14   7  24  1   
 15   8  11  ar  
 16   8  25  1   
 17   9  12  ar  
 18   9  26  1   
 19  10  13  2   
 20  10  14  1   
 21  11  15  1   
 22  11  16  ar  
 23  12  16  ar  
 24  12  27  1   
 25  14  17  1   
 26  15  18  1   
 27  16  19  1   
 28  17  28  1   
 29  17  29  1   
 30  17  30  1   
 31  18  19  1   
 32  18  31  1   
 33  18  32  1   
@<TRIPOS>SUBSTRUCTURE
  1 ****   6 GROUP 4 **** **** 0

# MOE 2024.06 (io_trps.svl 2023.06)
