@<TRIPOS>MOLECULE
2-(2,4-Dimethoxy-benzoylamino)-4,5,6,7-tetrahydro-benzo[b]thiophene-3-carboxylic
45 47 1 0 0 
SMALL
USER_CHARGES


@<TRIPOS>ATOM
  1 S       -0.5980    -0.4390    -1.8920 S.3   1 <1>  -0.0800 
  2 C       -0.1270    -1.2110    -0.3820 C.2   1 <1>   0.1040 
  3 C       -1.7940     0.5410    -1.0730 C.2   1 <1>  -0.1400 
  4 N        0.8430    -2.2030    -0.3760 N.am  1 <1>  -0.4940 
  5 C       -0.8490    -0.7080     0.6680 C.2   1 <1>  -0.0860 
  6 C       -1.8180     0.2800     0.2420 C.2   1 <1>  -0.1810 
  7 C       -2.6490     1.5050    -1.8650 C.3   1 <1>   0.0200 
  8 C        1.7780    -2.6250    -1.2980 C.2   1 <1>   0.5440 
  9 C       -0.6450    -1.1220     2.0300 C.2   1 <1>   0.7160 
 10 C       -2.8250     0.9820     1.1450 C.3   1 <1>   0.0210 
 11 C       -3.4170     2.4170    -0.8920 C.3   1 <1>  -0.1600 
 12 O        2.0230    -1.9240    -2.2620 O.2   1 <1>  -0.5700 
 13 C        2.4680    -3.8940    -1.1340 C.ar  1 <1>   0.0860 
 14 O       -0.3320    -2.2590     2.3250 O.2   1 <1>  -0.5700 
 15 N       -0.7410    -0.2530     3.0590 N.am  1 <1>  -0.8000 
 16 C       -3.9560     1.6340     0.3220 C.3   1 <1>  -0.1600 
 17 C        2.6490    -4.5450     0.1010 C.ar  1 <1>   0.0820 
 18 C        2.9860    -4.5320    -2.2670 C.ar  1 <1>  -0.1500 
 19 O        2.1830    -3.9460     1.2260 O.3   1 <1>  -0.3620 
 20 C        3.3030    -5.7720     0.1650 C.ar  1 <1>  -0.1500 
 21 C        3.6360    -5.7480    -2.2010 C.ar  1 <1>  -0.1500 
 22 C        2.1180    -4.5940     2.4780 C.3   1 <1>   0.0400 
 23 C        3.7950    -6.3800    -0.9730 C.ar  1 <1>   0.0820 
 24 O        4.4150    -7.5710    -0.8150 O.3   1 <1>  -0.3620 
 25 C        4.9660    -8.2730    -1.9070 C.3   1 <1>   0.0400 
 26 H        0.8980    -2.7310     0.5050 H     1 <1>   0.3700 
 27 H       -3.3390     0.9400    -2.4670 H     1 <1>   0.0800 
 28 H       -2.0310     2.0970    -2.5170 H     1 <1>   0.0800 
 29 H       -2.3170     1.7420     1.7110 H     1 <1>   0.0800 
 30 H       -3.2580     0.2750     1.8310 H     1 <1>   0.0800 
 31 H       -4.2270     2.8950    -1.4140 H     1 <1>   0.0800 
 32 H       -2.7510     3.1870    -0.5410 H     1 <1>   0.0800 
 33 H       -0.4800    -0.5740     3.9900 H     1 <1>   0.3700 
 34 H       -0.7500     0.7520     2.8990 H     1 <1>   0.3700 
 35 H       -4.5260     2.2910     0.9560 H     1 <1>   0.0800 
 36 H       -4.6180     0.8610    -0.0310 H     1 <1>   0.0800 
 37 H        2.8700    -4.0560    -3.2270 H     1 <1>   0.1500 
 38 H        3.4510    -6.2840     1.0950 H     1 <1>   0.1500 
 39 H        4.0090    -6.1870    -3.1070 H     1 <1>   0.1500 
 40 H        1.6210    -3.9370     3.1680 H     1 <1>   0.0800 
 41 H        3.1180    -4.7950     2.8210 H     1 <1>   0.0800 
 42 H        1.5540    -5.5040     2.3730 H     1 <1>   0.0800 
 43 H        5.4030    -9.1820    -1.5340 H     1 <1>   0.0800 
 44 H        5.7250    -7.6650    -2.3660 H     1 <1>   0.0800 
 45 H        4.1810    -8.5050    -2.6060 H     1 <1>   0.0800 
@<TRIPOS>BOND
  1   1   2  1   
  2   1   3  1   
  3   2   4  1   
  4   2   5  2   
  5   3   6  2   
  6   3   7  1   
  7   4   8  am  
  8   4  26  1   
  9   5   6  1   
 10   5   9  1   
 11   6  10  1   
 12   7  11  1   
 13   7  27  1   
 14   7  28  1   
 15   8  12  2   
 16   8  13  1   
 17   9  14  2   
 18   9  15  am  
 19  10  16  1   
 20  10  29  1   
 21  10  30  1   
 22  11  16  1   
 23  11  31  1   
 24  11  32  1   
 25  13  17  ar  
 26  13  18  ar  
 27  15  33  1   
 28  15  34  1   
 29  16  35  1   
 30  16  36  1   
 31  17  19  1   
 32  17  20  ar  
 33  18  21  ar  
 34  18  37  1   
 35  19  22  1   
 36  20  23  ar  
 37  20  38  1   
 38  21  23  ar  
 39  21  39  1   
 40  22  40  1   
 41  22  41  1   
 42  22  42  1   
 43  23  24  1   
 44  24  25  1   
 45  25  43  1   
 46  25  44  1   
 47  25  45  1   
@<TRIPOS>SUBSTRUCTURE
  1 ****   4 GROUP 4 **** **** 0

# MOE 2024.06 (io_trps.svl 2023.06)
