@<TRIPOS>MOLECULE
1-(3,5-Dimethyl-phenyl)-5-oxo-pyrrolidine-3-carboxylic acid (5-methyl-isoxazol-3
42 44 1 0 0 
SMALL
USER_CHARGES


@<TRIPOS>ATOM
  1 O        0.2260     0.0290     0.5580 O.2   1 <1>  -0.5700 
  2 C        1.3850    -0.1720     0.2990 C.2   1 <1>   0.5690 
  3 N        2.0120    -1.3790     0.1700 N.am  1 <1>  -0.4770 
  4 C        2.3370     0.9660     0.0600 C.3   1 <1>  -0.0990 
  5 C        1.4610    -2.6740     0.2680 C.ar  1 <1>   0.1170 
  6 C        3.4400    -1.1850    -0.1580 C.3   1 <1>   0.1400 
  7 C        3.5360     0.2800    -0.6120 C.3   1 <1>  -0.0190 
  8 C        2.2080    -3.7300     0.7830 C.ar  1 <1>  -0.1500 
  9 C        0.1640    -2.9370    -0.1590 C.ar  1 <1>  -0.1500 
 10 C        4.8790     0.9330    -0.3130 C.2   1 <1>   0.5690 
 11 C        1.6850    -5.0090     0.8620 C.ar  1 <1>  -0.1440 
 12 C       -0.3750    -4.2090    -0.0820 C.ar  1 <1>  -0.1440 
 13 O        5.7950     0.2460     0.0660 O.2   1 <1>  -0.5700 
 14 N        4.9900     2.2750    -0.5050 N.am  1 <1>  -0.4930 
 15 C        0.3920    -5.2430     0.4270 C.ar  1 <1>  -0.1500 
 16 C        2.5090    -6.1530     1.4260 C.3   1 <1>  -0.0970 
 17 C       -1.7940    -4.4740    -0.5510 C.3   1 <1>  -0.0970 
 18 C        6.0820     3.1200    -0.3110 C.2   1 <1>   0.3520 
 19 N        5.9880     4.3820    -0.5380 N.2   1 <1>  -0.4100 
 20 C        7.3650     2.7910     0.1280 C.2   1 <1>  -0.1500 
 21 O        7.1650     4.8870    -0.2640 O.3   1 <1>  -0.0190 
 22 C        8.0050     3.9680     0.1340 C.2   1 <1>  -0.0400 
 23 C        9.4240     4.3480     0.5010 C.3   1 <1>  -0.0600 
 24 H        2.6030     1.3890     1.0120 H     1 <1>   0.0800 
 25 H        1.8880     1.7130    -0.5690 H     1 <1>   0.0800 
 26 H        3.7530    -1.8600    -0.9350 H     1 <1>   0.0800 
 27 H        4.0240    -1.3570     0.7310 H     1 <1>   0.0800 
 28 H        3.3910     0.2930    -1.6780 H     1 <1>   0.0800 
 29 H        3.2060    -3.5500     1.1340 H     1 <1>   0.1500 
 30 H       -0.4290    -2.1340    -0.5570 H     1 <1>   0.1500 
 31 H        4.1740     2.7820    -0.8380 H     1 <1>   0.3700 
 32 H       -0.0220    -6.2350     0.4870 H     1 <1>   0.1500 
 33 H        3.5460    -5.8800     1.4970 H     1 <1>   0.0800 
 34 H        2.4270    -7.0150     0.7890 H     1 <1>   0.0800 
 35 H        2.1500    -6.4090     2.4060 H     1 <1>   0.0800 
 36 H       -2.3600    -3.5600    -0.5840 H     1 <1>   0.0800 
 37 H       -2.2870    -5.1520     0.1220 H     1 <1>   0.0800 
 38 H       -1.7780    -4.9070    -1.5350 H     1 <1>   0.0800 
 39 H        7.7200     1.8120     0.3900 H     1 <1>   0.1500 
 40 H        9.9750     3.4770     0.8050 H     1 <1>   0.0800 
 41 H        9.4140     5.0560     1.3100 H     1 <1>   0.0800 
 42 H        9.9120     4.7930    -0.3470 H     1 <1>   0.0800 
@<TRIPOS>BOND
  1   1   2  2   
  2   2   3  am  
  3   2   4  1   
  4   3   5  1   
  5   3   6  1   
  6   4   7  1   
  7   4  24  1   
  8   4  25  1   
  9   5   8  ar  
 10   5   9  ar  
 11   6   7  1   
 12   6  26  1   
 13   6  27  1   
 14   7  10  1   
 15   7  28  1   
 16   8  11  ar  
 17   8  29  1   
 18   9  12  ar  
 19   9  30  1   
 20  10  13  2   
 21  10  14  am  
 22  11  15  ar  
 23  11  16  1   
 24  12  15  ar  
 25  12  17  1   
 26  14  18  1   
 27  14  31  1   
 28  15  32  1   
 29  16  33  1   
 30  16  34  1   
 31  16  35  1   
 32  17  36  1   
 33  17  37  1   
 34  17  38  1   
 35  18  19  2   
 36  18  20  1   
 37  19  21  1   
 38  20  22  2   
 39  20  39  1   
 40  21  22  1   
 41  22  23  1   
 42  23  40  1   
 43  23  41  1   
 44  23  42  1   
@<TRIPOS>SUBSTRUCTURE
  1 ****   6 GROUP 4 **** **** 0

# MOE 2024.06 (io_trps.svl 2023.06)
