@<TRIPOS>MOLECULE
8-Diethylamino-7-(2-hydroxy-3-m-tolyloxy-propyl)-1,3-dimethyl-3,7-dihydro-purine
60 62 1 0 0 
SMALL
USER_CHARGES


@<TRIPOS>ATOM
  1 O        1.0620    -0.2060    -1.1700 O.2   1 <1>  -0.5740 
  2 C        1.9230     0.5920    -0.8620 C.2   1 <1>   0.6870 
  3 N        1.8900     1.8840    -1.3760 N.am  1 <1>  -0.4250 
  4 N        2.9420     0.2120     0.0010 N.am  1 <1>  -0.4410 
  5 C        2.8560     2.8200    -1.0310 C.2   1 <1>   0.7000 
  6 C        0.7630     2.2690    -2.2830 C.3   1 <1>   0.0540 
  7 C        3.9180     1.1420     0.3000 C.2   1 <1>   0.4210 
  8 C        2.9860    -1.1670     0.5740 C.3   1 <1>   0.0540 
  9 O        2.7810     3.9690    -1.4440 O.2   1 <1>  -0.5740 
 10 C        3.9300     2.4020    -0.1740 C.2   1 <1>   0.2720 
 11 N        5.0010     0.9750     1.1000 N.pl3 1 <1>  -0.7030 
 12 N        5.0850     3.0180     0.3550 N.pl3 1 <1>  -0.7670 
 13 C        5.6850     2.1220     1.1610 C.cat 1 <1>   1.0690 
 14 C        5.4660     4.4030    -0.0680 C.3   1 <1>   0.3490 
 15 N        6.7860     2.2480     1.9500 N.pl3 1 <1>  -0.5950 
 16 C        4.8160     5.4980     0.8120 C.3   1 <1>   0.1940 
 17 C        7.3590     3.5300     2.4540 C.3   1 <1>   0.1620 
 18 C        7.4690     1.0600     2.5450 C.3   1 <1>   0.1620 
 19 O        3.4500     5.2670     0.9750 O.3   1 <1>  -0.6830 
 20 C        5.0250     6.8920     0.2200 C.3   1 <1>   0.1140 
 21 C        6.6620     3.9170     3.7570 C.3   1 <1>  -0.2460 
 22 C        8.4070     0.4450     1.5090 C.3   1 <1>  -0.2460 
 23 O        6.4020     7.0440    -0.0500 O.3   1 <1>  -0.3670 
 24 C        6.8800     8.1680    -0.6380 C.ar  1 <1>   0.0760 
 25 C        6.0910     9.2720    -0.9550 C.ar  1 <1>  -0.1560 
 26 C        8.2330     8.1910    -0.9320 C.ar  1 <1>  -0.1560 
 27 C        6.6540    10.3830    -1.5610 C.ar  1 <1>  -0.1500 
 28 C        8.7970     9.2980    -1.5390 C.ar  1 <1>  -0.1560 
 29 C        8.0090    10.3910    -1.8530 C.ar  1 <1>  -0.1560 
 30 C        5.7960    11.5860    -1.9100 C.3   1 <1>  -0.1030 
 31 H        0.5230     1.4540    -2.9440 H     1 <1>   0.0740 
 32 H        1.0230     3.1220    -2.8860 H     1 <1>   0.0740 
 33 H       -0.1070     2.5070    -1.6960 H     1 <1>   0.0740 
 34 H        2.0200    -1.6400     0.5080 H     1 <1>   0.0740 
 35 H        3.2650    -1.1310     1.6120 H     1 <1>   0.0740 
 36 H        3.6970    -1.7640     0.0300 H     1 <1>   0.0740 
 37 H        5.2480     0.1370     1.6130 H     1 <1>   0.4460 
 38 H        5.1610     4.5600    -1.0890 H     1 <1>   0.0740 
 39 H        6.5340     4.5090    -0.0770 H     1 <1>   0.0740 
 40 H        5.2500     5.4830     1.7940 H     1 <1>   0.0740 
 41 H        7.2610     4.3260     1.7480 H     1 <1>   0.0740 
 42 H        8.4150     3.4110     2.6340 H     1 <1>   0.0740 
 43 H        6.7510     0.3290     2.8760 H     1 <1>   0.0740 
 44 H        8.0410     1.3510     3.4110 H     1 <1>   0.0740 
 45 H        2.9880     5.2740     0.1040 H     1 <1>   0.3950 
 46 H        4.7300     7.6510     0.9250 H     1 <1>   0.0740 
 47 H        4.4880     7.0010    -0.7060 H     1 <1>   0.0740 
 48 H        5.6030     4.0340     3.6090 H     1 <1>   0.0740 
 49 H        7.0570     4.8540     4.1100 H     1 <1>   0.0740 
 50 H        6.8340     3.1780     4.5190 H     1 <1>   0.0740 
 51 H        7.8660     0.1010     0.6460 H     1 <1>   0.0740 
 52 H        8.9180    -0.3970     1.9420 H     1 <1>   0.0740 
 53 H        9.1490     1.1610     1.2020 H     1 <1>   0.0740 
 54 H        5.0410     9.2850    -0.7370 H     1 <1>   0.1440 
 55 H        8.8450     7.3430    -0.6860 H     1 <1>   0.1440 
 56 H        9.8490     9.3110    -1.7670 H     1 <1>   0.1440 
 57 H        8.4540    11.2480    -2.3270 H     1 <1>   0.1440 
 58 H        4.9510    11.6520    -1.2480 H     1 <1>   0.0740 
 59 H        5.4410    11.4980    -2.9200 H     1 <1>   0.0740 
 60 H        6.3680    12.4920    -1.8200 H     1 <1>   0.0740 
@<TRIPOS>BOND
  1   1   2  2   
  2   2   3  am  
  3   2   4  am  
  4   3   5  am  
  5   3   6  1   
  6   4   7  1   
  7   4   8  1   
  8   5   9  2   
  9   5  10  1   
 10   6  31  1   
 11   6  32  1   
 12   6  33  1   
 13   7  10  2   
 14   7  11  1   
 15   8  34  1   
 16   8  35  1   
 17   8  36  1   
 18  10  12  1   
 19  11  13  ar  
 20  11  37  1   
 21  12  13  ar  
 22  12  14  1   
 23  13  15  ar  
 24  14  16  1   
 25  14  38  1   
 26  14  39  1   
 27  15  17  1   
 28  15  18  1   
 29  16  19  1   
 30  16  20  1   
 31  16  40  1   
 32  17  21  1   
 33  17  41  1   
 34  17  42  1   
 35  18  22  1   
 36  18  43  1   
 37  18  44  1   
 38  19  45  1   
 39  20  23  1   
 40  20  46  1   
 41  20  47  1   
 42  21  48  1   
 43  21  49  1   
 44  21  50  1   
 45  22  51  1   
 46  22  52  1   
 47  22  53  1   
 48  23  24  1   
 49  24  25  ar  
 50  24  26  ar  
 51  25  27  ar  
 52  25  54  1   
 53  26  28  ar  
 54  26  55  1   
 55  27  29  ar  
 56  27  30  1   
 57  28  29  ar  
 58  28  56  1   
 59  29  57  1   
 60  30  58  1   
 61  30  59  1   
 62  30  60  1   
@<TRIPOS>SUBSTRUCTURE
  1 ****  14 GROUP 4 **** **** 0

# MOE 2024.06 (io_trps.svl 2023.06)
