@<TRIPOS>MOLECULE
3-(4-Chloro-phenyl)-4,5-dihydro-isoxazole-5-carboxylic acid (2-hydroxy-1,1-dimet
37 38 1 0 0 
SMALL
USER_CHARGES


@<TRIPOS>ATOM
  1 CL       1.9050    -1.4770     3.5480 Cl    1 <1>  -0.1770 
  2 C        3.1790    -1.2170     2.3870 C.ar  1 <1>   0.1770 
  3 C        3.5530     0.0730     2.0640 C.ar  1 <1>  -0.1500 
  4 C        3.8000    -2.3020     1.8020 C.ar  1 <1>  -0.1500 
  5 C        4.5650     0.2760     1.1420 C.ar  1 <1>  -0.1500 
  6 C        4.8100    -2.0870     0.8820 C.ar  1 <1>  -0.1500 
  7 C        5.2230    -0.7980     0.5270 C.ar  1 <1>   0.0860 
  8 C        6.2880    -0.6130    -0.4380 C.2   1 <1>   0.3030 
  9 N        6.9120    -1.5220    -1.0660 N.2   1 <1>  -0.5130 
 10 C        6.7910     0.7560    -0.8110 C.3   1 <1>  -0.0990 
 11 O        7.8190    -1.0110    -1.8660 O.3   1 <1>  -0.2170 
 12 C        7.9630     0.3900    -1.7150 C.3   1 <1>   0.2610 
 13 C        9.3190     0.7180    -1.0870 C.2   1 <1>   0.5690 
 14 O        9.6860     1.8690    -1.0830 O.2   1 <1>  -0.5700 
 15 N       10.0530    -0.2820    -0.5250 N.am  1 <1>  -0.7300 
 16 C       11.4010    -0.2200     0.0720 C.3   1 <1>   0.3000 
 17 C       11.4650     0.8210     1.2190 C.3   1 <1>   0.1200 
 18 C       12.4060     0.1240    -1.0300 C.3   1 <1>  -0.2400 
 19 C       11.7010    -1.6250     0.6020 C.3   1 <1>  -0.2400 
 20 O       10.4480     0.6090     2.1470 O.3   1 <1>  -0.6800 
 21 H        3.0530     0.9020     2.5320 H     1 <1>   0.1500 
 22 H        3.4950    -3.2990     2.0650 H     1 <1>   0.1500 
 23 H        4.8380     1.2880     0.9050 H     1 <1>   0.1500 
 24 H        5.2930    -2.9350     0.4260 H     1 <1>   0.1500 
 25 H        7.1130     1.3190     0.0460 H     1 <1>   0.0800 
 26 H        6.0480     1.3050    -1.3600 H     1 <1>   0.0800 
 27 H        7.8800     0.8440    -2.6850 H     1 <1>   0.0800 
 28 H        9.6640    -1.2290    -0.5910 H     1 <1>   0.3700 
 29 H       11.3570     1.8180     0.8280 H     1 <1>   0.0800 
 30 H       12.4050     0.7590     1.7370 H     1 <1>   0.0800 
 31 H       13.4070     0.1050    -0.6380 H     1 <1>   0.0800 
 32 H       12.2180     1.1090    -1.4180 H     1 <1>   0.0800 
 33 H       12.3420    -0.5860    -1.8350 H     1 <1>   0.0800 
 34 H       12.6790    -1.6490     1.0490 H     1 <1>   0.0800 
 35 H       11.6760    -2.3470    -0.1930 H     1 <1>   0.0800 
 36 H       10.9870    -1.9050     1.3560 H     1 <1>   0.0800 
 37 H        9.6060     0.5310     1.6570 H     1 <1>   0.4000 
@<TRIPOS>BOND
  1   1   2  1   
  2   2   3  ar  
  3   2   4  ar  
  4   3   5  ar  
  5   3  21  1   
  6   4   6  ar  
  7   4  22  1   
  8   5   7  ar  
  9   5  23  1   
 10   6   7  ar  
 11   6  24  1   
 12   7   8  1   
 13   8   9  2   
 14   8  10  1   
 15   9  11  1   
 16  10  12  1   
 17  10  25  1   
 18  10  26  1   
 19  11  12  1   
 20  12  13  1   
 21  12  27  1   
 22  13  14  2   
 23  13  15  am  
 24  15  16  1   
 25  15  28  1   
 26  16  17  1   
 27  16  18  1   
 28  16  19  1   
 29  17  20  1   
 30  17  29  1   
 31  17  30  1   
 32  18  31  1   
 33  18  32  1   
 34  18  33  1   
 35  19  34  1   
 36  19  35  1   
 37  19  36  1   
 38  20  37  1   
@<TRIPOS>SUBSTRUCTURE
  1 ****   8 GROUP 4 **** **** 0

# MOE 2024.06 (io_trps.svl 2023.06)
