@<TRIPOS>MOLECULE
8-[4-(2-Fluoro-phenyl)-piperazin-1-ylmethyl]-7-(3-hydroxy-propyl)-1,3-dimethyl-3
59 62 1 0 0 
SMALL
USER_CHARGES


@<TRIPOS>ATOM
  1 F        0.2310     0.6420    -1.2500 F     1 <1>  -0.1900 
  2 C        1.3530     0.5330    -0.5750 C.ar  1 <1>   0.1900 
  3 C        1.8740     1.6490     0.0920 C.ar  1 <1>   0.1000 
  4 C        1.9680    -0.7030    -0.5610 C.ar  1 <1>  -0.1500 
  5 N        1.2880     2.9220     0.1070 N.pl3 1 <1>  -0.8380 
  6 C        3.0630     1.4640     0.7860 C.ar  1 <1>  -0.1500 
  7 C        3.1530    -0.8530     0.1410 C.ar  1 <1>  -0.1500 
  8 C        1.2980     3.6420    -1.1990 C.3   1 <1>   0.2090 
  9 C       -0.0300     3.0080     0.7940 C.3   1 <1>   0.2090 
 10 C        3.6970     0.2320     0.8120 C.ar  1 <1>  -0.1500 
 11 C        0.8050     5.0930    -1.0350 C.3   1 <1>   0.1100 
 12 C       -0.4830     4.4740     0.9190 C.3   1 <1>   0.1100 
 13 N       -0.5380     5.1560    -0.4030 N.3   1 <1>  -0.8100 
 14 C       -1.0330     6.5510    -0.2860 C.3   1 <1>   0.2540 
 15 C       -2.5650     6.5840    -0.1520 C.cat 1 <1>   0.6560 
 16 N       -3.3120     5.5620    -0.5520 N.pl3 1 <1>  -0.7000 
 17 N       -3.3370     7.5440     0.3490 N.pl3 1 <1>  -0.7640 
 18 C       -4.6090     5.8540    -0.3010 C.2   1 <1>   0.4260 
 19 C       -4.6600     7.0830     0.2670 C.2   1 <1>   0.2770 
 20 C       -2.9660     8.8710     0.9110 C.3   1 <1>   0.3540 
 21 N       -5.7180     5.0670    -0.5420 N.am  1 <1>  -0.4360 
 22 C       -5.9430     7.6000     0.6500 C.2   1 <1>   0.7030 
 23 C       -3.1110     9.9410    -0.1710 C.3   1 <1>  -0.1600 
 24 C       -6.9570     5.5510    -0.1500 C.2   1 <1>   0.6900 
 25 C       -5.5850     3.7210    -1.1750 C.3   1 <1>   0.0600 
 26 O       -6.0470     8.6870     1.1910 O.2   1 <1>  -0.5700 
 27 N       -7.0670     6.8210     0.4050 N.am  1 <1>  -0.4200 
 28 C       -2.8350    11.3320     0.4000 C.3   1 <1>   0.1200 
 29 O       -7.9450     4.8580    -0.2830 O.2   1 <1>  -0.5700 
 30 C       -8.4220     7.3300     0.7860 C.3   1 <1>   0.0600 
 31 O       -3.0150    12.2520    -0.6110 O.3   1 <1>  -0.6800 
 32 H        1.5290    -1.5290    -1.0880 H     1 <1>   0.1500 
 33 H        3.4880     2.3030     1.3070 H     1 <1>   0.1500 
 34 H        3.6500    -1.8080     0.1660 H     1 <1>   0.1500 
 35 H        0.6670     3.1280    -1.9030 H     1 <1>   0.0800 
 36 H        2.3010     3.6460    -1.5920 H     1 <1>   0.0800 
 37 H        0.0560     2.5720     1.7740 H     1 <1>   0.0800 
 38 H       -0.7660     2.4510     0.2420 H     1 <1>   0.0800 
 39 H        4.6170     0.1170     1.3580 H     1 <1>   0.1500 
 40 H        0.7700     5.5510    -2.0090 H     1 <1>   0.0800 
 41 H        1.5210     5.6300    -0.4360 H     1 <1>   0.0800 
 42 H        0.2080     4.9840     1.5690 H     1 <1>   0.0800 
 43 H       -1.4530     4.4890     1.3840 H     1 <1>   0.0800 
 44 H       -0.7740     7.0980    -1.1750 H     1 <1>   0.0800 
 45 H       -0.5730     7.0370     0.5560 H     1 <1>   0.0800 
 46 H       -2.8920     4.7140    -0.9480 H     1 <1>   0.4500 
 47 H       -1.9510     8.8500     1.2710 H     1 <1>   0.0800 
 48 H       -3.6060     9.1040     1.7470 H     1 <1>   0.0800 
 49 H       -4.1180     9.9270    -0.5500 H     1 <1>   0.0800 
 50 H       -2.4230     9.7390    -0.9720 H     1 <1>   0.0800 
 51 H       -4.8330     3.7400    -1.9440 H     1 <1>   0.0800 
 52 H       -6.5160     3.4200    -1.6260 H     1 <1>   0.0800 
 53 H       -5.3150     2.9940    -0.4280 H     1 <1>   0.0800 
 54 H       -1.8300    11.4300     0.7740 H     1 <1>   0.0800 
 55 H       -3.5360    11.5710     1.1840 H     1 <1>   0.0800 
 56 H       -8.4390     8.4060     0.8030 H     1 <1>   0.0800 
 57 H       -8.6860     6.9590     1.7600 H     1 <1>   0.0800 
 58 H       -9.1590     6.9960     0.0760 H     1 <1>   0.0800 
 59 H       -2.2930    12.2230    -1.2680 H     1 <1>   0.4000 
@<TRIPOS>BOND
  1   1   2  1   
  2   2   3  ar  
  3   2   4  ar  
  4   3   5  1   
  5   3   6  ar  
  6   4   7  ar  
  7   4  32  1   
  8   5   8  1   
  9   5   9  1   
 10   6  10  ar  
 11   6  33  1   
 12   7  10  ar  
 13   7  34  1   
 14   8  11  1   
 15   8  35  1   
 16   8  36  1   
 17   9  12  1   
 18   9  37  1   
 19   9  38  1   
 20  10  39  1   
 21  11  13  1   
 22  11  40  1   
 23  11  41  1   
 24  12  13  1   
 25  12  42  1   
 26  12  43  1   
 27  13  14  1   
 28  14  15  1   
 29  14  44  1   
 30  14  45  1   
 31  15  16  ar  
 32  15  17  ar  
 33  16  18  1   
 34  16  46  1   
 35  17  19  1   
 36  17  20  1   
 37  18  19  2   
 38  18  21  1   
 39  19  22  1   
 40  20  23  1   
 41  20  47  1   
 42  20  48  1   
 43  21  24  am  
 44  21  25  1   
 45  22  26  2   
 46  22  27  am  
 47  23  28  1   
 48  23  49  1   
 49  23  50  1   
 50  24  27  am  
 51  24  29  2   
 52  25  51  1   
 53  25  52  1   
 54  25  53  1   
 55  27  30  1   
 56  28  31  1   
 57  28  54  1   
 58  28  55  1   
 59  30  56  1   
 60  30  57  1   
 61  30  58  1   
 62  31  59  1   
@<TRIPOS>SUBSTRUCTURE
  1 ****  16 GROUP 4 **** **** 0

# MOE 2024.06 (io_trps.svl 2023.06)
