@<TRIPOS>MOLECULE
6-(4-tert-Butyl-phenoxymethyl)-3-trifluoromethyl-[1,2,4]triazolo[3,4-b][1,3,4]th
39 41 1 0 0 
SMALL
USER_CHARGES


@<TRIPOS>ATOM
  1 S       -0.4220    -0.1820     0.5620 S.3   1 <1>  -0.1970 
  2 C        0.4360     1.3180     0.2790 C.2   1 <1>   0.2420 
  3 C       -1.9370     0.6700     0.1930 C.2   1 <1>   0.5300 
  4 N        1.6610     1.7020     0.3120 N.2   1 <1>  -0.3380 
  5 N       -0.4370     2.2570    -0.0440 N.pl3 1 <1>   0.5050 
  6 N       -1.7850     1.9030    -0.0970 N.2   1 <1>  -0.6520 
  7 C       -3.1930    -0.1880     0.2750 C.3   1 <1>   0.1810 
  8 N        1.6100     3.0060    -0.0170 N.2   1 <1>  -0.3380 
  9 C        0.3570     3.3130    -0.2230 C.2   1 <1>   0.0060 
 10 O       -4.3450     0.5710    -0.0330 O.3   1 <1>  -0.3630 
 11 C       -0.2590     4.6400    -0.6170 C.3   1 <1>   1.2000 
 12 C       -5.5800     0.0120    -0.0230 C.ar  1 <1>   0.0830 
 13 F        0.6350     5.6100    -0.7640 F     1 <1>  -0.3400 
 14 F       -0.9160     4.5680    -1.7680 F     1 <1>  -0.3400 
 15 F       -1.1300     5.0770     0.2850 F     1 <1>  -0.3400 
 16 C       -6.6410     0.8410    -0.3380 C.ar  1 <1>  -0.1500 
 17 C       -5.8310    -1.3210     0.2810 C.ar  1 <1>  -0.1500 
 18 C       -7.9330     0.3510    -0.3500 C.ar  1 <1>  -0.1500 
 19 C       -7.1280    -1.8040     0.2670 C.ar  1 <1>  -0.1500 
 20 C       -8.2060    -0.9800    -0.0490 C.ar  1 <1>  -0.1440 
 21 C       -9.6680    -1.4780    -0.0770 C.3   1 <1>   0.1430 
 22 C      -10.5020    -0.6810     0.9370 C.3   1 <1>  -0.2400 
 23 C      -10.2510    -1.2800    -1.4850 C.3   1 <1>  -0.2400 
 24 C       -9.8090    -2.9690     0.2770 C.3   1 <1>  -0.2400 
 25 H       -3.3030    -0.5740     1.2720 H     1 <1>   0.0800 
 26 H       -3.1260    -0.9950    -0.4310 H     1 <1>   0.0800 
 27 H       -6.4490     1.8720    -0.5730 H     1 <1>   0.1500 
 28 H       -5.0400    -2.0000     0.5310 H     1 <1>   0.1500 
 29 H       -8.7300     1.0270    -0.6000 H     1 <1>   0.1500 
 30 H       -7.2720    -2.8400     0.5080 H     1 <1>   0.1500 
 31 H      -11.5170    -1.0370     0.9590 H     1 <1>   0.0800 
 32 H      -10.0810    -0.7860     1.9210 H     1 <1>   0.0800 
 33 H      -10.5210     0.3630     0.6890 H     1 <1>   0.0800 
 34 H      -10.2680    -0.2410    -1.7550 H     1 <1>   0.0800 
 35 H      -11.2580    -1.6550    -1.5360 H     1 <1>   0.0800 
 36 H       -9.6530    -1.8070    -2.2070 H     1 <1>   0.0800 
 37 H       -9.4390    -3.1580     1.2690 H     1 <1>   0.0800 
 38 H       -9.2640    -3.5760    -0.4240 H     1 <1>   0.0800 
 39 H      -10.8410    -3.2690     0.2440 H     1 <1>   0.0800 
@<TRIPOS>BOND
  1   1   2  1   
  2   1   3  1   
  3   2   4  2   
  4   2   5  1   
  5   3   6  2   
  6   3   7  1   
  7   4   8  1   
  8   5   6  1   
  9   5   9  1   
 10   7  10  1   
 11   7  25  1   
 12   7  26  1   
 13   8   9  2   
 14   9  11  1   
 15  10  12  1   
 16  11  13  1   
 17  11  14  1   
 18  11  15  1   
 19  12  16  ar  
 20  12  17  ar  
 21  16  18  ar  
 22  16  27  1   
 23  17  19  ar  
 24  17  28  1   
 25  18  20  ar  
 26  18  29  1   
 27  19  20  ar  
 28  19  30  1   
 29  20  21  1   
 30  21  22  1   
 31  21  23  1   
 32  21  24  1   
 33  22  31  1   
 34  22  32  1   
 35  22  33  1   
 36  23  34  1   
 37  23  35  1   
 38  23  36  1   
 39  24  37  1   
 40  24  38  1   
 41  24  39  1   
@<TRIPOS>SUBSTRUCTURE
  1 ****  10 GROUP 4 **** **** 0

# MOE 2024.06 (io_trps.svl 2023.06)
