@<TRIPOS>MOLECULE
1,3-Dimethyl-2-oxo-2,3-dihydro-1H-benzoimidazole-5-carboxylic acid dimethylamide
32 33 1 0 0 
SMALL
USER_CHARGES


@<TRIPOS>ATOM
  1 O       -0.5080    -0.1640     0.2170 O.2   1 <1>  -0.5700 
  2 C       -1.7280    -0.0880     0.1980 C.2   1 <1>   0.6900 
  3 N       -2.4570     0.9990     0.5970 N.am  1 <1>  -0.4770 
  4 N       -2.5740    -1.0790    -0.2240 N.am  1 <1>  -0.4770 
  5 C       -3.8000     0.6820     0.4270 C.ar  1 <1>   0.1170 
  6 C       -1.9140     2.2520     1.1650 C.3   1 <1>   0.0600 
  7 C       -3.8680    -0.6060    -0.0790 C.ar  1 <1>   0.1170 
  8 C       -2.1740    -2.4160    -0.7110 C.3   1 <1>   0.0600 
  9 C       -4.9510     1.4100     0.6750 C.ar  1 <1>  -0.1500 
 10 C       -5.0990    -1.1900    -0.3420 C.ar  1 <1>  -0.1500 
 11 C       -6.2010     0.8520     0.4060 C.ar  1 <1>   0.0860 
 12 C       -6.2460    -0.4590    -0.0950 C.ar  1 <1>  -0.1500 
 13 C       -7.4260     1.5900     0.6420 C.2   1 <1>   0.5440 
 14 O       -8.3280     1.0560     1.2600 O.2   1 <1>  -0.5700 
 15 N       -7.6070     2.8810     0.1790 N.am  1 <1>  -0.6600 
 16 C       -6.8070     3.4820    -0.9240 C.3   1 <1>   0.0600 
 17 C       -8.7660     3.7060     0.6210 C.3   1 <1>   0.0600 
 18 H       -0.8390     2.2030     1.1950 H     1 <1>   0.0800 
 19 H       -2.2870     2.3860     2.1640 H     1 <1>   0.0800 
 20 H       -2.2110     3.0840     0.5530 H     1 <1>   0.0800 
 21 H       -1.1000    -2.4970    -0.7170 H     1 <1>   0.0800 
 22 H       -2.5440    -2.5610    -1.7100 H     1 <1>   0.0800 
 23 H       -2.5800    -3.1720    -0.0630 H     1 <1>   0.0800 
 24 H       -4.8820     2.4030     1.0770 H     1 <1>   0.1500 
 25 H       -5.1490    -2.1920    -0.7260 H     1 <1>   0.1500 
 26 H       -7.2120    -0.8970    -0.2850 H     1 <1>   0.1500 
 27 H       -6.2070     2.7370    -1.4150 H     1 <1>   0.0800 
 28 H       -6.1650     4.2500    -0.5290 H     1 <1>   0.0800 
 29 H       -7.4660     3.9170    -1.6550 H     1 <1>   0.0800 
 30 H       -9.1780     3.3200     1.5380 H     1 <1>   0.0800 
 31 H       -9.5310     3.6890    -0.1360 H     1 <1>   0.0800 
 32 H       -8.4530     4.7210     0.7890 H     1 <1>   0.0800 
@<TRIPOS>BOND
  1   1   2  2   
  2   2   3  am  
  3   2   4  am  
  4   3   5  1   
  5   3   6  1   
  6   4   7  1   
  7   4   8  1   
  8   5   7  ar  
  9   5   9  ar  
 10   6  18  1   
 11   6  19  1   
 12   6  20  1   
 13   7  10  ar  
 14   8  21  1   
 15   8  22  1   
 16   8  23  1   
 17   9  11  ar  
 18   9  24  1   
 19  10  12  ar  
 20  10  25  1   
 21  11  12  ar  
 22  11  13  1   
 23  12  26  1   
 24  13  14  2   
 25  13  15  am  
 26  15  16  1   
 27  15  17  1   
 28  16  27  1   
 29  16  28  1   
 30  16  29  1   
 31  17  30  1   
 32  17  31  1   
 33  17  32  1   
@<TRIPOS>SUBSTRUCTURE
  1 ****   9 GROUP 4 **** **** 0

# MOE 2024.06 (io_trps.svl 2023.06)
