@<TRIPOS>MOLECULE
1-(2,5-Dimethoxy-benzenesulfonyl)-piperidine-3-carboxylic acid (pyridin-3-ylmeth
54 56 1 0 0 
SMALL
USER_CHARGES


@<TRIPOS>ATOM
  1 S        0.9070    -0.8160    -0.0880 S.o2  1 <1>   1.4470 
  2 O        0.5270    -2.1540     0.3170 O.2   1 <1>  -0.6500 
  3 O        2.0340    -0.2100     0.5960 O.2   1 <1>  -0.6500 
  4 N        1.2810    -0.8260    -1.7500 N.am  1 <1>  -0.8490 
  5 C       -0.5060     0.3120     0.0270 C.ar  1 <1>  -0.0090 
  6 C        2.5930    -0.2800    -2.1230 C.3   1 <1>   0.1960 
  7 C        0.9520    -2.0540    -2.4820 C.3   1 <1>   0.1960 
  8 C       -1.7610    -0.0330    -0.4670 C.ar  1 <1>   0.0820 
  9 C       -0.3680     1.5670     0.6090 C.ar  1 <1>  -0.1500 
 10 C        3.7120    -1.2960    -1.8610 C.3   1 <1>  -0.0190 
 11 C        2.0390    -3.1290    -2.3100 C.3   1 <1>  -0.1600 
 12 O       -1.9620    -1.2310    -1.0550 O.3   1 <1>  -0.3630 
 13 C       -2.8320     0.8460    -0.3870 C.ar  1 <1>  -0.1500 
 14 C       -1.4290     2.4530     0.7010 C.ar  1 <1>   0.0820 
 15 C        5.0480    -0.6630    -2.2130 C.2   1 <1>   0.5690 
 16 C        3.4400    -2.5950    -2.6430 C.3   1 <1>  -0.1600 
 17 C       -2.6430    -2.1980    -0.2860 C.3   1 <1>   0.0400 
 18 C       -2.6720     2.0880     0.1970 C.ar  1 <1>  -0.1500 
 19 O       -1.1740     3.6480     1.2920 O.3   1 <1>  -0.3630 
 20 O        5.3250    -0.4470    -3.3680 O.2   1 <1>  -0.5700 
 21 N        5.8950    -0.3350    -1.2100 N.am  1 <1>  -0.7300 
 22 C       -2.1830     4.6240     1.4320 C.3   1 <1>   0.0400 
 23 C        7.2280     0.2550    -1.4050 C.3   1 <1>   0.2840 
 24 C        8.0810    -0.0970    -0.2040 C.ar  1 <1>  -0.1430 
 25 C        8.7270    -1.3230    -0.1440 C.ar  1 <1>   0.1600 
 26 C        8.2260     0.7840     0.8490 C.ar  1 <1>  -0.1500 
 27 N        9.4900    -1.7290     0.8580 N.ar  1 <1>  -0.6200 
 28 C        9.0180     0.3770     1.9010 C.ar  1 <1>  -0.1500 
 29 C        9.6180    -0.8700     1.8560 C.ar  1 <1>   0.1600 
 30 H        2.7820     0.6340    -1.5840 H     1 <1>   0.0800 
 31 H        2.5820    -0.0340    -3.1720 H     1 <1>   0.0800 
 32 H        0.8630    -1.8140    -3.5280 H     1 <1>   0.0800 
 33 H       -0.0010    -2.4380    -2.1590 H     1 <1>   0.0800 
 34 H        0.5860     1.8730     1.0030 H     1 <1>   0.1500 
 35 H        3.7290    -1.5310    -0.8130 H     1 <1>   0.0800 
 36 H        1.8110    -3.9630    -2.9500 H     1 <1>   0.0800 
 37 H        2.0220    -3.4930    -1.2970 H     1 <1>   0.0800 
 38 H       -3.7860     0.5560    -0.7900 H     1 <1>   0.1500 
 39 H        4.1840    -3.3340    -2.3980 H     1 <1>   0.0800 
 40 H        3.5030    -2.3970    -3.7000 H     1 <1>   0.0800 
 41 H       -3.6380    -1.8470    -0.0760 H     1 <1>   0.0800 
 42 H       -2.1000    -2.3630     0.6280 H     1 <1>   0.0800 
 43 H       -2.6860    -3.1100    -0.8540 H     1 <1>   0.0800 
 44 H       -3.5150     2.7500     0.2480 H     1 <1>   0.1500 
 45 H        5.6310    -0.4930    -0.2340 H     1 <1>   0.3700 
 46 H       -1.7540     5.4790     1.9220 H     1 <1>   0.0800 
 47 H       -2.9790     4.2210     2.0320 H     1 <1>   0.0800 
 48 H       -2.5370     4.9030     0.4550 H     1 <1>   0.0800 
 49 H        7.1350     1.3230    -1.5020 H     1 <1>   0.0800 
 50 H        7.6710    -0.1310    -2.3090 H     1 <1>   0.0800 
 51 H        8.6070    -2.0100    -0.9650 H     1 <1>   0.1500 
 52 H        7.7440     1.7470     0.8560 H     1 <1>   0.1500 
 53 H        9.1730     1.0170     2.7510 H     1 <1>   0.1500 
 54 H       10.2340    -1.1770     2.6840 H     1 <1>   0.1500 
@<TRIPOS>BOND
  1   1   2  2   
  2   1   3  2   
  3   1   4  am  
  4   1   5  1   
  5   4   6  1   
  6   4   7  1   
  7   5   8  ar  
  8   5   9  ar  
  9   6  10  1   
 10   6  30  1   
 11   6  31  1   
 12   7  11  1   
 13   7  32  1   
 14   7  33  1   
 15   8  12  1   
 16   8  13  ar  
 17   9  14  ar  
 18   9  34  1   
 19  10  15  1   
 20  10  16  1   
 21  10  35  1   
 22  11  16  1   
 23  11  36  1   
 24  11  37  1   
 25  12  17  1   
 26  13  18  ar  
 27  13  38  1   
 28  14  18  ar  
 29  14  19  1   
 30  15  20  2   
 31  15  21  am  
 32  16  39  1   
 33  16  40  1   
 34  17  41  1   
 35  17  42  1   
 36  17  43  1   
 37  18  44  1   
 38  19  22  1   
 39  21  23  1   
 40  21  45  1   
 41  22  46  1   
 42  22  47  1   
 43  22  48  1   
 44  23  24  1   
 45  23  49  1   
 46  23  50  1   
 47  24  25  ar  
 48  24  26  ar  
 49  25  27  ar  
 50  25  51  1   
 51  26  28  ar  
 52  26  52  1   
 53  27  29  ar  
 54  28  29  ar  
 55  28  53  1   
 56  29  54  1   
@<TRIPOS>SUBSTRUCTURE
  1 ****   3 GROUP 4 **** **** 0

# MOE 2024.06 (io_trps.svl 2023.06)
