@<TRIPOS>MOLECULE
8-(3-Methoxy-propyl)-1,6,7-trimethyl-3-(2-methyl-benzyl)-1H,8H-imidazo[2,1-f]pur
58 61 1 0 0 
SMALL
USER_CHARGES


@<TRIPOS>ATOM
  1 O        1.3850    -0.8990     0.9750 O.2   1 <1>  -0.5740 
  2 C        2.0290     0.1290     0.9290 C.2   1 <1>   0.6870 
  3 N        1.4740     1.3230     1.3670 N.am  1 <1>  -0.4250 
  4 N        3.3390     0.1050     0.4660 N.am  1 <1>  -0.4410 
  5 C        2.2600     2.4430     1.5810 C.2   1 <1>   0.7000 
  6 C       -0.0080     1.4490     1.4350 C.3   1 <1>   0.2780 
  7 C        4.0840     1.2610     0.5680 C.2   1 <1>   0.4210 
  8 C        3.9400    -1.1380    -0.1020 C.3   1 <1>   0.0530 
  9 O        1.8230     3.4070     2.1880 O.2   1 <1>  -0.5740 
 10 C        3.6040     2.4090     1.1060 C.2   1 <1>   0.2720 
 11 C       -0.5530     1.7890     0.0480 C.ar  1 <1>  -0.1500 
 12 N        5.3800     1.4490     0.1960 N.pl3 1 <1>  -0.7030 
 13 N        4.6640     3.3340     1.0670 N.pl3 1 <1>  -0.6320 
 14 C       -0.8340     3.0890    -0.3770 C.ar  1 <1>  -0.1500 
 15 C       -0.7740     0.7330    -0.8270 C.ar  1 <1>  -0.1560 
 16 C        5.6920     2.7020     0.5170 C.cat 1 <1>   1.0690 
 17 C        5.1010     4.6030     1.3780 C.2   1 <1>   0.2350 
 18 C       -1.3040     3.2970    -1.6660 C.ar  1 <1>  -0.1560 
 19 C       -0.6590     4.3210     0.5020 C.3   1 <1>  -0.1030 
 20 C       -1.2470     0.9510    -2.1070 C.ar  1 <1>  -0.1560 
 21 N        6.7800     3.4770     0.4480 N.pl3 1 <1>  -0.5710 
 22 C        6.4000     4.6920     0.9990 C.2   1 <1>   0.1590 
 23 C        4.1630     5.6010     2.0300 C.3   1 <1>  -0.1080 
 24 C       -1.5090     2.2380    -2.5290 C.ar  1 <1>  -0.1560 
 25 C        8.0960     3.0950    -0.1290 C.3   1 <1>   0.1620 
 26 C        7.3670     5.8590     1.1090 C.3   1 <1>  -0.1080 
 27 C        8.7610     1.9820     0.6970 C.3   1 <1>  -0.1660 
 28 C        8.9390     0.6780    -0.0870 C.3   1 <1>   0.1140 
 29 O        7.7000     0.2390    -0.5510 O.3   1 <1>  -0.5640 
 30 C        7.7930    -0.9260    -1.3130 C.3   1 <1>   0.0330 
 31 H       -0.2900     2.1900     2.1590 H     1 <1>   0.0730 
 32 H       -0.4370     0.5190     1.7680 H     1 <1>   0.0730 
 33 H        3.1790    -1.8700    -0.3130 H     1 <1>   0.0730 
 34 H        4.6360    -1.5590     0.6020 H     1 <1>   0.0730 
 35 H        4.4510    -0.9110    -1.0200 H     1 <1>   0.0730 
 36 H        6.0900     0.7910    -0.1590 H     1 <1>   0.4460 
 37 H       -0.5810    -0.2810    -0.5180 H     1 <1>   0.1440 
 38 H       -1.5190     4.2940    -2.0090 H     1 <1>   0.1440 
 39 H       -0.9280     4.1240     1.5220 H     1 <1>   0.0730 
 40 H       -1.2910     5.1200     0.1560 H     1 <1>   0.0730 
 41 H        0.3580     4.6610     0.4600 H     1 <1>   0.0730 
 42 H       -1.4120     0.1210    -2.7710 H     1 <1>   0.1440 
 43 H        3.8250     5.2220     2.9780 H     1 <1>   0.0730 
 44 H        3.3050     5.7620     1.4010 H     1 <1>   0.0730 
 45 H        4.6510     6.5430     2.1920 H     1 <1>   0.0730 
 46 H       -1.8770     2.4160    -3.5240 H     1 <1>   0.1440 
 47 H        8.7450     3.9540    -0.1490 H     1 <1>   0.0730 
 48 H        7.9570     2.7770    -1.1490 H     1 <1>   0.0730 
 49 H        7.7010     6.1570     0.1310 H     1 <1>   0.0730 
 50 H        8.2210     5.5760     1.6980 H     1 <1>   0.0730 
 51 H        6.8990     6.7050     1.5780 H     1 <1>   0.0730 
 52 H        8.2260     1.7860     1.6090 H     1 <1>   0.0730 
 53 H        9.7430     2.3180     0.9800 H     1 <1>   0.0730 
 54 H        9.3620    -0.0850     0.5470 H     1 <1>   0.0730 
 55 H        9.5880     0.8370    -0.9340 H     1 <1>   0.0730 
 56 H        8.2010    -1.7180    -0.7080 H     1 <1>   0.0730 
 57 H        8.4250    -0.7460    -2.1670 H     1 <1>   0.0730 
 58 H        6.8080    -1.1990    -1.6490 H     1 <1>   0.0730 
@<TRIPOS>BOND
  1   1   2  2   
  2   2   3  am  
  3   2   4  am  
  4   3   5  am  
  5   3   6  1   
  6   4   7  1   
  7   4   8  1   
  8   5   9  2   
  9   5  10  1   
 10   6  11  1   
 11   6  31  1   
 12   6  32  1   
 13   7  10  2   
 14   7  12  1   
 15   8  33  1   
 16   8  34  1   
 17   8  35  1   
 18  10  13  1   
 19  11  14  ar  
 20  11  15  ar  
 21  12  16  ar  
 22  12  36  1   
 23  13  16  ar  
 24  13  17  1   
 25  14  18  ar  
 26  14  19  1   
 27  15  20  ar  
 28  15  37  1   
 29  16  21  ar  
 30  17  22  2   
 31  17  23  1   
 32  18  24  ar  
 33  18  38  1   
 34  19  39  1   
 35  19  40  1   
 36  19  41  1   
 37  20  24  ar  
 38  20  42  1   
 39  21  22  1   
 40  21  25  1   
 41  22  26  1   
 42  23  43  1   
 43  23  44  1   
 44  23  45  1   
 45  24  46  1   
 46  25  27  1   
 47  25  47  1   
 48  25  48  1   
 49  26  49  1   
 50  26  50  1   
 51  26  51  1   
 52  27  28  1   
 53  27  52  1   
 54  27  53  1   
 55  28  29  1   
 56  28  54  1   
 57  28  55  1   
 58  29  30  1   
 59  30  56  1   
 60  30  57  1   
 61  30  58  1   
@<TRIPOS>SUBSTRUCTURE
  1 ****  10 GROUP 4 **** **** 0

# MOE 2024.06 (io_trps.svl 2023.06)
