@<TRIPOS>MOLECULE
N-{4-Ethyl-5-[(2-methyl-cyclohexylcarbamoyl)-methylsulfanyl]-4H-[1,2,4]triazol-3
58 60 1 0 0 
SMALL
USER_CHARGES


@<TRIPOS>ATOM
  1 S       -2.6010    -0.4270     2.8080 S.3   1 <1>  -0.2860 
  2 C       -2.1910     0.4160     1.2720 C.2   1 <1>   0.2420 
  3 C       -1.6740    -2.0390     2.7220 C.3   1 <1>   0.1310 
  4 N       -1.2360     0.0620     0.4870 N.2   1 <1>  -0.3380 
  5 N       -2.8930     1.4560     0.8220 N.pl3 1 <1>   0.0480 
  6 C       -2.6460    -3.2080     2.6250 C.2   1 <1>   0.5690 
  7 N       -1.3030     0.8840    -0.5620 N.2   1 <1>  -0.3380 
  8 C       -2.2860     1.6970    -0.3530 C.2   1 <1>   0.0060 
  9 C       -4.0580     2.1130     1.4610 C.3   1 <1>   0.0960 
 10 O       -2.8500    -3.8700     3.6120 O.2   1 <1>  -0.5700 
 11 N       -3.2690    -3.5430     1.4680 N.am  1 <1>  -0.7300 
 12 C       -2.6980     2.7720    -1.3430 C.3   1 <1>   0.3200 
 13 C       -3.6080     3.1030     2.5400 C.3   1 <1>  -0.2400 
 14 C       -3.2220    -2.8690     0.1570 C.3   1 <1>   0.2200 
 15 N       -2.6130     4.1080    -0.7180 N.am  1 <1>  -0.7300 
 16 C       -4.6450    -2.6040    -0.3770 C.3   1 <1>  -0.0800 
 17 C       -2.4090    -3.7290    -0.8140 C.3   1 <1>  -0.1600 
 18 C       -3.5900     5.0400    -0.5680 C.2   1 <1>   0.5440 
 19 C       -4.5690    -1.9420    -1.7640 C.3   1 <1>  -0.1600 
 20 C       -5.4700    -1.7160     0.5700 C.3   1 <1>  -0.2400 
 21 C       -2.3370    -3.0640    -2.1960 C.3   1 <1>  -0.1600 
 22 O       -3.3640     5.9120     0.2400 O.2   1 <1>  -0.5700 
 23 C       -4.8690     4.9880    -1.2470 C.ar  1 <1>   0.0860 
 24 C       -3.7410    -2.7830    -2.7460 C.3   1 <1>  -0.1600 
 25 C       -5.0020     4.8290    -2.6260 C.ar  1 <1>   0.1900 
 26 C       -6.0560     5.1060    -0.5220 C.ar  1 <1>  -0.1500 
 27 F       -3.9340     4.7350    -3.3700 F     1 <1>  -0.1900 
 28 C       -6.2260     4.7630    -3.2660 C.ar  1 <1>  -0.1500 
 29 C       -7.2930     5.0420    -1.1420 C.ar  1 <1>  -0.1500 
 30 C       -7.3820     4.8670    -2.5140 C.ar  1 <1>  -0.1500 
 31 H       -1.0990    -2.1120     3.6260 H     1 <1>   0.0800 
 32 H       -1.0130    -2.0190     1.8780 H     1 <1>   0.0800 
 33 H       -4.6850     1.3580     1.9010 H     1 <1>   0.0800 
 34 H       -4.6310     2.6250     0.7090 H     1 <1>   0.0800 
 35 H       -3.8920    -4.3500     1.5210 H     1 <1>   0.3700 
 36 H       -3.6990     2.5740    -1.6840 H     1 <1>   0.0800 
 37 H       -2.0410     2.7420    -2.1960 H     1 <1>   0.0800 
 38 H       -3.0770     2.5920     3.3230 H     1 <1>   0.0800 
 39 H       -4.4660     3.5850     2.9720 H     1 <1>   0.0800 
 40 H       -2.9720     3.8630     2.1210 H     1 <1>   0.0800 
 41 H       -2.7260    -1.9270     0.2560 H     1 <1>   0.0800 
 42 H       -1.7400     4.2940    -0.2180 H     1 <1>   0.3700 
 43 H       -5.1490    -3.5500    -0.4850 H     1 <1>   0.0800 
 44 H       -2.8650    -4.6980    -0.9090 H     1 <1>   0.0800 
 45 H       -1.4120    -3.8540    -0.4320 H     1 <1>   0.0800 
 46 H       -4.1170    -0.9680    -1.6730 H     1 <1>   0.0800 
 47 H       -5.5610    -1.8110    -2.1610 H     1 <1>   0.0800 
 48 H       -4.9880    -0.7660     0.7060 H     1 <1>   0.0800 
 49 H       -5.5790    -2.1840     1.5330 H     1 <1>   0.0800 
 50 H       -6.4530    -1.5510     0.1660 H     1 <1>   0.0800 
 51 H       -1.8010    -3.7010    -2.8770 H     1 <1>   0.0800 
 52 H       -1.7930    -2.1360    -2.1150 H     1 <1>   0.0800 
 53 H       -3.6600    -2.2630    -3.6860 H     1 <1>   0.0800 
 54 H       -4.2450    -3.7170    -2.9300 H     1 <1>   0.0800 
 55 H       -6.0010     5.2570     0.5430 H     1 <1>   0.1500 
 56 H       -6.2710     4.6360    -4.3330 H     1 <1>   0.1500 
 57 H       -8.1930     5.1340    -0.5560 H     1 <1>   0.1500 
 58 H       -8.3470     4.8200    -2.9920 H     1 <1>   0.1500 
@<TRIPOS>BOND
  1   1   2  1   
  2   1   3  1   
  3   2   4  2   
  4   2   5  1   
  5   3   6  1   
  6   3  31  1   
  7   3  32  1   
  8   4   7  1   
  9   5   8  1   
 10   5   9  1   
 11   6  10  2   
 12   6  11  am  
 13   7   8  2   
 14   8  12  1   
 15   9  13  1   
 16   9  33  1   
 17   9  34  1   
 18  11  14  1   
 19  11  35  1   
 20  12  15  1   
 21  12  36  1   
 22  12  37  1   
 23  13  38  1   
 24  13  39  1   
 25  13  40  1   
 26  14  16  1   
 27  14  17  1   
 28  14  41  1   
 29  15  18  am  
 30  15  42  1   
 31  16  19  1   
 32  16  20  1   
 33  16  43  1   
 34  17  21  1   
 35  17  44  1   
 36  17  45  1   
 37  18  22  2   
 38  18  23  1   
 39  19  24  1   
 40  19  46  1   
 41  19  47  1   
 42  20  48  1   
 43  20  49  1   
 44  20  50  1   
 45  21  24  1   
 46  21  51  1   
 47  21  52  1   
 48  23  25  ar  
 49  23  26  ar  
 50  24  53  1   
 51  24  54  1   
 52  25  27  1   
 53  25  28  ar  
 54  26  29  ar  
 55  26  55  1   
 56  28  30  ar  
 57  28  56  1   
 58  29  30  ar  
 59  29  57  1   
 60  30  58  1   
@<TRIPOS>SUBSTRUCTURE
  1 ****   5 GROUP 4 **** **** 0

# MOE 2024.06 (io_trps.svl 2023.06)
