@<TRIPOS>MOLECULE
N-(2-Hydroxy-quinolin-3-ylmethyl)-4-methyl-N-(tetrahydro-furan-2-ylmethyl)-benze
53 56 1 0 0 
SMALL
USER_CHARGES


@<TRIPOS>ATOM
  1 S        0.7970    -0.4800    -0.4920 S.o2  1 <1>   1.4470 
  2 O        1.1630    -1.6820     0.2250 O.2   1 <1>  -0.6500 
  3 O        1.4610    -0.1930    -1.7460 O.2   1 <1>  -0.6500 
  4 N        1.1390     0.8180     0.5500 N.am  1 <1>  -0.8490 
  5 C       -1.0050    -0.4490    -0.7050 C.ar  1 <1>  -0.0090 
  6 C        0.9320     2.1400    -0.0560 C.3   1 <1>   0.3340 
  7 C        2.4330     0.6860     1.2590 C.3   1 <1>   0.1960 
  8 C       -1.8480    -0.9570     0.2760 C.ar  1 <1>  -0.1500 
  9 C       -1.5900     0.1240    -1.8280 C.ar  1 <1>  -0.1500 
 10 C       -0.5250     2.5720     0.0310 C.2   1 <1>  -0.1240 
 11 C        3.6910     0.4990     0.3790 C.3   1 <1>   0.2000 
 12 C       -3.2240    -0.8770     0.1530 C.ar  1 <1>  -0.1500 
 13 C       -2.9650     0.2090    -1.9570 C.ar  1 <1>  -0.1500 
 14 C       -1.0090     3.3960    -1.0340 C.2   1 <1>   0.6160 
 15 C       -1.3540     2.2190     1.0480 C.2   1 <1>  -0.1780 
 16 O        4.8020     0.4310     1.2100 O.3   1 <1>  -0.5600 
 17 C        4.0430     1.6320    -0.5800 C.3   1 <1>  -0.1600 
 18 C       -3.7900    -0.2860    -0.9630 C.ar  1 <1>  -0.1440 
 19 O       -0.3160     3.7710    -1.9630 O.2   1 <1>  -0.5700 
 20 N       -2.3130     3.7850    -1.0100 N.am  1 <1>  -0.5470 
 21 C       -2.7270     2.6270     1.0580 C.ar  1 <1>   0.0280 
 22 C        5.9620     0.6450     0.4730 C.3   1 <1>   0.1200 
 23 C        5.5520     1.5070    -0.7180 C.3   1 <1>  -0.1600 
 24 C       -5.2980    -0.1730    -1.0860 C.3   1 <1>  -0.0970 
 25 C       -3.1980     3.4200    -0.0010 C.ar  1 <1>   0.1170 
 26 C       -3.6180     2.2600     2.0680 C.ar  1 <1>  -0.1500 
 27 C       -4.5300     3.8240    -0.0260 C.ar  1 <1>  -0.1500 
 28 C       -4.9350     2.6670     2.0330 C.ar  1 <1>  -0.1500 
 29 C       -5.3930     3.4520     0.9830 C.ar  1 <1>  -0.1500 
 30 H        1.2690     2.1360    -1.0790 H     1 <1>   0.0800 
 31 H        1.5110     2.8810     0.4680 H     1 <1>   0.0800 
 32 H        2.3700    -0.1720     1.9070 H     1 <1>   0.0800 
 33 H        2.5790     1.5450     1.8890 H     1 <1>   0.0800 
 34 H       -1.4200    -1.4140     1.1520 H     1 <1>   0.1500 
 35 H       -0.9620     0.5210    -2.6090 H     1 <1>   0.1500 
 36 H        3.6430    -0.4380    -0.1500 H     1 <1>   0.0800 
 37 H       -3.8530    -1.2700     0.9320 H     1 <1>   0.1500 
 38 H       -3.3880     0.6700    -2.8330 H     1 <1>   0.1500 
 39 H       -1.0170     1.6120     1.8700 H     1 <1>   0.1500 
 40 H        3.7960     2.5800    -0.1370 H     1 <1>   0.0800 
 41 H        3.5400     1.5290    -1.5250 H     1 <1>   0.0800 
 42 H       -2.6120     4.3660    -1.7900 H     1 <1>   0.3700 
 43 H        6.3390    -0.3120     0.1530 H     1 <1>   0.0800 
 44 H        6.6840     1.1350     1.1040 H     1 <1>   0.0800 
 45 H        6.0340     2.4680    -0.6890 H     1 <1>   0.0800 
 46 H        5.8170     1.0080    -1.6340 H     1 <1>   0.0800 
 47 H       -5.5910    -0.1140    -2.1180 H     1 <1>   0.0800 
 48 H       -5.6350     0.7140    -0.5780 H     1 <1>   0.0800 
 49 H       -5.7760    -1.0290    -0.6450 H     1 <1>   0.0800 
 50 H       -3.2650     1.6500     2.8800 H     1 <1>   0.1500 
 51 H       -4.8840     4.4310    -0.8390 H     1 <1>   0.1500 
 52 H       -5.6120     2.3780     2.8180 H     1 <1>   0.1500 
 53 H       -6.4230     3.7680     0.9630 H     1 <1>   0.1500 
@<TRIPOS>BOND
  1   1   2  2   
  2   1   3  2   
  3   1   4  am  
  4   1   5  1   
  5   4   6  1   
  6   4   7  1   
  7   5   8  ar  
  8   5   9  ar  
  9   6  10  1   
 10   6  30  1   
 11   6  31  1   
 12   7  11  1   
 13   7  32  1   
 14   7  33  1   
 15   8  12  ar  
 16   8  34  1   
 17   9  13  ar  
 18   9  35  1   
 19  10  14  1   
 20  10  15  2   
 21  11  16  1   
 22  11  17  1   
 23  11  36  1   
 24  12  18  ar  
 25  12  37  1   
 26  13  18  ar  
 27  13  38  1   
 28  14  19  2   
 29  14  20  am  
 30  15  21  1   
 31  15  39  1   
 32  16  22  1   
 33  17  23  1   
 34  17  40  1   
 35  17  41  1   
 36  18  24  1   
 37  20  25  1   
 38  20  42  1   
 39  21  25  ar  
 40  21  26  ar  
 41  22  23  1   
 42  22  43  1   
 43  22  44  1   
 44  23  45  1   
 45  23  46  1   
 46  24  47  1   
 47  24  48  1   
 48  24  49  1   
 49  25  27  ar  
 50  26  28  ar  
 51  26  50  1   
 52  27  29  ar  
 53  27  51  1   
 54  28  29  ar  
 55  28  52  1   
 56  29  53  1   
@<TRIPOS>SUBSTRUCTURE
  1 ****  10 GROUP 4 **** **** 0

# MOE 2024.06 (io_trps.svl 2023.06)
