@<TRIPOS>MOLECULE
2-(Benzo[1,3]dioxol-5-yl-methanesulfonyl-amino)-N-cyclopentyl-acetamide
43 45 1 0 0 
SMALL
USER_CHARGES


@<TRIPOS>ATOM
  1 S        0.3680     0.0820     1.3320 S.o2  1 <1>   1.3330 
  2 O        1.6930     0.0200     1.9060 O.2   1 <1>  -0.6500 
  3 O       -0.7640    -0.4330     2.0590 O.2   1 <1>  -0.6500 
  4 N        0.0590     1.7390     0.9350 N.am  1 <1>  -0.6930 
  5 C        0.4170    -0.6690    -0.2800 C.3   1 <1>  -0.1350 
  6 C       -1.1320     2.1570     0.3400 C.ar  1 <1>   0.1990 
  7 C        1.1750     2.7220     1.1100 C.3   1 <1>   0.2570 
  8 C       -2.3530     1.9620     0.9840 C.ar  1 <1>  -0.1500 
  9 C       -1.1130     2.7790    -0.9140 C.ar  1 <1>  -0.1500 
 10 C        2.2950     2.6040     0.0700 C.2   1 <1>   0.5690 
 11 C       -3.5050     2.3870     0.3560 C.ar  1 <1>   0.0830 
 12 C       -2.2820     3.2010    -1.5320 C.ar  1 <1>  -0.1500 
 13 O        2.3360     3.3960    -0.8420 O.2   1 <1>  -0.5700 
 14 N        3.2140     1.6140     0.1950 N.am  1 <1>  -0.7300 
 15 O       -4.7670     2.2990     0.7890 O.3   1 <1>  -0.3630 
 16 C       -3.4720     2.9890    -0.8680 C.ar  1 <1>   0.0830 
 17 C        4.3920     1.3990    -0.6600 C.3   1 <1>   0.2200 
 18 C       -5.5900     2.8780    -0.2210 C.3   1 <1>   0.4000 
 19 O       -4.7130     3.3060    -1.2630 O.3   1 <1>  -0.3630 
 20 C        4.1780     0.1410    -1.4910 C.3   1 <1>  -0.1600 
 21 C        5.5680     1.0250     0.2330 C.3   1 <1>  -0.1600 
 22 C        4.4770    -1.0300    -0.5470 C.3   1 <1>  -0.1600 
 23 C        5.3890    -0.4660     0.5510 C.3   1 <1>  -0.1600 
 24 H        0.6550    -1.7100    -0.1950 H     1 <1>   0.0800 
 25 H        1.1570    -0.1910    -0.8890 H     1 <1>   0.0800 
 26 H       -0.5380    -0.5720    -0.7600 H     1 <1>   0.0800 
 27 H        1.6010     2.5990     2.0890 H     1 <1>   0.0800 
 28 H        0.7750     3.7190     1.0580 H     1 <1>   0.0800 
 29 H       -2.4070     1.4950     1.9500 H     1 <1>   0.1500 
 30 H       -0.1740     2.9330    -1.4160 H     1 <1>   0.1500 
 31 H       -2.2730     3.6800    -2.4950 H     1 <1>   0.1500 
 32 H        3.0970     0.9150     0.9440 H     1 <1>   0.3700 
 33 H        4.5890     2.2680    -1.2660 H     1 <1>   0.0800 
 34 H       -6.1130     3.7270     0.1820 H     1 <1>   0.0800 
 35 H       -6.2680     2.1360    -0.6030 H     1 <1>   0.0800 
 36 H        4.9000     0.1370    -2.2890 H     1 <1>   0.0800 
 37 H        3.1950     0.0980    -1.9220 H     1 <1>   0.0800 
 38 H        5.6200     1.6360     1.1180 H     1 <1>   0.0800 
 39 H        6.4760     1.1550    -0.3280 H     1 <1>   0.0800 
 40 H        4.9500    -1.8410    -1.0750 H     1 <1>   0.0800 
 41 H        3.5640    -1.3880    -0.1040 H     1 <1>   0.0800 
 42 H        4.9120    -0.5830     1.5100 H     1 <1>   0.0800 
 43 H        6.3400    -0.9700     0.5720 H     1 <1>   0.0800 
@<TRIPOS>BOND
  1   1   2  2   
  2   1   3  2   
  3   1   4  am  
  4   1   5  1   
  5   4   6  1   
  6   4   7  1   
  7   5  24  1   
  8   5  25  1   
  9   5  26  1   
 10   6   8  ar  
 11   6   9  ar  
 12   7  10  1   
 13   7  27  1   
 14   7  28  1   
 15   8  11  ar  
 16   8  29  1   
 17   9  12  ar  
 18   9  30  1   
 19  10  13  2   
 20  10  14  am  
 21  11  15  1   
 22  11  16  ar  
 23  12  16  ar  
 24  12  31  1   
 25  14  17  1   
 26  14  32  1   
 27  15  18  1   
 28  16  19  1   
 29  17  20  1   
 30  17  21  1   
 31  17  33  1   
 32  18  19  1   
 33  18  34  1   
 34  18  35  1   
 35  20  22  1   
 36  20  36  1   
 37  20  37  1   
 38  21  23  1   
 39  21  38  1   
 40  21  39  1   
 41  22  23  1   
 42  22  40  1   
 43  22  41  1   
 44  23  42  1   
 45  23  43  1   
@<TRIPOS>SUBSTRUCTURE
  1 ****   4 GROUP 4 **** **** 0

# MOE 2024.06 (io_trps.svl 2023.06)
