@<TRIPOS>MOLECULE
1-(2,3-Dimethyl-phenyl)-5-oxo-pyrrolidine-3-carboxylic acid (5-methyl-isoxazol-3
42 44 1 0 0 
SMALL
USER_CHARGES


@<TRIPOS>ATOM
  1 O        0.7610    -0.3240     2.3220 O.2   1 <1>  -0.5700 
  2 C        1.6450    -0.3510     1.5030 C.2   1 <1>   0.5690 
  3 N        1.9840    -1.3880     0.6880 N.am  1 <1>  -0.4770 
  4 C        2.5280     0.8400     1.2570 C.3   1 <1>  -0.0990 
  5 C        1.4210    -2.6750     0.6360 C.ar  1 <1>   0.1170 
  6 C        3.1250    -1.0350    -0.1750 C.3   1 <1>   0.1400 
  7 C        3.2140     0.4970    -0.0770 C.3   1 <1>  -0.0190 
  8 C        0.1020    -2.9080     0.2270 C.ar  1 <1>  -0.1440 
  9 C        2.2200    -3.7520     0.9990 C.ar  1 <1>  -0.1500 
 10 C        4.6290     1.0440    -0.2080 C.2   1 <1>   0.5690 
 11 C       -0.3940    -4.2110     0.2080 C.ar  1 <1>  -0.1440 
 12 C       -0.7870    -1.7330    -0.1870 C.3   1 <1>  -0.0970 
 13 C        1.7320    -5.0420     0.9650 C.ar  1 <1>  -0.1500 
 14 O        5.5170     0.3030    -0.5500 O.2   1 <1>  -0.5700 
 15 N        4.8270     2.3650     0.0530 N.am  1 <1>  -0.4930 
 16 C        0.4270    -5.2680     0.5710 C.ar  1 <1>  -0.1500 
 17 C       -1.8280    -4.5320    -0.1950 C.3   1 <1>  -0.0970 
 18 C        5.9980     3.1180     0.0170 C.2   1 <1>   0.3520 
 19 N        5.9870     4.3690     0.3150 N.2   1 <1>  -0.4100 
 20 C        7.2880     2.7010    -0.3170 C.2   1 <1>  -0.1500 
 21 O        7.2240     4.7820     0.1870 O.3   1 <1>  -0.0190 
 22 C        8.0200     3.8150    -0.1880 C.2   1 <1>  -0.0400 
 23 C        9.4950     4.0870    -0.3930 C.3   1 <1>  -0.0600 
 24 H        3.2360     0.9060     2.0630 H     1 <1>   0.0800 
 25 H        1.9440     1.7400     1.1970 H     1 <1>   0.0800 
 26 H        2.9560    -1.3590    -1.1880 H     1 <1>   0.0800 
 27 H        4.0120    -1.5070     0.2130 H     1 <1>   0.0800 
 28 H        2.6260     0.9010    -0.8820 H     1 <1>   0.0800 
 29 H        3.2300    -3.5770     1.3170 H     1 <1>   0.1500 
 30 H       -0.2080    -0.9530    -0.6440 H     1 <1>   0.0800 
 31 H       -1.2760    -1.3330     0.6830 H     1 <1>   0.0800 
 32 H       -1.5320    -2.0270    -0.9010 H     1 <1>   0.0800 
 33 H        2.3610    -5.8670     1.2480 H     1 <1>   0.1500 
 34 H        4.0240     2.9250     0.3260 H     1 <1>   0.3700 
 35 H        0.0550    -6.2770     0.5540 H     1 <1>   0.1500 
 36 H       -2.5140    -3.9090     0.3520 H     1 <1>   0.0800 
 37 H       -2.0700    -5.5570     0.0190 H     1 <1>   0.0800 
 38 H       -1.9600    -4.3650    -1.2480 H     1 <1>   0.0800 
 39 H        7.5840     1.7100    -0.6060 H     1 <1>   0.1500 
 40 H       10.0000     3.1880    -0.6980 H     1 <1>   0.0800 
 41 H        9.9320     4.4390     0.5240 H     1 <1>   0.0800 
 42 H        9.6250     4.8360    -1.1520 H     1 <1>   0.0800 
@<TRIPOS>BOND
  1   1   2  2   
  2   2   3  am  
  3   2   4  1   
  4   3   5  1   
  5   3   6  1   
  6   4   7  1   
  7   4  24  1   
  8   4  25  1   
  9   5   8  ar  
 10   5   9  ar  
 11   6   7  1   
 12   6  26  1   
 13   6  27  1   
 14   7  10  1   
 15   7  28  1   
 16   8  11  ar  
 17   8  12  1   
 18   9  13  ar  
 19   9  29  1   
 20  10  14  2   
 21  10  15  am  
 22  11  16  ar  
 23  11  17  1   
 24  12  30  1   
 25  12  31  1   
 26  12  32  1   
 27  13  16  ar  
 28  13  33  1   
 29  15  18  1   
 30  15  34  1   
 31  16  35  1   
 32  17  36  1   
 33  17  37  1   
 34  17  38  1   
 35  18  19  2   
 36  18  20  1   
 37  19  21  1   
 38  20  22  2   
 39  20  39  1   
 40  21  22  1   
 41  22  23  1   
 42  23  40  1   
 43  23  41  1   
 44  23  42  1   
@<TRIPOS>SUBSTRUCTURE
  1 ****   7 GROUP 4 **** **** 0

# MOE 2024.06 (io_trps.svl 2023.06)
