@<TRIPOS>MOLECULE
2-(1,6-Dimethyl-2,4-dioxo-8-phenyl-1,4,5,6,7,8-hexahydro-2H-1,3,4b,8,9-pentaaza-
48 51 1 0 0 
SMALL
USER_CHARGES


@<TRIPOS>ATOM
  1 O        0.6590    -0.0670     1.0730 O.2   1 <1>  -0.5750 
  2 C        1.6430     0.6450     1.0830 C.2   1 <1>   0.6860 
  3 N        1.5080     1.9970     1.3670 N.am  1 <1>  -0.4260 
  4 N        2.8940     0.1100     0.8080 N.am  1 <1>  -0.4420 
  5 C        2.6090     2.8340     1.4200 C.2   1 <1>   0.6990 
  6 C        0.1700     2.6270     1.1270 C.3   1 <1>   0.1930 
  7 C        3.9720     0.9740     0.7660 C.2   1 <1>   0.4200 
  8 C        3.0510    -1.3370     0.4820 C.3   1 <1>   0.0520 
  9 O        2.4910     3.9950     1.7770 O.2   1 <1>  -0.5750 
 10 C        3.8810     2.2910     1.0570 C.2   1 <1>   0.2700 
 11 C       -0.0360     2.9170    -0.3620 C.2   1 <1>   0.5640 
 12 N        5.2660     0.6880     0.4450 N.pl3 1 <1>  -0.7040 
 13 N        5.1740     2.8120     0.9070 N.pl3 1 <1>  -0.7680 
 14 O        0.9210     2.9860    -1.0970 O.2   1 <1>  -0.5750 
 15 N       -1.2760     3.0910    -0.8620 N.am  1 <1>  -0.8030 
 16 C        5.9660     1.8160     0.5360 C.cat 1 <1>   1.0680 
 17 C        5.6030     4.2150     1.0790 C.3   1 <1>   0.3470 
 18 N        7.2810     1.9700     0.2980 N.pl3 1 <1>  -0.5800 
 19 C        6.9140     4.4430     0.3030 C.3   1 <1>  -0.0880 
 20 C        8.1010     0.9210    -0.1240 C.ar  1 <1>   0.3040 
 21 C        7.9180     3.2960     0.5340 C.3   1 <1>   0.1600 
 22 C        7.5440     5.7930     0.6780 C.3   1 <1>  -0.2470 
 23 C        8.9540     0.2890     0.7720 C.ar  1 <1>  -0.1580 
 24 C        8.0540     0.4820    -1.4420 C.ar  1 <1>  -0.1580 
 25 C        9.7380    -0.7730     0.3610 C.ar  1 <1>  -0.1580 
 26 C        8.8380    -0.5810    -1.8540 C.ar  1 <1>  -0.1580 
 27 C        9.6770    -1.2100    -0.9510 C.ar  1 <1>  -0.1580 
 28 H        0.0910     3.5490     1.6750 H     1 <1>   0.0720 
 29 H       -0.6110     1.9740     1.4740 H     1 <1>   0.0720 
 30 H        2.2500    -1.9110     0.9160 H     1 <1>   0.0720 
 31 H        3.9800    -1.7120     0.8730 H     1 <1>   0.0720 
 32 H        3.0290    -1.4710    -0.5860 H     1 <1>   0.0720 
 33 H        5.6590    -0.2080     0.1690 H     1 <1>   0.4440 
 34 H       -1.3880     3.2710    -1.8620 H     1 <1>   0.3640 
 35 H       -2.1410     3.0160    -0.3250 H     1 <1>   0.3640 
 36 H        5.7500     4.4100     2.1280 H     1 <1>   0.0720 
 37 H        4.8390     4.8830     0.7130 H     1 <1>   0.0720 
 38 H        6.6790     4.4790    -0.7470 H     1 <1>   0.0720 
 39 H        8.7570     3.4160    -0.1320 H     1 <1>   0.0720 
 40 H        8.2870     3.3290     1.5450 H     1 <1>   0.0720 
 41 H        7.8090     5.8220     1.7210 H     1 <1>   0.0720 
 42 H        6.8550     6.5970     0.4790 H     1 <1>   0.0720 
 43 H        8.4330     5.9670     0.0960 H     1 <1>   0.0720 
 44 H        9.0060     0.6250     1.7920 H     1 <1>   0.1420 
 45 H        7.4110     0.9730    -2.1510 H     1 <1>   0.1420 
 46 H       10.4000    -1.2630     1.0570 H     1 <1>   0.1420 
 47 H        8.8030    -0.9200    -2.8770 H     1 <1>   0.1420 
 48 H       10.2890    -2.0370    -1.2720 H     1 <1>   0.1420 
@<TRIPOS>BOND
  1   1   2  2   
  2   2   3  am  
  3   2   4  am  
  4   3   5  am  
  5   3   6  1   
  6   4   7  1   
  7   4   8  1   
  8   5   9  2   
  9   5  10  1   
 10   6  11  1   
 11   6  28  1   
 12   6  29  1   
 13   7  10  2   
 14   7  12  1   
 15   8  30  1   
 16   8  31  1   
 17   8  32  1   
 18  10  13  1   
 19  11  14  2   
 20  11  15  am  
 21  12  16  ar  
 22  12  33  1   
 23  13  16  ar  
 24  13  17  1   
 25  15  34  1   
 26  15  35  1   
 27  16  18  ar  
 28  17  19  1   
 29  17  36  1   
 30  17  37  1   
 31  18  20  1   
 32  18  21  1   
 33  19  21  1   
 34  19  22  1   
 35  19  38  1   
 36  20  23  ar  
 37  20  24  ar  
 38  21  39  1   
 39  21  40  1   
 40  22  41  1   
 41  22  42  1   
 42  22  43  1   
 43  23  25  ar  
 44  23  44  1   
 45  24  26  ar  
 46  24  45  1   
 47  25  27  ar  
 48  25  46  1   
 49  26  27  ar  
 50  26  47  1   
 51  27  48  1   
@<TRIPOS>SUBSTRUCTURE
  1 ****   7 GROUP 4 **** **** 0

# MOE 2024.06 (io_trps.svl 2023.06)
