@<TRIPOS>MOLECULE
4-[2-(5-Hydroxy-3-isopropyl-5-trifluoromethyl-4,5-dihydro-pyrazol-1-yl)-2-oxo-et
41 42 1 0 0 
SMALL
USER_CHARGES


@<TRIPOS>ATOM
  1 F        1.2660    -1.3380    -0.6800 F     1 <1>  -0.3400 
  2 C        0.3550    -2.2240    -1.0780 C.3   1 <1>   1.0200 
  3 F        1.0430    -3.2030    -1.6570 F     1 <1>  -0.3400 
  4 F       -0.3140    -1.6230    -2.0610 F     1 <1>  -0.3400 
  5 C       -0.5910    -2.6900     0.1070 C.3   1 <1>   0.5800 
  6 O        0.0570    -3.4320     1.1010 O.3   1 <1>  -0.6800 
  7 N       -1.7590    -3.5060    -0.3350 N.am  1 <1>  -0.2980 
  8 C       -1.2760    -1.4950     0.7950 C.3   1 <1>  -0.0990 
  9 N       -2.9450    -2.8320    -0.1270 N.2   1 <1>  -0.5120 
 10 C       -1.6380    -4.8130    -0.7600 C.2   1 <1>   0.5690 
 11 C       -2.7300    -1.7520     0.4830 C.2   1 <1>   0.3280 
 12 O       -0.5630    -5.3670    -0.8040 O.2   1 <1>  -0.5700 
 13 C       -2.8850    -5.5820    -1.1740 C.3   1 <1>   0.1810 
 14 C       -3.7750    -0.7230     0.9240 C.3   1 <1>  -0.0190 
 15 O       -3.4780    -6.2060    -0.0470 O.3   1 <1>  -0.3630 
 16 C       -5.2030    -1.2910     0.8860 C.3   1 <1>  -0.2400 
 17 C       -3.7060     0.5450     0.0590 C.3   1 <1>  -0.2400 
 18 C       -4.6760    -6.8260    -0.1300 C.ar  1 <1>   0.0820 
 19 C       -5.2280    -7.2760     1.0570 C.ar  1 <1>  -0.1500 
 20 C       -5.3660    -7.0250    -1.3220 C.ar  1 <1>  -0.1500 
 21 C       -6.4550    -7.9130     1.0630 C.ar  1 <1>  -0.1500 
 22 C       -6.5940    -7.6640    -1.3100 C.ar  1 <1>  -0.1500 
 23 C       -7.1580    -8.1150    -0.1200 C.ar  1 <1>   0.0730 
 24 C       -8.4320    -8.7730    -0.1150 C.1   1 <1>   0.4840 
 25 N       -9.4460    -9.2960    -0.1140 N.1   1 <1>  -0.5570 
 26 H        0.2110    -4.3340     0.7340 H     1 <1>   0.4000 
 27 H       -0.9640    -0.5560     0.3810 H     1 <1>   0.0800 
 28 H       -1.1120    -1.4950     1.8570 H     1 <1>   0.0800 
 29 H       -2.6190    -6.3470    -1.8800 H     1 <1>   0.0800 
 30 H       -3.6010    -4.9100    -1.6100 H     1 <1>   0.0800 
 31 H       -3.5610    -0.4540     1.9440 H     1 <1>   0.0800 
 32 H       -5.4770    -1.5580    -0.1200 H     1 <1>   0.0800 
 33 H       -5.9080    -0.5690     1.2560 H     1 <1>   0.0800 
 34 H       -5.2670    -2.1740     1.4990 H     1 <1>   0.0800 
 35 H       -3.8830     0.3010    -0.9740 H     1 <1>   0.0800 
 36 H       -2.7440     1.0160     0.1420 H     1 <1>   0.0800 
 37 H       -4.4520     1.2540     0.3750 H     1 <1>   0.0800 
 38 H       -4.6880    -7.1210     1.9750 H     1 <1>   0.1500 
 39 H       -4.9670    -6.6950    -2.2620 H     1 <1>   0.1500 
 40 H       -6.8700    -8.2560     1.9960 H     1 <1>   0.1500 
 41 H       -7.1230    -7.8130    -2.2360 H     1 <1>   0.1500 
@<TRIPOS>BOND
  1   1   2  1   
  2   2   3  1   
  3   2   4  1   
  4   2   5  1   
  5   5   6  1   
  6   5   7  1   
  7   5   8  1   
  8   6  26  1   
  9   7   9  1   
 10   7  10  am  
 11   8  11  1   
 12   8  27  1   
 13   8  28  1   
 14   9  11  2   
 15  10  12  2   
 16  10  13  1   
 17  11  14  1   
 18  13  15  1   
 19  13  29  1   
 20  13  30  1   
 21  14  16  1   
 22  14  17  1   
 23  14  31  1   
 24  15  18  1   
 25  16  32  1   
 26  16  33  1   
 27  16  34  1   
 28  17  35  1   
 29  17  36  1   
 30  17  37  1   
 31  18  19  ar  
 32  18  20  ar  
 33  19  21  ar  
 34  19  38  1   
 35  20  22  ar  
 36  20  39  1   
 37  21  23  ar  
 38  21  40  1   
 39  22  23  ar  
 40  22  41  1   
 41  23  24  1   
 42  24  25  3   
@<TRIPOS>SUBSTRUCTURE
  1 ****  13 GROUP 4 **** **** 0

# MOE 2024.06 (io_trps.svl 2023.06)
