@<TRIPOS>MOLECULE
2-(2-tert-Butyl-4-methyl-phenoxy)-N-(5-methoxymethyl-[1,3,4]thiadiazol-2-yl)-ace
47 48 1 0 0 
SMALL
USER_CHARGES


@<TRIPOS>ATOM
  1 S        0.0480    -1.0870     0.4030 S.3   1 <1>  -0.0800 
  2 C        0.9770     0.3360     0.0430 C.2   1 <1>   0.4420 
  3 C        1.2650    -1.9980    -0.4270 C.2   1 <1>   0.1980 
  4 N        2.0550     0.0640    -0.5930 N.2   1 <1>  -0.3380 
  5 N        0.5730     1.5820     0.4720 N.am  1 <1>  -0.4940 
  6 N        2.2100    -1.2660    -0.8660 N.2   1 <1>  -0.3380 
  7 C        1.1010    -3.5050    -0.5330 C.3   1 <1>   0.3000 
  8 C       -0.6220     2.1180     0.8460 C.2   1 <1>   0.5690 
  9 O       -0.1880    -3.8210    -0.9760 O.3   1 <1>  -0.5600 
 10 O       -0.6070     3.1590     1.4520 O.2   1 <1>  -0.5700 
 11 C       -1.9560     1.4470     0.5080 C.3   1 <1>   0.1810 
 12 C       -0.4070    -5.1830    -1.1630 C.3   1 <1>   0.0400 
 13 O       -2.8950     2.3900     0.0240 O.3   1 <1>  -0.3620 
 14 C       -4.2130     2.0860    -0.1010 C.ar  1 <1>   0.0830 
 15 C       -5.1700     3.1110    -0.0380 C.ar  1 <1>  -0.1430 
 16 C       -4.6040     0.7630    -0.2960 C.ar  1 <1>  -0.1500 
 17 C       -6.5080     2.7370    -0.1670 C.ar  1 <1>  -0.1500 
 18 C       -4.7760     4.6040     0.1720 C.3   1 <1>   0.1430 
 19 C       -5.9380     0.4320    -0.4180 C.ar  1 <1>  -0.1500 
 20 C       -6.8980     1.4220    -0.3510 C.ar  1 <1>  -0.1430 
 21 C       -5.9900     5.5560     0.1920 C.3   1 <1>  -0.2400 
 22 C       -4.0670     4.7920     1.5250 C.3   1 <1>  -0.2400 
 23 C       -3.8700     5.0970    -0.9700 C.3   1 <1>  -0.2400 
 24 C       -8.3710     1.0800    -0.4840 C.3   1 <1>  -0.0970 
 25 H        1.3330     2.2560     0.5430 H     1 <1>   0.3700 
 26 H        1.2540    -3.9570     0.4310 H     1 <1>   0.0800 
 27 H        1.8150    -3.8960    -1.2360 H     1 <1>   0.0800 
 28 H       -2.3620     0.9890     1.3920 H     1 <1>   0.0800 
 29 H       -1.8200     0.7180    -0.2660 H     1 <1>   0.0800 
 30 H       -1.4220    -5.3150    -1.4970 H     1 <1>   0.0800 
 31 H       -0.2640    -5.7010    -0.2310 H     1 <1>   0.0800 
 32 H        0.2700    -5.5540    -1.9140 H     1 <1>   0.0800 
 33 H       -3.8860    -0.0300    -0.3670 H     1 <1>   0.1500 
 34 H       -7.2970     3.4620    -0.1270 H     1 <1>   0.1500 
 35 H       -6.2220    -0.5940    -0.5690 H     1 <1>   0.1500 
 36 H       -6.6550     5.3050     0.9980 H     1 <1>   0.0800 
 37 H       -6.5250     5.5050    -0.7400 H     1 <1>   0.0800 
 38 H       -5.6730     6.5740     0.3340 H     1 <1>   0.0800 
 39 H       -4.6800     4.4030     2.3180 H     1 <1>   0.0800 
 40 H       -3.8770     5.8320     1.7150 H     1 <1>   0.0800 
 41 H       -3.1230     4.2840     1.5510 H     1 <1>   0.0800 
 42 H       -4.3410     4.9090    -1.9180 H     1 <1>   0.0800 
 43 H       -2.9180     4.6030    -0.9620 H     1 <1>   0.0800 
 44 H       -3.6840     6.1520    -0.8810 H     1 <1>   0.0800 
 45 H       -8.7470     1.4500    -1.4200 H     1 <1>   0.0800 
 46 H       -8.9270     1.5320     0.3180 H     1 <1>   0.0800 
 47 H       -8.5240     0.0170    -0.4470 H     1 <1>   0.0800 
@<TRIPOS>BOND
  1   1   2  1   
  2   1   3  1   
  3   2   4  2   
  4   2   5  1   
  5   3   6  2   
  6   3   7  1   
  7   4   6  1   
  8   5   8  am  
  9   5  25  1   
 10   7   9  1   
 11   7  26  1   
 12   7  27  1   
 13   8  10  2   
 14   8  11  1   
 15   9  12  1   
 16  11  13  1   
 17  11  28  1   
 18  11  29  1   
 19  12  30  1   
 20  12  31  1   
 21  12  32  1   
 22  13  14  1   
 23  14  15  ar  
 24  14  16  ar  
 25  15  17  ar  
 26  15  18  1   
 27  16  19  ar  
 28  16  33  1   
 29  17  20  ar  
 30  17  34  1   
 31  18  21  1   
 32  18  22  1   
 33  18  23  1   
 34  19  20  ar  
 35  19  35  1   
 36  20  24  1   
 37  21  36  1   
 38  21  37  1   
 39  21  38  1   
 40  22  39  1   
 41  22  40  1   
 42  22  41  1   
 43  23  42  1   
 44  23  43  1   
 45  23  44  1   
 46  24  45  1   
 47  24  46  1   
 48  24  47  1   
@<TRIPOS>SUBSTRUCTURE
  1 ****  11 GROUP 4 **** **** 0

# MOE 2024.06 (io_trps.svl 2023.06)
