@<TRIPOS>MOLECULE
2-(4-tert-Butyl-phenoxy)-N-(2-ethyl-2H-tetrazol-5-yl)-acetamide
43 44 1 0 0 
SMALL
USER_CHARGES


@<TRIPOS>ATOM
  1 O        0.2520     0.8980     1.2370 O.2   1 <1>  -0.5700 
  2 C        0.5080    -0.1750     0.7470 C.2   1 <1>   0.5690 
  3 N       -0.4060    -0.9590     0.1190 N.am  1 <1>  -0.4930 
  4 C        1.9430    -0.6730     0.8420 C.3   1 <1>   0.1810 
  5 C       -1.7580    -0.7760    -0.1150 C.2   1 <1>   0.5790 
  6 O        2.0900    -1.9430     0.2200 O.3   1 <1>  -0.3630 
  7 N       -2.4760     0.2800     0.2610 N.2   1 <1>  -0.2270 
  8 N       -2.4170    -1.6720    -0.7440 N.2   1 <1>  -0.7070 
  9 C        3.2920    -2.5700     0.1890 C.ar  1 <1>   0.0830 
 10 N       -3.6640     0.0540    -0.1450 N.2   1 <1>  -0.4180 
 11 N       -3.6190    -1.1220    -0.7450 N.pl3 1 <1>   0.5800 
 12 C        4.4560    -2.0500     0.7460 C.ar  1 <1>  -0.1500 
 13 C        3.3400    -3.8010    -0.4390 C.ar  1 <1>  -0.1500 
 14 C       -4.7970    -1.7630    -1.3660 C.3   1 <1>   0.0960 
 15 C        5.6410    -2.7610     0.6680 C.ar  1 <1>  -0.1500 
 16 C        4.5290    -4.5050    -0.5120 C.ar  1 <1>  -0.1500 
 17 C       -5.4690    -2.7610    -0.4110 C.3   1 <1>  -0.2400 
 18 C        5.7040    -4.0020     0.0380 C.ar  1 <1>  -0.1430 
 19 C        7.0050    -4.8270    -0.0710 C.3   1 <1>   0.1440 
 20 C        8.2160    -4.1400     0.5840 C.3   1 <1>  -0.2400 
 21 C        6.8120    -6.1840     0.6230 C.3   1 <1>  -0.2400 
 22 C        7.3470    -5.0540    -1.5510 C.3   1 <1>  -0.2400 
 23 H       -0.0610    -1.8410    -0.2520 H     1 <1>   0.3700 
 24 H        2.2180    -0.7660     1.8760 H     1 <1>   0.0800 
 25 H        2.5940     0.0260     0.3480 H     1 <1>   0.0800 
 26 H        4.4660    -1.1000     1.2420 H     1 <1>   0.1500 
 27 H        2.4450    -4.2090    -0.8710 H     1 <1>   0.1500 
 28 H       -4.4720    -2.2660    -2.2580 H     1 <1>   0.0800 
 29 H       -5.4920    -0.9910    -1.6410 H     1 <1>   0.0800 
 30 H        6.5120    -2.3180     1.1130 H     1 <1>   0.1500 
 31 H        4.5260    -5.4580    -1.0090 H     1 <1>   0.1500 
 32 H       -4.7780    -3.5410    -0.1410 H     1 <1>   0.0800 
 33 H       -6.3200    -3.2100    -0.8910 H     1 <1>   0.0800 
 34 H       -5.8030    -2.2580     0.4800 H     1 <1>   0.0800 
 35 H        8.0390    -3.9830     1.6330 H     1 <1>   0.0800 
 36 H        8.4130    -3.1930     0.1140 H     1 <1>   0.0800 
 37 H        9.0960    -4.7500     0.4840 H     1 <1>   0.0800 
 38 H        6.5380    -6.0350     1.6520 H     1 <1>   0.0800 
 39 H        7.7200    -6.7600     0.5900 H     1 <1>   0.0800 
 40 H        6.0380    -6.7570     0.1470 H     1 <1>   0.0800 
 41 H        7.4490    -4.1090    -2.0530 H     1 <1>   0.0800 
 42 H        6.5770    -5.6160    -2.0460 H     1 <1>   0.0800 
 43 H        8.2700    -5.5960    -1.6490 H     1 <1>   0.0800 
@<TRIPOS>BOND
  1   1   2  2   
  2   2   3  am  
  3   2   4  1   
  4   3   5  1   
  5   3  23  1   
  6   4   6  1   
  7   4  24  1   
  8   4  25  1   
  9   5   7  1   
 10   5   8  2   
 11   6   9  1   
 12   7  10  2   
 13   8  11  1   
 14   9  12  ar  
 15   9  13  ar  
 16  10  11  1   
 17  11  14  1   
 18  12  15  ar  
 19  12  26  1   
 20  13  16  ar  
 21  13  27  1   
 22  14  17  1   
 23  14  28  1   
 24  14  29  1   
 25  15  18  ar  
 26  15  30  1   
 27  16  18  ar  
 28  16  31  1   
 29  17  32  1   
 30  17  33  1   
 31  17  34  1   
 32  18  19  1   
 33  19  20  1   
 34  19  21  1   
 35  19  22  1   
 36  20  35  1   
 37  20  36  1   
 38  20  37  1   
 39  21  38  1   
 40  21  39  1   
 41  21  40  1   
 42  22  41  1   
 43  22  42  1   
 44  22  43  1   
@<TRIPOS>SUBSTRUCTURE
  1 ****   6 GROUP 4 **** **** 0

# MOE 2024.06 (io_trps.svl 2023.06)
