@<TRIPOS>MOLECULE
N-[2-(2-Morpholin-4-yl-acetylamino)-ethyl]-benzamide
42 43 1 0 0 
SMALL
USER_CHARGES


@<TRIPOS>ATOM
  1 O        0.0960     0.2130     0.1280 O.2   1 <1>  -0.5700 
  2 C        0.3150    -0.9810     0.0590 C.2   1 <1>   0.5440 
  3 N        1.6020    -1.3900    -0.1390 N.am  1 <1>  -0.7300 
  4 C       -0.7640    -1.9440     0.1860 C.ar  1 <1>   0.0860 
  5 C        2.7170    -0.4980    -0.5270 C.3   1 <1>   0.1400 
  6 C       -0.7590    -3.1460    -0.5210 C.ar  1 <1>  -0.1500 
  7 C       -1.8560    -1.6960     1.0180 C.ar  1 <1>  -0.1500 
  8 C        3.7930    -1.2810    -1.2910 C.3   1 <1>   0.1400 
  9 C       -1.7870    -4.0630    -0.3970 C.ar  1 <1>  -0.1500 
 10 C       -2.8880    -2.6070     1.1490 C.ar  1 <1>  -0.1500 
 11 N        4.9300    -1.7050    -0.4290 N.am  1 <1>  -0.7300 
 12 C       -2.8540    -3.7960     0.4410 C.ar  1 <1>  -0.1500 
 13 C        5.0030    -2.6200     0.5720 C.2   1 <1>   0.5690 
 14 O        6.0940    -2.9210     0.9860 O.2   1 <1>  -0.5700 
 15 C        3.7800    -3.2900     1.2230 C.3   1 <1>   0.1710 
 16 N        2.8350    -4.0160     0.3220 N.3   1 <1>  -0.8100 
 17 C        3.5230    -4.9860    -0.5500 C.3   1 <1>   0.1100 
 18 C        1.7870    -4.7060     1.1160 C.3   1 <1>   0.1100 
 19 C        2.5290    -5.6860    -1.5070 C.3   1 <1>   0.1200 
 20 C        1.1380    -5.9030     0.3830 C.3   1 <1>   0.1200 
 21 O        1.2190    -5.7510    -1.0030 O.3   1 <1>  -0.5600 
 22 H        1.8440    -2.3960    -0.0760 H     1 <1>   0.3700 
 23 H        3.1360    -0.0280     0.3460 H     1 <1>   0.0800 
 24 H        2.3230     0.2730    -1.1670 H     1 <1>   0.0800 
 25 H        0.0630    -3.3710    -1.1810 H     1 <1>   0.1500 
 26 H       -1.8880    -0.7690     1.5650 H     1 <1>   0.1500 
 27 H        4.1880    -0.6420    -2.0600 H     1 <1>   0.0800 
 28 H        3.3560    -2.1390    -1.7730 H     1 <1>   0.0800 
 29 H       -1.7510    -4.9830    -0.9560 H     1 <1>   0.1500 
 30 H       -3.7190    -2.3910     1.7980 H     1 <1>   0.1500 
 31 H        5.8420    -1.3450    -0.7170 H     1 <1>   0.3700 
 32 H       -3.6560    -4.5070     0.5380 H     1 <1>   0.1500 
 33 H        3.2390    -2.5290     1.7540 H     1 <1>   0.0800 
 34 H        4.1580    -3.9800     1.9560 H     1 <1>   0.0800 
 35 H        4.0160    -5.7290     0.0540 H     1 <1>   0.0800 
 36 H        4.2790    -4.4960    -1.1390 H     1 <1>   0.0800 
 37 H        1.0220    -3.9950     1.3750 H     1 <1>   0.0800 
 38 H        2.1990    -5.0740     2.0400 H     1 <1>   0.0800 
 39 H        2.8600    -6.6880    -1.7160 H     1 <1>   0.0800 
 40 H        2.4820    -5.1470    -2.4360 H     1 <1>   0.0800 
 41 H        0.1000    -5.9870     0.6530 H     1 <1>   0.0800 
 42 H        1.6340    -6.8200     0.6490 H     1 <1>   0.0800 
@<TRIPOS>BOND
  1   1   2  2   
  2   2   3  am  
  3   2   4  1   
  4   3   5  1   
  5   3  22  1   
  6   4   6  ar  
  7   4   7  ar  
  8   5   8  1   
  9   5  23  1   
 10   5  24  1   
 11   6   9  ar  
 12   6  25  1   
 13   7  10  ar  
 14   7  26  1   
 15   8  11  1   
 16   8  27  1   
 17   8  28  1   
 18   9  12  ar  
 19   9  29  1   
 20  10  12  ar  
 21  10  30  1   
 22  11  13  am  
 23  11  31  1   
 24  12  32  1   
 25  13  14  2   
 26  13  15  1   
 27  15  16  1   
 28  15  33  1   
 29  15  34  1   
 30  16  17  1   
 31  16  18  1   
 32  17  19  1   
 33  17  35  1   
 34  17  36  1   
 35  18  20  1   
 36  18  37  1   
 37  18  38  1   
 38  19  21  1   
 39  19  39  1   
 40  19  40  1   
 41  20  21  1   
 42  20  41  1   
 43  20  42  1   
@<TRIPOS>SUBSTRUCTURE
  1 ****   3 GROUP 4 **** **** 0

# MOE 2024.06 (io_trps.svl 2023.06)
