@<TRIPOS>MOLECULE
1-(4-Acetyl-5-methyl-thiazol-2-yl)-3-(3-methyl-benzyl)-pyrrolidine-2,5-dione
42 44 1 0 0 
SMALL
USER_CHARGES


@<TRIPOS>ATOM
  1 S       -0.2260    -0.0100     0.0920 S.3   1 <1>  -0.0800 
  2 C        0.1880     1.6250    -0.3670 C.2   1 <1>   0.4420 
  3 C        1.4560    -0.4350     0.0480 C.2   1 <1>  -0.1400 
  4 N        1.4410     1.8070    -0.5350 N.2   1 <1>  -0.5650 
  5 N       -0.8350     2.5420    -0.5020 N.am  1 <1>  -0.1840 
  6 C        2.1940     0.6470    -0.3120 C.2   1 <1>   0.1410 
  7 C        1.7800    -1.8700     0.4280 C.3   1 <1>  -0.0600 
  8 C       -1.5300     3.0770     0.5390 C.2   1 <1>   0.5690 
  9 C       -1.1700     3.1590    -1.6700 C.2   1 <1>   0.5690 
 10 C        3.6350     0.7040    -0.4890 C.2   1 <1>   0.5950 
 11 O       -1.4760     2.7220     1.6880 O.2   1 <1>  -0.5700 
 12 C       -2.4330     4.2040     0.0760 C.3   1 <1>  -0.0190 
 13 O       -0.8140     2.8430    -2.7740 O.2   1 <1>  -0.5700 
 14 C       -2.1160     4.3110    -1.4290 C.3   1 <1>  -0.0990 
 15 O        4.3370     1.6020    -0.1000 O.2   1 <1>  -0.5700 
 16 C        4.3330    -0.4250    -1.2190 C.3   1 <1>  -0.1790 
 17 C       -2.1800     5.5060     0.8560 C.3   1 <1>  -0.0160 
 18 C       -3.0590     6.6340     0.3360 C.ar  1 <1>  -0.1440 
 19 C       -2.5200     7.6440    -0.4470 C.ar  1 <1>  -0.1500 
 20 C       -4.4100     6.6580     0.6410 C.ar  1 <1>  -0.1500 
 21 C       -3.3210     8.6640    -0.9340 C.ar  1 <1>  -0.1440 
 22 C       -5.2150     7.6760     0.1610 C.ar  1 <1>  -0.1500 
 23 C       -4.6710     8.6750    -0.6260 C.ar  1 <1>  -0.1500 
 24 C       -2.7230     9.7640    -1.7910 C.3   1 <1>  -0.0970 
 25 H        1.3230    -2.1070     1.3730 H     1 <1>   0.0800 
 26 H        2.8390    -2.0210     0.5230 H     1 <1>   0.0800 
 27 H        1.3950    -2.5430    -0.3170 H     1 <1>   0.0800 
 28 H       -3.4530     3.8920     0.2120 H     1 <1>   0.0800 
 29 H       -3.0020     4.2030    -2.0280 H     1 <1>   0.0800 
 30 H       -1.6180     5.2290    -1.6820 H     1 <1>   0.0800 
 31 H        3.6270    -1.0100    -1.7790 H     1 <1>   0.0800 
 32 H        4.8450    -1.0490    -0.5120 H     1 <1>   0.0800 
 33 H        5.0530    -0.0110    -1.9000 H     1 <1>   0.0800 
 34 H       -1.1430     5.7830     0.7840 H     1 <1>   0.0800 
 35 H       -2.3960     5.3460     1.8990 H     1 <1>   0.0800 
 36 H       -1.4710     7.6410    -0.6820 H     1 <1>   0.1500 
 37 H       -4.8440     5.8880     1.2550 H     1 <1>   0.1500 
 38 H       -6.2640     7.6920     0.4000 H     1 <1>   0.1500 
 39 H       -5.3040     9.4640    -0.9940 H     1 <1>   0.1500 
 40 H       -1.9000     9.3840    -2.3710 H     1 <1>   0.0800 
 41 H       -2.3670    10.5610    -1.1630 H     1 <1>   0.0800 
 42 H       -3.4600    10.1570    -2.4680 H     1 <1>   0.0800 
@<TRIPOS>BOND
  1   1   2  1   
  2   1   3  1   
  3   2   4  2   
  4   2   5  1   
  5   3   6  2   
  6   3   7  1   
  7   4   6  1   
  8   5   8  am  
  9   5   9  am  
 10   6  10  1   
 11   7  25  1   
 12   7  26  1   
 13   7  27  1   
 14   8  11  2   
 15   8  12  1   
 16   9  13  2   
 17   9  14  1   
 18  10  15  2   
 19  10  16  1   
 20  12  14  1   
 21  12  17  1   
 22  12  28  1   
 23  14  29  1   
 24  14  30  1   
 25  16  31  1   
 26  16  32  1   
 27  16  33  1   
 28  17  18  1   
 29  17  34  1   
 30  17  35  1   
 31  18  19  ar  
 32  18  20  ar  
 33  19  21  ar  
 34  19  36  1   
 35  20  22  ar  
 36  20  37  1   
 37  21  23  ar  
 38  21  24  1   
 39  22  23  ar  
 40  22  38  1   
 41  23  39  1   
 42  24  40  1   
 43  24  41  1   
 44  24  42  1   
@<TRIPOS>SUBSTRUCTURE
  1 ****   5 GROUP 4 **** **** 0

# MOE 2024.06 (io_trps.svl 2023.06)
