@<TRIPOS>MOLECULE
3-(4-Isopropoxy-benzyl)-2-mercapto-6-methyl-3H-pyrimidin-4-one
38 39 1 0 0 
SMALL
USER_CHARGES


@<TRIPOS>ATOM
  1 S        1.2990     2.1800     2.6920 S.2   1 <1>  -0.3800 
  2 C        1.6220     1.8570     1.1380 C.2   1 <1>   0.5000 
  3 N        2.5550     0.9070     0.8900 N.am  1 <1>  -0.5390 
  4 N        1.0170     2.5050     0.0950 N.am  1 <1>  -0.4200 
  5 C        2.9560     0.5660    -0.3850 C.2   1 <1>  -0.0290 
  6 C        1.4130     2.2310    -1.2100 C.2   1 <1>   0.6160 
  7 C       -0.1120     3.4520     0.3100 C.3   1 <1>   0.2840 
  8 C        2.3960     1.2200    -1.4240 C.2   1 <1>  -0.1360 
  9 C        4.0030    -0.5220    -0.5120 C.3   1 <1>  -0.1020 
 10 O        0.9460     2.8480    -2.1500 O.2   1 <1>  -0.5700 
 11 C       -1.4380     2.6990     0.3070 C.ar  1 <1>  -0.1440 
 12 C       -2.0360     2.3170     1.4990 C.ar  1 <1>  -0.1500 
 13 C       -2.0630     2.3880    -0.8910 C.ar  1 <1>  -0.1500 
 14 C       -3.2380     1.6320     1.4900 C.ar  1 <1>  -0.1500 
 15 C       -3.2650     1.7030    -0.9030 C.ar  1 <1>  -0.1500 
 16 C       -3.8620     1.3180     0.2940 C.ar  1 <1>   0.0830 
 17 O       -5.0360     0.6410     0.3840 O.3   1 <1>  -0.3630 
 18 C       -5.7930     0.2550    -0.7410 C.3   1 <1>   0.2000 
 19 C       -6.6220     1.4520    -1.2130 C.3   1 <1>  -0.2400 
 20 C       -6.6930    -0.8970    -0.3000 C.3   1 <1>  -0.2400 
 21 H        2.9600     0.4410     1.7060 H     1 <1>   0.3700 
 22 H       -0.1210     4.1960    -0.4670 H     1 <1>   0.0800 
 23 H        0.0110     3.9780     1.2390 H     1 <1>   0.0800 
 24 H        2.6530     1.0220    -2.4460 H     1 <1>   0.1500 
 25 H        3.6380    -1.4360    -0.0810 H     1 <1>   0.0800 
 26 H        4.9030    -0.2290    -0.0020 H     1 <1>   0.0800 
 27 H        4.2380    -0.7010    -1.5460 H     1 <1>   0.0800 
 28 H       -1.5700     2.5470     2.4420 H     1 <1>   0.1500 
 29 H       -1.6130     2.6790    -1.8260 H     1 <1>   0.1500 
 30 H       -3.7000     1.3340     2.4130 H     1 <1>   0.1500 
 31 H       -3.7150     1.4810    -1.8510 H     1 <1>   0.1500 
 32 H       -5.1260    -0.0940    -1.5090 H     1 <1>   0.0800 
 33 H       -7.2730     1.7860    -0.4240 H     1 <1>   0.0800 
 34 H       -7.2230     1.1710    -2.0580 H     1 <1>   0.0800 
 35 H       -5.9840     2.2640    -1.5080 H     1 <1>   0.0800 
 36 H       -7.3450    -0.5800     0.4940 H     1 <1>   0.0800 
 37 H       -6.0900    -1.7190     0.0420 H     1 <1>   0.0800 
 38 H       -7.2920    -1.2340    -1.1260 H     1 <1>   0.0800 
@<TRIPOS>BOND
  1   1   2  2   
  2   2   3  am  
  3   2   4  am  
  4   3   5  1   
  5   3  21  1   
  6   4   6  am  
  7   4   7  1   
  8   5   8  2   
  9   5   9  1   
 10   6   8  1   
 11   6  10  2   
 12   7  11  1   
 13   7  22  1   
 14   7  23  1   
 15   8  24  1   
 16   9  25  1   
 17   9  26  1   
 18   9  27  1   
 19  11  12  ar  
 20  11  13  ar  
 21  12  14  ar  
 22  12  28  1   
 23  13  15  ar  
 24  13  29  1   
 25  14  16  ar  
 26  14  30  1   
 27  15  16  ar  
 28  15  31  1   
 29  16  17  1   
 30  17  18  1   
 31  18  19  1   
 32  18  20  1   
 33  18  32  1   
 34  19  33  1   
 35  19  34  1   
 36  19  35  1   
 37  20  36  1   
 38  20  37  1   
 39  20  38  1   
@<TRIPOS>SUBSTRUCTURE
  1 ****  11 GROUP 4 **** **** 0

# MOE 2024.06 (io_trps.svl 2023.06)
