@<TRIPOS>MOLECULE
2-(4-Dimethylsulfamoyl-piperazin-1-yl)-N-(4-fluoro-phenyl)-acetamide
44 45 1 0 0 
SMALL
USER_CHARGES


@<TRIPOS>ATOM
  1 S       -0.1430    -0.1630     1.1140 S.o2  1 <1>   1.5760 
  2 O        0.3500     1.0620     1.7020 O.2   1 <1>  -0.6500 
  3 O       -0.2350    -1.3730     1.9010 O.2   1 <1>  -0.6500 
  4 N       -1.6560     0.1350     0.4340 N.am  1 <1>  -0.8490 
  5 N        0.7590    -0.4810    -0.2820 N.am  1 <1>  -0.8490 
  6 C       -2.5660     0.7110     1.4320 C.3   1 <1>   0.1960 
  7 C       -2.2450    -1.0880    -0.1330 C.3   1 <1>   0.1960 
  8 C        2.0520    -1.0840     0.0420 C.3   1 <1>   0.1160 
  9 C        0.9550     0.7170    -1.1030 C.3   1 <1>   0.1160 
 10 C       -3.9590     0.9880     0.8350 C.3   1 <1>   0.1100 
 11 C       -3.6350    -0.8140    -0.7360 C.3   1 <1>   0.1100 
 12 N       -4.5620    -0.2380     0.2700 N.3   1 <1>  -0.8100 
 13 C       -5.9000     0.0480    -0.3310 C.3   1 <1>   0.1710 
 14 C       -6.7540    -1.2040    -0.5460 C.2   1 <1>   0.5690 
 15 O       -7.6470    -1.1760    -1.3590 O.2   1 <1>  -0.5700 
 16 N       -6.4310    -2.2890     0.2190 N.am  1 <1>  -0.5470 
 17 C       -6.9400    -3.5920     0.3150 C.ar  1 <1>   0.1170 
 18 C       -6.2510    -4.5080     1.1080 C.ar  1 <1>  -0.1500 
 19 C       -8.0990    -4.0070    -0.3400 C.ar  1 <1>  -0.1500 
 20 C       -6.6990    -5.8100     1.2460 C.ar  1 <1>  -0.1500 
 21 C       -8.5600    -5.3070    -0.2130 C.ar  1 <1>  -0.1500 
 22 C       -7.8490    -6.1860     0.5790 C.ar  1 <1>   0.1900 
 23 F       -8.2780    -7.4150     0.7040 F     1 <1>  -0.1900 
 24 H       -2.1550     1.6370     1.7970 H     1 <1>   0.0800 
 25 H       -2.6670     0.0390     2.2690 H     1 <1>   0.0800 
 26 H       -2.3400    -1.8450     0.6280 H     1 <1>   0.0800 
 27 H       -1.6000    -1.4730    -0.9040 H     1 <1>   0.0800 
 28 H        1.9020    -2.0050     0.5820 H     1 <1>   0.0800 
 29 H        2.6370    -0.4160     0.6520 H     1 <1>   0.0800 
 30 H        2.5940    -1.3070    -0.8610 H     1 <1>   0.0800 
 31 H        0.0010     1.1420    -1.3680 H     1 <1>   0.0800 
 32 H        1.4750     0.4630    -2.0100 H     1 <1>   0.0800 
 33 H        1.5240     1.4570    -0.5640 H     1 <1>   0.0800 
 34 H       -3.8650     1.7400     0.0700 H     1 <1>   0.0800 
 35 H       -4.5970     1.3750     1.6110 H     1 <1>   0.0800 
 36 H       -4.0360    -1.7380    -1.1160 H     1 <1>   0.0800 
 37 H       -3.5230    -0.1350    -1.5650 H     1 <1>   0.0800 
 38 H       -5.7830     0.5580    -1.2710 H     1 <1>   0.0800 
 39 H       -6.4550     0.6930     0.3260 H     1 <1>   0.0800 
 40 H       -5.6070    -2.0850     0.7930 H     1 <1>   0.3700 
 41 H       -5.3570    -4.2010     1.6210 H     1 <1>   0.1500 
 42 H       -8.6510    -3.3190    -0.9530 H     1 <1>   0.1500 
 43 H       -6.1730    -6.5240     1.8550 H     1 <1>   0.1500 
 44 H       -9.4520    -5.6330    -0.7170 H     1 <1>   0.1500 
@<TRIPOS>BOND
  1   1   2  2   
  2   1   3  2   
  3   1   4  am  
  4   1   5  am  
  5   4   6  1   
  6   4   7  1   
  7   5   8  1   
  8   5   9  1   
  9   6  10  1   
 10   6  24  1   
 11   6  25  1   
 12   7  11  1   
 13   7  26  1   
 14   7  27  1   
 15   8  28  1   
 16   8  29  1   
 17   8  30  1   
 18   9  31  1   
 19   9  32  1   
 20   9  33  1   
 21  10  12  1   
 22  10  34  1   
 23  10  35  1   
 24  11  12  1   
 25  11  36  1   
 26  11  37  1   
 27  12  13  1   
 28  13  14  1   
 29  13  38  1   
 30  13  39  1   
 31  14  15  2   
 32  14  16  am  
 33  16  17  1   
 34  16  40  1   
 35  17  18  ar  
 36  17  19  ar  
 37  18  20  ar  
 38  18  41  1   
 39  19  21  ar  
 40  19  42  1   
 41  20  22  ar  
 42  20  43  1   
 43  21  22  ar  
 44  21  44  1   
 45  22  23  1   
@<TRIPOS>SUBSTRUCTURE
  1 ****  11 GROUP 4 **** **** 0

# MOE 2024.06 (io_trps.svl 2023.06)
