@<TRIPOS>MOLECULE
8-(3-Chloro-4-methoxy-phenyl)-3-(2-ethoxy-ethyl)-1,7-dimethyl-1H,8H-imidazo[2,1-
53 56 1 0 0 
SMALL
USER_CHARGES


@<TRIPOS>ATOM
  1 CL      -1.9110    -1.0890     3.0220 Cl    1 <1>  -0.1840 
  2 C       -2.7340    -1.0450     1.4800 C.ar  1 <1>   0.1700 
  3 C       -2.3160    -1.8570     0.4310 C.ar  1 <1>   0.0750 
  4 C       -3.8050    -0.1850     1.3470 C.ar  1 <1>  -0.1570 
  5 O       -1.2550    -2.6820     0.6380 O.3   1 <1>  -0.3680 
  6 C       -3.0030    -1.7870    -0.7790 C.ar  1 <1>  -0.1570 
  7 C       -4.4890    -0.1250     0.1440 C.ar  1 <1>   0.3050 
  8 C       -0.7300    -3.4930    -0.3910 C.3   1 <1>   0.0320 
  9 C       -4.0800    -0.9250    -0.9150 C.ar  1 <1>  -0.1570 
 10 N       -5.5930     0.7320     0.0000 N.pl3 1 <1>  -0.5550 
 11 C       -6.8660     0.4650     0.3240 C.cat 1 <1>   1.0690 
 12 C       -5.6080     2.0340    -0.4890 C.2   1 <1>   0.1580 
 13 N       -7.5440    -0.5680     0.8360 N.pl3 1 <1>  -0.7030 
 14 N       -7.6650     1.4910     0.0730 N.pl3 1 <1>  -0.6330 
 15 C       -6.8760     2.5000    -0.4460 C.2   1 <1>   0.2230 
 16 C       -4.3420     2.7210    -0.9670 C.3   1 <1>  -0.1090 
 17 C       -8.8490    -0.1700     0.9140 C.2   1 <1>   0.4210 
 18 C       -8.9580     1.0990     0.4480 C.2   1 <1>   0.2710 
 19 N       -9.9310    -0.8940     1.3730 N.am  1 <1>  -0.4410 
 20 C      -10.2350     1.7340     0.4220 C.2   1 <1>   0.7000 
 21 C      -11.1880    -0.3000     1.3260 C.2   1 <1>   0.6870 
 22 C       -9.7720    -2.2930     1.8740 C.3   1 <1>   0.0530 
 23 O      -10.3620     2.8650    -0.0120 O.2   1 <1>  -0.5740 
 24 N      -11.3240     1.0150     0.8940 N.am  1 <1>  -0.4250 
 25 O      -12.1670    -0.9400     1.6490 O.2   1 <1>  -0.5740 
 26 C      -12.6730     1.6640     0.9420 C.3   1 <1>   0.1330 
 27 C      -13.4730     1.3480    -0.3210 C.3   1 <1>   0.1130 
 28 O      -14.6830     2.0250    -0.2400 O.3   1 <1>  -0.5640 
 29 C      -15.5300     1.7950    -1.3150 C.3   1 <1>   0.1130 
 30 C      -16.8010     2.6010    -1.0790 C.3   1 <1>  -0.2460 
 31 H       -4.0910     0.4320     2.1790 H     1 <1>   0.1430 
 32 H       -2.7120    -2.3930    -1.6180 H     1 <1>   0.1430 
 33 H        0.1120    -4.0300     0.0070 H     1 <1>   0.0730 
 34 H       -0.4110    -2.8650    -1.2030 H     1 <1>   0.0730 
 35 H       -1.4860    -4.1870    -0.7110 H     1 <1>   0.0730 
 36 H       -4.6000    -0.8760    -1.8560 H     1 <1>   0.1430 
 37 H       -7.1400    -1.4650     1.1020 H     1 <1>   0.4450 
 38 H       -7.2770     3.4590    -0.7390 H     1 <1>   0.1430 
 39 H       -3.9050     2.1730    -1.7830 H     1 <1>   0.0730 
 40 H       -3.6250     2.7780    -0.1660 H     1 <1>   0.0730 
 41 H       -4.5590     3.7200    -1.3030 H     1 <1>   0.0730 
 42 H       -8.8420    -2.4020     2.4030 H     1 <1>   0.0730 
 43 H       -9.7990    -2.9800     1.0470 H     1 <1>   0.0730 
 44 H      -10.5710    -2.5420     2.5530 H     1 <1>   0.0730 
 45 H      -12.5680     2.7310     1.0350 H     1 <1>   0.0730 
 46 H      -13.2170     1.3090     1.8010 H     1 <1>   0.0730 
 47 H      -13.6750     0.2920    -0.3850 H     1 <1>   0.0730 
 48 H      -12.9510     1.6920    -1.1970 H     1 <1>   0.0730 
 49 H      -15.7520     0.7420    -1.3650 H     1 <1>   0.0730 
 50 H      -15.0410     2.1140    -2.2200 H     1 <1>   0.0730 
 51 H      -17.2740     2.2840    -0.1680 H     1 <1>   0.0730 
 52 H      -17.4840     2.4490    -1.8940 H     1 <1>   0.0730 
 53 H      -16.5660     3.6480    -1.0160 H     1 <1>   0.0730 
@<TRIPOS>BOND
  1   1   2  1   
  2   2   3  ar  
  3   2   4  ar  
  4   3   5  1   
  5   3   6  ar  
  6   4   7  ar  
  7   4  31  1   
  8   5   8  1   
  9   6   9  ar  
 10   6  32  1   
 11   7   9  ar  
 12   7  10  1   
 13   8  33  1   
 14   8  34  1   
 15   8  35  1   
 16   9  36  1   
 17  10  11  ar  
 18  10  12  1   
 19  11  13  ar  
 20  11  14  ar  
 21  12  15  2   
 22  12  16  1   
 23  13  17  1   
 24  13  37  1   
 25  14  15  1   
 26  14  18  1   
 27  15  38  1   
 28  16  39  1   
 29  16  40  1   
 30  16  41  1   
 31  17  18  2   
 32  17  19  1   
 33  18  20  1   
 34  19  21  am  
 35  19  22  1   
 36  20  23  2   
 37  20  24  am  
 38  21  24  am  
 39  21  25  2   
 40  22  42  1   
 41  22  43  1   
 42  22  44  1   
 43  24  26  1   
 44  26  27  1   
 45  26  45  1   
 46  26  46  1   
 47  27  28  1   
 48  27  47  1   
 49  27  48  1   
 50  28  29  1   
 51  29  30  1   
 52  29  49  1   
 53  29  50  1   
 54  30  51  1   
 55  30  52  1   
 56  30  53  1   
@<TRIPOS>SUBSTRUCTURE
  1 ****  11 GROUP 4 **** **** 0

# MOE 2024.06 (io_trps.svl 2023.06)
