@<TRIPOS>MOLECULE
1,7-Dimethyl-3-(1-methyl-2-oxo-propyl)-8-phenethyl-1H,8H-imidazo[2,1-f]purine-2,
53 56 1 0 0 
SMALL
USER_CHARGES


@<TRIPOS>ATOM
  1 O        0.9640     0.1790     0.5930 O.2   1 <1>  -0.5740 
  2 C        1.8910     0.8890     0.2610 C.2   1 <1>   0.6860 
  3 N        1.6560     2.1060    -0.3790 N.am  1 <1>  -0.4250 
  4 N        3.1910     0.4760     0.5300 N.am  1 <1>  -0.4410 
  5 C        2.7110     2.9000    -0.8010 C.2   1 <1>   0.7000 
  6 C        0.3090     2.7570    -0.2260 C.3   1 <1>   0.2750 
  7 C        4.2270     1.3220     0.1930 C.2   1 <1>   0.4210 
  8 C        3.4400    -0.8110     1.2460 C.3   1 <1>   0.0530 
  9 O        2.5180     3.9110    -1.4560 O.2   1 <1>  -0.5740 
 10 C        4.0330     2.4950    -0.4570 C.2   1 <1>   0.2710 
 11 C       -0.0170     2.9150     1.2700 C.2   1 <1>   0.4430 
 12 C       -0.7400     2.0420    -1.0990 C.3   1 <1>  -0.2460 
 13 N        5.5620     1.1530     0.4330 N.pl3 1 <1>  -0.7030 
 14 N        5.3040     3.0640    -0.6300 N.pl3 1 <1>  -0.6330 
 15 O        0.8420     3.2430     2.0370 O.2   1 <1>  -0.5740 
 16 C       -1.4290     2.6640     1.7630 C.3   1 <1>  -0.1860 
 17 C        6.1710     2.2300    -0.0760 C.cat 1 <1>   1.0690 
 18 C        6.0280     4.1360    -1.1160 C.2   1 <1>   0.2230 
 19 N        7.4250     2.6860    -0.1750 N.pl3 1 <1>  -0.5720 
 20 C        7.3310     3.9020    -0.8370 C.2   1 <1>   0.1580 
 21 C        8.6480     2.0130     0.3320 C.3   1 <1>   0.1610 
 22 C        8.5440     4.7590    -1.1480 C.3   1 <1>  -0.1090 
 23 C        9.2860     1.1540    -0.7620 C.3   1 <1>  -0.0240 
 24 C       10.2430     0.1670    -0.1220 C.ar  1 <1>  -0.1500 
 25 C        9.8960    -1.1700     0.0010 C.ar  1 <1>  -0.1570 
 26 C       11.4710     0.5990     0.3550 C.ar  1 <1>  -0.1570 
 27 C       10.7630    -2.0630     0.6050 C.ar  1 <1>  -0.1570 
 28 C       12.3380    -0.2950     0.9590 C.ar  1 <1>  -0.1570 
 29 C       11.9840    -1.6260     1.0860 C.ar  1 <1>  -0.1570 
 30 H        0.3590     3.7630    -0.6020 H     1 <1>   0.0730 
 31 H        3.4350    -0.6400     2.3090 H     1 <1>   0.0730 
 32 H        4.3840    -1.2330     0.9540 H     1 <1>   0.0730 
 33 H        2.6690    -1.5250     1.0110 H     1 <1>   0.0730 
 34 H       -0.9600     1.0550    -0.7330 H     1 <1>   0.0730 
 35 H       -0.3890     1.9720    -2.1130 H     1 <1>   0.0730 
 36 H       -1.6550     2.6060    -1.1060 H     1 <1>   0.0730 
 37 H        6.0210     0.3920     0.9290 H     1 <1>   0.4450 
 38 H       -1.6960     1.6350     1.6040 H     1 <1>   0.0730 
 39 H       -2.1240     3.3020     1.2490 H     1 <1>   0.0730 
 40 H       -1.4860     2.8710     2.8160 H     1 <1>   0.0730 
 41 H        5.5610     4.9720    -1.6160 H     1 <1>   0.1430 
 42 H        8.3860     1.3850     1.1670 H     1 <1>   0.0730 
 43 H        9.3550     2.7440     0.6840 H     1 <1>   0.0730 
 44 H        9.2310     4.2210    -1.7760 H     1 <1>   0.0730 
 45 H        9.0470     5.0370    -0.2380 H     1 <1>   0.0730 
 46 H        8.2470     5.6570    -1.6600 H     1 <1>   0.0730 
 47 H        9.8240     1.7750    -1.4570 H     1 <1>   0.0730 
 48 H        8.5320     0.6130    -1.3060 H     1 <1>   0.0730 
 49 H        8.9550    -1.5320    -0.3720 H     1 <1>   0.1430 
 50 H       11.7660     1.6290     0.2620 H     1 <1>   0.1430 
 51 H       10.4930    -3.1000     0.6990 H     1 <1>   0.1430 
 52 H       13.2900     0.0440     1.3290 H     1 <1>   0.1430 
 53 H       12.6590    -2.3200     1.5550 H     1 <1>   0.1430 
@<TRIPOS>BOND
  1   1   2  2   
  2   2   3  am  
  3   2   4  am  
  4   3   5  am  
  5   3   6  1   
  6   4   7  1   
  7   4   8  1   
  8   5   9  2   
  9   5  10  1   
 10   6  11  1   
 11   6  12  1   
 12   6  30  1   
 13   7  10  2   
 14   7  13  1   
 15   8  31  1   
 16   8  32  1   
 17   8  33  1   
 18  10  14  1   
 19  11  15  2   
 20  11  16  1   
 21  12  34  1   
 22  12  35  1   
 23  12  36  1   
 24  13  17  ar  
 25  13  37  1   
 26  14  17  ar  
 27  14  18  1   
 28  16  38  1   
 29  16  39  1   
 30  16  40  1   
 31  17  19  ar  
 32  18  20  2   
 33  18  41  1   
 34  19  20  1   
 35  19  21  1   
 36  20  22  1   
 37  21  23  1   
 38  21  42  1   
 39  21  43  1   
 40  22  44  1   
 41  22  45  1   
 42  22  46  1   
 43  23  24  1   
 44  23  47  1   
 45  23  48  1   
 46  24  25  ar  
 47  24  26  ar  
 48  25  27  ar  
 49  25  49  1   
 50  26  28  ar  
 51  26  50  1   
 52  27  29  ar  
 53  27  51  1   
 54  28  29  ar  
 55  28  52  1   
 56  29  53  1   
@<TRIPOS>SUBSTRUCTURE
  1 ****  13 GROUP 4 **** **** 0

# MOE 2024.06 (io_trps.svl 2023.06)
