@<TRIPOS>MOLECULE
1-(4-Ethoxy-phenyl)-5-oxo-pyrrolidine-3-carboxylic acid (3,5-dimethyl-phenyl)-am
50 52 1 0 0 
SMALL
USER_CHARGES


@<TRIPOS>ATOM
  1 O        0.3360    -0.2270    -0.5790 O.2   1 <1>  -0.5700 
  2 C        1.4390    -0.5220    -0.1890 C.2   1 <1>   0.5690 
  3 N        1.8550    -1.7420     0.2620 N.am  1 <1>  -0.4770 
  4 C        2.5580     0.4810    -0.1630 C.3   1 <1>  -0.0990 
  5 C        1.1280    -2.9480     0.3380 C.ar  1 <1>   0.1170 
  6 C        3.2870    -1.6990     0.6200 C.3   1 <1>   0.1400 
  7 C        3.8110    -0.4000    -0.0050 C.3   1 <1>  -0.0190 
  8 C        0.1670    -3.2700    -0.6160 C.ar  1 <1>  -0.1500 
  9 C        1.3630    -3.8590     1.3650 C.ar  1 <1>  -0.1500 
 10 C        4.9570     0.2170     0.7940 C.2   1 <1>   0.5690 
 11 C       -0.5290    -4.4630    -0.5500 C.ar  1 <1>  -0.1500 
 12 C        0.6710    -5.0550     1.4360 C.ar  1 <1>  -0.1500 
 13 O        4.8570     1.3340     1.2320 O.2   1 <1>  -0.5700 
 14 N        6.0970    -0.4850     1.0300 N.am  1 <1>  -0.5470 
 15 C       -0.2840    -5.3650     0.4720 C.ar  1 <1>   0.0830 
 16 C        6.4380    -1.7840     0.6510 C.ar  1 <1>   0.1170 
 17 O       -1.0090    -6.5140     0.4610 O.3   1 <1>  -0.3630 
 18 C        6.6160    -2.7610     1.6200 C.ar  1 <1>  -0.1500 
 19 C        6.5860    -2.1230    -0.6880 C.ar  1 <1>  -0.1500 
 20 C       -0.8520    -7.4800     1.4730 C.3   1 <1>   0.1200 
 21 C        6.9150    -4.0640     1.2620 C.ar  1 <1>  -0.1430 
 22 C        6.8840    -3.4220    -1.0580 C.ar  1 <1>  -0.1440 
 23 C       -1.8100    -8.6300     1.1800 C.3   1 <1>  -0.2400 
 24 C        7.0440    -4.3890    -0.0790 C.ar  1 <1>  -0.1500 
 25 C        7.1060    -5.1380     2.3180 C.3   1 <1>  -0.0970 
 26 C        7.0370    -3.7980    -2.5210 C.3   1 <1>  -0.0970 
 27 H        2.4060     1.1270     0.6820 H     1 <1>   0.0800 
 28 H        2.5840     1.0600    -1.0670 H     1 <1>   0.0800 
 29 H        3.8010    -2.5610     0.2300 H     1 <1>   0.0800 
 30 H        3.3810    -1.6700     1.6920 H     1 <1>   0.0800 
 31 H        4.1740    -0.6330    -0.9890 H     1 <1>   0.0800 
 32 H       -0.0390    -2.5830    -1.4170 H     1 <1>   0.1500 
 33 H        2.0900    -3.6330     2.1220 H     1 <1>   0.1500 
 34 H       -1.2690    -4.7010    -1.2920 H     1 <1>   0.1500 
 35 H        0.8850    -5.7260     2.2450 H     1 <1>   0.1500 
 36 H        6.7620     0.0110     1.6270 H     1 <1>   0.3700 
 37 H        6.5150    -2.4960     2.6560 H     1 <1>   0.1500 
 38 H        6.4710    -1.3620    -1.4380 H     1 <1>   0.1500 
 39 H       -1.0840    -7.0230     2.4200 H     1 <1>   0.0800 
 40 H        0.1690    -7.8230     1.4610 H     1 <1>   0.0800 
 41 H       -2.8240    -8.2730     1.1770 H     1 <1>   0.0800 
 42 H       -1.7140    -9.3870     1.9370 H     1 <1>   0.0800 
 43 H       -1.5800    -9.0670     0.2250 H     1 <1>   0.0800 
 44 H        7.2750    -5.4010    -0.3620 H     1 <1>   0.1500 
 45 H        6.8190    -4.7800     3.2900 H     1 <1>   0.0800 
 46 H        8.1390    -5.4360     2.3520 H     1 <1>   0.0800 
 47 H        6.5050    -5.9980     2.0810 H     1 <1>   0.0800 
 48 H        6.1810    -4.3630    -2.8440 H     1 <1>   0.0800 
 49 H        7.9200    -4.3970    -2.6580 H     1 <1>   0.0800 
 50 H        7.1250    -2.9200    -3.1370 H     1 <1>   0.0800 
@<TRIPOS>BOND
  1   1   2  2   
  2   2   3  am  
  3   2   4  1   
  4   3   5  1   
  5   3   6  1   
  6   4   7  1   
  7   4  27  1   
  8   4  28  1   
  9   5   8  ar  
 10   5   9  ar  
 11   6   7  1   
 12   6  29  1   
 13   6  30  1   
 14   7  10  1   
 15   7  31  1   
 16   8  11  ar  
 17   8  32  1   
 18   9  12  ar  
 19   9  33  1   
 20  10  13  2   
 21  10  14  am  
 22  11  15  ar  
 23  11  34  1   
 24  12  15  ar  
 25  12  35  1   
 26  14  16  1   
 27  14  36  1   
 28  15  17  1   
 29  16  18  ar  
 30  16  19  ar  
 31  17  20  1   
 32  18  21  ar  
 33  18  37  1   
 34  19  22  ar  
 35  19  38  1   
 36  20  23  1   
 37  20  39  1   
 38  20  40  1   
 39  21  24  ar  
 40  21  25  1   
 41  22  24  ar  
 42  22  26  1   
 43  23  41  1   
 44  23  42  1   
 45  23  43  1   
 46  24  44  1   
 47  25  45  1   
 48  25  46  1   
 49  25  47  1   
 50  26  48  1   
 51  26  49  1   
 52  26  50  1   
@<TRIPOS>SUBSTRUCTURE
  1 ****   6 GROUP 4 **** **** 0

# MOE 2024.06 (io_trps.svl 2023.06)
