@<TRIPOS>MOLECULE
3-(6,7-Dihydro-1H-5,8-dioxa-1,3-diaza-cyclopenta[b]naphthalen-2-yl)-propionic ac
29 31 1 0 0 
SMALL
USER_CHARGES


@<TRIPOS>ATOM
  1 O       -1.3130    -2.8480    -0.4450 O.co2 1 <1>  -0.9000 
  2 C       -2.3570    -2.2730    -0.7520 C.2   1 <1>   0.9060 
  3 O       -3.1680    -2.7420    -1.5600 O.co2 1 <1>  -0.9000 
  4 C       -2.6870    -0.9690    -0.0750 C.3   1 <1>  -0.2660 
  5 C       -3.5130    -1.1800     1.2060 C.3   1 <1>   0.0200 
  6 C       -4.9820    -1.4910     0.9530 C.2   1 <1>   0.0060 
  7 N       -5.9540    -1.0340     1.6690 N.2   1 <1>  -0.5650 
  8 N       -5.3830    -2.2940    -0.0660 N.pl3 1 <1>   0.0330 
  9 C       -7.0720    -1.5610     1.0940 C.ar  1 <1>   0.2270 
 10 C       -6.7370    -2.3490     0.0090 C.ar  1 <1>  -0.1520 
 11 C       -8.4100    -1.3990     1.4500 C.ar  1 <1>  -0.1500 
 12 C       -7.7090    -3.0000    -0.7540 C.ar  1 <1>  -0.1500 
 13 C       -9.3810    -2.0310     0.7060 C.ar  1 <1>   0.0820 
 14 C       -9.0300    -2.8430    -0.3980 C.ar  1 <1>   0.0820 
 15 O      -10.6870    -1.8570     1.0530 O.3   1 <1>  -0.3630 
 16 O       -9.9860    -3.4810    -1.1240 O.3   1 <1>  -0.3630 
 17 C      -11.6530    -2.2190     0.0860 C.3   1 <1>   0.1200 
 18 C      -11.2770    -3.5600    -0.5540 C.3   1 <1>   0.1200 
 19 H       -3.2150    -0.3380    -0.7640 H     1 <1>   0.0800 
 20 H       -1.7570    -0.4950     0.1740 H     1 <1>   0.0800 
 21 H       -3.4600    -0.2880     1.8030 H     1 <1>   0.0800 
 22 H       -3.0790    -1.9810     1.7800 H     1 <1>   0.0800 
 23 H       -4.7490    -2.7050    -0.7770 H     1 <1>   0.2700 
 24 H       -8.6560    -0.7830     2.2920 H     1 <1>   0.1500 
 25 H       -7.4250    -3.6080    -1.5940 H     1 <1>   0.1500 
 26 H      -11.6880    -1.4440    -0.6590 H     1 <1>   0.0800 
 27 H      -12.6060    -2.2820     0.5790 H     1 <1>   0.0800 
 28 H      -11.2690    -4.3400     0.1870 H     1 <1>   0.0800 
 29 H      -11.9680    -3.8190    -1.3350 H     1 <1>   0.0800 
@<TRIPOS>BOND
  1   1   2  ar  
  2   2   3  ar  
  3   2   4  1   
  4   4   5  1   
  5   4  19  1   
  6   4  20  1   
  7   5   6  1   
  8   5  21  1   
  9   5  22  1   
 10   6   7  2   
 11   6   8  1   
 12   7   9  1   
 13   8  10  1   
 14   8  23  1   
 15   9  10  ar  
 16   9  11  ar  
 17  10  12  ar  
 18  11  13  ar  
 19  11  24  1   
 20  12  14  ar  
 21  12  25  1   
 22  13  14  ar  
 23  13  15  1   
 24  14  16  1   
 25  15  17  1   
 26  16  18  1   
 27  17  18  1   
 28  17  26  1   
 29  17  27  1   
 30  18  28  1   
 31  18  29  1   
@<TRIPOS>SUBSTRUCTURE
  1 ****  10 GROUP 4 **** **** 0

# MOE 2024.06 (io_trps.svl 2023.06)
