@<TRIPOS>MOLECULE
4-(2,4-Dimethyl-phenyl)-6-(4-methyl-piperazin-1-ylmethyl)-2-oxo-1,2,3,4-tetrahyd
59 61 1 0 0 
SMALL
USER_CHARGES


@<TRIPOS>ATOM
  1 O       -0.8300     0.3090    -1.3800 O.2   1 <1>  -0.5700 
  2 C       -1.8010     0.8360    -0.8890 C.2   1 <1>   0.6900 
  3 N       -3.0390     0.3560    -1.1420 N.am  1 <1>  -0.5390 
  4 N       -1.6830     1.8980    -0.0770 N.am  1 <1>  -0.7300 
  5 C       -4.2110     0.8650    -0.6170 C.2   1 <1>  -0.0290 
  6 C       -2.8310     2.6630     0.4470 C.3   1 <1>   0.5020 
  7 C       -4.1790     1.9830     0.1610 C.2   1 <1>  -0.1240 
  8 C       -5.4660     0.0670    -0.9990 C.3   1 <1>   0.2480 
  9 C       -2.7560     4.0660    -0.1610 C.ar  1 <1>  -0.1440 
 10 C       -5.2930     2.6560     0.7590 C.2   1 <1>   0.7060 
 11 N       -5.2000    -1.3950    -1.0110 N.3   1 <1>  -0.8100 
 12 C       -2.3630     5.1840     0.5760 C.ar  1 <1>  -0.1440 
 13 C       -3.0910     4.2290    -1.5000 C.ar  1 <1>  -0.1500 
 14 O       -6.4430     2.4790     0.4060 O.2   1 <1>  -0.5700 
 15 O       -5.0580     3.5130     1.7590 O.3   1 <1>  -0.4300 
 16 C       -4.9180    -1.9080     0.3550 C.3   1 <1>   0.1100 
 17 C       -6.3400    -2.1330    -1.6060 C.3   1 <1>   0.1100 
 18 C       -2.3340     6.4300    -0.0330 C.ar  1 <1>  -0.1500 
 19 C       -1.9590     5.0940     2.0420 C.3   1 <1>  -0.0970 
 20 C       -3.0570     5.4750    -2.0960 C.ar  1 <1>  -0.1500 
 21 C       -6.0480     4.3730     2.2860 C.3   1 <1>   0.1200 
 22 C       -4.6410    -3.4320     0.3720 C.3   1 <1>   0.3430 
 23 C       -6.1400    -3.6700    -1.5760 C.3   1 <1>   0.3430 
 24 C       -2.6810     6.5850    -1.3630 C.ar  1 <1>  -0.1440 
 25 C       -6.1310     5.6150     1.4010 C.3   1 <1>  -0.2400 
 26 N       -4.8070    -4.0380    -0.9920 N.4   1 <1>  -0.9590 
 27 C       -2.6420     7.9580    -2.0090 C.3   1 <1>  -0.0960 
 28 C       -4.5270    -5.5030    -1.0250 C.3   1 <1>   0.2630 
 29 H       -3.0710    -0.4760    -1.7310 H     1 <1>   0.3700 
 30 H       -0.7940     2.3940    -0.1020 H     1 <1>   0.3700 
 31 H       -2.7110     2.7120     1.5140 H     1 <1>   0.0800 
 32 H       -5.7650     0.3800    -1.9860 H     1 <1>   0.0800 
 33 H       -6.2810     0.2690    -0.3290 H     1 <1>   0.0800 
 34 H       -3.3800     3.3790    -2.0940 H     1 <1>   0.1500 
 35 H       -5.7520    -1.6950     1.0040 H     1 <1>   0.0800 
 36 H       -4.0600    -1.4030     0.7660 H     1 <1>   0.0800 
 37 H       -6.4680    -1.8220    -2.6300 H     1 <1>   0.0800 
 38 H       -7.2490    -1.8900    -1.0820 H     1 <1>   0.0800 
 39 H       -2.0350     7.2960     0.5310 H     1 <1>   0.1500 
 40 H       -2.8030     4.8060     2.6430 H     1 <1>   0.0800 
 41 H       -1.6020     6.0420     2.4020 H     1 <1>   0.0800 
 42 H       -1.1700     4.3750     2.1690 H     1 <1>   0.0800 
 43 H       -3.3230     5.5750    -3.1340 H     1 <1>   0.1500 
 44 H       -5.7470     4.6450     3.2820 H     1 <1>   0.0800 
 45 H       -6.9910     3.8540     2.3340 H     1 <1>   0.0800 
 46 H       -5.3120    -3.9040     1.0710 H     1 <1>   0.0800 
 47 H       -3.6350    -3.5970     0.7230 H     1 <1>   0.0800 
 48 H       -6.2190    -4.0520    -2.5810 H     1 <1>   0.0800 
 49 H       -6.9300    -4.1160    -0.9950 H     1 <1>   0.0800 
 50 H       -5.1740     6.1040     1.3500 H     1 <1>   0.0800 
 51 H       -6.8470     6.3040     1.8090 H     1 <1>   0.0800 
 52 H       -6.4470     5.3470     0.4080 H     1 <1>   0.0800 
 53 H       -4.1260    -3.5250    -1.5760 H     1 <1>   0.4500 
 54 H       -1.6430     8.1740    -2.3430 H     1 <1>   0.0800 
 55 H       -2.9450     8.7110    -1.3040 H     1 <1>   0.0800 
 56 H       -3.3070     7.9980    -2.8540 H     1 <1>   0.0800 
 57 H       -5.2380    -6.0340    -0.4140 H     1 <1>   0.0800 
 58 H       -3.5350    -5.7020    -0.6530 H     1 <1>   0.0800 
 59 H       -4.5940    -5.8720    -2.0350 H     1 <1>   0.0800 
@<TRIPOS>BOND
  1   1   2  2   
  2   2   3  am  
  3   2   4  am  
  4   3   5  1   
  5   3  29  1   
  6   4   6  1   
  7   4  30  1   
  8   5   7  2   
  9   5   8  1   
 10   6   7  1   
 11   6   9  1   
 12   6  31  1   
 13   7  10  1   
 14   8  11  1   
 15   8  32  1   
 16   8  33  1   
 17   9  12  ar  
 18   9  13  ar  
 19  10  14  2   
 20  10  15  1   
 21  11  16  1   
 22  11  17  1   
 23  12  18  ar  
 24  12  19  1   
 25  13  20  ar  
 26  13  34  1   
 27  15  21  1   
 28  16  22  1   
 29  16  35  1   
 30  16  36  1   
 31  17  23  1   
 32  17  37  1   
 33  17  38  1   
 34  18  24  ar  
 35  18  39  1   
 36  19  40  1   
 37  19  41  1   
 38  19  42  1   
 39  20  24  ar  
 40  20  43  1   
 41  21  25  1   
 42  21  44  1   
 43  21  45  1   
 44  22  26  1   
 45  22  46  1   
 46  22  47  1   
 47  23  26  1   
 48  23  48  1   
 49  23  49  1   
 50  24  27  1   
 51  25  50  1   
 52  25  51  1   
 53  25  52  1   
 54  26  28  1   
 55  26  53  1   
 56  27  54  1   
 57  27  55  1   
 58  27  56  1   
 59  28  57  1   
 60  28  58  1   
 61  28  59  1   
@<TRIPOS>SUBSTRUCTURE
  1 ****   7 GROUP 4 **** **** 0

# MOE 2024.06 (io_trps.svl 2023.06)
