@<TRIPOS>MOLECULE
1-(4-Fluoro-benzenesulfonyl)-piperidine-4-carboxylic acid (2-methoxy-1-methyl-et
47 48 1 0 0 
SMALL
USER_CHARGES


@<TRIPOS>ATOM
  1 S       -0.3220    -0.1430    -1.5270 S.o2  1 <1>   1.4470 
  2 O       -0.1230    -1.3740    -2.2600 O.2   1 <1>  -0.6500 
  3 O       -0.8740     1.0070    -2.2120 O.2   1 <1>  -0.6500 
  4 N        1.1870     0.3360    -0.9180 N.am  1 <1>  -0.8490 
  5 C       -1.2820    -0.4980    -0.0260 C.ar  1 <1>  -0.0090 
  6 C        1.1330     1.6650    -0.3000 C.3   1 <1>   0.1960 
  7 C        2.2280     0.2620    -1.9470 C.3   1 <1>   0.1960 
  8 C       -0.7510    -1.2980     0.9840 C.ar  1 <1>  -0.1500 
  9 C       -2.5670     0.0150     0.1430 C.ar  1 <1>  -0.1500 
 10 C        2.4680     1.9920     0.3730 C.3   1 <1>  -0.1600 
 11 C        3.6030     0.5550    -1.3380 C.3   1 <1>  -0.1600 
 12 C       -1.4700    -1.5780     2.1340 C.ar  1 <1>  -0.1500 
 13 C       -3.3030    -0.2540     1.2860 C.ar  1 <1>  -0.1500 
 14 C        3.6290     1.9210    -0.6330 C.3   1 <1>  -0.0190 
 15 C       -2.7380    -1.0480     2.2640 C.ar  1 <1>   0.1900 
 16 C        4.9740     2.1860     0.0410 C.2   1 <1>   0.5690 
 17 F       -3.4240    -1.3040     3.3440 F     1 <1>  -0.1900 
 18 O        5.3430     1.4540     0.9270 O.2   1 <1>  -0.5700 
 19 N        5.7070     3.2520    -0.3820 N.am  1 <1>  -0.7300 
 20 C        6.9930     3.7490     0.1700 C.3   1 <1>   0.2200 
 21 C        8.0130     2.6200     0.4070 C.3   1 <1>   0.1200 
 22 C        6.6950     4.5410     1.4430 C.3   1 <1>  -0.2400 
 23 O        9.2740     3.1790     0.6340 O.3   1 <1>  -0.5600 
 24 C       10.2530     2.2390     0.9340 C.3   1 <1>   0.0400 
 25 H        0.3540     1.6890     0.4440 H     1 <1>   0.0800 
 26 H        0.9080     2.4100    -1.0460 H     1 <1>   0.0800 
 27 H        2.0110     0.9630    -2.7370 H     1 <1>   0.0800 
 28 H        2.2490    -0.7270    -2.3740 H     1 <1>   0.0800 
 29 H        0.2410    -1.7050     0.8640 H     1 <1>   0.1500 
 30 H       -2.9960     0.6320    -0.6300 H     1 <1>   0.1500 
 31 H        2.6340     1.2910     1.1740 H     1 <1>   0.0800 
 32 H        2.4210     2.9760     0.8040 H     1 <1>   0.0800 
 33 H        4.3480     0.5310    -2.1120 H     1 <1>   0.0800 
 34 H        3.8400    -0.2240    -0.6330 H     1 <1>   0.0800 
 35 H       -1.0600    -2.1950     2.9140 H     1 <1>   0.1500 
 36 H       -4.2950     0.1420     1.4190 H     1 <1>   0.1500 
 37 H        3.4690     2.6800    -1.3770 H     1 <1>   0.0800 
 38 H        5.3180     3.8530    -1.1080 H     1 <1>   0.3700 
 39 H        7.4230     4.4140    -0.5600 H     1 <1>   0.0800 
 40 H        8.0740     1.9890    -0.4610 H     1 <1>   0.0800 
 41 H        7.7360     2.0390     1.2700 H     1 <1>   0.0800 
 42 H        6.2720     3.8970     2.1930 H     1 <1>   0.0800 
 43 H        6.0160     5.3470     1.2350 H     1 <1>   0.0800 
 44 H        7.6080     4.9570     1.8310 H     1 <1>   0.0800 
 45 H       11.1820     2.7600     1.0850 H     1 <1>   0.0800 
 46 H       10.3510     1.5520     0.1110 H     1 <1>   0.0800 
 47 H        9.9790     1.7160     1.8340 H     1 <1>   0.0800 
@<TRIPOS>BOND
  1   1   2  2   
  2   1   3  2   
  3   1   4  am  
  4   1   5  1   
  5   4   6  1   
  6   4   7  1   
  7   5   8  ar  
  8   5   9  ar  
  9   6  10  1   
 10   6  25  1   
 11   6  26  1   
 12   7  11  1   
 13   7  27  1   
 14   7  28  1   
 15   8  12  ar  
 16   8  29  1   
 17   9  13  ar  
 18   9  30  1   
 19  10  14  1   
 20  10  31  1   
 21  10  32  1   
 22  11  14  1   
 23  11  33  1   
 24  11  34  1   
 25  12  15  ar  
 26  12  35  1   
 27  13  15  ar  
 28  13  36  1   
 29  14  16  1   
 30  14  37  1   
 31  15  17  1   
 32  16  18  2   
 33  16  19  am  
 34  19  20  1   
 35  19  38  1   
 36  20  21  1   
 37  20  22  1   
 38  20  39  1   
 39  21  23  1   
 40  21  40  1   
 41  21  41  1   
 42  22  42  1   
 43  22  43  1   
 44  22  44  1   
 45  23  24  1   
 46  24  45  1   
 47  24  46  1   
 48  24  47  1   
@<TRIPOS>SUBSTRUCTURE
  1 ****  10 GROUP 4 **** **** 0

# MOE 2024.06 (io_trps.svl 2023.06)
