@<TRIPOS>MOLECULE
NONAME
44 47 1 0 0 
SMALL
USER_CHARGES


@<TRIPOS>ATOM
  1 O       -2.7600    -0.4690     2.6480 O.2   1 <1>  -0.5700 
  2 C       -3.1750     0.3140     1.8320 C.2   1 <1>   0.4950 
  3 C       -3.8160    -0.0450     0.6230 C.2   1 <1>  -0.1240 
  4 C       -3.0220     1.8070     2.0940 C.3   1 <1>  -0.0990 
  5 C       -4.2250     0.8140    -0.3310 C.2   1 <1>  -0.0290 
  6 C       -4.1440    -1.4760     0.2080 C.3   1 <1>   0.4810 
  7 C       -2.9100     2.6310     0.7900 C.3   1 <1>  -0.1600 
  8 N       -4.8100     0.1700    -1.3940 N.am  1 <1>  -0.4690 
  9 C       -4.0270     2.3160    -0.2280 C.3   1 <1>  -0.0220 
 10 C       -2.9160    -2.3960     0.1360 C.2   1 <1>  -0.1240 
 11 C       -5.2490    -2.0010     1.1310 C.ar  1 <1>  -0.1440 
 12 C       -4.7450    -1.1910    -1.1850 C.2   1 <1>   0.5690 
 13 C       -5.2620     0.7950    -2.6580 C.3   1 <1>   0.0600 
 14 C       -2.9190    -3.5530     0.8680 C.2   1 <1>   0.1770 
 15 C       -1.8580    -1.9550    -0.7130 C.2   1 <1>   0.7060 
 16 C       -5.0660    -3.1990     1.8040 C.ar  1 <1>   0.0820 
 17 C       -6.4400    -1.3070     1.3170 C.ar  1 <1>  -0.1500 
 18 O       -5.1040    -2.0340    -1.9760 O.2   1 <1>  -0.5700 
 19 O       -3.9360    -3.9200     1.6540 O.3   1 <1>  -0.1590 
 20 N       -1.9150    -4.4730     0.9020 N.pl3 1 <1>  -0.9000 
 21 O       -1.8420    -0.8750    -1.2830 O.2   1 <1>  -0.5700 
 22 O       -0.7930    -2.7520    -0.9200 O.3   1 <1>  -0.4300 
 23 C       -6.0450    -3.6950     2.6500 C.ar  1 <1>  -0.1500 
 24 C       -7.4200    -1.8000     2.1620 C.ar  1 <1>  -0.1500 
 25 C        0.2770    -2.3670    -1.7630 C.3   1 <1>   0.0400 
 26 C       -7.2240    -2.9950     2.8310 C.ar  1 <1>  -0.1500 
 27 H       -2.1450     1.9650     2.6960 H     1 <1>   0.0800 
 28 H       -3.8750     2.1340     2.6600 H     1 <1>   0.0800 
 29 H       -1.9640     2.3980     0.3290 H     1 <1>   0.0800 
 30 H       -2.9100     3.6820     1.0180 H     1 <1>   0.0800 
 31 H       -4.9510     2.7720     0.0800 H     1 <1>   0.0800 
 32 H       -3.7500     2.7190    -1.1860 H     1 <1>   0.0800 
 33 H       -4.4060     1.1000    -3.2320 H     1 <1>   0.0800 
 34 H       -5.8760     1.6510    -2.4430 H     1 <1>   0.0800 
 35 H       -5.8350     0.0880    -3.2320 H     1 <1>   0.0800 
 36 H       -6.6200    -0.3760     0.8080 H     1 <1>   0.1500 
 37 H       -1.0520    -4.3490     0.3580 H     1 <1>   0.4000 
 38 H       -1.9570    -5.3040     1.4970 H     1 <1>   0.4000 
 39 H       -5.8790    -4.6250     3.1630 H     1 <1>   0.1500 
 40 H       -8.3380    -1.2540     2.2980 H     1 <1>   0.1500 
 41 H        1.0020    -3.1600    -1.7780 H     1 <1>   0.0800 
 42 H        0.7200    -1.4660    -1.3740 H     1 <1>   0.0800 
 43 H       -0.1060    -2.1960    -2.7550 H     1 <1>   0.0800 
 44 H       -7.9840    -3.3790     3.4880 H     1 <1>   0.1500 
@<TRIPOS>BOND
  1   1   2  2   
  2   2   3  1   
  3   2   4  1   
  4   3   5  2   
  5   3   6  1   
  6   4   7  1   
  7   4  27  1   
  8   4  28  1   
  9   5   8  1   
 10   5   9  1   
 11   6  10  1   
 12   6  11  1   
 13   6  12  1   
 14   7   9  1   
 15   7  29  1   
 16   7  30  1   
 17   8  12  am  
 18   8  13  1   
 19   9  31  1   
 20   9  32  1   
 21  10  14  2   
 22  10  15  1   
 23  11  16  ar  
 24  11  17  ar  
 25  12  18  2   
 26  13  33  1   
 27  13  34  1   
 28  13  35  1   
 29  14  19  1   
 30  14  20  1   
 31  15  21  2   
 32  15  22  1   
 33  16  19  1   
 34  16  23  ar  
 35  17  24  ar  
 36  17  36  1   
 37  20  37  1   
 38  20  38  1   
 39  22  25  1   
 40  23  26  ar  
 41  23  39  1   
 42  24  26  ar  
 43  24  40  1   
 44  25  41  1   
 45  25  42  1   
 46  25  43  1   
 47  26  44  1   
@<TRIPOS>SUBSTRUCTURE
  1 ****   6 GROUP 4 **** **** 0

# MOE 2024.06 (io_trps.svl 2023.06)
