@<TRIPOS>MOLECULE
7-(2-Hydroxy-ethyl)-8-(3-methoxy-propylamino)-3-methyl-3,7-dihydro-purine-2,6-di
41 42 1 0 0 
SMALL
USER_CHARGES


@<TRIPOS>ATOM
  1 O        1.1000    -0.0070    -1.5490 O.2   1 <1>  -0.5760 
  2 C        1.9810     0.6910    -1.1060 C.2   1 <1>   0.6850 
  3 N        3.1960     0.1730    -0.6800 N.am  1 <1>  -0.4430 
  4 N        1.7650     2.0370    -1.0240 N.am  1 <1>  -0.4970 
  5 C        4.1370     1.0630    -0.1860 C.2   1 <1>   0.4190 
  6 C        3.4880    -1.2880    -0.7650 C.3   1 <1>   0.0500 
  7 C        2.6840     2.9270    -0.5480 C.2   1 <1>   0.6980 
  8 N        5.3840     0.7820     0.2750 N.pl3 1 <1>  -0.7050 
  9 C        3.9390     2.4000    -0.0990 C.2   1 <1>   0.2690 
 10 O        2.4050     4.1100    -0.5310 O.2   1 <1>  -0.5760 
 11 C        5.9630     1.9260     0.6240 C.cat 1 <1>   1.0680 
 12 N        5.1210     2.9430     0.4410 N.pl3 1 <1>  -0.7680 
 13 N        7.2080     2.0340     1.0650 N.pl3 1 <1>  -0.7190 
 14 C        5.3010     4.3800     0.8170 C.3   1 <1>   0.3460 
 15 C        8.2020     0.9650     1.2860 C.3   1 <1>   0.1580 
 16 C        6.2820     5.1210    -0.1100 C.3   1 <1>   0.1100 
 17 C        8.7490     0.5040    -0.0620 C.3   1 <1>  -0.1690 
 18 O        7.5600     4.5660    -0.0290 O.3   1 <1>  -0.6850 
 19 C        9.7420    -0.6420     0.1050 C.3   1 <1>   0.1100 
 20 O        9.9540    -1.1690    -1.1560 O.3   1 <1>  -0.5660 
 21 C       10.9010    -2.1870    -1.1920 C.3   1 <1>   0.0300 
 22 H        0.8650     2.3860    -1.3490 H     1 <1>   0.3620 
 23 H        2.6420    -1.8270    -1.1550 H     1 <1>   0.0700 
 24 H        3.7120    -1.6730     0.2140 H     1 <1>   0.0700 
 25 H        4.3270    -1.4550    -1.4180 H     1 <1>   0.0700 
 26 H        5.8510    -0.1200     0.2920 H     1 <1>   0.4430 
 27 H        7.5990     2.9860     0.9690 H     1 <1>   0.4430 
 28 H        5.6590     4.4450     1.8310 H     1 <1>   0.0700 
 29 H        4.3510     4.8850     0.7860 H     1 <1>   0.0700 
 30 H        7.7420     0.1400     1.8030 H     1 <1>   0.0700 
 31 H        9.0030     1.3440     1.9000 H     1 <1>   0.0700 
 32 H        6.3510     6.1550     0.1850 H     1 <1>   0.0700 
 33 H        5.9470     5.0710    -1.1320 H     1 <1>   0.0700 
 34 H        9.2490     1.3210    -0.5530 H     1 <1>   0.0700 
 35 H        7.9450     0.1600    -0.6870 H     1 <1>   0.0700 
 36 H        8.1840     5.0790    -0.5920 H     1 <1>   0.3930 
 37 H        9.3410    -1.4210     0.7320 H     1 <1>   0.0700 
 38 H       10.6790    -0.2890     0.5040 H     1 <1>   0.0700 
 39 H       10.9850    -2.5300    -2.2080 H     1 <1>   0.0700 
 40 H       10.5790    -2.9970    -0.5610 H     1 <1>   0.0700 
 41 H       11.8500    -1.8010    -0.8610 H     1 <1>   0.0700 
@<TRIPOS>BOND
  1   1   2  2   
  2   2   3  am  
  3   2   4  am  
  4   3   5  1   
  5   3   6  1   
  6   4   7  am  
  7   4  22  1   
  8   5   8  1   
  9   5   9  2   
 10   6  23  1   
 11   6  24  1   
 12   6  25  1   
 13   7   9  1   
 14   7  10  2   
 15   8  11  ar  
 16   8  26  1   
 17   9  12  1   
 18  11  12  ar  
 19  11  13  ar  
 20  12  14  1   
 21  13  15  1   
 22  13  27  1   
 23  14  16  1   
 24  14  28  1   
 25  14  29  1   
 26  15  17  1   
 27  15  30  1   
 28  15  31  1   
 29  16  18  1   
 30  16  32  1   
 31  16  33  1   
 32  17  19  1   
 33  17  34  1   
 34  17  35  1   
 35  18  36  1   
 36  19  20  1   
 37  19  37  1   
 38  19  38  1   
 39  20  21  1   
 40  21  39  1   
 41  21  40  1   
 42  21  41  1   
@<TRIPOS>SUBSTRUCTURE
  1 ****   8 GROUP 4 **** **** 0

# MOE 2024.06 (io_trps.svl 2023.06)
