@<TRIPOS>MOLECULE
8-(3-Dimethylamino-propyl)-1,3,7-trimethyl-1H,8H-imidazo[2,1-f]purine-2,4-dione
47 49 1 0 0 
SMALL
USER_CHARGES


@<TRIPOS>ATOM
  1 O        0.7080     0.1210    -1.0220 O.2   1 <1>  -0.5750 
  2 C        1.7150     0.7590    -0.7940 C.2   1 <1>   0.6860 
  3 N        1.7000     2.1470    -0.9030 N.am  1 <1>  -0.4260 
  4 N        2.8830     0.0980    -0.4240 N.am  1 <1>  -0.4420 
  5 C        2.8340     2.9020    -0.6340 C.2   1 <1>   0.6990 
  6 C        0.4250     2.8280    -1.2910 C.3   1 <1>   0.0520 
  7 C        4.0160     0.8540    -0.1910 C.2   1 <1>   0.4200 
  8 C        2.9050    -1.3910    -0.3040 C.3   1 <1>   0.0520 
  9 O        2.8130     4.1200    -0.6940 O.2   1 <1>  -0.5750 
 10 C        4.0270     2.2060    -0.2810 C.2   1 <1>   0.2700 
 11 N        5.2640     0.4130     0.1610 N.pl3 1 <1>  -0.7040 
 12 N        5.3340     2.6060     0.0320 N.pl3 1 <1>  -0.6340 
 13 C        6.0280     1.5080     0.2900 C.cat 1 <1>   1.0690 
 14 C        6.1740     3.6800     0.2320 C.2   1 <1>   0.2220 
 15 N        7.2990     1.7950     0.6280 N.pl3 1 <1>  -0.5720 
 16 C        7.3770     3.1860     0.6030 C.2   1 <1>   0.1570 
 17 C        8.3700     0.8550     1.0590 C.3   1 <1>   0.1600 
 18 C        8.6340     3.9580     0.9610 C.3   1 <1>  -0.1100 
 19 C        9.3470     0.5730    -0.0930 C.3   1 <1>  -0.1680 
 20 C       10.5440    -0.2550     0.3950 C.3   1 <1>   0.3360 
 21 N       11.4660    -0.5840    -0.7290 N.4   1 <1>  -0.9610 
 22 C       12.4270    -1.6510    -0.3120 C.3   1 <1>   0.2560 
 23 C       12.2320     0.6040    -1.2210 C.3   1 <1>   0.2560 
 24 H       -0.0860     2.2570    -2.0470 H     1 <1>   0.0720 
 25 H        0.6150     3.8120    -1.6860 H     1 <1>   0.0720 
 26 H       -0.2140     2.9140    -0.4300 H     1 <1>   0.0720 
 27 H        3.2640    -1.8230    -1.2230 H     1 <1>   0.0720 
 28 H        1.9150    -1.7700    -0.1120 H     1 <1>   0.0720 
 29 H        3.5390    -1.6950     0.5090 H     1 <1>   0.0720 
 30 H        5.5480    -0.5490     0.3220 H     1 <1>   0.4440 
 31 H        5.8490     4.7030     0.1030 H     1 <1>   0.1420 
 32 H        7.9280    -0.0660     1.3990 H     1 <1>   0.0720 
 33 H        8.8990     1.2900     1.8910 H     1 <1>   0.0720 
 34 H        9.4310     3.7250     0.2790 H     1 <1>   0.0720 
 35 H        8.9460     3.7230     1.9630 H     1 <1>   0.0720 
 36 H        8.4470     5.0160     0.9080 H     1 <1>   0.0720 
 37 H        9.7010     1.5060    -0.4890 H     1 <1>   0.0720 
 38 H        8.8320     0.0320    -0.8680 H     1 <1>   0.0720 
 39 H       10.1820    -1.1710     0.8330 H     1 <1>   0.0720 
 40 H       11.0820     0.2880     1.1560 H     1 <1>   0.0720 
 41 H       10.9140    -0.9590    -1.5160 H     1 <1>   0.4440 
 42 H       13.0380    -1.3050     0.5070 H     1 <1>   0.0720 
 43 H       13.0720    -1.9140    -1.1350 H     1 <1>   0.0720 
 44 H       11.8950    -2.5340     0.0020 H     1 <1>   0.0720 
 45 H       12.8200     1.0270    -0.4230 H     1 <1>   0.0720 
 46 H       11.5600     1.3580    -1.5950 H     1 <1>   0.0720 
 47 H       12.8950     0.3140    -2.0200 H     1 <1>   0.0720 
@<TRIPOS>BOND
  1   1   2  2   
  2   2   3  am  
  3   2   4  am  
  4   3   5  am  
  5   3   6  1   
  6   4   7  1   
  7   4   8  1   
  8   5   9  2   
  9   5  10  1   
 10   6  24  1   
 11   6  25  1   
 12   6  26  1   
 13   7  10  2   
 14   7  11  1   
 15   8  27  1   
 16   8  28  1   
 17   8  29  1   
 18  10  12  1   
 19  11  13  ar  
 20  11  30  1   
 21  12  13  ar  
 22  12  14  1   
 23  13  15  ar  
 24  14  16  2   
 25  14  31  1   
 26  15  16  1   
 27  15  17  1   
 28  16  18  1   
 29  17  19  1   
 30  17  32  1   
 31  17  33  1   
 32  18  34  1   
 33  18  35  1   
 34  18  36  1   
 35  19  20  1   
 36  19  37  1   
 37  19  38  1   
 38  20  21  1   
 39  20  39  1   
 40  20  40  1   
 41  21  22  1   
 42  21  23  1   
 43  21  41  1   
 44  22  42  1   
 45  22  43  1   
 46  22  44  1   
 47  23  45  1   
 48  23  46  1   
 49  23  47  1   
@<TRIPOS>SUBSTRUCTURE
  1 ****  13 GROUP 4 **** **** 0

# MOE 2024.06 (io_trps.svl 2023.06)
