@<TRIPOS>MOLECULE
1-Benzyl-8-(4-ethyl-piperazin-1-yl)-3,7-dimethyl-3,7-dihydro-purine-2,6-dione
56 59 1 0 0 
SMALL
USER_CHARGES


@<TRIPOS>ATOM
  1 O        0.5900     0.8220     2.9340 O.2   1 <1>  -0.5740 
  2 C        1.4320     1.2610     2.1790 C.2   1 <1>   0.6870 
  3 N        1.1920     2.4240     1.4620 N.am  1 <1>  -0.4250 
  4 N        2.6490     0.6040     2.0470 N.am  1 <1>  -0.4410 
  5 C        2.1790     3.0160     0.6950 C.2   1 <1>   0.7000 
  6 C       -0.2040     2.9190     1.3400 C.3   1 <1>   0.2780 
  7 C        3.6120     1.1800     1.2420 C.2   1 <1>   0.4210 
  8 C        2.8880    -0.6830     2.7660 C.3   1 <1>   0.0530 
  9 O        1.9930     4.0950     0.1560 O.2   1 <1>  -0.5740 
 10 C        3.4350     2.3360     0.5710 C.2   1 <1>   0.2710 
 11 C       -0.8330     2.2790     0.1130 C.ar  1 <1>  -0.1500 
 12 N        4.8710     0.7250     0.9960 N.pl3 1 <1>  -0.7030 
 13 N        4.6400     2.5850    -0.1240 N.pl3 1 <1>  -0.7670 
 14 C       -1.4180     1.0250     0.2040 C.ar  1 <1>  -0.1570 
 15 C       -0.8190     2.9370    -1.1080 C.ar  1 <1>  -0.1570 
 16 C        5.4890     1.5910     0.1880 C.cat 1 <1>   1.0690 
 17 C        4.6970     3.6770    -1.1450 C.3   1 <1>   0.2680 
 18 C       -1.9810     0.4340    -0.9140 C.ar  1 <1>  -0.1570 
 19 C       -1.3810     2.3460    -2.2260 C.ar  1 <1>  -0.1570 
 20 N        6.7850     1.4440    -0.2050 N.pl3 1 <1>  -0.5960 
 21 C       -1.9610     1.0930    -2.1300 C.ar  1 <1>  -0.1570 
 22 C        7.6520     2.5890    -0.6560 C.3   1 <1>   0.1610 
 23 C        7.4730     0.1050    -0.2770 C.3   1 <1>   0.1610 
 24 C        9.0660     2.5610    -0.0290 C.3   1 <1>   0.3380 
 25 C        8.8850     0.1150     0.3540 C.3   1 <1>   0.3380 
 26 N        9.7370     1.2250    -0.1820 N.4   1 <1>  -0.9610 
 27 C       11.0770     1.2050     0.4700 C.3   1 <1>   0.3380 
 28 C       12.0520     2.0470    -0.3420 C.3   1 <1>  -0.2460 
 29 H       -0.2130     3.9920     1.2450 H     1 <1>   0.0730 
 30 H       -0.7760     2.6700     2.2180 H     1 <1>   0.0730 
 31 H        1.9570    -1.2000     2.9290 H     1 <1>   0.0730 
 32 H        3.3400    -0.4860     3.7230 H     1 <1>   0.0730 
 33 H        3.5260    -1.3290     2.1900 H     1 <1>   0.0730 
 34 H        5.2640    -0.1120     1.4100 H     1 <1>   0.4450 
 35 H       -1.4410     0.5020     1.1450 H     1 <1>   0.1430 
 36 H       -0.3730     3.9130    -1.1970 H     1 <1>   0.1430 
 37 H        3.7560     3.7470    -1.6650 H     1 <1>   0.0730 
 38 H        5.4580     3.4840    -1.8790 H     1 <1>   0.0730 
 39 H        4.8890     4.6220    -0.6640 H     1 <1>   0.0730 
 40 H       -2.4350    -0.5390    -0.8370 H     1 <1>   0.1430 
 41 H       -1.3700     2.8610    -3.1710 H     1 <1>   0.1430 
 42 H       -2.4010     0.6340    -2.9980 H     1 <1>   0.1430 
 43 H        7.2020     3.5270    -0.3830 H     1 <1>   0.0730 
 44 H        7.7440     2.5650    -1.7290 H     1 <1>   0.0730 
 45 H        7.5650    -0.1800    -1.3130 H     1 <1>   0.0730 
 46 H        6.8860    -0.6570     0.2050 H     1 <1>   0.0730 
 47 H        8.9860     2.8020     1.0190 H     1 <1>   0.0730 
 48 H        9.6670     3.3260    -0.4920 H     1 <1>   0.0730 
 49 H        9.3640    -0.8320     0.1620 H     1 <1>   0.0730 
 50 H        8.7900     0.2200     1.4230 H     1 <1>   0.0730 
 51 H        9.9100     1.0560    -1.1850 H     1 <1>   0.4450 
 52 H       11.4470     0.1920     0.5100 H     1 <1>   0.0730 
 53 H       11.0120     1.5800     1.4800 H     1 <1>   0.0730 
 54 H       12.1130     1.6970    -1.3570 H     1 <1>   0.0730 
 55 H       13.0330     1.9600     0.0940 H     1 <1>   0.0730 
 56 H       11.7870     3.0880    -0.3290 H     1 <1>   0.0730 
@<TRIPOS>BOND
  1   1   2  2   
  2   2   3  am  
  3   2   4  am  
  4   3   5  am  
  5   3   6  1   
  6   4   7  1   
  7   4   8  1   
  8   5   9  2   
  9   5  10  1   
 10   6  11  1   
 11   6  29  1   
 12   6  30  1   
 13   7  10  2   
 14   7  12  1   
 15   8  31  1   
 16   8  32  1   
 17   8  33  1   
 18  10  13  1   
 19  11  14  ar  
 20  11  15  ar  
 21  12  16  ar  
 22  12  34  1   
 23  13  16  ar  
 24  13  17  1   
 25  14  18  ar  
 26  14  35  1   
 27  15  19  ar  
 28  15  36  1   
 29  16  20  ar  
 30  17  37  1   
 31  17  38  1   
 32  17  39  1   
 33  18  21  ar  
 34  18  40  1   
 35  19  21  ar  
 36  19  41  1   
 37  20  22  1   
 38  20  23  1   
 39  21  42  1   
 40  22  24  1   
 41  22  43  1   
 42  22  44  1   
 43  23  25  1   
 44  23  45  1   
 45  23  46  1   
 46  24  26  1   
 47  24  47  1   
 48  24  48  1   
 49  25  26  1   
 50  25  49  1   
 51  25  50  1   
 52  26  27  1   
 53  26  51  1   
 54  27  28  1   
 55  27  52  1   
 56  27  53  1   
 57  28  54  1   
 58  28  55  1   
 59  28  56  1   
@<TRIPOS>SUBSTRUCTURE
  1 ****  10 GROUP 4 **** **** 0

# MOE 2024.06 (io_trps.svl 2023.06)
