@<TRIPOS>MOLECULE
N-(2-Acetylamino-ethyl)-isonicotinamide
28 28 1 0 0 
SMALL
USER_CHARGES


@<TRIPOS>ATOM
  1 O        0.9460     0.0270     0.5630 O.2   1 <1>  -0.5700 
  2 C        1.7060    -0.7370     0.0010 C.2   1 <1>   0.5440 
  3 N        2.6800    -0.2070    -0.7990 N.am  1 <1>  -0.7300 
  4 C        1.5700    -2.1730     0.1720 C.ar  1 <1>   0.0860 
  5 C        2.8100     1.2430    -1.1030 C.3   1 <1>   0.1400 
  6 C        0.3730    -2.7530     0.5690 C.ar  1 <1>  -0.1500 
  7 C        2.6060    -3.0750    -0.0400 C.ar  1 <1>  -0.1500 
  8 C        3.4170     1.9920     0.0880 C.3   1 <1>   0.1400 
  9 C        0.2680    -4.1230     0.7160 C.ar  1 <1>   0.1600 
 10 C        2.4000    -4.4310     0.1340 C.ar  1 <1>   0.1600 
 11 N        3.4770     3.4470    -0.1990 N.am  1 <1>  -0.7300 
 12 N        1.2550    -4.9770     0.5030 N.ar  1 <1>  -0.6200 
 13 C        2.5790     4.3990     0.1380 C.2   1 <1>   0.5690 
 14 O        2.7780     5.5460    -0.1680 O.2   1 <1>  -0.5700 
 15 C        1.3190     4.0450     0.8910 C.3   1 <1>  -0.1790 
 16 H        3.2380    -0.8310    -1.3840 H     1 <1>   0.3700 
 17 H        1.8320     1.6430    -1.3120 H     1 <1>   0.0800 
 18 H        3.4300     1.3720    -1.9730 H     1 <1>   0.0800 
 19 H       -0.4800    -2.1270     0.7650 H     1 <1>   0.1500 
 20 H        3.5780    -2.7270    -0.3320 H     1 <1>   0.1500 
 21 H        4.4120     1.6290     0.2800 H     1 <1>   0.0800 
 22 H        2.8170     1.8200     0.9640 H     1 <1>   0.0800 
 23 H       -0.6760    -4.5390     1.0240 H     1 <1>   0.1500 
 24 H        3.2220    -5.1070    -0.0380 H     1 <1>   0.1500 
 25 H        4.2980     3.7870    -0.7050 H     1 <1>   0.3700 
 26 H        1.5690     3.7320     1.8860 H     1 <1>   0.0800 
 27 H        0.7960     3.2540     0.3870 H     1 <1>   0.0800 
 28 H        0.6770     4.9040     0.9470 H     1 <1>   0.0800 
@<TRIPOS>BOND
  1   1   2  2   
  2   2   3  am  
  3   2   4  1   
  4   3   5  1   
  5   3  16  1   
  6   4   6  ar  
  7   4   7  ar  
  8   5   8  1   
  9   5  17  1   
 10   5  18  1   
 11   6   9  ar  
 12   6  19  1   
 13   7  10  ar  
 14   7  20  1   
 15   8  11  1   
 16   8  21  1   
 17   8  22  1   
 18   9  12  ar  
 19   9  23  1   
 20  10  12  ar  
 21  10  24  1   
 22  11  13  am  
 23  11  25  1   
 24  13  14  2   
 25  13  15  1   
 26  15  26  1   
 27  15  27  1   
 28  15  28  1   
@<TRIPOS>SUBSTRUCTURE
  1 ****   2 GROUP 4 **** **** 0

# MOE 2024.06 (io_trps.svl 2023.06)
