@<TRIPOS>MOLECULE
1-(4-Ethoxy-phenyl)-5-oxo-pyrrolidine-3-carboxylic acid benzylamide
47 49 1 0 0 
SMALL
USER_CHARGES


@<TRIPOS>ATOM
  1 O        1.8760    -1.3480    -1.5590 O.2   1 <1>  -0.5700 
  2 C        2.5850    -1.9080    -0.7600 C.2   1 <1>   0.5690 
  3 N        2.2750    -2.9940     0.0060 N.am  1 <1>  -0.4770 
  4 C        3.9950    -1.4500    -0.5140 C.3   1 <1>  -0.0990 
  5 C        1.0770    -3.7370     0.0340 C.ar  1 <1>   0.1170 
  6 C        3.4280    -3.3740     0.8480 C.3   1 <1>   0.1400 
  7 C        4.6230    -2.6460     0.2150 C.3   1 <1>  -0.0190 
  8 C        0.3350    -3.9510    -1.1230 C.ar  1 <1>  -0.1500 
  9 C        0.6090    -4.2910     1.2240 C.ar  1 <1>  -0.1500 
 10 C        5.7120    -2.2570     1.2070 C.2   1 <1>   0.5690 
 11 C       -0.8280    -4.6980    -1.0960 C.ar  1 <1>  -0.1500 
 12 C       -0.5530    -5.0400     1.2580 C.ar  1 <1>  -0.1500 
 13 O        5.5280    -2.4080     2.3870 O.2   1 <1>  -0.5700 
 14 N        6.8880    -1.7460     0.7820 N.am  1 <1>  -0.7300 
 15 C       -1.2810    -5.2500     0.0900 C.ar  1 <1>   0.0820 
 16 C        7.3790    -1.5280    -0.5890 C.3   1 <1>   0.2840 
 17 O       -2.4300    -5.9730     0.0300 O.3   1 <1>  -0.3630 
 18 C        8.8900    -1.4210    -0.5360 C.ar  1 <1>  -0.1430 
 19 C       -2.9910    -6.5410     1.1900 C.3   1 <1>   0.1200 
 20 C        9.6680    -2.5660    -0.4470 C.ar  1 <1>  -0.1500 
 21 C        9.5080    -0.1800    -0.5710 C.ar  1 <1>  -0.1500 
 22 C       -4.2730    -7.2630     0.7880 C.3   1 <1>  -0.2400 
 23 C       11.0480    -2.4720    -0.3990 C.ar  1 <1>  -0.1500 
 24 C       10.8880    -0.0850    -0.5220 C.ar  1 <1>  -0.1500 
 25 C       11.6590    -1.2310    -0.4370 C.ar  1 <1>  -0.1500 
 26 H        3.9680    -0.5770     0.1140 H     1 <1>   0.0800 
 27 H        4.4910    -1.2280    -1.4400 H     1 <1>   0.0800 
 28 H        3.5720    -4.4410     0.8480 H     1 <1>   0.0800 
 29 H        3.2450    -3.0320     1.8530 H     1 <1>   0.0800 
 30 H        5.0480    -3.3140    -0.5110 H     1 <1>   0.0800 
 31 H        0.6680    -3.5290    -2.0540 H     1 <1>   0.1500 
 32 H        1.1520    -4.1310     2.1360 H     1 <1>   0.1500 
 33 H       -1.3940    -4.8560    -1.9960 H     1 <1>   0.1500 
 34 H       -0.8750    -5.4480     2.1970 H     1 <1>   0.1500 
 35 H        7.5760    -1.5260     1.5080 H     1 <1>   0.3700 
 36 H        6.9570    -0.6200    -0.9830 H     1 <1>   0.0800 
 37 H        7.0940    -2.3490    -1.2240 H     1 <1>   0.0800 
 38 H       -3.2030    -5.7500     1.8880 H     1 <1>   0.0800 
 39 H       -2.2810    -7.2320     1.6090 H     1 <1>   0.0800 
 40 H        9.2030    -3.5360    -0.4120 H     1 <1>   0.1500 
 41 H        8.9220     0.7200    -0.6340 H     1 <1>   0.1500 
 42 H       -4.9680    -6.5660     0.3550 H     1 <1>   0.0800 
 43 H       -4.7280    -7.7080     1.6540 H     1 <1>   0.0800 
 44 H       -4.0520    -8.0390     0.0780 H     1 <1>   0.0800 
 45 H       11.6470    -3.3640    -0.3300 H     1 <1>   0.1500 
 46 H       11.3640     0.8800    -0.5500 H     1 <1>   0.1500 
 47 H       12.7320    -1.1580    -0.3990 H     1 <1>   0.1500 
@<TRIPOS>BOND
  1   1   2  2   
  2   2   3  am  
  3   2   4  1   
  4   3   5  1   
  5   3   6  1   
  6   4   7  1   
  7   4  26  1   
  8   4  27  1   
  9   5   8  ar  
 10   5   9  ar  
 11   6   7  1   
 12   6  28  1   
 13   6  29  1   
 14   7  10  1   
 15   7  30  1   
 16   8  11  ar  
 17   8  31  1   
 18   9  12  ar  
 19   9  32  1   
 20  10  13  2   
 21  10  14  am  
 22  11  15  ar  
 23  11  33  1   
 24  12  15  ar  
 25  12  34  1   
 26  14  16  1   
 27  14  35  1   
 28  15  17  1   
 29  16  18  1   
 30  16  36  1   
 31  16  37  1   
 32  17  19  1   
 33  18  20  ar  
 34  18  21  ar  
 35  19  22  1   
 36  19  38  1   
 37  19  39  1   
 38  20  23  ar  
 39  20  40  1   
 40  21  24  ar  
 41  21  41  1   
 42  22  42  1   
 43  22  43  1   
 44  22  44  1   
 45  23  25  ar  
 46  23  45  1   
 47  24  25  ar  
 48  24  46  1   
 49  25  47  1   
@<TRIPOS>SUBSTRUCTURE
  1 ****   7 GROUP 4 **** **** 0

# MOE 2024.06 (io_trps.svl 2023.06)
