@<TRIPOS>MOLECULE
N-(5-Ethyl-[1,3,4]thiadiazol-2-yl)-3-phenylsulfanyl-propionamide
34 35 1 0 0 
SMALL
USER_CHARGES


@<TRIPOS>ATOM
  1 S        0.0630    -0.2600    -0.0090 S.3   1 <1>  -0.0800 
  2 C       -1.6470     0.0200    -0.0020 C.2   1 <1>   0.4420 
  3 C        0.2750     1.4570    -0.0040 C.2   1 <1>   0.1980 
  4 N       -1.9320     1.2710     0.0040 N.2   1 <1>  -0.3380 
  5 N       -2.4550    -1.0990    -0.0030 N.am  1 <1>  -0.4940 
  6 N       -0.8310     2.0840     0.0020 N.2   1 <1>  -0.3380 
  7 C        1.7010     1.9850    -0.0080 C.3   1 <1>   0.0200 
  8 C       -3.8170    -1.1800     0.0020 C.2   1 <1>   0.5690 
  9 C        1.7730     3.5180    -0.0020 C.3   1 <1>  -0.2400 
 10 O       -4.5440    -0.2210     0.0090 O.2   1 <1>  -0.5700 
 11 C       -4.4200    -2.5710     0.0000 C.3   1 <1>  -0.0990 
 12 C       -5.9510    -2.5460     0.0010 C.3   1 <1>   0.0700 
 13 S       -6.5460    -4.2930    -0.0040 S.3   1 <1>  -0.3310 
 14 C       -8.3460    -4.2180    -0.0020 C.ar  1 <1>   0.1010 
 15 C       -9.0250    -5.4230    -0.0050 C.ar  1 <1>  -0.1500 
 16 C       -9.0350    -3.0140     0.0020 C.ar  1 <1>  -0.1500 
 17 C      -10.4100    -5.4290    -0.0040 C.ar  1 <1>  -0.1500 
 18 C      -10.4200    -3.0260     0.0030 C.ar  1 <1>  -0.1500 
 19 C      -11.1050    -4.2310     0.0000 C.ar  1 <1>  -0.1500 
 20 H       -1.9540    -1.9820    -0.0080 H     1 <1>   0.3700 
 21 H        2.2040     1.6110    -0.8820 H     1 <1>   0.0800 
 22 H        2.2110     1.6050     0.8600 H     1 <1>   0.0800 
 23 H        1.2800     3.9150    -0.8720 H     1 <1>   0.0800 
 24 H        2.7980     3.8440    -0.0050 H     1 <1>   0.0800 
 25 H        1.2870     3.9090     0.8750 H     1 <1>   0.0800 
 26 H       -4.0810    -3.0980     0.8720 H     1 <1>   0.0800 
 27 H       -4.0820    -3.0940    -0.8760 H     1 <1>   0.0800 
 28 H       -6.3380    -2.0660    -0.8810 H     1 <1>   0.0800 
 29 H       -6.3360    -2.0710     0.8870 H     1 <1>   0.0800 
 30 H       -8.4730    -6.3450    -0.0090 H     1 <1>   0.1500 
 31 H       -8.5220    -2.0730     0.0050 H     1 <1>   0.1500 
 32 H      -10.9440    -6.3630    -0.0070 H     1 <1>   0.1500 
 33 H      -10.9650    -2.0980     0.0070 H     1 <1>   0.1500 
 34 H      -12.1820    -4.2360     0.0010 H     1 <1>   0.1500 
@<TRIPOS>BOND
  1   1   2  1   
  2   1   3  1   
  3   2   4  2   
  4   2   5  1   
  5   3   6  2   
  6   3   7  1   
  7   4   6  1   
  8   5   8  am  
  9   5  20  1   
 10   7   9  1   
 11   7  21  1   
 12   7  22  1   
 13   8  10  2   
 14   8  11  1   
 15   9  23  1   
 16   9  24  1   
 17   9  25  1   
 18  11  12  1   
 19  11  26  1   
 20  11  27  1   
 21  12  13  1   
 22  12  28  1   
 23  12  29  1   
 24  13  14  1   
 25  14  15  ar  
 26  14  16  ar  
 27  15  17  ar  
 28  15  30  1   
 29  16  18  ar  
 30  16  31  1   
 31  17  19  ar  
 32  17  32  1   
 33  18  19  ar  
 34  18  33  1   
 35  19  34  1   
@<TRIPOS>SUBSTRUCTURE
  1 ****   8 GROUP 4 **** **** 0

# MOE 2024.06 (io_trps.svl 2023.06)
