@<TRIPOS>MOLECULE
4-(5-tert-Butyl-[1,2,3]triazol-1-yl)-benzenesulfonamide
35 36 1 0 0 
SMALL
USER_CHARGES


@<TRIPOS>ATOM
  1 S       -0.1310    -0.3780     0.3350 S.o2  1 <1>   1.4470 
  2 O        0.6110    -0.1930     1.5570 O.2   1 <1>  -0.6500 
  3 O       -0.0790    -1.6300    -0.3780 O.2   1 <1>  -0.6500 
  4 N        0.6280     0.6590    -0.7060 N.am  1 <1>  -0.9780 
  5 C       -1.8220     0.2660     0.4600 C.ar  1 <1>  -0.0090 
  6 C       -2.8180    -0.1540    -0.4160 C.ar  1 <1>  -0.1500 
  7 C       -2.1630     1.2100     1.4210 C.ar  1 <1>  -0.1500 
  8 C       -4.1030     0.3510    -0.3380 C.ar  1 <1>  -0.1500 
  9 C       -3.4470     1.7200     1.5050 C.ar  1 <1>  -0.1500 
 10 C       -4.4320     1.3060     0.6170 C.ar  1 <1>  -0.0230 
 11 N       -5.7510     1.8280     0.6990 N.pl3 1 <1>   0.5930 
 12 N       -6.6830     1.2360     1.4710 N.2   1 <1>  -0.4180 
 13 C       -6.3160     2.9040     0.1010 C.2   1 <1>  -0.3320 
 14 N       -7.7860     1.8840     1.3820 N.2   1 <1>  -0.2270 
 15 C       -7.5830     2.9070     0.5510 C.2   1 <1>   0.0770 
 16 C       -5.6450     3.8850    -0.8660 C.3   1 <1>   0.1800 
 17 C       -4.4700     4.5980    -0.1870 C.3   1 <1>  -0.2400 
 18 C       -6.6550     4.9560    -1.3020 C.3   1 <1>  -0.2400 
 19 C       -5.1580     3.1590    -2.1250 C.3   1 <1>  -0.2400 
 20 H        0.9880     0.0380    -1.4270 H     1 <1>   0.4200 
 21 H        1.4350     0.9700    -0.1720 H     1 <1>   0.4200 
 22 H       -2.5830    -0.8900    -1.1680 H     1 <1>   0.1500 
 23 H       -1.4120     1.5490     2.1160 H     1 <1>   0.1500 
 24 H       -4.8590     0.0010    -1.0220 H     1 <1>   0.1500 
 25 H       -3.6870     2.4430     2.2670 H     1 <1>   0.1500 
 26 H       -8.3810     3.5930     0.3250 H     1 <1>   0.1500 
 27 H       -4.7860     5.0360     0.7430 H     1 <1>   0.0800 
 28 H       -4.0890     5.3810    -0.8190 H     1 <1>   0.0800 
 29 H       -3.6630     3.9190     0.0080 H     1 <1>   0.0800 
 30 H       -7.4940     4.5030    -1.8000 H     1 <1>   0.0800 
 31 H       -6.2010     5.6540    -1.9820 H     1 <1>   0.0800 
 32 H       -7.0140     5.5060    -0.4500 H     1 <1>   0.0800 
 33 H       -5.9590     2.5850    -2.5570 H     1 <1>   0.0800 
 34 H       -4.3420     2.5000    -1.9040 H     1 <1>   0.0800 
 35 H       -4.8140     3.8670    -2.8580 H     1 <1>   0.0800 
@<TRIPOS>BOND
  1   1   2  2   
  2   1   3  2   
  3   1   4  am  
  4   1   5  1   
  5   4  20  1   
  6   4  21  1   
  7   5   6  ar  
  8   5   7  ar  
  9   6   8  ar  
 10   6  22  1   
 11   7   9  ar  
 12   7  23  1   
 13   8  10  ar  
 14   8  24  1   
 15   9  10  ar  
 16   9  25  1   
 17  10  11  1   
 18  11  12  1   
 19  11  13  1   
 20  12  14  2   
 21  13  15  2   
 22  13  16  1   
 23  14  15  1   
 24  15  26  1   
 25  16  17  1   
 26  16  18  1   
 27  16  19  1   
 28  17  27  1   
 29  17  28  1   
 30  17  29  1   
 31  18  30  1   
 32  18  31  1   
 33  18  32  1   
 34  19  33  1   
 35  19  34  1   
 36  19  35  1   
@<TRIPOS>SUBSTRUCTURE
  1 ****  10 GROUP 4 **** **** 0

# MOE 2024.06 (io_trps.svl 2023.06)
