@<TRIPOS>MOLECULE
2-(3-Acetyl-7-ethyl-indol-1-yl)-N-cyclopentyl-acetamide
47 49 1 0 0 
SMALL
USER_CHARGES


@<TRIPOS>ATOM
  1 O        2.6140     1.8690     1.8190 O.2   1 <1>  -0.5700 
  2 C        1.5100     1.8360     1.3310 C.2   1 <1>   0.5690 
  3 N        1.2520     1.1470     0.1900 N.am  1 <1>  -0.7300 
  4 C        0.3890     2.5740     2.0490 C.3   1 <1>   0.1570 
  5 C        2.1960     0.3510    -0.6030 C.3   1 <1>   0.2200 
  6 N       -0.8560     2.6290     1.2420 N.pl3 1 <1>   0.0480 
  7 C        2.0410     0.7490    -2.0640 C.3   1 <1>  -0.1600 
  8 C        1.7280    -1.0990    -0.5880 C.3   1 <1>  -0.1600 
  9 C       -1.7060     1.6000     0.8610 C.ar  1 <1>  -0.1520 
 10 C       -1.1750     3.7200     0.5100 C.2   1 <1>  -0.3020 
 11 C        0.7890     0.0140    -2.5610 C.3   1 <1>  -0.1600 
 12 C        0.5890    -1.1750    -1.6120 C.3   1 <1>  -0.1600 
 13 C       -1.8350     0.2670     1.3080 C.ar  1 <1>  -0.1440 
 14 C       -2.5170     2.0910    -0.1680 C.ar  1 <1>   0.0000 
 15 C       -2.1990     3.4680    -0.3570 C.2   1 <1>  -0.0860 
 16 C       -2.7320    -0.5500     0.6480 C.ar  1 <1>  -0.1500 
 17 C       -1.0220    -0.2500     2.5000 C.3   1 <1>  -0.0170 
 18 C       -3.4020     1.2250    -0.8190 C.ar  1 <1>  -0.1500 
 19 C       -2.7850     4.4340    -1.2470 C.2   1 <1>   0.5950 
 20 C       -3.5030    -0.0800    -0.4130 C.ar  1 <1>  -0.1500 
 21 C       -1.3750    -1.6570     3.0000 C.3   1 <1>  -0.2400 
 22 O       -2.2480     5.4820    -1.5110 O.2   1 <1>  -0.5700 
 23 C       -4.1370     4.2020    -1.8830 C.3   1 <1>  -0.1790 
 24 H        0.2880     1.1120    -0.1600 H     1 <1>   0.3700 
 25 H        0.7200     3.5770     2.2410 H     1 <1>   0.0800 
 26 H        0.1940     2.1090     2.9920 H     1 <1>   0.0800 
 27 H        3.2040     0.4720    -0.2380 H     1 <1>   0.0800 
 28 H        2.8970     0.3910    -2.6080 H     1 <1>   0.0800 
 29 H        1.9740     1.8160    -2.1910 H     1 <1>   0.0800 
 30 H        1.4280    -1.4210     0.3930 H     1 <1>   0.0800 
 31 H        2.5400    -1.7210    -0.9210 H     1 <1>   0.0800 
 32 H       -0.6560     4.6580     0.6140 H     1 <1>   0.1500 
 33 H        0.9130    -0.3100    -3.5800 H     1 <1>   0.0800 
 34 H       -0.0660     0.6670    -2.5050 H     1 <1>   0.0800 
 35 H       -0.3600    -1.0790    -1.1110 H     1 <1>   0.0800 
 36 H        0.6090    -2.1120    -2.1410 H     1 <1>   0.0800 
 37 H       -2.8720    -1.5770     0.9270 H     1 <1>   0.1500 
 38 H       -1.1690     0.4260     3.3230 H     1 <1>   0.0800 
 39 H        0.0210    -0.2520     2.2440 H     1 <1>   0.0800 
 40 H       -4.0010     1.5660    -1.6390 H     1 <1>   0.1500 
 41 H       -4.1830    -0.7530    -0.9060 H     1 <1>   0.1500 
 42 H       -2.4130    -1.7080     3.2770 H     1 <1>   0.0800 
 43 H       -0.7810    -1.8950     3.8650 H     1 <1>   0.0800 
 44 H       -1.1700    -2.3900     2.2400 H     1 <1>   0.0800 
 45 H       -4.7960     3.7180    -1.1880 H     1 <1>   0.0800 
 46 H       -4.0220     3.6040    -2.7670 H     1 <1>   0.0800 
 47 H       -4.5710     5.1460    -2.1600 H     1 <1>   0.0800 
@<TRIPOS>BOND
  1   1   2  2   
  2   2   3  am  
  3   2   4  1   
  4   3   5  1   
  5   3  24  1   
  6   4   6  1   
  7   4  25  1   
  8   4  26  1   
  9   5   7  1   
 10   5   8  1   
 11   5  27  1   
 12   6   9  1   
 13   6  10  1   
 14   7  11  1   
 15   7  28  1   
 16   7  29  1   
 17   8  12  1   
 18   8  30  1   
 19   8  31  1   
 20   9  13  ar  
 21   9  14  ar  
 22  10  15  2   
 23  10  32  1   
 24  11  12  1   
 25  11  33  1   
 26  11  34  1   
 27  12  35  1   
 28  12  36  1   
 29  13  16  ar  
 30  13  17  1   
 31  14  15  1   
 32  14  18  ar  
 33  15  19  1   
 34  16  20  ar  
 35  16  37  1   
 36  17  21  1   
 37  17  38  1   
 38  17  39  1   
 39  18  20  ar  
 40  18  40  1   
 41  19  22  2   
 42  19  23  1   
 43  20  41  1   
 44  21  42  1   
 45  21  43  1   
 46  21  44  1   
 47  23  45  1   
 48  23  46  1   
 49  23  47  1   
@<TRIPOS>SUBSTRUCTURE
  1 ****   9 GROUP 4 **** **** 0

# MOE 2024.06 (io_trps.svl 2023.06)
