@<TRIPOS>MOLECULE
1-(5-Chloro-2-ethoxy-benzenesulfonyl)-piperidine-4-carboxylic acid (pyridin-2-yl
53 55 1 0 0 
SMALL
USER_CHARGES


@<TRIPOS>ATOM
  1 CL       2.4590     0.3480     1.6530 Cl    1 <1>  -0.1770 
  2 C        1.9720     2.0160     1.4850 C.ar  1 <1>   0.1770 
  3 C        2.3850     2.7340     0.3800 C.ar  1 <1>  -0.1500 
  4 C        1.1840     2.5910     2.4620 C.ar  1 <1>  -0.1500 
  5 C        2.0120     4.0640     0.2140 C.ar  1 <1>  -0.0090 
  6 C        0.8100     3.9140     2.3220 C.ar  1 <1>  -0.1500 
  7 S        2.5750     4.9850    -1.2460 S.o2  1 <1>   1.4470 
  8 C        1.2210     4.6390     1.2100 C.ar  1 <1>   0.0830 
  9 O        2.9010     4.0130    -2.2690 O.2   1 <1>  -0.6500 
 10 O        1.6850     6.0660    -1.6140 O.2   1 <1>  -0.6500 
 11 N        4.0450     5.6900    -0.7720 N.am  1 <1>  -0.8490 
 12 O        0.8620     5.9340     1.1340 O.3   1 <1>  -0.3630 
 13 C        3.8470     6.7960     0.1720 C.3   1 <1>   0.1960 
 14 C        4.8110     6.1280    -1.9440 C.3   1 <1>   0.1960 
 15 C       -0.4680     6.2070     0.7580 C.3   1 <1>   0.1200 
 16 C        5.1960     7.3160     0.6730 C.3   1 <1>  -0.1600 
 17 C        6.1960     6.6230    -1.5230 C.3   1 <1>  -0.1600 
 18 C       -0.6110     7.7170     0.6060 C.3   1 <1>  -0.2400 
 19 C        6.0890     7.7630    -0.4960 C.3   1 <1>  -0.0190 
 20 C        7.4580     8.2420    -0.0240 C.2   1 <1>   0.5690 
 21 O        7.7830     9.3860    -0.2330 O.2   1 <1>  -0.5700 
 22 N        8.2800     7.3790     0.6170 N.am  1 <1>  -0.7300 
 23 C        9.6540     7.6800     1.0730 C.3   1 <1>   0.2840 
 24 C       10.5690     6.5000     0.7650 C.ar  1 <1>   0.1670 
 25 N       10.2360     5.3290     1.2970 N.ar  1 <1>  -0.6200 
 26 C       11.6820     6.6930    -0.0420 C.ar  1 <1>  -0.1500 
 27 C       11.0480     4.3200     1.0190 C.ar  1 <1>   0.1600 
 28 C       12.5160     5.6320    -0.3230 C.ar  1 <1>  -0.1500 
 29 C       12.1810     4.4160     0.2300 C.ar  1 <1>  -0.1500 
 30 H        3.0010     2.2500    -0.3590 H     1 <1>   0.1500 
 31 H        0.8760     2.0110     3.3150 H     1 <1>   0.1500 
 32 H        0.2070     4.3890     3.0760 H     1 <1>   0.1500 
 33 H        3.2850     6.4540     1.0220 H     1 <1>   0.0800 
 34 H        3.2940     7.5930    -0.3000 H     1 <1>   0.0800 
 35 H        4.2760     6.9090    -2.4600 H     1 <1>   0.0800 
 36 H        4.9400     5.3040    -2.6270 H     1 <1>   0.0800 
 37 H       -1.1280     5.8310     1.5210 H     1 <1>   0.0800 
 38 H       -0.6680     5.7120    -0.1770 H     1 <1>   0.0800 
 39 H        5.6770     6.5360     1.2350 H     1 <1>   0.0800 
 40 H        5.0320     8.1470     1.3360 H     1 <1>   0.0800 
 41 H        6.7280     6.9700    -2.3910 H     1 <1>   0.0800 
 42 H        6.7450     5.7950    -1.1100 H     1 <1>   0.0800 
 43 H       -0.3860     8.2090     1.5350 H     1 <1>   0.0800 
 44 H       -1.6190     7.9600     0.3220 H     1 <1>   0.0800 
 45 H        0.0550     8.0710    -0.1610 H     1 <1>   0.0800 
 46 H        5.6090     8.5970    -0.9780 H     1 <1>   0.0800 
 47 H        8.0290     6.3950     0.7420 H     1 <1>   0.3700 
 48 H        9.6420     7.8450     2.1350 H     1 <1>   0.0800 
 49 H       10.0140     8.5740     0.5930 H     1 <1>   0.0800 
 50 H       11.8950     7.6640    -0.4510 H     1 <1>   0.1500 
 51 H       10.7970     3.3630     1.4450 H     1 <1>   0.1500 
 52 H       13.3870     5.7490    -0.9440 H     1 <1>   0.1500 
 53 H       12.7890     3.5480     0.0520 H     1 <1>   0.1500 
@<TRIPOS>BOND
  1   1   2  1   
  2   2   3  ar  
  3   2   4  ar  
  4   3   5  ar  
  5   3  30  1   
  6   4   6  ar  
  7   4  31  1   
  8   5   7  1   
  9   5   8  ar  
 10   6   8  ar  
 11   6  32  1   
 12   7   9  2   
 13   7  10  2   
 14   7  11  am  
 15   8  12  1   
 16  11  13  1   
 17  11  14  1   
 18  12  15  1   
 19  13  16  1   
 20  13  33  1   
 21  13  34  1   
 22  14  17  1   
 23  14  35  1   
 24  14  36  1   
 25  15  18  1   
 26  15  37  1   
 27  15  38  1   
 28  16  19  1   
 29  16  39  1   
 30  16  40  1   
 31  17  19  1   
 32  17  41  1   
 33  17  42  1   
 34  18  43  1   
 35  18  44  1   
 36  18  45  1   
 37  19  20  1   
 38  19  46  1   
 39  20  21  2   
 40  20  22  am  
 41  22  23  1   
 42  22  47  1   
 43  23  24  1   
 44  23  48  1   
 45  23  49  1   
 46  24  25  ar  
 47  24  26  ar  
 48  25  27  ar  
 49  26  28  ar  
 50  26  50  1   
 51  27  29  ar  
 52  27  51  1   
 53  28  29  ar  
 54  28  52  1   
 55  29  53  1   
@<TRIPOS>SUBSTRUCTURE
  1 ****  11 GROUP 4 **** **** 0

# MOE 2024.06 (io_trps.svl 2023.06)
