@<TRIPOS>MOLECULE
2-(4-Chloro-2-methyl-phenoxy)-N-(2-ethyl-2H-tetrazol-5-yl)-acetamide
34 35 1 0 0 
SMALL
USER_CHARGES


@<TRIPOS>ATOM
  1 CL      -0.3140     1.7760     1.1070 Cl    1 <1>  -0.1770 
  2 C       -1.9910     1.7770     0.6220 C.ar  1 <1>   0.1770 
  3 C       -2.9210     2.4400     1.4000 C.ar  1 <1>  -0.1500 
  4 C       -2.3620     1.1150    -0.5320 C.ar  1 <1>  -0.1500 
  5 C       -4.2550     2.4460     1.0220 C.ar  1 <1>  -0.1440 
  6 C       -3.6910     1.1170    -0.9160 C.ar  1 <1>  -0.1500 
  7 C       -4.6430     1.7820    -0.1410 C.ar  1 <1>   0.0830 
  8 C       -5.2760     3.1780     1.8820 C.3   1 <1>  -0.0960 
  9 O       -5.9610     1.8170    -0.4680 O.3   1 <1>  -0.3630 
 10 C       -6.4630     1.1750    -1.6340 C.3   1 <1>   0.1810 
 11 C       -7.9670     1.3720    -1.7620 C.2   1 <1>   0.5690 
 12 O       -8.5210     0.8760    -2.7120 O.2   1 <1>  -0.5700 
 13 N       -8.6020     2.0920    -0.8020 N.am  1 <1>  -0.4930 
 14 C       -9.9330     2.4390    -0.6470 C.2   1 <1>   0.5790 
 15 N      -10.9240     2.1130    -1.4730 N.2   1 <1>  -0.2270 
 16 N      -10.2870     3.1340     0.3650 N.2   1 <1>  -0.7070 
 17 N      -11.9780     2.6260    -0.9690 N.2   1 <1>  -0.4180 
 18 N      -11.5840     3.2390     0.1340 N.pl3 1 <1>   0.5800 
 19 C      -12.5050     3.9690     1.0290 C.3   1 <1>   0.0960 
 20 C      -12.5140     5.4760     0.7280 C.3   1 <1>  -0.2400 
 21 H       -2.5920     2.9430     2.2920 H     1 <1>   0.1500 
 22 H       -1.6150     0.6080    -1.1170 H     1 <1>   0.1500 
 23 H       -3.9590     0.5970    -1.8160 H     1 <1>   0.1500 
 24 H       -4.8090     3.6330     2.7370 H     1 <1>   0.0800 
 25 H       -6.0230     2.4870     2.2300 H     1 <1>   0.0800 
 26 H       -5.7560     3.9480     1.3050 H     1 <1>   0.0800 
 27 H       -6.2470     0.1250    -1.5650 H     1 <1>   0.0800 
 28 H       -5.9760     1.5980    -2.4930 H     1 <1>   0.0800 
 29 H       -8.0170     2.4540    -0.0540 H     1 <1>   0.3700 
 30 H      -12.1920     3.7970     2.0420 H     1 <1>   0.0800 
 31 H      -13.4910     3.5620     0.9010 H     1 <1>   0.0800 
 32 H      -11.5300     5.8890     0.8660 H     1 <1>   0.0800 
 33 H      -13.1920     5.9780     1.3940 H     1 <1>   0.0800 
 34 H      -12.8360     5.6520    -0.2840 H     1 <1>   0.0800 
@<TRIPOS>BOND
  1   1   2  1   
  2   2   3  ar  
  3   2   4  ar  
  4   3   5  ar  
  5   3  21  1   
  6   4   6  ar  
  7   4  22  1   
  8   5   7  ar  
  9   5   8  1   
 10   6   7  ar  
 11   6  23  1   
 12   7   9  1   
 13   8  24  1   
 14   8  25  1   
 15   8  26  1   
 16   9  10  1   
 17  10  11  1   
 18  10  27  1   
 19  10  28  1   
 20  11  12  2   
 21  11  13  am  
 22  13  14  1   
 23  13  29  1   
 24  14  15  1   
 25  14  16  2   
 26  15  17  2   
 27  16  18  1   
 28  17  18  1   
 29  18  19  1   
 30  19  20  1   
 31  19  30  1   
 32  19  31  1   
 33  20  32  1   
 34  20  33  1   
 35  20  34  1   
@<TRIPOS>SUBSTRUCTURE
  1 ****   9 GROUP 4 **** **** 0

# MOE 2024.06 (io_trps.svl 2023.06)
