@<TRIPOS>MOLECULE
Methyl-(5-methyl-[1,3,4]thiadiazol-2-yl)-amine
15 15 1 0 0 
SMALL
USER_CHARGES


@<TRIPOS>ATOM
  1 S       -0.3100     0.1240     0.0240 S.3   1 <1>  -0.0800 
  2 C        1.1430     1.0530    -0.1800 C.2   1 <1>   0.4620 
  3 C        0.6670    -1.2940    -0.1500 C.2   1 <1>   0.1980 
  4 N        2.1770     0.3100    -0.3510 N.2   1 <1>  -0.3380 
  5 N        1.1150     2.4240    -0.1510 N.pl3 1 <1>  -0.8530 
  6 N        1.8960    -1.0290    -0.3330 N.2   1 <1>  -0.3380 
  7 C       -0.0160    -2.6400    -0.0710 C.3   1 <1>  -0.0600 
  8 C       -0.0580     3.3130     0.0440 C.3   1 <1>   0.1290 
  9 H        2.0210     2.8840    -0.2810 H     1 <1>   0.4000 
 10 H       -0.7540    -2.7200    -0.8470 H     1 <1>   0.0800 
 11 H       -0.4900    -2.7520     0.8860 H     1 <1>   0.0800 
 12 H        0.7100    -3.4220    -0.1960 H     1 <1>   0.0800 
 13 H       -0.9610     2.7440     0.1710 H     1 <1>   0.0800 
 14 H       -0.1710     3.9530    -0.8140 H     1 <1>   0.0800 
 15 H        0.0930     3.9220     0.9190 H     1 <1>   0.0800 
@<TRIPOS>BOND
  1   1   2  1   
  2   1   3  1   
  3   2   4  2   
  4   2   5  1   
  5   3   6  2   
  6   3   7  1   
  7   4   6  1   
  8   5   8  1   
  9   5   9  1   
 10   7  10  1   
 11   7  11  1   
 12   7  12  1   
 13   8  13  1   
 14   8  14  1   
 15   8  15  1   
@<TRIPOS>SUBSTRUCTURE
  1 ****   2 GROUP 4 **** **** 0

# MOE 2024.06 (io_trps.svl 2023.06)
