@<TRIPOS>MOLECULE
2-Pyrrolidin-1-yl-propylamine
27 27 1 0 0 
SMALL
USER_CHARGES


@<TRIPOS>ATOM
  1 N        0.0190     0.0780     0.2100 N.4   1 <1>  -0.9590 
  2 C        1.0710     1.0700    -0.2100 C.3   1 <1>   0.4230 
  3 C        0.2450    -1.3430    -0.1910 C.3   1 <1>   0.3430 
  4 C       -1.3460     0.3920    -0.3180 C.3   1 <1>   0.3430 
  5 C        2.5280     0.6290     0.1710 C.3   1 <1>   0.3430 
  6 C        0.7300     2.4240     0.4260 C.3   1 <1>  -0.2400 
  7 C       -1.1090    -2.0120    -0.0170 C.3   1 <1>  -0.1600 
  8 C       -2.1420    -0.8910    -0.1320 C.3   1 <1>  -0.1600 
  9 N        3.6240     1.6100    -0.1730 N.4   1 <1>  -0.8530 
 10 H       -0.0880     0.0870     1.2360 H     1 <1>   0.4500 
 11 H        1.0250     1.1700    -1.2840 H     1 <1>   0.0800 
 12 H        0.9950    -1.8260     0.4160 H     1 <1>   0.0800 
 13 H        0.5310    -1.3940    -1.2300 H     1 <1>   0.0800 
 14 H       -1.2910     0.6270    -1.3690 H     1 <1>   0.0800 
 15 H       -1.8050     1.2140     0.2090 H     1 <1>   0.0800 
 16 H        2.7400    -0.3040    -0.3240 H     1 <1>   0.0800 
 17 H        2.5540     0.4500     1.2340 H     1 <1>   0.0800 
 18 H        0.7480     2.3650     1.5000 H     1 <1>   0.0800 
 19 H       -0.2400     2.7700     0.1140 H     1 <1>   0.0800 
 20 H        1.4290     3.1790     0.1170 H     1 <1>   0.0800 
 21 H       -1.1680    -2.4790     0.9520 H     1 <1>   0.0800 
 22 H       -1.2580    -2.7710    -0.7670 H     1 <1>   0.0800 
 23 H       -2.8060    -1.0440    -0.9660 H     1 <1>   0.0800 
 24 H       -2.7360    -0.8310     0.7650 H     1 <1>   0.0800 
 25 H        3.6950     1.8060    -1.1810 H     1 <1>   0.4500 
 26 H        4.5450     1.2420     0.1110 H     1 <1>   0.4500 
 27 H        3.5190     2.5110     0.3150 H     1 <1>   0.4500 
@<TRIPOS>BOND
  1   1   2  1   
  2   1   3  1   
  3   1   4  1   
  4   1  10  1   
  5   2   5  1   
  6   2   6  1   
  7   2  11  1   
  8   3   7  1   
  9   3  12  1   
 10   3  13  1   
 11   4   8  1   
 12   4  14  1   
 13   4  15  1   
 14   5   9  1   
 15   5  16  1   
 16   5  17  1   
 17   6  18  1   
 18   6  19  1   
 19   6  20  1   
 20   7   8  1   
 21   7  21  1   
 22   7  22  1   
 23   8  23  1   
 24   8  24  1   
 25   9  25  1   
 26   9  26  1   
 27   9  27  1   
@<TRIPOS>SUBSTRUCTURE
  1 ****   1 GROUP 4 **** **** 0

# MOE 2024.06 (io_trps.svl 2023.06)
