@<TRIPOS>MOLECULE
1-(2,5-Dimethoxy-benzenesulfonyl)-piperidine-4-carboxylic acid tert-butylamide
54 55 1 0 0 
SMALL
USER_CHARGES


@<TRIPOS>ATOM
  1 S        0.0440    -0.4410     1.1370 S.o2  1 <1>   1.4470 
  2 O        0.3140    -1.7430     1.7110 O.2   1 <1>  -0.6500 
  3 O       -0.3740     0.6100     2.0420 O.2   1 <1>  -0.6500 
  4 N        1.4970     0.0760     0.4270 N.am  1 <1>  -0.8490 
  5 C       -1.0960    -0.6790    -0.2560 C.ar  1 <1>  -0.0090 
  6 C        2.6020    -0.0260     1.3850 C.3   1 <1>   0.1960 
  7 C        1.3850     1.4300    -0.1290 C.3   1 <1>   0.1960 
  8 C       -1.9050     0.3440    -0.7470 C.ar  1 <1>   0.0830 
  9 C       -1.1670    -1.9170    -0.8850 C.ar  1 <1>  -0.1500 
 10 C        3.9330     0.3330     0.7190 C.3   1 <1>  -0.1600 
 11 C        2.6790     1.8310    -0.8400 C.3   1 <1>  -0.1600 
 12 O       -1.8580     1.5800    -0.2100 O.3   1 <1>  -0.3620 
 13 C       -2.7590     0.1330    -1.8210 C.ar  1 <1>  -0.1500 
 14 C       -2.0230    -2.1420    -1.9580 C.ar  1 <1>   0.0830 
 15 C        3.8860     1.7400     0.1060 C.3   1 <1>  -0.0190 
 16 C       -2.9230     1.9340     0.6440 C.3   1 <1>   0.0400 
 17 C       -2.8190    -1.1090    -2.4210 C.ar  1 <1>  -0.1500 
 18 O       -2.1350    -3.3330    -2.5990 O.3   1 <1>  -0.3630 
 19 C        5.1900     2.0960    -0.6060 C.2   1 <1>   0.5690 
 20 C       -1.3660    -4.4490    -2.2070 C.3   1 <1>   0.0400 
 21 O        5.5750     1.3940    -1.5100 O.2   1 <1>  -0.5700 
 22 N        5.8630     3.2010    -0.1830 N.am  1 <1>  -0.7300 
 23 C        7.1200     3.7580    -0.6910 C.3   1 <1>   0.3000 
 24 C        7.4140     5.0000     0.1470 C.3   1 <1>  -0.2400 
 25 C        6.9540     4.1580    -2.1580 C.3   1 <1>  -0.2400 
 26 C        8.2480     2.7410    -0.5130 C.3   1 <1>  -0.2400 
 27 H        2.6700    -1.0360     1.7550 H     1 <1>   0.0800 
 28 H        2.4190     0.6260     2.2240 H     1 <1>   0.0800 
 29 H        1.1610     2.1350     0.6550 H     1 <1>   0.0800 
 30 H        0.5860     1.4620    -0.8490 H     1 <1>   0.0800 
 31 H       -0.5360    -2.7050    -0.5150 H     1 <1>   0.1500 
 32 H        4.1440    -0.3940    -0.0470 H     1 <1>   0.0800 
 33 H        4.7220     0.2790     1.4470 H     1 <1>   0.0800 
 34 H        2.5850     2.8350    -1.2140 H     1 <1>   0.0800 
 35 H        2.8280     1.1800    -1.6850 H     1 <1>   0.0800 
 36 H       -3.3660     0.9410    -2.1870 H     1 <1>   0.1500 
 37 H        3.7350     2.4440     0.9040 H     1 <1>   0.0800 
 38 H       -2.7290     2.9170     1.0340 H     1 <1>   0.0800 
 39 H       -2.9720     1.2250     1.4530 H     1 <1>   0.0800 
 40 H       -3.8420     1.9310     0.0850 H     1 <1>   0.0800 
 41 H       -3.4780    -1.2860    -3.2530 H     1 <1>   0.1500 
 42 H       -1.6210    -5.2730    -2.8500 H     1 <1>   0.0800 
 43 H       -1.6010    -4.6950    -1.1870 H     1 <1>   0.0800 
 44 H       -0.3220    -4.2110    -2.3160 H     1 <1>   0.0800 
 45 H        5.4740     3.7430     0.5840 H     1 <1>   0.3700 
 46 H        6.6260     5.7240     0.0420 H     1 <1>   0.0800 
 47 H        8.3310     5.4570    -0.1810 H     1 <1>   0.0800 
 48 H        7.5240     4.7400     1.1850 H     1 <1>   0.0800 
 49 H        7.8460     4.6390    -2.5140 H     1 <1>   0.0800 
 50 H        6.7810     3.2910    -2.7700 H     1 <1>   0.0800 
 51 H        6.1300     4.8370    -2.2730 H     1 <1>   0.0800 
 52 H        8.3230     2.4360     0.5150 H     1 <1>   0.0800 
 53 H        9.1860     3.1720    -0.8110 H     1 <1>   0.0800 
 54 H        8.0760     1.8730    -1.1230 H     1 <1>   0.0800 
@<TRIPOS>BOND
  1   1   2  2   
  2   1   3  2   
  3   1   4  am  
  4   1   5  1   
  5   4   6  1   
  6   4   7  1   
  7   5   8  ar  
  8   5   9  ar  
  9   6  10  1   
 10   6  27  1   
 11   6  28  1   
 12   7  11  1   
 13   7  29  1   
 14   7  30  1   
 15   8  12  1   
 16   8  13  ar  
 17   9  14  ar  
 18   9  31  1   
 19  10  15  1   
 20  10  32  1   
 21  10  33  1   
 22  11  15  1   
 23  11  34  1   
 24  11  35  1   
 25  12  16  1   
 26  13  17  ar  
 27  13  36  1   
 28  14  17  ar  
 29  14  18  1   
 30  15  19  1   
 31  15  37  1   
 32  16  38  1   
 33  16  39  1   
 34  16  40  1   
 35  17  41  1   
 36  18  20  1   
 37  19  21  2   
 38  19  22  am  
 39  20  42  1   
 40  20  43  1   
 41  20  44  1   
 42  22  23  1   
 43  22  45  1   
 44  23  24  1   
 45  23  25  1   
 46  23  26  1   
 47  24  46  1   
 48  24  47  1   
 49  24  48  1   
 50  25  49  1   
 51  25  50  1   
 52  25  51  1   
 53  26  52  1   
 54  26  53  1   
 55  26  54  1   
@<TRIPOS>SUBSTRUCTURE
  1 ****   7 GROUP 4 **** **** 0

# MOE 2024.06 (io_trps.svl 2023.06)
