@<TRIPOS>MOLECULE
2-Propyl-8,9,10,11-tetrahydro-7H-6-thia-1,3,3a,5-tetraaza-cyclohepta[b]-as-indac
39 42 1 0 0 
SMALL
USER_CHARGES


@<TRIPOS>ATOM
  1 S       -0.0110    -1.0460    -0.1540 S.3   1 <1>  -0.0800 
  2 C        1.3970    -0.0180    -0.2440 C.2   1 <1>   0.1660 
  3 C       -1.0330     0.3200     0.2730 C.2   1 <1>  -0.1400 
  4 N        2.6140    -0.5080    -0.5600 N.2   1 <1>  -0.5760 
  5 C        1.0800     1.2840     0.0380 C.2   1 <1>  -0.0370 
  6 C       -0.3250     1.4620     0.3430 C.2   1 <1>  -0.1810 
  7 C       -2.5060     0.0310     0.4880 C.3   1 <1>   0.0200 
  8 C        3.5720     0.3550    -0.6020 C.2   1 <1>   0.8090 
  9 C        2.1790     2.1630    -0.0340 C.cat 1 <1>   0.8370 
 10 C       -0.9720     2.7890     0.7150 C.3   1 <1>   0.0210 
 11 C       -3.3850     0.9120    -0.4090 C.3   1 <1>  -0.1600 
 12 N        3.3930     1.6970    -0.3450 N.pl3 1 <1>  -0.3620 
 13 N        2.3210     3.4730     0.1460 N.pl3 1 <1>  -0.7000 
 14 C       -2.1070     3.1650    -0.2480 C.3   1 <1>  -0.1600 
 15 C       -3.4180     2.3960    -0.0070 C.3   1 <1>  -0.1600 
 16 N        4.3070     2.7150    -0.3600 N.2   1 <1>  -0.2600 
 17 C        3.6280     3.7640    -0.0620 C.2   1 <1>   0.4850 
 18 C        4.1620     5.1870     0.0600 C.3   1 <1>   0.0080 
 19 C        5.6710     5.3100    -0.2130 C.3   1 <1>  -0.1600 
 20 C        6.1490     6.7600    -0.0760 C.3   1 <1>  -0.2400 
 21 H       -2.7590     0.1830     1.5230 H     1 <1>   0.0800 
 22 H       -2.7010    -1.0010     0.2540 H     1 <1>   0.0800 
 23 H        4.5710     0.0380    -0.8470 H     1 <1>   0.0600 
 24 H       -0.2510     3.5790     0.7060 H     1 <1>   0.0800 
 25 H       -1.3590     2.7250     1.7180 H     1 <1>   0.0800 
 26 H       -4.3910     0.5320    -0.3590 H     1 <1>   0.0800 
 27 H       -3.0610     0.8170    -1.4310 H     1 <1>   0.0800 
 28 H        1.5820     4.1310     0.3880 H     1 <1>   0.4500 
 29 H       -1.7870     3.0290    -1.2670 H     1 <1>   0.0800 
 30 H       -2.3210     4.2120    -0.1170 H     1 <1>   0.0800 
 31 H       -3.7120     2.4850     1.0250 H     1 <1>   0.0800 
 32 H       -4.1880     2.8710    -0.5920 H     1 <1>   0.0800 
 33 H        3.9580     5.5450     1.0540 H     1 <1>   0.0800 
 34 H        3.6300     5.8130    -0.6340 H     1 <1>   0.0800 
 35 H        5.8910     4.9630    -1.2100 H     1 <1>   0.0800 
 36 H        6.2200     4.6950     0.4810 H     1 <1>   0.0800 
 37 H        5.6420     7.3990    -0.7790 H     1 <1>   0.0800 
 38 H        7.2060     6.8180    -0.2730 H     1 <1>   0.0800 
 39 H        5.9720     7.1290     0.9190 H     1 <1>   0.0800 
@<TRIPOS>BOND
  1   1   2  1   
  2   1   3  1   
  3   2   4  1   
  4   2   5  2   
  5   3   6  2   
  6   3   7  1   
  7   4   8  2   
  8   5   6  1   
  9   5   9  1   
 10   6  10  1   
 11   7  11  1   
 12   7  21  1   
 13   7  22  1   
 14   8  12  1   
 15   8  23  1   
 16   9  12  ar  
 17   9  13  ar  
 18  10  14  1   
 19  10  24  1   
 20  10  25  1   
 21  11  15  1   
 22  11  26  1   
 23  11  27  1   
 24  12  16  1   
 25  13  17  1   
 26  13  28  1   
 27  14  15  1   
 28  14  29  1   
 29  14  30  1   
 30  15  31  1   
 31  15  32  1   
 32  16  17  2   
 33  17  18  1   
 34  18  19  1   
 35  18  33  1   
 36  18  34  1   
 37  19  20  1   
 38  19  35  1   
 39  19  36  1   
 40  20  37  1   
 41  20  38  1   
 42  20  39  1   
@<TRIPOS>SUBSTRUCTURE
  1 ****   9 GROUP 4 **** **** 0

# MOE 2024.06 (io_trps.svl 2023.06)
