@<TRIPOS>MOLECULE
1,6,7-Trimethyl-3-(3-methyl-benzyl)-8-(tetrahydro-furan-2-ylmethyl)-1H,8H-imidaz
59 63 1 0 0 
SMALL
USER_CHARGES


@<TRIPOS>ATOM
  1 O        1.9080     0.5590    -3.5480 O.2   1 <1>  -0.5740 
  2 C        2.4760     1.2080    -2.6920 C.2   1 <1>   0.6870 
  3 N        1.8490     2.3020    -2.1120 N.am  1 <1>  -0.4250 
  4 N        3.7620     0.8570    -2.3010 N.am  1 <1>  -0.4410 
  5 C        2.5040     3.1130    -1.1990 C.2   1 <1>   0.7000 
  6 C        0.3810     2.4600    -2.2780 C.3   1 <1>   0.2780 
  7 C        4.3730     1.6140    -1.3220 C.2   1 <1>   0.4210 
  8 C        4.4360    -0.3440    -2.8770 C.3   1 <1>   0.0540 
  9 O        1.9870     4.1430    -0.7960 O.2   1 <1>  -0.5740 
 10 C        3.8060     2.7170    -0.7730 C.2   1 <1>   0.2720 
 11 C       -0.3100     1.7120    -1.1490 C.ar  1 <1>  -0.1500 
 12 N        5.6030     1.4240    -0.7710 N.pl3 1 <1>  -0.7030 
 13 N        4.7470     3.2280     0.1410 N.pl3 1 <1>  -0.6320 
 14 C       -0.6630     2.3740     0.0180 C.ar  1 <1>  -0.1560 
 15 C       -0.5800     0.3580    -1.2730 C.ar  1 <1>  -0.1560 
 16 C        5.7960     2.4180     0.0930 C.cat 1 <1>   1.0690 
 17 C        5.0500     4.2160     1.0530 C.2   1 <1>   0.2350 
 18 C       -1.2750     1.6930     1.0570 C.ar  1 <1>  -0.1500 
 19 C       -1.1950    -0.3250    -0.2390 C.ar  1 <1>  -0.1560 
 20 N        6.7750     2.8130     0.9180 N.pl3 1 <1>  -0.5710 
 21 C        6.2930     3.9620     1.5310 C.2   1 <1>   0.1590 
 22 C        4.0510     5.3170     1.3520 C.3   1 <1>  -0.1080 
 23 C       -1.5400     0.3410     0.9230 C.ar  1 <1>  -0.1560 
 24 C       -1.6630     2.4180     2.3330 C.3   1 <1>  -0.1030 
 25 C        8.0620     2.0970     1.1920 C.3   1 <1>   0.1620 
 26 C        7.1120     4.7280     2.5570 C.3   1 <1>  -0.1080 
 27 C        8.9120     1.8450    -0.0690 C.3   1 <1>   0.1940 
 28 O        8.2470     1.0120    -0.9680 O.3   1 <1>  -0.5640 
 29 C       10.2150     1.1130     0.2190 C.3   1 <1>  -0.1660 
 30 C        9.1710     0.4290    -1.8380 C.3   1 <1>   0.1140 
 31 C       10.4970     0.3830    -1.0830 C.3   1 <1>  -0.1660 
 32 H        0.0600     2.0700    -3.2280 H     1 <1>   0.0740 
 33 H        0.1120     3.5020    -2.2510 H     1 <1>   0.0740 
 34 H        4.0630    -0.5470    -3.8670 H     1 <1>   0.0740 
 35 H        4.2430    -1.2000    -2.2540 H     1 <1>   0.0740 
 36 H        5.4970    -0.1840    -2.9460 H     1 <1>   0.0740 
 37 H        6.3990     0.8350    -1.0490 H     1 <1>   0.4460 
 38 H       -0.4610     3.4260     0.1200 H     1 <1>   0.1440 
 39 H       -0.3150    -0.1710    -2.1730 H     1 <1>   0.1440 
 40 H       -1.4060    -1.3760    -0.3390 H     1 <1>   0.1440 
 41 H        3.8360     5.8710     0.4560 H     1 <1>   0.0740 
 42 H        4.4330     5.9970     2.0910 H     1 <1>   0.0740 
 43 H        3.1350     4.8910     1.7190 H     1 <1>   0.0740 
 44 H       -2.0200    -0.1970     1.7210 H     1 <1>   0.1440 
 45 H       -2.7190     2.6210     2.3280 H     1 <1>   0.0740 
 46 H       -1.1330     3.3500     2.4200 H     1 <1>   0.0740 
 47 H       -1.4290     1.8120     3.1900 H     1 <1>   0.0740 
 48 H        7.8470     1.1540     1.6660 H     1 <1>   0.0740 
 49 H        8.6520     2.6740     1.8810 H     1 <1>   0.0740 
 50 H        7.3310     4.0990     3.4010 H     1 <1>   0.0740 
 51 H        6.5770     5.5900     2.9110 H     1 <1>   0.0740 
 52 H        8.0360     5.0610     2.1190 H     1 <1>   0.0740 
 53 H        9.1240     2.7740    -0.5730 H     1 <1>   0.0740 
 54 H       10.0790     0.4010     1.0140 H     1 <1>   0.0740 
 55 H       11.0070     1.7920     0.4850 H     1 <1>   0.0740 
 56 H        9.2490     1.0480    -2.7160 H     1 <1>   0.0740 
 57 H        8.8270    -0.5550    -2.1080 H     1 <1>   0.0740 
 58 H       10.8080    -0.6320    -0.9070 H     1 <1>   0.0740 
 59 H       11.2580     0.8840    -1.6560 H     1 <1>   0.0740 
@<TRIPOS>BOND
  1   1   2  2   
  2   2   3  am  
  3   2   4  am  
  4   3   5  am  
  5   3   6  1   
  6   4   7  1   
  7   4   8  1   
  8   5   9  2   
  9   5  10  1   
 10   6  11  1   
 11   6  32  1   
 12   6  33  1   
 13   7  10  2   
 14   7  12  1   
 15   8  34  1   
 16   8  35  1   
 17   8  36  1   
 18  10  13  1   
 19  11  14  ar  
 20  11  15  ar  
 21  12  16  ar  
 22  12  37  1   
 23  13  16  ar  
 24  13  17  1   
 25  14  18  ar  
 26  14  38  1   
 27  15  19  ar  
 28  15  39  1   
 29  16  20  ar  
 30  17  21  2   
 31  17  22  1   
 32  18  23  ar  
 33  18  24  1   
 34  19  23  ar  
 35  19  40  1   
 36  20  21  1   
 37  20  25  1   
 38  21  26  1   
 39  22  41  1   
 40  22  42  1   
 41  22  43  1   
 42  23  44  1   
 43  24  45  1   
 44  24  46  1   
 45  24  47  1   
 46  25  27  1   
 47  25  48  1   
 48  25  49  1   
 49  26  50  1   
 50  26  51  1   
 51  26  52  1   
 52  27  28  1   
 53  27  29  1   
 54  27  53  1   
 55  28  30  1   
 56  29  31  1   
 57  29  54  1   
 58  29  55  1   
 59  30  31  1   
 60  30  56  1   
 61  30  57  1   
 62  31  58  1   
 63  31  59  1   
@<TRIPOS>SUBSTRUCTURE
  1 ****  10 GROUP 4 **** **** 0

# MOE 2024.06 (io_trps.svl 2023.06)
