@<TRIPOS>MOLECULE
2,5-Dimethyl-1-propyl-1H-pyrrole-3-carbaldehyde
27 27 1 0 0 
SMALL
USER_CHARGES


@<TRIPOS>ATOM
  1 O        0.0890    -0.3910    -0.9170 O.2   1 <1>  -0.5700 
  2 C        0.4400    -1.5360    -0.7620 C.2   1 <1>   0.5960 
  3 C       -0.4030    -2.6170    -0.3310 C.2   1 <1>  -0.0860 
  4 C       -0.1140    -3.9470    -0.1230 C.2   1 <1>  -0.3320 
  5 C       -1.7700    -2.4850    -0.0270 C.2   1 <1>  -0.1500 
  6 N       -1.2280    -4.6100     0.2850 N.pl3 1 <1>   0.0480 
  7 C        1.2310    -4.6390    -0.3050 C.3   1 <1>  -0.0600 
  8 C       -2.2420    -3.6990     0.3420 C.2   1 <1>  -0.3320 
  9 C       -1.3400    -6.0530     0.6090 C.3   1 <1>   0.0960 
 10 C       -3.6660    -4.0280     0.7590 C.3   1 <1>  -0.0600 
 11 C       -1.7280    -6.8600    -0.6370 C.3   1 <1>  -0.1600 
 12 C       -1.8460    -8.3550    -0.3190 C.3   1 <1>  -0.2400 
 13 H        1.4680    -1.7700    -0.9620 H     1 <1>   0.0600 
 14 H       -2.3080    -1.5540    -0.0900 H     1 <1>   0.1500 
 15 H        1.9770    -3.9550    -0.6650 H     1 <1>   0.0800 
 16 H        1.1420    -5.4410    -1.0160 H     1 <1>   0.0800 
 17 H        1.5680    -5.0410     0.6330 H     1 <1>   0.0800 
 18 H       -2.0800    -6.1790     1.3780 H     1 <1>   0.0800 
 19 H       -0.3990    -6.3980     0.9950 H     1 <1>   0.0800 
 20 H       -4.2770    -3.1450     0.7090 H     1 <1>   0.0800 
 21 H       -3.6820    -4.3960     1.7690 H     1 <1>   0.0800 
 22 H       -4.0850    -4.7700     0.1040 H     1 <1>   0.0800 
 23 H       -0.9840    -6.7190    -1.4010 H     1 <1>   0.0800 
 24 H       -2.6710    -6.5030    -1.0140 H     1 <1>   0.0800 
 25 H       -0.9080    -8.7400     0.0410 H     1 <1>   0.0800 
 26 H       -2.1200    -8.8980    -1.2070 H     1 <1>   0.0800 
 27 H       -2.6020    -8.5230     0.4290 H     1 <1>   0.0800 
@<TRIPOS>BOND
  1   1   2  2   
  2   2   3  1   
  3   2  13  1   
  4   3   4  2   
  5   3   5  1   
  6   4   6  1   
  7   4   7  1   
  8   5   8  2   
  9   5  14  1   
 10   6   8  1   
 11   6   9  1   
 12   7  15  1   
 13   7  16  1   
 14   7  17  1   
 15   8  10  1   
 16   9  11  1   
 17   9  18  1   
 18   9  19  1   
 19  10  20  1   
 20  10  21  1   
 21  10  22  1   
 22  11  12  1   
 23  11  23  1   
 24  11  24  1   
 25  12  25  1   
 26  12  26  1   
 27  12  27  1   
@<TRIPOS>SUBSTRUCTURE
  1 ****   6 GROUP 4 **** **** 0

# MOE 2024.06 (io_trps.svl 2023.06)
