@<TRIPOS>MOLECULE
6-(4-tert-Butyl-phenyl)-3-trifluoromethyl-[1,2,4]triazolo[3,4-b][1,3,4]thiadiazo
35 37 1 0 0 
SMALL
USER_CHARGES


@<TRIPOS>ATOM
  1 S       -0.3750    -0.0330     0.5310 S.3   1 <1>  -0.1970 
  2 C        0.5850     1.4010     0.2800 C.2   1 <1>   0.2420 
  3 C       -1.8400     0.8970     0.0960 C.2   1 <1>   0.5050 
  4 N        1.8290     1.7130     0.3600 N.2   1 <1>  -0.3380 
  5 N       -0.2170     2.3840    -0.0820 N.pl3 1 <1>   0.5050 
  6 N       -1.5790     2.1250    -0.1920 N.2   1 <1>  -0.6520 
  7 C       -3.1260     0.2260     0.1050 C.ar  1 <1>   0.0860 
  8 N        1.8680     3.0150     0.0230 N.2   1 <1>  -0.3380 
  9 C        0.6440     3.3910    -0.2350 C.2   1 <1>   0.0060 
 10 C       -4.2810     0.9310    -0.2320 C.ar  1 <1>  -0.1500 
 11 C       -3.2940    -1.1190     0.4380 C.ar  1 <1>  -0.1500 
 12 C        0.1190     4.7470    -0.6580 C.3   1 <1>   1.2000 
 13 C       -5.5250     0.3320    -0.2370 C.ar  1 <1>  -0.1500 
 14 C       -4.5400    -1.7200     0.4330 C.ar  1 <1>  -0.1500 
 15 F       -0.4960     4.7040    -1.8350 F     1 <1>  -0.3400 
 16 F        1.0700     5.6660    -0.7760 F     1 <1>  -0.3400 
 17 F       -0.7620     5.2390     0.2060 F     1 <1>  -0.3400 
 18 C       -5.6860    -1.0080     0.0950 C.ar  1 <1>  -0.1440 
 19 C       -7.0970    -1.6340     0.0750 C.3   1 <1>   0.1440 
 20 C       -8.0030    -0.8890     1.0670 C.3   1 <1>  -0.2400 
 21 C       -7.6880    -1.5230    -1.3380 C.3   1 <1>  -0.2400 
 22 C       -7.1060    -3.1210     0.4670 C.3   1 <1>  -0.2400 
 23 H       -4.2060     1.9720    -0.4960 H     1 <1>   0.1500 
 24 H       -2.4480    -1.7250     0.7080 H     1 <1>   0.1500 
 25 H       -6.3790     0.9290    -0.5060 H     1 <1>   0.1500 
 26 H       -4.5900    -2.7590     0.7000 H     1 <1>   0.1500 
 27 H       -8.9830    -1.3320     1.0940 H     1 <1>   0.0800 
 28 H       -7.5810    -0.9330     2.0550 H     1 <1>   0.0800 
 29 H       -8.1140     0.1440     0.7930 H     1 <1>   0.0800 
 30 H       -7.7950    -0.4970    -1.6360 H     1 <1>   0.0800 
 31 H       -8.6580    -1.9850    -1.3810 H     1 <1>   0.0800 
 32 H       -7.0440    -2.0140    -2.0460 H     1 <1>   0.0800 
 33 H       -6.7260    -3.2530     1.4640 H     1 <1>   0.0800 
 34 H       -6.5060    -3.6960    -0.2170 H     1 <1>   0.0800 
 35 H       -8.1070    -3.5140     0.4390 H     1 <1>   0.0800 
@<TRIPOS>BOND
  1   1   2  1   
  2   1   3  1   
  3   2   4  2   
  4   2   5  1   
  5   3   6  2   
  6   3   7  1   
  7   4   8  1   
  8   5   6  1   
  9   5   9  1   
 10   7  10  ar  
 11   7  11  ar  
 12   8   9  2   
 13   9  12  1   
 14  10  13  ar  
 15  10  23  1   
 16  11  14  ar  
 17  11  24  1   
 18  12  15  1   
 19  12  16  1   
 20  12  17  1   
 21  13  18  ar  
 22  13  25  1   
 23  14  18  ar  
 24  14  26  1   
 25  18  19  1   
 26  19  20  1   
 27  19  21  1   
 28  19  22  1   
 29  20  27  1   
 30  20  28  1   
 31  20  29  1   
 32  21  30  1   
 33  21  31  1   
 34  21  32  1   
 35  22  33  1   
 36  22  34  1   
 37  22  35  1   
@<TRIPOS>SUBSTRUCTURE
  1 ****   3 GROUP 4 **** **** 0

# MOE 2024.06 (io_trps.svl 2023.06)
