@<TRIPOS>MOLECULE
3,6-Dihydroxy-6-methyl-4-phenyl-4,5,6,7-tetrahydro-1H-indazole-5-carboxylic acid
44 46 1 0 0 
SMALL
USER_CHARGES


@<TRIPOS>ATOM
  1 O       -1.9830     1.1880    -1.2490 O.2   1 <1>  -0.5700 
  2 C       -2.1090     1.6810    -0.1540 C.2   1 <1>   0.6590 
  3 O       -2.6530     1.0120     0.8510 O.3   1 <1>  -0.4300 
  4 C       -1.6090     3.0750     0.1680 C.3   1 <1>  -0.0190 
  5 C       -3.1050    -0.3070     0.6770 C.3   1 <1>   0.2580 
  6 C       -2.5220     4.2000    -0.3850 C.3   1 <1>   0.2800 
  7 C       -0.1340     3.2110    -0.2720 C.3   1 <1>   0.2440 
  8 C       -3.6290    -0.8000     2.0110 C.2   1 <1>  -0.2880 
  9 O       -3.8010     3.9860     0.0830 O.3   1 <1>  -0.6800 
 10 C       -2.0620     5.5790     0.1500 C.3   1 <1>   0.0200 
 11 C       -2.6360     4.2200    -1.9170 C.3   1 <1>  -0.2400 
 12 C        0.7430     2.3010     0.5900 C.ar  1 <1>  -0.1440 
 13 C        0.2840     4.6730    -0.1950 C.2   1 <1>  -0.1810 
 14 C       -4.8680    -1.2480     2.2400 C.2   1 <1>  -0.3000 
 15 C       -0.5570     5.7090    -0.0050 C.2   1 <1>  -0.3320 
 16 C        1.1350     2.6810     1.8660 C.ar  1 <1>  -0.1500 
 17 C        1.1430     1.0640     0.1040 C.ar  1 <1>  -0.1500 
 18 C        1.5280     5.2760    -0.3110 C.2   1 <1>   0.3510 
 19 N        0.1940     6.8340     0.0100 N.pl3 1 <1>   0.3000 
 20 C        1.9110     1.8390     2.6430 C.ar  1 <1>  -0.1500 
 21 C        1.9190     0.2210     0.8790 C.ar  1 <1>  -0.1500 
 22 O        2.6890     4.6690    -0.5410 O.3   1 <1>  -0.5120 
 23 N        1.5040     6.5590    -0.1870 N.2   1 <1>  -0.7070 
 24 C        2.3040     0.6070     2.1510 C.ar  1 <1>  -0.1500 
 25 H       -1.6210     3.1730     1.2380 H     1 <1>   0.0800 
 26 H       -2.2770    -0.9100     0.3460 H     1 <1>   0.0800 
 27 H       -3.8780    -0.3080    -0.0720 H     1 <1>   0.0800 
 28 H       -0.0340     2.9150    -1.3020 H     1 <1>   0.0800 
 29 H       -2.8780    -0.7470     2.7810 H     1 <1>   0.1500 
 30 H       -4.4370     4.5290    -0.4170 H     1 <1>   0.4000 
 31 H       -2.3030     5.6620     1.1950 H     1 <1>   0.0800 
 32 H       -2.5570     6.3700    -0.3840 H     1 <1>   0.0800 
 33 H       -3.2750     5.0210    -2.2430 H     1 <1>   0.0800 
 34 H       -1.6710     4.3730    -2.3650 H     1 <1>   0.0800 
 35 H       -3.0330     3.2920    -2.2890 H     1 <1>   0.0800 
 36 H       -5.2130    -1.5900     3.2010 H     1 <1>   0.1500 
 37 H       -5.6400    -1.3080     1.4930 H     1 <1>   0.1500 
 38 H        0.8400     3.6370     2.2610 H     1 <1>   0.1500 
 39 H        0.8500     0.7480    -0.8830 H     1 <1>   0.1500 
 40 H       -0.1470     7.7950     0.1410 H     1 <1>   0.2700 
 41 H        2.2110     2.1440     3.6300 H     1 <1>   0.1500 
 42 H        2.2250    -0.7360     0.4920 H     1 <1>   0.1500 
 43 H        3.3580     5.3730    -0.5400 H     1 <1>   0.4500 
 44 H        2.9080    -0.0470     2.7540 H     1 <1>   0.1500 
@<TRIPOS>BOND
  1   1   2  2   
  2   2   3  1   
  3   2   4  1   
  4   3   5  1   
  5   4   6  1   
  6   4   7  1   
  7   4  25  1   
  8   5   8  1   
  9   5  26  1   
 10   5  27  1   
 11   6   9  1   
 12   6  10  1   
 13   6  11  1   
 14   7  12  1   
 15   7  13  1   
 16   7  28  1   
 17   8  14  2   
 18   8  29  1   
 19   9  30  1   
 20  10  15  1   
 21  10  31  1   
 22  10  32  1   
 23  11  33  1   
 24  11  34  1   
 25  11  35  1   
 26  12  16  ar  
 27  12  17  ar  
 28  13  15  2   
 29  13  18  1   
 30  14  36  1   
 31  14  37  1   
 32  15  19  1   
 33  16  20  ar  
 34  16  38  1   
 35  17  21  ar  
 36  17  39  1   
 37  18  22  1   
 38  18  23  2   
 39  19  23  1   
 40  19  40  1   
 41  20  24  ar  
 42  20  41  1   
 43  21  24  ar  
 44  21  42  1   
 45  22  43  1   
 46  24  44  1   
@<TRIPOS>SUBSTRUCTURE
  1 ****   7 GROUP 4 **** **** 0

# MOE 2024.06 (io_trps.svl 2023.06)
