@<TRIPOS>MOLECULE
1-(2,5-Dimethoxy-benzenesulfonyl)-piperidine-4-carboxylic acid (1-methyl-butyl)-
57 58 1 0 0 
SMALL
USER_CHARGES


@<TRIPOS>ATOM
  1 S       -0.1770    -0.3870    -1.3970 S.o2  1 <1>   1.4470 
  2 O        0.1220    -1.7080    -1.9100 O.2   1 <1>  -0.6500 
  3 O       -0.5870     0.6190    -2.3550 O.2   1 <1>  -0.6500 
  4 N        1.2540     0.1770    -0.6790 N.am  1 <1>  -0.8490 
  5 C       -1.3440    -0.5820    -0.0210 C.ar  1 <1>  -0.0090 
  6 C        1.1140     1.5500    -0.1800 C.3   1 <1>   0.1960 
  7 C        2.3800     0.0510    -1.6090 C.3   1 <1>   0.1960 
  8 C       -2.1770     0.4490     0.4100 C.ar  1 <1>   0.0830 
  9 C       -1.4140    -1.7940     0.6570 C.ar  1 <1>  -0.1500 
 10 C        2.3870     1.9950     0.5420 C.3   1 <1>  -0.1600 
 11 C        3.6920     0.4530    -0.9310 C.3   1 <1>  -0.1600 
 12 O       -2.1330     1.6630    -0.1780 O.3   1 <1>  -0.3620 
 13 C       -3.0510     0.2720     1.4720 C.ar  1 <1>  -0.1500 
 14 C       -2.2920    -1.9860     1.7200 C.ar  1 <1>   0.0830 
 15 C        3.6150     1.8820    -0.3740 C.3   1 <1>  -0.0190 
 16 C       -3.1840     1.9650    -1.0690 C.3   1 <1>   0.0400 
 17 C       -3.1100    -0.9450     2.1220 C.ar  1 <1>  -0.1500 
 18 O       -2.4040    -3.1510     2.4080 O.3   1 <1>  -0.3630 
 19 C        4.9070     2.2700     0.3420 C.2   1 <1>   0.5690 
 20 C       -1.6120    -4.2720     2.0790 C.3   1 <1>   0.0400 
 21 O        5.1940     1.7210     1.3780 O.2   1 <1>  -0.5700 
 22 N        5.6930     3.2220    -0.2340 N.am  1 <1>  -0.7300 
 23 C        7.0130     3.7080     0.2250 C.3   1 <1>   0.2200 
 24 C        8.0470     2.5720     0.2780 C.3   1 <1>  -0.1600 
 25 C        6.8620     4.4090     1.5730 C.3   1 <1>  -0.2400 
 26 C        8.2480     1.8710    -1.0760 C.3   1 <1>  -0.1600 
 27 C        9.3410     0.8040    -0.9840 C.3   1 <1>  -0.2400 
 28 H        0.2990     1.6020     0.5200 H     1 <1>   0.0800 
 29 H        0.8990     2.2210    -0.9970 H     1 <1>   0.0800 
 30 H        2.2060     0.6670    -2.4770 H     1 <1>   0.0800 
 31 H        2.4670    -0.9720    -1.9370 H     1 <1>   0.0800 
 32 H       -0.7660    -2.5890     0.3350 H     1 <1>   0.1500 
 33 H        2.5230     1.3800     1.4150 H     1 <1>   0.0800 
 34 H        2.2740     3.0120     0.8740 H     1 <1>   0.0800 
 35 H        4.4970     0.3820    -1.6400 H     1 <1>   0.0800 
 36 H        3.8960    -0.2390    -0.1320 H     1 <1>   0.0800 
 37 H       -3.6770     1.0860     1.7910 H     1 <1>   0.1500 
 38 H        3.4730     2.5550    -1.2000 H     1 <1>   0.0800 
 39 H       -2.9940     2.9340    -1.4950 H     1 <1>   0.0800 
 40 H       -4.1150     1.9730    -0.5310 H     1 <1>   0.0800 
 41 H       -3.2050     1.2240    -1.8490 H     1 <1>   0.0800 
 42 H       -3.7850    -1.0960     2.9460 H     1 <1>   0.1500 
 43 H       -1.8720    -5.0710     2.7490 H     1 <1>   0.0800 
 44 H       -0.5750    -4.0160     2.2010 H     1 <1>   0.0800 
 45 H       -1.8220    -4.5630     1.0650 H     1 <1>   0.0800 
 46 H        5.3880     3.6350    -1.1140 H     1 <1>   0.3700 
 47 H        7.3600     4.4370    -0.4880 H     1 <1>   0.0800 
 48 H        7.7520     1.8510     1.0210 H     1 <1>   0.0800 
 49 H        8.9870     2.9870     0.5950 H     1 <1>   0.0800 
 50 H        6.5670     3.7100     2.3360 H     1 <1>   0.0800 
 51 H        6.1270     5.1910     1.5070 H     1 <1>   0.0800 
 52 H        7.7990     4.8470     1.8650 H     1 <1>   0.0800 
 53 H        8.5200     2.5960    -1.8240 H     1 <1>   0.0800 
 54 H        7.3290     1.4010    -1.3820 H     1 <1>   0.0800 
 55 H       10.2800     1.2470    -0.7040 H     1 <1>   0.0800 
 56 H        9.4630     0.3180    -1.9360 H     1 <1>   0.0800 
 57 H        9.0770     0.0600    -0.2530 H     1 <1>   0.0800 
@<TRIPOS>BOND
  1   1   2  2   
  2   1   3  2   
  3   1   4  am  
  4   1   5  1   
  5   4   6  1   
  6   4   7  1   
  7   5   8  ar  
  8   5   9  ar  
  9   6  10  1   
 10   6  28  1   
 11   6  29  1   
 12   7  11  1   
 13   7  30  1   
 14   7  31  1   
 15   8  12  1   
 16   8  13  ar  
 17   9  14  ar  
 18   9  32  1   
 19  10  15  1   
 20  10  33  1   
 21  10  34  1   
 22  11  15  1   
 23  11  35  1   
 24  11  36  1   
 25  12  16  1   
 26  13  17  ar  
 27  13  37  1   
 28  14  17  ar  
 29  14  18  1   
 30  15  19  1   
 31  15  38  1   
 32  16  39  1   
 33  16  40  1   
 34  16  41  1   
 35  17  42  1   
 36  18  20  1   
 37  19  21  2   
 38  19  22  am  
 39  20  43  1   
 40  20  44  1   
 41  20  45  1   
 42  22  23  1   
 43  22  46  1   
 44  23  24  1   
 45  23  25  1   
 46  23  47  1   
 47  24  26  1   
 48  24  48  1   
 49  24  49  1   
 50  25  50  1   
 51  25  51  1   
 52  25  52  1   
 53  26  27  1   
 54  26  53  1   
 55  26  54  1   
 56  27  55  1   
 57  27  56  1   
 58  27  57  1   
@<TRIPOS>SUBSTRUCTURE
  1 ****   4 GROUP 4 **** **** 0

# MOE 2024.06 (io_trps.svl 2023.06)
