@<TRIPOS>MOLECULE
[3-(2-Hydroxy-phenyl)-4,5-dihydro-isoxazol-5-yl]-morpholin-4-yl-methanone
36 38 1 0 0 
SMALL
USER_CHARGES


@<TRIPOS>ATOM
  1 O       -0.6990    -1.6070     2.3200 O.2   1 <1>  -0.5700 
  2 C       -0.4430    -2.3880     1.4300 C.2   1 <1>   0.5690 
  3 N        0.8630    -2.5880     1.0370 N.am  1 <1>  -0.6600 
  4 C       -1.6030    -3.1720     0.7900 C.3   1 <1>   0.2610 
  5 C        1.3290    -3.5420    -0.0160 C.3   1 <1>   0.1400 
  6 C        1.9650    -1.6940     1.5030 C.3   1 <1>   0.1400 
  7 O       -1.6240    -3.0270    -0.6160 O.3   1 <1>  -0.2170 
  8 C       -3.0230    -2.7650     1.1770 C.3   1 <1>  -0.0990 
  9 C        2.0250    -2.7710    -1.1480 C.3   1 <1>   0.1200 
 10 C        2.6500    -1.0270     0.2980 C.3   1 <1>   0.1200 
 11 N       -2.8410    -2.9190    -1.0980 N.2   1 <1>  -0.5130 
 12 C       -3.6990    -2.7710    -0.1710 C.2   1 <1>   0.3030 
 13 O        3.0660    -1.9880    -0.6350 O.3   1 <1>  -0.5600 
 14 C       -5.1350    -2.6350    -0.3580 C.ar  1 <1>   0.0860 
 15 C       -6.0660    -2.2910     0.6420 C.ar  1 <1>   0.0820 
 16 C       -5.6640    -2.8600    -1.6350 C.ar  1 <1>  -0.1500 
 17 O       -5.6900    -2.0350     1.9060 O.3   1 <1>  -0.5330 
 18 C       -7.4230    -2.1910     0.3700 C.ar  1 <1>  -0.1500 
 19 C       -7.0140    -2.7600    -1.9090 C.ar  1 <1>  -0.1500 
 20 C       -7.9010    -2.4250    -0.9040 C.ar  1 <1>  -0.1500 
 21 H       -1.4670    -4.2190     0.9880 H     1 <1>   0.0800 
 22 H        0.5190    -4.1200    -0.4200 H     1 <1>   0.0800 
 23 H        2.0320    -4.2300     0.4190 H     1 <1>   0.0800 
 24 H        2.6880    -2.2740     2.0500 H     1 <1>   0.0800 
 25 H        1.5880    -0.9310     2.1610 H     1 <1>   0.0800 
 26 H       -3.0580    -1.7760     1.5970 H     1 <1>   0.0800 
 27 H       -3.4530    -3.4750     1.8570 H     1 <1>   0.0800 
 28 H        1.3240    -2.1310    -1.6570 H     1 <1>   0.0800 
 29 H        2.4490    -3.4560    -1.8610 H     1 <1>   0.0800 
 30 H        3.5200    -0.4820     0.6190 H     1 <1>   0.0800 
 31 H        1.9740    -0.3450    -0.1880 H     1 <1>   0.0800 
 32 H       -4.9960    -3.1220    -2.4380 H     1 <1>   0.1500 
 33 H       -6.4240    -1.7660     2.4880 H     1 <1>   0.4500 
 34 H       -8.1170    -1.9280     1.1470 H     1 <1>   0.1500 
 35 H       -7.3760    -2.9430    -2.9070 H     1 <1>   0.1500 
 36 H       -8.9540    -2.3470    -1.1160 H     1 <1>   0.1500 
@<TRIPOS>BOND
  1   1   2  2   
  2   2   3  am  
  3   2   4  1   
  4   3   5  1   
  5   3   6  1   
  6   4   7  1   
  7   4   8  1   
  8   4  21  1   
  9   5   9  1   
 10   5  22  1   
 11   5  23  1   
 12   6  10  1   
 13   6  24  1   
 14   6  25  1   
 15   7  11  1   
 16   8  12  1   
 17   8  26  1   
 18   8  27  1   
 19   9  13  1   
 20   9  28  1   
 21   9  29  1   
 22  10  13  1   
 23  10  30  1   
 24  10  31  1   
 25  11  12  2   
 26  12  14  1   
 27  14  15  ar  
 28  14  16  ar  
 29  15  17  1   
 30  15  18  ar  
 31  16  19  ar  
 32  16  32  1   
 33  17  33  1   
 34  18  20  ar  
 35  18  34  1   
 36  19  20  ar  
 37  19  35  1   
 38  20  36  1   
@<TRIPOS>SUBSTRUCTURE
  1 ****   7 GROUP 4 **** **** 0

# MOE 2024.06 (io_trps.svl 2023.06)
