@<TRIPOS>MOLECULE
(3-Cyclopropyl-5-hydroxy-5-trifluoromethyl-4,5-dihydro-pyrazol-1-yl)-thiophen-2-
31 33 1 0 0 
SMALL
USER_CHARGES


@<TRIPOS>ATOM
  1 S       -1.0010     0.4740     0.7040 S.3   1 <1>  -0.0800 
  2 C       -0.0700     1.1500    -0.6420 C.2   1 <1>  -0.0450 
  3 C       -0.8300    -1.1600     0.1030 C.2   1 <1>  -0.1100 
  4 C        0.1950     2.5670    -0.7250 C.2   1 <1>   0.7150 
  5 C        0.3220     0.1260    -1.4440 C.2   1 <1>  -0.1500 
  6 C       -0.1080    -1.1690    -1.0310 C.2   1 <1>  -0.1500 
  7 O        1.2100     2.9320    -1.2830 O.2   1 <1>  -0.5700 
  8 N       -0.6690     3.5310    -0.2140 N.am  1 <1>  -0.2980 
  9 N       -2.0260     3.3650     0.0180 N.2   1 <1>  -0.5120 
 10 C       -0.2300     4.8950     0.2230 C.3   1 <1>   0.5800 
 11 C       -2.5420     4.4500     0.3880 C.2   1 <1>   0.3890 
 12 O        0.2990     4.6740     1.4970 O.3   1 <1>  -0.6800 
 13 C        0.7100     5.7650    -0.7240 C.3   1 <1>   1.0200 
 14 C       -1.5810     5.5990     0.4530 C.3   1 <1>  -0.0990 
 15 C       -4.0010     4.6910     0.7420 C.3   1 <1>  -0.1000 
 16 F        0.3490     5.7070    -2.0050 F     1 <1>  -0.3400 
 17 F        2.0060     5.4670    -0.6780 F     1 <1>  -0.3400 
 18 F        0.6500     7.0610    -0.4120 F     1 <1>  -0.3400 
 19 C       -5.0980     3.8690     0.1390 C.3   1 <1>  -0.2000 
 20 C       -4.9370     5.3090    -0.2510 C.3   1 <1>  -0.2000 
 21 H       -1.2930    -1.9500     0.6680 H     1 <1>   0.1500 
 22 H        0.9200     0.2530    -2.3300 H     1 <1>   0.1500 
 23 H        0.1440    -2.0460    -1.6020 H     1 <1>   0.1500 
 24 H       -0.1600     3.8990     1.8760 H     1 <1>   0.4000 
 25 H       -1.8160     6.2810    -0.3440 H     1 <1>   0.0800 
 26 H       -1.6190     6.1180     1.3930 H     1 <1>   0.0800 
 27 H       -4.1200     4.9650     1.7750 H     1 <1>   0.1000 
 28 H       -5.9310     3.5860     0.7590 H     1 <1>   0.1000 
 29 H       -4.8370     3.1030    -0.5730 H     1 <1>   0.1000 
 30 H       -4.5900     5.5240    -1.2470 H     1 <1>   0.1000 
 31 H       -5.6680     6.0200     0.0940 H     1 <1>   0.1000 
@<TRIPOS>BOND
  1   1   2  1   
  2   1   3  1   
  3   2   4  1   
  4   2   5  2   
  5   3   6  2   
  6   3  21  1   
  7   4   7  2   
  8   4   8  am  
  9   5   6  1   
 10   5  22  1   
 11   6  23  1   
 12   8   9  1   
 13   8  10  1   
 14   9  11  2   
 15  10  12  1   
 16  10  13  1   
 17  10  14  1   
 18  11  14  1   
 19  11  15  1   
 20  12  24  1   
 21  13  16  1   
 22  13  17  1   
 23  13  18  1   
 24  14  25  1   
 25  14  26  1   
 26  15  19  1   
 27  15  20  1   
 28  15  27  1   
 29  19  20  1   
 30  19  28  1   
 31  19  29  1   
 32  20  30  1   
 33  20  31  1   
@<TRIPOS>SUBSTRUCTURE
  1 ****   8 GROUP 4 **** **** 0

# MOE 2024.06 (io_trps.svl 2023.06)
