@<TRIPOS>MOLECULE
N-(1-Isopropyl-2-methyl-propyl)-2-(2-oxo-2H-benzo[cd]indol-1-yl)-acetamide
48 50 1 0 0 
SMALL
USER_CHARGES


@<TRIPOS>ATOM
  1 O        4.1170    -2.5740     2.0790 O.2   1 <1>  -0.5700 
  2 C        3.5990    -2.5630     0.9750 C.2   1 <1>   0.5440 
  3 N        3.6930    -1.5000     0.1040 N.am  1 <1>  -0.4770 
  4 C        2.8490    -3.6180     0.3480 C.ar  1 <1>   0.0860 
  5 C        3.0620    -1.8420    -1.0910 C.ar  1 <1>   0.1170 
  6 C        4.4430    -0.2400     0.3720 C.3   1 <1>   0.2010 
  7 C        2.5490    -3.1240    -0.9190 C.ar  1 <1>   0.0000 
  8 C        2.4060    -4.8800     0.6750 C.ar  1 <1>  -0.1500 
  9 C        2.8780    -1.2060    -2.2950 C.ar  1 <1>  -0.1500 
 10 C        5.9530    -0.4230     0.2780 C.2   1 <1>   0.5690 
 11 C        1.8360    -3.8190    -1.8920 C.ar  1 <1>   0.0000 
 12 C        1.6770    -5.6200    -0.2720 C.ar  1 <1>  -0.1500 
 13 C        2.1650    -1.8700    -3.3080 C.ar  1 <1>  -0.1500 
 14 O        6.5530     0.2440    -0.5290 O.2   1 <1>  -0.5700 
 15 N        6.5350    -1.3300     1.1120 N.am  1 <1>  -0.7300 
 16 C        1.6560    -3.1380    -3.1150 C.ar  1 <1>  -0.1500 
 17 C        1.3980    -5.1060    -1.5210 C.ar  1 <1>  -0.1500 
 18 C        7.9420    -1.7790     1.2980 C.3   1 <1>   0.2200 
 19 C        8.9220    -0.6610     1.7760 C.3   1 <1>  -0.0800 
 20 C        8.3910    -2.7590     0.1740 C.3   1 <1>  -0.0800 
 21 C        8.3230     0.1550     2.9350 C.3   1 <1>  -0.2400 
 22 C        9.4850     0.3070     0.7220 C.3   1 <1>  -0.2400 
 23 C        9.8310    -3.2610     0.3720 C.3   1 <1>  -0.2400 
 24 C        8.2050    -2.2780    -1.2760 C.3   1 <1>  -0.2400 
 25 H        4.2020     0.1060     1.3600 H     1 <1>   0.0800 
 26 H        4.1380     0.5140    -0.3300 H     1 <1>   0.0800 
 27 H        2.6180    -5.2950     1.6450 H     1 <1>   0.1500 
 28 H        3.2710    -0.2210    -2.4690 H     1 <1>   0.1500 
 29 H        1.3350    -6.6050    -0.0040 H     1 <1>   0.1500 
 30 H        2.0200    -1.3680    -4.2490 H     1 <1>   0.1500 
 31 H        5.8740    -1.8670     1.6910 H     1 <1>   0.3700 
 32 H        1.1110    -3.6330    -3.8990 H     1 <1>   0.1500 
 33 H        0.8400    -5.6830    -2.2380 H     1 <1>   0.1500 
 34 H        7.8880    -2.4180     2.1630 H     1 <1>   0.0800 
 35 H        9.7760    -1.1730     2.1850 H     1 <1>   0.0800 
 36 H        7.7600    -3.6250     0.2790 H     1 <1>   0.0800 
 37 H        7.5070     0.7630     2.5840 H     1 <1>   0.0800 
 38 H        9.0680     0.8030     3.3610 H     1 <1>   0.0800 
 39 H        7.9590    -0.4980     3.7070 H     1 <1>   0.0800 
 40 H        8.7140     0.9210     0.3010 H     1 <1>   0.0800 
 41 H        9.9800    -0.2220    -0.0680 H     1 <1>   0.0800 
 42 H       10.2090     0.9600     1.1760 H     1 <1>   0.0800 
 43 H       10.5430    -2.4740     0.2000 H     1 <1>   0.0800 
 44 H       10.0420    -4.0610    -0.3160 H     1 <1>   0.0800 
 45 H        9.9640    -3.6370     1.3720 H     1 <1>   0.0800 
 46 H        8.6940    -1.3390    -1.4500 H     1 <1>   0.0800 
 47 H        7.1600    -2.1570    -1.4960 H     1 <1>   0.0800 
 48 H        8.5990    -3.0010    -1.9670 H     1 <1>   0.0800 
@<TRIPOS>BOND
  1   1   2  2   
  2   2   3  am  
  3   2   4  1   
  4   3   5  1   
  5   3   6  1   
  6   4   7  ar  
  7   4   8  ar  
  8   5   7  ar  
  9   5   9  ar  
 10   6  10  1   
 11   6  25  1   
 12   6  26  1   
 13   7  11  ar  
 14   8  12  ar  
 15   8  27  1   
 16   9  13  ar  
 17   9  28  1   
 18  10  14  2   
 19  10  15  am  
 20  11  16  ar  
 21  11  17  ar  
 22  12  17  ar  
 23  12  29  1   
 24  13  16  ar  
 25  13  30  1   
 26  15  18  1   
 27  15  31  1   
 28  16  32  1   
 29  17  33  1   
 30  18  19  1   
 31  18  20  1   
 32  18  34  1   
 33  19  21  1   
 34  19  22  1   
 35  19  35  1   
 36  20  23  1   
 37  20  24  1   
 38  20  36  1   
 39  21  37  1   
 40  21  38  1   
 41  21  39  1   
 42  22  40  1   
 43  22  41  1   
 44  22  42  1   
 45  23  43  1   
 46  23  44  1   
 47  23  45  1   
 48  24  46  1   
 49  24  47  1   
 50  24  48  1   
@<TRIPOS>SUBSTRUCTURE
  1 ****   3 GROUP 4 **** **** 0

# MOE 2024.06 (io_trps.svl 2023.06)
