@<TRIPOS>MOLECULE
2-[2-(Hydroxy-phenyl-methyl)-benzoimidazol-1-yl]-1-piperidin-1-yl-ethanone
49 52 1 0 0 
SMALL
USER_CHARGES


@<TRIPOS>ATOM
  1 O       -0.6120     0.4560    -2.3230 O.2   1 <1>  -0.5700 
  2 C       -1.4910    -0.0120    -1.6340 C.2   1 <1>   0.5690 
  3 N       -1.2350    -0.9670    -0.6810 N.am  1 <1>  -0.6600 
  4 C       -2.8910     0.5160    -1.8930 C.3   1 <1>   0.1570 
  5 C       -2.2440    -1.5550     0.2450 C.3   1 <1>   0.1400 
  6 C        0.1600    -1.3720    -0.3510 C.3   1 <1>   0.1400 
  7 N       -3.3580     1.4020    -0.8010 N.pl3 1 <1>   0.0480 
  8 C       -1.9580    -1.0760     1.6700 C.3   1 <1>  -0.1600 
  9 C        0.4910    -0.9320     1.0790 C.3   1 <1>  -0.1600 
 10 C       -4.5100     1.1910    -0.0990 C.ar  1 <1>  -0.1520 
 11 C       -2.8580     2.5940    -0.3340 C.2   1 <1>   0.0060 
 12 C       -0.5320    -1.4500     2.1000 C.3   1 <1>  -0.1600 
 13 C       -4.6190     2.2580     0.7690 C.ar  1 <1>   0.2270 
 14 C       -5.4910     0.1910    -0.1200 C.ar  1 <1>  -0.1500 
 15 N       -3.5850     3.1180     0.5990 N.2   1 <1>  -0.5650 
 16 C       -1.5840     3.3050    -0.8350 C.3   1 <1>   0.5230 
 17 C       -5.6920     2.3440     1.6540 C.ar  1 <1>  -0.1500 
 18 C       -6.5510     0.2810     0.7550 C.ar  1 <1>  -0.1500 
 19 O       -1.3870     3.0670    -2.1870 O.3   1 <1>  -0.6800 
 20 C       -0.3120     2.9710    -0.0360 C.ar  1 <1>  -0.1440 
 21 C       -6.6520     1.3560     1.6460 C.ar  1 <1>  -0.1500 
 22 C       -0.3640     2.9850     1.3540 C.ar  1 <1>  -0.1500 
 23 C        0.9130     2.6960    -0.6410 C.ar  1 <1>  -0.1500 
 24 C        0.7630     2.7350     2.1170 C.ar  1 <1>  -0.1500 
 25 C        2.0420     2.4430     0.1190 C.ar  1 <1>  -0.1500 
 26 C        1.9700     2.4640     1.5000 C.ar  1 <1>  -0.1500 
 27 H       -3.5620    -0.3110    -2.0090 H     1 <1>   0.0800 
 28 H       -2.9000     1.0720    -2.8110 H     1 <1>   0.0800 
 29 H       -2.1730    -2.6290     0.2030 H     1 <1>   0.0800 
 30 H       -3.2430    -1.2840    -0.0340 H     1 <1>   0.0800 
 31 H        0.8620    -0.9250    -1.0350 H     1 <1>   0.0800 
 32 H        0.2470    -2.4420    -0.4360 H     1 <1>   0.0800 
 33 H       -2.6680    -1.5180     2.3460 H     1 <1>   0.0800 
 34 H       -2.0850    -0.0070     1.7140 H     1 <1>   0.0800 
 35 H        0.5030     0.1410     1.1020 H     1 <1>   0.0800 
 36 H        1.4760    -1.2750     1.3410 H     1 <1>   0.0800 
 37 H       -0.4490    -2.5200     2.1770 H     1 <1>   0.0800 
 38 H       -0.3220    -1.0280     3.0680 H     1 <1>   0.0800 
 39 H       -5.4270    -0.6330    -0.8060 H     1 <1>   0.1500 
 40 H       -1.7560     4.3640    -0.7430 H     1 <1>   0.0800 
 41 H       -5.7440     3.1840     2.3200 H     1 <1>   0.1500 
 42 H       -7.3170    -0.4750     0.7620 H     1 <1>   0.1500 
 43 H       -0.9090     2.2070    -2.2730 H     1 <1>   0.4000 
 44 H       -7.4880     1.4060     2.3220 H     1 <1>   0.1500 
 45 H       -1.2910     3.2000     1.8590 H     1 <1>   0.1500 
 46 H        1.0120     2.6820    -1.7120 H     1 <1>   0.1500 
 47 H        0.6980     2.7530     3.1900 H     1 <1>   0.1500 
 48 H        2.9780     2.2320    -0.3680 H     1 <1>   0.1500 
 49 H        2.8490     2.2710     2.0900 H     1 <1>   0.1500 
@<TRIPOS>BOND
  1   1   2  2   
  2   2   3  am  
  3   2   4  1   
  4   3   5  1   
  5   3   6  1   
  6   4   7  1   
  7   4  27  1   
  8   4  28  1   
  9   5   8  1   
 10   5  29  1   
 11   5  30  1   
 12   6   9  1   
 13   6  31  1   
 14   6  32  1   
 15   7  10  1   
 16   7  11  1   
 17   8  12  1   
 18   8  33  1   
 19   8  34  1   
 20   9  12  1   
 21   9  35  1   
 22   9  36  1   
 23  10  13  ar  
 24  10  14  ar  
 25  11  15  2   
 26  11  16  1   
 27  12  37  1   
 28  12  38  1   
 29  13  15  1   
 30  13  17  ar  
 31  14  18  ar  
 32  14  39  1   
 33  16  19  1   
 34  16  20  1   
 35  16  40  1   
 36  17  21  ar  
 37  17  41  1   
 38  18  21  ar  
 39  18  42  1   
 40  19  43  1   
 41  20  22  ar  
 42  20  23  ar  
 43  21  44  1   
 44  22  24  ar  
 45  22  45  1   
 46  23  25  ar  
 47  23  46  1   
 48  24  26  ar  
 49  24  47  1   
 50  25  26  ar  
 51  25  48  1   
 52  26  49  1   
@<TRIPOS>SUBSTRUCTURE
  1 ****   7 GROUP 4 **** **** 0

# MOE 2024.06 (io_trps.svl 2023.06)
