@<TRIPOS>MOLECULE
(4-Chloro-benzyl)-(4-dimethylamino-6-morpholin-4-yl-[1,3,5]triazin-2-yl)-cyanami
46 48 1 0 0 
SMALL
USER_CHARGES


@<TRIPOS>ATOM
  1 CL      -0.3380     3.3230    -2.7420 Cl    1 <1>  -0.1770 
  2 C       -1.7440     2.9980    -1.7630 C.ar  1 <1>   0.1770 
  3 C       -2.8260     3.8550    -1.8220 C.ar  1 <1>  -0.1500 
  4 C       -1.7550     1.8870    -0.9410 C.ar  1 <1>  -0.1500 
  5 C       -3.9410     3.5950    -1.0420 C.ar  1 <1>  -0.1500 
  6 C       -2.8730     1.6310    -0.1650 C.ar  1 <1>  -0.1500 
  7 C       -3.9700     2.4810    -0.2100 C.ar  1 <1>  -0.1430 
  8 C       -5.1900     2.1900     0.6540 C.3   1 <1>   0.3390 
  9 N       -6.2440     1.5290    -0.1420 N.pl3 1 <1>  -0.6810 
 10 C       -7.0670     2.3740    -0.8960 C.1   1 <1>   0.6830 
 11 C       -6.4660     0.1760    -0.0800 C.ar  1 <1>   0.8190 
 12 N       -7.7010     3.1160    -1.4820 N.1   1 <1>  -0.5570 
 13 N       -5.4440    -0.5790     0.2190 N.ar  1 <1>  -0.6200 
 14 N       -7.6810    -0.2400    -0.3110 N.ar  1 <1>  -0.6200 
 15 C       -5.7220    -1.8530     0.2730 C.ar  1 <1>   0.7200 
 16 C       -7.8390    -1.5320    -0.2170 C.ar  1 <1>   0.7200 
 17 N       -6.8970    -2.3860     0.0810 N.ar  1 <1>  -0.6200 
 18 N       -4.6830    -2.7020     0.5600 N.pl3 1 <1>  -0.8380 
 19 N       -9.1040    -2.0320    -0.4500 N.pl3 1 <1>  -0.8380 
 20 C       -4.9160    -4.1020     1.0250 C.3   1 <1>   0.2090 
 21 C       -3.3250    -2.4990    -0.0270 C.3   1 <1>   0.2090 
 22 C       -9.3590    -3.4820    -0.6870 C.3   1 <1>   0.1290 
 23 C      -10.2970    -1.1460    -0.5820 C.3   1 <1>   0.1290 
 24 C       -3.7360    -4.5990     1.8790 C.3   1 <1>   0.1200 
 25 C       -2.2420    -3.0790     0.8990 C.3   1 <1>   0.1200 
 26 O       -2.5150    -4.4170     1.2140 O.3   1 <1>  -0.5600 
 27 H       -2.7940     4.7120    -2.4700 H     1 <1>   0.1500 
 28 H       -0.9010     1.2350    -0.9140 H     1 <1>   0.1500 
 29 H       -4.7850     4.2620    -1.0910 H     1 <1>   0.1500 
 30 H       -2.8900     0.7660     0.4760 H     1 <1>   0.1500 
 31 H       -5.5710     3.1130     1.0590 H     1 <1>   0.0800 
 32 H       -4.9110     1.5690     1.4880 H     1 <1>   0.0800 
 33 H       -5.0360    -4.7450     0.1710 H     1 <1>   0.0800 
 34 H       -5.8180    -4.1510     1.6100 H     1 <1>   0.0800 
 35 H       -3.1310    -1.4550    -0.1890 H     1 <1>   0.0800 
 36 H       -3.2760    -2.9950    -0.9800 H     1 <1>   0.0800 
 37 H       -8.4720    -3.9730    -1.0500 H     1 <1>   0.0800 
 38 H      -10.1350    -3.6060    -1.4210 H     1 <1>   0.0800 
 39 H       -9.6650    -3.9480     0.2340 H     1 <1>   0.0800 
 40 H      -10.1850    -0.2660     0.0280 H     1 <1>   0.0800 
 41 H      -11.1830    -1.6660    -0.2610 H     1 <1>   0.0800 
 42 H      -10.4130    -0.8470    -1.6090 H     1 <1>   0.0800 
 43 H       -3.8450    -5.6490     2.0850 H     1 <1>   0.0800 
 44 H       -3.7010    -4.0660     2.8130 H     1 <1>   0.0800 
 45 H       -2.1880    -2.5140     1.8130 H     1 <1>   0.0800 
 46 H       -1.2830    -3.0460     0.4130 H     1 <1>   0.0800 
@<TRIPOS>BOND
  1   1   2  1   
  2   2   3  ar  
  3   2   4  ar  
  4   3   5  ar  
  5   3  27  1   
  6   4   6  ar  
  7   4  28  1   
  8   5   7  ar  
  9   5  29  1   
 10   6   7  ar  
 11   6  30  1   
 12   7   8  1   
 13   8   9  1   
 14   8  31  1   
 15   8  32  1   
 16   9  10  1   
 17   9  11  1   
 18  10  12  3   
 19  11  13  ar  
 20  11  14  ar  
 21  13  15  ar  
 22  14  16  ar  
 23  15  17  ar  
 24  15  18  1   
 25  16  17  ar  
 26  16  19  1   
 27  18  20  1   
 28  18  21  1   
 29  19  22  1   
 30  19  23  1   
 31  20  24  1   
 32  20  33  1   
 33  20  34  1   
 34  21  25  1   
 35  21  35  1   
 36  21  36  1   
 37  22  37  1   
 38  22  38  1   
 39  22  39  1   
 40  23  40  1   
 41  23  41  1   
 42  23  42  1   
 43  24  26  1   
 44  24  43  1   
 45  24  44  1   
 46  25  26  1   
 47  25  45  1   
 48  25  46  1   
@<TRIPOS>SUBSTRUCTURE
  1 ****  13 GROUP 4 **** **** 0

# MOE 2024.06 (io_trps.svl 2023.06)
