@<TRIPOS>MOLECULE
4-(3-Fluoro-phenyl)-3,6-dihydroxy-6-methyl-4,5,6,7-tetrahydro-1H-indazole-5-carb
40 42 1 0 0 
SMALL
USER_CHARGES


@<TRIPOS>ATOM
  1 F       -3.2810    -0.5430     0.3370 F     1 <1>  -0.1900 
  2 C       -2.5360     0.5140     0.5170 C.ar  1 <1>   0.1900 
  3 C       -2.9160     1.7030    -0.0740 C.ar  1 <1>  -0.1500 
  4 C       -1.3970     0.4020     1.2890 C.ar  1 <1>  -0.1500 
  5 C       -2.1330     2.8360     0.1090 C.ar  1 <1>  -0.1440 
  6 C       -0.6140     1.5280     1.4700 C.ar  1 <1>  -0.1500 
  7 C       -0.9790     2.7320     0.8850 C.ar  1 <1>  -0.1500 
  8 C       -2.5750     4.1430    -0.5590 C.3   1 <1>   0.2450 
  9 C       -1.4220     5.1200    -0.6940 C.2   1 <1>  -0.1810 
 10 C       -3.7700     4.8010     0.1810 C.3   1 <1>  -0.0190 
 11 C       -0.2410     5.0240    -1.4170 C.2   1 <1>   0.3510 
 12 C       -1.3420     6.3230    -0.0950 C.2   1 <1>  -0.3320 
 13 C       -4.6840     5.4160    -0.8630 C.2   1 <1>   0.6590 
 14 C       -3.3650     5.8010     1.3030 C.3   1 <1>   0.2800 
 15 O        0.1270     3.9490    -2.1340 O.3   1 <1>  -0.5120 
 16 N        0.5160     6.0620    -1.3070 N.2   1 <1>  -0.7070 
 17 N       -0.1760     6.8850    -0.4880 N.pl3 1 <1>   0.3000 
 18 C       -2.3940     6.9110     0.8290 C.3   1 <1>   0.0200 
 19 O       -4.6940     6.5870    -1.1410 O.2   1 <1>  -0.5700 
 20 O       -5.4820     4.5520    -1.4800 O.3   1 <1>  -0.4300 
 21 O       -2.6940     5.0730     2.2640 O.3   1 <1>  -0.6800 
 22 C       -4.5710     6.3960     2.0390 C.3   1 <1>  -0.2400 
 23 C       -6.3870     4.9620    -2.4860 C.3   1 <1>   0.0400 
 24 H       -3.8160     1.7280    -0.6640 H     1 <1>   0.1500 
 25 H       -1.1340    -0.5410     1.7330 H     1 <1>   0.1500 
 26 H        0.2810     1.4700     2.0670 H     1 <1>   0.1500 
 27 H       -0.3380     3.5830     1.0500 H     1 <1>   0.1500 
 28 H       -2.8820     3.8860    -1.5590 H     1 <1>   0.0800 
 29 H       -4.3510     4.0260     0.6450 H     1 <1>   0.0800 
 30 H       -0.3000     3.1550    -1.7760 H     1 <1>   0.4500 
 31 H        0.1780     7.8120    -0.2210 H     1 <1>   0.2700 
 32 H       -2.9330     7.6730     0.2960 H     1 <1>   0.0800 
 33 H       -1.9350     7.3770     1.6830 H     1 <1>   0.0800 
 34 H       -1.8820     4.6960     1.8740 H     1 <1>   0.4000 
 35 H       -5.1400     7.0380     1.3920 H     1 <1>   0.0800 
 36 H       -4.2410     6.9820     2.8780 H     1 <1>   0.0800 
 37 H       -5.2170     5.6130     2.3950 H     1 <1>   0.0800 
 38 H       -6.9230     4.0980    -2.8370 H     1 <1>   0.0800 
 39 H       -5.8310     5.4080    -3.2940 H     1 <1>   0.0800 
 40 H       -7.0720     5.6790    -2.0680 H     1 <1>   0.0800 
@<TRIPOS>BOND
  1   1   2  1   
  2   2   3  ar  
  3   2   4  ar  
  4   3   5  ar  
  5   3  24  1   
  6   4   6  ar  
  7   4  25  1   
  8   5   7  ar  
  9   5   8  1   
 10   6   7  ar  
 11   6  26  1   
 12   7  27  1   
 13   8   9  1   
 14   8  10  1   
 15   8  28  1   
 16   9  11  1   
 17   9  12  2   
 18  10  13  1   
 19  10  14  1   
 20  10  29  1   
 21  11  15  1   
 22  11  16  2   
 23  12  17  1   
 24  12  18  1   
 25  13  19  2   
 26  13  20  1   
 27  14  18  1   
 28  14  21  1   
 29  14  22  1   
 30  15  30  1   
 31  16  17  1   
 32  17  31  1   
 33  18  32  1   
 34  18  33  1   
 35  20  23  1   
 36  21  34  1   
 37  22  35  1   
 38  22  36  1   
 39  22  37  1   
 40  23  38  1   
 41  23  39  1   
 42  23  40  1   
@<TRIPOS>SUBSTRUCTURE
  1 ****   8 GROUP 4 **** **** 0

# MOE 2024.06 (io_trps.svl 2023.06)
