@<TRIPOS>MOLECULE
N-(2-Hydroxy-quinolin-3-ylmethyl)-3,4-dimethoxy-N-(tetrahydro-furan-2-ylmethyl)-
57 60 1 0 0 
SMALL
USER_CHARGES


@<TRIPOS>ATOM
  1 O        1.2070    -0.4640    -2.9730 O.2   1 <1>  -0.5700 
  2 C        1.6360    -0.7270    -1.8660 C.2   1 <1>   0.5440 
  3 N        2.0140     0.3080    -1.0350 N.am  1 <1>  -0.6600 
  4 C        1.7600    -2.1170    -1.4760 C.ar  1 <1>   0.0860 
  5 C        1.7220     1.7320    -1.3880 C.3   1 <1>   0.2780 
  6 C        2.8670     0.1260     0.1870 C.3   1 <1>   0.1400 
  7 C        1.1930    -2.6100    -0.3040 C.ar  1 <1>  -0.1500 
  8 C        2.4600    -3.0180    -2.2740 C.ar  1 <1>  -0.1500 
  9 C        0.7070     2.3480    -0.4330 C.2   1 <1>  -0.1240 
 10 C        4.2700    -0.4010    -0.1530 C.3   1 <1>   0.2000 
 11 C        1.3360    -3.9280     0.0870 C.ar  1 <1>   0.0830 
 12 C        2.6050    -4.3440    -1.9130 C.ar  1 <1>  -0.1500 
 13 C        0.8080     3.7610    -0.2290 C.2   1 <1>   0.6160 
 14 C       -0.2650     1.6360     0.1970 C.2   1 <1>  -0.1780 
 15 O        5.0400    -0.4350     1.0020 O.3   1 <1>  -0.5600 
 16 C        5.0740     0.4720    -1.1070 C.3   1 <1>  -0.1600 
 17 O        0.7450    -4.2400     1.2740 O.3   1 <1>  -0.3630 
 18 C        2.0450    -4.8250    -0.7310 C.ar  1 <1>   0.0830 
 19 O        1.6470     4.4650    -0.7630 O.2   1 <1>  -0.5700 
 20 N       -0.0830     4.3570     0.6110 N.am  1 <1>  -0.5470 
 21 C       -1.1940     2.2740     1.0810 C.ar  1 <1>   0.0280 
 22 C        6.3970    -0.4140     0.6870 C.3   1 <1>   0.1200 
 23 C        6.5060     0.1320    -0.7360 C.3   1 <1>  -0.1600 
 24 C        1.3200    -5.1900     2.1450 C.3   1 <1>   0.0400 
 25 O        2.1570    -6.1330    -0.3750 O.3   1 <1>  -0.3630 
 26 C       -1.0850     3.6610     1.2780 C.ar  1 <1>   0.1170 
 27 C       -2.2010     1.5780     1.7510 C.ar  1 <1>  -0.1500 
 28 C        2.7170    -7.1080    -1.2270 C.3   1 <1>   0.0400 
 29 C       -1.9740     4.3110     2.1300 C.ar  1 <1>  -0.1500 
 30 C       -3.0750     2.2330     2.5920 C.ar  1 <1>  -0.1500 
 31 C       -2.9620     3.6050     2.7830 C.ar  1 <1>  -0.1500 
 32 H        1.3440     1.8140    -2.3930 H     1 <1>   0.0800 
 33 H        2.6450     2.2840    -1.3530 H     1 <1>   0.0800 
 34 H        2.3900    -0.5570     0.8650 H     1 <1>   0.0800 
 35 H        2.9700     1.0690     0.6960 H     1 <1>   0.0800 
 36 H        0.6240    -1.9480     0.3230 H     1 <1>   0.1500 
 37 H        2.8910    -2.6620    -3.1950 H     1 <1>   0.1500 
 38 H        4.2160    -1.4100    -0.5220 H     1 <1>   0.0800 
 39 H        3.1560    -4.9880    -2.5720 H     1 <1>   0.1500 
 40 H       -0.3760     0.5770     0.0520 H     1 <1>   0.1500 
 41 H        4.8780     1.5100    -0.9030 H     1 <1>   0.0800 
 42 H        4.8450     0.2590    -2.1360 H     1 <1>   0.0800 
 43 H        0.0260     5.3630     0.7220 H     1 <1>   0.3700 
 44 H        6.7770    -1.4190     0.7550 H     1 <1>   0.0800 
 45 H        6.8970     0.2180     1.4000 H     1 <1>   0.0800 
 46 H        7.1490     0.9930    -0.7800 H     1 <1>   0.0800 
 47 H        6.8970    -0.6330    -1.3830 H     1 <1>   0.0800 
 48 H        0.9380    -5.0130     3.1330 H     1 <1>   0.0800 
 49 H        2.3900    -5.0760     2.1360 H     1 <1>   0.0800 
 50 H        1.0380    -6.1750     1.8190 H     1 <1>   0.0800 
 51 H       -2.2910     0.5160     1.6050 H     1 <1>   0.1500 
 52 H        2.6290    -8.0640    -0.7420 H     1 <1>   0.0800 
 53 H        3.7550    -6.8770    -1.3890 H     1 <1>   0.0800 
 54 H        2.1710    -7.1180    -2.1540 H     1 <1>   0.0800 
 55 H       -1.8870     5.3720     2.2770 H     1 <1>   0.1500 
 56 H       -3.8490     1.6870     3.1040 H     1 <1>   0.1500 
 57 H       -3.6490     4.1100     3.4410 H     1 <1>   0.1500 
@<TRIPOS>BOND
  1   1   2  2   
  2   2   3  am  
  3   2   4  1   
  4   3   5  1   
  5   3   6  1   
  6   4   7  ar  
  7   4   8  ar  
  8   5   9  1   
  9   5  32  1   
 10   5  33  1   
 11   6  10  1   
 12   6  34  1   
 13   6  35  1   
 14   7  11  ar  
 15   7  36  1   
 16   8  12  ar  
 17   8  37  1   
 18   9  13  1   
 19   9  14  2   
 20  10  15  1   
 21  10  16  1   
 22  10  38  1   
 23  11  17  1   
 24  11  18  ar  
 25  12  18  ar  
 26  12  39  1   
 27  13  19  2   
 28  13  20  am  
 29  14  21  1   
 30  14  40  1   
 31  15  22  1   
 32  16  23  1   
 33  16  41  1   
 34  16  42  1   
 35  17  24  1   
 36  18  25  1   
 37  20  26  1   
 38  20  43  1   
 39  21  26  ar  
 40  21  27  ar  
 41  22  23  1   
 42  22  44  1   
 43  22  45  1   
 44  23  46  1   
 45  23  47  1   
 46  24  48  1   
 47  24  49  1   
 48  24  50  1   
 49  25  28  1   
 50  26  29  ar  
 51  27  30  ar  
 52  27  51  1   
 53  28  52  1   
 54  28  53  1   
 55  28  54  1   
 56  29  31  ar  
 57  29  55  1   
 58  30  31  ar  
 59  30  56  1   
 60  31  57  1   
@<TRIPOS>SUBSTRUCTURE
  1 ****   3 GROUP 4 **** **** 0

# MOE 2024.06 (io_trps.svl 2023.06)
