@<TRIPOS>MOLECULE
2-(Tetrahydro-pyran-2-yl)-ethylamine
25 25 1 0 0 
SMALL
USER_CHARGES


@<TRIPOS>ATOM
  1 O        0.1460     0.2870    -0.4730 O.3   1 <1>  -0.5600 
  2 C        1.1070     0.9080     0.3110 C.3   1 <1>   0.2000 
  3 C       -1.1780     0.6280    -0.1880 C.3   1 <1>   0.1200 
  4 C        1.0460     2.4250     0.0480 C.3   1 <1>  -0.1600 
  5 C        2.4300     0.2290    -0.0700 C.3   1 <1>  -0.1600 
  6 C       -1.3890     2.1190    -0.4690 C.3   1 <1>  -0.1600 
  7 C       -0.3670     2.9660     0.2970 C.3   1 <1>  -0.1600 
  8 C        3.6730     0.8210     0.5890 C.3   1 <1>   0.3430 
  9 N        4.1820     1.9570    -0.2160 N.4   1 <1>  -0.8530 
 10 H        0.8740     0.7020     1.3440 H     1 <1>   0.0800 
 11 H       -1.3840     0.3890     0.8420 H     1 <1>   0.0800 
 12 H       -1.8150     0.0320    -0.8190 H     1 <1>   0.0800 
 13 H        1.3190     2.6200    -0.9750 H     1 <1>   0.0800 
 14 H        1.7220     2.9470     0.6990 H     1 <1>   0.0800 
 15 H        2.5420     0.2130    -1.1400 H     1 <1>   0.0800 
 16 H        2.3510    -0.7940     0.2550 H     1 <1>   0.0800 
 17 H       -2.3870     2.4010    -0.1840 H     1 <1>   0.0800 
 18 H       -1.2900     2.2880    -1.5270 H     1 <1>   0.0800 
 19 H       -0.4370     3.9950    -0.0140 H     1 <1>   0.0800 
 20 H       -0.5910     2.9200     1.3500 H     1 <1>   0.0800 
 21 H        4.4350     0.0580     0.6480 H     1 <1>   0.0800 
 22 H        3.4390     1.1390     1.5930 H     1 <1>   0.0800 
 23 H        4.4550     1.6370    -1.1530 H     1 <1>   0.4500 
 24 H        5.0010     2.3940     0.2230 H     1 <1>   0.4500 
 25 H        3.4560     2.6710    -0.3360 H     1 <1>   0.4500 
@<TRIPOS>BOND
  1   1   2  1   
  2   1   3  1   
  3   2   4  1   
  4   2   5  1   
  5   2  10  1   
  6   3   6  1   
  7   3  11  1   
  8   3  12  1   
  9   4   7  1   
 10   4  13  1   
 11   4  14  1   
 12   5   8  1   
 13   5  15  1   
 14   5  16  1   
 15   6   7  1   
 16   6  17  1   
 17   6  18  1   
 18   7  19  1   
 19   7  20  1   
 20   8   9  1   
 21   8  21  1   
 22   8  22  1   
 23   9  23  1   
 24   9  24  1   
 25   9  25  1   
@<TRIPOS>SUBSTRUCTURE
  1 ****   2 GROUP 4 **** **** 0

# MOE 2024.06 (io_trps.svl 2023.06)
