@<TRIPOS>MOLECULE
6-Oxo-2-piperidin-1-yl-3,4,5,6-tetrahydro-pyrimidine-4-carboxylic acid (4-ethoxy
50 52 1 0 0 
SMALL
USER_CHARGES


@<TRIPOS>ATOM
  1 O       -0.2480    -0.4740     0.3510 O.2   1 <1>  -0.5700 
  2 C       -0.1580    -1.6410     0.1240 C.2   1 <1>   0.8520 
  3 N       -1.2520    -2.3350    -0.2340 N.pl3 1 <1>  -0.8600 
  4 C        1.1660    -2.3540     0.2450 C.3   1 <1>  -0.0990 
  5 C       -1.2570    -3.5900    -0.6140 C.cat 1 <1>   1.2000 
  6 C        1.2430    -3.4500    -0.8170 C.3   1 <1>   0.3090 
  7 N       -2.3890    -4.2850    -0.7070 N.pl3 1 <1>  -0.7220 
  8 N       -0.0890    -4.1180    -0.8890 N.pl3 1 <1>  -0.8440 
  9 C        2.3660    -4.4690    -0.5340 C.2   1 <1>   0.5690 
 10 C       -2.4660    -5.7050    -1.1790 C.3   1 <1>   0.1680 
 11 C       -3.7360    -3.7860    -0.2790 C.3   1 <1>   0.1680 
 12 O        2.0250    -5.6160    -0.3570 O.2   1 <1>  -0.5700 
 13 N        3.6730    -4.0510    -0.4990 N.am  1 <1>  -0.5470 
 14 C       -2.9300    -6.5960    -0.0230 C.3   1 <1>  -0.1600 
 15 C       -4.2370    -4.6330     0.8950 C.3   1 <1>  -0.1600 
 16 C        4.8530    -4.7760    -0.2570 C.ar  1 <1>   0.1170 
 17 C       -4.2800    -6.1260     0.5390 C.3   1 <1>  -0.1600 
 18 C        5.9670    -4.0870     0.2100 C.ar  1 <1>  -0.1500 
 19 C        4.9710    -6.1460    -0.4790 C.ar  1 <1>  -0.1500 
 20 C        7.1590    -4.7460     0.4520 C.ar  1 <1>  -0.1500 
 21 C        6.1610    -6.8090    -0.2380 C.ar  1 <1>  -0.1500 
 22 C        7.2670    -6.1080     0.2320 C.ar  1 <1>   0.0820 
 23 O        8.4730    -6.6760     0.4960 O.3   1 <1>  -0.3620 
 24 C        8.6760    -8.0590     0.3280 C.3   1 <1>   0.1200 
 25 C       10.1170    -8.3750     0.7180 C.3   1 <1>  -0.2400 
 26 H       -2.1180    -1.8170    -0.1990 H     1 <1>   0.4500 
 27 H        1.2380    -2.7830     1.2280 H     1 <1>   0.0800 
 28 H        1.9690    -1.6510     0.1230 H     1 <1>   0.0800 
 29 H        1.4420    -3.0020    -1.7770 H     1 <1>   0.0800 
 30 H       -0.0130    -5.1290    -1.0330 H     1 <1>   0.4500 
 31 H       -1.5220    -6.0630    -1.5510 H     1 <1>   0.0800 
 32 H       -3.1760    -5.7710    -1.9870 H     1 <1>   0.0800 
 33 H       -4.4250    -3.8720    -1.1040 H     1 <1>   0.0800 
 34 H       -3.7120    -2.7520     0.0190 H     1 <1>   0.0800 
 35 H        3.8480    -3.0570    -0.6410 H     1 <1>   0.3700 
 36 H       -2.1870    -6.5890     0.7560 H     1 <1>   0.0800 
 37 H       -3.0250    -7.6100    -0.3700 H     1 <1>   0.0800 
 38 H       -5.2250    -4.3070     1.1740 H     1 <1>   0.0800 
 39 H       -3.5950    -4.4800     1.7450 H     1 <1>   0.0800 
 40 H       -4.5310    -6.7030     1.4140 H     1 <1>   0.0800 
 41 H       -5.0490    -6.2950    -0.1960 H     1 <1>   0.0800 
 42 H        5.9130    -3.0300     0.3920 H     1 <1>   0.1500 
 43 H        4.1340    -6.7090    -0.8490 H     1 <1>   0.1500 
 44 H        8.0180    -4.2100     0.8140 H     1 <1>   0.1500 
 45 H        6.2070    -7.8660    -0.4220 H     1 <1>   0.1500 
 46 H        8.4990    -8.3080    -0.7040 H     1 <1>   0.0800 
 47 H        7.9850    -8.5850     0.9650 H     1 <1>   0.0800 
 48 H       10.7970    -7.8320     0.0870 H     1 <1>   0.0800 
 49 H       10.3030    -9.4270     0.6000 H     1 <1>   0.0800 
 50 H       10.2870    -8.1080     1.7450 H     1 <1>   0.0800 
@<TRIPOS>BOND
  1   1   2  2   
  2   2   3  1   
  3   2   4  1   
  4   3   5  ar  
  5   3  26  1   
  6   4   6  1   
  7   4  27  1   
  8   4  28  1   
  9   5   7  ar  
 10   5   8  ar  
 11   6   8  1   
 12   6   9  1   
 13   6  29  1   
 14   7  10  1   
 15   7  11  1   
 16   8  30  1   
 17   9  12  2   
 18   9  13  am  
 19  10  14  1   
 20  10  31  1   
 21  10  32  1   
 22  11  15  1   
 23  11  33  1   
 24  11  34  1   
 25  13  16  1   
 26  13  35  1   
 27  14  17  1   
 28  14  36  1   
 29  14  37  1   
 30  15  17  1   
 31  15  38  1   
 32  15  39  1   
 33  16  18  ar  
 34  16  19  ar  
 35  17  40  1   
 36  17  41  1   
 37  18  20  ar  
 38  18  42  1   
 39  19  21  ar  
 40  19  43  1   
 41  20  22  ar  
 42  20  44  1   
 43  21  22  ar  
 44  21  45  1   
 45  22  23  1   
 46  23  24  1   
 47  24  25  1   
 48  24  46  1   
 49  24  47  1   
 50  25  48  1   
 51  25  49  1   
 52  25  50  1   
@<TRIPOS>SUBSTRUCTURE
  1 ****   9 GROUP 4 **** **** 0

# MOE 2024.06 (io_trps.svl 2023.06)
