@<TRIPOS>MOLECULE
2-Chloro-N-(1,2,3,4-tetrahydro-naphthalen-1-yl)-acetamide
29 30 1 0 0 
SMALL
USER_CHARGES


@<TRIPOS>ATOM
  1 CL      -3.2350     0.5630    -1.8470 Cl    1 <1>  -0.2900 
  2 C       -2.1600     0.3860    -0.4610 C.3   1 <1>   0.1910 
  3 C       -2.9370    -0.0430     0.7770 C.2   1 <1>   0.5690 
  4 O       -3.0380     0.7370     1.6910 O.2   1 <1>  -0.5700 
  5 N       -3.4880    -1.2740     0.8960 N.am  1 <1>  -0.7300 
  6 C       -3.5860    -2.3600    -0.0950 C.3   1 <1>   0.3640 
  7 C       -5.0270    -2.8690    -0.1430 C.ar  1 <1>  -0.1440 
  8 C       -2.5750    -3.4430     0.3020 C.3   1 <1>  -0.1600 
  9 C       -5.3280    -4.2290    -0.1050 C.ar  1 <1>  -0.1440 
 10 C       -6.0650    -1.9510    -0.2540 C.ar  1 <1>  -0.1500 
 11 C       -2.8670    -4.7620    -0.4190 C.3   1 <1>  -0.1600 
 12 C       -6.6500    -4.6430    -0.1610 C.ar  1 <1>  -0.1500 
 13 C       -4.2410    -5.2920     0.0010 C.3   1 <1>  -0.0170 
 14 C       -7.3810    -2.3720    -0.3110 C.ar  1 <1>  -0.1500 
 15 C       -7.6740    -3.7210    -0.2630 C.ar  1 <1>  -0.1500 
 16 H       -1.6940     1.3380    -0.2930 H     1 <1>   0.0800 
 17 H       -1.4160    -0.3450    -0.7120 H     1 <1>   0.0800 
 18 H       -4.0380    -1.4440     1.7400 H     1 <1>   0.3700 
 19 H       -3.3360    -1.9980    -1.0760 H     1 <1>   0.0800 
 20 H       -2.6250    -3.6120     1.3640 H     1 <1>   0.0800 
 21 H       -1.5830    -3.1090     0.0570 H     1 <1>   0.0800 
 22 H       -5.8530    -0.8960    -0.3010 H     1 <1>   0.1500 
 23 H       -2.1120    -5.4900    -0.1770 H     1 <1>   0.0800 
 24 H       -2.8540    -4.6050    -1.4840 H     1 <1>   0.0800 
 25 H       -6.8890    -5.6920    -0.1260 H     1 <1>   0.1500 
 26 H       -4.4960    -6.1360    -0.6150 H     1 <1>   0.0800 
 27 H       -4.1970    -5.6300     1.0220 H     1 <1>   0.0800 
 28 H       -8.1740    -1.6490    -0.3940 H     1 <1>   0.1500 
 29 H       -8.6970    -4.0520    -0.3060 H     1 <1>   0.1500 
@<TRIPOS>BOND
  1   1   2  1   
  2   2   3  1   
  3   2  16  1   
  4   2  17  1   
  5   3   4  2   
  6   3   5  am  
  7   5   6  1   
  8   5  18  1   
  9   6   7  1   
 10   6   8  1   
 11   6  19  1   
 12   7   9  ar  
 13   7  10  ar  
 14   8  11  1   
 15   8  20  1   
 16   8  21  1   
 17   9  12  ar  
 18   9  13  1   
 19  10  14  ar  
 20  10  22  1   
 21  11  13  1   
 22  11  23  1   
 23  11  24  1   
 24  12  15  ar  
 25  12  25  1   
 26  13  26  1   
 27  13  27  1   
 28  14  15  ar  
 29  14  28  1   
 30  15  29  1   
@<TRIPOS>SUBSTRUCTURE
  1 ****   7 GROUP 4 **** **** 0

# MOE 2024.06 (io_trps.svl 2023.06)
