@<TRIPOS>MOLECULE
N-Cyclopentyl-3-[3-(3,4-dimethoxy-phenyl)-[1,2,4]oxadiazol-5-yl]-propionamide
48 50 1 0 0 
SMALL
USER_CHARGES


@<TRIPOS>ATOM
  1 O        0.4670    -1.1420     2.0680 O.2   1 <1>  -0.5700 
  2 C        0.8540    -2.1290     1.5000 C.2   1 <1>   0.5690 
  3 N        2.0900    -2.1500     0.9530 N.am  1 <1>  -0.7300 
  4 C       -0.0760    -3.3180     1.3980 C.3   1 <1>  -0.0990 
  5 C        2.7850    -3.2030     0.1910 C.3   1 <1>   0.2200 
  6 C       -0.8260    -3.3010     0.0600 C.3   1 <1>   0.0200 
  7 C        4.1230    -3.4880     0.8610 C.3   1 <1>  -0.1600 
  8 C        3.1840    -2.6400    -1.1660 C.3   1 <1>  -0.1600 
  9 C       -1.6650    -4.5500    -0.1150 C.2   1 <1>   0.2980 
 10 C        5.0740    -2.3870     0.3770 C.3   1 <1>  -0.1600 
 11 C        4.4710    -1.8440    -0.9250 C.3   1 <1>  -0.1600 
 12 O       -1.0560    -5.6930    -0.2910 O.3   1 <1>  -0.0190 
 13 N       -2.9310    -4.6010    -0.1090 N.2   1 <1>  -0.5650 
 14 N       -2.0220    -6.5490    -0.4050 N.2   1 <1>  -0.4100 
 15 C       -3.1340    -5.9090    -0.2990 C.2   1 <1>   0.4620 
 16 C       -4.4610    -6.4980    -0.3700 C.ar  1 <1>   0.0540 
 17 C       -5.6170    -5.7270    -0.2460 C.ar  1 <1>  -0.1500 
 18 C       -4.6360    -7.8680    -0.5630 C.ar  1 <1>  -0.1500 
 19 C       -6.8850    -6.2770    -0.3070 C.ar  1 <1>   0.0820 
 20 C       -5.8930    -8.4380    -0.6380 C.ar  1 <1>  -0.1500 
 21 O       -7.9080    -5.3890    -0.1550 O.3   1 <1>  -0.3620 
 22 C       -7.0380    -7.6550    -0.5200 C.ar  1 <1>   0.0820 
 23 C       -9.0680    -5.7490     0.5620 C.3   1 <1>   0.0400 
 24 O       -8.2860    -8.1960    -0.6250 O.3   1 <1>  -0.3630 
 25 C       -8.4940    -9.5330    -1.0220 C.3   1 <1>   0.0400 
 26 H        2.6390    -1.2980     1.0810 H     1 <1>   0.3700 
 27 H       -0.7880    -3.2700     2.2030 H     1 <1>   0.0800 
 28 H        0.4820    -4.2270     1.5140 H     1 <1>   0.0800 
 29 H        2.1820    -4.0900     0.0980 H     1 <1>   0.0800 
 30 H       -0.1310    -3.2360    -0.7570 H     1 <1>   0.0800 
 31 H       -1.4660    -2.4360     0.0220 H     1 <1>   0.0800 
 32 H        4.4850    -4.4390     0.5110 H     1 <1>   0.0800 
 33 H        4.0430    -3.5240     1.9340 H     1 <1>   0.0800 
 34 H        2.4050    -2.0430    -1.6080 H     1 <1>   0.0800 
 35 H        3.4030    -3.4610    -1.8260 H     1 <1>   0.0800 
 36 H        6.0650    -2.7780     0.2190 H     1 <1>   0.0800 
 37 H        5.1250    -1.5990     1.1090 H     1 <1>   0.0800 
 38 H        4.2390    -0.7980    -0.8080 H     1 <1>   0.0800 
 39 H        5.1520    -1.9550    -1.7520 H     1 <1>   0.0800 
 40 H       -5.5320    -4.6660    -0.0950 H     1 <1>   0.1500 
 41 H       -3.7700    -8.4990    -0.6590 H     1 <1>   0.1500 
 42 H       -5.9560    -9.4990    -0.7900 H     1 <1>   0.1500 
 43 H       -9.5400    -4.8470     0.9090 H     1 <1>   0.0800 
 44 H       -8.7900    -6.3660     1.3970 H     1 <1>   0.0800 
 45 H       -9.7340    -6.2760    -0.0980 H     1 <1>   0.0800 
 46 H       -9.5540    -9.6950    -1.1060 H     1 <1>   0.0800 
 47 H       -8.0830   -10.1880    -0.2750 H     1 <1>   0.0800 
 48 H       -8.0250    -9.6910    -1.9770 H     1 <1>   0.0800 
@<TRIPOS>BOND
  1   1   2  2   
  2   2   3  am  
  3   2   4  1   
  4   3   5  1   
  5   3  26  1   
  6   4   6  1   
  7   4  27  1   
  8   4  28  1   
  9   5   7  1   
 10   5   8  1   
 11   5  29  1   
 12   6   9  1   
 13   6  30  1   
 14   6  31  1   
 15   7  10  1   
 16   7  32  1   
 17   7  33  1   
 18   8  11  1   
 19   8  34  1   
 20   8  35  1   
 21   9  12  1   
 22   9  13  2   
 23  10  11  1   
 24  10  36  1   
 25  10  37  1   
 26  11  38  1   
 27  11  39  1   
 28  12  14  1   
 29  13  15  1   
 30  14  15  2   
 31  15  16  1   
 32  16  17  ar  
 33  16  18  ar  
 34  17  19  ar  
 35  17  40  1   
 36  18  20  ar  
 37  18  41  1   
 38  19  21  1   
 39  19  22  ar  
 40  20  22  ar  
 41  20  42  1   
 42  21  23  1   
 43  22  24  1   
 44  23  43  1   
 45  23  44  1   
 46  23  45  1   
 47  24  25  1   
 48  25  46  1   
 49  25  47  1   
 50  25  48  1   
@<TRIPOS>SUBSTRUCTURE
  1 ****   9 GROUP 4 **** **** 0

# MOE 2024.06 (io_trps.svl 2023.06)
