@<TRIPOS>MOLECULE
4-(Toluene-4-sulfonyl)-piperazine-1-sulfonic acid dimethylamide
43 44 1 0 0 
SMALL
USER_CHARGES


@<TRIPOS>ATOM
  1 S        0.5430    -0.2550    -1.1850 S.o2  1 <1>   1.5760 
  2 O        0.8200    -1.5030    -1.8590 O.2   1 <1>  -0.6500 
  3 O        0.3160     0.9570    -1.9400 O.2   1 <1>  -0.6500 
  4 N        1.7820     0.0270    -0.0790 N.am  1 <1>  -0.8490 
  5 N       -0.7570    -0.4730    -0.1240 N.am  1 <1>  -0.8490 
  6 C        2.9890     0.5140    -0.7600 C.3   1 <1>   0.1960 
  7 C        2.1070    -1.1820     0.6970 C.3   1 <1>   0.1960 
  8 C       -1.1440     0.7710     0.5470 C.3   1 <1>   0.1160 
  9 C       -1.9120    -1.0580    -0.8060 C.3   1 <1>   0.1160 
 10 C        4.1290     0.7830     0.2410 C.3   1 <1>   0.1960 
 11 C        3.2490    -0.9220     1.6970 C.3   1 <1>   0.1960 
 12 N        4.4610    -0.4220     1.0250 N.am  1 <1>  -0.8490 
 13 S        5.7080    -0.1470     2.1390 S.o2  1 <1>   1.4470 
 14 O        5.8440    -1.3620     2.9130 O.2   1 <1>  -0.6500 
 15 O        5.3880     1.0930     2.8150 O.2   1 <1>  -0.6500 
 16 C        7.1640     0.0660     1.0780 C.ar  1 <1>  -0.0090 
 17 C        7.8440     1.2770     1.0170 C.ar  1 <1>  -0.1500 
 18 C        7.6240    -0.9760     0.2820 C.ar  1 <1>  -0.1500 
 19 C        8.9420     1.4430     0.1910 C.ar  1 <1>  -0.1500 
 20 C        8.7220    -0.8180    -0.5450 C.ar  1 <1>  -0.1500 
 21 C        9.3880     0.3940    -0.5950 C.ar  1 <1>  -0.1430 
 22 C       10.5930     0.5710    -1.5010 C.3   1 <1>  -0.0970 
 23 H        2.7610     1.4290    -1.2790 H     1 <1>   0.0800 
 24 H        3.3190    -0.2090    -1.4880 H     1 <1>   0.0800 
 25 H        2.4020    -1.9820     0.0370 H     1 <1>   0.0800 
 26 H        1.2360    -1.5060     1.2400 H     1 <1>   0.0800 
 27 H       -0.3010     1.1820     1.0770 H     1 <1>   0.0800 
 28 H       -1.9280     0.5780     1.2590 H     1 <1>   0.0800 
 29 H       -1.4880     1.4980    -0.1700 H     1 <1>   0.0800 
 30 H       -1.6420    -2.0090    -1.2340 H     1 <1>   0.0800 
 31 H       -2.2530    -0.4060    -1.5940 H     1 <1>   0.0800 
 32 H       -2.7140    -1.2180    -0.1060 H     1 <1>   0.0800 
 33 H        3.8260     1.5830     0.8960 H     1 <1>   0.0800 
 34 H        4.9970     1.1090    -0.3050 H     1 <1>   0.0800 
 35 H        3.4750    -1.8450     2.2050 H     1 <1>   0.0800 
 36 H        2.9160    -0.2100     2.4340 H     1 <1>   0.0800 
 37 H        7.5110     2.1030     1.6240 H     1 <1>   0.1500 
 38 H        7.1130    -1.9240     0.3130 H     1 <1>   0.1500 
 39 H        9.4490     2.3920     0.1640 H     1 <1>   0.1500 
 40 H        9.0570    -1.6440    -1.1490 H     1 <1>   0.1500 
 41 H       10.2720     0.8930    -2.4760 H     1 <1>   0.0800 
 42 H       11.1280    -0.3570    -1.6010 H     1 <1>   0.0800 
 43 H       11.2660     1.3060    -1.0960 H     1 <1>   0.0800 
@<TRIPOS>BOND
  1   1   2  2   
  2   1   3  2   
  3   1   4  am  
  4   1   5  am  
  5   4   6  1   
  6   4   7  1   
  7   5   8  1   
  8   5   9  1   
  9   6  10  1   
 10   6  23  1   
 11   6  24  1   
 12   7  11  1   
 13   7  25  1   
 14   7  26  1   
 15   8  27  1   
 16   8  28  1   
 17   8  29  1   
 18   9  30  1   
 19   9  31  1   
 20   9  32  1   
 21  10  12  1   
 22  10  33  1   
 23  10  34  1   
 24  11  12  1   
 25  11  35  1   
 26  11  36  1   
 27  12  13  am  
 28  13  14  2   
 29  13  15  2   
 30  13  16  1   
 31  16  17  ar  
 32  16  18  ar  
 33  17  19  ar  
 34  17  37  1   
 35  18  20  ar  
 36  18  38  1   
 37  19  21  ar  
 38  19  39  1   
 39  20  21  ar  
 40  20  40  1   
 41  21  22  1   
 42  22  41  1   
 43  22  42  1   
 44  22  43  1   
@<TRIPOS>SUBSTRUCTURE
  1 ****  10 GROUP 4 **** **** 0

# MOE 2024.06 (io_trps.svl 2023.06)
