@<TRIPOS>MOLECULE
8-(3-Chloro-4-methoxy-phenyl)-3-ethyl-1,6,7-trimethyl-1H,8H-imidazo[2,1-f]purine
49 52 1 0 0 
SMALL
USER_CHARGES


@<TRIPOS>ATOM
  1 CL      -2.2970    -1.9460    -3.1350 Cl    1 <1>  -0.1840 
  2 C       -2.7970    -1.5230    -1.5130 C.ar  1 <1>   0.1700 
  3 C       -2.1620    -2.0810    -0.4080 C.ar  1 <1>   0.0750 
  4 C       -3.8370    -0.6260    -1.3750 C.ar  1 <1>  -0.1570 
  5 O       -1.1480    -2.9600    -0.6230 O.3   1 <1>  -0.3680 
  6 C       -2.5970    -1.7130     0.8630 C.ar  1 <1>  -0.1570 
  7 C       -4.2690    -0.2700    -0.1080 C.ar  1 <1>   0.3050 
  8 C       -0.4140    -3.5240     0.4410 C.3   1 <1>   0.0320 
  9 C       -3.6420    -0.8140     1.0050 C.ar  1 <1>  -0.1570 
 10 N       -5.3400     0.6260     0.0470 N.pl3 1 <1>  -0.5550 
 11 C       -6.6440     0.3250     0.0470 C.cat 1 <1>   1.0690 
 12 C       -5.2880     2.0040     0.2170 C.2   1 <1>   0.1570 
 13 N       -7.3760    -0.7870    -0.0740 N.pl3 1 <1>  -0.7040 
 14 N       -7.4050     1.3970     0.2060 N.pl3 1 <1>  -0.6330 
 15 C       -6.5530     2.4770     0.3150 C.2   1 <1>   0.2340 
 16 C       -3.9560     2.7340     0.2650 C.3   1 <1>  -0.1100 
 17 C       -8.6820    -0.3950     0.0130 C.2   1 <1>   0.4200 
 18 C       -8.7380     0.9490     0.1880 C.2   1 <1>   0.2700 
 19 C       -7.0990     3.8780     0.5070 C.3   1 <1>  -0.1100 
 20 N       -9.8050    -1.1930    -0.0560 N.am  1 <1>  -0.4420 
 21 C      -10.0090     1.5860     0.3120 C.2   1 <1>   0.6990 
 22 C      -11.0500    -0.5910     0.0900 C.2   1 <1>   0.6860 
 23 C       -9.6960    -2.6700    -0.2550 C.3   1 <1>   0.0520 
 24 O      -10.0980     2.7930     0.4660 O.2   1 <1>  -0.5750 
 25 N      -11.1440     0.7880     0.2520 N.am  1 <1>  -0.4260 
 26 O      -12.0520    -1.2770     0.0800 O.2   1 <1>  -0.5750 
 27 C      -12.4920     1.4240     0.3420 C.3   1 <1>   0.1330 
 28 C      -12.9760     1.8100    -1.0550 C.3   1 <1>  -0.2470 
 29 H       -4.2950    -0.2110    -2.2530 H     1 <1>   0.1430 
 30 H       -2.1320    -2.1150     1.7460 H     1 <1>   0.1430 
 31 H        0.3440    -4.1620     0.0220 H     1 <1>   0.0720 
 32 H       -1.0770    -4.1030     1.0580 H     1 <1>   0.0720 
 33 H        0.0490    -2.7330     1.0050 H     1 <1>   0.0720 
 34 H       -3.9660    -0.5330     1.9920 H     1 <1>   0.1430 
 35 H       -7.0040    -1.7260    -0.2000 H     1 <1>   0.4450 
 36 H       -3.3620     2.3690     1.0840 H     1 <1>   0.0720 
 37 H       -4.1010     3.7910     0.3970 H     1 <1>   0.0720 
 38 H       -3.4150     2.5780    -0.6510 H     1 <1>   0.0720 
 39 H       -7.7330     4.1430    -0.3210 H     1 <1>   0.0720 
 40 H       -6.3040     4.5980     0.5720 H     1 <1>   0.0720 
 41 H       -7.6800     3.9280     1.4100 H     1 <1>   0.0720 
 42 H       -8.8790    -2.9030    -0.9140 H     1 <1>   0.0720 
 43 H      -10.5980    -3.0590    -0.6960 H     1 <1>   0.0720 
 44 H       -9.5440    -3.1540     0.6940 H     1 <1>   0.0720 
 45 H      -12.4470     2.3000     0.9670 H     1 <1>   0.0720 
 46 H      -13.1940     0.7430     0.7940 H     1 <1>   0.0720 
 47 H      -12.3070     2.5210    -1.5060 H     1 <1>   0.0720 
 48 H      -13.9490     2.2630    -0.9830 H     1 <1>   0.0720 
 49 H      -13.0570     0.9380    -1.6800 H     1 <1>   0.0720 
@<TRIPOS>BOND
  1   1   2  1   
  2   2   3  ar  
  3   2   4  ar  
  4   3   5  1   
  5   3   6  ar  
  6   4   7  ar  
  7   4  29  1   
  8   5   8  1   
  9   6   9  ar  
 10   6  30  1   
 11   7   9  ar  
 12   7  10  1   
 13   8  31  1   
 14   8  32  1   
 15   8  33  1   
 16   9  34  1   
 17  10  11  ar  
 18  10  12  1   
 19  11  13  ar  
 20  11  14  ar  
 21  12  15  2   
 22  12  16  1   
 23  13  17  1   
 24  13  35  1   
 25  14  15  1   
 26  14  18  1   
 27  15  19  1   
 28  16  36  1   
 29  16  37  1   
 30  16  38  1   
 31  17  18  2   
 32  17  20  1   
 33  18  21  1   
 34  19  39  1   
 35  19  40  1   
 36  19  41  1   
 37  20  22  am  
 38  20  23  1   
 39  21  24  2   
 40  21  25  am  
 41  22  25  am  
 42  22  26  2   
 43  23  42  1   
 44  23  43  1   
 45  23  44  1   
 46  25  27  1   
 47  27  28  1   
 48  27  45  1   
 49  27  46  1   
 50  28  47  1   
 51  28  48  1   
 52  28  49  1   
@<TRIPOS>SUBSTRUCTURE
  1 ****  11 GROUP 4 **** **** 0

# MOE 2024.06 (io_trps.svl 2023.06)
