@<TRIPOS>MOLECULE
4-(4-Ethyl-phenyl)-3,6-dihydroxy-6-methyl-4,5,6,7-tetrahydro-1H-indazole-5-carbo
50 52 1 0 0 
SMALL
USER_CHARGES


@<TRIPOS>ATOM
  1 O       -2.4300     1.1090    -1.1080 O.2   1 <1>  -0.5700 
  2 C       -2.1990     1.4640     0.0220 C.2   1 <1>   0.6590 
  3 O       -2.3030     0.6310     1.0470 O.3   1 <1>  -0.4300 
  4 C       -1.7160     2.8620     0.3490 C.3   1 <1>  -0.0190 
  5 C       -2.6690    -0.7110     0.8510 C.3   1 <1>   0.2580 
  6 C       -2.8290     3.9390     0.2650 C.3   1 <1>   0.2800 
  7 C       -0.4770     3.1940    -0.5120 C.3   1 <1>   0.2440 
  8 C       -2.6240    -1.4070     2.1970 C.2   1 <1>  -0.2880 
  9 O       -3.8700     3.5460     1.0790 O.3   1 <1>  -0.6800 
 10 C       -2.3080     5.2930     0.8070 C.3   1 <1>   0.0200 
 11 C       -3.4350     4.1100    -1.1360 C.3   1 <1>  -0.2400 
 12 C        0.6840     2.2870    -0.1010 C.ar  1 <1>  -0.1440 
 13 C       -0.1480     4.6740    -0.3750 C.2   1 <1>  -0.1810 
 14 C       -3.6480    -2.0400     2.7790 C.2   1 <1>  -0.3000 
 15 C       -0.9450     5.5920     0.2060 C.2   1 <1>  -0.3320 
 16 C        1.4450     2.5590     1.0270 C.ar  1 <1>  -0.1500 
 17 C        0.9770     1.1550    -0.8480 C.ar  1 <1>  -0.1500 
 18 C        0.9510     5.4100    -0.7930 C.2   1 <1>   0.3510 
 19 N       -0.3030     6.7800     0.1350 N.pl3 1 <1>   0.3000 
 20 C        2.4740     1.7140     1.4030 C.ar  1 <1>  -0.1500 
 21 C        2.0060     0.3100    -0.4720 C.ar  1 <1>  -0.1500 
 22 O        2.0110     4.9530    -1.4560 O.3   1 <1>  -0.5120 
 23 N        0.8880     6.6630    -0.4980 N.2   1 <1>  -0.7070 
 24 C        2.7610     0.5830     0.6570 C.ar  1 <1>  -0.1430 
 25 C        3.8890    -0.3470     1.0710 C.3   1 <1>  -0.0170 
 26 C        3.3660    -1.4430     2.0020 C.3   1 <1>  -0.2400 
 27 H       -1.3840     2.8480     1.3710 H     1 <1>   0.0800 
 28 H       -1.9700    -1.1590     0.1660 H     1 <1>   0.0800 
 29 H       -3.6590    -0.7360     0.4290 H     1 <1>   0.0800 
 30 H       -0.7000     3.0210    -1.5510 H     1 <1>   0.0800 
 31 H       -1.6510    -1.3330     2.6530 H     1 <1>   0.1500 
 32 H       -4.6690     4.0680     0.8770 H     1 <1>   0.4000 
 33 H       -2.2020     5.2400     1.8770 H     1 <1>   0.0800 
 34 H       -2.9980     6.0820     0.5660 H     1 <1>   0.0800 
 35 H       -4.1930     4.8720    -1.1350 H     1 <1>   0.0800 
 36 H       -2.6790     4.4060    -1.8400 H     1 <1>   0.0800 
 37 H       -3.8730     3.1920    -1.4840 H     1 <1>   0.0800 
 38 H       -3.5860    -2.5240     3.7380 H     1 <1>   0.1500 
 39 H       -4.6320    -2.1250     2.3490 H     1 <1>   0.1500 
 40 H        1.2410     3.4340     1.6200 H     1 <1>   0.1500 
 41 H        0.4000     0.9210    -1.7260 H     1 <1>   0.1500 
 42 H       -0.6420     7.6820     0.4940 H     1 <1>   0.2700 
 43 H        3.0520     1.9420     2.2810 H     1 <1>   0.1500 
 44 H        2.2150    -0.5640    -1.0620 H     1 <1>   0.1500 
 45 H        2.5990     5.7180    -1.5680 H     1 <1>   0.4500 
 46 H        4.6580     0.2160     1.5710 H     1 <1>   0.0800 
 47 H        4.3290    -0.7940     0.1970 H     1 <1>   0.0800 
 48 H        2.9380    -1.0030     2.8860 H     1 <1>   0.0800 
 49 H        4.1670    -2.0980     2.2930 H     1 <1>   0.0800 
 50 H        2.6070    -2.0200     1.5040 H     1 <1>   0.0800 
@<TRIPOS>BOND
  1   1   2  2   
  2   2   3  1   
  3   2   4  1   
  4   3   5  1   
  5   4   6  1   
  6   4   7  1   
  7   4  27  1   
  8   5   8  1   
  9   5  28  1   
 10   5  29  1   
 11   6   9  1   
 12   6  10  1   
 13   6  11  1   
 14   7  12  1   
 15   7  13  1   
 16   7  30  1   
 17   8  14  2   
 18   8  31  1   
 19   9  32  1   
 20  10  15  1   
 21  10  33  1   
 22  10  34  1   
 23  11  35  1   
 24  11  36  1   
 25  11  37  1   
 26  12  16  ar  
 27  12  17  ar  
 28  13  15  2   
 29  13  18  1   
 30  14  38  1   
 31  14  39  1   
 32  15  19  1   
 33  16  20  ar  
 34  16  40  1   
 35  17  21  ar  
 36  17  41  1   
 37  18  22  1   
 38  18  23  2   
 39  19  23  1   
 40  19  42  1   
 41  20  24  ar  
 42  20  43  1   
 43  21  24  ar  
 44  21  44  1   
 45  22  45  1   
 46  24  25  1   
 47  25  26  1   
 48  25  46  1   
 49  25  47  1   
 50  26  48  1   
 51  26  49  1   
 52  26  50  1   
@<TRIPOS>SUBSTRUCTURE
  1 ****   7 GROUP 4 **** **** 0

# MOE 2024.06 (io_trps.svl 2023.06)
