@<TRIPOS>MOLECULE
3-(2-Chloro-6-fluoro-benzyl)-1,7-dimethyl-8-propyl-1H,8H-imidazo[2,1-f]purine-2,
48 51 1 0 0 
SMALL
USER_CHARGES


@<TRIPOS>ATOM
  1 CL      -1.5490    -3.0070     1.5920 Cl    1 <1>  -0.1840 
  2 C       -0.7170    -3.3380     0.0910 C.ar  1 <1>   0.1700 
  3 C        0.5890    -2.9090    -0.1120 C.ar  1 <1>  -0.1510 
  4 C       -1.4180    -4.0340    -0.8810 C.ar  1 <1>  -0.1580 
  5 C        1.1480    -3.2030    -1.3500 C.ar  1 <1>   0.1830 
  6 C        1.3590    -2.1550     0.9720 C.3   1 <1>   0.2770 
  7 C       -0.8250    -4.3140    -2.1010 C.ar  1 <1>  -0.1580 
  8 F        2.3720    -2.8280    -1.6170 F     1 <1>  -0.1970 
  9 C        0.4710    -3.8920    -2.3410 C.ar  1 <1>  -0.1580 
 10 N        2.6460    -2.8400     1.2800 N.am  1 <1>  -0.4260 
 11 C        2.6080    -4.1240     1.8040 C.2   1 <1>   0.6860 
 12 C        3.8400    -2.2590     0.8850 C.2   1 <1>   0.6990 
 13 O        1.5920    -4.5410     2.3190 O.2   1 <1>  -0.5750 
 14 N        3.7400    -4.9290     1.7550 N.am  1 <1>  -0.4420 
 15 O        3.9020    -1.0760     0.5960 O.2   1 <1>  -0.5750 
 16 C        4.9940    -3.0940     0.8410 C.2   1 <1>   0.2700 
 17 C        4.9070    -4.3790     1.2640 C.2   1 <1>   0.4200 
 18 C        3.6890    -6.3380     2.2470 C.3   1 <1>   0.0520 
 19 N        6.3200    -2.9050     0.4270 N.pl3 1 <1>  -0.6330 
 20 N        6.1250    -4.9840     1.1240 N.pl3 1 <1>  -0.7040 
 21 C        6.9450    -4.0590     0.6110 C.cat 1 <1>   1.0690 
 22 C        7.2380    -2.0310    -0.1230 C.2   1 <1>   0.2220 
 23 N        8.2250    -3.9930     0.2250 N.pl3 1 <1>  -0.5720 
 24 C        8.4070    -2.7000    -0.2460 C.2   1 <1>   0.1570 
 25 C        9.2250    -5.0860     0.2660 C.3   1 <1>   0.1600 
 26 C        9.7340    -2.2080    -0.7940 C.3   1 <1>  -0.1100 
 27 C        9.1120    -5.9330    -1.0040 C.3   1 <1>  -0.1680 
 28 C       10.1150    -7.0900    -0.9830 C.3   1 <1>  -0.2470 
 29 H       -2.4250    -4.3530    -0.6800 H     1 <1>   0.1420 
 30 H        0.7910    -2.0870     1.8820 H     1 <1>   0.0720 
 31 H        1.5310    -1.1480     0.6330 H     1 <1>   0.0720 
 32 H       -1.3690    -4.8540    -2.8570 H     1 <1>   0.1420 
 33 H        0.9490    -4.0940    -3.2820 H     1 <1>   0.1420 
 34 H        2.6820    -6.7190     2.1910 H     1 <1>   0.0720 
 35 H        4.0120    -6.3760     3.2730 H     1 <1>   0.0720 
 36 H        4.3170    -6.9710     1.6470 H     1 <1>   0.0720 
 37 H        6.3800    -5.9460     1.3350 H     1 <1>   0.4440 
 38 H        6.9860    -1.0130    -0.3810 H     1 <1>   0.1420 
 39 H        9.0540    -5.7020     1.1330 H     1 <1>   0.0720 
 40 H       10.2160    -4.6730     0.3450 H     1 <1>   0.0720 
 41 H       10.4930    -2.2610    -0.0350 H     1 <1>   0.0720 
 42 H        9.6500    -1.1870    -1.1210 H     1 <1>   0.0720 
 43 H       10.0370    -2.8100    -1.6330 H     1 <1>   0.0720 
 44 H        9.3110    -5.3200    -1.8670 H     1 <1>   0.0720 
 45 H        8.1200    -6.3390    -1.0940 H     1 <1>   0.0720 
 46 H       11.1240    -6.7180    -0.9220 H     1 <1>   0.0720 
 47 H       10.0260    -7.6700    -1.8860 H     1 <1>   0.0720 
 48 H        9.9350    -7.7400    -0.1450 H     1 <1>   0.0720 
@<TRIPOS>BOND
  1   1   2  1   
  2   2   3  ar  
  3   2   4  ar  
  4   3   5  ar  
  5   3   6  1   
  6   4   7  ar  
  7   4  29  1   
  8   5   8  1   
  9   5   9  ar  
 10   6  10  1   
 11   6  30  1   
 12   6  31  1   
 13   7   9  ar  
 14   7  32  1   
 15   9  33  1   
 16  10  11  am  
 17  10  12  am  
 18  11  13  2   
 19  11  14  am  
 20  12  15  2   
 21  12  16  1   
 22  14  17  1   
 23  14  18  1   
 24  16  17  2   
 25  16  19  1   
 26  17  20  1   
 27  18  34  1   
 28  18  35  1   
 29  18  36  1   
 30  19  21  ar  
 31  19  22  1   
 32  20  21  ar  
 33  20  37  1   
 34  21  23  ar  
 35  22  24  2   
 36  22  38  1   
 37  23  24  1   
 38  23  25  1   
 39  24  26  1   
 40  25  27  1   
 41  25  39  1   
 42  25  40  1   
 43  26  41  1   
 44  26  42  1   
 45  26  43  1   
 46  27  28  1   
 47  27  44  1   
 48  27  45  1   
 49  28  46  1   
 50  28  47  1   
 51  28  48  1   
@<TRIPOS>SUBSTRUCTURE
  1 ****  16 GROUP 4 **** **** 0

# MOE 2024.06 (io_trps.svl 2023.06)
