@<TRIPOS>MOLECULE
N-{1-[3-(2-Methoxy-phenyl)-[1,2,4]oxadiazol-5-yl]-ethyl}-2,2-dimethyl-propionami
43 44 1 0 0 
SMALL
USER_CHARGES


@<TRIPOS>ATOM
  1 O       -0.8100    -1.2690    -0.7230 O.2   1 <1>  -0.5700 
  2 C       -1.8950    -0.7860    -0.5110 C.2   1 <1>   0.5690 
  3 N       -2.9510    -1.4950    -0.9860 N.am  1 <1>  -0.7300 
  4 C       -1.9440     0.5910     0.2250 C.3   1 <1>   0.0610 
  5 C       -4.4230    -1.3600    -0.9390 C.3   1 <1>   0.4000 
  6 C       -3.2510     0.9050     0.9810 C.3   1 <1>  -0.2400 
  7 C       -1.7030     1.7160    -0.7980 C.3   1 <1>  -0.2400 
  8 C       -0.8130     0.6650     1.2760 C.3   1 <1>  -0.2400 
  9 C       -5.0930    -2.7340    -0.9700 C.2   1 <1>   0.2980 
 10 C       -4.8700    -0.5060    -2.1260 C.3   1 <1>  -0.2400 
 11 O       -4.7990    -3.5560    -1.9460 O.3   1 <1>  -0.0190 
 12 N       -5.9290    -3.1740    -0.1220 N.2   1 <1>  -0.5650 
 13 N       -5.5090    -4.6110    -1.6960 N.2   1 <1>  -0.4100 
 14 C       -6.1870    -4.3840    -0.6280 C.2   1 <1>   0.4620 
 15 C       -7.0920    -5.3210    -0.0010 C.ar  1 <1>   0.0540 
 16 C       -8.4500    -5.0380     0.1930 C.ar  1 <1>   0.0820 
 17 C       -6.6100    -6.5580     0.4280 C.ar  1 <1>  -0.1500 
 18 O       -8.9190    -3.8440    -0.2590 O.3   1 <1>  -0.3630 
 19 C       -9.2770    -5.9700     0.8170 C.ar  1 <1>  -0.1500 
 20 C       -7.4340    -7.4810     1.0430 C.ar  1 <1>  -0.1500 
 21 C      -10.2620    -3.4480    -0.0920 C.3   1 <1>   0.0400 
 22 C       -8.7700    -7.1850     1.2400 C.ar  1 <1>  -0.1500 
 23 H       -2.6560    -2.3520    -1.4590 H     1 <1>   0.3700 
 24 H       -4.7280    -0.8980    -0.0220 H     1 <1>   0.0800 
 25 H       -3.1350     1.7860     1.5870 H     1 <1>   0.0800 
 26 H       -4.0560     1.1010     0.2990 H     1 <1>   0.0800 
 27 H       -3.5130     0.0880     1.6300 H     1 <1>   0.0800 
 28 H       -2.4740     1.7200    -1.5460 H     1 <1>   0.0800 
 29 H       -0.7590     1.5680    -1.2930 H     1 <1>   0.0800 
 30 H       -1.6870     2.6780    -0.3160 H     1 <1>   0.0800 
 31 H       -0.9310    -0.1190     2.0030 H     1 <1>   0.0800 
 32 H       -0.8130     1.6120     1.7860 H     1 <1>   0.0800 
 33 H        0.1490     0.5420     0.8080 H     1 <1>   0.0800 
 34 H       -4.5750    -0.9660    -3.0530 H     1 <1>   0.0800 
 35 H       -4.4420     0.4770    -2.0660 H     1 <1>   0.0800 
 36 H       -5.9410    -0.4110    -2.1180 H     1 <1>   0.0800 
 37 H       -5.5710    -6.7920     0.2750 H     1 <1>   0.1500 
 38 H      -10.3180    -5.7720     0.9800 H     1 <1>   0.1500 
 39 H       -7.0370    -8.4270     1.3670 H     1 <1>   0.1500 
 40 H      -10.3750    -2.4680    -0.5200 H     1 <1>   0.0800 
 41 H      -10.4880    -3.4160     0.9590 H     1 <1>   0.0800 
 42 H      -10.8980    -4.1460    -0.6060 H     1 <1>   0.0800 
 43 H       -9.4140    -7.9020     1.7210 H     1 <1>   0.1500 
@<TRIPOS>BOND
  1   1   2  2   
  2   2   3  am  
  3   2   4  1   
  4   3   5  1   
  5   3  23  1   
  6   4   6  1   
  7   4   7  1   
  8   4   8  1   
  9   5   9  1   
 10   5  10  1   
 11   5  24  1   
 12   6  25  1   
 13   6  26  1   
 14   6  27  1   
 15   7  28  1   
 16   7  29  1   
 17   7  30  1   
 18   8  31  1   
 19   8  32  1   
 20   8  33  1   
 21   9  11  1   
 22   9  12  2   
 23  10  34  1   
 24  10  35  1   
 25  10  36  1   
 26  11  13  1   
 27  12  14  1   
 28  13  14  2   
 29  14  15  1   
 30  15  16  ar  
 31  15  17  ar  
 32  16  18  1   
 33  16  19  ar  
 34  17  20  ar  
 35  17  37  1   
 36  18  21  1   
 37  19  22  ar  
 38  19  38  1   
 39  20  22  ar  
 40  20  39  1   
 41  21  40  1   
 42  21  41  1   
 43  21  42  1   
 44  22  43  1   
@<TRIPOS>SUBSTRUCTURE
  1 ****  12 GROUP 4 **** **** 0

# MOE 2024.06 (io_trps.svl 2023.06)
