@<TRIPOS>MOLECULE
3-tert-Butyl-6-(4-fluoro-phenyl)-[1,2,4]triazolo[3,4-b][1,3,4]thiadiazole
32 34 1 0 0 
SMALL
USER_CHARGES


@<TRIPOS>ATOM
  1 S       -0.0410    -0.2300     0.4100 S.3   1 <1>  -0.1970 
  2 C        1.0010     1.1570     0.2190 C.2   1 <1>   0.2420 
  3 C       -1.4620     0.8430     0.2530 C.2   1 <1>   0.5050 
  4 N        2.2670     1.3610     0.1960 N.2   1 <1>  -0.3380 
  5 N        0.2510     2.2320     0.0640 N.pl3 1 <1>   0.5050 
  6 N       -1.1380     2.0760     0.0810 N.2   1 <1>  -0.6520 
  7 C       -2.7900     0.2640     0.3290 C.ar  1 <1>   0.0860 
  8 N        2.3850     2.6890     0.0090 N.2   1 <1>  -0.3380 
  9 C        1.1860     3.1940    -0.0670 C.2   1 <1>   0.0060 
 10 C       -3.9130     1.0920     0.2080 C.ar  1 <1>  -0.1500 
 11 C       -3.0210    -1.1070     0.5210 C.ar  1 <1>  -0.1500 
 12 C        0.8420     4.6760    -0.2780 C.3   1 <1>   0.1800 
 13 C       -5.2020     0.5920     0.2730 C.ar  1 <1>  -0.1500 
 14 C       -4.3030    -1.6240     0.5890 C.ar  1 <1>  -0.1500 
 15 C        2.1220     5.5230    -0.3920 C.3   1 <1>  -0.2400 
 16 C        0.0360     4.8520    -1.5730 C.3   1 <1>  -0.2400 
 17 C        0.0250     5.2030     0.9110 C.3   1 <1>  -0.2400 
 18 C       -5.3740    -0.7640     0.4630 C.ar  1 <1>   0.1900 
 19 F       -6.5840    -1.2450     0.5260 F     1 <1>  -0.1900 
 20 H       -3.7740     2.1500     0.0600 H     1 <1>   0.1500 
 21 H       -2.1980    -1.7930     0.6210 H     1 <1>   0.1500 
 22 H       -6.0590     1.2360     0.1790 H     1 <1>   0.1500 
 23 H       -4.4760    -2.6760     0.7360 H     1 <1>   0.1500 
 24 H        2.7190     5.1870    -1.2210 H     1 <1>   0.0800 
 25 H        2.7110     5.4300     0.5040 H     1 <1>   0.0800 
 26 H        1.8850     6.5610    -0.5390 H     1 <1>   0.0800 
 27 H        0.5910     4.4650    -2.4090 H     1 <1>   0.0800 
 28 H       -0.1690     5.8930    -1.7520 H     1 <1>   0.0800 
 29 H       -0.9020     4.3310    -1.5160 H     1 <1>   0.0800 
 30 H        0.5720     5.0620     1.8270 H     1 <1>   0.0800 
 31 H       -0.9130     4.6840     0.9930 H     1 <1>   0.0800 
 32 H       -0.1800     6.2520     0.7940 H     1 <1>   0.0800 
@<TRIPOS>BOND
  1   1   2  1   
  2   1   3  1   
  3   2   4  2   
  4   2   5  1   
  5   3   6  2   
  6   3   7  1   
  7   4   8  1   
  8   5   6  1   
  9   5   9  1   
 10   7  10  ar  
 11   7  11  ar  
 12   8   9  2   
 13   9  12  1   
 14  10  13  ar  
 15  10  20  1   
 16  11  14  ar  
 17  11  21  1   
 18  12  15  1   
 19  12  16  1   
 20  12  17  1   
 21  13  18  ar  
 22  13  22  1   
 23  14  18  ar  
 24  14  23  1   
 25  15  24  1   
 26  15  25  1   
 27  15  26  1   
 28  16  27  1   
 29  16  28  1   
 30  16  29  1   
 31  17  30  1   
 32  17  31  1   
 33  17  32  1   
 34  18  19  1   
@<TRIPOS>SUBSTRUCTURE
  1 ****   6 GROUP 4 **** **** 0

# MOE 2024.06 (io_trps.svl 2023.06)
