@<TRIPOS>MOLECULE
4-(4-Chloro-phenoxy)-N-(5-methoxymethyl-[1,3,4]thiadiazol-2-yl)-butyramide
38 39 1 0 0 
SMALL
USER_CHARGES


@<TRIPOS>ATOM
  1 CL      -0.7120     1.9880    -0.8800 Cl    1 <1>  -0.1770 
  2 C        0.9870     2.3180    -0.6480 C.ar  1 <1>   0.1770 
  3 C        1.8780     1.2630    -0.5800 C.ar  1 <1>  -0.1500 
  4 C        1.4140     3.6280    -0.5360 C.ar  1 <1>  -0.1500 
  5 C        3.2270     1.5220    -0.3960 C.ar  1 <1>  -0.1500 
  6 C        2.7620     3.8830    -0.3530 C.ar  1 <1>  -0.1500 
  7 C        3.6730     2.8380    -0.2820 C.ar  1 <1>   0.0830 
  8 O        4.9730     3.1810    -0.1000 O.3   1 <1>  -0.3630 
  9 C        5.9850     2.2060    -0.0080 C.3   1 <1>   0.1200 
 10 C        7.3210     2.9240     0.1910 C.3   1 <1>  -0.1600 
 11 C        8.4900     1.9260     0.2990 C.3   1 <1>  -0.0990 
 12 C        9.8570     2.5820     0.4680 C.2   1 <1>   0.5690 
 13 O        9.9240     3.7530     0.7380 O.2   1 <1>  -0.5700 
 14 N       11.0180     1.8950     0.3050 N.am  1 <1>  -0.4940 
 15 C       11.3750     0.5780     0.1050 C.2   1 <1>   0.4420 
 16 S       10.2550    -0.7310     0.3290 S.3   1 <1>  -0.0800 
 17 N       12.5410     0.1630    -0.2290 N.2   1 <1>  -0.3380 
 18 C       11.5410    -1.8080    -0.1010 C.2   1 <1>   0.1980 
 19 N       12.6290    -1.1960    -0.3500 N.2   1 <1>  -0.3380 
 20 C       11.2660    -3.3020    -0.1240 C.3   1 <1>   0.3000 
 21 O       10.0980    -3.5720    -0.8460 O.3   1 <1>  -0.5600 
 22 C        9.8120    -4.9270    -0.9810 C.3   1 <1>   0.0400 
 23 H        1.5160     0.2540    -0.6700 H     1 <1>   0.1500 
 24 H        0.7020     4.4310    -0.5930 H     1 <1>   0.1500 
 25 H        3.9080     0.6930    -0.3450 H     1 <1>   0.1500 
 26 H        3.1190     4.8940    -0.2630 H     1 <1>   0.1500 
 27 H        5.9910     1.6370    -0.9210 H     1 <1>   0.0800 
 28 H        5.7660     1.5690     0.8310 H     1 <1>   0.0800 
 29 H        7.2720     3.5150     1.0900 H     1 <1>   0.0800 
 30 H        7.4930     3.5860    -0.6410 H     1 <1>   0.0800 
 31 H        8.5090     1.3300    -0.5950 H     1 <1>   0.0800 
 32 H        8.3200     1.2810     1.1410 H     1 <1>   0.0800 
 33 H       11.8220     2.5200     0.3290 H     1 <1>   0.3700 
 34 H       11.1400    -3.6650     0.8810 H     1 <1>   0.0800 
 35 H       12.0890    -3.8120    -0.5940 H     1 <1>   0.0800 
 36 H        8.8980    -5.0220    -1.5410 H     1 <1>   0.0800 
 37 H        9.6840    -5.3650    -0.0060 H     1 <1>   0.0800 
 38 H       10.6130    -5.4110    -1.5140 H     1 <1>   0.0800 
@<TRIPOS>BOND
  1   1   2  1   
  2   2   3  ar  
  3   2   4  ar  
  4   3   5  ar  
  5   3  23  1   
  6   4   6  ar  
  7   4  24  1   
  8   5   7  ar  
  9   5  25  1   
 10   6   7  ar  
 11   6  26  1   
 12   7   8  1   
 13   8   9  1   
 14   9  10  1   
 15   9  27  1   
 16   9  28  1   
 17  10  11  1   
 18  10  29  1   
 19  10  30  1   
 20  11  12  1   
 21  11  31  1   
 22  11  32  1   
 23  12  13  2   
 24  12  14  am  
 25  14  15  1   
 26  14  33  1   
 27  15  16  1   
 28  15  17  2   
 29  16  18  1   
 30  17  19  1   
 31  18  19  2   
 32  18  20  1   
 33  20  21  1   
 34  20  34  1   
 35  20  35  1   
 36  21  22  1   
 37  22  36  1   
 38  22  37  1   
 39  22  38  1   
@<TRIPOS>SUBSTRUCTURE
  1 ****  11 GROUP 4 **** **** 0

# MOE 2024.06 (io_trps.svl 2023.06)
