@<TRIPOS>MOLECULE
4-o-Tolyl-tetrahydro-pyran-4-carboxylic acid
31 32 1 0 0 
SMALL
USER_CHARGES


@<TRIPOS>ATOM
  1 O       -2.8370    -1.1590    -2.9840 O.co2 1 <1>  -0.9000 
  2 C       -1.9900    -1.1240    -2.0740 C.2   1 <1>   0.9060 
  3 O       -0.7970    -0.9100    -2.3470 O.co2 1 <1>  -0.9000 
  4 C       -2.4410    -1.3390    -0.5920 C.3   1 <1>   0.0370 
  5 C       -2.6660     0.0710     0.0610 C.ar  1 <1>  -0.1440 
  6 C       -1.3380    -2.0720     0.2520 C.3   1 <1>  -0.1600 
  7 C       -3.6540    -2.3060    -0.5870 C.3   1 <1>  -0.1600 
  8 C       -3.8530     0.6610     0.5350 C.ar  1 <1>  -0.1440 
  9 C       -1.5020     0.8330     0.1670 C.ar  1 <1>  -0.1500 
 10 C       -1.5770    -3.5650     0.5240 C.3   1 <1>   0.1200 
 11 C       -3.2740    -3.6920    -1.1410 C.3   1 <1>   0.1200 
 12 C       -3.8130     1.9200     1.1250 C.ar  1 <1>  -0.1500 
 13 C       -5.2490     0.0570     0.4370 C.3   1 <1>  -0.0960 
 14 C       -1.4730     2.0850     0.7480 C.ar  1 <1>  -0.1500 
 15 O       -2.0800    -4.1960    -0.6070 O.3   1 <1>  -0.5600 
 16 C       -2.6360     2.6310     1.2400 C.ar  1 <1>  -0.1500 
 17 H       -1.2500    -1.6030     1.2140 H     1 <1>   0.0800 
 18 H       -0.3770    -1.9710    -0.2200 H     1 <1>   0.0800 
 19 H       -4.4380    -1.9270    -1.2120 H     1 <1>   0.0800 
 20 H       -4.0330    -2.4320     0.4070 H     1 <1>   0.0800 
 21 H       -0.5760     0.4460    -0.2250 H     1 <1>   0.1500 
 22 H       -2.2840    -3.7020     1.3230 H     1 <1>   0.0800 
 23 H       -0.6550    -4.0500     0.7900 H     1 <1>   0.0800 
 24 H       -3.1390    -3.6340    -2.2090 H     1 <1>   0.0800 
 25 H       -4.0540    -4.4020    -0.9360 H     1 <1>   0.0800 
 26 H       -4.7120     2.3730     1.5000 H     1 <1>   0.1500 
 27 H       -5.3280    -0.8230     1.0440 H     1 <1>   0.0800 
 28 H       -5.4780    -0.1650    -0.5890 H     1 <1>   0.0800 
 29 H       -5.9990     0.7470     0.7770 H     1 <1>   0.0800 
 30 H       -0.5460     2.6260     0.8050 H     1 <1>   0.1500 
 31 H       -2.6290     3.6040     1.6980 H     1 <1>   0.1500 
@<TRIPOS>BOND
  1   1   2  ar  
  2   2   3  ar  
  3   2   4  1   
  4   4   5  1   
  5   4   6  1   
  6   4   7  1   
  7   5   8  ar  
  8   5   9  ar  
  9   6  10  1   
 10   6  17  1   
 11   6  18  1   
 12   7  11  1   
 13   7  19  1   
 14   7  20  1   
 15   8  12  ar  
 16   8  13  1   
 17   9  14  ar  
 18   9  21  1   
 19  10  15  1   
 20  10  22  1   
 21  10  23  1   
 22  11  15  1   
 23  11  24  1   
 24  11  25  1   
 25  12  16  ar  
 26  12  26  1   
 27  13  27  1   
 28  13  28  1   
 29  13  29  1   
 30  14  16  ar  
 31  14  30  1   
 32  16  31  1   
@<TRIPOS>SUBSTRUCTURE
  1 ****   4 GROUP 4 **** **** 0

# MOE 2024.06 (io_trps.svl 2023.06)
