@<TRIPOS>MOLECULE
8-Allylamino-7-(2-hydroxy-3-p-tolyloxy-propyl)-1,3-dimethyl-3,7-dihydro-purine-2
55 57 1 0 0 
SMALL
USER_CHARGES


@<TRIPOS>ATOM
  1 O        1.0660     1.3730     1.1720 O.2   1 <1>  -0.5740 
  2 C        2.1000     1.6140     0.5850 C.2   1 <1>   0.6870 
  3 N        2.2740     2.8430    -0.0440 N.am  1 <1>  -0.4250 
  4 N        3.1090     0.6600     0.5400 N.am  1 <1>  -0.4410 
  5 C        3.4520     3.1500    -0.7100 C.2   1 <1>   0.7000 
  6 C        1.1720     3.8540     0.0320 C.3   1 <1>   0.0530 
  7 C        4.2630     0.9670    -0.1530 C.2   1 <1>   0.4210 
  8 C        2.9350    -0.6650     1.2090 C.3   1 <1>   0.0530 
  9 O        3.6140     4.2390    -1.2320 O.2   1 <1>  -0.5740 
 10 C        4.4780     2.1510    -0.7650 C.2   1 <1>   0.2710 
 11 N        5.3550     0.1760    -0.3470 N.pl3 1 <1>  -0.7030 
 12 N        5.7620     2.0710    -1.3440 N.pl3 1 <1>  -0.7670 
 13 C        6.2390     0.8590    -1.0670 C.cat 1 <1>   1.0690 
 14 C        6.3870     3.1790    -2.1390 C.3   1 <1>   0.3480 
 15 N        7.4270     0.4080    -1.4480 N.pl3 1 <1>  -0.7180 
 16 C        6.9120     4.3460    -1.2770 C.3   1 <1>   0.1940 
 17 C        8.0860    -0.8610    -1.1150 C.3   1 <1>   0.3000 
 18 O        7.7530     5.0940    -2.0850 O.3   1 <1>  -0.6840 
 19 C        7.6830     3.9090    -0.0160 C.3   1 <1>   0.1130 
 20 C        9.4710    -0.4960    -0.6440 C.2   1 <1>  -0.2940 
 21 O        7.9510     5.0230     0.8140 O.3   1 <1>  -0.3680 
 22 C       10.6010    -0.7570    -1.3090 C.2   1 <1>  -0.3060 
 23 C        8.9300     5.9230     0.5480 C.ar  1 <1>   0.0750 
 24 C       10.0820     5.6230    -0.1710 C.ar  1 <1>  -0.1570 
 25 C        8.7390     7.2100     1.0220 C.ar  1 <1>  -0.1570 
 26 C       11.0160     6.6120    -0.4250 C.ar  1 <1>  -0.1570 
 27 C        9.6760     8.1960     0.7680 C.ar  1 <1>  -0.1570 
 28 C       10.8170     7.9020     0.0390 C.ar  1 <1>  -0.1500 
 29 C       11.8470     8.9820    -0.2420 C.3   1 <1>  -0.1040 
 30 H        0.2160     3.3690    -0.0730 H     1 <1>   0.0730 
 31 H        1.2620     4.5880    -0.7500 H     1 <1>   0.0730 
 32 H        1.2040     4.3520     0.9850 H     1 <1>   0.0730 
 33 H        2.1880    -0.6050     1.9830 H     1 <1>   0.0730 
 34 H        3.8570    -0.9810     1.6650 H     1 <1>   0.0730 
 35 H        2.6190    -1.3980     0.4870 H     1 <1>   0.0730 
 36 H        5.4710    -0.7770    -0.0150 H     1 <1>   0.4450 
 37 H        5.6620     3.5680    -2.8340 H     1 <1>   0.0730 
 38 H        7.2060     2.7840    -2.7140 H     1 <1>   0.0730 
 39 H        8.0390     1.0200    -1.9880 H     1 <1>   0.4450 
 40 H        6.0870     4.9770    -0.9920 H     1 <1>   0.0730 
 41 H        8.1440    -1.4800    -1.9970 H     1 <1>   0.0730 
 42 H        7.5590    -1.3960    -0.3440 H     1 <1>   0.0730 
 43 H        8.1470     5.8290    -1.5570 H     1 <1>   0.3950 
 44 H        8.5950     3.3960    -0.2530 H     1 <1>   0.0730 
 45 H        7.0730     3.2530     0.5750 H     1 <1>   0.0730 
 46 H        9.4750     0.0070     0.3090 H     1 <1>   0.1430 
 47 H       11.5820    -0.4890    -0.9490 H     1 <1>   0.1430 
 48 H       10.6570    -1.2610    -2.2600 H     1 <1>   0.1430 
 49 H       10.2740     4.6340    -0.5370 H     1 <1>   0.1430 
 50 H        7.8560     7.4400     1.5890 H     1 <1>   0.1430 
 51 H       11.9040     6.3730    -0.9840 H     1 <1>   0.1430 
 52 H        9.5140     9.1920     1.1410 H     1 <1>   0.1430 
 53 H       12.5990     8.9740     0.5260 H     1 <1>   0.0730 
 54 H       11.3810     9.9500    -0.2620 H     1 <1>   0.0730 
 55 H       12.3190     8.8120    -1.1930 H     1 <1>   0.0730 
@<TRIPOS>BOND
  1   1   2  2   
  2   2   3  am  
  3   2   4  am  
  4   3   5  am  
  5   3   6  1   
  6   4   7  1   
  7   4   8  1   
  8   5   9  2   
  9   5  10  1   
 10   6  30  1   
 11   6  31  1   
 12   6  32  1   
 13   7  10  2   
 14   7  11  1   
 15   8  33  1   
 16   8  34  1   
 17   8  35  1   
 18  10  12  1   
 19  11  13  ar  
 20  11  36  1   
 21  12  13  ar  
 22  12  14  1   
 23  13  15  ar  
 24  14  16  1   
 25  14  37  1   
 26  14  38  1   
 27  15  17  1   
 28  15  39  1   
 29  16  18  1   
 30  16  19  1   
 31  16  40  1   
 32  17  20  1   
 33  17  41  1   
 34  17  42  1   
 35  18  43  1   
 36  19  21  1   
 37  19  44  1   
 38  19  45  1   
 39  20  22  2   
 40  20  46  1   
 41  21  23  1   
 42  22  47  1   
 43  22  48  1   
 44  23  24  ar  
 45  23  25  ar  
 46  24  26  ar  
 47  24  49  1   
 48  25  27  ar  
 49  25  50  1   
 50  26  28  ar  
 51  26  51  1   
 52  27  28  ar  
 53  27  52  1   
 54  28  29  1   
 55  29  53  1   
 56  29  54  1   
 57  29  55  1   
@<TRIPOS>SUBSTRUCTURE
  1 ****  19 GROUP 4 **** **** 0

# MOE 2024.06 (io_trps.svl 2023.06)
