@<TRIPOS>MOLECULE
3-(2-Ethoxy-ethyl)-8-(2-methoxy-phenyl)-1-methyl-5,6,7,8-tetrahydro-1H-1,3,4b,8,
55 58 1 0 0 
SMALL
USER_CHARGES


@<TRIPOS>ATOM
  1 O        1.2280     0.1270    -0.4080 O.2   1 <1>  -0.5740 
  2 C        2.1290     0.8010     0.0470 C.2   1 <1>   0.6870 
  3 N        1.8630     2.0660     0.5600 N.am  1 <1>  -0.4250 
  4 N        3.4280     0.3130     0.0350 N.am  1 <1>  -0.4410 
  5 C        2.8870     2.8970     0.9920 C.2   1 <1>   0.7000 
  6 C        0.4440     2.5380     0.6400 C.3   1 <1>   0.1330 
  7 C        4.4370     1.1420     0.4830 C.2   1 <1>   0.4210 
  8 C        3.7310    -1.0560    -0.4790 C.3   1 <1>   0.0530 
  9 O        2.6580     4.0280     1.3870 O.2   1 <1>  -0.5740 
 10 C        4.2250     2.3920     0.9470 C.2   1 <1>   0.2710 
 11 C        0.0040     3.1590    -0.6850 C.3   1 <1>   0.1130 
 12 N        5.7720     0.8870     0.5220 N.pl3 1 <1>  -0.7030 
 13 N        5.4880     2.9070     1.2720 N.pl3 1 <1>  -0.7670 
 14 O       -1.2920     3.6330    -0.5250 O.3   1 <1>  -0.5640 
 15 C        6.3880     1.9680     0.9950 C.cat 1 <1>   1.0690 
 16 C        5.8090     4.2550     1.7780 C.3   1 <1>   0.3490 
 17 C       -1.8340     4.1900    -1.6740 C.3   1 <1>   0.1130 
 18 N        7.7120     2.1310     1.1910 N.pl3 1 <1>  -0.5790 
 19 C        7.2630     4.5740     1.4180 C.3   1 <1>  -0.1670 
 20 C       -3.2420     4.6610    -1.3360 C.3   1 <1>  -0.2460 
 21 C        8.6700     1.1400     0.8820 C.ar  1 <1>   0.3050 
 22 C        8.2110     3.4150     1.7590 C.3   1 <1>   0.1610 
 23 C        8.7850     0.5910    -0.4050 C.ar  1 <1>   0.0750 
 24 C        9.5230     0.6890     1.8810 C.ar  1 <1>  -0.1570 
 25 O        7.9360     1.0370    -1.3780 O.3   1 <1>  -0.3680 
 26 C        9.7410    -0.3870    -0.6590 C.ar  1 <1>  -0.1570 
 27 C       10.4720    -0.2840     1.6220 C.ar  1 <1>  -0.1570 
 28 C        8.2550     0.8720    -2.7460 C.3   1 <1>   0.0330 
 29 C       10.5790    -0.8200     0.3520 C.ar  1 <1>  -0.1570 
 30 H        0.3390     3.2680     1.4250 H     1 <1>   0.0730 
 31 H       -0.2020     1.7080     0.8720 H     1 <1>   0.0730 
 32 H        2.8530    -1.6790    -0.4350 H     1 <1>   0.0730 
 33 H        4.4980    -1.5180     0.1160 H     1 <1>   0.0730 
 34 H        4.0570    -0.9950    -1.5030 H     1 <1>   0.0730 
 35 H        0.0030     2.4180    -1.4660 H     1 <1>   0.0730 
 36 H        0.6380     3.9890    -0.9450 H     1 <1>   0.0730 
 37 H        6.2830     0.0970     0.1340 H     1 <1>   0.4450 
 38 H        5.6740     4.2750     2.8470 H     1 <1>   0.0730 
 39 H        5.1500     4.9860     1.3360 H     1 <1>   0.0730 
 40 H       -1.8610     3.4390    -2.4460 H     1 <1>   0.0730 
 41 H       -1.2210     5.0190    -1.9850 H     1 <1>   0.0730 
 42 H        7.5730     5.4600     1.9430 H     1 <1>   0.0730 
 43 H        7.3300     4.7900     0.3650 H     1 <1>   0.0730 
 44 H       -3.8430     3.8290    -1.0160 H     1 <1>   0.0730 
 45 H       -3.6980     5.1010    -2.2050 H     1 <1>   0.0730 
 46 H       -3.2060     5.4000    -0.5550 H     1 <1>   0.0730 
 47 H        9.1920     3.6290     1.3640 H     1 <1>   0.0730 
 48 H        8.2950     3.3160     2.8290 H     1 <1>   0.0730 
 49 H        9.4510     1.0920     2.8750 H     1 <1>   0.1430 
 50 H        9.8520    -0.8300    -1.6320 H     1 <1>   0.1430 
 51 H       11.1290    -0.6260     2.4050 H     1 <1>   0.1430 
 52 H        7.5510     1.4400    -3.3280 H     1 <1>   0.0730 
 53 H        8.1800    -0.1700    -3.0040 H     1 <1>   0.0730 
 54 H        9.2510     1.2390    -2.9230 H     1 <1>   0.0730 
 55 H       11.3190    -1.5780     0.1520 H     1 <1>   0.1430 
@<TRIPOS>BOND
  1   1   2  2   
  2   2   3  am  
  3   2   4  am  
  4   3   5  am  
  5   3   6  1   
  6   4   7  1   
  7   4   8  1   
  8   5   9  2   
  9   5  10  1   
 10   6  11  1   
 11   6  30  1   
 12   6  31  1   
 13   7  10  2   
 14   7  12  1   
 15   8  32  1   
 16   8  33  1   
 17   8  34  1   
 18  10  13  1   
 19  11  14  1   
 20  11  35  1   
 21  11  36  1   
 22  12  15  ar  
 23  12  37  1   
 24  13  15  ar  
 25  13  16  1   
 26  14  17  1   
 27  15  18  ar  
 28  16  19  1   
 29  16  38  1   
 30  16  39  1   
 31  17  20  1   
 32  17  40  1   
 33  17  41  1   
 34  18  21  1   
 35  18  22  1   
 36  19  22  1   
 37  19  42  1   
 38  19  43  1   
 39  20  44  1   
 40  20  45  1   
 41  20  46  1   
 42  21  23  ar  
 43  21  24  ar  
 44  22  47  1   
 45  22  48  1   
 46  23  25  1   
 47  23  26  ar  
 48  24  27  ar  
 49  24  49  1   
 50  25  28  1   
 51  26  29  ar  
 52  26  50  1   
 53  27  29  ar  
 54  27  51  1   
 55  28  52  1   
 56  28  53  1   
 57  28  54  1   
 58  29  55  1   
@<TRIPOS>SUBSTRUCTURE
  1 ****   7 GROUP 4 **** **** 0

# MOE 2024.06 (io_trps.svl 2023.06)
