@<TRIPOS>MOLECULE
Thiophene-2-carboxylic acid (1-methyl-2-pyrrolidin-1-ylmethyl-1H-benzoimidazol-5
45 48 1 0 0 
SMALL
USER_CHARGES


@<TRIPOS>ATOM
  1 S        0.6980     1.7440     0.5130 S.3   1 <1>  -0.0800 
  2 C        2.1770     1.1110    -0.2210 C.2   1 <1>  -0.0450 
  3 C        0.2000     2.5220    -0.9720 C.2   1 <1>  -0.1100 
  4 C        3.0730     0.3220     0.5880 C.2   1 <1>   0.7150 
  5 C        2.2140     1.5110    -1.5210 C.2   1 <1>  -0.1500 
  6 C        1.1060     2.3030    -1.9420 C.2   1 <1>  -0.1500 
  7 O        2.7820    -0.0080     1.7210 O.2   1 <1>  -0.5700 
  8 N        4.2850    -0.0440     0.0580 N.am  1 <1>  -0.5470 
  9 C        5.3090    -0.8520     0.5820 C.ar  1 <1>   0.1170 
 10 C        6.6180    -0.5970     0.2220 C.ar  1 <1>  -0.1500 
 11 C        5.0370    -1.9280     1.4480 C.ar  1 <1>  -0.1500 
 12 C        7.6430    -1.3930     0.7240 C.ar  1 <1>   0.2270 
 13 C        6.0440    -2.7200     1.9500 C.ar  1 <1>  -0.1500 
 14 N        8.9840    -1.3120     0.5040 N.2   1 <1>  -0.5650 
 15 C        7.3600    -2.4390     1.5790 C.ar  1 <1>  -0.1520 
 16 C        9.4860    -2.2750     1.2070 C.2   1 <1>   0.0060 
 17 N        8.5570    -3.0050     1.8910 N.pl3 1 <1>   0.0480 
 18 C       10.9830    -2.5550     1.2730 C.3   1 <1>   0.5230 
 19 C        8.7190    -4.1520     2.8100 C.3   1 <1>   0.0160 
 20 N       11.6330    -1.7890     0.1790 N.4   1 <1>  -0.9590 
 21 C       11.5700    -2.4510    -1.1400 C.3   1 <1>   0.3430 
 22 C       13.0290    -1.3650     0.4060 C.3   1 <1>   0.3430 
 23 C       12.5740    -1.6760    -1.9800 C.3   1 <1>  -0.1600 
 24 C       13.5570    -1.0440    -0.9880 C.3   1 <1>  -0.1600 
 25 H       -0.7270     3.0670    -0.9620 H     1 <1>   0.1500 
 26 H        2.9940     1.2710    -2.2220 H     1 <1>   0.1500 
 27 H        1.0340     2.6730    -2.9500 H     1 <1>   0.1500 
 28 H        4.5070     0.4190    -0.8190 H     1 <1>   0.3700 
 29 H        6.8740     0.2110    -0.4350 H     1 <1>   0.1500 
 30 H        4.0180    -2.1330     1.7220 H     1 <1>   0.1500 
 31 H        5.8200    -3.5360     2.6150 H     1 <1>   0.1500 
 32 H       11.1790    -3.6080     1.1620 H     1 <1>   0.0800 
 33 H       11.3550    -2.2230     2.2270 H     1 <1>   0.0800 
 34 H        8.2720    -3.9100     3.7570 H     1 <1>   0.0800 
 35 H        9.7570    -4.3800     2.9560 H     1 <1>   0.0800 
 36 H        8.2190    -5.0090     2.3950 H     1 <1>   0.0800 
 37 H       11.0230    -0.9540     0.0920 H     1 <1>   0.4500 
 38 H       10.5760    -2.4080    -1.5580 H     1 <1>   0.0800 
 39 H       11.8850    -3.4780    -1.0540 H     1 <1>   0.0800 
 40 H       13.5980    -2.1790     0.8270 H     1 <1>   0.0800 
 41 H       13.0840    -0.5090     1.0590 H     1 <1>   0.0800 
 42 H       12.0580    -0.9080    -2.5320 H     1 <1>   0.0800 
 43 H       13.0680    -2.3260    -2.6810 H     1 <1>   0.0800 
 44 H       14.5500    -1.4430    -1.1070 H     1 <1>   0.0800 
 45 H       13.6010     0.0230    -1.1280 H     1 <1>   0.0800 
@<TRIPOS>BOND
  1   1   2  1   
  2   1   3  1   
  3   2   4  1   
  4   2   5  2   
  5   3   6  2   
  6   3  25  1   
  7   4   7  2   
  8   4   8  am  
  9   5   6  1   
 10   5  26  1   
 11   6  27  1   
 12   8   9  1   
 13   8  28  1   
 14   9  10  ar  
 15   9  11  ar  
 16  10  12  ar  
 17  10  29  1   
 18  11  13  ar  
 19  11  30  1   
 20  12  14  1   
 21  12  15  ar  
 22  13  15  ar  
 23  13  31  1   
 24  14  16  2   
 25  15  17  1   
 26  16  17  1   
 27  16  18  1   
 28  17  19  1   
 29  18  20  1   
 30  18  32  1   
 31  18  33  1   
 32  19  34  1   
 33  19  35  1   
 34  19  36  1   
 35  20  21  1   
 36  20  22  1   
 37  20  37  1   
 38  21  23  1   
 39  21  38  1   
 40  21  39  1   
 41  22  24  1   
 42  22  40  1   
 43  22  41  1   
 44  23  24  1   
 45  23  42  1   
 46  23  43  1   
 47  24  44  1   
 48  24  45  1   
@<TRIPOS>SUBSTRUCTURE
  1 ****  10 GROUP 4 **** **** 0

# MOE 2024.06 (io_trps.svl 2023.06)
