@<TRIPOS>MOLECULE
1-(4-Hydroxy-quinolin-3-yl)-3-(tetrahydro-furan-2-ylmethyl)-urea
38 40 1 0 0 
SMALL
USER_CHARGES


@<TRIPOS>ATOM
  1 O       -0.5980     0.6100     0.1480 O.2   1 <1>  -0.5700 
  2 C       -0.2500     1.3790    -0.7260 C.2   1 <1>   0.6900 
  3 N        1.0530     1.7070    -0.9250 N.am  1 <1>  -0.5390 
  4 N       -1.1730     1.9510    -1.5360 N.am  1 <1>  -0.7300 
  5 C        2.2580     1.3140    -0.2790 C.2   1 <1>   0.1230 
  6 C       -2.6370     1.6810    -1.4680 C.3   1 <1>   0.1400 
  7 C        3.4720     1.8950    -0.7790 C.2   1 <1>   0.4690 
  8 C        2.3200     0.4370     0.7610 C.2   1 <1>  -0.0500 
  9 C       -3.2890     2.3380    -0.2430 C.3   1 <1>   0.2000 
 10 O        3.4270     2.6890    -1.7200 O.2   1 <1>  -0.5700 
 11 C        4.7260     1.5380    -0.1670 C.ar  1 <1>   0.0860 
 12 N        3.5250     0.0970     1.3440 N.pl3 1 <1>  -0.6000 
 13 O       -4.6720     2.2620    -0.3610 O.3   1 <1>  -0.5600 
 14 C       -3.0210     3.8300    -0.0860 C.3   1 <1>  -0.1600 
 15 C        4.7260     0.6280     0.9030 C.ar  1 <1>   0.1000 
 16 C        5.9550     2.0580    -0.5910 C.ar  1 <1>  -0.1500 
 17 C       -5.2700     3.1950     0.4790 C.3   1 <1>   0.1200 
 18 C       -4.2600     4.3290     0.6420 C.3   1 <1>  -0.1600 
 19 C        5.9280     0.2660     1.5110 C.ar  1 <1>  -0.1500 
 20 C        7.1370     1.6930     0.0170 C.ar  1 <1>  -0.1500 
 21 C        7.1230     0.7920     1.0750 C.ar  1 <1>  -0.1500 
 22 H        1.2310     2.3560    -1.6920 H     1 <1>   0.3700 
 23 H       -0.8790     2.6380    -2.2270 H     1 <1>   0.3700 
 24 H       -2.7960     0.6170    -1.4150 H     1 <1>   0.0800 
 25 H       -3.1040     2.0550    -2.3620 H     1 <1>   0.0800 
 26 H        1.4380    -0.0270     1.1710 H     1 <1>   0.1500 
 27 H       -3.0100     1.8080     0.6530 H     1 <1>   0.0800 
 28 H        3.5370    -0.5680     2.1260 H     1 <1>   0.4000 
 29 H       -2.9490     4.2920    -1.0550 H     1 <1>   0.0800 
 30 H       -2.1140     4.0110     0.4640 H     1 <1>   0.0800 
 31 H        5.9680     2.7560    -1.4110 H     1 <1>   0.1500 
 32 H       -5.4740     2.7150     1.4210 H     1 <1>   0.0800 
 33 H       -6.1880     3.5270     0.0260 H     1 <1>   0.0800 
 34 H       -4.6300     5.2420     0.2110 H     1 <1>   0.0800 
 35 H       -4.0590     4.4880     1.6870 H     1 <1>   0.0800 
 36 H        5.9160    -0.4310     2.3290 H     1 <1>   0.1500 
 37 H        8.0730     2.1030    -0.3220 H     1 <1>   0.1500 
 38 H        8.0490     0.5110     1.5470 H     1 <1>   0.1500 
@<TRIPOS>BOND
  1   1   2  2   
  2   2   3  am  
  3   2   4  am  
  4   3   5  1   
  5   3  22  1   
  6   4   6  1   
  7   4  23  1   
  8   5   7  1   
  9   5   8  2   
 10   6   9  1   
 11   6  24  1   
 12   6  25  1   
 13   7  10  2   
 14   7  11  1   
 15   8  12  1   
 16   8  26  1   
 17   9  13  1   
 18   9  14  1   
 19   9  27  1   
 20  11  15  ar  
 21  11  16  ar  
 22  12  15  1   
 23  12  28  1   
 24  13  17  1   
 25  14  18  1   
 26  14  29  1   
 27  14  30  1   
 28  15  19  ar  
 29  16  20  ar  
 30  16  31  1   
 31  17  18  1   
 32  17  32  1   
 33  17  33  1   
 34  18  34  1   
 35  18  35  1   
 36  19  21  ar  
 37  19  36  1   
 38  20  21  ar  
 39  20  37  1   
 40  21  38  1   
@<TRIPOS>SUBSTRUCTURE
  1 ****   3 GROUP 4 **** **** 0

# MOE 2024.06 (io_trps.svl 2023.06)
