@<TRIPOS>MOLECULE
8-(2,4-Dimethoxy-phenyl)-1,3,6-trimethyl-5,6,7,8-tetrahydro-1H-1,3,4b,8,9-pentaa
52 55 1 0 0 
SMALL
USER_CHARGES


@<TRIPOS>ATOM
  1 O        1.6990    -0.2730     1.9000 O.2   1 <1>  -0.5740 
  2 C        2.4790     0.5270     1.4240 C.2   1 <1>   0.6860 
  3 N        2.0490     1.8120     1.1050 N.am  1 <1>  -0.4250 
  4 N        3.7960     0.1530     1.1920 N.am  1 <1>  -0.4410 
  5 C        2.9030     2.7260     0.5000 C.2   1 <1>   0.7000 
  6 C        0.6300     2.1930     1.3870 C.3   1 <1>   0.0530 
  7 C        4.6350     1.0700     0.5900 C.2   1 <1>   0.4210 
  8 C        4.2830    -1.2130     1.5450 C.3   1 <1>   0.0530 
  9 O        2.5170     3.8420     0.1940 O.2   1 <1>  -0.5740 
 10 C        4.2500     2.3170     0.2430 C.2   1 <1>   0.2710 
 11 N        5.9440     0.9120     0.2530 N.pl3 1 <1>  -0.7030 
 12 N        5.3780     2.9300    -0.3220 N.pl3 1 <1>  -0.7670 
 13 C        6.3740     2.0510    -0.2840 C.cat 1 <1>   1.0690 
 14 C        5.4870     4.3110    -0.8340 C.3   1 <1>   0.3480 
 15 N        7.6130     2.3210    -0.7390 N.pl3 1 <1>  -0.5800 
 16 C        6.7090     4.4150    -1.7630 C.3   1 <1>  -0.0870 
 17 C        8.6740     1.3900    -0.7100 C.ar  1 <1>   0.3050 
 18 C        7.9390     3.7160    -1.1510 C.3   1 <1>   0.1610 
 19 C        7.0290     5.8820    -2.0870 C.3   1 <1>  -0.2460 
 20 C        9.1240     0.8100     0.4860 C.ar  1 <1>   0.0750 
 21 C        9.2890     1.0330    -1.9020 C.ar  1 <1>  -0.1570 
 22 O        8.4930     1.1630     1.6450 O.3   1 <1>  -0.3680 
 23 C       10.1750    -0.1010     0.4690 C.ar  1 <1>  -0.1570 
 24 C       10.3330     0.1260    -1.9140 C.ar  1 <1>  -0.1570 
 25 C        9.1230     0.9840     2.8980 C.3   1 <1>   0.0320 
 26 C       10.7820    -0.4430    -0.7360 C.ar  1 <1>   0.0750 
 27 O       11.8110    -1.3210    -0.8440 O.3   1 <1>  -0.3680 
 28 C       12.4010    -1.9100     0.2940 C.3   1 <1>   0.0320 
 29 H        0.3040     1.7510     2.3140 H     1 <1>   0.0730 
 30 H       -0.0030     1.8380     0.5920 H     1 <1>   0.0730 
 31 H        0.5250     3.2610     1.4700 H     1 <1>   0.0730 
 32 H        3.6410    -1.6680     2.2810 H     1 <1>   0.0730 
 33 H        5.2760    -1.1620     1.9560 H     1 <1>   0.0730 
 34 H        4.2900    -1.8340     0.6650 H     1 <1>   0.0730 
 35 H        6.5680     0.1370     0.4660 H     1 <1>   0.4450 
 36 H        5.5940     4.9850     0.0000 H     1 <1>   0.0730 
 37 H        4.5920     4.5780    -1.3730 H     1 <1>   0.0730 
 38 H        6.4700     3.9240    -2.6910 H     1 <1>   0.0730 
 39 H        8.7400     3.7100    -1.8710 H     1 <1>   0.0730 
 40 H        8.2770     4.2600    -0.2850 H     1 <1>   0.0730 
 41 H        7.2850     6.4290    -1.1950 H     1 <1>   0.0730 
 42 H        6.1800     6.3590    -2.5480 H     1 <1>   0.0730 
 43 H        7.8570     5.9430    -2.7730 H     1 <1>   0.0730 
 44 H        8.9550     1.4600    -2.8310 H     1 <1>   0.1430 
 45 H       10.5190    -0.5500     1.3780 H     1 <1>   0.1430 
 46 H       10.8100    -0.1490    -2.8400 H     1 <1>   0.1430 
 47 H        8.5350     1.4840     3.6470 H     1 <1>   0.0730 
 48 H       10.1080     1.4170     2.8620 H     1 <1>   0.0730 
 49 H        9.1750    -0.0670     3.1220 H     1 <1>   0.0730 
 50 H       13.2080    -2.5390    -0.0370 H     1 <1>   0.0730 
 51 H       11.6630    -2.5040     0.8040 H     1 <1>   0.0730 
 52 H       12.7840    -1.1340     0.9330 H     1 <1>   0.0730 
@<TRIPOS>BOND
  1   1   2  2   
  2   2   3  am  
  3   2   4  am  
  4   3   5  am  
  5   3   6  1   
  6   4   7  1   
  7   4   8  1   
  8   5   9  2   
  9   5  10  1   
 10   6  29  1   
 11   6  30  1   
 12   6  31  1   
 13   7  10  2   
 14   7  11  1   
 15   8  32  1   
 16   8  33  1   
 17   8  34  1   
 18  10  12  1   
 19  11  13  ar  
 20  11  35  1   
 21  12  13  ar  
 22  12  14  1   
 23  13  15  ar  
 24  14  16  1   
 25  14  36  1   
 26  14  37  1   
 27  15  17  1   
 28  15  18  1   
 29  16  18  1   
 30  16  19  1   
 31  16  38  1   
 32  17  20  ar  
 33  17  21  ar  
 34  18  39  1   
 35  18  40  1   
 36  19  41  1   
 37  19  42  1   
 38  19  43  1   
 39  20  22  1   
 40  20  23  ar  
 41  21  24  ar  
 42  21  44  1   
 43  22  25  1   
 44  23  26  ar  
 45  23  45  1   
 46  24  26  ar  
 47  24  46  1   
 48  25  47  1   
 49  25  48  1   
 50  25  49  1   
 51  26  27  1   
 52  27  28  1   
 53  28  50  1   
 54  28  51  1   
 55  28  52  1   
@<TRIPOS>SUBSTRUCTURE
  1 ****  13 GROUP 4 **** **** 0

# MOE 2024.06 (io_trps.svl 2023.06)
