@<TRIPOS>MOLECULE
8-Benzyl-1,7-dimethyl-3-(1-methyl-2-oxo-propyl)-1H,8H-imidazo[2,1-f]purine-2,4-d
50 53 1 0 0 
SMALL
USER_CHARGES


@<TRIPOS>ATOM
  1 O        0.8730     0.1320    -0.6620 O.2   1 <1>  -0.5750 
  2 C        1.8530     0.8480    -0.6950 C.2   1 <1>   0.6860 
  3 N        1.7200     2.2190    -0.9100 N.am  1 <1>  -0.4260 
  4 N        3.1110     0.2860    -0.5150 N.am  1 <1>  -0.4420 
  5 C        2.8380     3.0380    -0.9940 C.2   1 <1>   0.6990 
  6 C        0.3860     2.8680    -0.6720 C.3   1 <1>   0.2750 
  7 C        4.2040     1.1250    -0.5140 C.2   1 <1>   0.4200 
  8 C        3.2630    -1.1750    -0.2420 C.3   1 <1>   0.0520 
  9 O        2.7360     4.2190    -1.2830 O.2   1 <1>  -0.5750 
 10 C        4.1140     2.4550    -0.7470 C.2   1 <1>   0.2700 
 11 C       -0.1030     2.5410     0.7500 C.2   1 <1>   0.4430 
 12 C       -0.5770     2.5570    -1.8330 C.3   1 <1>  -0.2470 
 13 N        5.5070     0.7980    -0.2940 N.pl3 1 <1>  -0.7040 
 14 N        5.4240     2.9590    -0.6700 N.pl3 1 <1>  -0.6330 
 15 O        0.6510     2.6300     1.6750 O.2   1 <1>  -0.5750 
 16 C       -1.5400     2.1080     0.9740 C.3   1 <1>  -0.1860 
 17 C        6.2130     1.9300    -0.3900 C.cat 1 <1>   1.0690 
 18 C        6.2290     4.0790    -0.7420 C.2   1 <1>   0.2220 
 19 N        7.4960     2.3110    -0.2780 N.pl3 1 <1>  -0.5720 
 20 C        7.4990     3.6800    -0.5030 C.2   1 <1>   0.1570 
 21 C        8.6750     1.4550     0.0320 C.3   1 <1>   0.3050 
 22 C        8.7720     4.5060    -0.4630 C.3   1 <1>  -0.1100 
 23 C        8.2200     0.0160     0.2050 C.ar  1 <1>  -0.1510 
 24 C        7.8110    -0.4410     1.4490 C.ar  1 <1>  -0.1570 
 25 C        8.1450    -0.8280    -0.8930 C.ar  1 <1>  -0.1570 
 26 C        7.3040    -1.7200     1.5870 C.ar  1 <1>  -0.1570 
 27 C        7.6380    -2.1080    -0.7530 C.ar  1 <1>  -0.1570 
 28 C        7.2120    -2.5520     0.4860 C.ar  1 <1>  -0.1570 
 29 H        0.5080     3.9370    -0.6770 H     1 <1>   0.0720 
 30 H        2.4810    -1.7300    -0.7340 H     1 <1>   0.0720 
 31 H        3.1960    -1.3530     0.8170 H     1 <1>   0.0720 
 32 H        4.2090    -1.5340    -0.6060 H     1 <1>   0.0720 
 33 H       -0.8470     1.5170    -1.8600 H     1 <1>   0.0720 
 34 H       -0.1220     2.8250    -2.7700 H     1 <1>   0.0720 
 35 H       -1.4770     3.1350    -1.7280 H     1 <1>   0.0720 
 36 H        5.9440    -0.1040    -0.0690 H     1 <1>   0.4450 
 37 H       -1.7300     1.1860     0.4560 H     1 <1>   0.0720 
 38 H       -2.2170     2.8650     0.6260 H     1 <1>   0.0720 
 39 H       -1.7100     1.9510     2.0240 H     1 <1>   0.0720 
 40 H        5.8350     5.0620    -0.9560 H     1 <1>   0.1430 
 41 H        9.1460     1.8030     0.9360 H     1 <1>   0.0720 
 42 H        9.3900     1.5210    -0.7700 H     1 <1>   0.0720 
 43 H        9.2310     4.4380     0.5070 H     1 <1>   0.0720 
 44 H        8.5520     5.5400    -0.6640 H     1 <1>   0.0720 
 45 H        9.4670     4.1560    -1.2050 H     1 <1>   0.0720 
 46 H        7.8780     0.1920     2.3190 H     1 <1>   0.1430 
 47 H        8.4750    -0.5000    -1.8660 H     1 <1>   0.1430 
 48 H        6.9880    -2.0760     2.5540 H     1 <1>   0.1430 
 49 H        7.5830    -2.7640    -1.6060 H     1 <1>   0.1430 
 50 H        6.8240    -3.5510     0.5960 H     1 <1>   0.1430 
@<TRIPOS>BOND
  1   1   2  2   
  2   2   3  am  
  3   2   4  am  
  4   3   5  am  
  5   3   6  1   
  6   4   7  1   
  7   4   8  1   
  8   5   9  2   
  9   5  10  1   
 10   6  11  1   
 11   6  12  1   
 12   6  29  1   
 13   7  10  2   
 14   7  13  1   
 15   8  30  1   
 16   8  31  1   
 17   8  32  1   
 18  10  14  1   
 19  11  15  2   
 20  11  16  1   
 21  12  33  1   
 22  12  34  1   
 23  12  35  1   
 24  13  17  ar  
 25  13  36  1   
 26  14  17  ar  
 27  14  18  1   
 28  16  37  1   
 29  16  38  1   
 30  16  39  1   
 31  17  19  ar  
 32  18  20  2   
 33  18  40  1   
 34  19  20  1   
 35  19  21  1   
 36  20  22  1   
 37  21  23  1   
 38  21  41  1   
 39  21  42  1   
 40  22  43  1   
 41  22  44  1   
 42  22  45  1   
 43  23  24  ar  
 44  23  25  ar  
 45  24  26  ar  
 46  24  46  1   
 47  25  27  ar  
 48  25  47  1   
 49  26  28  ar  
 50  26  48  1   
 51  27  28  ar  
 52  27  49  1   
 53  28  50  1   
@<TRIPOS>SUBSTRUCTURE
  1 ****   7 GROUP 4 **** **** 0

# MOE 2024.06 (io_trps.svl 2023.06)
