@<TRIPOS>MOLECULE
N-{4-[3-(4-Bromo-3,5-dimethyl-pyrazol-1-yl)-2-hydroxy-propoxy]-phenyl}-acetamide
43 44 1 0 0 
SMALL
USER_CHARGES


@<TRIPOS>ATOM
  1 BR      -0.3290    -1.4770     2.2180 Br    1 <1>  -0.0570 
  2 C        0.8670    -2.2490     0.8990 C.2   1 <1>   0.0570 
  3 C        0.7780    -2.0490    -0.4690 C.2   1 <1>   0.1080 
  4 C        1.9160    -3.0590     1.1280 C.2   1 <1>  -0.3320 
  5 N        1.7200    -2.6980    -1.0840 N.2   1 <1>  -0.7070 
  6 C       -0.2520    -1.2070    -1.1870 C.3   1 <1>  -0.0590 
  7 N        2.4220    -3.3270    -0.1040 N.pl3 1 <1>   0.3140 
  8 C        2.4590    -3.5870     2.4470 C.3   1 <1>  -0.0600 
  9 C        3.6020    -4.1570    -0.4250 C.3   1 <1>   0.0960 
 10 C        4.7310    -3.2930    -1.0030 C.3   1 <1>   0.2000 
 11 O        4.3090    -2.7350    -2.2000 O.3   1 <1>  -0.6800 
 12 C        6.0040    -4.0950    -1.2780 C.3   1 <1>   0.1200 
 13 O        6.4130    -4.7380    -0.0860 O.3   1 <1>  -0.3630 
 14 C        7.5050    -5.5470    -0.0680 C.ar  1 <1>   0.0830 
 15 C        7.7980    -6.1710     1.1330 C.ar  1 <1>  -0.1500 
 16 C        8.3250    -5.7730    -1.1700 C.ar  1 <1>  -0.1500 
 17 C        8.8900    -7.0140     1.2380 C.ar  1 <1>  -0.1500 
 18 C        9.4150    -6.6180    -1.0570 C.ar  1 <1>  -0.1500 
 19 C        9.7140    -7.2530     0.1430 C.ar  1 <1>   0.1170 
 20 N       10.8400    -8.0920     0.2010 N.am  1 <1>  -0.5470 
 21 C       11.1530    -9.1090     1.0570 C.2   1 <1>   0.5690 
 22 O       10.4430    -9.4890     1.9520 O.2   1 <1>  -0.5700 
 23 C       12.4760    -9.8020     0.8480 C.3   1 <1>  -0.1790 
 24 H        0.1130    -0.9360    -2.1600 H     1 <1>   0.0800 
 25 H       -0.4530    -0.3120    -0.6280 H     1 <1>   0.0800 
 26 H       -1.1610    -1.7690    -1.2980 H     1 <1>   0.0800 
 27 H        1.8790    -3.2070     3.2690 H     1 <1>   0.0800 
 28 H        3.4800    -3.2770     2.5810 H     1 <1>   0.0800 
 29 H        2.4110    -4.6610     2.4670 H     1 <1>   0.0800 
 30 H        3.3140    -4.9100    -1.1350 H     1 <1>   0.0800 
 31 H        3.9370    -4.6470     0.4690 H     1 <1>   0.0800 
 32 H        4.9570    -2.4840    -0.3290 H     1 <1>   0.0800 
 33 H        3.3580    -2.4640    -2.0970 H     1 <1>   0.4000 
 34 H        6.7940    -3.4360    -1.5960 H     1 <1>   0.0800 
 35 H        5.8160    -4.8490    -2.0220 H     1 <1>   0.0800 
 36 H        7.1690    -5.9960     1.9860 H     1 <1>   0.1500 
 37 H        8.1310    -5.3050    -2.1160 H     1 <1>   0.1500 
 38 H        9.0990    -7.4830     2.1820 H     1 <1>   0.1500 
 39 H       10.0390    -6.7870    -1.9160 H     1 <1>   0.1500 
 40 H       11.5190    -7.9370    -0.5400 H     1 <1>   0.3700 
 41 H       12.4880   -10.2810    -0.1130 H     1 <1>   0.0800 
 42 H       12.6170   -10.5480     1.6090 H     1 <1>   0.0800 
 43 H       13.2760    -9.0890     0.9090 H     1 <1>   0.0800 
@<TRIPOS>BOND
  1   1   2  1   
  2   2   3  1   
  3   2   4  2   
  4   3   5  2   
  5   3   6  1   
  6   4   7  1   
  7   4   8  1   
  8   5   7  1   
  9   6  24  1   
 10   6  25  1   
 11   6  26  1   
 12   7   9  1   
 13   8  27  1   
 14   8  28  1   
 15   8  29  1   
 16   9  10  1   
 17   9  30  1   
 18   9  31  1   
 19  10  11  1   
 20  10  12  1   
 21  10  32  1   
 22  11  33  1   
 23  12  13  1   
 24  12  34  1   
 25  12  35  1   
 26  13  14  1   
 27  14  15  ar  
 28  14  16  ar  
 29  15  17  ar  
 30  15  36  1   
 31  16  18  ar  
 32  16  37  1   
 33  17  19  ar  
 34  17  38  1   
 35  18  19  ar  
 36  18  39  1   
 37  19  20  1   
 38  20  21  am  
 39  20  40  1   
 40  21  22  2   
 41  21  23  1   
 42  23  41  1   
 43  23  42  1   
 44  23  43  1   
@<TRIPOS>SUBSTRUCTURE
  1 ****  13 GROUP 4 **** **** 0

# MOE 2024.06 (io_trps.svl 2023.06)
