@<TRIPOS>MOLECULE
N-(5-Cyclohexyl-[1,3,4]thiadiazol-2-yl)-2-phenyl-acetamide
40 42 1 0 0 
SMALL
USER_CHARGES


@<TRIPOS>ATOM
  1 S       -0.3610    -0.1510    -0.3470 S.3   1 <1>  -0.0800 
  2 C       -1.6570     0.3210     0.7090 C.2   1 <1>   0.4420 
  3 C        0.2900    -1.0580     0.9750 C.2   1 <1>   0.1980 
  4 N       -1.5330    -0.1830     1.8810 N.2   1 <1>  -0.3380 
  5 N       -2.6800     1.1430     0.2930 N.am  1 <1>  -0.4940 
  6 N       -0.4220    -0.9670     2.0270 N.2   1 <1>  -0.3380 
  7 C        1.5860    -1.8240     0.7310 C.3   1 <1>   0.1000 
  8 C       -2.9490     1.7500    -0.9020 C.2   1 <1>   0.5690 
  9 C        1.3130    -3.1090    -0.0710 C.3   1 <1>  -0.1600 
 10 C        2.3090    -2.1580     2.0500 C.3   1 <1>  -0.1600 
 11 O       -2.2490     1.6430    -1.8770 O.2   1 <1>  -0.5700 
 12 C       -4.1980     2.6090    -1.0140 C.3   1 <1>   0.0440 
 13 C        2.5990    -3.9120    -0.3160 C.3   1 <1>  -0.1600 
 14 C        3.5990    -2.9540     1.8050 C.3   1 <1>  -0.1600 
 15 C       -5.0000     2.6580     0.2830 C.ar  1 <1>  -0.1440 
 16 C        3.3150    -4.2300     1.0030 C.3   1 <1>  -0.1600 
 17 C       -5.9810     1.7100     0.5350 C.ar  1 <1>  -0.1500 
 18 C       -4.7360     3.6350     1.2320 C.ar  1 <1>  -0.1500 
 19 C       -6.6870     1.7360     1.7240 C.ar  1 <1>  -0.1500 
 20 C       -5.4430     3.6610     2.4210 C.ar  1 <1>  -0.1500 
 21 C       -6.4180     2.7110     2.6690 C.ar  1 <1>  -0.1500 
 22 H       -3.3680     1.3300     1.0250 H     1 <1>   0.3700 
 23 H        2.2340    -1.1910     0.1500 H     1 <1>   0.0800 
 24 H        0.8660    -2.8590    -1.0180 H     1 <1>   0.0800 
 25 H        0.6110    -3.7200     0.4710 H     1 <1>   0.0800 
 26 H        1.6530    -2.7360     2.6790 H     1 <1>   0.0800 
 27 H        2.5420    -1.2460     2.5710 H     1 <1>   0.0800 
 28 H       -4.8100     2.2170    -1.8060 H     1 <1>   0.0800 
 29 H       -3.9030     3.6020    -1.2980 H     1 <1>   0.0800 
 30 H        3.2590    -3.3460    -0.9520 H     1 <1>   0.0800 
 31 H        2.3590    -4.8300    -0.8250 H     1 <1>   0.0800 
 32 H        4.0450    -3.2150     2.7490 H     1 <1>   0.0800 
 33 H        4.3020    -2.3420     1.2660 H     1 <1>   0.0800 
 34 H        4.2400    -4.7410     0.7970 H     1 <1>   0.0800 
 35 H        2.7000    -4.8900     1.5910 H     1 <1>   0.0800 
 36 H       -6.2010     0.9450    -0.1910 H     1 <1>   0.1500 
 37 H       -3.9800     4.3800     1.0530 H     1 <1>   0.1500 
 38 H       -7.4470     0.9980     1.9160 H     1 <1>   0.1500 
 39 H       -5.2350     4.4200     3.1550 H     1 <1>   0.1500 
 40 H       -6.9670     2.7310     3.5940 H     1 <1>   0.1500 
@<TRIPOS>BOND
  1   1   2  1   
  2   1   3  1   
  3   2   4  2   
  4   2   5  1   
  5   3   6  2   
  6   3   7  1   
  7   4   6  1   
  8   5   8  am  
  9   5  22  1   
 10   7   9  1   
 11   7  10  1   
 12   7  23  1   
 13   8  11  2   
 14   8  12  1   
 15   9  13  1   
 16   9  24  1   
 17   9  25  1   
 18  10  14  1   
 19  10  26  1   
 20  10  27  1   
 21  12  15  1   
 22  12  28  1   
 23  12  29  1   
 24  13  16  1   
 25  13  30  1   
 26  13  31  1   
 27  14  16  1   
 28  14  32  1   
 29  14  33  1   
 30  15  17  ar  
 31  15  18  ar  
 32  16  34  1   
 33  16  35  1   
 34  17  19  ar  
 35  17  36  1   
 36  18  20  ar  
 37  18  37  1   
 38  19  21  ar  
 39  19  38  1   
 40  20  21  ar  
 41  20  39  1   
 42  21  40  1   
@<TRIPOS>SUBSTRUCTURE
  1 ****   2 GROUP 4 **** **** 0

# MOE 2024.06 (io_trps.svl 2023.06)
