@<TRIPOS>MOLECULE
Pentanoic acid [1-(3-phenyl-[1,2,4]oxadiazol-5-yl)-ethyl]-amide
39 40 1 0 0 
SMALL
USER_CHARGES


@<TRIPOS>ATOM
  1 O       -2.6790     0.4800    -2.5270 O.2   1 <1>  -0.5700 
  2 C       -3.3570     0.4030    -1.5350 C.2   1 <1>   0.5690 
  3 N       -4.5850    -0.1500    -1.6290 N.am  1 <1>  -0.7300 
  4 C       -2.8380     0.9230    -0.2000 C.3   1 <1>  -0.0990 
  5 C       -5.5880    -0.3860    -0.5700 C.3   1 <1>   0.4000 
  6 C       -1.3700     1.3850    -0.2290 C.3   1 <1>  -0.1600 
  7 C       -5.5250    -1.8350    -0.0730 C.2   1 <1>   0.2980 
  8 C       -6.9540    -0.0060    -1.1440 C.3   1 <1>  -0.2400 
  9 C       -0.9090     1.8770     1.1490 C.3   1 <1>  -0.1600 
 10 O       -4.5120    -2.1670     0.6840 O.3   1 <1>  -0.0190 
 11 N       -6.3540    -2.7720    -0.3070 N.2   1 <1>  -0.5650 
 12 C        0.5520     2.3330     1.1070 C.3   1 <1>  -0.2400 
 13 N       -4.7120    -3.4170     0.9550 N.2   1 <1>  -0.4100 
 14 C       -5.7970    -3.7830     0.3680 C.2   1 <1>   0.4620 
 15 C       -6.3770    -5.1150     0.4100 C.ar  1 <1>   0.0540 
 16 C       -5.7620    -6.1490     1.1200 C.ar  1 <1>  -0.1500 
 17 C       -7.5670    -5.4210    -0.2540 C.ar  1 <1>  -0.1500 
 18 C       -6.3060    -7.4210     1.1660 C.ar  1 <1>  -0.1500 
 19 C       -8.1160    -6.6900    -0.2120 C.ar  1 <1>  -0.1500 
 20 C       -7.4860    -7.6940     0.4990 C.ar  1 <1>  -0.1500 
 21 H       -4.8220    -0.5380    -2.5430 H     1 <1>   0.3700 
 22 H       -2.9350     0.1400     0.5290 H     1 <1>   0.0800 
 23 H       -3.4570     1.7480     0.1010 H     1 <1>   0.0800 
 24 H       -5.3870     0.2580     0.2670 H     1 <1>   0.0800 
 25 H       -1.2620     2.1770    -0.9510 H     1 <1>   0.0800 
 26 H       -0.7480     0.5640    -0.5460 H     1 <1>   0.0800 
 27 H       -7.1970    -0.6310    -1.9850 H     1 <1>   0.0800 
 28 H       -6.9560     1.0240    -1.4510 H     1 <1>   0.0800 
 29 H       -7.7120    -0.1410    -0.3940 H     1 <1>   0.0800 
 30 H       -1.0110     1.0840     1.8710 H     1 <1>   0.0800 
 31 H       -1.5260     2.7010     1.4660 H     1 <1>   0.0800 
 32 H        1.1910     1.5190     0.8120 H     1 <1>   0.0800 
 33 H        0.8600     2.6740     2.0800 H     1 <1>   0.0800 
 34 H        0.6740     3.1400     0.4060 H     1 <1>   0.0800 
 35 H       -4.8430    -5.9550     1.6450 H     1 <1>   0.1500 
 36 H       -8.0720    -4.6530    -0.8130 H     1 <1>   0.1500 
 37 H       -5.8100    -8.1980     1.7220 H     1 <1>   0.1500 
 38 H       -9.0350    -6.8970    -0.7340 H     1 <1>   0.1500 
 39 H       -7.9110    -8.6820     0.5340 H     1 <1>   0.1500 
@<TRIPOS>BOND
  1   1   2  2   
  2   2   3  am  
  3   2   4  1   
  4   3   5  1   
  5   3  21  1   
  6   4   6  1   
  7   4  22  1   
  8   4  23  1   
  9   5   7  1   
 10   5   8  1   
 11   5  24  1   
 12   6   9  1   
 13   6  25  1   
 14   6  26  1   
 15   7  10  1   
 16   7  11  2   
 17   8  27  1   
 18   8  28  1   
 19   8  29  1   
 20   9  12  1   
 21   9  30  1   
 22   9  31  1   
 23  10  13  1   
 24  11  14  1   
 25  12  32  1   
 26  12  33  1   
 27  12  34  1   
 28  13  14  2   
 29  14  15  1   
 30  15  16  ar  
 31  15  17  ar  
 32  16  18  ar  
 33  16  35  1   
 34  17  19  ar  
 35  17  36  1   
 36  18  20  ar  
 37  18  37  1   
 38  19  20  ar  
 39  19  38  1   
 40  20  39  1   
@<TRIPOS>SUBSTRUCTURE
  1 ****  10 GROUP 4 **** **** 0

# MOE 2024.06 (io_trps.svl 2023.06)
