@<TRIPOS>MOLECULE
(3-Methanesulfonyl-imidazolidin-1-yl)-phenyl-methanone
31 32 1 0 0 
SMALL
USER_CHARGES


@<TRIPOS>ATOM
  1 S       -0.2550     0.4940     0.8480 S.o2  1 <1>   1.3330 
  2 O        0.0950     1.6770     1.5980 O.2   1 <1>  -0.6500 
  3 O       -0.2100    -0.8020     1.4820 O.2   1 <1>  -0.6500 
  4 N       -1.8100     0.7080     0.2410 N.am  1 <1>  -0.8490 
  5 C        0.7320     0.4220    -0.6310 C.3   1 <1>  -0.1350 
  6 C       -2.7860     0.2350     1.1970 C.3   1 <1>   0.4960 
  7 C       -2.1880     2.0810    -0.0720 C.3   1 <1>   0.1960 
  8 N       -4.0270     0.9150     0.8020 N.am  1 <1>  -0.6600 
  9 C       -3.7080     2.0540    -0.0770 C.3   1 <1>   0.1400 
 10 C       -5.2470     0.3000     0.9020 C.2   1 <1>   0.5440 
 11 O       -5.3100    -0.7850     1.4460 O.2   1 <1>  -0.5700 
 12 C       -6.4470     0.9120     0.3640 C.ar  1 <1>   0.0860 
 13 C       -6.8550     2.1890     0.7500 C.ar  1 <1>  -0.1500 
 14 C       -7.2370     0.2350    -0.5640 C.ar  1 <1>  -0.1500 
 15 C       -7.9900     2.7740     0.2170 C.ar  1 <1>  -0.1500 
 16 C       -8.3720     0.8130    -1.1010 C.ar  1 <1>  -0.1500 
 17 C       -8.7490     2.0870    -0.7130 C.ar  1 <1>  -0.1500 
 18 H        0.4010    -0.3860    -1.2540 H     1 <1>   0.0800 
 19 H        1.7610     0.2620    -0.3770 H     1 <1>   0.0800 
 20 H        0.6500     1.3400    -1.1790 H     1 <1>   0.0800 
 21 H       -2.5200     0.5260     2.2020 H     1 <1>   0.0800 
 22 H       -2.8850    -0.8380     1.1440 H     1 <1>   0.0800 
 23 H       -1.7900     2.3950    -1.0210 H     1 <1>   0.0800 
 24 H       -1.8600     2.7600     0.6980 H     1 <1>   0.0800 
 25 H       -4.0780     1.8670    -1.0710 H     1 <1>   0.0800 
 26 H       -4.1140     2.9740     0.3030 H     1 <1>   0.0800 
 27 H       -6.2750     2.7230     1.4820 H     1 <1>   0.1500 
 28 H       -6.9490    -0.7590    -0.8600 H     1 <1>   0.1500 
 29 H       -8.2870     3.7620     0.5270 H     1 <1>   0.1500 
 30 H       -8.9650     0.2720    -1.8180 H     1 <1>   0.1500 
 31 H       -9.6320     2.5390    -1.1300 H     1 <1>   0.1500 
@<TRIPOS>BOND
  1   1   2  2   
  2   1   3  2   
  3   1   4  am  
  4   1   5  1   
  5   4   6  1   
  6   4   7  1   
  7   5  18  1   
  8   5  19  1   
  9   5  20  1   
 10   6   8  1   
 11   6  21  1   
 12   6  22  1   
 13   7   9  1   
 14   7  23  1   
 15   7  24  1   
 16   8   9  1   
 17   8  10  am  
 18   9  25  1   
 19   9  26  1   
 20  10  11  2   
 21  10  12  1   
 22  12  13  ar  
 23  12  14  ar  
 24  13  15  ar  
 25  13  27  1   
 26  14  16  ar  
 27  14  28  1   
 28  15  17  ar  
 29  15  29  1   
 30  16  17  ar  
 31  16  30  1   
 32  17  31  1   
@<TRIPOS>SUBSTRUCTURE
  1 ****   8 GROUP 4 **** **** 0

# MOE 2024.06 (io_trps.svl 2023.06)
