@<TRIPOS>MOLECULE
5-Oxo-1-p-tolyl-pyrrolidine-3-carboxylic acid (5-ethyl-[1,3,4]thiadiazol-2-yl)-a
41 43 1 0 0 
SMALL
USER_CHARGES


@<TRIPOS>ATOM
  1 S       -1.8990     1.6970     0.5880 S.3   1 <1>  -0.0800 
  2 C       -1.7150     0.0900    -0.0360 C.2   1 <1>   0.4420 
  3 C       -0.5580     2.1600    -0.4040 C.2   1 <1>   0.1980 
  4 N       -0.7490     0.0050    -0.8750 N.2   1 <1>  -0.3380 
  5 N       -2.6030    -0.8570     0.4300 N.am  1 <1>  -0.4940 
  6 N       -0.0940     1.1880    -1.0790 N.2   1 <1>  -0.3380 
  7 C       -0.1180     3.6150    -0.3470 C.3   1 <1>   0.0200 
  8 C       -2.6820    -2.1880     0.1280 C.2   1 <1>   0.5690 
  9 C        1.0760     3.9150    -1.2640 C.3   1 <1>  -0.2400 
 10 O       -1.9100    -2.7480    -0.6040 O.2   1 <1>  -0.5700 
 11 C       -3.7920    -3.0010     0.7800 C.3   1 <1>  -0.0190 
 12 C       -3.9990    -4.3840     0.1430 C.3   1 <1>   0.1400 
 13 C       -5.1810    -2.3450     0.7290 C.3   1 <1>  -0.0990 
 14 N       -5.4380    -4.6680     0.3310 N.am  1 <1>  -0.4770 
 15 C       -6.1110    -3.5220     0.6440 C.2   1 <1>   0.5690 
 16 C       -5.9770    -5.9390     0.0510 C.ar  1 <1>   0.1170 
 17 O       -7.2930    -3.3970     0.8430 O.2   1 <1>  -0.5700 
 18 C       -7.1750    -6.0710    -0.6430 C.ar  1 <1>  -0.1500 
 19 C       -5.3230    -7.1020     0.4510 C.ar  1 <1>  -0.1500 
 20 C       -7.6980    -7.3170    -0.9360 C.ar  1 <1>  -0.1500 
 21 C       -5.8430    -8.3500     0.1580 C.ar  1 <1>  -0.1500 
 22 C       -7.0350    -8.4660    -0.5370 C.ar  1 <1>  -0.1440 
 23 C       -7.6080    -9.8340    -0.8600 C.3   1 <1>  -0.0970 
 24 H       -3.2890    -0.5000     1.0880 H     1 <1>   0.3700 
 25 H        0.1470     3.8550     0.6670 H     1 <1>   0.0800 
 26 H       -0.9470     4.2370    -0.6330 H     1 <1>   0.0800 
 27 H        1.9210     3.3100    -0.9820 H     1 <1>   0.0800 
 28 H        1.3520     4.9510    -1.1910 H     1 <1>   0.0800 
 29 H        0.8240     3.6930    -2.2860 H     1 <1>   0.0800 
 30 H       -3.5230    -3.1620     1.8080 H     1 <1>   0.0800 
 31 H       -3.3790    -5.1230     0.6200 H     1 <1>   0.0800 
 32 H       -3.7880    -4.3670    -0.9140 H     1 <1>   0.0800 
 33 H       -5.3090    -1.7520    -0.1590 H     1 <1>   0.0800 
 34 H       -5.3900    -1.7590     1.6050 H     1 <1>   0.0800 
 35 H       -7.7040    -5.1900    -0.9570 H     1 <1>   0.1500 
 36 H       -4.4050    -7.0390     1.0020 H     1 <1>   0.1500 
 37 H       -8.6260    -7.3870    -1.4750 H     1 <1>   0.1500 
 38 H       -5.3170    -9.2320     0.4770 H     1 <1>   0.1500 
 39 H       -8.6820    -9.7930    -0.8900 H     1 <1>   0.0800 
 40 H       -7.3180   -10.5500    -0.1120 H     1 <1>   0.0800 
 41 H       -7.2460   -10.1630    -1.8170 H     1 <1>   0.0800 
@<TRIPOS>BOND
  1   1   2  1   
  2   1   3  1   
  3   2   4  2   
  4   2   5  1   
  5   3   6  2   
  6   3   7  1   
  7   4   6  1   
  8   5   8  am  
  9   5  24  1   
 10   7   9  1   
 11   7  25  1   
 12   7  26  1   
 13   8  10  2   
 14   8  11  1   
 15   9  27  1   
 16   9  28  1   
 17   9  29  1   
 18  11  12  1   
 19  11  13  1   
 20  11  30  1   
 21  12  14  1   
 22  12  31  1   
 23  12  32  1   
 24  13  15  1   
 25  13  33  1   
 26  13  34  1   
 27  14  15  am  
 28  14  16  1   
 29  15  17  2   
 30  16  18  ar  
 31  16  19  ar  
 32  18  20  ar  
 33  18  35  1   
 34  19  21  ar  
 35  19  36  1   
 36  20  22  ar  
 37  20  37  1   
 38  21  22  ar  
 39  21  38  1   
 40  22  23  1   
 41  23  39  1   
 42  23  40  1   
 43  23  41  1   
@<TRIPOS>SUBSTRUCTURE
  1 ****  11 GROUP 4 **** **** 0

# MOE 2024.06 (io_trps.svl 2023.06)
