@<TRIPOS>MOLECULE
N-[1-Methyl-2-(4-methyl-piperazin-1-yl)-2-oxo-ethyl]-N-p-tolyl-methanesulfonamid
49 50 1 0 0 
SMALL
USER_CHARGES


@<TRIPOS>ATOM
  1 S        1.6310     0.6310     0.5950 S.o2  1 <1>   1.3330 
  2 O        2.5910    -0.0990    -0.1990 O.2   1 <1>  -0.6500 
  3 O        2.1500     1.5840     1.5490 O.2   1 <1>  -0.6500 
  4 N        0.6210     1.4720    -0.5210 N.am  1 <1>  -0.6930 
  5 C        0.5220    -0.5210     1.3780 C.3   1 <1>  -0.1350 
  6 C       -0.6050     1.9630    -0.0790 C.ar  1 <1>   0.1990 
  7 C        1.3530     2.1900    -1.6150 C.3   1 <1>   0.3370 
  8 C       -1.7820     1.3690    -0.5180 C.ar  1 <1>  -0.1500 
  9 C       -0.6890     3.0200     0.8190 C.ar  1 <1>  -0.1500 
 10 C        2.1740     3.4040    -1.0950 C.2   1 <1>   0.5690 
 11 C        0.3830     2.5800    -2.7420 C.3   1 <1>  -0.2400 
 12 C       -3.0110     1.8160    -0.0710 C.ar  1 <1>  -0.1500 
 13 C       -1.9170     3.4700     1.2670 C.ar  1 <1>  -0.1500 
 14 O        1.5800     4.4400    -0.9030 O.2   1 <1>  -0.5700 
 15 N        3.5290     3.3430    -0.8170 N.am  1 <1>  -0.6600 
 16 C       -3.0860     2.8700     0.8250 C.ar  1 <1>  -0.1430 
 17 C        4.1510     4.4010     0.0380 C.3   1 <1>   0.1400 
 18 C        4.4710     2.2140    -1.1090 C.3   1 <1>   0.1400 
 19 C       -4.4310     3.3680     1.3200 C.3   1 <1>  -0.0970 
 20 C        4.6450     3.7760     1.3540 C.3   1 <1>   0.3430 
 21 C        5.0740     1.6260     0.1890 C.3   1 <1>   0.3430 
 22 N        5.6450     2.6750     1.1100 N.4   1 <1>  -0.9590 
 23 C        6.0450     2.0510     2.4050 C.3   1 <1>   0.2630 
 24 H        1.0580    -1.1410     2.0700 H     1 <1>   0.0800 
 25 H        0.0590    -1.1490     0.6420 H     1 <1>   0.0800 
 26 H       -0.2450     0.0040     1.9140 H     1 <1>   0.0800 
 27 H        2.0290     1.4880    -2.0600 H     1 <1>   0.0800 
 28 H       -1.7290     0.5540    -1.2160 H     1 <1>   0.1500 
 29 H        0.2100     3.4960     1.1640 H     1 <1>   0.1500 
 30 H       -0.3260     3.3140    -2.4010 H     1 <1>   0.0800 
 31 H       -0.1420     1.7130    -3.1010 H     1 <1>   0.0800 
 32 H        0.9330     3.0080    -3.5600 H     1 <1>   0.0800 
 33 H       -3.9110     1.3430    -0.4230 H     1 <1>   0.1500 
 34 H       -1.9600     4.2920     1.9600 H     1 <1>   0.1500 
 35 H        3.4440     5.1780     0.2740 H     1 <1>   0.0800 
 36 H        4.9690     4.8590    -0.4890 H     1 <1>   0.0800 
 37 H        5.2690     2.5830    -1.7300 H     1 <1>   0.0800 
 38 H        3.9910     1.4270    -1.6580 H     1 <1>   0.0800 
 39 H       -4.6700     2.9000     2.2580 H     1 <1>   0.0800 
 40 H       -5.2050     3.1390     0.6090 H     1 <1>   0.0800 
 41 H       -4.4060     4.4340     1.4610 H     1 <1>   0.0800 
 42 H        3.7900     3.3820     1.8810 H     1 <1>   0.0800 
 43 H        5.0870     4.5450     1.9660 H     1 <1>   0.0800 
 44 H        5.8360     0.9110    -0.0710 H     1 <1>   0.0800 
 45 H        4.3010     1.0900     0.7110 H     1 <1>   0.0800 
 46 H        6.4710     3.0870     0.6560 H     1 <1>   0.4500 
 47 H        5.1830     1.6200     2.8900 H     1 <1>   0.0800 
 48 H        6.4750     2.7910     3.0610 H     1 <1>   0.0800 
 49 H        6.7730     1.2740     2.2400 H     1 <1>   0.0800 
@<TRIPOS>BOND
  1   1   2  2   
  2   1   3  2   
  3   1   4  am  
  4   1   5  1   
  5   4   6  1   
  6   4   7  1   
  7   5  24  1   
  8   5  25  1   
  9   5  26  1   
 10   6   8  ar  
 11   6   9  ar  
 12   7  10  1   
 13   7  11  1   
 14   7  27  1   
 15   8  12  ar  
 16   8  28  1   
 17   9  13  ar  
 18   9  29  1   
 19  10  14  2   
 20  10  15  am  
 21  11  30  1   
 22  11  31  1   
 23  11  32  1   
 24  12  16  ar  
 25  12  33  1   
 26  13  16  ar  
 27  13  34  1   
 28  15  17  1   
 29  15  18  1   
 30  16  19  1   
 31  17  20  1   
 32  17  35  1   
 33  17  36  1   
 34  18  21  1   
 35  18  37  1   
 36  18  38  1   
 37  19  39  1   
 38  19  40  1   
 39  19  41  1   
 40  20  22  1   
 41  20  42  1   
 42  20  43  1   
 43  21  22  1   
 44  21  44  1   
 45  21  45  1   
 46  22  23  1   
 47  22  46  1   
 48  23  47  1   
 49  23  48  1   
 50  23  49  1   
@<TRIPOS>SUBSTRUCTURE
  1 ****   4 GROUP 4 **** **** 0

# MOE 2024.06 (io_trps.svl 2023.06)
