@<TRIPOS>MOLECULE
N-Ethyl-N-(2-hydroxy-6-methoxy-quinolin-3-ylmethyl)-butyramide
44 45 1 0 0 
SMALL
USER_CHARGES


@<TRIPOS>ATOM
  1 O       -1.9940     0.0500    -1.9990 O.2   1 <1>  -0.5700 
  2 C       -2.3340    -0.1780    -0.8620 C.2   1 <1>   0.5690 
  3 N       -2.5660    -1.4610    -0.4270 N.am  1 <1>  -0.6600 
  4 C       -2.4800     1.0280     0.0580 C.3   1 <1>  -0.0990 
  5 C       -3.0690    -1.8260     0.9300 C.3   1 <1>   0.2780 
  6 C       -2.3430    -2.6180    -1.3370 C.3   1 <1>   0.1400 
  7 C       -3.9400     1.4810     0.2300 C.3   1 <1>  -0.1600 
  8 C       -4.5700    -2.0960     0.9490 C.2   1 <1>  -0.1240 
  9 C       -0.9320    -3.1640    -1.1320 C.3   1 <1>  -0.2400 
 10 C       -4.0350     2.7280     1.1140 C.3   1 <1>  -0.2400 
 11 C       -5.0790    -2.5810     2.1950 C.2   1 <1>   0.6160 
 12 C       -5.4150    -1.9010    -0.1000 C.2   1 <1>  -0.1780 
 13 O       -4.3800    -2.7680     3.1760 O.2   1 <1>  -0.5700 
 14 N       -6.4100    -2.8430     2.2950 N.am  1 <1>  -0.5470 
 15 C       -6.8150    -2.1780     0.0180 C.ar  1 <1>   0.0280 
 16 C       -7.3030    -2.6570     1.2440 C.ar  1 <1>   0.1170 
 17 C       -7.7140    -1.9920    -1.0320 C.ar  1 <1>  -0.1500 
 18 C       -8.6590    -2.9360     1.3900 C.ar  1 <1>  -0.1500 
 19 C       -9.0570    -2.2690    -0.8840 C.ar  1 <1>   0.0820 
 20 C       -9.5330    -2.7460     0.3400 C.ar  1 <1>  -0.1500 
 21 O       -9.8500    -2.0550    -1.9670 O.3   1 <1>  -0.3630 
 22 C      -11.2380    -2.3040    -1.9170 C.3   1 <1>   0.0400 
 23 H       -1.9200     1.8370    -0.3760 H     1 <1>   0.0800 
 24 H       -2.0310     0.8190     1.0100 H     1 <1>   0.0800 
 25 H       -2.8480    -1.0520     1.6400 H     1 <1>   0.0800 
 26 H       -2.5520    -2.7090     1.2650 H     1 <1>   0.0800 
 27 H       -2.4630    -2.3080    -2.3620 H     1 <1>   0.0800 
 28 H       -3.0710    -3.3870    -1.1400 H     1 <1>   0.0800 
 29 H       -4.5230     0.6950     0.6730 H     1 <1>   0.0800 
 30 H       -4.3590     1.6970    -0.7380 H     1 <1>   0.0800 
 31 H       -0.2080    -2.3970    -1.3470 H     1 <1>   0.0800 
 32 H       -0.7630    -3.9860    -1.8030 H     1 <1>   0.0800 
 33 H       -0.7970    -3.5120    -0.1250 H     1 <1>   0.0800 
 34 H       -3.6410     2.5280     2.0950 H     1 <1>   0.0800 
 35 H       -5.0640     3.0280     1.2150 H     1 <1>   0.0800 
 36 H       -3.4850     3.5430     0.6770 H     1 <1>   0.0800 
 37 H       -5.0750    -1.5300    -1.0510 H     1 <1>   0.1500 
 38 H       -6.7230    -3.1850     3.2010 H     1 <1>   0.3700 
 39 H       -7.3580    -1.6250    -1.9780 H     1 <1>   0.1500 
 40 H       -9.0250    -3.3020     2.3320 H     1 <1>   0.1500 
 41 H      -10.5730    -2.9690     0.4820 H     1 <1>   0.1500 
 42 H      -11.6550    -2.0640    -2.8790 H     1 <1>   0.0800 
 43 H      -11.6790    -1.6780    -1.1620 H     1 <1>   0.0800 
 44 H      -11.3980    -3.3450    -1.7000 H     1 <1>   0.0800 
@<TRIPOS>BOND
  1   1   2  2   
  2   2   3  am  
  3   2   4  1   
  4   3   5  1   
  5   3   6  1   
  6   4   7  1   
  7   4  23  1   
  8   4  24  1   
  9   5   8  1   
 10   5  25  1   
 11   5  26  1   
 12   6   9  1   
 13   6  27  1   
 14   6  28  1   
 15   7  10  1   
 16   7  29  1   
 17   7  30  1   
 18   8  11  1   
 19   8  12  2   
 20   9  31  1   
 21   9  32  1   
 22   9  33  1   
 23  10  34  1   
 24  10  35  1   
 25  10  36  1   
 26  11  13  2   
 27  11  14  am  
 28  12  15  1   
 29  12  37  1   
 30  14  16  1   
 31  14  38  1   
 32  15  16  ar  
 33  15  17  ar  
 34  16  18  ar  
 35  17  19  ar  
 36  17  39  1   
 37  18  20  ar  
 38  18  40  1   
 39  19  20  ar  
 40  19  21  1   
 41  20  41  1   
 42  21  22  1   
 43  22  42  1   
 44  22  43  1   
 45  22  44  1   
@<TRIPOS>SUBSTRUCTURE
  1 ****  12 GROUP 4 **** **** 0

# MOE 2024.06 (io_trps.svl 2023.06)
