@<TRIPOS>MOLECULE
1-(3,5-Dimethyl-phenyl)-5-oxo-pyrrolidine-3-carboxylic acid (5-chloro-2-methoxy-
47 49 1 0 0 
SMALL
USER_CHARGES


@<TRIPOS>ATOM
  1 CL       0.1430     0.0220    -0.2090 Cl    1 <1>  -0.1770 
  2 C       -1.4310     0.7740    -0.1390 C.ar  1 <1>   0.1770 
  3 C       -2.5510    -0.0140     0.0320 C.ar  1 <1>  -0.1500 
  4 C       -1.5240     2.1470    -0.2550 C.ar  1 <1>  -0.1500 
  5 C       -3.8100     0.5750     0.0880 C.ar  1 <1>   0.1170 
  6 C       -2.7700     2.7480    -0.2000 C.ar  1 <1>  -0.1500 
  7 N       -5.0010    -0.1550     0.2590 N.am  1 <1>  -0.5470 
  8 C       -3.9120     1.9680    -0.0300 C.ar  1 <1>   0.0830 
  9 C       -5.2790    -1.4890     0.3550 C.2   1 <1>   0.5690 
 10 O       -5.1700     2.5030     0.0320 O.3   1 <1>  -0.3630 
 11 O       -4.4360    -2.3500     0.3260 O.2   1 <1>  -0.5700 
 12 C       -6.7370    -1.8910     0.5260 C.3   1 <1>  -0.0190 
 13 C       -5.3830     3.8930    -0.0970 C.3   1 <1>   0.0400 
 14 C       -6.9950    -3.3930     0.3330 C.3   1 <1>   0.1400 
 15 C       -7.7010    -1.2110    -0.4590 C.3   1 <1>  -0.0990 
 16 N       -8.3710    -3.4700    -0.2000 N.am  1 <1>  -0.4770 
 17 C       -8.7740    -2.2450    -0.6520 C.2   1 <1>   0.5690 
 18 C       -9.0990    -4.6770    -0.1550 C.ar  1 <1>   0.1170 
 19 O       -9.8360    -1.9580    -1.1450 O.2   1 <1>  -0.5700 
 20 C      -10.4700    -4.6810     0.0780 C.ar  1 <1>  -0.1500 
 21 C       -8.4610    -5.9020    -0.3320 C.ar  1 <1>  -0.1500 
 22 C      -11.1870    -5.8630     0.1400 C.ar  1 <1>  -0.1430 
 23 C       -9.1630    -7.0930    -0.2680 C.ar  1 <1>  -0.1430 
 24 C      -10.5270    -7.0680    -0.0310 C.ar  1 <1>  -0.1500 
 25 C      -12.6830    -5.8440     0.3940 C.3   1 <1>  -0.0970 
 26 C       -8.4560    -8.4230    -0.4610 C.3   1 <1>  -0.0970 
 27 H       -2.4240    -1.0750     0.1180 H     1 <1>   0.1500 
 28 H       -0.6310     2.7330    -0.3870 H     1 <1>   0.1500 
 29 H       -2.8230     3.8160    -0.2920 H     1 <1>   0.1500 
 30 H       -5.8060     0.4730     0.3000 H     1 <1>   0.3700 
 31 H       -7.0330    -1.6410     1.5290 H     1 <1>   0.0800 
 32 H       -6.4400     4.0790    -0.0270 H     1 <1>   0.0800 
 33 H       -5.0200     4.2160    -1.0570 H     1 <1>   0.0800 
 34 H       -4.8710     4.4020     0.7000 H     1 <1>   0.0800 
 35 H       -6.9090    -3.9290     1.2630 H     1 <1>   0.0800 
 36 H       -6.3190    -3.8120    -0.3930 H     1 <1>   0.0800 
 37 H       -7.2330    -1.0270    -1.4090 H     1 <1>   0.0800 
 38 H       -8.1140    -0.3010    -0.0630 H     1 <1>   0.0800 
 39 H      -10.9800    -3.7440     0.2140 H     1 <1>   0.1500 
 40 H       -7.4070    -5.9240    -0.5290 H     1 <1>   0.1500 
 41 H      -11.0780    -7.9900     0.0180 H     1 <1>   0.1500 
 42 H      -13.0950    -4.8790     0.1610 H     1 <1>   0.0800 
 43 H      -12.8800    -6.0670     1.4270 H     1 <1>   0.0800 
 44 H      -13.1730    -6.5780    -0.2220 H     1 <1>   0.0800 
 45 H       -7.3900    -8.3030    -0.4050 H     1 <1>   0.0800 
 46 H       -8.7080    -8.8310    -1.4230 H     1 <1>   0.0800 
 47 H       -8.7620    -9.1170     0.3020 H     1 <1>   0.0800 
@<TRIPOS>BOND
  1   1   2  1   
  2   2   3  ar  
  3   2   4  ar  
  4   3   5  ar  
  5   3  27  1   
  6   4   6  ar  
  7   4  28  1   
  8   5   7  1   
  9   5   8  ar  
 10   6   8  ar  
 11   6  29  1   
 12   7   9  am  
 13   7  30  1   
 14   8  10  1   
 15   9  11  2   
 16   9  12  1   
 17  10  13  1   
 18  12  14  1   
 19  12  15  1   
 20  12  31  1   
 21  13  32  1   
 22  13  33  1   
 23  13  34  1   
 24  14  16  1   
 25  14  35  1   
 26  14  36  1   
 27  15  17  1   
 28  15  37  1   
 29  15  38  1   
 30  16  17  am  
 31  16  18  1   
 32  17  19  2   
 33  18  20  ar  
 34  18  21  ar  
 35  20  22  ar  
 36  20  39  1   
 37  21  23  ar  
 38  21  40  1   
 39  22  24  ar  
 40  22  25  1   
 41  23  24  ar  
 42  23  26  1   
 43  24  41  1   
 44  25  42  1   
 45  25  43  1   
 46  25  44  1   
 47  26  45  1   
 48  26  46  1   
 49  26  47  1   
@<TRIPOS>SUBSTRUCTURE
  1 ****  12 GROUP 4 **** **** 0

# MOE 2024.06 (io_trps.svl 2023.06)
