@<TRIPOS>MOLECULE
N-(4-Fluoro-phenyl)-2-(4-methyl-5,6,7,8-tetrahydro-quinazolin-2-ylsulfanyl)-acet
41 43 1 0 0 
SMALL
USER_CHARGES


@<TRIPOS>ATOM
  1 S       -0.5940     0.6350     0.3680 S.3   1 <1>  -0.3320 
  2 C        1.1600     0.8630     0.1460 C.ar  1 <1>   0.7220 
  3 C       -1.3540     2.0580    -0.5610 C.3   1 <1>   0.1310 
  4 N        1.9090    -0.0480     0.7310 N.ar  1 <1>  -0.6200 
  5 N        1.5140     1.9110    -0.5740 N.ar  1 <1>  -0.6200 
  6 C       -2.8740     2.0340    -0.4930 C.2   1 <1>   0.5690 
  7 C        3.2010     0.1180     0.5650 C.ar  1 <1>   0.1660 
  8 C        2.8100     2.0580    -0.7230 C.ar  1 <1>   0.1660 
  9 O       -3.4690     2.9760    -0.9570 O.2   1 <1>  -0.5700 
 10 N       -3.4930     0.9590     0.0890 N.am  1 <1>  -0.5470 
 11 C        3.7190     1.1700    -0.1720 C.ar  1 <1>  -0.1430 
 12 C        4.0880    -0.9310     1.2230 C.3   1 <1>  -0.0170 
 13 C        3.2410     3.2640    -1.5400 C.3   1 <1>  -0.0970 
 14 C       -4.8480     0.6500     0.2930 C.ar  1 <1>   0.1170 
 15 C        5.2280     1.3440    -0.3570 C.3   1 <1>  -0.0170 
 16 C        5.5610    -0.5130     1.3070 C.3   1 <1>  -0.1600 
 17 C       -5.1660    -0.3200     1.2420 C.ar  1 <1>  -0.1500 
 18 C       -5.8820     1.2590    -0.4190 C.ar  1 <1>  -0.1500 
 19 C        6.0220     0.0750    -0.0290 C.3   1 <1>  -0.1600 
 20 C       -6.4820    -0.6750     1.4840 C.ar  1 <1>  -0.1500 
 21 C       -7.2030     0.9150    -0.1870 C.ar  1 <1>  -0.1500 
 22 C       -7.4790    -0.0480     0.7630 C.ar  1 <1>   0.1900 
 23 F       -8.7240    -0.3780     0.9870 F     1 <1>  -0.1900 
 24 H       -1.0270     1.9850    -1.5820 H     1 <1>   0.0800 
 25 H       -0.9780     2.9630    -0.1220 H     1 <1>   0.0800 
 26 H       -2.8360     0.2820     0.4820 H     1 <1>   0.3700 
 27 H        4.0060    -1.8370     0.6510 H     1 <1>   0.0800 
 28 H        3.7210    -1.1350     2.2130 H     1 <1>   0.0800 
 29 H        2.4450     3.9870    -1.5850 H     1 <1>   0.0800 
 30 H        3.4800     2.9560    -2.5410 H     1 <1>   0.0800 
 31 H        4.0960     3.7400    -1.0980 H     1 <1>   0.0800 
 32 H        5.5590     2.1390     0.2890 H     1 <1>   0.0800 
 33 H        5.4470     1.6280    -1.3720 H     1 <1>   0.0800 
 34 H        6.1630    -1.3670     1.5630 H     1 <1>   0.0800 
 35 H        5.6800     0.2240     2.0830 H     1 <1>   0.0800 
 36 H       -4.3800    -0.7980     1.7970 H     1 <1>   0.1500 
 37 H       -5.6620     2.0040    -1.1620 H     1 <1>   0.1500 
 38 H        7.0720     0.3080     0.0160 H     1 <1>   0.0800 
 39 H        5.8760    -0.6520    -0.8100 H     1 <1>   0.0800 
 40 H       -6.7360    -1.4210     2.2160 H     1 <1>   0.1500 
 41 H       -8.0040     1.3830    -0.7310 H     1 <1>   0.1500 
@<TRIPOS>BOND
  1   1   2  1   
  2   1   3  1   
  3   2   4  ar  
  4   2   5  ar  
  5   3   6  1   
  6   3  24  1   
  7   3  25  1   
  8   4   7  ar  
  9   5   8  ar  
 10   6   9  2   
 11   6  10  am  
 12   7  11  ar  
 13   7  12  1   
 14   8  11  ar  
 15   8  13  1   
 16  10  14  1   
 17  10  26  1   
 18  11  15  1   
 19  12  16  1   
 20  12  27  1   
 21  12  28  1   
 22  13  29  1   
 23  13  30  1   
 24  13  31  1   
 25  14  17  ar  
 26  14  18  ar  
 27  15  19  1   
 28  15  32  1   
 29  15  33  1   
 30  16  19  1   
 31  16  34  1   
 32  16  35  1   
 33  17  20  ar  
 34  17  36  1   
 35  18  21  ar  
 36  18  37  1   
 37  19  38  1   
 38  19  39  1   
 39  20  22  ar  
 40  20  40  1   
 41  21  22  ar  
 42  21  41  1   
 43  22  23  1   
@<TRIPOS>SUBSTRUCTURE
  1 ****   1 GROUP 4 **** **** 0

# MOE 2024.06 (io_trps.svl 2023.06)
