@<TRIPOS>MOLECULE
7-(2-Hydroxy-3-isopropoxy-propyl)-3-methyl-3,7-dihydro-purine-2,6-dione
38 39 1 0 0 
SMALL
USER_CHARGES


@<TRIPOS>ATOM
  1 O        2.1370     0.6270    -2.5660 O.2   1 <1>  -0.5700 
  2 C        2.8190     1.1100    -1.6850 C.2   1 <1>   0.6900 
  3 N        3.2980     0.3660    -0.6250 N.am  1 <1>  -0.4230 
  4 N        3.1180     2.4390    -1.7610 N.am  1 <1>  -0.4900 
  5 C        4.0670     1.0090     0.3470 C.2   1 <1>   0.2900 
  6 C        3.0110    -1.0830    -0.4690 C.3   1 <1>   0.0600 
  7 C        3.8770     3.0910    -0.8430 C.2   1 <1>   0.7150 
  8 N        4.6000     0.4530     1.4410 N.2   1 <1>  -0.5650 
  9 C        4.3500     2.3290     0.2550 C.2   1 <1>  -0.2370 
 10 O        4.1290     4.2670    -1.0070 O.2   1 <1>  -0.5700 
 11 C        5.2000     1.4500     2.0140 C.2   1 <1>   0.0360 
 12 N        5.0930     2.6240     1.3520 N.pl3 1 <1>   0.0480 
 13 C        5.6550     3.9290     1.7670 C.3   1 <1>   0.0960 
 14 C        7.1000     4.0770     1.2840 C.3   1 <1>   0.2000 
 15 O        7.6460     5.1870     1.8990 O.3   1 <1>  -0.6800 
 16 C        7.2320     4.2700    -0.2330 C.3   1 <1>   0.1200 
 17 O        8.5460     4.6550    -0.5270 O.3   1 <1>  -0.5600 
 18 C        8.7860     4.9650    -1.8580 C.3   1 <1>   0.2000 
 19 C       10.2610     4.6790    -2.1150 C.3   1 <1>  -0.2400 
 20 C        8.4610     6.4420    -2.0810 C.3   1 <1>  -0.2400 
 21 H        2.7550     2.9580    -2.5510 H     1 <1>   0.3700 
 22 H        2.4120    -1.4460    -1.2850 H     1 <1>   0.0800 
 23 H        2.4840    -1.2450     0.4540 H     1 <1>   0.0800 
 24 H        3.9370    -1.6290    -0.4430 H     1 <1>   0.0800 
 25 H        5.7420     1.3660     2.9420 H     1 <1>   0.1500 
 26 H        5.6330     3.9790     2.8400 H     1 <1>   0.0800 
 27 H        5.0470     4.7220     1.3710 H     1 <1>   0.0800 
 28 H        7.6810     3.2250     1.5920 H     1 <1>   0.0800 
 29 H        8.4240     5.4490     1.3530 H     1 <1>   0.4000 
 30 H        6.5570     5.0390    -0.5650 H     1 <1>   0.0800 
 31 H        7.0130     3.3530    -0.7510 H     1 <1>   0.0800 
 32 H        8.1790     4.3360    -2.4900 H     1 <1>   0.0800 
 33 H       10.8760     5.2810    -1.4710 H     1 <1>   0.0800 
 34 H       10.5080     4.9030    -3.1360 H     1 <1>   0.0800 
 35 H       10.4680     3.6400    -1.9350 H     1 <1>   0.0800 
 36 H        9.0340     7.0550    -1.4070 H     1 <1>   0.0800 
 37 H        7.4140     6.6300    -1.9310 H     1 <1>   0.0800 
 38 H        8.7070     6.7210    -3.0890 H     1 <1>   0.0800 
@<TRIPOS>BOND
  1   1   2  2   
  2   2   3  am  
  3   2   4  am  
  4   3   5  1   
  5   3   6  1   
  6   4   7  am  
  7   4  21  1   
  8   5   8  1   
  9   5   9  2   
 10   6  22  1   
 11   6  23  1   
 12   6  24  1   
 13   7   9  1   
 14   7  10  2   
 15   8  11  2   
 16   9  12  1   
 17  11  12  1   
 18  11  25  1   
 19  12  13  1   
 20  13  14  1   
 21  13  26  1   
 22  13  27  1   
 23  14  15  1   
 24  14  16  1   
 25  14  28  1   
 26  15  29  1   
 27  16  17  1   
 28  16  30  1   
 29  16  31  1   
 30  17  18  1   
 31  18  19  1   
 32  18  20  1   
 33  18  32  1   
 34  19  33  1   
 35  19  34  1   
 36  19  35  1   
 37  20  36  1   
 38  20  37  1   
 39  20  38  1   
@<TRIPOS>SUBSTRUCTURE
  1 ****   9 GROUP 4 **** **** 0

# MOE 2024.06 (io_trps.svl 2023.06)
