@<TRIPOS>MOLECULE
1-(4-Methoxy-3-methyl-benzenesulfonyl)-piperidine-4-carboxylic acid 4-methyl-ben
57 59 1 0 0 
SMALL
USER_CHARGES


@<TRIPOS>ATOM
  1 S        0.2070    -1.2060     1.7430 S.o2  1 <1>   1.4470 
  2 O        0.2130    -2.6200     2.0520 O.2   1 <1>  -0.6500 
  3 O        0.3070    -0.2470     2.8230 O.2   1 <1>  -0.6500 
  4 N        1.5290    -0.9110     0.7210 N.am  1 <1>  -0.8490 
  5 C       -1.2200    -0.8300     0.6890 C.ar  1 <1>  -0.0090 
  6 C        2.7580    -1.5010     1.2580 C.3   1 <1>   0.1960 
  7 C        1.6950     0.5190     0.4400 C.3   1 <1>   0.1960 
  8 C       -2.1990     0.0710     1.0910 C.ar  1 <1>  -0.1500 
  9 C       -1.3650    -1.4320    -0.5540 C.ar  1 <1>  -0.1500 
 10 C        3.9040    -1.3510     0.2530 C.3   1 <1>  -0.1600 
 11 C        2.7960     0.7290    -0.6010 C.3   1 <1>  -0.1600 
 12 C       -3.2860     0.3720     0.2860 C.ar  1 <1>  -0.1440 
 13 C       -2.4430    -1.1460    -1.3720 C.ar  1 <1>  -0.1500 
 14 C        4.1270     0.1200    -0.1310 C.3   1 <1>  -0.0190 
 15 C       -3.4130    -0.2380    -0.9570 C.ar  1 <1>   0.0820 
 16 C       -4.3330     1.3660     0.7700 C.3   1 <1>  -0.0970 
 17 C        5.2250     0.2620    -1.1830 C.2   1 <1>   0.5690 
 18 O       -4.4920     0.0860    -1.7150 O.3   1 <1>  -0.3630 
 19 O        5.0320    -0.1190    -2.3120 O.2   1 <1>  -0.5700 
 20 N        6.4060     0.8150    -0.8190 N.am  1 <1>  -0.7300 
 21 C       -4.7170    -0.4980    -2.9790 C.3   1 <1>   0.0400 
 22 C        7.5510     0.9900    -1.7240 C.3   1 <1>   0.2840 
 23 C        8.7160     1.4960    -0.8950 C.ar  1 <1>  -0.1440 
 24 C        9.6030     0.6040    -0.3140 C.ar  1 <1>  -0.1500 
 25 C        8.8970     2.8560    -0.6990 C.ar  1 <1>  -0.1500 
 26 C       10.6600     1.0660     0.4510 C.ar  1 <1>  -0.1500 
 27 C        9.9540     3.3180     0.0660 C.ar  1 <1>  -0.1500 
 28 C       10.8420     2.4250     0.6440 C.ar  1 <1>  -0.1440 
 29 C       12.0010     2.9320     1.4840 C.3   1 <1>  -0.0970 
 30 H        2.6050    -2.5510     1.4470 H     1 <1>   0.0800 
 31 H        3.0140    -1.0260     2.1910 H     1 <1>   0.0800 
 32 H        1.9430     1.0470     1.3470 H     1 <1>   0.0800 
 33 H        0.7730     0.9240     0.0560 H     1 <1>   0.0800 
 34 H       -2.1030     0.5430     2.0540 H     1 <1>   0.1500 
 35 H       -0.6170    -2.1360    -0.8840 H     1 <1>   0.1500 
 36 H        3.6680    -1.9240    -0.6280 H     1 <1>   0.0800 
 37 H        4.8050    -1.7580     0.6760 H     1 <1>   0.0800 
 38 H        2.9220     1.7810    -0.7830 H     1 <1>   0.0800 
 39 H        2.4890     0.2710    -1.5270 H     1 <1>   0.0800 
 40 H       -2.5080    -1.6380    -2.3230 H     1 <1>   0.1500 
 41 H        4.4390     0.6510     0.7510 H     1 <1>   0.0800 
 42 H       -4.0900     1.7460     1.7460 H     1 <1>   0.0800 
 43 H       -5.2940     0.8870     0.8180 H     1 <1>   0.0800 
 44 H       -4.3940     2.1920     0.0850 H     1 <1>   0.0800 
 45 H        6.5870     1.1210     0.1370 H     1 <1>   0.3700 
 46 H       -5.6290    -0.0910    -3.3770 H     1 <1>   0.0800 
 47 H       -4.8130    -1.5630    -2.8590 H     1 <1>   0.0800 
 48 H       -3.8940    -0.2540    -3.6270 H     1 <1>   0.0800 
 49 H        7.2980     1.6980    -2.4950 H     1 <1>   0.0800 
 50 H        7.7940     0.0490    -2.1890 H     1 <1>   0.0800 
 51 H        9.4740    -0.4560    -0.4540 H     1 <1>   0.1500 
 52 H        8.2150     3.5620    -1.1410 H     1 <1>   0.1500 
 53 H       11.3410     0.3620     0.8950 H     1 <1>   0.1500 
 54 H       10.0820     4.3760     0.2100 H     1 <1>   0.1500 
 55 H       11.6980     3.0070     2.5130 H     1 <1>   0.0800 
 56 H       12.3170     3.9010     1.1430 H     1 <1>   0.0800 
 57 H       12.8370     2.2590     1.4150 H     1 <1>   0.0800 
@<TRIPOS>BOND
  1   1   2  2   
  2   1   3  2   
  3   1   4  am  
  4   1   5  1   
  5   4   6  1   
  6   4   7  1   
  7   5   8  ar  
  8   5   9  ar  
  9   6  10  1   
 10   6  30  1   
 11   6  31  1   
 12   7  11  1   
 13   7  32  1   
 14   7  33  1   
 15   8  12  ar  
 16   8  34  1   
 17   9  13  ar  
 18   9  35  1   
 19  10  14  1   
 20  10  36  1   
 21  10  37  1   
 22  11  14  1   
 23  11  38  1   
 24  11  39  1   
 25  12  15  ar  
 26  12  16  1   
 27  13  15  ar  
 28  13  40  1   
 29  14  17  1   
 30  14  41  1   
 31  15  18  1   
 32  16  42  1   
 33  16  43  1   
 34  16  44  1   
 35  17  19  2   
 36  17  20  am  
 37  18  21  1   
 38  20  22  1   
 39  20  45  1   
 40  21  46  1   
 41  21  47  1   
 42  21  48  1   
 43  22  23  1   
 44  22  49  1   
 45  22  50  1   
 46  23  24  ar  
 47  23  25  ar  
 48  24  26  ar  
 49  24  51  1   
 50  25  27  ar  
 51  25  52  1   
 52  26  28  ar  
 53  26  53  1   
 54  27  28  ar  
 55  27  54  1   
 56  28  29  1   
 57  29  55  1   
 58  29  56  1   
 59  29  57  1   
@<TRIPOS>SUBSTRUCTURE
  1 ****  11 GROUP 4 **** **** 0

# MOE 2024.06 (io_trps.svl 2023.06)
