@<TRIPOS>MOLECULE
2-(4-Benzenesulfonyl-piperazin-1-yl)-N-(4-methoxy-phenyl)-acetamide
50 52 1 0 0 
SMALL
USER_CHARGES


@<TRIPOS>ATOM
  1 S       -0.5870    -0.0710    -0.7480 S.o2  1 <1>   1.4470 
  2 O       -0.7860     1.1170    -1.5520 O.2   1 <1>  -0.6500 
  3 O       -1.0560    -1.3440    -1.2590 O.2   1 <1>  -0.6500 
  4 N       -1.3150     0.1950     0.7670 N.am  1 <1>  -0.8490 
  5 C        1.1700    -0.2110    -0.3150 C.ar  1 <1>  -0.0090 
  6 C       -2.0990     1.4370     0.8740 C.3   1 <1>   0.1960 
  7 C       -2.1100    -0.9320     1.2830 C.3   1 <1>   0.1960 
  8 C        1.7610    -1.4500    -0.0930 C.ar  1 <1>  -0.1500 
  9 C        1.9630     0.9220    -0.1670 C.ar  1 <1>  -0.1500 
 10 C       -3.4530     1.3380     0.1420 C.3   1 <1>   0.1100 
 11 C       -3.4840    -1.0630     0.5860 C.3   1 <1>   0.1100 
 12 C        3.0960    -1.5580     0.2570 C.ar  1 <1>  -0.1500 
 13 C        3.2990     0.8240     0.1830 C.ar  1 <1>  -0.1500 
 14 N       -4.2590     0.1970     0.6270 N.3   1 <1>  -0.8100 
 15 C        3.8670    -0.4190     0.3960 C.ar  1 <1>  -0.1500 
 16 C       -5.5560     0.1290    -0.1100 C.3   1 <1>   0.1710 
 17 C       -6.4800    -1.0500     0.2290 C.2   1 <1>   0.5690 
 18 O       -7.3750    -0.8810     1.0220 O.2   1 <1>  -0.5700 
 19 N       -6.2530    -2.2390    -0.4180 N.am  1 <1>  -0.5470 
 20 C       -6.8950    -3.4870    -0.3480 C.ar  1 <1>   0.1170 
 21 C       -6.2410    -4.5930    -0.8800 C.ar  1 <1>  -0.1500 
 22 C       -8.1550    -3.6740     0.2130 C.ar  1 <1>  -0.1500 
 23 C       -6.8240    -5.8470    -0.8480 C.ar  1 <1>  -0.1500 
 24 C       -8.7430    -4.9270     0.2480 C.ar  1 <1>  -0.1500 
 25 C       -8.0760    -6.0250    -0.2850 C.ar  1 <1>   0.0820 
 26 O       -8.5770    -7.2890    -0.2940 O.3   1 <1>  -0.3620 
 27 C       -9.8390    -7.5710     0.2680 C.3   1 <1>   0.0400 
 28 H       -1.5330     2.2680     0.4880 H     1 <1>   0.0800 
 29 H       -2.2910     1.6400     1.9140 H     1 <1>   0.0800 
 30 H       -2.2820    -0.7820     2.3360 H     1 <1>   0.0800 
 31 H       -1.5590    -1.8510     1.1780 H     1 <1>   0.0800 
 32 H        1.1700    -2.3440    -0.1990 H     1 <1>   0.1500 
 33 H        1.5300     1.8940    -0.3300 H     1 <1>   0.1500 
 34 H       -3.2810     1.2460    -0.9170 H     1 <1>   0.0800 
 35 H       -3.9990     2.2500     0.3090 H     1 <1>   0.0800 
 36 H       -4.0350    -1.8350     1.0960 H     1 <1>   0.0800 
 37 H       -3.3450    -1.3740    -0.4340 H     1 <1>   0.0800 
 38 H        3.5340    -2.5270     0.4220 H     1 <1>   0.1500 
 39 H        3.8950     1.7140     0.2900 H     1 <1>   0.1500 
 40 H        4.9060    -0.4990     0.6680 H     1 <1>   0.1500 
 41 H       -5.3610     0.1050    -1.1670 H     1 <1>   0.0800 
 42 H       -6.1060     1.0300     0.0940 H     1 <1>   0.0800 
 43 H       -5.4390    -2.2290    -1.0290 H     1 <1>   0.3700 
 44 H       -5.2680    -4.4800    -1.3210 H     1 <1>   0.1500 
 45 H       -8.6920    -2.8410     0.6260 H     1 <1>   0.1500 
 46 H       -6.3120    -6.6990    -1.2590 H     1 <1>   0.1500 
 47 H       -9.7160    -5.0240     0.6910 H     1 <1>   0.1500 
 48 H      -10.0260    -8.6240     0.1560 H     1 <1>   0.0800 
 49 H      -10.5890    -7.0080    -0.2570 H     1 <1>   0.0800 
 50 H       -9.8220    -7.3120     1.3120 H     1 <1>   0.0800 
@<TRIPOS>BOND
  1   1   2  2   
  2   1   3  2   
  3   1   4  am  
  4   1   5  1   
  5   4   6  1   
  6   4   7  1   
  7   5   8  ar  
  8   5   9  ar  
  9   6  10  1   
 10   6  28  1   
 11   6  29  1   
 12   7  11  1   
 13   7  30  1   
 14   7  31  1   
 15   8  12  ar  
 16   8  32  1   
 17   9  13  ar  
 18   9  33  1   
 19  10  14  1   
 20  10  34  1   
 21  10  35  1   
 22  11  14  1   
 23  11  36  1   
 24  11  37  1   
 25  12  15  ar  
 26  12  38  1   
 27  13  15  ar  
 28  13  39  1   
 29  14  16  1   
 30  15  40  1   
 31  16  17  1   
 32  16  41  1   
 33  16  42  1   
 34  17  18  2   
 35  17  19  am  
 36  19  20  1   
 37  19  43  1   
 38  20  21  ar  
 39  20  22  ar  
 40  21  23  ar  
 41  21  44  1   
 42  22  24  ar  
 43  22  45  1   
 44  23  25  ar  
 45  23  46  1   
 46  24  25  ar  
 47  24  47  1   
 48  25  26  1   
 49  26  27  1   
 50  27  48  1   
 51  27  49  1   
 52  27  50  1   
@<TRIPOS>SUBSTRUCTURE
  1 ****  11 GROUP 4 **** **** 0

# MOE 2024.06 (io_trps.svl 2023.06)
