@<TRIPOS>MOLECULE
1-Amino-3-(2,4-dimethyl-phenoxy)-propan-2-ol
32 32 1 0 0 
SMALL
USER_CHARGES


@<TRIPOS>ATOM
  1 O       -0.3260    -0.1290    -0.3050 O.3   1 <1>  -0.3630 
  2 C       -1.4450     0.6210    -0.1150 C.ar  1 <1>   0.0830 
  3 C       -0.3230    -1.5200    -0.0750 C.3   1 <1>   0.1200 
  4 C       -1.3680     1.9810    -0.4000 C.ar  1 <1>  -0.1440 
  5 C       -2.6430     0.0840     0.3500 C.ar  1 <1>  -0.1500 
  6 C        1.0980    -2.0270    -0.3330 C.3   1 <1>   0.2000 
  7 C       -2.4820     2.7840    -0.2110 C.ar  1 <1>  -0.1500 
  8 C       -0.0800     2.6040    -0.9200 C.3   1 <1>  -0.0960 
  9 C       -3.7470     0.8970     0.5330 C.ar  1 <1>  -0.1500 
 10 O        1.2190    -3.3480     0.1160 O.3   1 <1>  -0.6800 
 11 C        2.1360    -1.1570     0.4080 C.3   1 <1>   0.3430 
 12 C       -3.6710     2.2510     0.2560 C.ar  1 <1>  -0.1440 
 13 N        3.3650    -1.9500     0.6950 N.4   1 <1>  -0.8530 
 14 C       -4.8820     3.1450     0.4550 C.3   1 <1>  -0.0970 
 15 H       -1.0280    -1.9750    -0.7500 H     1 <1>   0.0800 
 16 H       -0.6080    -1.6880     0.9490 H     1 <1>   0.0800 
 17 H       -2.7490    -0.9590     0.5770 H     1 <1>   0.1500 
 18 H        1.2950    -2.0190    -1.3920 H     1 <1>   0.0800 
 19 H       -2.4280     3.8360    -0.4310 H     1 <1>   0.1500 
 20 H        0.2290     2.1050    -1.8210 H     1 <1>   0.0800 
 21 H        0.6950     2.5100    -0.1820 H     1 <1>   0.0800 
 22 H       -0.2170     3.6470    -1.1410 H     1 <1>   0.0800 
 23 H       -4.6680     0.4720     0.8920 H     1 <1>   0.1500 
 24 H        0.5630    -3.9320    -0.3290 H     1 <1>   0.4000 
 25 H        1.6950    -0.8310     1.3360 H     1 <1>   0.0800 
 26 H        2.3630    -0.2760    -0.1710 H     1 <1>   0.0800 
 27 H        3.0260    -2.9040     0.9090 H     1 <1>   0.4500 
 28 H        3.8940    -1.5890     1.4940 H     1 <1>   0.4500 
 29 H        3.9720    -2.0260    -0.1260 H     1 <1>   0.4500 
 30 H       -4.5760     4.1230     0.7780 H     1 <1>   0.0800 
 31 H       -5.5390     2.7330     1.2000 H     1 <1>   0.0800 
 32 H       -5.4210     3.2380    -0.4710 H     1 <1>   0.0800 
@<TRIPOS>BOND
  1   1   2  1   
  2   1   3  1   
  3   2   4  ar  
  4   2   5  ar  
  5   3   6  1   
  6   3  15  1   
  7   3  16  1   
  8   4   7  ar  
  9   4   8  1   
 10   5   9  ar  
 11   5  17  1   
 12   6  10  1   
 13   6  11  1   
 14   6  18  1   
 15   7  12  ar  
 16   7  19  1   
 17   8  20  1   
 18   8  21  1   
 19   8  22  1   
 20   9  12  ar  
 21   9  23  1   
 22  10  24  1   
 23  11  13  1   
 24  11  25  1   
 25  11  26  1   
 26  12  14  1   
 27  13  27  1   
 28  13  28  1   
 29  13  29  1   
 30  14  30  1   
 31  14  31  1   
 32  14  32  1   
@<TRIPOS>SUBSTRUCTURE
  1 ****   2 GROUP 4 **** **** 0

# MOE 2024.06 (io_trps.svl 2023.06)
