@<TRIPOS>MOLECULE
3-(2-Hydroxy-phenyl)-4,5-dihydro-isoxazole-5-carboxylic acid (2-methoxy-ethyl)-a
35 36 1 0 0 
SMALL
USER_CHARGES


@<TRIPOS>ATOM
  1 O        0.4670    -2.5710     1.9410 O.2   1 <1>  -0.5700 
  2 C       -0.1620    -2.7380     0.9220 C.2   1 <1>   0.5690 
  3 N        0.1530    -2.0830    -0.2280 N.am  1 <1>  -0.7300 
  4 C       -1.3510    -3.7010     0.9320 C.3   1 <1>   0.2610 
  5 C        1.2570    -1.1060    -0.3960 C.3   1 <1>   0.1400 
  6 O       -1.5530    -4.2290    -0.3650 O.3   1 <1>  -0.2170 
  7 C       -2.6720    -3.0030     1.2200 C.3   1 <1>  -0.0990 
  8 C        2.5540    -1.8320    -0.7450 C.3   1 <1>   0.1200 
  9 N       -2.6460    -3.7730    -0.9360 N.2   1 <1>  -0.5130 
 10 C       -3.3410    -3.0760    -0.1300 C.2   1 <1>   0.3030 
 11 O        3.5230    -0.8820    -1.0620 O.3   1 <1>  -0.5600 
 12 C       -4.5980    -2.4160    -0.4460 C.ar  1 <1>   0.0860 
 13 C        4.7730    -1.4260    -1.3350 C.3   1 <1>   0.0400 
 14 C       -5.4600    -1.8030     0.4840 C.ar  1 <1>   0.0820 
 15 C       -5.0080    -2.3720    -1.7840 C.ar  1 <1>  -0.1500 
 16 O       -5.1930    -1.7890     1.8010 O.3   1 <1>  -0.5320 
 17 C       -6.6380    -1.1870     0.0870 C.ar  1 <1>  -0.1500 
 18 C       -6.1810    -1.7600    -2.1820 C.ar  1 <1>  -0.1500 
 19 C       -7.0010    -1.1630    -1.2450 C.ar  1 <1>  -0.1500 
 20 H       -0.3850    -2.3280    -1.0690 H     1 <1>   0.3700 
 21 H       -1.1700    -4.5170     1.6060 H     1 <1>   0.0800 
 22 H        1.3930    -0.5590     0.5210 H     1 <1>   0.0800 
 23 H        1.0020    -0.4170    -1.1820 H     1 <1>   0.0800 
 24 H       -2.5240    -1.9880     1.5420 H     1 <1>   0.0800 
 25 H       -3.2300    -3.5500     1.9560 H     1 <1>   0.0800 
 26 H        2.4100    -2.4690    -1.6010 H     1 <1>   0.0800 
 27 H        2.8910    -2.4080     0.1000 H     1 <1>   0.0800 
 28 H        5.4440    -0.6190    -1.5720 H     1 <1>   0.0800 
 29 H        4.6960    -2.0920    -2.1770 H     1 <1>   0.0800 
 30 H        5.1300    -1.9510    -0.4660 H     1 <1>   0.0800 
 31 H       -4.3900    -2.8310    -2.5370 H     1 <1>   0.1500 
 32 H       -5.8800    -1.3480     2.3340 H     1 <1>   0.4500 
 33 H       -7.2830    -0.7220     0.8110 H     1 <1>   0.1500 
 34 H       -6.4570    -1.7500    -3.2230 H     1 <1>   0.1500 
 35 H       -7.9150    -0.6850    -1.5530 H     1 <1>   0.1500 
@<TRIPOS>BOND
  1   1   2  2   
  2   2   3  am  
  3   2   4  1   
  4   3   5  1   
  5   3  20  1   
  6   4   6  1   
  7   4   7  1   
  8   4  21  1   
  9   5   8  1   
 10   5  22  1   
 11   5  23  1   
 12   6   9  1   
 13   7  10  1   
 14   7  24  1   
 15   7  25  1   
 16   8  11  1   
 17   8  26  1   
 18   8  27  1   
 19   9  10  2   
 20  10  12  1   
 21  11  13  1   
 22  12  14  ar  
 23  12  15  ar  
 24  13  28  1   
 25  13  29  1   
 26  13  30  1   
 27  14  16  1   
 28  14  17  ar  
 29  15  18  ar  
 30  15  31  1   
 31  16  32  1   
 32  17  19  ar  
 33  17  33  1   
 34  18  19  ar  
 35  18  34  1   
 36  19  35  1   
@<TRIPOS>SUBSTRUCTURE
  1 ****  10 GROUP 4 **** **** 0

# MOE 2024.06 (io_trps.svl 2023.06)
