@<TRIPOS>MOLECULE
(3,4-Dihydro-2H-benzo[b][1,4]dioxepine-7-sulfonylamino)-acetic acid
31 32 1 0 0 
SMALL
USER_CHARGES


@<TRIPOS>ATOM
  1 S        0.7600    -0.6910     1.7840 S.o2  1 <1>   1.4470 
  2 O        0.7210     0.3920     2.7430 O.2   1 <1>  -0.6500 
  3 O        1.5020    -1.8900     2.1090 O.2   1 <1>  -0.6500 
  4 N        1.4700    -0.0800     0.3860 N.am  1 <1>  -0.9140 
  5 C       -0.9320    -1.1530     1.3280 C.ar  1 <1>  -0.0090 
  6 C        0.7230     1.0250    -0.2780 C.3   1 <1>   0.0900 
  7 C       -1.9630    -0.2240     1.4010 C.ar  1 <1>  -0.1500 
  8 C       -1.2270    -2.4210     0.8350 C.ar  1 <1>  -0.1500 
  9 C       -0.3380     0.5360    -1.2730 C.2   1 <1>   0.9060 
 10 C       -3.2280    -0.5240     0.9370 C.ar  1 <1>   0.0830 
 11 C       -2.4980    -2.7420     0.3870 C.ar  1 <1>  -0.1500 
 12 O       -0.2180    -0.6230    -1.6980 O.co2 1 <1>  -0.9000 
 13 O       -1.2720     1.2770    -1.5950 O.co2 1 <1>  -0.9000 
 14 O       -4.1720     0.4420     0.9810 O.3   1 <1>  -0.3630 
 15 C       -3.4960    -1.7860     0.4100 C.ar  1 <1>   0.0830 
 16 C       -4.5720     0.9400    -0.2750 C.3   1 <1>   0.1200 
 17 O       -4.7030    -2.0940    -0.1180 O.3   1 <1>  -0.3630 
 18 C       -5.6190     0.0120    -0.8980 C.3   1 <1>  -0.1600 
 19 C       -5.0580    -1.3640    -1.2730 C.3   1 <1>   0.1200 
 20 H        1.3820    -0.8460    -0.2970 H     1 <1>   0.4200 
 21 H        1.4190     1.6180    -0.8400 H     1 <1>   0.0800 
 22 H        0.2580     1.6640     0.4500 H     1 <1>   0.0800 
 23 H       -1.7760     0.7610     1.7910 H     1 <1>   0.1500 
 24 H       -0.4450    -3.1590     0.7770 H     1 <1>   0.1500 
 25 H       -2.7100    -3.7180    -0.0060 H     1 <1>   0.1500 
 26 H       -3.7010     1.0340    -0.9050 H     1 <1>   0.0800 
 27 H       -4.9870     1.9180    -0.1130 H     1 <1>   0.0800 
 28 H       -5.9760     0.4790    -1.7970 H     1 <1>   0.0800 
 29 H       -6.4560    -0.0990    -0.2320 H     1 <1>   0.0800 
 30 H       -5.8020    -1.9380    -1.7940 H     1 <1>   0.0800 
 31 H       -4.1860    -1.2690    -1.9010 H     1 <1>   0.0800 
@<TRIPOS>BOND
  1   1   2  2   
  2   1   3  2   
  3   1   4  am  
  4   1   5  1   
  5   4   6  1   
  6   4  20  1   
  7   5   7  ar  
  8   5   8  ar  
  9   6   9  1   
 10   6  21  1   
 11   6  22  1   
 12   7  10  ar  
 13   7  23  1   
 14   8  11  ar  
 15   8  24  1   
 16   9  12  ar  
 17   9  13  ar  
 18  10  14  1   
 19  10  15  ar  
 20  11  15  ar  
 21  11  25  1   
 22  14  16  1   
 23  15  17  1   
 24  16  18  1   
 25  16  26  1   
 26  16  27  1   
 27  17  19  1   
 28  18  19  1   
 29  18  28  1   
 30  18  29  1   
 31  19  30  1   
 32  19  31  1   
@<TRIPOS>SUBSTRUCTURE
  1 ****   7 GROUP 4 **** **** 0

# MOE 2024.06 (io_trps.svl 2023.06)
