@<TRIPOS>MOLECULE
7-[2-(4-Methoxy-phenyl)-ethyl]-3-methyl-8-piperazin-1-yl-3,7-dihydro-purine-2,6-
54 57 1 0 0 
SMALL
USER_CHARGES


@<TRIPOS>ATOM
  1 O        1.5280     0.0410     1.6550 O.2   1 <1>  -0.5740 
  2 C        2.3040     0.7430     1.0520 C.2   1 <1>   0.6860 
  3 N        3.6600     0.4550     0.9750 N.am  1 <1>  -0.4410 
  4 N        1.8250     1.8560     0.4290 N.am  1 <1>  -0.4950 
  5 C        4.4600     1.3220     0.2450 C.2   1 <1>   0.4210 
  6 C        4.2240    -0.7550     1.6440 C.3   1 <1>   0.0530 
  7 C        2.6030     2.7230    -0.2840 C.2   1 <1>   0.6990 
  8 N        5.8000     1.2380     0.0470 N.pl3 1 <1>  -0.7040 
  9 C        4.0040     2.4220    -0.3910 C.2   1 <1>   0.2710 
 10 O        2.0830     3.7020    -0.7790 O.2   1 <1>  -0.5740 
 11 C        6.1990     2.2640    -0.7140 C.cat 1 <1>   1.0690 
 12 N        5.1220     3.0240    -1.0150 N.pl3 1 <1>  -0.7670 
 13 N        7.5150     2.4110    -1.0500 N.pl3 1 <1>  -0.5960 
 14 C        4.9430     4.3590    -1.6810 C.3   1 <1>   0.3480 
 15 C        8.5770     1.8530    -0.1170 C.3   1 <1>   0.1610 
 16 C        7.9640     3.2630    -2.2150 C.3   1 <1>   0.1610 
 17 C        5.0720     5.5180    -0.6760 C.3   1 <1>  -0.0240 
 18 C       10.0630     2.0990    -0.4760 C.3   1 <1>   0.3370 
 19 C        9.4830     3.3470    -2.4830 C.3   1 <1>   0.3370 
 20 C        6.5060     5.6460    -0.1860 C.ar  1 <1>  -0.1500 
 21 N       10.2720     3.3610    -1.2240 N.4   1 <1>  -0.9080 
 22 C        6.9300     4.9580     0.9420 C.ar  1 <1>  -0.1570 
 23 C        7.4090     6.4250    -0.8960 C.ar  1 <1>  -0.1570 
 24 C        8.2650     4.9730     1.3010 C.ar  1 <1>  -0.1570 
 25 C        8.7450     6.4400    -0.5410 C.ar  1 <1>  -0.1570 
 26 C        9.1740     5.6800     0.5360 C.ar  1 <1>   0.0750 
 27 O       10.4840     5.5590     0.8210 O.3   1 <1>  -0.3680 
 28 C       11.1810     6.7460     1.1470 C.3   1 <1>   0.0320 
 29 H        0.8280     2.0450     0.5110 H     1 <1>   0.3640 
 30 H        3.4780    -1.2410     2.2510 H     1 <1>   0.0730 
 31 H        5.0430    -0.4760     2.2820 H     1 <1>   0.0730 
 32 H        4.5640    -1.4570     0.9030 H     1 <1>   0.0730 
 33 H        6.3810     0.4780     0.3820 H     1 <1>   0.4450 
 34 H        3.9690     4.4040    -2.1370 H     1 <1>   0.0730 
 35 H        5.6460     4.4870    -2.4810 H     1 <1>   0.0730 
 36 H        8.4460     0.7880    -0.0260 H     1 <1>   0.0730 
 37 H        8.4130     2.2690     0.8620 H     1 <1>   0.0730 
 38 H        7.6410     4.2660    -2.0540 H     1 <1>   0.0730 
 39 H        7.4780     2.9170    -3.1120 H     1 <1>   0.0730 
 40 H        4.3960     5.3760     0.1480 H     1 <1>   0.0730 
 41 H        4.7830     6.4330    -1.1640 H     1 <1>   0.0730 
 42 H       10.4140     1.2740    -1.0740 H     1 <1>   0.0730 
 43 H       10.6490     2.1090     0.4300 H     1 <1>   0.0730 
 44 H        9.6900     4.2360    -3.0560 H     1 <1>   0.0730 
 45 H        9.7800     2.5000    -3.0800 H     1 <1>   0.0730 
 46 H       11.2740     3.4880    -1.4270 H     1 <1>   0.4450 
 47 H       10.0160     4.1730    -0.6270 H     1 <1>   0.4450 
 48 H        6.2250     4.4090     1.5420 H     1 <1>   0.1430 
 49 H        7.0810     7.0160    -1.7370 H     1 <1>   0.1430 
 50 H        8.6050     4.4430     2.1740 H     1 <1>   0.1430 
 51 H        9.4430     7.0330    -1.1050 H     1 <1>   0.1430 
 52 H       12.1610     6.4780     1.5010 H     1 <1>   0.0730 
 53 H       10.6440     7.2650     1.9220 H     1 <1>   0.0730 
 54 H       11.2660     7.3650     0.2720 H     1 <1>   0.0730 
@<TRIPOS>BOND
  1   1   2  2   
  2   2   3  am  
  3   2   4  am  
  4   3   5  1   
  5   3   6  1   
  6   4   7  am  
  7   4  29  1   
  8   5   8  1   
  9   5   9  2   
 10   6  30  1   
 11   6  31  1   
 12   6  32  1   
 13   7   9  1   
 14   7  10  2   
 15   8  11  ar  
 16   8  33  1   
 17   9  12  1   
 18  11  12  ar  
 19  11  13  ar  
 20  12  14  1   
 21  13  15  1   
 22  13  16  1   
 23  14  17  1   
 24  14  34  1   
 25  14  35  1   
 26  15  18  1   
 27  15  36  1   
 28  15  37  1   
 29  16  19  1   
 30  16  38  1   
 31  16  39  1   
 32  17  20  1   
 33  17  40  1   
 34  17  41  1   
 35  18  21  1   
 36  18  42  1   
 37  18  43  1   
 38  19  21  1   
 39  19  44  1   
 40  19  45  1   
 41  20  22  ar  
 42  20  23  ar  
 43  21  46  1   
 44  21  47  1   
 45  22  24  ar  
 46  22  48  1   
 47  23  25  ar  
 48  23  49  1   
 49  24  26  ar  
 50  24  50  1   
 51  25  26  ar  
 52  25  51  1   
 53  26  27  1   
 54  27  28  1   
 55  28  52  1   
 56  28  53  1   
 57  28  54  1   
@<TRIPOS>SUBSTRUCTURE
  1 ****  11 GROUP 4 **** **** 0

# MOE 2024.06 (io_trps.svl 2023.06)
