@<TRIPOS>MOLECULE
(4-Ethyl-piperazin-1-yl)-[1-(4-methoxy-3-methyl-benzenesulfonyl)-piperidin-4-yl]
60 62 1 0 0 
SMALL
USER_CHARGES


@<TRIPOS>ATOM
  1 S       -0.5670     0.9030    -2.2830 S.o2  1 <1>   1.4470 
  2 O       -0.0670     0.2190    -3.4580 O.2   1 <1>  -0.6500 
  3 O       -1.3920     2.0790    -2.4490 O.2   1 <1>  -0.6500 
  4 N        0.8010     1.3630    -1.3870 N.am  1 <1>  -0.8490 
  5 C       -1.4070    -0.2720    -1.1860 C.ar  1 <1>  -0.0090 
  6 C        1.3970     2.5900    -1.9170 C.3   1 <1>   0.1960 
  7 C        1.7810     0.2800    -1.2890 C.3   1 <1>   0.1960 
  8 C       -1.5990     0.0190     0.1590 C.ar  1 <1>  -0.1500 
  9 C       -1.8840    -1.4880    -1.6610 C.ar  1 <1>  -0.1500 
 10 C        2.5270     3.0650    -0.9990 C.3   1 <1>  -0.1600 
 11 C        2.9200     0.6790    -0.3470 C.3   1 <1>  -0.1600 
 12 C       -2.2320    -0.8680     1.0150 C.ar  1 <1>  -0.1430 
 13 C       -2.5200    -2.3860    -0.8230 C.ar  1 <1>  -0.1500 
 14 C        3.6010     1.9780    -0.8110 C.3   1 <1>  -0.0190 
 15 C       -2.6980    -2.0830     0.5230 C.ar  1 <1>   0.0830 
 16 C       -2.4120    -0.5040     2.4810 C.3   1 <1>  -0.0970 
 17 C        4.6980     2.4210     0.1670 C.2   1 <1>   0.5690 
 18 O       -3.3120    -2.9250     1.3950 O.3   1 <1>  -0.3630 
 19 O        4.3640     2.9490     1.2000 O.2   1 <1>  -0.5700 
 20 N        6.0320     2.2240    -0.1020 N.am  1 <1>  -0.6600 
 21 C       -3.8440    -4.1640     0.9830 C.3   1 <1>   0.0400 
 22 C        7.0710     2.9650     0.6810 C.3   1 <1>   0.1400 
 23 C        6.5880     1.1600    -0.9940 C.3   1 <1>   0.1400 
 24 C        7.9480     1.9870     1.4800 C.3   1 <1>   0.3430 
 25 C        7.5190     0.2120    -0.2030 C.3   1 <1>   0.3430 
 26 N        8.5740     0.9460     0.5870 N.4   1 <1>  -0.9590 
 27 C        9.4230     0.0260     1.3890 C.3   1 <1>   0.3430 
 28 C       10.3350    -0.7720     0.4630 C.3   1 <1>  -0.2400 
 29 H        0.6500     3.3670    -1.9670 H     1 <1>   0.0800 
 30 H        1.7670     2.4180    -2.9140 H     1 <1>   0.0800 
 31 H        2.1750     0.0510    -2.2670 H     1 <1>   0.0800 
 32 H        1.3050    -0.6070    -0.9040 H     1 <1>   0.0800 
 33 H       -1.2400     0.9620     0.5360 H     1 <1>   0.1500 
 34 H       -1.7530    -1.7340    -2.7020 H     1 <1>   0.1500 
 35 H        2.0990     3.3320    -0.0480 H     1 <1>   0.0800 
 36 H        2.9730     3.9510    -1.4140 H     1 <1>   0.0800 
 37 H        3.6370    -0.1190    -0.3000 H     1 <1>   0.0800 
 38 H        2.5160     0.8160     0.6420 H     1 <1>   0.0800 
 39 H       -2.8690    -3.3130    -1.2370 H     1 <1>   0.1500 
 40 H        4.0420     1.8120    -1.7760 H     1 <1>   0.0800 
 41 H       -1.9730     0.4520     2.7030 H     1 <1>   0.0800 
 42 H       -1.9460    -1.2480     3.1010 H     1 <1>   0.0800 
 43 H       -3.4600    -0.4650     2.7190 H     1 <1>   0.0800 
 44 H       -4.2860    -4.6380     1.8410 H     1 <1>   0.0800 
 45 H       -3.0480    -4.7750     0.5970 H     1 <1>   0.0800 
 46 H       -4.5970    -3.9900     0.2340 H     1 <1>   0.0800 
 47 H        6.6120     3.6610     1.3640 H     1 <1>   0.0800 
 48 H        7.6820     3.5390     0.0080 H     1 <1>   0.0800 
 49 H        7.1350     1.6210    -1.7980 H     1 <1>   0.0800 
 50 H        5.7980     0.5740    -1.4280 H     1 <1>   0.0800 
 51 H        7.3320     1.5100     2.2250 H     1 <1>   0.0800 
 52 H        8.7160     2.5440     1.9920 H     1 <1>   0.0800 
 53 H        7.9870    -0.4700    -0.8940 H     1 <1>   0.0800 
 54 H        6.9120    -0.3710     0.4700 H     1 <1>   0.0800 
 55 H        9.1850     1.4370    -0.0790 H     1 <1>   0.4500 
 56 H        8.8060    -0.6420     1.9700 H     1 <1>   0.0800 
 57 H       10.0350     0.5960     2.0700 H     1 <1>   0.0800 
 58 H        9.7750    -1.4350    -0.1700 H     1 <1>   0.0800 
 59 H       10.9960    -1.3760     1.0600 H     1 <1>   0.0800 
 60 H       10.9420    -0.1180    -0.1370 H     1 <1>   0.0800 
@<TRIPOS>BOND
  1   1   2  2   
  2   1   3  2   
  3   1   4  am  
  4   1   5  1   
  5   4   6  1   
  6   4   7  1   
  7   5   8  ar  
  8   5   9  ar  
  9   6  10  1   
 10   6  29  1   
 11   6  30  1   
 12   7  11  1   
 13   7  31  1   
 14   7  32  1   
 15   8  12  ar  
 16   8  33  1   
 17   9  13  ar  
 18   9  34  1   
 19  10  14  1   
 20  10  35  1   
 21  10  36  1   
 22  11  14  1   
 23  11  37  1   
 24  11  38  1   
 25  12  15  ar  
 26  12  16  1   
 27  13  15  ar  
 28  13  39  1   
 29  14  17  1   
 30  14  40  1   
 31  15  18  1   
 32  16  41  1   
 33  16  42  1   
 34  16  43  1   
 35  17  19  2   
 36  17  20  am  
 37  18  21  1   
 38  20  22  1   
 39  20  23  1   
 40  21  44  1   
 41  21  45  1   
 42  21  46  1   
 43  22  24  1   
 44  22  47  1   
 45  22  48  1   
 46  23  25  1   
 47  23  49  1   
 48  23  50  1   
 49  24  26  1   
 50  24  51  1   
 51  24  52  1   
 52  25  26  1   
 53  25  53  1   
 54  25  54  1   
 55  26  27  1   
 56  26  55  1   
 57  27  28  1   
 58  27  56  1   
 59  27  57  1   
 60  28  58  1   
 61  28  59  1   
 62  28  60  1   
@<TRIPOS>SUBSTRUCTURE
  1 ****  11 GROUP 4 **** **** 0

# MOE 2024.06 (io_trps.svl 2023.06)
