@<TRIPOS>MOLECULE
3-Butyrylamino-4-(4-methyl-piperazin-1-yl)-benzoic acid methyl ester
49 50 1 0 0 
SMALL
USER_CHARGES


@<TRIPOS>ATOM
  1 O        0.4000     0.0450    -0.1320 O.2   1 <1>  -0.5700 
  2 C        0.3380    -1.0890     0.3000 C.2   1 <1>   0.6340 
  3 O       -0.8210    -1.5190     0.8130 O.3   1 <1>  -0.4300 
  4 C        1.4600    -2.0050     0.2850 C.ar  1 <1>   0.0860 
  5 C       -1.9640    -0.6880     0.8670 C.3   1 <1>   0.0400 
  6 C        2.7090    -1.6030    -0.1910 C.ar  1 <1>  -0.1500 
  7 C        1.3590    -3.3200     0.7370 C.ar  1 <1>  -0.1500 
  8 C        3.8140    -2.4370    -0.2270 C.ar  1 <1>   0.1170 
  9 C        2.4420    -4.1730     0.7060 C.ar  1 <1>  -0.1500 
 10 N        4.9970    -1.8620    -0.7410 N.am  1 <1>  -0.5470 
 11 C        3.6830    -3.7680     0.2290 C.ar  1 <1>   0.1000 
 12 C        6.2060    -1.6790    -0.1390 C.2   1 <1>   0.5690 
 13 N        4.7030    -4.7220     0.2350 N.pl3 1 <1>  -0.8380 
 14 O        6.5730    -2.2790     0.8430 O.2   1 <1>  -0.5700 
 15 C        7.1570    -0.6750    -0.7680 C.3   1 <1>  -0.0990 
 16 C        5.1280    -5.3230     1.5430 C.3   1 <1>   0.2090 
 17 C        5.4600    -5.0860    -1.0040 C.3   1 <1>   0.2090 
 18 C        7.0570     0.7280    -0.1440 C.3   1 <1>  -0.1600 
 19 C        6.6120    -5.7470     1.5620 C.3   1 <1>   0.3430 
 20 C        6.9980    -5.1180    -0.8000 C.3   1 <1>   0.3430 
 21 C        5.6930     1.3910    -0.3700 C.3   1 <1>  -0.2400 
 22 N        7.4220    -4.9070     0.6270 N.4   1 <1>  -0.9590 
 23 C        8.8900    -5.0060     0.8420 C.3   1 <1>   0.2630 
 24 H       -2.7680    -1.2420     1.3170 H     1 <1>   0.0800 
 25 H       -2.2300    -0.3970    -0.1350 H     1 <1>   0.0800 
 26 H       -1.7350     0.1820     1.4580 H     1 <1>   0.0800 
 27 H        2.8080    -0.5900    -0.5390 H     1 <1>   0.1500 
 28 H        0.4170    -3.6810     1.1140 H     1 <1>   0.1500 
 29 H        2.3210    -5.1830     1.0500 H     1 <1>   0.1500 
 30 H        4.8260    -1.2270    -1.5200 H     1 <1>   0.3700 
 31 H        6.9750    -0.6140    -1.8250 H     1 <1>   0.0800 
 32 H        8.1600    -1.0370    -0.6340 H     1 <1>   0.0800 
 33 H        4.5090    -6.1750     1.7670 H     1 <1>   0.0800 
 34 H        4.9700    -4.5930     2.3190 H     1 <1>   0.0800 
 35 H        5.2190    -4.3940    -1.7920 H     1 <1>   0.0800 
 36 H        5.1330    -6.0580    -1.3300 H     1 <1>   0.0800 
 37 H        7.8220     1.3540    -0.5730 H     1 <1>   0.0800 
 38 H        7.2480     0.6620     0.9150 H     1 <1>   0.0800 
 39 H        6.6870    -6.7820     1.2730 H     1 <1>   0.0800 
 40 H        6.9870    -5.6550     2.5680 H     1 <1>   0.0800 
 41 H        7.4350    -4.3500    -1.4150 H     1 <1>   0.0800 
 42 H        7.3700    -6.0640    -1.1540 H     1 <1>   0.0800 
 43 H        5.4620     1.4460    -1.4200 H     1 <1>   0.0800 
 44 H        5.7090     2.3920     0.0230 H     1 <1>   0.0800 
 45 H        4.9130     0.8510     0.1370 H     1 <1>   0.0800 
 46 H        7.1050    -3.9300     0.8390 H     1 <1>   0.4500 
 47 H        9.2340    -6.0060     0.6340 H     1 <1>   0.0800 
 48 H        9.1320    -4.7600     1.8630 H     1 <1>   0.0800 
 49 H        9.4080    -4.3170     0.1950 H     1 <1>   0.0800 
@<TRIPOS>BOND
  1   1   2  2   
  2   2   3  1   
  3   2   4  1   
  4   3   5  1   
  5   4   6  ar  
  6   4   7  ar  
  7   5  24  1   
  8   5  25  1   
  9   5  26  1   
 10   6   8  ar  
 11   6  27  1   
 12   7   9  ar  
 13   7  28  1   
 14   8  10  1   
 15   8  11  ar  
 16   9  11  ar  
 17   9  29  1   
 18  10  12  am  
 19  10  30  1   
 20  11  13  1   
 21  12  14  2   
 22  12  15  1   
 23  13  16  1   
 24  13  17  1   
 25  15  18  1   
 26  15  31  1   
 27  15  32  1   
 28  16  19  1   
 29  16  33  1   
 30  16  34  1   
 31  17  20  1   
 32  17  35  1   
 33  17  36  1   
 34  18  21  1   
 35  18  37  1   
 36  18  38  1   
 37  19  22  1   
 38  19  39  1   
 39  19  40  1   
 40  20  22  1   
 41  20  41  1   
 42  20  42  1   
 43  21  43  1   
 44  21  44  1   
 45  21  45  1   
 46  22  23  1   
 47  22  46  1   
 48  23  47  1   
 49  23  48  1   
 50  23  49  1   
@<TRIPOS>SUBSTRUCTURE
  1 ****   8 GROUP 4 **** **** 0

# MOE 2024.06 (io_trps.svl 2023.06)
