@<TRIPOS>MOLECULE
4-(Piperazine-1-sulfonyl)-benzonitrile
31 32 1 0 0 
SMALL
USER_CHARGES


@<TRIPOS>ATOM
  1 S        0.0130    -0.2560     1.6540 S.o2  1 <1>   1.4470 
  2 O        0.5120     0.9520     2.2720 O.2   1 <1>  -0.6500 
  3 O       -0.6510    -1.2580     2.4540 O.2   1 <1>  -0.6500 
  4 N       -1.1500     0.2840     0.5370 N.am  1 <1>  -0.8490 
  5 C        1.2820    -1.0280     0.6090 C.ar  1 <1>  -0.0090 
  6 C       -2.4170     0.5990     1.2280 C.3   1 <1>   0.1960 
  7 C       -0.6700     1.4300    -0.2610 C.3   1 <1>   0.1960 
  8 C        1.0060    -2.1810    -0.1150 C.ar  1 <1>  -0.1500 
  9 C        2.5550    -0.4830     0.4920 C.ar  1 <1>  -0.1500 
 10 C       -3.5120     1.0680     0.2460 C.3   1 <1>   0.3430 
 11 C       -1.7300     1.9000    -1.2800 C.3   1 <1>   0.3430 
 12 C        1.9620    -2.7650    -0.9300 C.ar  1 <1>  -0.1500 
 13 C        3.5130    -1.0630    -0.3220 C.ar  1 <1>  -0.1500 
 14 N       -3.0450     2.2060    -0.6190 N.4   1 <1>  -0.9060 
 15 C        3.2310    -2.2130    -1.0480 C.ar  1 <1>   0.0730 
 16 C        4.2230    -2.8140    -1.8960 C.1   1 <1>   0.4840 
 17 N        5.0080    -3.2840    -2.5740 N.1   1 <1>  -0.5570 
 18 H       -2.2500     1.3560     1.9770 H     1 <1>   0.0800 
 19 H       -2.7790    -0.2810     1.7350 H     1 <1>   0.0800 
 20 H        0.2210     1.1460    -0.7970 H     1 <1>   0.0800 
 21 H       -0.4120     2.2550     0.3850 H     1 <1>   0.0800 
 22 H        0.0300    -2.6330    -0.0360 H     1 <1>   0.1500 
 23 H        2.8060     0.4060     1.0500 H     1 <1>   0.1500 
 24 H       -4.3870     1.3610     0.8030 H     1 <1>   0.0800 
 25 H       -3.7840     0.2300    -0.3760 H     1 <1>   0.0800 
 26 H       -1.8660     1.1170    -2.0090 H     1 <1>   0.0800 
 27 H       -1.3650     2.7730    -1.7980 H     1 <1>   0.0800 
 28 H        1.7190    -3.6610    -1.4780 H     1 <1>   0.1500 
 29 H        4.4930    -0.6190    -0.3900 H     1 <1>   0.1500 
 30 H       -2.9430     3.0480    -0.0380 H     1 <1>   0.4500 
 31 H       -3.7560     2.4170    -1.3320 H     1 <1>   0.4500 
@<TRIPOS>BOND
  1   1   2  2   
  2   1   3  2   
  3   1   4  am  
  4   1   5  1   
  5   4   6  1   
  6   4   7  1   
  7   5   8  ar  
  8   5   9  ar  
  9   6  10  1   
 10   6  18  1   
 11   6  19  1   
 12   7  11  1   
 13   7  20  1   
 14   7  21  1   
 15   8  12  ar  
 16   8  22  1   
 17   9  13  ar  
 18   9  23  1   
 19  10  14  1   
 20  10  24  1   
 21  10  25  1   
 22  11  14  1   
 23  11  26  1   
 24  11  27  1   
 25  12  15  ar  
 26  12  28  1   
 27  13  15  ar  
 28  13  29  1   
 29  14  30  1   
 30  14  31  1   
 31  15  16  1   
 32  16  17  3   
@<TRIPOS>SUBSTRUCTURE
  1 ****   5 GROUP 4 **** **** 0

# MOE 2024.06 (io_trps.svl 2023.06)
