@<TRIPOS>MOLECULE
1,3-Bis-(2-oxo-2-piperidin-1-yl-ethyl)-1H-quinazoline-2,4-dione
58 61 1 0 0 
SMALL
USER_CHARGES


@<TRIPOS>ATOM
  1 O       -1.9140    -0.1470     2.6830 O.2   1 <1>  -0.5700 
  2 C       -2.3850     0.6140     1.8600 C.2   1 <1>   0.6900 
  3 N       -1.9550     1.9190     1.7970 N.am  1 <1>  -0.4200 
  4 N       -3.3500     0.1740     0.9770 N.am  1 <1>  -0.4770 
  5 C       -2.6700     2.8580     1.0850 C.2   1 <1>   0.5440 
  6 C       -0.6070     2.2530     2.3680 C.3   1 <1>   0.2010 
  7 C       -4.1540     1.0880     0.2670 C.ar  1 <1>   0.1170 
  8 C       -3.3970    -1.3020     0.6640 C.3   1 <1>   0.2010 
  9 O       -2.3230     4.0240     1.1210 O.2   1 <1>  -0.5700 
 10 C       -3.8200     2.4490     0.3150 C.ar  1 <1>   0.0860 
 11 C        0.5250     1.8050     1.4360 C.2   1 <1>   0.5690 
 12 C       -5.2750     0.6960    -0.4680 C.ar  1 <1>  -0.1500 
 13 C       -3.0310    -1.6230    -0.7880 C.2   1 <1>   0.5690 
 14 C       -4.6080     3.3660    -0.3850 C.ar  1 <1>  -0.1500 
 15 O        0.9830     0.7030     1.6330 O.2   1 <1>  -0.5700 
 16 N        0.9920     2.5820     0.3980 N.am  1 <1>  -0.6600 
 17 C       -6.0400     1.6170    -1.1540 C.ar  1 <1>  -0.1500 
 18 O       -3.9190    -2.0660    -1.4830 O.2   1 <1>  -0.5700 
 19 N       -1.7670    -1.4070    -1.2900 N.am  1 <1>  -0.6600 
 20 C       -5.7050     2.9590    -1.1140 C.ar  1 <1>  -0.1500 
 21 C        0.6370     4.0130     0.1590 C.3   1 <1>   0.1400 
 22 C        1.9160     2.0120    -0.6280 C.3   1 <1>   0.1400 
 23 C       -1.5040    -1.4730    -2.7570 C.3   1 <1>   0.1400 
 24 C       -0.5830    -1.0100    -0.4700 C.3   1 <1>   0.1400 
 25 C        1.9070     4.8650     0.0550 C.3   1 <1>  -0.1600 
 26 C        3.1950     2.8480    -0.7130 C.3   1 <1>  -0.1600 
 27 C       -0.3230    -2.4020    -3.0480 C.3   1 <1>  -0.1600 
 28 C        0.6100    -1.9220    -0.7660 C.3   1 <1>  -0.1600 
 29 C        2.8810     4.3210    -0.9970 C.3   1 <1>  -0.1600 
 30 C        0.9280    -1.9840    -2.2640 C.3   1 <1>  -0.1600 
 31 H       -0.4870     1.7410     3.3060 H     1 <1>   0.0800 
 32 H       -0.5320     3.3000     2.5820 H     1 <1>   0.0800 
 33 H       -4.3890    -1.6640     0.8600 H     1 <1>   0.0800 
 34 H       -2.7360    -1.8570     1.3020 H     1 <1>   0.0800 
 35 H       -5.5690    -0.3360    -0.5170 H     1 <1>   0.1500 
 36 H       -4.3510     4.4110    -0.3520 H     1 <1>   0.1500 
 37 H       -6.8960     1.2930    -1.7210 H     1 <1>   0.1500 
 38 H       -6.3020     3.6790    -1.6490 H     1 <1>   0.1500 
 39 H        0.0400     4.4100     0.9560 H     1 <1>   0.0800 
 40 H        0.0680     4.0860    -0.7520 H     1 <1>   0.0800 
 41 H        1.4180     2.0140    -1.5820 H     1 <1>   0.0800 
 42 H        2.1730     0.9940    -0.3920 H     1 <1>   0.0800 
 43 H       -1.2820    -0.4810    -3.1120 H     1 <1>   0.0800 
 44 H       -2.3730    -1.8260    -3.2850 H     1 <1>   0.0800 
 45 H       -0.7940    -1.0750     0.5800 H     1 <1>   0.0800 
 46 H       -0.3270     0.0100    -0.6990 H     1 <1>   0.0800 
 47 H        2.3890     4.8870     1.0160 H     1 <1>   0.0800 
 48 H        1.6340     5.8750    -0.1950 H     1 <1>   0.0800 
 49 H        3.8250     2.4560    -1.4910 H     1 <1>   0.0800 
 50 H        3.7300     2.7590     0.2180 H     1 <1>   0.0800 
 51 H       -0.1110    -2.3870    -4.1020 H     1 <1>   0.0800 
 52 H       -0.6010    -3.4080    -2.7830 H     1 <1>   0.0800 
 53 H        0.3890    -2.9090    -0.4000 H     1 <1>   0.0800 
 54 H        1.4670    -1.5600    -0.2260 H     1 <1>   0.0800 
 55 H        3.7900     4.8970    -0.9840 H     1 <1>   0.0800 
 56 H        2.4410     4.4130    -1.9760 H     1 <1>   0.0800 
 57 H        1.2570    -1.0160    -2.6020 H     1 <1>   0.0800 
 58 H        1.7220    -2.6890    -2.4400 H     1 <1>   0.0800 
@<TRIPOS>BOND
  1   1   2  2   
  2   2   3  am  
  3   2   4  am  
  4   3   5  am  
  5   3   6  1   
  6   4   7  1   
  7   4   8  1   
  8   5   9  2   
  9   5  10  1   
 10   6  11  1   
 11   6  31  1   
 12   6  32  1   
 13   7  10  ar  
 14   7  12  ar  
 15   8  13  1   
 16   8  33  1   
 17   8  34  1   
 18  10  14  ar  
 19  11  15  2   
 20  11  16  am  
 21  12  17  ar  
 22  12  35  1   
 23  13  18  2   
 24  13  19  am  
 25  14  20  ar  
 26  14  36  1   
 27  16  21  1   
 28  16  22  1   
 29  17  20  ar  
 30  17  37  1   
 31  19  23  1   
 32  19  24  1   
 33  20  38  1   
 34  21  25  1   
 35  21  39  1   
 36  21  40  1   
 37  22  26  1   
 38  22  41  1   
 39  22  42  1   
 40  23  27  1   
 41  23  43  1   
 42  23  44  1   
 43  24  28  1   
 44  24  45  1   
 45  24  46  1   
 46  25  29  1   
 47  25  47  1   
 48  25  48  1   
 49  26  29  1   
 50  26  49  1   
 51  26  50  1   
 52  27  30  1   
 53  27  51  1   
 54  27  52  1   
 55  28  30  1   
 56  28  53  1   
 57  28  54  1   
 58  29  55  1   
 59  29  56  1   
 60  30  57  1   
 61  30  58  1   
@<TRIPOS>SUBSTRUCTURE
  1 ****   3 GROUP 4 **** **** 0

# MOE 2024.06 (io_trps.svl 2023.06)
