@<TRIPOS>MOLECULE
2-(4-Amino-6-oxo-5-phenyl-1,6-dihydro-pyrimidin-2-ylsulfanyl)-N-cyclohexyl-aceta
47 49 1 0 0 
SMALL
USER_CHARGES


@<TRIPOS>ATOM
  1 S        0.4990     0.7950     0.0530 S.3   1 <1>  -0.3710 
  2 C       -1.1220     1.5090     0.0120 C.2   1 <1>   0.6410 
  3 C        1.5290     2.0130    -0.9190 C.3   1 <1>   0.1310 
  4 N       -2.0670     0.7920     0.6630 N.pl3 1 <1>  -0.5500 
  5 N       -1.3120     2.6080    -0.6010 N.2   1 <1>  -0.6610 
  6 C        2.9890     1.5870    -1.0160 C.2   1 <1>   0.5690 
  7 C       -3.3450     1.2180     0.7090 C.2   1 <1>   0.2000 
  8 C       -2.5950     3.0900    -0.5810 C.2   1 <1>   0.7670 
  9 O        3.7530     2.2970    -1.6240 O.2   1 <1>  -0.5700 
 10 N        3.3960     0.4340    -0.4250 N.am  1 <1>  -0.7300 
 11 N       -4.2180     0.4110     1.3570 N.pl3 1 <1>  -0.9000 
 12 C       -3.6540     2.4110     0.0900 C.2   1 <1>  -0.0140 
 13 O       -2.7780     4.1440    -1.1810 O.2   1 <1>  -0.5700 
 14 C        4.7640    -0.1040    -0.4340 C.3   1 <1>   0.2200 
 15 C       -4.9890     2.9540     0.1160 C.ar  1 <1>   0.0280 
 16 C        4.7520    -1.4750    -1.1180 C.3   1 <1>  -0.1600 
 17 C        5.2650    -0.2060     1.0110 C.3   1 <1>  -0.1600 
 18 C       -5.7000     3.1990    -1.0590 C.ar  1 <1>  -0.1500 
 19 C       -5.6230     3.2440     1.3250 C.ar  1 <1>  -0.1500 
 20 C        6.1370    -2.1380    -1.0580 C.3   1 <1>  -0.1600 
 21 C        6.6500    -0.8660     1.0740 C.3   1 <1>  -0.1600 
 22 C       -6.9880     3.6990    -1.0290 C.ar  1 <1>  -0.1500 
 23 C       -6.9120     3.7430     1.3610 C.ar  1 <1>  -0.1500 
 24 C        6.6410    -2.2390     0.3880 C.3   1 <1>  -0.1600 
 25 C       -7.5990     3.9700     0.1820 C.ar  1 <1>  -0.1500 
 26 H        1.4550     2.9630    -0.4240 H     1 <1>   0.0800 
 27 H        1.1000     2.0840    -1.9010 H     1 <1>   0.0800 
 28 H       -1.7820    -0.0750     1.1100 H     1 <1>   0.4000 
 29 H        2.7040    -0.1260     0.0760 H     1 <1>   0.3700 
 30 H       -5.2210     0.6350     1.3890 H     1 <1>   0.4000 
 31 H       -3.9840    -0.4890     1.7830 H     1 <1>   0.4000 
 32 H        5.4120     0.5590    -0.9850 H     1 <1>   0.0800 
 33 H        4.4610    -1.3550    -2.1460 H     1 <1>   0.0800 
 34 H        4.0380    -2.1150    -0.6310 H     1 <1>   0.0800 
 35 H        4.5730    -0.7890     1.5920 H     1 <1>   0.0800 
 36 H        5.3230     0.7810     1.4360 H     1 <1>   0.0800 
 37 H       -5.2320     3.0000    -2.0080 H     1 <1>   0.1500 
 38 H       -5.0950     3.0770     2.2480 H     1 <1>   0.1500 
 39 H        6.8340    -1.5570    -1.6380 H     1 <1>   0.0800 
 40 H        6.0860    -3.1210    -1.4930 H     1 <1>   0.0800 
 41 H        6.9520    -0.9770     2.1010 H     1 <1>   0.0800 
 42 H        7.3700    -0.2300     0.5860 H     1 <1>   0.0800 
 43 H       -7.5160     3.8810    -1.9500 H     1 <1>   0.1500 
 44 H       -7.3820     3.9590     2.3050 H     1 <1>   0.1500 
 45 H        7.6360    -2.6510     0.3940 H     1 <1>   0.0800 
 46 H        6.0060    -2.9100     0.9410 H     1 <1>   0.0800 
 47 H       -8.6020     4.3600     0.2060 H     1 <1>   0.1500 
@<TRIPOS>BOND
  1   1   2  1   
  2   1   3  1   
  3   2   4  1   
  4   2   5  2   
  5   3   6  1   
  6   3  26  1   
  7   3  27  1   
  8   4   7  1   
  9   4  28  1   
 10   5   8  1   
 11   6   9  2   
 12   6  10  am  
 13   7  11  1   
 14   7  12  2   
 15   8  12  1   
 16   8  13  2   
 17  10  14  1   
 18  10  29  1   
 19  11  30  1   
 20  11  31  1   
 21  12  15  1   
 22  14  16  1   
 23  14  17  1   
 24  14  32  1   
 25  15  18  ar  
 26  15  19  ar  
 27  16  20  1   
 28  16  33  1   
 29  16  34  1   
 30  17  21  1   
 31  17  35  1   
 32  17  36  1   
 33  18  22  ar  
 34  18  37  1   
 35  19  23  ar  
 36  19  38  1   
 37  20  24  1   
 38  20  39  1   
 39  20  40  1   
 40  21  24  1   
 41  21  41  1   
 42  21  42  1   
 43  22  25  ar  
 44  22  43  1   
 45  23  25  ar  
 46  23  44  1   
 47  24  45  1   
 48  24  46  1   
 49  25  47  1   
@<TRIPOS>SUBSTRUCTURE
  1 ****   2 GROUP 4 **** **** 0

# MOE 2024.06 (io_trps.svl 2023.06)
