@<TRIPOS>MOLECULE
N-(2,5-Dichloro-phenyl)-2-[4-(morpholine-4-sulfonyl)-piperazin-1-yl]-acetamide
49 51 1 0 0 
SMALL
USER_CHARGES


@<TRIPOS>ATOM
  1 CL      -0.2630     0.7530    -1.3760 Cl    1 <1>  -0.1770 
  2 C       -1.8920     0.5870    -0.7510 C.ar  1 <1>   0.1770 
  3 C       -2.4970     1.6770    -0.1240 C.ar  1 <1>   0.1170 
  4 C       -2.5310    -0.6320    -0.8950 C.ar  1 <1>  -0.1500 
  5 N       -1.7980     2.8910    -0.0150 N.am  1 <1>  -0.5470 
  6 C       -3.7890     1.5080     0.3650 C.ar  1 <1>  -0.1500 
  7 C       -3.8160    -0.7840    -0.4010 C.ar  1 <1>  -0.1500 
  8 C       -1.9270     3.9690     0.8100 C.2   1 <1>   0.5690 
  9 C       -4.4270     0.2900     0.2220 C.ar  1 <1>   0.1770 
 10 O       -2.8020     4.0900     1.6330 O.2   1 <1>  -0.5700 
 11 C       -0.8680     5.0650     0.6590 C.3   1 <1>   0.1710 
 12 CL      -6.0470     0.0960     0.8400 Cl    1 <1>  -0.1770 
 13 N        0.3660     4.6080    -0.0510 N.3   1 <1>  -0.8100 
 14 C        1.2240     3.7880     0.8360 C.3   1 <1>   0.1100 
 15 C        1.1420     5.7620    -0.5530 C.3   1 <1>   0.1100 
 16 C        2.4830     3.3020     0.0900 C.3   1 <1>   0.1960 
 17 C        2.4570     5.3260    -1.2450 C.3   1 <1>   0.1960 
 18 N        3.2900     4.4110    -0.4420 N.am  1 <1>  -0.8490 
 19 S        4.2350     5.1740     0.7310 S.o2  1 <1>   1.5760 
 20 O        4.9230     4.1600     1.4960 O.2   1 <1>  -0.6500 
 21 O        3.4450     6.1750     1.4120 O.2   1 <1>  -0.6500 
 22 N        5.3430     5.9620    -0.2730 N.am  1 <1>  -0.8490 
 23 C        6.2690     5.0550    -0.9790 C.3   1 <1>   0.1960 
 24 C        6.0950     7.0240     0.4150 C.3   1 <1>   0.1960 
 25 C        7.4770     4.6060    -0.1260 C.3   1 <1>   0.1200 
 26 C        7.2560     6.4720     1.2640 C.3   1 <1>   0.1200 
 27 O        8.1090     5.7060     0.4650 O.3   1 <1>  -0.5600 
 28 H       -2.0280    -1.4480    -1.3840 H     1 <1>   0.1500 
 29 H       -0.9440     2.9690    -0.5840 H     1 <1>   0.3700 
 30 H       -4.3040     2.3150     0.8540 H     1 <1>   0.1500 
 31 H       -4.3420    -1.7180    -0.4960 H     1 <1>   0.1500 
 32 H       -0.6160     5.4470     1.6330 H     1 <1>   0.0800 
 33 H       -1.3250     5.8640     0.1020 H     1 <1>   0.0800 
 34 H        0.6770     2.9270     1.1780 H     1 <1>   0.0800 
 35 H        1.5160     4.3570     1.7030 H     1 <1>   0.0800 
 36 H        1.3600     6.4390     0.2550 H     1 <1>   0.0800 
 37 H        0.5480     6.3010    -1.2700 H     1 <1>   0.0800 
 38 H        2.1690     2.6780    -0.7290 H     1 <1>   0.0800 
 39 H        3.0790     2.6900     0.7450 H     1 <1>   0.0800 
 40 H        3.0270     6.2000    -1.5110 H     1 <1>   0.0800 
 41 H        2.1960     4.8270    -2.1610 H     1 <1>   0.0800 
 42 H        6.6500     5.5670    -1.8450 H     1 <1>   0.0800 
 43 H        5.7380     4.1870    -1.3330 H     1 <1>   0.0800 
 44 H        5.4350     7.6080     1.0340 H     1 <1>   0.0800 
 45 H        6.5080     7.6890    -0.3240 H     1 <1>   0.0800 
 46 H        8.2000     4.1120    -0.7490 H     1 <1>   0.0800 
 47 H        7.1820     3.9220     0.6490 H     1 <1>   0.0800 
 48 H        6.8930     5.8620     2.0740 H     1 <1>   0.0800 
 49 H        7.8320     7.2820     1.6750 H     1 <1>   0.0800 
@<TRIPOS>BOND
  1   1   2  1   
  2   2   3  ar  
  3   2   4  ar  
  4   3   5  1   
  5   3   6  ar  
  6   4   7  ar  
  7   4  28  1   
  8   5   8  am  
  9   5  29  1   
 10   6   9  ar  
 11   6  30  1   
 12   7   9  ar  
 13   7  31  1   
 14   8  10  2   
 15   8  11  1   
 16   9  12  1   
 17  11  13  1   
 18  11  32  1   
 19  11  33  1   
 20  13  14  1   
 21  13  15  1   
 22  14  16  1   
 23  14  34  1   
 24  14  35  1   
 25  15  17  1   
 26  15  36  1   
 27  15  37  1   
 28  16  18  1   
 29  16  38  1   
 30  16  39  1   
 31  17  18  1   
 32  17  40  1   
 33  17  41  1   
 34  18  19  am  
 35  19  20  2   
 36  19  21  2   
 37  19  22  am  
 38  22  23  1   
 39  22  24  1   
 40  23  25  1   
 41  23  42  1   
 42  23  43  1   
 43  24  26  1   
 44  24  44  1   
 45  24  45  1   
 46  25  27  1   
 47  25  46  1   
 48  25  47  1   
 49  26  27  1   
 50  26  48  1   
 51  26  49  1   
@<TRIPOS>SUBSTRUCTURE
  1 ****  14 GROUP 4 **** **** 0

# MOE 2024.06 (io_trps.svl 2023.06)
