@<TRIPOS>MOLECULE
2,2-Dimethyl-N-(5-propyl-[1,3,4]thiadiazol-2-yl)-propionamide
32 32 1 0 0 
SMALL
USER_CHARGES


@<TRIPOS>ATOM
  1 S       -0.1870    -0.4500    -0.5450 S.3   1 <1>  -0.0800 
  2 C        0.9650     0.6980     0.0670 C.2   1 <1>   0.4420 
  3 C       -1.4240     0.6920    -0.1510 C.2   1 <1>   0.1980 
  4 N        0.4010     1.7690     0.4900 N.2   1 <1>  -0.3380 
  5 N        2.3200     0.4530     0.0800 N.am  1 <1>  -0.4940 
  6 N       -0.9600     1.7600     0.3630 N.2   1 <1>  -0.3380 
  7 C       -2.8580     0.2910    -0.4580 C.3   1 <1>   0.0200 
  8 C        3.0690    -0.6170    -0.3260 C.2   1 <1>   0.5690 
  9 C       -3.8760     1.3750    -0.0710 C.3   1 <1>  -0.1600 
 10 O        2.5730    -1.6060    -0.8080 O.2   1 <1>  -0.5700 
 11 C        4.6100    -0.5580    -0.1610 C.3   1 <1>   0.0610 
 12 C       -5.3120     0.9430    -0.3920 C.3   1 <1>  -0.2400 
 13 C        5.2860    -0.7050    -1.5370 C.3   1 <1>  -0.2400 
 14 C        5.1070     0.7630     0.4690 C.3   1 <1>  -0.2400 
 15 C        5.0810    -1.7140     0.7420 C.3   1 <1>  -0.2400 
 16 H        2.8510     1.2250     0.4700 H     1 <1>   0.3700 
 17 H       -3.0790    -0.6150     0.0760 H     1 <1>   0.0800 
 18 H       -2.9360     0.0870    -1.5110 H     1 <1>   0.0800 
 19 H       -3.6490     2.2830    -0.6030 H     1 <1>   0.0800 
 20 H       -3.7930     1.5820     0.9830 H     1 <1>   0.0800 
 21 H       -5.4240     0.7560    -1.4450 H     1 <1>   0.0800 
 22 H       -5.9990     1.7220    -0.1090 H     1 <1>   0.0800 
 23 H       -5.5680     0.0500     0.1510 H     1 <1>   0.0800 
 24 H        4.9800     0.0910    -2.1930 H     1 <1>   0.0800 
 25 H        5.0050    -1.6390    -1.9920 H     1 <1>   0.0800 
 26 H        6.3580    -0.6830    -1.4450 H     1 <1>   0.0800 
 27 H        6.1790     0.7530     0.5610 H     1 <1>   0.0800 
 28 H        4.6950     0.8980     1.4540 H     1 <1>   0.0800 
 29 H        4.8390     1.6060    -0.1450 H     1 <1>   0.0800 
 30 H        6.1500    -1.7020     0.8580 H     1 <1>   0.0800 
 31 H        4.7970    -2.6600     0.3140 H     1 <1>   0.0800 
 32 H        4.6280    -1.6390     1.7150 H     1 <1>   0.0800 
@<TRIPOS>BOND
  1   1   2  1   
  2   1   3  1   
  3   2   4  2   
  4   2   5  1   
  5   3   6  2   
  6   3   7  1   
  7   4   6  1   
  8   5   8  am  
  9   5  16  1   
 10   7   9  1   
 11   7  17  1   
 12   7  18  1   
 13   8  10  2   
 14   8  11  1   
 15   9  12  1   
 16   9  19  1   
 17   9  20  1   
 18  11  13  1   
 19  11  14  1   
 20  11  15  1   
 21  12  21  1   
 22  12  22  1   
 23  12  23  1   
 24  13  24  1   
 25  13  25  1   
 26  13  26  1   
 27  14  27  1   
 28  14  28  1   
 29  14  29  1   
 30  15  30  1   
 31  15  31  1   
 32  15  32  1   
@<TRIPOS>SUBSTRUCTURE
  1 ****   2 GROUP 4 **** **** 0

# MOE 2024.06 (io_trps.svl 2023.06)
