@<TRIPOS>MOLECULE
5-Butyl-thiophene-2-carbaldehyde
23 23 1 0 0 
SMALL
USER_CHARGES


@<TRIPOS>ATOM
  1 S       -0.0920     0.1530    -0.9990 S.3   1 <1>  -0.0800 
  2 C        0.8890     1.3840    -0.1980 C.2   1 <1>  -0.0450 
  3 C        0.8150    -1.1550    -0.2690 C.2   1 <1>  -0.1400 
  4 C        1.8290     0.7610     0.5600 C.2   1 <1>  -0.1500 
  5 C        0.6000     2.7680    -0.4250 C.2   1 <1>   0.5950 
  6 C        1.7880    -0.6620     0.5190 C.2   1 <1>  -0.1500 
  7 C        0.4110    -2.5780    -0.6080 C.3   1 <1>   0.0200 
  8 O       -0.2730     3.2070    -1.1320 O.2   1 <1>  -0.5700 
  9 C       -0.9380    -2.9360     0.0270 C.3   1 <1>  -0.1600 
 10 C       -1.3360    -4.3870    -0.2740 C.3   1 <1>  -0.1600 
 11 C       -2.6820    -4.7320     0.3660 C.3   1 <1>  -0.2400 
 12 H        2.5670     1.2650     1.1600 H     1 <1>   0.1500 
 13 H        1.2250     3.4760     0.0880 H     1 <1>   0.0600 
 14 H        2.4880    -1.2550     1.0820 H     1 <1>   0.1500 
 15 H        1.1670    -3.2510    -0.2460 H     1 <1>   0.0800 
 16 H        0.3550    -2.6830    -1.6780 H     1 <1>   0.0800 
 17 H       -1.6970    -2.2720    -0.3510 H     1 <1>   0.0800 
 18 H       -0.8740    -2.7930     1.0920 H     1 <1>   0.0800 
 19 H       -0.5820    -5.0560     0.1050 H     1 <1>   0.0800 
 20 H       -1.4040    -4.5300    -1.3400 H     1 <1>   0.0800 
 21 H       -2.6320    -4.6160     1.4350 H     1 <1>   0.0800 
 22 H       -2.9450    -5.7520     0.1450 H     1 <1>   0.0800 
 23 H       -3.4560    -4.0890    -0.0160 H     1 <1>   0.0800 
@<TRIPOS>BOND
  1   1   2  1   
  2   1   3  1   
  3   2   4  2   
  4   2   5  1   
  5   3   6  2   
  6   3   7  1   
  7   4   6  1   
  8   4  12  1   
  9   5   8  2   
 10   5  13  1   
 11   6  14  1   
 12   7   9  1   
 13   7  15  1   
 14   7  16  1   
 15   9  10  1   
 16   9  17  1   
 17   9  18  1   
 18  10  11  1   
 19  10  19  1   
 20  10  20  1   
 21  11  21  1   
 22  11  22  1   
 23  11  23  1   
@<TRIPOS>SUBSTRUCTURE
  1 ****   3 GROUP 4 **** **** 0

# MOE 2024.06 (io_trps.svl 2023.06)
