@<TRIPOS>MOLECULE
3-tert-Butyl-6-(4-fluoro-phenoxymethyl)-[1,2,4]triazolo[3,4-b][1,3,4]thiadiazole
36 38 1 0 0 
SMALL
USER_CHARGES


@<TRIPOS>ATOM
  1 S        0.1300    -0.1650    -1.1730 S.3   1 <1>  -0.1970 
  2 C        1.1110     1.2300    -0.7780 C.2   1 <1>   0.2420 
  3 C       -1.3060     0.7870    -0.7430 C.2   1 <1>   0.5300 
  4 N        2.3650     1.5030    -0.7860 N.2   1 <1>  -0.3380 
  5 N        0.3220     2.2160    -0.3850 N.pl3 1 <1>   0.5050 
  6 N       -1.0610     1.9790    -0.3700 N.2   1 <1>  -0.6520 
  7 C       -2.6510     0.0930    -0.8830 C.3   1 <1>   0.1810 
  8 N        2.4290     2.7790    -0.3640 N.2   1 <1>  -0.3380 
  9 C        1.2140     3.1910    -0.1290 C.2   1 <1>   0.0060 
 10 O       -2.7240    -1.0100     0.0010 O.3   1 <1>  -0.3630 
 11 C        0.8150     4.5870     0.3720 C.3   1 <1>   0.1800 
 12 C       -3.8230    -1.8020     0.0530 C.ar  1 <1>   0.0830 
 13 C       -0.0960     5.2750    -0.6540 C.3   1 <1>  -0.2400 
 14 C        2.0580     5.4700     0.5780 C.3   1 <1>  -0.2400 
 15 C        0.0800     4.4740     1.7160 C.3   1 <1>  -0.2400 
 16 C       -3.7640    -2.8810     0.9270 C.ar  1 <1>  -0.1500 
 17 C       -4.9720    -1.5840    -0.7090 C.ar  1 <1>  -0.1500 
 18 C       -4.8380    -3.7470     1.0480 C.ar  1 <1>  -0.1500 
 19 C       -6.0520    -2.4460    -0.5940 C.ar  1 <1>  -0.1500 
 20 C       -5.9640    -3.5110     0.2820 C.ar  1 <1>   0.1900 
 21 F       -6.9820    -4.3230     0.3910 F     1 <1>  -0.1900 
 22 H       -2.7730    -0.2670    -1.8880 H     1 <1>   0.0800 
 23 H       -3.4390     0.7800    -0.6330 H     1 <1>   0.0800 
 24 H        0.4010     5.3380    -1.6070 H     1 <1>   0.0800 
 25 H       -0.3430     6.2710    -0.3330 H     1 <1>   0.0800 
 26 H       -1.0120     4.7280    -0.7840 H     1 <1>   0.0800 
 27 H        2.7190     5.0220     1.2990 H     1 <1>   0.0800 
 28 H        1.7820     6.4480     0.9300 H     1 <1>   0.0800 
 29 H        2.5960     5.5790    -0.3470 H     1 <1>   0.0800 
 30 H        0.7020     3.9720     2.4370 H     1 <1>   0.0800 
 31 H       -0.8340     3.9190     1.6100 H     1 <1>   0.0800 
 32 H       -0.1630     5.4500     2.0970 H     1 <1>   0.0800 
 33 H       -2.8730    -3.0380     1.5090 H     1 <1>   0.1500 
 34 H       -5.0500    -0.7590    -1.3920 H     1 <1>   0.1500 
 35 H       -4.8080    -4.5860     1.7190 H     1 <1>   0.1500 
 36 H       -6.9480    -2.3000    -1.1700 H     1 <1>   0.1500 
@<TRIPOS>BOND
  1   1   2  1   
  2   1   3  1   
  3   2   4  2   
  4   2   5  1   
  5   3   6  2   
  6   3   7  1   
  7   4   8  1   
  8   5   6  1   
  9   5   9  1   
 10   7  10  1   
 11   7  22  1   
 12   7  23  1   
 13   8   9  2   
 14   9  11  1   
 15  10  12  1   
 16  11  13  1   
 17  11  14  1   
 18  11  15  1   
 19  12  16  ar  
 20  12  17  ar  
 21  13  24  1   
 22  13  25  1   
 23  13  26  1   
 24  14  27  1   
 25  14  28  1   
 26  14  29  1   
 27  15  30  1   
 28  15  31  1   
 29  15  32  1   
 30  16  18  ar  
 31  16  33  1   
 32  17  19  ar  
 33  17  34  1   
 34  18  20  ar  
 35  18  35  1   
 36  19  20  ar  
 37  19  36  1   
 38  20  21  1   
@<TRIPOS>SUBSTRUCTURE
  1 ****   3 GROUP 4 **** **** 0

# MOE 2024.06 (io_trps.svl 2023.06)
