@<TRIPOS>MOLECULE
1-(2-Cyano-ethyl)-3-(3,4-dimethoxy-phenyl)-1H-pyrazole-4-carboxylic acid isoprop
46 47 1 0 0 
SMALL
USER_CHARGES


@<TRIPOS>ATOM
  1 O        0.7940    -0.0300    -0.7860 O.2   1 <1>  -0.5700 
  2 C        1.2880    -1.0510    -0.3550 C.2   1 <1>   0.8060 
  3 O        2.6140    -1.1140    -0.1960 O.3   1 <1>  -0.4300 
  4 C        0.5430    -2.2320    -0.0060 C.2   1 <1>  -0.0860 
  5 C        3.4690    -0.0290    -0.4710 C.3   1 <1>   0.2000 
  6 C       -0.8500    -2.3650     0.1560 C.2   1 <1>   0.2350 
  7 C        1.0150    -3.4890     0.2270 C.2   1 <1>  -0.3020 
  8 C        4.8500    -0.6070    -0.7660 C.3   1 <1>  -0.2400 
  9 C        3.4980     0.8880     0.7530 C.3   1 <1>  -0.2400 
 10 N       -1.1790    -3.6020     0.4280 N.2   1 <1>  -0.7070 
 11 C       -1.8400    -1.3130     0.0620 C.ar  1 <1>   0.0540 
 12 N       -0.0290    -4.2820     0.4810 N.pl3 1 <1>   0.3140 
 13 C       -1.7360    -0.1400     0.8040 C.ar  1 <1>  -0.1500 
 14 C       -2.9460    -1.4510    -0.7730 C.ar  1 <1>  -0.1500 
 15 C        0.0030    -5.7230     0.7820 C.3   1 <1>   0.0960 
 16 C       -2.6760     0.8670     0.6960 C.ar  1 <1>   0.0830 
 17 C       -3.9040    -0.4580    -0.8810 C.ar  1 <1>  -0.1500 
 18 C       -0.9330    -6.4870    -0.1580 C.3   1 <1>   0.0400 
 19 O       -2.4840     1.9850     1.4370 O.3   1 <1>  -0.3630 
 20 C       -3.7820     0.7180    -0.1450 C.ar  1 <1>   0.0830 
 21 C       -0.8190    -7.9460     0.0950 C.1   1 <1>   0.3570 
 22 C       -2.0550     3.1210     0.7240 C.3   1 <1>   0.0400 
 23 O       -4.7000     1.7250    -0.2080 O.3   1 <1>  -0.3630 
 24 N       -0.7010    -9.0560     0.3050 N.1   1 <1>  -0.5570 
 25 C       -5.9180     1.5680    -0.8990 C.3   1 <1>   0.0400 
 26 H        3.1040     0.4990    -1.3380 H     1 <1>   0.0800 
 27 H        2.0340    -3.8310     0.2140 H     1 <1>   0.1500 
 28 H        5.2170    -1.1580     0.0810 H     1 <1>   0.0800 
 29 H        5.5400     0.1880    -0.9840 H     1 <1>   0.0800 
 30 H        4.8010    -1.2560    -1.6220 H     1 <1>   0.0800 
 31 H        3.8270     0.3470     1.6220 H     1 <1>   0.0800 
 32 H        2.5210     1.2980     0.9340 H     1 <1>   0.0800 
 33 H        4.1750     1.7050     0.5800 H     1 <1>   0.0800 
 34 H       -0.9070    -0.0020     1.4720 H     1 <1>   0.1500 
 35 H       -3.0490    -2.3580    -1.3420 H     1 <1>   0.1500 
 36 H       -0.3050    -5.8600     1.8030 H     1 <1>   0.0800 
 37 H        1.0120    -6.0770     0.6730 H     1 <1>   0.0800 
 38 H       -4.7330    -0.6190    -1.5410 H     1 <1>   0.1500 
 39 H       -0.6710    -6.2930    -1.1820 H     1 <1>   0.0800 
 40 H       -1.9530    -6.1880     0.0080 H     1 <1>   0.0800 
 41 H       -1.8620     3.9080     1.4310 H     1 <1>   0.0800 
 42 H       -2.8280     3.4220     0.0410 H     1 <1>   0.0800 
 43 H       -1.1550     2.8740     0.1880 H     1 <1>   0.0800 
 44 H       -6.5030     2.4580    -0.7500 H     1 <1>   0.0800 
 45 H       -6.4390     0.7170    -0.4970 H     1 <1>   0.0800 
 46 H       -5.7110     1.4370    -1.9460 H     1 <1>   0.0800 
@<TRIPOS>BOND
  1   1   2  2   
  2   2   3  1   
  3   2   4  1   
  4   3   5  1   
  5   4   6  1   
  6   4   7  2   
  7   5   8  1   
  8   5   9  1   
  9   5  26  1   
 10   6  10  2   
 11   6  11  1   
 12   7  12  1   
 13   7  27  1   
 14   8  28  1   
 15   8  29  1   
 16   8  30  1   
 17   9  31  1   
 18   9  32  1   
 19   9  33  1   
 20  10  12  1   
 21  11  13  ar  
 22  11  14  ar  
 23  12  15  1   
 24  13  16  ar  
 25  13  34  1   
 26  14  17  ar  
 27  14  35  1   
 28  15  18  1   
 29  15  36  1   
 30  15  37  1   
 31  16  19  1   
 32  16  20  ar  
 33  17  20  ar  
 34  17  38  1   
 35  18  21  1   
 36  18  39  1   
 37  18  40  1   
 38  19  22  1   
 39  20  23  1   
 40  21  24  3   
 41  22  41  1   
 42  22  42  1   
 43  22  43  1   
 44  23  25  1   
 45  25  44  1   
 46  25  45  1   
 47  25  46  1   
@<TRIPOS>SUBSTRUCTURE
  1 ****   6 GROUP 4 **** **** 0

# MOE 2024.06 (io_trps.svl 2023.06)
