@<TRIPOS>MOLECULE
N-(1,3-Dimethyl-2-oxo-2,3-dihydro-1H-benzoimidazol-5-yl)-4-morpholin-4-ylmethyl-
53 56 1 0 0 
SMALL
USER_CHARGES


@<TRIPOS>ATOM
  1 O       -0.9300     0.0860    -0.4870 O.2   1 <1>  -0.5700 
  2 C       -2.1390     0.0490    -0.3040 C.2   1 <1>   0.6900 
  3 N       -3.0060     1.0780    -0.5580 N.am  1 <1>  -0.4770 
  4 N       -2.8290    -1.0240     0.1870 N.am  1 <1>  -0.4770 
  5 C       -4.2800     0.6410    -0.2120 C.ar  1 <1>   0.1170 
  6 C       -2.6410     2.4160    -1.0700 C.3   1 <1>   0.0600 
  7 C       -4.1710    -0.6600     0.2490 C.ar  1 <1>   0.1170 
  8 C       -2.2530    -2.3210     0.6030 C.3   1 <1>   0.0600 
  9 C       -5.5120     1.2740    -0.2650 C.ar  1 <1>  -0.1500 
 10 C       -5.2950    -1.3550     0.6680 C.ar  1 <1>  -0.1500 
 11 C       -6.6500     0.5940     0.1530 C.ar  1 <1>   0.1170 
 12 C       -6.5240    -0.7220     0.6140 C.ar  1 <1>  -0.1500 
 13 N       -7.8940     1.2450     0.0780 N.am  1 <1>  -0.5470 
 14 C       -9.0240     1.0920     0.8450 C.2   1 <1>   0.5440 
 15 O       -9.0080     0.3820     1.8300 O.2   1 <1>  -0.5700 
 16 C      -10.2380     1.8040     0.4930 C.ar  1 <1>   0.0860 
 17 C      -10.6350     1.9860    -0.8320 C.ar  1 <1>  -0.1500 
 18 C      -11.0650     2.3300     1.4840 C.ar  1 <1>  -0.1500 
 19 C      -11.8030     2.6560    -1.1510 C.ar  1 <1>  -0.1500 
 20 C      -12.2330     3.0020     1.1750 C.ar  1 <1>  -0.1500 
 21 C      -12.6160     3.1630    -0.1480 C.ar  1 <1>  -0.1430 
 22 C      -13.9160     3.8690    -0.4910 C.3   1 <1>   0.4860 
 23 N      -15.0500     2.9730    -0.1350 N.4   1 <1>  -0.9590 
 24 C      -15.0170     1.6870    -0.9200 C.3   1 <1>   0.3430 
 25 C      -16.3790     3.6580    -0.2900 C.3   1 <1>   0.3430 
 26 C      -16.2510     0.8130    -0.6240 C.3   1 <1>   0.1200 
 27 C      -17.5480     2.6890    -0.0240 C.3   1 <1>   0.1200 
 28 O      -17.4220     1.5500    -0.8250 O.3   1 <1>  -0.5600 
 29 H       -1.5780     2.4700    -1.2300 H     1 <1>   0.0800 
 30 H       -2.9270     3.1660    -0.3540 H     1 <1>   0.0800 
 31 H       -3.1460     2.5960    -2.0020 H     1 <1>   0.0800 
 32 H       -1.1880    -2.3130     0.4500 H     1 <1>   0.0800 
 33 H       -2.6870    -3.1110     0.0180 H     1 <1>   0.0800 
 34 H       -2.4590    -2.4880     1.6450 H     1 <1>   0.0800 
 35 H       -5.5720     2.2830    -0.6220 H     1 <1>   0.1500 
 36 H       -5.2060    -2.3640     1.0260 H     1 <1>   0.1500 
 37 H       -7.4010    -1.2560     0.9350 H     1 <1>   0.1500 
 38 H       -7.9250     2.0200    -0.5800 H     1 <1>   0.3700 
 39 H      -10.0250     1.5860    -1.6250 H     1 <1>   0.1500 
 40 H      -10.7770     2.2010     2.5150 H     1 <1>   0.1500 
 41 H      -12.0680     2.7740    -2.1890 H     1 <1>   0.1500 
 42 H      -12.8300     3.3950     1.9820 H     1 <1>   0.1500 
 43 H      -13.9420     4.1050    -1.5430 H     1 <1>   0.0800 
 44 H      -13.9790     4.7890     0.0670 H     1 <1>   0.0800 
 45 H      -14.9300     2.7160     0.8520 H     1 <1>   0.4500 
 46 H      -14.1240     1.1310    -0.6830 H     1 <1>   0.0800 
 47 H      -15.0020     1.9020    -1.9760 H     1 <1>   0.0800 
 48 H      -16.4800     4.0380    -1.2930 H     1 <1>   0.0800 
 49 H      -16.4480     4.4920     0.3900 H     1 <1>   0.0800 
 50 H      -16.2370     0.4480     0.3890 H     1 <1>   0.0800 
 51 H      -16.2770    -0.0310    -1.2920 H     1 <1>   0.0800 
 52 H      -18.4840     3.1600    -0.2720 H     1 <1>   0.0800 
 53 H      -17.5800     2.3870     1.0090 H     1 <1>   0.0800 
@<TRIPOS>BOND
  1   1   2  2   
  2   2   3  am  
  3   2   4  am  
  4   3   5  1   
  5   3   6  1   
  6   4   7  1   
  7   4   8  1   
  8   5   7  ar  
  9   5   9  ar  
 10   6  29  1   
 11   6  30  1   
 12   6  31  1   
 13   7  10  ar  
 14   8  32  1   
 15   8  33  1   
 16   8  34  1   
 17   9  11  ar  
 18   9  35  1   
 19  10  12  ar  
 20  10  36  1   
 21  11  12  ar  
 22  11  13  1   
 23  12  37  1   
 24  13  14  am  
 25  13  38  1   
 26  14  15  2   
 27  14  16  1   
 28  16  17  ar  
 29  16  18  ar  
 30  17  19  ar  
 31  17  39  1   
 32  18  20  ar  
 33  18  40  1   
 34  19  21  ar  
 35  19  41  1   
 36  20  21  ar  
 37  20  42  1   
 38  21  22  1   
 39  22  23  1   
 40  22  43  1   
 41  22  44  1   
 42  23  24  1   
 43  23  25  1   
 44  23  45  1   
 45  24  26  1   
 46  24  46  1   
 47  24  47  1   
 48  25  27  1   
 49  25  48  1   
 50  25  49  1   
 51  26  28  1   
 52  26  50  1   
 53  26  51  1   
 54  27  28  1   
 55  27  52  1   
 56  27  53  1   
@<TRIPOS>SUBSTRUCTURE
  1 ****  14 GROUP 4 **** **** 0

# MOE 2024.06 (io_trps.svl 2023.06)
