@<TRIPOS>MOLECULE
(8,8-Dimethyl-8,9-dihydro-6H-7-oxa-11-thia-2,4,10-triaza-benzo[b]fluoren-1-yl)-(
57 61 1 0 0 
SMALL
USER_CHARGES


@<TRIPOS>ATOM
  1 S       -0.9570    -0.7270     1.2320 S.3   1 <1>  -0.0800 
  2 C       -2.2750     0.2040     0.5090 C.ar  1 <1>   0.2970 
  3 C        0.2390     0.5090     0.7810 C.ar  1 <1>   0.0400 
  4 N       -3.5180    -0.2380     0.5190 N.ar  1 <1>  -0.5670 
  5 C       -1.7910     1.3870    -0.0290 C.ar  1 <1>   0.0000 
  6 C        1.6060     0.5420     1.0040 C.ar  1 <1>   0.4100 
  7 C       -0.3700     1.5520     0.1340 C.ar  1 <1>   0.2560 
  8 C       -4.3740     0.5880    -0.0650 C.ar  1 <1>   0.1660 
  9 C       -2.7120     2.2270    -0.6320 C.ar  1 <1>  -0.1500 
 10 N        2.3130     1.5730     0.6010 N.ar  1 <1>  -0.6200 
 11 N        2.3380    -0.4250     1.6330 N.pl3 1 <1>  -0.8690 
 12 N        0.3390     2.5990    -0.2800 N.ar  1 <1>  -0.5660 
 13 C       -4.0300     1.8100    -0.6440 C.ar  1 <1>  -0.1430 
 14 C       -5.8180     0.1310    -0.1010 C.3   1 <1>  -0.0170 
 15 C        1.6320     2.5380    -0.0130 C.ar  1 <1>   0.4700 
 16 C        2.1730    -1.8660     1.3910 C.3   1 <1>   0.2090 
 17 C       -5.0910     2.7020    -1.2770 C.3   1 <1>   0.2630 
 18 C       -6.7920     1.2920    -0.3540 C.3   1 <1>   0.2800 
 19 C        3.5360    -2.4490     1.0270 C.3   1 <1>  -0.1600 
 20 O       -6.3180     2.0450    -1.4260 O.3   1 <1>  -0.5600 
 21 C       -8.1550     0.7590    -0.7970 C.3   1 <1>  -0.2400 
 22 C       -6.9790     2.1900     0.8800 C.3   1 <1>  -0.2400 
 23 C        3.4050    -3.9360     0.7030 C.3   1 <1>   0.3430 
 24 N        4.7430    -4.5320     0.4260 N.4   1 <1>  -0.9590 
 25 C        5.3420    -4.0430    -0.8700 C.3   1 <1>   0.3430 
 26 C        4.6670    -6.0360     0.4200 C.3   1 <1>   0.3430 
 27 C        6.6580    -4.7710    -1.2000 C.3   1 <1>   0.1200 
 28 C        6.0160    -6.6740     0.0340 C.3   1 <1>   0.1200 
 29 O        6.4630    -6.1550    -1.1840 O.3   1 <1>  -0.5600 
 30 H       -2.3940     3.1600    -1.0640 H     1 <1>   0.1500 
 31 H        3.2910    -0.1090     1.8320 H     1 <1>   0.4000 
 32 H       -6.0670    -0.3510     0.8270 H     1 <1>   0.0800 
 33 H       -5.9140    -0.6000    -0.8820 H     1 <1>   0.0800 
 34 H        2.2170     3.3820    -0.3370 H     1 <1>   0.1500 
 35 H        1.4770    -2.0230     0.5830 H     1 <1>   0.0800 
 36 H        1.7820    -2.3290     2.2830 H     1 <1>   0.0800 
 37 H       -4.7760     3.0120    -2.2570 H     1 <1>   0.0800 
 38 H       -5.2490     3.5810    -0.6760 H     1 <1>   0.0800 
 39 H        4.2020    -2.3140     1.8600 H     1 <1>   0.0800 
 40 H        3.9090    -1.9140     0.1720 H     1 <1>   0.0800 
 41 H       -8.0540     0.1740    -1.6940 H     1 <1>   0.0800 
 42 H       -8.8280     1.5750    -0.9900 H     1 <1>   0.0800 
 43 H       -8.5830     0.1380    -0.0310 H     1 <1>   0.0800 
 44 H       -6.0370     2.5150     1.2810 H     1 <1>   0.0800 
 45 H       -7.4850     1.6420     1.6550 H     1 <1>   0.0800 
 46 H       -7.5770     3.0470     0.6290 H     1 <1>   0.0800 
 47 H        2.7580    -4.0710    -0.1490 H     1 <1>   0.0800 
 48 H        2.9570    -4.4360     1.5470 H     1 <1>   0.0800 
 49 H        5.3850    -4.2620     1.1840 H     1 <1>   0.4500 
 50 H        5.5310    -2.9830    -0.8160 H     1 <1>   0.0800 
 51 H        4.6500    -4.2140    -1.6790 H     1 <1>   0.0800 
 52 H        3.9260    -6.3610    -0.2930 H     1 <1>   0.0800 
 53 H        4.3710    -6.3960     1.3920 H     1 <1>   0.0800 
 54 H        7.4320    -4.5210    -0.4950 H     1 <1>   0.0800 
 55 H        6.9950    -4.5010    -2.1870 H     1 <1>   0.0800 
 56 H        5.9020    -7.7370    -0.0870 H     1 <1>   0.0800 
 57 H        6.7650    -6.4930     0.7860 H     1 <1>   0.0800 
@<TRIPOS>BOND
  1   1   2  1   
  2   1   3  1   
  3   2   4  ar  
  4   2   5  ar  
  5   3   6  ar  
  6   3   7  ar  
  7   4   8  ar  
  8   5   7  1   
  9   5   9  ar  
 10   6  10  ar  
 11   6  11  1   
 12   7  12  ar  
 13   8  13  ar  
 14   8  14  1   
 15   9  13  ar  
 16   9  30  1   
 17  10  15  ar  
 18  11  16  1   
 19  11  31  1   
 20  12  15  ar  
 21  13  17  1   
 22  14  18  1   
 23  14  32  1   
 24  14  33  1   
 25  15  34  1   
 26  16  19  1   
 27  16  35  1   
 28  16  36  1   
 29  17  20  1   
 30  17  37  1   
 31  17  38  1   
 32  18  20  1   
 33  18  21  1   
 34  18  22  1   
 35  19  23  1   
 36  19  39  1   
 37  19  40  1   
 38  21  41  1   
 39  21  42  1   
 40  21  43  1   
 41  22  44  1   
 42  22  45  1   
 43  22  46  1   
 44  23  24  1   
 45  23  47  1   
 46  23  48  1   
 47  24  25  1   
 48  24  26  1   
 49  24  49  1   
 50  25  27  1   
 51  25  50  1   
 52  25  51  1   
 53  26  28  1   
 54  26  52  1   
 55  26  53  1   
 56  27  29  1   
 57  27  54  1   
 58  27  55  1   
 59  28  29  1   
 60  28  56  1   
 61  28  57  1   
@<TRIPOS>SUBSTRUCTURE
  1 ****   1 GROUP 4 **** **** 0

# MOE 2024.06 (io_trps.svl 2023.06)
