@<TRIPOS>MOLECULE
1-(4-Methoxy-3-methyl-benzenesulfonyl)-piperidine-4-carboxylic acid (4-acetylami
58 60 1 0 0 
SMALL
USER_CHARGES


@<TRIPOS>ATOM
  1 S       -0.1800    -0.3060     2.2100 S.o2  1 <1>   1.4470 
  2 O        0.0160    -1.5350     2.9490 O.2   1 <1>  -0.6500 
  3 O       -0.6200     0.8790     2.9160 O.2   1 <1>  -0.6500 
  4 N        1.3090     0.0920     1.5000 N.am  1 <1>  -0.8490 
  5 C       -1.2460    -0.6290     0.7790 C.ar  1 <1>  -0.0090 
  6 C        2.3970     0.0290     2.4770 C.3   1 <1>   0.1960 
  7 C        1.2610     1.3910     0.8220 C.3   1 <1>   0.1960 
  8 C       -2.4650     0.0200     0.6250 C.ar  1 <1>  -0.1500 
  9 C       -0.8640    -1.5330    -0.2030 C.ar  1 <1>  -0.1500 
 10 C        3.7470     0.2510     1.7870 C.3   1 <1>  -0.1600 
 11 C        2.5680     1.6440     0.0690 C.3   1 <1>  -0.1600 
 12 C       -3.2800    -0.2120    -0.4720 C.ar  1 <1>  -0.1430 
 13 C       -1.6630    -1.7790    -1.3050 C.ar  1 <1>  -0.1500 
 14 C        3.7770     1.5820     1.0190 C.3   1 <1>  -0.0190 
 15 C       -2.8790    -1.1180    -1.4480 C.ar  1 <1>   0.0820 
 16 C       -4.6070     0.5240    -0.5980 C.3   1 <1>  -0.0970 
 17 C        5.0990     1.7690     0.2750 C.2   1 <1>   0.5690 
 18 O       -3.7050    -1.3150    -2.5080 O.3   1 <1>  -0.3630 
 19 O        5.3470     1.0490    -0.6620 O.2   1 <1>  -0.5700 
 20 N        5.9480     2.7450     0.7240 N.am  1 <1>  -0.5470 
 21 C       -3.3940    -2.2290    -3.5350 C.3   1 <1>   0.0400 
 22 C        7.2050     3.1640     0.2530 C.ar  1 <1>   0.1170 
 23 C        8.0410     3.8570     1.1190 C.ar  1 <1>  -0.1500 
 24 C        7.6510     2.9350    -1.0440 C.ar  1 <1>  -0.1500 
 25 C        9.2830     4.3040     0.7060 C.ar  1 <1>  -0.1500 
 26 C        8.8930     3.3820    -1.4570 C.ar  1 <1>  -0.1500 
 27 C        9.7290     4.0750    -0.5910 C.ar  1 <1>   0.1170 
 28 N       10.9860     4.4970    -1.0600 N.am  1 <1>  -0.5470 
 29 C       11.8340     5.4640    -0.6030 C.2   1 <1>   0.5690 
 30 O       11.6090     6.1780     0.3410 O.2   1 <1>  -0.5700 
 31 C       13.1330     5.6470    -1.3460 C.3   1 <1>  -0.1790 
 32 H        2.4090    -0.9410     2.9470 H     1 <1>   0.0800 
 33 H        2.2420     0.7700     3.2450 H     1 <1>   0.0800 
 34 H        1.0930     2.1770     1.5410 H     1 <1>   0.0800 
 35 H        0.4470     1.4040     0.1160 H     1 <1>   0.0800 
 36 H       -2.7780     0.7210     1.3810 H     1 <1>   0.1500 
 37 H        0.0770    -2.0490    -0.1000 H     1 <1>   0.1500 
 38 H        3.9230    -0.5650     1.1070 H     1 <1>   0.0800 
 39 H        4.5300     0.2350     2.5240 H     1 <1>   0.0800 
 40 H        2.5280     2.6080    -0.4060 H     1 <1>   0.0800 
 41 H        2.6710     0.9020    -0.7050 H     1 <1>   0.0800 
 42 H       -1.3220    -2.4860    -2.0360 H     1 <1>   0.1500 
 43 H        3.6730     2.3800     1.7330 H     1 <1>   0.0800 
 44 H       -4.7690     1.1850     0.2340 H     1 <1>   0.0800 
 45 H       -5.4130    -0.1860    -0.6350 H     1 <1>   0.0800 
 46 H       -4.6170     1.1030    -1.5040 H     1 <1>   0.0800 
 47 H        5.6420     3.2300     1.5630 H     1 <1>   0.3700 
 48 H       -4.1960    -2.2130    -4.2500 H     1 <1>   0.0800 
 49 H       -3.3030    -3.2130    -3.1100 H     1 <1>   0.0800 
 50 H       -2.4770    -1.9250    -4.0080 H     1 <1>   0.0800 
 51 H        7.7280     4.0500     2.1280 H     1 <1>   0.1500 
 52 H        7.0280     2.4080    -1.7430 H     1 <1>   0.1500 
 53 H        9.9080     4.8300     1.4040 H     1 <1>   0.1500 
 54 H        9.2080     3.1890    -2.4660 H     1 <1>   0.1500 
 55 H       11.2970     4.0210    -1.9030 H     1 <1>   0.3700 
 56 H       12.9350     5.9530    -2.3560 H     1 <1>   0.0800 
 57 H       13.6870     4.7270    -1.3470 H     1 <1>   0.0800 
 58 H       13.7220     6.4050    -0.8640 H     1 <1>   0.0800 
@<TRIPOS>BOND
  1   1   2  2   
  2   1   3  2   
  3   1   4  am  
  4   1   5  1   
  5   4   6  1   
  6   4   7  1   
  7   5   8  ar  
  8   5   9  ar  
  9   6  10  1   
 10   6  32  1   
 11   6  33  1   
 12   7  11  1   
 13   7  34  1   
 14   7  35  1   
 15   8  12  ar  
 16   8  36  1   
 17   9  13  ar  
 18   9  37  1   
 19  10  14  1   
 20  10  38  1   
 21  10  39  1   
 22  11  14  1   
 23  11  40  1   
 24  11  41  1   
 25  12  15  ar  
 26  12  16  1   
 27  13  15  ar  
 28  13  42  1   
 29  14  17  1   
 30  14  43  1   
 31  15  18  1   
 32  16  44  1   
 33  16  45  1   
 34  16  46  1   
 35  17  19  2   
 36  17  20  am  
 37  18  21  1   
 38  20  22  1   
 39  20  47  1   
 40  21  48  1   
 41  21  49  1   
 42  21  50  1   
 43  22  23  ar  
 44  22  24  ar  
 45  23  25  ar  
 46  23  51  1   
 47  24  26  ar  
 48  24  52  1   
 49  25  27  ar  
 50  25  53  1   
 51  26  27  ar  
 52  26  54  1   
 53  27  28  1   
 54  28  29  am  
 55  28  55  1   
 56  29  30  2   
 57  29  31  1   
 58  31  56  1   
 59  31  57  1   
 60  31  58  1   
@<TRIPOS>SUBSTRUCTURE
  1 ****  11 GROUP 4 **** **** 0

# MOE 2024.06 (io_trps.svl 2023.06)
