@<TRIPOS>MOLECULE
1-(2-Chloro-ethyl)-3-(4-methoxy-3-methyl-phenyl)-urea
31 31 1 0 0 
SMALL
USER_CHARGES


@<TRIPOS>ATOM
  1 CL       0.3070     1.0260     1.1920 Cl    1 <1>  -0.2900 
  2 C       -0.3210     2.6140     0.7890 C.3   1 <1>   0.1300 
  3 C       -1.1790     2.4850    -0.4710 C.3   1 <1>   0.1400 
  4 N       -1.6110     3.8220    -0.9560 N.am  1 <1>  -0.7300 
  5 C       -2.5440     4.5860    -0.3350 C.2   1 <1>   0.6900 
  6 O       -3.0190     4.2210     0.7210 O.2   1 <1>  -0.5700 
  7 N       -2.8970     5.7580    -0.9320 N.am  1 <1>  -0.5470 
  8 C       -3.8830     6.7000    -0.5960 C.ar  1 <1>   0.1170 
  9 C       -3.7310     8.0110    -1.0300 C.ar  1 <1>  -0.1500 
 10 C       -5.0190     6.3750     0.1360 C.ar  1 <1>  -0.1500 
 11 C       -4.6770     8.9820    -0.7440 C.ar  1 <1>  -0.1430 
 12 C       -5.9720     7.3330     0.4320 C.ar  1 <1>  -0.1500 
 13 C       -5.8080     8.6450    -0.0060 C.ar  1 <1>   0.0820 
 14 C       -4.4740    10.4080    -1.2350 C.3   1 <1>  -0.0970 
 15 O       -6.7120     9.6310     0.2540 O.3   1 <1>  -0.3620 
 16 C       -7.8580     9.3840     1.0380 C.3   1 <1>   0.0400 
 17 H        0.5210     3.2610     0.6260 H     1 <1>   0.0800 
 18 H       -0.9040     2.9560     1.6260 H     1 <1>   0.0800 
 19 H       -2.0500     1.8910    -0.2490 H     1 <1>   0.0800 
 20 H       -0.6110     1.9970    -1.2440 H     1 <1>   0.0800 
 21 H       -1.3770     4.0330    -1.9240 H     1 <1>   0.3700 
 22 H       -2.2760     6.0440    -1.6790 H     1 <1>   0.3700 
 23 H       -2.8580     8.2750    -1.5970 H     1 <1>   0.1500 
 24 H       -5.1660     5.3670     0.4790 H     1 <1>   0.1500 
 25 H       -6.8300     7.0350     1.0010 H     1 <1>   0.1500 
 26 H       -3.5580    10.5060    -1.7890 H     1 <1>   0.0800 
 27 H       -4.4410    11.0790    -0.3950 H     1 <1>   0.0800 
 28 H       -5.2930    10.6930    -1.8710 H     1 <1>   0.0800 
 29 H       -8.4070    10.3040     1.1260 H     1 <1>   0.0800 
 30 H       -7.5480     9.0480     2.0110 H     1 <1>   0.0800 
 31 H       -8.4630     8.6430     0.5470 H     1 <1>   0.0800 
@<TRIPOS>BOND
  1   1   2  1   
  2   2   3  1   
  3   2  17  1   
  4   2  18  1   
  5   3   4  1   
  6   3  19  1   
  7   3  20  1   
  8   4   5  am  
  9   4  21  1   
 10   5   6  2   
 11   5   7  am  
 12   7   8  1   
 13   7  22  1   
 14   8   9  ar  
 15   8  10  ar  
 16   9  11  ar  
 17   9  23  1   
 18  10  12  ar  
 19  10  24  1   
 20  11  13  ar  
 21  11  14  1   
 22  12  13  ar  
 23  12  25  1   
 24  13  15  1   
 25  14  26  1   
 26  14  27  1   
 27  14  28  1   
 28  15  16  1   
 29  16  29  1   
 30  16  30  1   
 31  16  31  1   
@<TRIPOS>SUBSTRUCTURE
  1 ****   8 GROUP 4 **** **** 0

# MOE 2024.06 (io_trps.svl 2023.06)
