@<TRIPOS>MOLECULE
N-(4,5-Dihydro-thiazol-2-yl)-3-isopropoxy-benzamide
35 36 1 0 0 
SMALL
USER_CHARGES


@<TRIPOS>ATOM
  1 S        0.0340     0.5810    -1.0720 S.3   1 <1>  -0.3610 
  2 C        1.1780     1.6350    -0.3280 C.cat 1 <1>   0.8400 
  3 C       -1.4140     1.6970    -0.8240 C.3   1 <1>   0.0700 
  4 N        0.6150     2.7300     0.0890 N.pl3 1 <1>  -0.7940 
  5 N        2.4300     1.2480    -0.2600 N.pl3 1 <1>  -0.6850 
  6 C       -0.8450     2.9390    -0.1080 C.3   1 <1>   0.3300 
  7 C        3.5010     1.9250     0.2820 C.2   1 <1>   0.8650 
  8 O        3.3060     3.0470     0.6890 O.2   1 <1>  -0.5700 
  9 C        4.8120     1.3030     0.3330 C.ar  1 <1>   0.0860 
 10 C        4.9700    -0.0850     0.3660 C.ar  1 <1>  -0.1500 
 11 C        5.9750     2.0770     0.3500 C.ar  1 <1>  -0.1500 
 12 C        6.2180    -0.6770     0.3890 C.ar  1 <1>   0.0830 
 13 C        7.2290     1.4960     0.3790 C.ar  1 <1>  -0.1500 
 14 O        6.2280    -2.0320     0.4070 O.3   1 <1>  -0.3630 
 15 C        7.3570     0.1200     0.3950 C.ar  1 <1>  -0.1500 
 16 C        7.4110    -2.8020     0.3860 C.3   1 <1>   0.2000 
 17 C        7.9230    -2.8850    -1.0540 C.3   1 <1>  -0.2400 
 18 C        7.0520    -4.1860     0.9200 C.3   1 <1>  -0.2400 
 19 H       -2.1400     1.1770    -0.2240 H     1 <1>   0.0800 
 20 H       -1.8230     1.9360    -1.7900 H     1 <1>   0.0800 
 21 H        1.1760     3.4620     0.5470 H     1 <1>   0.4500 
 22 H        2.6440     0.3470    -0.6750 H     1 <1>   0.4500 
 23 H       -1.3300     3.0700     0.8460 H     1 <1>   0.0800 
 24 H       -1.0140     3.8200    -0.7060 H     1 <1>   0.0800 
 25 H        4.1220    -0.7450     0.3860 H     1 <1>   0.1500 
 26 H        5.9010     3.1530     0.3400 H     1 <1>   0.1500 
 27 H        8.1110     2.1160     0.3890 H     1 <1>   0.1500 
 28 H        8.3430    -0.3060     0.4130 H     1 <1>   0.1500 
 29 H        8.1370    -2.3500     1.0400 H     1 <1>   0.0800 
 30 H        7.1790    -3.3310    -1.6890 H     1 <1>   0.0800 
 31 H        8.8110    -3.4900    -1.0910 H     1 <1>   0.0800 
 32 H        8.1680    -1.9090    -1.4300 H     1 <1>   0.0800 
 33 H        6.3020    -4.6460     0.3010 H     1 <1>   0.0800 
 34 H        6.6830    -4.1060     1.9260 H     1 <1>   0.0800 
 35 H        7.9230    -4.8150     0.9280 H     1 <1>   0.0800 
@<TRIPOS>BOND
  1   1   2  1   
  2   1   3  1   
  3   2   4  ar  
  4   2   5  ar  
  5   3   6  1   
  6   3  19  1   
  7   3  20  1   
  8   4   6  1   
  9   4  21  1   
 10   5   7  1   
 11   5  22  1   
 12   6  23  1   
 13   6  24  1   
 14   7   8  2   
 15   7   9  1   
 16   9  10  ar  
 17   9  11  ar  
 18  10  12  ar  
 19  10  25  1   
 20  11  13  ar  
 21  11  26  1   
 22  12  14  1   
 23  12  15  ar  
 24  13  15  ar  
 25  13  27  1   
 26  14  16  1   
 27  15  28  1   
 28  16  17  1   
 29  16  18  1   
 30  16  29  1   
 31  17  30  1   
 32  17  31  1   
 33  17  32  1   
 34  18  33  1   
 35  18  34  1   
 36  18  35  1   
@<TRIPOS>SUBSTRUCTURE
  1 ****  10 GROUP 4 **** **** 0

# MOE 2024.06 (io_trps.svl 2023.06)
