@<TRIPOS>MOLECULE
3-(4-Chloro-phenyl)-1-(2-cyano-ethyl)-1H-pyrazole-4-carboxylic acid diethylamide
42 43 1 0 0 
SMALL
USER_CHARGES


@<TRIPOS>ATOM
  1 CL      -0.5510    -1.1540     1.4550 Cl    1 <1>  -0.1770 
  2 C        0.6290    -2.3420     0.9650 C.ar  1 <1>   0.1770 
  3 C        1.9270    -2.2420     1.4270 C.ar  1 <1>  -0.1500 
  4 C        0.2510    -3.3700     0.1240 C.ar  1 <1>  -0.1500 
  5 C        2.8590    -3.1870     1.0370 C.ar  1 <1>  -0.1500 
  6 C        1.1930    -4.3080    -0.2600 C.ar  1 <1>  -0.1500 
  7 C        2.5160    -4.2370     0.1810 C.ar  1 <1>   0.0540 
  8 C        3.4770    -5.2370    -0.2370 C.2   1 <1>   0.2350 
  9 N        3.1940    -6.5160    -0.2720 N.2   1 <1>  -0.7070 
 10 C        4.8040    -5.0040    -0.6410 C.2   1 <1>  -0.0860 
 11 N        4.3080    -7.1250    -0.6900 N.pl3 1 <1>   0.3140 
 12 C        5.4510    -3.7210    -0.7500 C.2   1 <1>   0.7160 
 13 C        5.2890    -6.2450    -0.9130 C.2   1 <1>  -0.3020 
 14 C        4.3720    -8.5860    -0.8700 C.3   1 <1>   0.0960 
 15 O        4.9280    -2.8450    -1.4130 O.2   1 <1>  -0.5700 
 16 N        6.6500    -3.4580    -0.1130 N.am  1 <1>  -0.6600 
 17 C        3.8510    -9.3050     0.3770 C.3   1 <1>   0.0400 
 18 C        7.3630    -2.1700    -0.3430 C.3   1 <1>   0.1400 
 19 C        7.1670    -4.2940     1.0050 C.3   1 <1>   0.1400 
 20 C        4.0200   -10.7710     0.2150 C.1   1 <1>   0.3570 
 21 C        8.1590    -2.2440    -1.6440 C.3   1 <1>  -0.2400 
 22 C        8.4480    -5.0100     0.5840 C.3   1 <1>  -0.2400 
 23 N        4.1740   -11.8870     0.0640 N.1   1 <1>  -0.5570 
 24 H        2.1990    -1.4340     2.0820 H     1 <1>   0.1500 
 25 H       -0.7640    -3.4320    -0.2230 H     1 <1>   0.1500 
 26 H        3.8670    -3.1090     1.4020 H     1 <1>   0.1500 
 27 H        0.9110    -5.1160    -0.9130 H     1 <1>   0.1500 
 28 H        6.2670    -6.5190    -1.2630 H     1 <1>   0.1500 
 29 H        5.3930    -8.8640    -1.0630 H     1 <1>   0.0800 
 30 H        3.7740    -8.8460    -1.7250 H     1 <1>   0.0800 
 31 H        2.8070    -9.0930     0.5210 H     1 <1>   0.0800 
 32 H        4.3990    -8.9890     1.2450 H     1 <1>   0.0800 
 33 H        8.0260    -1.9610     0.4790 H     1 <1>   0.0800 
 34 H        6.6470    -1.3670    -0.4030 H     1 <1>   0.0800 
 35 H        6.4320    -5.0200     1.3040 H     1 <1>   0.0800 
 36 H        7.3640    -3.6670     1.8590 H     1 <1>   0.0800 
 37 H        8.8790    -3.0400    -1.6070 H     1 <1>   0.0800 
 38 H        8.6800    -1.3180    -1.8020 H     1 <1>   0.0800 
 39 H        7.4940    -2.4030    -2.4750 H     1 <1>   0.0800 
 40 H        8.2820    -5.5820    -0.3110 H     1 <1>   0.0800 
 41 H        8.7610    -5.6790     1.3650 H     1 <1>   0.0800 
 42 H        9.2380    -4.3020     0.4140 H     1 <1>   0.0800 
@<TRIPOS>BOND
  1   1   2  1   
  2   2   3  ar  
  3   2   4  ar  
  4   3   5  ar  
  5   3  24  1   
  6   4   6  ar  
  7   4  25  1   
  8   5   7  ar  
  9   5  26  1   
 10   6   7  ar  
 11   6  27  1   
 12   7   8  1   
 13   8   9  2   
 14   8  10  1   
 15   9  11  1   
 16  10  12  1   
 17  10  13  2   
 18  11  13  1   
 19  11  14  1   
 20  12  15  2   
 21  12  16  am  
 22  13  28  1   
 23  14  17  1   
 24  14  29  1   
 25  14  30  1   
 26  16  18  1   
 27  16  19  1   
 28  17  20  1   
 29  17  31  1   
 30  17  32  1   
 31  18  21  1   
 32  18  33  1   
 33  18  34  1   
 34  19  22  1   
 35  19  35  1   
 36  19  36  1   
 37  20  23  3   
 38  21  37  1   
 39  21  38  1   
 40  21  39  1   
 41  22  40  1   
 42  22  41  1   
 43  22  42  1   
@<TRIPOS>SUBSTRUCTURE
  1 ****   8 GROUP 4 **** **** 0

# MOE 2024.06 (io_trps.svl 2023.06)
