@<TRIPOS>MOLECULE
N-tert-Butyl-2-[5-(1-ethyl-1H-indol-3-yl)-4-methyl-4H-[1,2,4]triazol-3-ylsulfany
51 53 1 0 0 
SMALL
USER_CHARGES


@<TRIPOS>ATOM
  1 S        0.2910    -0.4870    -2.4690 S.3   1 <1>  -0.2860 
  2 C       -0.7930    -1.8500    -2.0290 C.2   1 <1>   0.2420 
  3 C        1.9850    -1.2540    -2.4550 C.3   1 <1>   0.1310 
  4 N       -0.4570    -3.0870    -2.1070 N.2   1 <1>  -0.3380 
  5 N       -2.0210    -1.6590    -1.5580 N.pl3 1 <1>   0.0480 
  6 C        2.4320    -1.5130    -1.0240 C.2   1 <1>   0.5690 
  7 N       -1.5010    -3.7750    -1.6430 N.2   1 <1>  -0.3380 
  8 C       -2.4270    -2.9180    -1.3050 C.2   1 <1>   0.1870 
  9 C       -2.7440    -0.3810    -1.3840 C.3   1 <1>   0.0160 
 10 O        3.3190    -0.8290    -0.5690 O.2   1 <1>  -0.5700 
 11 N        1.8190    -2.5030    -0.3200 N.am  1 <1>  -0.7300 
 12 C       -3.7070    -3.2500    -0.7370 C.2   1 <1>  -0.0010 
 13 C        1.9740    -2.8960     1.0780 C.3   1 <1>   0.3000 
 14 C       -4.2120    -2.7640     0.4980 C.ar  1 <1>   0.0000 
 15 C       -4.6730    -4.0620    -1.2500 C.2   1 <1>  -0.3020 
 16 C        0.9760    -4.0280     1.3170 C.3   1 <1>  -0.2400 
 17 C        3.3980    -3.3970     1.3180 C.3   1 <1>  -0.2400 
 18 C        1.6350    -1.7130     1.9840 C.3   1 <1>  -0.2400 
 19 C       -5.4910    -3.2910     0.6510 C.ar  1 <1>  -0.1520 
 20 C       -3.6820    -1.9400     1.4960 C.ar  1 <1>  -0.1500 
 21 N       -5.7590    -4.0970    -0.4310 N.pl3 1 <1>   0.0480 
 22 C       -6.2620    -2.9780     1.7750 C.ar  1 <1>  -0.1500 
 23 C       -4.4420    -1.6340     2.6020 C.ar  1 <1>  -0.1500 
 24 C       -6.9860    -4.8870    -0.6570 C.3   1 <1>   0.0960 
 25 C       -5.7340    -2.1510     2.7390 C.ar  1 <1>  -0.1500 
 26 C       -6.9030    -6.2270     0.0780 C.3   1 <1>  -0.2400 
 27 H        2.6500    -0.5600    -2.9330 H     1 <1>   0.0800 
 28 H        1.9380    -2.1680    -3.0160 H     1 <1>   0.0800 
 29 H       -2.5900     0.2370    -2.2490 H     1 <1>   0.0800 
 30 H       -2.3690     0.1240    -0.5120 H     1 <1>   0.0800 
 31 H       -3.7960    -0.5680    -1.2670 H     1 <1>   0.0800 
 32 H        1.0560    -3.0110    -0.7850 H     1 <1>   0.3700 
 33 H       -4.6280    -4.6180    -2.1690 H     1 <1>   0.1500 
 34 H        1.1890    -4.8610     0.6710 H     1 <1>   0.0800 
 35 H       -0.0290    -3.6930     1.1330 H     1 <1>   0.0800 
 36 H        1.0360    -4.3680     2.3350 H     1 <1>   0.0800 
 37 H        3.6300    -4.2010     0.6440 H     1 <1>   0.0800 
 38 H        3.5000    -3.7540     2.3260 H     1 <1>   0.0800 
 39 H        4.1070    -2.6030     1.1720 H     1 <1>   0.0800 
 40 H        0.6480    -1.3460     1.7690 H     1 <1>   0.0800 
 41 H        2.3430    -0.9150     1.8450 H     1 <1>   0.0800 
 42 H        1.6720    -2.0140     3.0150 H     1 <1>   0.0800 
 43 H       -2.6820    -1.5600     1.3930 H     1 <1>   0.1500 
 44 H       -7.2510    -3.3850     1.8810 H     1 <1>   0.1500 
 45 H       -4.0470    -0.9990     3.3760 H     1 <1>   0.1500 
 46 H       -7.0980    -5.0530    -1.7130 H     1 <1>   0.0800 
 47 H       -7.8310    -4.3210    -0.3090 H     1 <1>   0.0800 
 48 H       -6.3110    -1.8980     3.6120 H     1 <1>   0.1500 
 49 H       -6.0610    -6.7950    -0.2770 H     1 <1>   0.0800 
 50 H       -7.7980    -6.7970    -0.0980 H     1 <1>   0.0800 
 51 H       -6.8010    -6.0670     1.1370 H     1 <1>   0.0800 
@<TRIPOS>BOND
  1   1   2  1   
  2   1   3  1   
  3   2   4  2   
  4   2   5  1   
  5   3   6  1   
  6   3  27  1   
  7   3  28  1   
  8   4   7  1   
  9   5   8  1   
 10   5   9  1   
 11   6  10  2   
 12   6  11  am  
 13   7   8  2   
 14   8  12  1   
 15   9  29  1   
 16   9  30  1   
 17   9  31  1   
 18  11  13  1   
 19  11  32  1   
 20  12  14  1   
 21  12  15  2   
 22  13  16  1   
 23  13  17  1   
 24  13  18  1   
 25  14  19  ar  
 26  14  20  ar  
 27  15  21  1   
 28  15  33  1   
 29  16  34  1   
 30  16  35  1   
 31  16  36  1   
 32  17  37  1   
 33  17  38  1   
 34  17  39  1   
 35  18  40  1   
 36  18  41  1   
 37  18  42  1   
 38  19  21  1   
 39  19  22  ar  
 40  20  23  ar  
 41  20  43  1   
 42  21  24  1   
 43  22  25  ar  
 44  22  44  1   
 45  23  25  ar  
 46  23  45  1   
 47  24  26  1   
 48  24  46  1   
 49  24  47  1   
 50  25  48  1   
 51  26  49  1   
 52  26  50  1   
 53  26  51  1   
@<TRIPOS>SUBSTRUCTURE
  1 ****   8 GROUP 4 **** **** 0

# MOE 2024.06 (io_trps.svl 2023.06)
