@<TRIPOS>MOLECULE
2-Methyl-5-(4-methyl-piperidine-1-sulfonyl)-benzamide
40 41 1 0 0 
SMALL
USER_CHARGES


@<TRIPOS>ATOM
  1 S       -0.2200     0.1050     2.2160 S.o2  1 <1>   1.4470 
  2 O        0.3410    -0.8140     3.1820 O.2   1 <1>  -0.6500 
  3 O       -0.6670     1.4110     2.6530 O.2   1 <1>  -0.6500 
  4 N        0.9620     0.3700     1.0280 N.am  1 <1>  -0.8490 
  5 C       -1.5390    -0.7360     1.2940 C.ar  1 <1>  -0.0090 
  6 C        2.2600     0.6840     1.6310 C.3   1 <1>   0.1960 
  7 C        0.5610     1.4130     0.0780 C.3   1 <1>   0.1960 
  8 C       -2.8510    -0.2890     1.3350 C.ar  1 <1>  -0.1500 
  9 C       -1.2630    -1.8540     0.5220 C.ar  1 <1>  -0.1500 
 10 C        3.3430     0.7710     0.5500 C.3   1 <1>  -0.1600 
 11 C        1.5780     1.5100    -1.0620 C.3   1 <1>  -0.1600 
 12 C       -3.8830    -0.9070     0.6310 C.ar  1 <1>   0.0860 
 13 C       -2.2640    -2.5020    -0.1780 C.ar  1 <1>  -0.1500 
 14 C        2.9840     1.8060    -0.5240 C.3   1 <1>  -0.0800 
 15 C       -3.5700    -2.0440    -0.1260 C.ar  1 <1>  -0.1440 
 16 C       -5.2180    -0.3440     0.7140 C.2   1 <1>   0.5440 
 17 C        4.0160     1.7980    -1.6570 C.3   1 <1>  -0.2400 
 18 C       -4.6400    -2.8160    -0.8880 C.3   1 <1>  -0.0970 
 19 O       -5.7670    -0.1670     1.7780 O.2   1 <1>  -0.5700 
 20 N       -5.8980     0.0470    -0.3880 N.am  1 <1>  -0.8000 
 21 H        2.5360    -0.0900     2.3290 H     1 <1>   0.0800 
 22 H        2.1970     1.6150     2.1710 H     1 <1>   0.0800 
 23 H        0.4880     2.3640     0.5830 H     1 <1>   0.0800 
 24 H       -0.4050     1.1780    -0.3360 H     1 <1>   0.0800 
 25 H       -3.0920     0.5730     1.9370 H     1 <1>   0.1500 
 26 H       -0.2510    -2.2230     0.4730 H     1 <1>   0.1500 
 27 H        3.4580    -0.2010     0.1040 H     1 <1>   0.0800 
 28 H        4.2780     1.0340     1.0110 H     1 <1>   0.0800 
 29 H        1.2770     2.2900    -1.7390 H     1 <1>   0.0800 
 30 H        1.5760     0.5810    -1.6050 H     1 <1>   0.0800 
 31 H       -2.0150    -3.3720    -0.7600 H     1 <1>   0.1500 
 32 H        2.9800     2.7840    -0.0710 H     1 <1>   0.0800 
 33 H        4.0490     0.8350    -2.1350 H     1 <1>   0.0800 
 34 H        4.9950     2.0220    -1.2710 H     1 <1>   0.0800 
 35 H        3.7660     2.5390    -2.3950 H     1 <1>   0.0800 
 36 H       -4.2950    -3.8020    -1.1420 H     1 <1>   0.0800 
 37 H       -5.5260    -2.9230    -0.2860 H     1 <1>   0.0800 
 38 H       -4.8960    -2.3010    -1.7960 H     1 <1>   0.0800 
 39 H       -6.8140     0.4810    -0.2700 H     1 <1>   0.3700 
 40 H       -5.5050     0.0330    -1.3280 H     1 <1>   0.3700 
@<TRIPOS>BOND
  1   1   2  2   
  2   1   3  2   
  3   1   4  am  
  4   1   5  1   
  5   4   6  1   
  6   4   7  1   
  7   5   8  ar  
  8   5   9  ar  
  9   6  10  1   
 10   6  21  1   
 11   6  22  1   
 12   7  11  1   
 13   7  23  1   
 14   7  24  1   
 15   8  12  ar  
 16   8  25  1   
 17   9  13  ar  
 18   9  26  1   
 19  10  14  1   
 20  10  27  1   
 21  10  28  1   
 22  11  14  1   
 23  11  29  1   
 24  11  30  1   
 25  12  15  ar  
 26  12  16  1   
 27  13  15  ar  
 28  13  31  1   
 29  14  17  1   
 30  14  32  1   
 31  15  18  1   
 32  16  19  2   
 33  16  20  am  
 34  17  33  1   
 35  17  34  1   
 36  17  35  1   
 37  18  36  1   
 38  18  37  1   
 39  18  38  1   
 40  20  39  1   
 41  20  40  1   
@<TRIPOS>SUBSTRUCTURE
  1 ****   5 GROUP 4 **** **** 0

# MOE 2024.06 (io_trps.svl 2023.06)
