@<TRIPOS>MOLECULE
N-(3-Acetyl-phenyl)-N-[2-(3,4-dihydro-1H-isoquinolin-2-yl)-2-oxo-ethyl]-methanes
49 51 1 0 0 
SMALL
USER_CHARGES


@<TRIPOS>ATOM
  1 S        0.5330     1.2860     3.2000 S.o2  1 <1>   1.3330 
  2 O        1.1530     1.8860     4.3560 O.2   1 <1>  -0.6500 
  3 O        1.0920     0.0920     2.6160 O.2   1 <1>  -0.6500 
  4 N        0.5440     2.5020     1.9700 N.am  1 <1>  -0.6930 
  5 C       -1.2010     1.0700     3.5370 C.3   1 <1>  -0.1350 
  6 C       -0.2740     2.4740     0.8400 C.ar  1 <1>   0.1990 
  7 C        1.7280     3.4260     2.0110 C.3   1 <1>   0.2570 
  8 C       -0.4640     1.3190     0.0920 C.ar  1 <1>  -0.1500 
  9 C       -0.9190     3.6350     0.4350 C.ar  1 <1>  -0.1500 
 10 C        2.2660     3.8670     0.6430 C.2   1 <1>   0.5690 
 11 C       -1.2760     1.2830    -1.0410 C.ar  1 <1>   0.0860 
 12 C       -1.7330     3.6360    -0.6800 C.ar  1 <1>  -0.1500 
 13 O        2.0830     5.0220     0.3290 O.2   1 <1>  -0.5700 
 14 N        2.9310     2.9980    -0.1880 N.am  1 <1>  -0.6600 
 15 C       -1.4340     0.0470    -1.7840 C.2   1 <1>   0.4230 
 16 C       -1.9100     2.4750    -1.4070 C.ar  1 <1>  -0.1500 
 17 C        3.4920     3.4740    -1.4850 C.3   1 <1>   0.2840 
 18 C        3.1070     1.5390     0.0500 C.3   1 <1>   0.1400 
 19 O       -1.0170    -1.0100    -1.3910 O.2   1 <1>  -0.5700 
 20 C       -2.1470     0.0380    -3.1230 C.3   1 <1>  -0.1790 
 21 C        4.8230     2.8080    -1.8340 C.ar  1 <1>  -0.1430 
 22 C        4.5960     1.2080     0.1150 C.3   1 <1>  -0.0170 
 23 C        5.3400     1.7470    -1.0980 C.ar  1 <1>  -0.1430 
 24 C        5.5310     3.2810    -2.9300 C.ar  1 <1>  -0.1500 
 25 C        6.5500     1.1770    -1.4630 C.ar  1 <1>  -0.1500 
 26 C        6.7380     2.7090    -3.2910 C.ar  1 <1>  -0.1500 
 27 C        7.2480     1.6550    -2.5570 C.ar  1 <1>  -0.1500 
 28 H       -1.3350     0.3590     4.3290 H     1 <1>   0.0800 
 29 H       -1.7100     0.7100     2.6650 H     1 <1>   0.0800 
 30 H       -1.6390     2.0030     3.8350 H     1 <1>   0.0800 
 31 H        2.5380     2.9530     2.5370 H     1 <1>   0.0800 
 32 H        1.4550     4.3030     2.5700 H     1 <1>   0.0800 
 33 H        0.0410     0.4160     0.3830 H     1 <1>   0.1500 
 34 H       -0.7770     4.5430     0.9950 H     1 <1>   0.1500 
 35 H       -2.2250     4.5460    -0.9820 H     1 <1>   0.1500 
 36 H       -2.5520     2.5080    -2.2690 H     1 <1>   0.1500 
 37 H        3.6400     4.5390    -1.4510 H     1 <1>   0.0800 
 38 H        2.7800     3.2630    -2.2640 H     1 <1>   0.0800 
 39 H        2.6530     0.9950    -0.7610 H     1 <1>   0.0800 
 40 H        2.6360     1.2250     0.9610 H     1 <1>   0.0800 
 41 H       -1.7100     0.7670    -3.7800 H     1 <1>   0.0800 
 42 H       -3.1900     0.2490    -2.9840 H     1 <1>   0.0800 
 43 H       -2.0520    -0.9310    -3.5790 H     1 <1>   0.0800 
 44 H        4.7120     0.1410     0.1730 H     1 <1>   0.0800 
 45 H        5.0160     1.6370     1.0070 H     1 <1>   0.0800 
 46 H        5.1450     4.1020    -3.5090 H     1 <1>   0.1500 
 47 H        6.9550     0.3580    -0.8940 H     1 <1>   0.1500 
 48 H        7.2790     3.0840    -4.1420 H     1 <1>   0.1500 
 49 H        8.1860     1.2090    -2.8350 H     1 <1>   0.1500 
@<TRIPOS>BOND
  1   1   2  2   
  2   1   3  2   
  3   1   4  am  
  4   1   5  1   
  5   4   6  1   
  6   4   7  1   
  7   5  28  1   
  8   5  29  1   
  9   5  30  1   
 10   6   8  ar  
 11   6   9  ar  
 12   7  10  1   
 13   7  31  1   
 14   7  32  1   
 15   8  11  ar  
 16   8  33  1   
 17   9  12  ar  
 18   9  34  1   
 19  10  13  2   
 20  10  14  am  
 21  11  15  1   
 22  11  16  ar  
 23  12  16  ar  
 24  12  35  1   
 25  14  17  1   
 26  14  18  1   
 27  15  19  2   
 28  15  20  1   
 29  16  36  1   
 30  17  21  1   
 31  17  37  1   
 32  17  38  1   
 33  18  22  1   
 34  18  39  1   
 35  18  40  1   
 36  20  41  1   
 37  20  42  1   
 38  20  43  1   
 39  21  23  ar  
 40  21  24  ar  
 41  22  23  1   
 42  22  44  1   
 43  22  45  1   
 44  23  25  ar  
 45  24  26  ar  
 46  24  46  1   
 47  25  27  ar  
 48  25  47  1   
 49  26  27  ar  
 50  26  48  1   
 51  27  49  1   
@<TRIPOS>SUBSTRUCTURE
  1 ****  18 GROUP 4 **** **** 0

# MOE 2024.06 (io_trps.svl 2023.06)
