@<TRIPOS>MOLECULE
(4-Carbamoyl-piperidin-1-yl)-acetic acid
27 27 1 0 0 
SMALL
USER_CHARGES


@<TRIPOS>ATOM
  1 O       -0.2940     1.8140     1.2660 O.2   1 <1>  -0.5700 
  2 C       -0.0650     1.9820     0.0980 C.2   1 <1>   0.5690 
  3 N       -0.9470     1.5640    -0.8280 N.am  1 <1>  -0.8000 
  4 C        1.2300     2.6700    -0.3280 C.3   1 <1>  -0.0190 
  5 C        2.4510     1.7900    -0.0050 C.3   1 <1>  -0.1600 
  6 C        1.3790     4.0430     0.3560 C.3   1 <1>  -0.1600 
  7 C        3.7680     2.4870    -0.3420 C.3   1 <1>   0.3430 
  8 C        2.7040     4.7160     0.0060 C.3   1 <1>   0.3430 
  9 N        3.8310     3.8140     0.3410 N.4   1 <1>  -0.9590 
 10 C        5.1790     4.4660     0.0420 C.3   1 <1>   0.2370 
 11 C        6.4100     3.6080     0.3540 C.2   1 <1>   0.9060 
 12 O        6.7000     2.7110    -0.4430 O.co2 1 <1>  -0.9000 
 13 O        6.9830     3.7830     1.4300 O.co2 1 <1>  -0.9000 
 14 H       -1.8050     1.1040    -0.5170 H     1 <1>   0.3700 
 15 H       -0.8280     1.6530    -1.8360 H     1 <1>   0.3700 
 16 H        1.1950     2.8240    -1.3920 H     1 <1>   0.0800 
 17 H        2.3920     0.8710    -0.5600 H     1 <1>   0.0800 
 18 H        2.4520     1.5320     1.0410 H     1 <1>   0.0800 
 19 H        1.3170     3.9300     1.4250 H     1 <1>   0.0800 
 20 H        0.5680     4.6830     0.0550 H     1 <1>   0.0800 
 21 H        3.8530     2.6220    -1.4080 H     1 <1>   0.0800 
 22 H        4.5930     1.8670    -0.0240 H     1 <1>   0.0800 
 23 H        2.7990     5.6390     0.5560 H     1 <1>   0.0800 
 24 H        2.7270     4.9440    -1.0470 H     1 <1>   0.0800 
 25 H        3.8370     3.6180     1.3530 H     1 <1>   0.4500 
 26 H        5.2800     5.3700     0.6150 H     1 <1>   0.0800 
 27 H        5.2360     4.7180    -1.0000 H     1 <1>   0.0800 
@<TRIPOS>BOND
  1   1   2  2   
  2   2   3  am  
  3   2   4  1   
  4   3  14  1   
  5   3  15  1   
  6   4   5  1   
  7   4   6  1   
  8   4  16  1   
  9   5   7  1   
 10   5  17  1   
 11   5  18  1   
 12   6   8  1   
 13   6  19  1   
 14   6  20  1   
 15   7   9  1   
 16   7  21  1   
 17   7  22  1   
 18   8   9  1   
 19   8  23  1   
 20   8  24  1   
 21   9  10  1   
 22   9  25  1   
 23  10  11  1   
 24  10  26  1   
 25  10  27  1   
 26  11  12  ar  
 27  11  13  ar  
@<TRIPOS>SUBSTRUCTURE
  1 ****   7 GROUP 4 **** **** 0

# MOE 2024.06 (io_trps.svl 2023.06)
