@<TRIPOS>MOLECULE
N-[2-(4-Isobutyryl-piperazin-1-yl)-phenyl]-4-isopropoxy-benzamide
61 63 1 0 0 
SMALL
USER_CHARGES


@<TRIPOS>ATOM
  1 O       -0.0580     0.3530     0.0770 O.2   1 <1>  -0.5700 
  2 C       -0.1900    -0.8560     0.0730 C.2   1 <1>   0.5440 
  3 N        0.8960    -1.6690     0.2750 N.am  1 <1>  -0.5470 
  4 C       -1.4900    -1.4550    -0.1680 C.ar  1 <1>   0.0860 
  5 C        2.2560    -1.4640     0.5510 C.ar  1 <1>   0.1170 
  6 C       -1.8190    -2.7330     0.2990 C.ar  1 <1>  -0.1500 
  7 C       -2.4720    -0.7730    -0.8890 C.ar  1 <1>  -0.1500 
  8 C        3.0620    -2.6120     0.5610 C.ar  1 <1>   0.1000 
  9 C        2.8240    -0.2240     0.8120 C.ar  1 <1>  -0.1500 
 10 C       -3.0520    -3.3050     0.0470 C.ar  1 <1>  -0.1500 
 11 C       -3.7080    -1.3380    -1.1430 C.ar  1 <1>  -0.1500 
 12 N        2.4900    -3.8730     0.3050 N.pl3 1 <1>  -0.8380 
 13 C        4.4200    -2.4820     0.8210 C.ar  1 <1>  -0.1500 
 14 C        4.1790    -0.1120     1.0740 C.ar  1 <1>  -0.1500 
 15 C       -4.0110    -2.6080    -0.6830 C.ar  1 <1>   0.0830 
 16 C        2.6570    -4.4290    -1.0780 C.3   1 <1>   0.2090 
 17 C        2.4940    -4.8860     1.4100 C.3   1 <1>   0.2090 
 18 C        4.9780    -1.2420     1.0780 C.ar  1 <1>  -0.1500 
 19 O       -5.2410    -3.0860    -0.9830 O.3   1 <1>  -0.3630 
 20 C        3.7840    -5.4690    -1.1620 C.3   1 <1>   0.1400 
 21 C        3.5960    -5.9540     1.2600 C.3   1 <1>   0.1400 
 22 C       -5.7300    -4.3340    -0.5450 C.3   1 <1>   0.2000 
 23 N        3.6090    -6.5280    -0.1210 N.am  1 <1>  -0.6600 
 24 C       -6.8790    -4.7150    -1.4750 C.3   1 <1>  -0.2400 
 25 C       -6.2140    -4.1960     0.9000 C.3   1 <1>  -0.2400 
 26 C        3.2940    -7.8190    -0.4720 C.2   1 <1>   0.5690 
 27 O        3.0950    -8.1130    -1.6290 O.2   1 <1>  -0.5700 
 28 C        3.1640    -8.9260     0.5900 C.3   1 <1>  -0.0190 
 29 C        3.5550   -10.3160     0.0530 C.3   1 <1>  -0.2400 
 30 C        1.7350    -8.9840     1.1570 C.3   1 <1>  -0.2400 
 31 H        0.7420    -2.6700     0.1370 H     1 <1>   0.3700 
 32 H       -1.1020    -3.2880     0.8760 H     1 <1>   0.1500 
 33 H       -2.2560     0.2170    -1.2530 H     1 <1>   0.1500 
 34 H        2.2150     0.6600     0.8120 H     1 <1>   0.1500 
 35 H       -3.2520    -4.2880     0.4280 H     1 <1>   0.1500 
 36 H       -4.4490    -0.7960    -1.7030 H     1 <1>   0.1500 
 37 H        5.0460    -3.3530     0.8200 H     1 <1>   0.1500 
 38 H        4.6070     0.8550     1.2740 H     1 <1>   0.1500 
 39 H        2.8640    -3.6260    -1.7650 H     1 <1>   0.0800 
 40 H        1.7350    -4.8920    -1.3850 H     1 <1>   0.0800 
 41 H        1.5370    -5.3780     1.4260 H     1 <1>   0.0800 
 42 H        2.6150    -4.3820     2.3540 H     1 <1>   0.0800 
 43 H        6.0320    -1.1540     1.2780 H     1 <1>   0.1500 
 44 H        4.7300    -4.9790    -1.0150 H     1 <1>   0.0800 
 45 H        3.7940    -5.8990    -2.1490 H     1 <1>   0.0800 
 46 H        3.4360    -6.7140     2.0000 H     1 <1>   0.0800 
 47 H        4.5520    -5.5050     1.4600 H     1 <1>   0.0800 
 48 H       -4.9480    -5.0670    -0.6340 H     1 <1>   0.0800 
 49 H       -7.6600    -3.9770    -1.4290 H     1 <1>   0.0800 
 50 H       -7.2880    -5.6670    -1.1870 H     1 <1>   0.0800 
 51 H       -6.5220    -4.7910    -2.4860 H     1 <1>   0.0800 
 52 H       -6.9860    -3.4510     0.9630 H     1 <1>   0.0800 
 53 H       -5.4040    -3.9180     1.5480 H     1 <1>   0.0800 
 54 H       -6.6140    -5.1330     1.2430 H     1 <1>   0.0800 
 55 H        3.8480    -8.7090     1.3880 H     1 <1>   0.0800 
 56 H        2.8880   -10.6170    -0.7360 H     1 <1>   0.0800 
 57 H        3.5180   -11.0500     0.8370 H     1 <1>   0.0800 
 58 H        4.5550   -10.2880    -0.3450 H     1 <1>   0.0800 
 59 H        1.0400    -9.2360     0.3750 H     1 <1>   0.0800 
 60 H        1.4510    -8.0330     1.5690 H     1 <1>   0.0800 
 61 H        1.6670    -9.7280     1.9310 H     1 <1>   0.0800 
@<TRIPOS>BOND
  1   1   2  2   
  2   2   3  am  
  3   2   4  1   
  4   3   5  1   
  5   3  31  1   
  6   4   6  ar  
  7   4   7  ar  
  8   5   8  ar  
  9   5   9  ar  
 10   6  10  ar  
 11   6  32  1   
 12   7  11  ar  
 13   7  33  1   
 14   8  12  1   
 15   8  13  ar  
 16   9  14  ar  
 17   9  34  1   
 18  10  15  ar  
 19  10  35  1   
 20  11  15  ar  
 21  11  36  1   
 22  12  16  1   
 23  12  17  1   
 24  13  18  ar  
 25  13  37  1   
 26  14  18  ar  
 27  14  38  1   
 28  15  19  1   
 29  16  20  1   
 30  16  39  1   
 31  16  40  1   
 32  17  21  1   
 33  17  41  1   
 34  17  42  1   
 35  18  43  1   
 36  19  22  1   
 37  20  23  1   
 38  20  44  1   
 39  20  45  1   
 40  21  23  1   
 41  21  46  1   
 42  21  47  1   
 43  22  24  1   
 44  22  25  1   
 45  22  48  1   
 46  23  26  am  
 47  24  49  1   
 48  24  50  1   
 49  24  51  1   
 50  25  52  1   
 51  25  53  1   
 52  25  54  1   
 53  26  27  2   
 54  26  28  1   
 55  28  29  1   
 56  28  30  1   
 57  28  55  1   
 58  29  56  1   
 59  29  57  1   
 60  29  58  1   
 61  30  59  1   
 62  30  60  1   
 63  30  61  1   
@<TRIPOS>SUBSTRUCTURE
  1 ****  12 GROUP 4 **** **** 0

# MOE 2024.06 (io_trps.svl 2023.06)
