@<TRIPOS>MOLECULE
3-(2-Hydroxy-phenyl)-4,5-dihydro-isoxazole-5-carboxylic acid tert-butylamide
37 38 1 0 0 
SMALL
USER_CHARGES


@<TRIPOS>ATOM
  1 O        0.2560    -1.3190     2.8900 O.2   1 <1>  -0.5700 
  2 C       -0.0920    -1.9770     1.9360 C.2   1 <1>   0.5690 
  3 N        0.4720    -1.8560     0.7020 N.am  1 <1>  -0.7300 
  4 C       -1.2430    -2.9680     2.1170 C.3   1 <1>   0.2610 
  5 C        1.5430    -0.9750     0.2370 C.3   1 <1>   0.3000 
  6 O       -1.1520    -3.9990     1.1510 O.3   1 <1>  -0.2170 
  7 C       -2.5980    -2.3460     1.8130 C.3   1 <1>  -0.0990 
  8 C        1.1200     0.4830     0.4140 C.3   1 <1>  -0.2400 
  9 C        1.7410    -1.2790    -1.2460 C.3   1 <1>  -0.2400 
 10 C        2.8280    -1.2820     1.0050 C.3   1 <1>  -0.2400 
 11 N       -2.0790    -3.9100     0.2230 N.2   1 <1>  -0.5130 
 12 C       -2.9360    -3.0120     0.5030 C.2   1 <1>   0.3030 
 13 C       -4.0780    -2.6450    -0.3190 C.ar  1 <1>   0.0860 
 14 C       -5.1290    -1.7910     0.0700 C.ar  1 <1>   0.0820 
 15 C       -4.1630    -3.1710    -1.6140 C.ar  1 <1>  -0.1500 
 16 O       -5.1790    -1.2350     1.2920 O.3   1 <1>  -0.5320 
 17 C       -6.1740    -1.4870    -0.7890 C.ar  1 <1>  -0.1500 
 18 C       -5.2040    -2.8710    -2.4710 C.ar  1 <1>  -0.1500 
 19 C       -6.2150    -2.0240    -2.0610 C.ar  1 <1>  -0.1500 
 20 H        0.1230    -2.5040    -0.0110 H     1 <1>   0.3700 
 21 H       -1.2090    -3.4130     3.0940 H     1 <1>   0.0800 
 22 H       -2.5320    -1.2780     1.7200 H     1 <1>   0.0800 
 23 H       -3.3090    -2.6120     2.5730 H     1 <1>   0.0800 
 24 H        0.1910     0.6690    -0.0940 H     1 <1>   0.0800 
 25 H        1.8690     1.1370     0.0090 H     1 <1>   0.0800 
 26 H        1.0020     0.7180     1.4560 H     1 <1>   0.0800 
 27 H        2.5200    -0.6570    -1.6490 H     1 <1>   0.0800 
 28 H        0.8370    -1.0840    -1.7950 H     1 <1>   0.0800 
 29 H        2.0250    -2.3060    -1.3870 H     1 <1>   0.0800 
 30 H        3.6380    -0.6900     0.6230 H     1 <1>   0.0800 
 31 H        3.0860    -2.3210     0.9070 H     1 <1>   0.0800 
 32 H        2.7090    -1.0490     2.0480 H     1 <1>   0.0800 
 33 H       -3.3900    -3.8350    -1.9610 H     1 <1>   0.1500 
 34 H       -5.9630    -0.6740     1.4350 H     1 <1>   0.4500 
 35 H       -6.9660    -0.8310    -0.4760 H     1 <1>   0.1500 
 36 H       -5.2270    -3.2970    -3.4600 H     1 <1>   0.1500 
 37 H       -7.0270    -1.7880    -2.7280 H     1 <1>   0.1500 
@<TRIPOS>BOND
  1   1   2  2   
  2   2   3  am  
  3   2   4  1   
  4   3   5  1   
  5   3  20  1   
  6   4   6  1   
  7   4   7  1   
  8   4  21  1   
  9   5   8  1   
 10   5   9  1   
 11   5  10  1   
 12   6  11  1   
 13   7  12  1   
 14   7  22  1   
 15   7  23  1   
 16   8  24  1   
 17   8  25  1   
 18   8  26  1   
 19   9  27  1   
 20   9  28  1   
 21   9  29  1   
 22  10  30  1   
 23  10  31  1   
 24  10  32  1   
 25  11  12  2   
 26  12  13  1   
 27  13  14  ar  
 28  13  15  ar  
 29  14  16  1   
 30  14  17  ar  
 31  15  18  ar  
 32  15  33  1   
 33  16  34  1   
 34  17  19  ar  
 35  17  35  1   
 36  18  19  ar  
 37  18  36  1   
 38  19  37  1   
@<TRIPOS>SUBSTRUCTURE
  1 ****  12 GROUP 4 **** **** 0

# MOE 2024.06 (io_trps.svl 2023.06)
