@<TRIPOS>MOLECULE
(2-Methyl-piperidin-1-yl)-acetic acid
26 26 1 0 0 
SMALL
USER_CHARGES


@<TRIPOS>ATOM
  1 O        1.8110    -0.0910    -0.4180 O.co2 1 <1>  -0.9000 
  2 C        1.2800     0.9580    -0.7760 C.2   1 <1>   0.9060 
  3 O        0.7980     1.1470    -1.9020 O.co2 1 <1>  -0.9000 
  4 C        1.1090     2.0990     0.2290 C.3   1 <1>   0.2370 
  5 N       -0.0590     3.0050    -0.1360 N.4   1 <1>  -0.9590 
  6 C       -0.0270     4.3780     0.4190 C.3   1 <1>   0.4230 
  7 C       -1.3260     2.2620     0.1070 C.3   1 <1>   0.3430 
  8 C       -1.2210     5.1770    -0.1220 C.3   1 <1>  -0.1600 
  9 C        1.2790     5.0740     0.0340 C.3   1 <1>  -0.2400 
 10 C       -2.5150     3.0510    -0.4400 C.3   1 <1>  -0.1600 
 11 C       -2.5590     4.4720     0.1320 C.3   1 <1>  -0.1600 
 12 H        2.0310     2.6470     0.2220 H     1 <1>   0.0800 
 13 H        0.9710     1.6710     1.2050 H     1 <1>   0.0800 
 14 H        0.0220     3.0380    -1.1710 H     1 <1>   0.4500 
 15 H       -0.1000     4.3270     1.4940 H     1 <1>   0.0800 
 16 H       -1.4530     2.0990     1.1640 H     1 <1>   0.0800 
 17 H       -1.2810     1.3010    -0.3840 H     1 <1>   0.0800 
 18 H       -1.0950     5.3330    -1.1800 H     1 <1>   0.0800 
 19 H       -1.2410     6.1450     0.3460 H     1 <1>   0.0800 
 20 H        1.4390     5.0250    -1.0280 H     1 <1>   0.0800 
 21 H        2.1160     4.6380     0.5460 H     1 <1>   0.0800 
 22 H        1.2370     6.1090     0.3220 H     1 <1>   0.0800 
 23 H       -3.4230     2.5320    -0.1910 H     1 <1>   0.0800 
 24 H       -2.4450     3.0850    -1.5130 H     1 <1>   0.0800 
 25 H       -3.3590     5.0270    -0.3310 H     1 <1>   0.0800 
 26 H       -2.7530     4.4320     1.1910 H     1 <1>   0.0800 
@<TRIPOS>BOND
  1   1   2  ar  
  2   2   3  ar  
  3   2   4  1   
  4   4   5  1   
  5   4  12  1   
  6   4  13  1   
  7   5   6  1   
  8   5   7  1   
  9   5  14  1   
 10   6   8  1   
 11   6   9  1   
 12   6  15  1   
 13   7  10  1   
 14   7  16  1   
 15   7  17  1   
 16   8  11  1   
 17   8  18  1   
 18   8  19  1   
 19   9  20  1   
 20   9  21  1   
 21   9  22  1   
 22  10  11  1   
 23  10  23  1   
 24  10  24  1   
 25  11  25  1   
 26  11  26  1   
@<TRIPOS>SUBSTRUCTURE
  1 ****   5 GROUP 4 **** **** 0

# MOE 2024.06 (io_trps.svl 2023.06)
