@<TRIPOS>MOLECULE
1-Indan-2-yl-4-methanesulfonyl-piperazine
40 42 1 0 0 
SMALL
USER_CHARGES


@<TRIPOS>ATOM
  1 S        0.1860     0.8890    -0.6150 S.o2  1 <1>   1.3330 
  2 O       -0.4590     1.1560     0.6480 O.2   1 <1>  -0.6500 
  3 O       -0.0810     1.7250    -1.7600 O.2   1 <1>  -0.6500 
  4 N        1.8580     0.9650    -0.3210 N.am  1 <1>  -0.8490 
  5 C       -0.0750    -0.8090    -1.0820 C.3   1 <1>  -0.1350 
  6 C        2.2080     0.5660     1.0570 C.3   1 <1>   0.1960 
  7 C        2.3880     2.3060    -0.6440 C.3   1 <1>   0.1960 
  8 C        3.7300     0.6260     1.3100 C.3   1 <1>   0.3430 
  9 C        3.9060     2.4140    -0.3960 C.3   1 <1>   0.3430 
 10 N        4.3000     1.9860     1.0050 N.4   1 <1>  -0.9590 
 11 C        5.7860     2.0540     1.2680 C.3   1 <1>   0.4230 
 12 C        6.2780     3.5140     1.1770 C.3   1 <1>  -0.0170 
 13 C        6.6090     1.2950     0.2020 C.3   1 <1>  -0.0170 
 14 C        6.7710     3.6210    -0.2450 C.ar  1 <1>  -0.1430 
 15 C        6.9580     2.3750    -0.7930 C.ar  1 <1>  -0.1430 
 16 C        7.0180     4.7630    -0.9830 C.ar  1 <1>  -0.1500 
 17 C        7.3970     2.2320    -2.0950 C.ar  1 <1>  -0.1500 
 18 C        7.4550     4.6300    -2.2910 C.ar  1 <1>  -0.1500 
 19 C        7.6450     3.3710    -2.8440 C.ar  1 <1>  -0.1500 
 20 H       -1.1100    -0.9680    -1.3130 H     1 <1>   0.0800 
 21 H        0.2020    -1.4680    -0.2840 H     1 <1>   0.0800 
 22 H        0.5080    -1.0460    -1.9510 H     1 <1>   0.0800 
 23 H        1.8650    -0.4390     1.2350 H     1 <1>   0.0800 
 24 H        1.7130     1.2080     1.7680 H     1 <1>   0.0800 
 25 H        1.8710     3.0540    -0.0660 H     1 <1>   0.0800 
 26 H        2.2110     2.5220    -1.6850 H     1 <1>   0.0800 
 27 H        4.2020    -0.1160     0.6870 H     1 <1>   0.0800 
 28 H        3.9250     0.3690     2.3380 H     1 <1>   0.0800 
 29 H        4.2190     3.4300    -0.5740 H     1 <1>   0.0800 
 30 H        4.4070     1.7940    -1.1210 H     1 <1>   0.0800 
 31 H        3.8490     2.6510     1.6460 H     1 <1>   0.4500 
 32 H        5.9940     1.6600     2.2500 H     1 <1>   0.0800 
 33 H        7.1130     3.6610     1.8390 H     1 <1>   0.0800 
 34 H        5.5120     4.2330     1.4030 H     1 <1>   0.0800 
 35 H        6.0790     0.4770    -0.2520 H     1 <1>   0.0800 
 36 H        7.5210     0.9280     0.6380 H     1 <1>   0.0800 
 37 H        6.8790     5.7420    -0.5570 H     1 <1>   0.1500 
 38 H        7.5500     1.2570    -2.5270 H     1 <1>   0.1500 
 39 H        7.6550     5.5080    -2.8820 H     1 <1>   0.1500 
 40 H        7.9900     3.2810    -3.8600 H     1 <1>   0.1500 
@<TRIPOS>BOND
  1   1   2  2   
  2   1   3  2   
  3   1   4  am  
  4   1   5  1   
  5   4   6  1   
  6   4   7  1   
  7   5  20  1   
  8   5  21  1   
  9   5  22  1   
 10   6   8  1   
 11   6  23  1   
 12   6  24  1   
 13   7   9  1   
 14   7  25  1   
 15   7  26  1   
 16   8  10  1   
 17   8  27  1   
 18   8  28  1   
 19   9  10  1   
 20   9  29  1   
 21   9  30  1   
 22  10  11  1   
 23  10  31  1   
 24  11  12  1   
 25  11  13  1   
 26  11  32  1   
 27  12  14  1   
 28  12  33  1   
 29  12  34  1   
 30  13  15  1   
 31  13  35  1   
 32  13  36  1   
 33  14  15  ar  
 34  14  16  ar  
 35  15  17  ar  
 36  16  18  ar  
 37  16  37  1   
 38  17  19  ar  
 39  17  38  1   
 40  18  19  ar  
 41  18  39  1   
 42  19  40  1   
@<TRIPOS>SUBSTRUCTURE
  1 ****   9 GROUP 4 **** **** 0

# MOE 2024.06 (io_trps.svl 2023.06)
