@<TRIPOS>MOLECULE
2-[5-(4-Methoxy-phenyl)-4H-[1,2,4]triazol-3-ylsulfanyl]-1-piperidin-1-yl-ethanon
43 45 1 0 0 
SMALL
USER_CHARGES


@<TRIPOS>ATOM
  1 S       -0.0170     0.1390     2.0650 S.3   1 <1>  -0.2860 
  2 C       -1.2370     0.0030     0.7600 C.2   1 <1>   0.2420 
  3 C        1.3660     1.1320     1.3170 C.3   1 <1>   0.1310 
  4 N       -1.0560     0.3330    -0.4670 N.2   1 <1>  -0.3380 
  5 N       -2.4460    -0.4680     1.0000 N.pl3 1 <1>   0.0330 
  6 C        1.1650     2.6150     1.6150 C.2   1 <1>   0.5690 
  7 N       -2.2120     0.0790    -1.0830 N.2   1 <1>  -0.3380 
  8 C       -3.0450    -0.4070    -0.2000 C.2   1 <1>   0.1330 
  9 O        1.4920     2.9790     2.7220 O.2   1 <1>  -0.5700 
 10 N        0.6550     3.5070     0.6960 N.am  1 <1>  -0.6600 
 11 C       -4.4110    -0.8120    -0.4440 C.ar  1 <1>   0.0530 
 12 C        0.3000     3.1990    -0.7230 C.3   1 <1>   0.1400 
 13 C        0.3310     4.9080     1.0970 C.3   1 <1>   0.1400 
 14 C       -5.1190    -0.2980    -1.5300 C.ar  1 <1>  -0.1500 
 15 C       -5.0770    -1.7210     0.3820 C.ar  1 <1>  -0.1500 
 16 C        0.9980     4.1840    -1.6670 C.3   1 <1>  -0.1600 
 17 C        1.0450     5.8990     0.1720 C.3   1 <1>  -0.1600 
 18 C       -6.4300    -0.6620    -1.7740 C.ar  1 <1>  -0.1500 
 19 C       -6.3890    -2.0890     0.1440 C.ar  1 <1>  -0.1500 
 20 C        0.6970     5.6420    -1.2990 C.3   1 <1>  -0.1600 
 21 C       -7.0780    -1.5570    -0.9410 C.ar  1 <1>   0.0830 
 22 O       -8.3620    -1.8620    -1.2460 O.3   1 <1>  -0.3630 
 23 C       -9.1070    -2.7790    -0.4760 C.3   1 <1>   0.0400 
 24 H        1.4220     0.9010     0.2740 H     1 <1>   0.0800 
 25 H        2.2670     0.7970     1.7960 H     1 <1>   0.0800 
 26 H       -2.8240    -0.7760     1.8940 H     1 <1>   0.2700 
 27 H       -0.7680     3.2720    -0.8400 H     1 <1>   0.0800 
 28 H        0.5940     2.2070    -1.0000 H     1 <1>   0.0800 
 29 H        0.6260     5.0950     2.1150 H     1 <1>   0.0800 
 30 H       -0.7340     5.0500     1.0310 H     1 <1>   0.0800 
 31 H       -4.6330     0.3980    -2.1910 H     1 <1>   0.1500 
 32 H       -4.5670    -2.1570     1.2210 H     1 <1>   0.1500 
 33 H        0.6760     3.9930    -2.6760 H     1 <1>   0.0800 
 34 H        2.0590     4.0110    -1.6250 H     1 <1>   0.0800 
 35 H        2.1070     5.8070     0.3210 H     1 <1>   0.0800 
 36 H        0.7620     6.9010     0.4420 H     1 <1>   0.0800 
 37 H       -6.9610    -0.2540    -2.6160 H     1 <1>   0.1500 
 38 H       -6.8590    -2.7910     0.8070 H     1 <1>   0.1500 
 39 H       -0.3480     5.8430    -1.4610 H     1 <1>   0.0800 
 40 H        1.2670     6.3030    -1.9300 H     1 <1>   0.0800 
 41 H      -10.0860    -2.8620    -0.9130 H     1 <1>   0.0800 
 42 H       -9.1860    -2.4080     0.5300 H     1 <1>   0.0800 
 43 H       -8.6140    -3.7350    -0.5000 H     1 <1>   0.0800 
@<TRIPOS>BOND
  1   1   2  1   
  2   1   3  1   
  3   2   4  2   
  4   2   5  1   
  5   3   6  1   
  6   3  24  1   
  7   3  25  1   
  8   4   7  1   
  9   5   8  1   
 10   5  26  1   
 11   6   9  2   
 12   6  10  am  
 13   7   8  2   
 14   8  11  1   
 15  10  12  1   
 16  10  13  1   
 17  11  14  ar  
 18  11  15  ar  
 19  12  16  1   
 20  12  27  1   
 21  12  28  1   
 22  13  17  1   
 23  13  29  1   
 24  13  30  1   
 25  14  18  ar  
 26  14  31  1   
 27  15  19  ar  
 28  15  32  1   
 29  16  20  1   
 30  16  33  1   
 31  16  34  1   
 32  17  20  1   
 33  17  35  1   
 34  17  36  1   
 35  18  21  ar  
 36  18  37  1   
 37  19  21  ar  
 38  19  38  1   
 39  20  39  1   
 40  20  40  1   
 41  21  22  1   
 42  22  23  1   
 43  23  41  1   
 44  23  42  1   
 45  23  43  1   
@<TRIPOS>SUBSTRUCTURE
  1 ****   7 GROUP 4 **** **** 0

# MOE 2024.06 (io_trps.svl 2023.06)
