@<TRIPOS>MOLECULE
7-Ethyl-8-(2-ethyl-piperidin-1-ylmethyl)-1,3-dimethyl-3,7-dihydro-purine-2,6-dio
52 54 1 0 0 
SMALL
USER_CHARGES


@<TRIPOS>ATOM
  1 O        0.5130     0.6590    -1.9520 O.2   1 <1>  -0.5700 
  2 C        1.4570     1.1350    -1.3540 C.2   1 <1>   0.6900 
  3 N        1.2770     2.2610    -0.5570 N.am  1 <1>  -0.4200 
  4 N        2.7120     0.5600    -1.4740 N.am  1 <1>  -0.4360 
  5 C        2.3490     2.8680     0.0850 C.2   1 <1>   0.7030 
  6 C       -0.0960     2.8440    -0.4300 C.3   1 <1>   0.0600 
  7 C        3.7720     1.1730    -0.8320 C.2   1 <1>   0.4260 
  8 C        2.9250    -0.6640    -2.3020 C.3   1 <1>   0.0600 
  9 O        2.1810     3.8710     0.7580 O.2   1 <1>  -0.5700 
 10 C        3.6530     2.2860    -0.0690 C.2   1 <1>   0.2770 
 11 N        5.0740     0.8060    -0.8390 N.pl3 1 <1>  -0.7000 
 12 N        4.9390     2.5900     0.3990 N.pl3 1 <1>  -0.7640 
 13 C        5.7570     1.6650    -0.0950 C.cat 1 <1>   0.6560 
 14 C        5.2510     3.7490     1.2730 C.3   1 <1>   0.3540 
 15 C        7.2750     1.5260     0.0990 C.3   1 <1>   0.2540 
 16 C        5.4450     4.9850     0.4020 C.3   1 <1>  -0.2400 
 17 N        7.7620     0.1980    -0.3860 N.3   1 <1>  -0.8100 
 18 C        7.9590    -0.8090     0.6960 C.3   1 <1>   0.1900 
 19 C        8.9910     0.3830    -1.1830 C.3   1 <1>   0.1100 
 20 C        8.3900    -2.1510     0.0700 C.3   1 <1>  -0.1600 
 21 C        6.6740    -1.0010     1.5360 C.3   1 <1>  -0.1600 
 22 C        9.3900    -0.9230    -1.8660 C.3   1 <1>  -0.1600 
 23 C        9.6220    -2.0190    -0.8280 C.3   1 <1>  -0.1600 
 24 C        6.8280    -1.9940     2.6980 C.3   1 <1>  -0.2400 
 25 H       -0.8320     2.0590    -0.3980 H     1 <1>   0.0800 
 26 H       -0.2990     3.4760    -1.2770 H     1 <1>   0.0800 
 27 H       -0.1880     3.4250     0.4710 H     1 <1>   0.0800 
 28 H        1.9980    -1.1940    -2.4440 H     1 <1>   0.0800 
 29 H        3.6180    -1.3280    -1.8160 H     1 <1>   0.0800 
 30 H        3.3120    -0.3850    -3.2670 H     1 <1>   0.0800 
 31 H        5.5480     0.0130    -1.2860 H     1 <1>   0.4500 
 32 H        6.1470     3.5570     1.8390 H     1 <1>   0.0800 
 33 H        4.4460     3.9120     1.9710 H     1 <1>   0.0800 
 34 H        7.5370     1.6690     1.1320 H     1 <1>   0.0800 
 35 H        7.7360     2.3200    -0.4630 H     1 <1>   0.0800 
 36 H        6.2490     4.8400    -0.2960 H     1 <1>   0.0800 
 37 H        5.6850     5.8280     1.0260 H     1 <1>   0.0800 
 38 H        4.5410     5.2150    -0.1320 H     1 <1>   0.0800 
 39 H        8.7500    -0.4690     1.3470 H     1 <1>   0.0800 
 40 H        9.7950     0.7210    -0.5490 H     1 <1>   0.0800 
 41 H        8.8260     1.1240    -1.9480 H     1 <1>   0.0800 
 42 H        7.5730    -2.5530    -0.5030 H     1 <1>   0.0800 
 43 H        8.6250    -2.8600     0.8430 H     1 <1>   0.0800 
 44 H        5.8770    -1.3430     0.9000 H     1 <1>   0.0800 
 45 H        6.3790    -0.0700     1.9810 H     1 <1>   0.0800 
 46 H       10.2900    -0.7710    -2.4350 H     1 <1>   0.0800 
 47 H        8.6130    -1.2200    -2.5490 H     1 <1>   0.0800 
 48 H        9.8220    -2.9560    -1.3200 H     1 <1>   0.0800 
 49 H       10.4790    -1.7690    -0.2260 H     1 <1>   0.0800 
 50 H        6.9420    -3.0010     2.3390 H     1 <1>   0.0800 
 51 H        5.9510    -1.9670     3.3210 H     1 <1>   0.0800 
 52 H        7.6810    -1.7410     3.3040 H     1 <1>   0.0800 
@<TRIPOS>BOND
  1   1   2  2   
  2   2   3  am  
  3   2   4  am  
  4   3   5  am  
  5   3   6  1   
  6   4   7  1   
  7   4   8  1   
  8   5   9  2   
  9   5  10  1   
 10   6  25  1   
 11   6  26  1   
 12   6  27  1   
 13   7  10  2   
 14   7  11  1   
 15   8  28  1   
 16   8  29  1   
 17   8  30  1   
 18  10  12  1   
 19  11  13  ar  
 20  11  31  1   
 21  12  13  ar  
 22  12  14  1   
 23  13  15  1   
 24  14  16  1   
 25  14  32  1   
 26  14  33  1   
 27  15  17  1   
 28  15  34  1   
 29  15  35  1   
 30  16  36  1   
 31  16  37  1   
 32  16  38  1   
 33  17  18  1   
 34  17  19  1   
 35  18  20  1   
 36  18  21  1   
 37  18  39  1   
 38  19  22  1   
 39  19  40  1   
 40  19  41  1   
 41  20  23  1   
 42  20  42  1   
 43  20  43  1   
 44  21  24  1   
 45  21  44  1   
 46  21  45  1   
 47  22  23  1   
 48  22  46  1   
 49  22  47  1   
 50  23  48  1   
 51  23  49  1   
 52  24  50  1   
 53  24  51  1   
 54  24  52  1   
@<TRIPOS>SUBSTRUCTURE
  1 ****  11 GROUP 4 **** **** 0

# MOE 2024.06 (io_trps.svl 2023.06)
