@<TRIPOS>MOLECULE
N-[2-Ethoxy-5-(pyrrolidine-1-sulfonyl)-phenyl]-acetamide
41 42 1 0 0 
SMALL
USER_CHARGES


@<TRIPOS>ATOM
  1 S        0.0240    -0.3680     1.4640 S.o2  1 <1>   1.4470 
  2 O       -0.3230     0.6940     2.3840 O.2   1 <1>  -0.6500 
  3 O        1.0390    -1.3250     1.8520 O.2   1 <1>  -0.6500 
  4 N        0.5710     0.3710     0.0420 N.am  1 <1>  -0.8490 
  5 C       -1.4680    -1.2540     0.9330 C.ar  1 <1>  -0.0090 
  6 C       -0.2650     1.4580    -0.4490 C.3   1 <1>   0.1960 
  7 C        1.8980     0.9390     0.1840 C.3   1 <1>   0.1960 
  8 C       -2.6620    -0.5730     0.7400 C.ar  1 <1>  -0.1500 
  9 C       -1.4530    -2.6190     0.6740 C.ar  1 <1>  -0.1500 
 10 C        0.6220     2.2040    -1.4370 C.3   1 <1>  -0.1600 
 11 C        2.0520     1.8630    -1.0170 C.3   1 <1>  -0.1600 
 12 C       -3.8070    -1.2040     0.2760 C.ar  1 <1>   0.1170 
 13 C       -2.5910    -3.2830     0.2450 C.ar  1 <1>  -0.1500 
 14 N       -4.9980    -0.5000     0.0300 N.am  1 <1>  -0.5470 
 15 C       -3.7750    -2.5820     0.0460 C.ar  1 <1>   0.0820 
 16 C       -5.2110     0.8070    -0.2930 C.2   1 <1>   0.5690 
 17 O       -4.9330    -3.1740    -0.3710 O.3   1 <1>  -0.3630 
 18 O       -4.3320     1.6260    -0.4050 O.2   1 <1>  -0.5700 
 19 C       -6.6340     1.2350    -0.5420 C.3   1 <1>  -0.1790 
 20 C       -4.9850    -4.5480    -0.6800 C.3   1 <1>   0.1200 
 21 C       -6.4040    -4.8750    -1.1350 C.3   1 <1>  -0.2400 
 22 H       -0.5370     2.1190     0.3590 H     1 <1>   0.0800 
 23 H       -1.1580     1.0850    -0.9230 H     1 <1>   0.0800 
 24 H        2.6490     0.1650     0.2000 H     1 <1>   0.0800 
 25 H        1.9550     1.5120     1.0970 H     1 <1>   0.0800 
 26 H       -2.6920     0.4790     0.9580 H     1 <1>   0.1500 
 27 H       -0.5370    -3.1690     0.8130 H     1 <1>   0.1500 
 28 H        0.4270     3.2610    -1.4000 H     1 <1>   0.0800 
 29 H        0.4300     1.8460    -2.4340 H     1 <1>   0.0800 
 30 H        2.5590     1.3420    -1.8100 H     1 <1>   0.0800 
 31 H        2.6170     2.7400    -0.7540 H     1 <1>   0.0800 
 32 H       -2.5270    -4.3410     0.0700 H     1 <1>   0.1500 
 33 H       -5.8020    -1.1220    -0.0630 H     1 <1>   0.3700 
 34 H       -7.0220     0.7250    -1.4040 H     1 <1>   0.0800 
 35 H       -6.6690     2.2940    -0.7210 H     1 <1>   0.0800 
 36 H       -7.2390     1.0080     0.3150 H     1 <1>   0.0800 
 37 H       -4.7310    -5.1070     0.2040 H     1 <1>   0.0800 
 38 H       -4.2780    -4.7480    -1.4670 H     1 <1>   0.0800 
 39 H       -7.1050    -4.6610    -0.3490 H     1 <1>   0.0800 
 40 H       -6.4750    -5.9200    -1.3800 H     1 <1>   0.0800 
 41 H       -6.6550    -4.3020    -2.0090 H     1 <1>   0.0800 
@<TRIPOS>BOND
  1   1   2  2   
  2   1   3  2   
  3   1   4  am  
  4   1   5  1   
  5   4   6  1   
  6   4   7  1   
  7   5   8  ar  
  8   5   9  ar  
  9   6  10  1   
 10   6  22  1   
 11   6  23  1   
 12   7  11  1   
 13   7  24  1   
 14   7  25  1   
 15   8  12  ar  
 16   8  26  1   
 17   9  13  ar  
 18   9  27  1   
 19  10  11  1   
 20  10  28  1   
 21  10  29  1   
 22  11  30  1   
 23  11  31  1   
 24  12  14  1   
 25  12  15  ar  
 26  13  15  ar  
 27  13  32  1   
 28  14  16  am  
 29  14  33  1   
 30  15  17  1   
 31  16  18  2   
 32  16  19  1   
 33  17  20  1   
 34  19  34  1   
 35  19  35  1   
 36  19  36  1   
 37  20  21  1   
 38  20  37  1   
 39  20  38  1   
 40  21  39  1   
 41  21  40  1   
 42  21  41  1   
@<TRIPOS>SUBSTRUCTURE
  1 ****   8 GROUP 4 **** **** 0

# MOE 2024.06 (io_trps.svl 2023.06)
