@<TRIPOS>MOLECULE
Naphthalene-2-sulfonic acid [2-(4-ethyl-piperazin-1-yl)-2-oxo-ethyl]-methyl-amid
52 54 1 0 0 
SMALL
USER_CHARGES


@<TRIPOS>ATOM
  1 S        1.3060     0.1140     0.5180 S.o2  1 <1>   1.4470 
  2 O        2.6980     0.2750     0.8770 O.2   1 <1>  -0.6500 
  3 O        0.9970    -0.7200    -0.6260 O.2   1 <1>  -0.6500 
  4 N        0.4950    -0.6040     1.8260 N.am  1 <1>  -0.8490 
  5 C        0.5460     1.7520     0.3480 C.ar  1 <1>  -0.0090 
  6 C        0.9130    -2.0140     2.0590 C.3   1 <1>   0.2570 
  7 C       -0.9670    -0.5580     1.6900 C.3   1 <1>   0.1160 
  8 C       -0.2120     2.0980    -0.7430 C.ar  1 <1>  -0.1500 
  9 C        0.7100     2.7080     1.3660 C.ar  1 <1>  -0.1500 
 10 C        2.3770    -2.2500     2.4870 C.2   1 <1>   0.5690 
 11 C       -0.8240     3.3610    -0.8690 C.ar  1 <1>   0.0000 
 12 C        0.1300     3.9430     1.2780 C.ar  1 <1>  -0.1500 
 13 O        2.6090    -2.2210     3.6730 O.2   1 <1>  -0.5700 
 14 N        3.3930    -2.5230     1.5930 N.am  1 <1>  -0.6600 
 15 C       -0.6520     4.3040     0.1640 C.ar  1 <1>   0.0000 
 16 C       -1.6050     3.7170    -1.9880 C.ar  1 <1>  -0.1500 
 17 C        4.8050    -2.2460     2.0100 C.3   1 <1>   0.1400 
 18 C        3.2210    -2.7700     0.1250 C.3   1 <1>   0.1400 
 19 C       -1.2670     5.5660     0.0420 C.ar  1 <1>  -0.1500 
 20 C       -2.1910     4.9480    -2.0810 C.ar  1 <1>  -0.1500 
 21 C        5.7820    -3.2940     1.4520 C.3   1 <1>   0.3430 
 22 C        4.2330    -3.8050    -0.4020 C.3   1 <1>   0.3430 
 23 C       -2.0210     5.8840    -1.0540 C.ar  1 <1>  -0.1500 
 24 N        5.6500    -3.4470    -0.0380 N.4   1 <1>  -0.9590 
 25 C        6.6400    -4.4270    -0.5560 C.3   1 <1>   0.3430 
 26 C        6.7570    -4.2910    -2.0690 C.3   1 <1>  -0.2400 
 27 H        0.6870    -2.6030     1.1910 H     1 <1>   0.0800 
 28 H        0.3140    -2.4090     2.8600 H     1 <1>   0.0800 
 29 H       -1.3100     0.4610     1.6450 H     1 <1>   0.0800 
 30 H       -1.4340    -1.0190     2.5450 H     1 <1>   0.0800 
 31 H       -1.2840    -1.0730     0.7980 H     1 <1>   0.0800 
 32 H       -0.3550     1.3910    -1.5420 H     1 <1>   0.1500 
 33 H        1.3060     2.4440     2.2250 H     1 <1>   0.1500 
 34 H        0.2650     4.6650     2.0640 H     1 <1>   0.1500 
 35 H       -1.7330     2.9970    -2.7760 H     1 <1>   0.1500 
 36 H        4.8910    -2.2390     3.0830 H     1 <1>   0.0800 
 37 H        5.0830    -1.2660     1.6620 H     1 <1>   0.0800 
 38 H        3.3630    -1.8470    -0.4090 H     1 <1>   0.0800 
 39 H        2.2300    -3.1250    -0.0890 H     1 <1>   0.0800 
 40 H       -1.1320     6.2810     0.8330 H     1 <1>   0.1500 
 41 H       -2.7860     5.2150    -2.9370 H     1 <1>   0.1500 
 42 H        5.5830    -4.2360     1.9360 H     1 <1>   0.0800 
 43 H        6.7880    -2.9990     1.7040 H     1 <1>   0.0800 
 44 H        4.1330    -3.8690    -1.4720 H     1 <1>   0.0800 
 45 H        3.9860    -4.7690     0.0120 H     1 <1>   0.0800 
 46 H       -2.4890     6.8490    -1.1420 H     1 <1>   0.1500 
 47 H        5.8550    -2.5300    -0.4580 H     1 <1>   0.4500 
 48 H        6.3450    -5.4310    -0.2930 H     1 <1>   0.0800 
 49 H        7.6060    -4.2330    -0.1150 H     1 <1>   0.0800 
 50 H        5.8440    -4.5710    -2.5630 H     1 <1>   0.0800 
 51 H        7.5310    -4.9500    -2.4210 H     1 <1>   0.0800 
 52 H        7.0280    -3.2880    -2.3450 H     1 <1>   0.0800 
@<TRIPOS>BOND
  1   1   2  2   
  2   1   3  2   
  3   1   4  am  
  4   1   5  1   
  5   4   6  1   
  6   4   7  1   
  7   5   8  ar  
  8   5   9  ar  
  9   6  10  1   
 10   6  27  1   
 11   6  28  1   
 12   7  29  1   
 13   7  30  1   
 14   7  31  1   
 15   8  11  ar  
 16   8  32  1   
 17   9  12  ar  
 18   9  33  1   
 19  10  13  2   
 20  10  14  am  
 21  11  15  ar  
 22  11  16  ar  
 23  12  15  ar  
 24  12  34  1   
 25  14  17  1   
 26  14  18  1   
 27  15  19  ar  
 28  16  20  ar  
 29  16  35  1   
 30  17  21  1   
 31  17  36  1   
 32  17  37  1   
 33  18  22  1   
 34  18  38  1   
 35  18  39  1   
 36  19  23  ar  
 37  19  40  1   
 38  20  23  ar  
 39  20  41  1   
 40  21  24  1   
 41  21  42  1   
 42  21  43  1   
 43  22  24  1   
 44  22  44  1   
 45  22  45  1   
 46  23  46  1   
 47  24  25  1   
 48  24  47  1   
 49  25  26  1   
 50  25  48  1   
 51  25  49  1   
 52  26  50  1   
 53  26  51  1   
 54  26  52  1   
@<TRIPOS>SUBSTRUCTURE
  1 ****   1 GROUP 4 **** **** 0

# MOE 2024.06 (io_trps.svl 2023.06)
