@<TRIPOS>MOLECULE
7-Benzyl-8-(3-methoxy-propylamino)-3-methyl-3,7-dihydro-purine-2,6-dione
47 49 1 0 0 
SMALL
USER_CHARGES


@<TRIPOS>ATOM
  1 O        1.3030    -0.5310     1.0150 O.2   1 <1>  -0.5750 
  2 C        2.1420     0.3310     0.8940 C.2   1 <1>   0.6860 
  3 N        3.4070     0.0690     0.3870 N.am  1 <1>  -0.4420 
  4 N        1.8230     1.6040     1.2710 N.am  1 <1>  -0.4960 
  5 C        4.2910     1.1330     0.2840 C.2   1 <1>   0.4200 
  6 C        3.8090    -1.3080    -0.0210 C.3   1 <1>   0.0510 
  7 C        2.6850     2.6590     1.1820 C.2   1 <1>   0.6990 
  8 N        5.5670     1.1180    -0.1810 N.pl3 1 <1>  -0.7040 
  9 C        3.9910     2.3970     0.6560 C.2   1 <1>   0.2700 
 10 O        2.3230     3.7610     1.5440 O.2   1 <1>  -0.5750 
 11 C        6.0610     2.3500    -0.0940 C.cat 1 <1>   1.0690 
 12 N        5.1360     3.1760     0.4110 N.pl3 1 <1>  -0.7680 
 13 N        7.3030     2.6580    -0.4570 N.pl3 1 <1>  -0.7180 
 14 C        5.1590     4.6350     0.7320 C.3   1 <1>   0.4920 
 15 C        8.3690     1.7740    -0.9720 C.3   1 <1>   0.1600 
 16 C        6.5390     5.2130     0.4780 C.ar  1 <1>  -0.1520 
 17 C        8.9310     0.9480     0.1810 C.3   1 <1>  -0.1680 
 18 C        7.5160     5.1410     1.4610 C.ar  1 <1>  -0.1580 
 19 C        6.8500     5.7620    -0.7580 C.ar  1 <1>  -0.1580 
 20 C       10.0100    -0.0170    -0.3020 C.3   1 <1>   0.1120 
 21 C        8.7970     5.5910     1.2010 C.ar  1 <1>  -0.1580 
 22 C        8.1320     6.2120    -1.0150 C.ar  1 <1>  -0.1580 
 23 O       10.2370    -0.9050     0.7340 O.3   1 <1>  -0.5650 
 24 C        9.1060     6.1230    -0.0380 C.ar  1 <1>  -0.1580 
 25 C       11.2610    -1.8140     0.4860 C.3   1 <1>   0.0310 
 26 H        0.8870     1.7620     1.6400 H     1 <1>   0.3640 
 27 H        3.0180    -2.0130     0.1720 H     1 <1>   0.0720 
 28 H        4.6780    -1.6170     0.5330 H     1 <1>   0.0720 
 29 H        4.0290    -1.3280    -1.0740 H     1 <1>   0.0720 
 30 H        6.1000     0.3150    -0.5010 H     1 <1>   0.4440 
 31 H        7.5990     3.6320    -0.2900 H     1 <1>   0.4440 
 32 H        4.8930     4.7810     1.7660 H     1 <1>   0.0720 
 33 H        4.4300     5.1490     0.1280 H     1 <1>   0.0720 
 34 H        9.1500     2.3760    -1.4100 H     1 <1>   0.0720 
 35 H        7.9720     1.1280    -1.7380 H     1 <1>   0.0720 
 36 H        8.1470     0.3710     0.6360 H     1 <1>   0.0720 
 37 H        9.3630     1.5990     0.9210 H     1 <1>   0.0720 
 38 H        7.2950     4.7310     2.4340 H     1 <1>   0.1420 
 39 H        6.1040     5.8420    -1.5330 H     1 <1>   0.1420 
 40 H       10.9250     0.5050    -0.5290 H     1 <1>   0.0720 
 41 H        9.6810    -0.5790    -1.1600 H     1 <1>   0.0720 
 42 H        9.5560     5.5340     1.9640 H     1 <1>   0.1420 
 43 H        8.3740     6.6390    -1.9740 H     1 <1>   0.1420 
 44 H       10.1040     6.4770    -0.2370 H     1 <1>   0.1420 
 45 H       11.3500    -2.4580     1.3430 H     1 <1>   0.0720 
 46 H       12.1830    -1.2780     0.3390 H     1 <1>   0.0720 
 47 H       11.0170    -2.3980    -0.3840 H     1 <1>   0.0720 
@<TRIPOS>BOND
  1   1   2  2   
  2   2   3  am  
  3   2   4  am  
  4   3   5  1   
  5   3   6  1   
  6   4   7  am  
  7   4  26  1   
  8   5   8  1   
  9   5   9  2   
 10   6  27  1   
 11   6  28  1   
 12   6  29  1   
 13   7   9  1   
 14   7  10  2   
 15   8  11  ar  
 16   8  30  1   
 17   9  12  1   
 18  11  12  ar  
 19  11  13  ar  
 20  12  14  1   
 21  13  15  1   
 22  13  31  1   
 23  14  16  1   
 24  14  32  1   
 25  14  33  1   
 26  15  17  1   
 27  15  34  1   
 28  15  35  1   
 29  16  18  ar  
 30  16  19  ar  
 31  17  20  1   
 32  17  36  1   
 33  17  37  1   
 34  18  21  ar  
 35  18  38  1   
 36  19  22  ar  
 37  19  39  1   
 38  20  23  1   
 39  20  40  1   
 40  20  41  1   
 41  21  24  ar  
 42  21  42  1   
 43  22  24  ar  
 44  22  43  1   
 45  23  25  1   
 46  24  44  1   
 47  25  45  1   
 48  25  46  1   
 49  25  47  1   
@<TRIPOS>SUBSTRUCTURE
  1 ****  11 GROUP 4 **** **** 0

# MOE 2024.06 (io_trps.svl 2023.06)
