@<TRIPOS>MOLECULE
C-(1-Isopropyl-piperidin-3-yl)-methylamine
33 33 1 0 0 
SMALL
USER_CHARGES


@<TRIPOS>ATOM
  1 N       -0.0520    -0.0350    -0.0960 N.4   1 <1>  -0.9590 
  2 C       -0.1050    -1.4990     0.2060 C.3   1 <1>   0.4230 
  3 C        1.3290     0.5510     0.0410 C.3   1 <1>   0.3430 
  4 C       -1.0530     0.7500     0.6920 C.3   1 <1>   0.3430 
  5 C        0.9440    -2.2430    -0.6230 C.3   1 <1>  -0.2400 
  6 C       -1.4880    -2.0530    -0.1400 C.3   1 <1>  -0.2400 
  7 C        1.3500     2.1010     0.0870 C.3   1 <1>  -0.0800 
  8 C       -1.1850     2.1570     0.0950 C.3   1 <1>  -0.1600 
  9 C        0.0930     2.6800    -0.5870 C.3   1 <1>  -0.1600 
 10 C        2.6110     2.7060    -0.5680 C.3   1 <1>   0.3430 
 11 N        3.8080     2.6660     0.3220 N.4   1 <1>  -0.8530 
 12 H       -0.3450     0.0510    -1.0780 H     1 <1>   0.4500 
 13 H        0.0900    -1.6680     1.2550 H     1 <1>   0.0800 
 14 H        1.9210     0.2140    -0.7950 H     1 <1>   0.0800 
 15 H        1.7880     0.1700     0.9400 H     1 <1>   0.0800 
 16 H       -0.7290     0.8170     1.7180 H     1 <1>   0.0800 
 17 H       -2.0210     0.2770     0.6790 H     1 <1>   0.0800 
 18 H        0.8250    -2.0430    -1.6730 H     1 <1>   0.0800 
 19 H        0.8290    -3.3040    -0.4790 H     1 <1>   0.0800 
 20 H        1.9440    -2.0020    -0.3140 H     1 <1>   0.0800 
 21 H       -1.7610    -1.8190    -1.1540 H     1 <1>   0.0800 
 22 H       -2.2430    -1.6920     0.5330 H     1 <1>   0.0800 
 23 H       -1.4830    -3.1250    -0.0410 H     1 <1>   0.0800 
 24 H        1.3240     2.4130     1.1180 H     1 <1>   0.0800 
 25 H       -1.4700     2.8240     0.8910 H     1 <1>   0.0800 
 26 H       -1.9950     2.1660    -0.6140 H     1 <1>   0.0800 
 27 H        0.0760     2.3990    -1.6280 H     1 <1>   0.0800 
 28 H        0.0940     3.7580    -0.5460 H     1 <1>   0.0800 
 29 H        2.4030     3.7390    -0.8080 H     1 <1>   0.0800 
 30 H        2.8200     2.2000    -1.4980 H     1 <1>   0.0800 
 31 H        3.6440     3.1670     1.2060 H     1 <1>   0.4500 
 32 H        4.5970     3.1510    -0.1310 H     1 <1>   0.4500 
 33 H        4.1400     1.7200     0.5420 H     1 <1>   0.4500 
@<TRIPOS>BOND
  1   1   2  1   
  2   1   3  1   
  3   1   4  1   
  4   1  12  1   
  5   2   5  1   
  6   2   6  1   
  7   2  13  1   
  8   3   7  1   
  9   3  14  1   
 10   3  15  1   
 11   4   8  1   
 12   4  16  1   
 13   4  17  1   
 14   5  18  1   
 15   5  19  1   
 16   5  20  1   
 17   6  21  1   
 18   6  22  1   
 19   6  23  1   
 20   7   9  1   
 21   7  10  1   
 22   7  24  1   
 23   8   9  1   
 24   8  25  1   
 25   8  26  1   
 26   9  27  1   
 27   9  28  1   
 28  10  11  1   
 29  10  29  1   
 30  10  30  1   
 31  11  31  1   
 32  11  32  1   
 33  11  33  1   
@<TRIPOS>SUBSTRUCTURE
  1 ****   3 GROUP 4 **** **** 0

# MOE 2024.06 (io_trps.svl 2023.06)
