@<TRIPOS>MOLECULE
[(Furan-2-carbonyl)-amino]-acetic acid 2-oxo-2-(5,6,7,8-tetrahydro-naphthalen-2-
44 46 1 0 0 
SMALL
USER_CHARGES


@<TRIPOS>ATOM
  1 O        0.3960    -2.0800     1.5530 O.2   1 <1>  -0.5700 
  2 C        0.0010    -1.9470     0.4100 C.2   1 <1>   0.7150 
  3 N        0.4970    -2.7860    -0.5420 N.am  1 <1>  -0.7300 
  4 C       -0.9490    -0.9210     0.0500 C.2   1 <1>   0.0550 
  5 C        1.4010    -3.9580    -0.3040 C.3   1 <1>   0.2010 
  6 O       -1.3450    -0.7700    -1.2120 O.3   1 <1>  -0.2800 
  7 C       -1.5810     0.0130     0.8140 C.2   1 <1>  -0.1500 
  8 C        2.8290    -3.7560    -0.8240 C.2   1 <1>   0.6590 
  9 C       -2.2050     0.2230    -1.2700 C.2   1 <1>  -0.0100 
 10 C       -2.3960     0.7540    -0.0430 C.2   1 <1>  -0.1500 
 11 O        3.1390    -4.1860    -1.9020 O.2   1 <1>  -0.5700 
 12 O        3.7310    -3.1080    -0.0920 O.3   1 <1>  -0.4300 
 13 C        3.4600    -2.3760     1.0920 C.3   1 <1>   0.1810 
 14 C        4.7520    -1.8620     1.7140 C.2   1 <1>   0.4230 
 15 O        5.1080    -2.3870     2.7400 O.2   1 <1>  -0.5700 
 16 C        5.4720    -0.7650     1.0950 C.ar  1 <1>   0.0860 
 17 C        5.1920    -0.2860    -0.1890 C.ar  1 <1>  -0.1500 
 18 C        6.5000    -0.1260     1.7880 C.ar  1 <1>  -0.1500 
 19 C        5.8850     0.7730    -0.7510 C.ar  1 <1>  -0.1430 
 20 C        7.1990     0.9320     1.2410 C.ar  1 <1>  -0.1500 
 21 C        6.8980     1.3920    -0.0300 C.ar  1 <1>  -0.1430 
 22 C        5.5000     1.2360    -2.1530 C.3   1 <1>  -0.0170 
 23 C        7.7080     2.5510    -0.6000 C.3   1 <1>  -0.0170 
 24 C        6.5710     2.1210    -2.8020 C.3   1 <1>  -0.1600 
 25 C        7.0390     3.1980    -1.8190 C.3   1 <1>  -0.1600 
 26 H        0.1890    -2.6310    -1.5070 H     1 <1>   0.3700 
 27 H        0.9860    -4.8110    -0.8110 H     1 <1>   0.0800 
 28 H        1.4300    -4.2000     0.7430 H     1 <1>   0.0800 
 29 H       -1.4830     0.1630     1.8760 H     1 <1>   0.1500 
 30 H       -2.6370     0.4900    -2.2190 H     1 <1>   0.1500 
 31 H       -3.0340     1.5720     0.2430 H     1 <1>   0.1500 
 32 H        2.9640    -3.0200     1.7960 H     1 <1>   0.0800 
 33 H        2.8190    -1.5490     0.8480 H     1 <1>   0.0800 
 34 H        4.4210    -0.7480    -0.7760 H     1 <1>   0.1500 
 35 H        6.7540    -0.4670     2.7770 H     1 <1>   0.1500 
 36 H        7.9850     1.3960     1.8090 H     1 <1>   0.1500 
 37 H        4.5820     1.7920    -2.0820 H     1 <1>   0.0800 
 38 H        5.3220     0.3820    -2.7830 H     1 <1>   0.0800 
 39 H        8.6730     2.1750    -0.8890 H     1 <1>   0.0800 
 40 H        7.8580     3.3000     0.1580 H     1 <1>   0.0800 
 41 H        6.1690     2.5800    -3.6880 H     1 <1>   0.0800 
 42 H        7.4100     1.5110    -3.0910 H     1 <1>   0.0800 
 43 H        7.7360     3.8600    -2.3020 H     1 <1>   0.0800 
 44 H        6.1930     3.7790    -1.4950 H     1 <1>   0.0800 
@<TRIPOS>BOND
  1   1   2  2   
  2   2   3  am  
  3   2   4  1   
  4   3   5  1   
  5   3  26  1   
  6   4   6  1   
  7   4   7  2   
  8   5   8  1   
  9   5  27  1   
 10   5  28  1   
 11   6   9  1   
 12   7  10  1   
 13   7  29  1   
 14   8  11  2   
 15   8  12  1   
 16   9  10  2   
 17   9  30  1   
 18  10  31  1   
 19  12  13  1   
 20  13  14  1   
 21  13  32  1   
 22  13  33  1   
 23  14  15  2   
 24  14  16  1   
 25  16  17  ar  
 26  16  18  ar  
 27  17  19  ar  
 28  17  34  1   
 29  18  20  ar  
 30  18  35  1   
 31  19  21  ar  
 32  19  22  1   
 33  20  21  ar  
 34  20  36  1   
 35  21  23  1   
 36  22  24  1   
 37  22  37  1   
 38  22  38  1   
 39  23  25  1   
 40  23  39  1   
 41  23  40  1   
 42  24  25  1   
 43  24  41  1   
 44  24  42  1   
 45  25  43  1   
 46  25  44  1   
@<TRIPOS>SUBSTRUCTURE
  1 ****  17 GROUP 4 **** **** 0

# MOE 2024.06 (io_trps.svl 2023.06)
