@<TRIPOS>MOLECULE
[2-(4-Ethoxy-benzylamino)-5-methyl-7-oxo-4,7-dihydro-[1,2,4]triazolo[1,5-a]pyrim
48 50 1 0 0 
SMALL
USER_CHARGES


@<TRIPOS>ATOM
  1 O       -0.6610    -1.1150     1.6560 O.2   1 <1>  -0.5700 
  2 C       -0.1440    -2.0100     0.9970 C.2   1 <1>   0.5650 
  3 N       -0.8160    -3.2280     0.7530 N.pl3 1 <1>   0.5610 
  4 C        1.1810    -1.8640     0.4530 C.2   1 <1>  -0.1240 
  5 N       -2.0390    -3.6970     1.1150 N.2   1 <1>  -0.7070 
  6 C       -0.2100    -4.2120     0.0480 C.2   1 <1>   0.2700 
  7 C        1.7520    -2.8690    -0.2780 C.2   1 <1>  -0.0380 
  8 C        1.8750    -0.5230     0.7340 C.3   1 <1>   0.0390 
  9 C       -2.0290    -4.8750     0.6130 C.2   1 <1>   0.5990 
 10 N       -0.9410    -5.2570    -0.0680 N.2   1 <1>  -0.5650 
 11 N        1.0640    -4.0450    -0.4620 N.pl3 1 <1>  -0.5840 
 12 C        3.1130    -2.8370    -0.9560 C.3   1 <1>  -0.1020 
 13 C        1.3790     0.5810    -0.1820 C.2   1 <1>   0.6590 
 14 N       -3.1000    -5.7000     0.7760 N.pl3 1 <1>  -0.8520 
 15 O        0.9090     0.3490    -1.2670 O.2   1 <1>  -0.5700 
 16 O        1.5210     1.8180     0.2760 O.3   1 <1>  -0.4300 
 17 C       -3.5810    -6.3640    -0.4460 C.3   1 <1>   0.3530 
 18 C        1.0860     2.9380    -0.4670 C.3   1 <1>   0.0400 
 19 C       -5.0990    -6.4100    -0.3970 C.ar  1 <1>  -0.1430 
 20 C       -5.8570    -5.5500    -1.1790 C.ar  1 <1>  -0.1500 
 21 C       -5.7420    -7.3150     0.4340 C.ar  1 <1>  -0.1500 
 22 C       -7.2390    -5.6020    -1.1330 C.ar  1 <1>  -0.1500 
 23 C       -7.1250    -7.3690     0.4820 C.ar  1 <1>  -0.1500 
 24 C       -7.8830    -6.5090    -0.3070 C.ar  1 <1>   0.0830 
 25 O       -9.2400    -6.4940    -0.3240 O.3   1 <1>  -0.3630 
 26 C       -9.9920    -7.3600     0.4930 C.3   1 <1>   0.1200 
 27 C      -11.4710    -7.0790     0.2440 C.3   1 <1>  -0.2400 
 28 H        2.9380    -0.5960     0.6280 H     1 <1>   0.0800 
 29 H        1.6930    -0.2260     1.7510 H     1 <1>   0.0800 
 30 H        1.4480    -4.8330    -0.9960 H     1 <1>   0.4000 
 31 H        3.8180    -3.4220    -0.3920 H     1 <1>   0.0800 
 32 H        3.4940    -1.8390    -1.0620 H     1 <1>   0.0800 
 33 H        3.0370    -3.2510    -1.9460 H     1 <1>   0.0800 
 34 H       -3.8550    -5.1330     1.1670 H     1 <1>   0.4000 
 35 H       -3.1800    -7.3620    -0.4870 H     1 <1>   0.0800 
 36 H       -3.2550    -5.8300    -1.3220 H     1 <1>   0.0800 
 37 H        1.2960     3.8270     0.1000 H     1 <1>   0.0800 
 38 H        0.0270     2.8490    -0.6400 H     1 <1>   0.0800 
 39 H        1.6140     2.9610    -1.4050 H     1 <1>   0.0800 
 40 H       -5.3770    -4.8350    -1.8240 H     1 <1>   0.1500 
 41 H       -5.1610    -7.9790     1.0520 H     1 <1>   0.1500 
 42 H       -7.8290    -4.9380    -1.7380 H     1 <1>   0.1500 
 43 H       -7.5890    -8.0820     1.1370 H     1 <1>   0.1500 
 44 H       -9.7350    -7.1660     1.5210 H     1 <1>   0.0800 
 45 H       -9.7470    -8.3750     0.2310 H     1 <1>   0.0800 
 46 H      -11.6990    -6.0580     0.4930 H     1 <1>   0.0800 
 47 H      -12.0730    -7.7260     0.8550 H     1 <1>   0.0800 
 48 H      -11.7110    -7.2590    -0.7890 H     1 <1>   0.0800 
@<TRIPOS>BOND
  1   1   2  2   
  2   2   3  1   
  3   2   4  1   
  4   3   5  1   
  5   3   6  1   
  6   4   7  2   
  7   4   8  1   
  8   5   9  2   
  9   6  10  2   
 10   6  11  1   
 11   7  11  1   
 12   7  12  1   
 13   8  13  1   
 14   8  28  1   
 15   8  29  1   
 16   9  10  1   
 17   9  14  1   
 18  11  30  1   
 19  12  31  1   
 20  12  32  1   
 21  12  33  1   
 22  13  15  2   
 23  13  16  1   
 24  14  17  1   
 25  14  34  1   
 26  16  18  1   
 27  17  19  1   
 28  17  35  1   
 29  17  36  1   
 30  18  37  1   
 31  18  38  1   
 32  18  39  1   
 33  19  20  ar  
 34  19  21  ar  
 35  20  22  ar  
 36  20  40  1   
 37  21  23  ar  
 38  21  41  1   
 39  22  24  ar  
 40  22  42  1   
 41  23  24  ar  
 42  23  43  1   
 43  24  25  1   
 44  25  26  1   
 45  26  27  1   
 46  26  44  1   
 47  26  45  1   
 48  27  46  1   
 49  27  47  1   
 50  27  48  1   
@<TRIPOS>SUBSTRUCTURE
  1 ****   5 GROUP 4 **** **** 0

# MOE 2024.06 (io_trps.svl 2023.06)
