@<TRIPOS>MOLECULE
1-(3,4-Dimethoxy-benzenesulfonyl)-piperidine-3-carboxylic acid allylamide
49 50 1 0 0 
SMALL
USER_CHARGES


@<TRIPOS>ATOM
  1 S        0.2790    -0.6060     2.1900 S.o2  1 <1>   1.4470 
  2 O       -0.4310    -1.4640     3.1130 O.2   1 <1>  -0.6500 
  3 O        1.4730     0.0820     2.6350 O.2   1 <1>  -0.6500 
  4 N        0.7410    -1.5770     0.8780 N.am  1 <1>  -0.8490 
  5 C       -0.8910     0.5610     1.4450 C.ar  1 <1>  -0.0090 
  6 C        1.6150    -0.8780    -0.0920 C.3   1 <1>   0.1960 
  7 C        1.2360    -2.8890     1.3300 C.3   1 <1>   0.1960 
  8 C       -1.9810     0.1000     0.7170 C.ar  1 <1>  -0.1500 
  9 C       -0.7310     1.9320     1.5810 C.ar  1 <1>  -0.1500 
 10 C        3.0930    -1.2430     0.0980 C.3   1 <1>  -0.0190 
 11 C        2.0670    -3.5830     0.2450 C.3   1 <1>  -0.1600 
 12 C       -2.8980     0.9670     0.1250 C.ar  1 <1>   0.0820 
 13 C       -1.6320     2.8110     1.0080 C.ar  1 <1>  -0.1500 
 14 C        3.9660    -0.3960    -0.8140 C.2   1 <1>   0.5690 
 15 C        3.3090    -2.7550    -0.1370 C.3   1 <1>  -0.1600 
 16 O       -3.9440     0.4860    -0.6080 O.3   1 <1>  -0.3630 
 17 C       -2.7200     2.3530     0.2860 C.ar  1 <1>   0.0820 
 18 O        3.6660    -0.2730    -1.9770 O.2   1 <1>  -0.5700 
 19 N        5.0640     0.2010    -0.2930 N.am  1 <1>  -0.7300 
 20 C       -4.0970    -0.8870    -0.9000 C.3   1 <1>   0.0400 
 21 O       -3.5210     3.3410    -0.2060 O.3   1 <1>  -0.3630 
 22 C        6.0160     1.0160    -1.0550 C.3   1 <1>   0.2780 
 23 C       -4.8470     3.1140    -0.6290 C.3   1 <1>   0.0400 
 24 C        7.3840     0.7690    -0.4590 C.2   1 <1>  -0.2880 
 25 C        8.1220     1.6770     0.1880 C.2   1 <1>  -0.3000 
 26 H        1.4870     0.1900    -0.0190 H     1 <1>   0.0800 
 27 H        1.3170    -1.1640    -1.0870 H     1 <1>   0.0800 
 28 H        0.3960    -3.5070     1.6030 H     1 <1>   0.0800 
 29 H        1.8500    -2.7640     2.2080 H     1 <1>   0.0800 
 30 H       -2.0870    -0.9640     0.6270 H     1 <1>   0.1500 
 31 H        0.1040     2.3190     2.1400 H     1 <1>   0.1500 
 32 H        3.3560    -1.0060     1.1130 H     1 <1>   0.0800 
 33 H        1.4420    -3.7260    -0.6200 H     1 <1>   0.0800 
 34 H        2.3720    -4.5560     0.5880 H     1 <1>   0.0800 
 35 H       -1.4960     3.8720     1.1230 H     1 <1>   0.1500 
 36 H        4.1580    -3.0760     0.4430 H     1 <1>   0.0800 
 37 H        3.5350    -2.9390    -1.1740 H     1 <1>   0.0800 
 38 H        5.2950     0.1070     0.6970 H     1 <1>   0.3700 
 39 H       -4.9580    -0.9990    -1.5340 H     1 <1>   0.0800 
 40 H       -4.2490    -1.4260     0.0180 H     1 <1>   0.0800 
 41 H       -3.2190    -1.2360    -1.4150 H     1 <1>   0.0800 
 42 H        5.7470     2.0540    -0.9690 H     1 <1>   0.0800 
 43 H        6.0020     0.7380    -2.0970 H     1 <1>   0.0800 
 44 H       -5.3260     4.0670    -0.7550 H     1 <1>   0.0800 
 45 H       -5.3600     2.5400     0.1220 H     1 <1>   0.0800 
 46 H       -4.8270     2.5890    -1.5670 H     1 <1>   0.0800 
 47 H        7.7150    -0.2440    -0.6120 H     1 <1>   0.1500 
 48 H        9.0950     1.4720     0.6030 H     1 <1>   0.1500 
 49 H        7.8230     2.6970     0.3590 H     1 <1>   0.1500 
@<TRIPOS>BOND
  1   1   2  2   
  2   1   3  2   
  3   1   4  am  
  4   1   5  1   
  5   4   6  1   
  6   4   7  1   
  7   5   8  ar  
  8   5   9  ar  
  9   6  10  1   
 10   6  26  1   
 11   6  27  1   
 12   7  11  1   
 13   7  28  1   
 14   7  29  1   
 15   8  12  ar  
 16   8  30  1   
 17   9  13  ar  
 18   9  31  1   
 19  10  14  1   
 20  10  15  1   
 21  10  32  1   
 22  11  15  1   
 23  11  33  1   
 24  11  34  1   
 25  12  16  1   
 26  12  17  ar  
 27  13  17  ar  
 28  13  35  1   
 29  14  18  2   
 30  14  19  am  
 31  15  36  1   
 32  15  37  1   
 33  16  20  1   
 34  17  21  1   
 35  19  22  1   
 36  19  38  1   
 37  20  39  1   
 38  20  40  1   
 39  20  41  1   
 40  21  23  1   
 41  22  24  1   
 42  22  42  1   
 43  22  43  1   
 44  23  44  1   
 45  23  45  1   
 46  23  46  1   
 47  24  25  2   
 48  24  47  1   
 49  25  48  1   
 50  25  49  1   
@<TRIPOS>SUBSTRUCTURE
  1 ****   6 GROUP 4 **** **** 0

# MOE 2024.06 (io_trps.svl 2023.06)
