@<TRIPOS>MOLECULE
1-(4-Methoxy-3-methyl-benzenesulfonyl)-piperidine-4-carboxylic acid (3-acetyl-ph
56 58 1 0 0 
SMALL
USER_CHARGES


@<TRIPOS>ATOM
  1 S        0.0350    -0.7910     2.1770 S.o2  1 <1>   1.4470 
  2 O        0.3440    -2.0960     2.7190 O.2   1 <1>  -0.6500 
  3 O       -0.2250     0.3080     3.0840 O.2   1 <1>  -0.6500 
  4 N        1.3610    -0.3180     1.2300 N.am  1 <1>  -0.8490 
  5 C       -1.3040    -0.9460     0.9630 C.ar  1 <1>  -0.0090 
  6 C        2.6190    -0.4860     1.9610 C.3   1 <1>   0.1960 
  7 C        1.2080     1.0480     0.7180 C.3   1 <1>   0.1960 
  8 C       -2.5110    -0.2780     1.1280 C.ar  1 <1>  -0.1500 
  9 C       -1.1500    -1.7370    -0.1690 C.ar  1 <1>  -0.1500 
 10 C        3.8110    -0.1910     1.0450 C.3   1 <1>  -0.1600 
 11 C        2.3470     1.3800    -0.2470 C.3   1 <1>  -0.1600 
 12 C       -3.5350    -0.3820     0.2000 C.ar  1 <1>  -0.1430 
 13 C       -2.1590    -1.8540    -1.1070 C.ar  1 <1>  -0.1500 
 14 C        3.7180     1.2170     0.4340 C.3   1 <1>  -0.0190 
 15 C       -3.3610    -1.1750    -0.9300 C.ar  1 <1>   0.0820 
 16 C       -4.8390     0.3700     0.4240 C.3   1 <1>  -0.0970 
 17 C        4.8860     1.4830    -0.5160 C.2   1 <1>   0.5690 
 18 O       -4.3870    -1.2480    -1.8170 O.3   1 <1>  -0.3630 
 19 O        4.8210     1.0910    -1.6550 O.2   1 <1>  -0.5700 
 20 N        5.9700     2.1460    -0.0060 N.am  1 <1>  -0.5470 
 21 C       -4.3110    -2.0410    -2.9800 C.3   1 <1>   0.0400 
 22 C        7.1820     2.5340    -0.5970 C.ar  1 <1>   0.1170 
 23 C        8.2570     2.8210     0.2310 C.ar  1 <1>  -0.1500 
 24 C        7.3580     2.6600    -1.9700 C.ar  1 <1>  -0.1500 
 25 C        9.5020     3.2220    -0.2540 C.ar  1 <1>   0.0860 
 26 C        8.5770     3.0550    -2.4870 C.ar  1 <1>  -0.1500 
 27 C       10.5820     3.5040     0.6730 C.2   1 <1>   0.4230 
 28 C        9.6340     3.3320    -1.6410 C.ar  1 <1>  -0.1500 
 29 O       10.4520     3.4410     1.8680 O.2   1 <1>  -0.5700 
 30 C       11.9540     3.9000     0.1600 C.3   1 <1>  -0.1790 
 31 H        2.7030    -1.5010     2.3130 H     1 <1>   0.0800 
 32 H        2.6340     0.1680     2.8180 H     1 <1>   0.0800 
 33 H        1.2030     1.7510     1.5360 H     1 <1>   0.0800 
 34 H        0.2720     1.1380     0.1930 H     1 <1>   0.0800 
 35 H       -2.6470     0.3350     2.0040 H     1 <1>   0.1500 
 36 H       -0.2220    -2.2650    -0.3140 H     1 <1>   0.1500 
 37 H        3.8310    -0.9260     0.2580 H     1 <1>   0.0800 
 38 H        4.7220    -0.2890     1.6070 H     1 <1>   0.0800 
 39 H        2.2350     2.3900    -0.6000 H     1 <1>   0.0800 
 40 H        2.2770     0.7260    -1.1000 H     1 <1>   0.0800 
 41 H       -1.9900    -2.4770    -1.9650 H     1 <1>   0.1500 
 42 H        3.7690     1.9340     1.2340 H     1 <1>   0.0800 
 43 H       -4.8140     0.9340     1.3390 H     1 <1>   0.0800 
 44 H       -5.6560    -0.3270     0.4730 H     1 <1>   0.0800 
 45 H       -5.0140     1.0470    -0.3930 H     1 <1>   0.0800 
 46 H        5.9150     2.3480     0.9900 H     1 <1>   0.3700 
 47 H       -5.2390    -1.9410    -3.5130 H     1 <1>   0.0800 
 48 H       -4.1640    -3.0670    -2.6930 H     1 <1>   0.0800 
 49 H       -3.4990    -1.6890    -3.5900 H     1 <1>   0.0800 
 50 H        8.1330     2.7280     1.2950 H     1 <1>   0.1500 
 51 H        6.5460     2.4550    -2.6440 H     1 <1>   0.1500 
 52 H        8.6980     3.1450    -3.5540 H     1 <1>   0.1500 
 53 H       10.5670     3.6360    -2.0790 H     1 <1>   0.1500 
 54 H       11.8900     4.8220    -0.3880 H     1 <1>   0.0800 
 55 H       12.3480     3.1270    -0.4720 H     1 <1>   0.0800 
 56 H       12.6260     4.0400     0.9870 H     1 <1>   0.0800 
@<TRIPOS>BOND
  1   1   2  2   
  2   1   3  2   
  3   1   4  am  
  4   1   5  1   
  5   4   6  1   
  6   4   7  1   
  7   5   8  ar  
  8   5   9  ar  
  9   6  10  1   
 10   6  31  1   
 11   6  32  1   
 12   7  11  1   
 13   7  33  1   
 14   7  34  1   
 15   8  12  ar  
 16   8  35  1   
 17   9  13  ar  
 18   9  36  1   
 19  10  14  1   
 20  10  37  1   
 21  10  38  1   
 22  11  14  1   
 23  11  39  1   
 24  11  40  1   
 25  12  15  ar  
 26  12  16  1   
 27  13  15  ar  
 28  13  41  1   
 29  14  17  1   
 30  14  42  1   
 31  15  18  1   
 32  16  43  1   
 33  16  44  1   
 34  16  45  1   
 35  17  19  2   
 36  17  20  am  
 37  18  21  1   
 38  20  22  1   
 39  20  46  1   
 40  21  47  1   
 41  21  48  1   
 42  21  49  1   
 43  22  23  ar  
 44  22  24  ar  
 45  23  25  ar  
 46  23  50  1   
 47  24  26  ar  
 48  24  51  1   
 49  25  27  1   
 50  25  28  ar  
 51  26  28  ar  
 52  26  52  1   
 53  27  29  2   
 54  27  30  1   
 55  28  53  1   
 56  30  54  1   
 57  30  55  1   
 58  30  56  1   
@<TRIPOS>SUBSTRUCTURE
  1 ****  11 GROUP 4 **** **** 0

# MOE 2024.06 (io_trps.svl 2023.06)
