@<TRIPOS>MOLECULE
4-(Tetrahydro-pyran-2-yloxy)-benzaldehyde
29 30 1 0 0 
SMALL
USER_CHARGES


@<TRIPOS>ATOM
  1 O        1.0180    -1.8650    -0.2830 O.2   1 <1>  -0.5700 
  2 C        0.1360    -2.4910     0.2470 C.2   1 <1>   0.4240 
  3 C       -1.2710    -2.3470    -0.0240 C.ar  1 <1>   0.0860 
  4 C       -2.2190    -3.1110     0.6600 C.ar  1 <1>  -0.1500 
  5 C       -1.7430    -1.4440    -0.9790 C.ar  1 <1>  -0.1500 
  6 C       -3.5720    -2.9800     0.4080 C.ar  1 <1>  -0.1500 
  7 C       -3.0940    -1.3090    -1.2350 C.ar  1 <1>  -0.1500 
  8 C       -4.0220    -2.0700    -0.5430 C.ar  1 <1>   0.0830 
  9 O       -5.3240    -1.8700    -0.8450 O.3   1 <1>  -0.3630 
 10 C       -6.3720    -2.4120    -0.0780 C.3   1 <1>   0.4800 
 11 O       -6.4500    -3.7730    -0.3760 O.3   1 <1>  -0.5600 
 12 C       -7.6810    -1.7170    -0.4660 C.3   1 <1>  -0.1600 
 13 C       -7.4330    -4.4650     0.3290 C.3   1 <1>   0.1200 
 14 C       -8.8820    -2.3940     0.2070 C.3   1 <1>  -0.1600 
 15 C       -8.8160    -3.9070    -0.0340 C.3   1 <1>  -0.1600 
 16 H        0.4150    -3.2200     0.9870 H     1 <1>   0.0600 
 17 H       -1.8920    -3.8220     1.3980 H     1 <1>   0.1500 
 18 H       -1.0340    -0.8450    -1.5240 H     1 <1>   0.1500 
 19 H       -4.2650    -3.5990     0.9480 H     1 <1>   0.1500 
 20 H       -3.4400    -0.6100    -1.9760 H     1 <1>   0.1500 
 21 H       -6.1500    -2.2820     0.9680 H     1 <1>   0.0800 
 22 H       -7.7900    -1.7680    -1.5350 H     1 <1>   0.0800 
 23 H       -7.6350    -0.6830    -0.1760 H     1 <1>   0.0800 
 24 H       -7.2360    -4.3670     1.3830 H     1 <1>   0.0800 
 25 H       -7.3630    -5.5030     0.0540 H     1 <1>   0.0800 
 26 H       -9.8010    -1.9950    -0.1860 H     1 <1>   0.0800 
 27 H       -8.8560    -2.2000     1.2660 H     1 <1>   0.0800 
 28 H       -9.5700    -4.4050     0.5500 H     1 <1>   0.0800 
 29 H       -9.0100    -4.1210    -1.0710 H     1 <1>   0.0800 
@<TRIPOS>BOND
  1   1   2  2   
  2   2   3  1   
  3   2  16  1   
  4   3   4  ar  
  5   3   5  ar  
  6   4   6  ar  
  7   4  17  1   
  8   5   7  ar  
  9   5  18  1   
 10   6   8  ar  
 11   6  19  1   
 12   7   8  ar  
 13   7  20  1   
 14   8   9  1   
 15   9  10  1   
 16  10  11  1   
 17  10  12  1   
 18  10  21  1   
 19  11  13  1   
 20  12  14  1   
 21  12  22  1   
 22  12  23  1   
 23  13  15  1   
 24  13  24  1   
 25  13  25  1   
 26  14  15  1   
 27  14  26  1   
 28  14  27  1   
 29  15  28  1   
 30  15  29  1   
@<TRIPOS>SUBSTRUCTURE
  1 ****   8 GROUP 4 **** **** 0

# MOE 2024.06 (io_trps.svl 2023.06)
