@<TRIPOS>MOLECULE
1-Methylamino-3-(1,2,3,4-tetrahydro-carbazol-9-yl)-propan-2-ol
42 44 1 0 0 
SMALL
USER_CHARGES


@<TRIPOS>ATOM
  1 O       -1.1590     1.8980     0.9830 O.3   1 <1>  -0.6800 
  2 C       -0.2560     2.4510     0.0690 C.3   1 <1>   0.2000 
  3 C       -1.0110     3.0040    -1.1500 C.3   1 <1>   0.0960 
  4 C        0.7670     1.3600    -0.3090 C.3   1 <1>   0.3430 
  5 N       -1.9590     4.0430    -0.7070 N.pl3 1 <1>   0.0480 
  6 N        1.0600     0.5090     0.8830 N.4   1 <1>  -0.9060 
  7 C       -3.2150     3.8000    -0.1940 C.ar  1 <1>  -0.1520 
  8 C       -1.6490     5.3500    -0.4420 C.2   1 <1>  -0.3320 
  9 C        1.6020    -0.8420     0.5620 C.3   1 <1>   0.2630 
 10 C       -3.6800     4.9670     0.4070 C.ar  1 <1>   0.0000 
 11 C       -4.0020     2.6420    -0.1910 C.ar  1 <1>  -0.1500 
 12 C       -2.6650     5.9290     0.2320 C.2   1 <1>  -0.1810 
 13 C       -0.3660     6.0720    -0.8290 C.3   1 <1>   0.0200 
 14 C       -4.9340     4.9820     1.0240 C.ar  1 <1>  -0.1500 
 15 C       -5.2340     2.6700     0.4210 C.ar  1 <1>  -0.1500 
 16 C       -2.6810     7.3700     0.6990 C.3   1 <1>   0.0210 
 17 C       -0.5430     7.5930    -0.6720 C.3   1 <1>  -0.1600 
 18 C       -5.7000     3.8400     1.0300 C.ar  1 <1>  -0.1500 
 19 C       -1.2610     7.9630     0.6400 C.3   1 <1>  -0.1600 
 20 H       -1.9100     2.5300     1.1300 H     1 <1>   0.4000 
 21 H        0.2530     3.2610     0.5650 H     1 <1>   0.0800 
 22 H       -1.5530     2.2230    -1.6520 H     1 <1>   0.0800 
 23 H       -0.3250     3.4430    -1.8500 H     1 <1>   0.0800 
 24 H        1.6690     1.8060    -0.6960 H     1 <1>   0.0800 
 25 H        0.3370     0.7490    -1.0860 H     1 <1>   0.0800 
 26 H        0.1410     0.4380     1.3650 H     1 <1>   0.4500 
 27 H        1.6640     1.0110     1.5460 H     1 <1>   0.4500 
 28 H        0.9190    -1.3760    -0.0790 H     1 <1>   0.0800 
 29 H        1.7390    -1.4120     1.4670 H     1 <1>   0.0800 
 30 H        2.5540    -0.7560     0.0620 H     1 <1>   0.0800 
 31 H       -3.6530     1.7430    -0.6640 H     1 <1>   0.1500 
 32 H       -0.1080     5.8550    -1.8500 H     1 <1>   0.0800 
 33 H        0.4330     5.7390    -0.1900 H     1 <1>   0.0800 
 34 H       -5.2800     5.8890     1.4840 H     1 <1>   0.1500 
 35 H       -5.8560     1.7920     0.4350 H     1 <1>   0.1500 
 36 H       -3.0570     7.4260     1.7050 H     1 <1>   0.0800 
 37 H       -3.3380     7.9300     0.0580 H     1 <1>   0.0800 
 38 H       -1.1270     7.9600    -1.4980 H     1 <1>   0.0800 
 39 H        0.4190     8.0730    -0.7110 H     1 <1>   0.0800 
 40 H       -6.6670     3.8370     1.5010 H     1 <1>   0.1500 
 41 H       -0.6910     7.5830     1.4700 H     1 <1>   0.0800 
 42 H       -1.3180     9.0330     0.7390 H     1 <1>   0.0800 
@<TRIPOS>BOND
  1   1   2  1   
  2   1  20  1   
  3   2   3  1   
  4   2   4  1   
  5   2  21  1   
  6   3   5  1   
  7   3  22  1   
  8   3  23  1   
  9   4   6  1   
 10   4  24  1   
 11   4  25  1   
 12   5   7  1   
 13   5   8  1   
 14   6   9  1   
 15   6  26  1   
 16   6  27  1   
 17   7  10  ar  
 18   7  11  ar  
 19   8  12  2   
 20   8  13  1   
 21   9  28  1   
 22   9  29  1   
 23   9  30  1   
 24  10  12  1   
 25  10  14  ar  
 26  11  15  ar  
 27  11  31  1   
 28  12  16  1   
 29  13  17  1   
 30  13  32  1   
 31  13  33  1   
 32  14  18  ar  
 33  14  34  1   
 34  15  18  ar  
 35  15  35  1   
 36  16  19  1   
 37  16  36  1   
 38  16  37  1   
 39  17  19  1   
 40  17  38  1   
 41  17  39  1   
 42  18  40  1   
 43  19  41  1   
 44  19  42  1   
@<TRIPOS>SUBSTRUCTURE
  1 ****   5 GROUP 4 **** **** 0

# MOE 2024.06 (io_trps.svl 2023.06)
