@<TRIPOS>MOLECULE
5-Acetyl-4-(2-allyloxy-5-chloro-3-methoxy-phenyl)-6-methyl-3,4-dihydro-1H-pyrimi
43 44 1 0 0 
SMALL
USER_CHARGES


@<TRIPOS>ATOM
  1 CL      -1.2130     1.7710    -3.0170 Cl    1 <1>  -0.1770 
  2 C       -2.3410     2.2220    -1.7630 C.ar  1 <1>   0.1770 
  3 C       -3.3440     1.3420    -1.4130 C.ar  1 <1>  -0.1500 
  4 C       -2.2020     3.4490    -1.1460 C.ar  1 <1>  -0.1500 
  5 C       -4.2460     1.7020    -0.4190 C.ar  1 <1>   0.0830 
  6 C       -3.0850     3.8210    -0.1390 C.ar  1 <1>  -0.1440 
  7 O       -5.2530     0.8730    -0.0180 O.3   1 <1>  -0.3620 
  8 C       -4.1220     2.9540     0.2000 C.ar  1 <1>   0.0830 
  9 C       -2.9320     5.1660     0.5710 C.3   1 <1>   0.5020 
 10 C       -5.2820    -0.4850    -0.3990 C.3   1 <1>   0.0400 
 11 O       -5.0080     3.3450     1.1530 O.3   1 <1>  -0.3630 
 12 N       -3.6230     6.1600    -0.2650 N.am  1 <1>  -0.7300 
 13 C       -1.4540     5.5250     0.8040 C.2   1 <1>  -0.1240 
 14 C       -6.3370     3.5890     0.7410 C.3   1 <1>   0.2580 
 15 C       -3.0000     7.1100    -0.9730 C.2   1 <1>   0.6900 
 16 C       -0.9130     6.5810     0.1280 C.2   1 <1>  -0.0290 
 17 C       -0.8370     4.6370     1.7380 C.2   1 <1>   0.4950 
 18 C       -6.4750     5.0690     0.4270 C.2   1 <1>  -0.2880 
 19 O       -3.6000     7.7880    -1.7750 O.2   1 <1>  -0.5700 
 20 N       -1.6730     7.2990    -0.7690 N.am  1 <1>  -0.5390 
 21 C        0.5040     7.1150     0.2720 C.3   1 <1>  -0.1020 
 22 O       -1.4360     4.1480     2.6630 O.2   1 <1>  -0.5700 
 23 C        0.6080     4.2080     1.5950 C.3   1 <1>  -0.1790 
 24 C       -6.7530     5.5860    -0.7740 C.2   1 <1>  -0.3000 
 25 H       -3.3980     0.4020    -1.9250 H     1 <1>   0.1500 
 26 H       -1.4090     4.1020    -1.4630 H     1 <1>   0.1500 
 27 H       -3.4270     5.1410     1.5270 H     1 <1>   0.0800 
 28 H       -6.0970    -0.9590     0.1180 H     1 <1>   0.0800 
 29 H       -4.3530    -0.9480    -0.1160 H     1 <1>   0.0800 
 30 H       -5.4390    -0.5480    -1.4610 H     1 <1>   0.0800 
 31 H       -4.6000     5.9530    -0.4800 H     1 <1>   0.3700 
 32 H       -6.9870     3.3100     1.5500 H     1 <1>   0.0800 
 33 H       -6.5690     2.9880    -0.1200 H     1 <1>   0.0800 
 34 H       -6.3170     5.6790     1.3010 H     1 <1>   0.1500 
 35 H       -1.2900     8.0730    -1.3110 H     1 <1>   0.3700 
 36 H        0.4940     8.1910     0.2570 H     1 <1>   0.0800 
 37 H        1.1140     6.7660    -0.5410 H     1 <1>   0.0800 
 38 H        0.9470     6.8190     1.2030 H     1 <1>   0.0800 
 39 H        0.9610     4.3720     0.5940 H     1 <1>   0.0800 
 40 H        0.6860     3.1580     1.8110 H     1 <1>   0.0800 
 41 H        1.2190     4.7460     2.2950 H     1 <1>   0.0800 
 42 H       -6.9120     5.0030    -1.6660 H     1 <1>   0.1500 
 43 H       -6.8430     6.6430    -0.9690 H     1 <1>   0.1500 
@<TRIPOS>BOND
  1   1   2  1   
  2   2   3  ar  
  3   2   4  ar  
  4   3   5  ar  
  5   3  25  1   
  6   4   6  ar  
  7   4  26  1   
  8   5   7  1   
  9   5   8  ar  
 10   6   8  ar  
 11   6   9  1   
 12   7  10  1   
 13   8  11  1   
 14   9  12  1   
 15   9  13  1   
 16   9  27  1   
 17  10  28  1   
 18  10  29  1   
 19  10  30  1   
 20  11  14  1   
 21  12  15  am  
 22  12  31  1   
 23  13  16  2   
 24  13  17  1   
 25  14  18  1   
 26  14  32  1   
 27  14  33  1   
 28  15  19  2   
 29  15  20  am  
 30  16  20  1   
 31  16  21  1   
 32  17  22  2   
 33  17  23  1   
 34  18  24  2   
 35  18  34  1   
 36  20  35  1   
 37  21  36  1   
 38  21  37  1   
 39  21  38  1   
 40  23  39  1   
 41  23  40  1   
 42  23  41  1   
 43  24  42  1   
 44  24  43  1   
@<TRIPOS>SUBSTRUCTURE
  1 ****   6 GROUP 4 **** **** 0

# MOE 2024.06 (io_trps.svl 2023.06)
