@<TRIPOS>MOLECULE
1-(4-Benzenesulfonyl-piperazin-1-yl)-3-(3,5-dimethyl-pyrazol-1-yl)-propan-1-one
50 52 1 0 0 
SMALL
USER_CHARGES


@<TRIPOS>ATOM
  1 S        0.0850     0.4960    -1.3560 S.o2  1 <1>   1.4470 
  2 O       -0.9880     0.3010    -2.3080 O.2   1 <1>  -0.6500 
  3 O        1.4290     0.7320    -1.8360 O.2   1 <1>  -0.6500 
  4 N       -0.3420     1.8460    -0.4250 N.am  1 <1>  -0.8490 
  5 C        0.1010    -0.8470    -0.1370 C.ar  1 <1>  -0.0090 
  6 C       -0.0990     3.0980    -1.1670 C.3   1 <1>   0.1960 
  7 C       -1.7430     1.7830     0.0330 C.3   1 <1>   0.1960 
  8 C        0.9910    -0.8270     0.9310 C.ar  1 <1>  -0.1500 
  9 C       -0.7840    -1.9170    -0.2270 C.ar  1 <1>  -0.1500 
 10 C       -0.4420     4.3440    -0.3310 C.3   1 <1>   0.1400 
 11 C       -2.1040     2.9890     0.9160 C.3   1 <1>   0.1400 
 12 C        0.9990    -1.8350     1.8790 C.ar  1 <1>  -0.1500 
 13 C       -0.7840    -2.9290     0.7180 C.ar  1 <1>  -0.1500 
 14 N       -1.8440     4.2640     0.1800 N.am  1 <1>  -0.6600 
 15 C        0.1080    -2.8870     1.7730 C.ar  1 <1>  -0.1500 
 16 C       -2.7760     5.2180    -0.1380 C.2   1 <1>   0.5690 
 17 O       -2.4690     6.2360    -0.7130 O.2   1 <1>  -0.5700 
 18 C       -4.2330     5.0110     0.2260 C.3   1 <1>  -0.0990 
 19 C       -5.1670     5.9970    -0.4890 C.3   1 <1>   0.0960 
 20 N       -6.5720     5.7250    -0.1240 N.pl3 1 <1>   0.3140 
 21 N       -7.1300     4.5250    -0.3810 N.2   1 <1>  -0.7070 
 22 C       -7.4500     6.5510     0.4920 C.2   1 <1>  -0.3320 
 23 C       -8.3400     4.6160     0.0690 C.2   1 <1>   0.1080 
 24 C       -8.6010     5.8600     0.6280 C.2   1 <1>  -0.1500 
 25 C       -7.1560     7.9760     0.9300 C.3   1 <1>  -0.0600 
 26 C       -9.3250     3.4750    -0.0240 C.3   1 <1>  -0.0590 
 27 H       -0.6860     3.1090    -2.0710 H     1 <1>   0.0800 
 28 H        0.9390     3.1550    -1.4490 H     1 <1>   0.0800 
 29 H       -1.8980     0.8830     0.6020 H     1 <1>   0.0800 
 30 H       -2.4110     1.7600    -0.8140 H     1 <1>   0.0800 
 31 H        1.6880    -0.0100     1.0170 H     1 <1>   0.1500 
 32 H       -1.4820    -1.9590    -1.0460 H     1 <1>   0.1500 
 33 H       -0.3060     5.2230    -0.9370 H     1 <1>   0.0800 
 34 H        0.2360     4.4120     0.5020 H     1 <1>   0.0800 
 35 H       -1.4960     2.9670     1.8040 H     1 <1>   0.0800 
 36 H       -3.1300     2.9120     1.2240 H     1 <1>   0.0800 
 37 H        1.6970    -1.8020     2.6980 H     1 <1>   0.1500 
 38 H       -1.4760    -3.7490     0.6300 H     1 <1>   0.1500 
 39 H        0.1110    -3.6730     2.5090 H     1 <1>   0.1500 
 40 H       -4.3420     5.1200     1.2890 H     1 <1>   0.0800 
 41 H       -4.5190     4.0170    -0.0620 H     1 <1>   0.0800 
 42 H       -5.0710     5.8890    -1.5530 H     1 <1>   0.0800 
 43 H       -4.9170     7.0070    -0.2230 H     1 <1>   0.0800 
 44 H       -9.5300     6.1760     1.0670 H     1 <1>   0.1500 
 45 H       -6.3450     7.9890     1.6360 H     1 <1>   0.0800 
 46 H       -8.0240     8.4050     1.3990 H     1 <1>   0.0800 
 47 H       -6.8950     8.5800     0.0800 H     1 <1>   0.0800 
 48 H       -8.9180     2.6110     0.4670 H     1 <1>   0.0800 
 49 H       -9.5000     3.2390    -1.0580 H     1 <1>   0.0800 
 50 H      -10.2550     3.7420     0.4410 H     1 <1>   0.0800 
@<TRIPOS>BOND
  1   1   2  2   
  2   1   3  2   
  3   1   4  am  
  4   1   5  1   
  5   4   6  1   
  6   4   7  1   
  7   5   8  ar  
  8   5   9  ar  
  9   6  10  1   
 10   6  27  1   
 11   6  28  1   
 12   7  11  1   
 13   7  29  1   
 14   7  30  1   
 15   8  12  ar  
 16   8  31  1   
 17   9  13  ar  
 18   9  32  1   
 19  10  14  1   
 20  10  33  1   
 21  10  34  1   
 22  11  14  1   
 23  11  35  1   
 24  11  36  1   
 25  12  15  ar  
 26  12  37  1   
 27  13  15  ar  
 28  13  38  1   
 29  14  16  am  
 30  15  39  1   
 31  16  17  2   
 32  16  18  1   
 33  18  19  1   
 34  18  40  1   
 35  18  41  1   
 36  19  20  1   
 37  19  42  1   
 38  19  43  1   
 39  20  21  1   
 40  20  22  1   
 41  21  23  2   
 42  22  24  2   
 43  22  25  1   
 44  23  24  1   
 45  23  26  1   
 46  24  44  1   
 47  25  45  1   
 48  25  46  1   
 49  25  47  1   
 50  26  48  1   
 51  26  49  1   
 52  26  50  1   
@<TRIPOS>SUBSTRUCTURE
  1 ****  11 GROUP 4 **** **** 0

# MOE 2024.06 (io_trps.svl 2023.06)
