@<TRIPOS>MOLECULE
4-{[1-(4-Methoxy-3-methyl-benzenesulfonyl)-piperidine-4-carbonyl]-amino}-benzoic
57 59 1 0 0 
SMALL
USER_CHARGES


@<TRIPOS>ATOM
  1 S       -0.1970     0.1640     2.4440 S.o2  1 <1>   1.4470 
  2 O        0.4530    -0.9030     3.1770 O.2   1 <1>  -0.6500 
  3 O       -0.9630     1.1520     3.1720 O.2   1 <1>  -0.6500 
  4 N        1.0330     0.9900     1.6180 N.am  1 <1>  -0.8490 
  5 C       -1.2150    -0.5230     1.1090 C.ar  1 <1>  -0.0090 
  6 C        1.9570     0.0690     0.9480 C.3   1 <1>   0.1960 
  7 C        1.7380     1.9180     2.5040 C.3   1 <1>   0.1960 
  8 C       -1.5650     0.2490     0.0080 C.ar  1 <1>  -0.1500 
  9 C       -1.6730    -1.8340     1.1540 C.ar  1 <1>  -0.1500 
 10 C        2.9530     0.8520     0.0910 C.3   1 <1>  -0.1600 
 11 C        2.7400     2.7580     1.7050 C.3   1 <1>  -0.1600 
 12 C       -2.3360    -0.2610    -1.0250 C.ar  1 <1>  -0.1430 
 13 C       -2.4460    -2.3610     0.1340 C.ar  1 <1>  -0.1500 
 14 C        3.7350     1.8710     0.9380 C.3   1 <1>  -0.0190 
 15 C       -2.7820    -1.5770    -0.9660 C.ar  1 <1>   0.0820 
 16 C       -2.6880     0.6250    -2.2120 C.3   1 <1>  -0.0970 
 17 C        4.6890     2.7080     0.0850 C.2   1 <1>   0.5690 
 18 O       -3.5350    -2.0380    -1.9980 O.3   1 <1>  -0.3630 
 19 O        4.2440     3.3220    -0.8530 O.2   1 <1>  -0.5700 
 20 N        6.0150     2.7100     0.4330 N.am  1 <1>  -0.5470 
 21 C       -4.0570    -3.3470    -2.0120 C.3   1 <1>   0.0400 
 22 C        7.1170     3.3750    -0.1170 C.ar  1 <1>   0.1170 
 23 C        8.3930     2.9330     0.2120 C.ar  1 <1>  -0.1500 
 24 C        7.0140     4.4710    -0.9700 C.ar  1 <1>  -0.1500 
 25 C        9.5190     3.5550    -0.2930 C.ar  1 <1>  -0.1500 
 26 C        8.1410     5.0900    -1.4740 C.ar  1 <1>  -0.1500 
 27 C        9.4290     4.6540    -1.1530 C.ar  1 <1>   0.0860 
 28 C       10.6020     5.3160    -1.6890 C.2   1 <1>   0.6340 
 29 O       10.5460     6.2780    -2.4300 O.2   1 <1>  -0.5700 
 30 O       11.8050     4.8400    -1.3480 O.3   1 <1>  -0.4300 
 31 C       13.0000     5.4260    -1.8270 C.3   1 <1>   0.0400 
 32 H        1.4050    -0.6020     0.3110 H     1 <1>   0.0800 
 33 H        2.4860    -0.5210     1.6800 H     1 <1>   0.0800 
 34 H        2.2440     1.3690     3.2810 H     1 <1>   0.0800 
 35 H        1.0310     2.5850     2.9700 H     1 <1>   0.0800 
 36 H       -1.2220     1.2690    -0.0340 H     1 <1>   0.1500 
 37 H       -1.4200    -2.4520     2.0000 H     1 <1>   0.1500 
 38 H        2.4120     1.3600    -0.6900 H     1 <1>   0.0800 
 39 H        3.6370     0.1670    -0.3790 H     1 <1>   0.0800 
 40 H        3.2720     3.4090     2.3750 H     1 <1>   0.0800 
 41 H        2.1950     3.3760     1.0130 H     1 <1>   0.0800 
 42 H       -2.7740    -3.3790     0.2140 H     1 <1>   0.1500 
 43 H        4.3140     1.3230     1.6590 H     1 <1>   0.0800 
 44 H       -2.2510     1.6020    -2.1140 H     1 <1>   0.0800 
 45 H       -3.7560     0.7310    -2.2810 H     1 <1>   0.0800 
 46 H       -2.3270     0.1770    -3.1200 H     1 <1>   0.0800 
 47 H        6.2470     2.0990     1.2110 H     1 <1>   0.3700 
 48 H       -4.6230    -3.4700    -2.9180 H     1 <1>   0.0800 
 49 H       -4.7000    -3.4750    -1.1600 H     1 <1>   0.0800 
 50 H       -3.2420    -4.0490    -1.9920 H     1 <1>   0.0800 
 51 H        8.5110     2.0900     0.8680 H     1 <1>   0.1500 
 52 H        6.0480     4.8520    -1.2460 H     1 <1>   0.1500 
 53 H       10.4910     3.1820    -0.0160 H     1 <1>   0.1500 
 54 H        8.0260     5.9340    -2.1330 H     1 <1>   0.1500 
 55 H       13.8340     4.8800    -1.4230 H     1 <1>   0.0800 
 56 H       13.0370     6.4530    -1.5050 H     1 <1>   0.0800 
 57 H       13.0070     5.3740    -2.9020 H     1 <1>   0.0800 
@<TRIPOS>BOND
  1   1   2  2   
  2   1   3  2   
  3   1   4  am  
  4   1   5  1   
  5   4   6  1   
  6   4   7  1   
  7   5   8  ar  
  8   5   9  ar  
  9   6  10  1   
 10   6  32  1   
 11   6  33  1   
 12   7  11  1   
 13   7  34  1   
 14   7  35  1   
 15   8  12  ar  
 16   8  36  1   
 17   9  13  ar  
 18   9  37  1   
 19  10  14  1   
 20  10  38  1   
 21  10  39  1   
 22  11  14  1   
 23  11  40  1   
 24  11  41  1   
 25  12  15  ar  
 26  12  16  1   
 27  13  15  ar  
 28  13  42  1   
 29  14  17  1   
 30  14  43  1   
 31  15  18  1   
 32  16  44  1   
 33  16  45  1   
 34  16  46  1   
 35  17  19  2   
 36  17  20  am  
 37  18  21  1   
 38  20  22  1   
 39  20  47  1   
 40  21  48  1   
 41  21  49  1   
 42  21  50  1   
 43  22  23  ar  
 44  22  24  ar  
 45  23  25  ar  
 46  23  51  1   
 47  24  26  ar  
 48  24  52  1   
 49  25  27  ar  
 50  25  53  1   
 51  26  27  ar  
 52  26  54  1   
 53  27  28  1   
 54  28  29  2   
 55  28  30  1   
 56  30  31  1   
 57  31  55  1   
 58  31  56  1   
 59  31  57  1   
@<TRIPOS>SUBSTRUCTURE
  1 ****  10 GROUP 4 **** **** 0

# MOE 2024.06 (io_trps.svl 2023.06)
