@<TRIPOS>MOLECULE
2,3-Dihydro-benzo[1,4]dioxine-6-carboxylic acid [2-(4-methyl-piperazin-1-yl)-phe
50 53 1 0 0 
SMALL
USER_CHARGES


@<TRIPOS>ATOM
  1 O        0.1000     0.0160    -0.0880 O.2   1 <1>  -0.5700 
  2 C       -0.7720     0.8630    -0.1300 C.2   1 <1>   0.5440 
  3 N       -0.4590     2.1890     0.0430 N.am  1 <1>  -0.5470 
  4 C       -2.1520     0.4920    -0.3840 C.ar  1 <1>   0.0860 
  5 C        0.7050     2.9050     0.3640 C.ar  1 <1>   0.1170 
  6 C       -3.2180     1.3030     0.0190 C.ar  1 <1>  -0.1500 
  7 C       -2.4680    -0.6940    -1.0540 C.ar  1 <1>  -0.1500 
  8 C        0.5770     4.3010     0.4530 C.ar  1 <1>   0.1000 
  9 C        1.9410     2.3170     0.5940 C.ar  1 <1>  -0.1500 
 10 C       -4.5270     0.9600    -0.2530 C.ar  1 <1>   0.0830 
 11 C       -3.7780    -1.0550    -1.3200 C.ar  1 <1>  -0.1500 
 12 N       -0.6710     4.9160     0.2260 N.pl3 1 <1>  -0.8380 
 13 C        1.6950     5.0640     0.7670 C.ar  1 <1>  -0.1500 
 14 C        3.0450     3.0920     0.9060 C.ar  1 <1>  -0.1500 
 15 O       -5.5170     1.8050     0.1330 O.3   1 <1>  -0.3630 
 16 C       -4.8140    -0.2330    -0.9180 C.ar  1 <1>   0.0830 
 17 C       -1.3710     5.4840     1.4230 C.3   1 <1>   0.2090 
 18 C       -0.8290     5.6600    -1.0640 C.3   1 <1>   0.2090 
 19 C        2.9230     4.4660     0.9930 C.ar  1 <1>  -0.1500 
 20 C       -6.8030     1.5830    -0.4190 C.3   1 <1>   0.1200 
 21 O       -6.0900    -0.6060    -1.1690 O.3   1 <1>  -0.3630 
 22 C       -1.2170     7.0170     1.5280 C.3   1 <1>   0.3430 
 23 C       -0.6880     7.1880    -0.8860 C.3   1 <1>   0.3430 
 24 C       -7.1130     0.0800    -0.4730 C.3   1 <1>   0.1200 
 25 N       -1.5430     7.7250     0.2360 N.4   1 <1>  -0.9590 
 26 C       -1.3950     9.2060     0.3730 C.3   1 <1>   0.2630 
 27 H       -1.2300     2.8420    -0.0970 H     1 <1>   0.3700 
 28 H       -3.0380     2.2130     0.5580 H     1 <1>   0.1500 
 29 H       -1.6670    -1.3430    -1.3680 H     1 <1>   0.1500 
 30 H        2.0540     1.2510     0.5310 H     1 <1>   0.1500 
 31 H       -4.0010    -1.9730    -1.8340 H     1 <1>   0.1500 
 32 H        1.6180     6.1300     0.8390 H     1 <1>   0.1500 
 33 H        3.9970     2.6190     1.0810 H     1 <1>   0.1500 
 34 H       -0.9770     5.0270     2.3160 H     1 <1>   0.0800 
 35 H       -2.4160     5.2310     1.3690 H     1 <1>   0.0800 
 36 H       -1.7950     5.4340    -1.4810 H     1 <1>   0.0800 
 37 H       -0.0880     5.3160    -1.7670 H     1 <1>   0.0800 
 38 H        3.7850     5.0640     1.2360 H     1 <1>   0.1500 
 39 H       -6.8190     2.0010    -1.4100 H     1 <1>   0.0800 
 40 H       -7.5210     2.0980     0.1930 H     1 <1>   0.0800 
 41 H       -0.2000     7.2330     1.8090 H     1 <1>   0.0800 
 42 H       -1.8570     7.3780     2.3160 H     1 <1>   0.0800 
 43 H       -0.9510     7.6720    -1.8130 H     1 <1>   0.0800 
 44 H        0.3470     7.4080    -0.6860 H     1 <1>   0.0800 
 45 H       -8.0410    -0.1020    -0.9830 H     1 <1>   0.0800 
 46 H       -7.1710    -0.3260     0.5220 H     1 <1>   0.0800 
 47 H       -2.5240     7.5070     0.0050 H     1 <1>   0.4500 
 48 H       -0.3760     9.4620     0.6150 H     1 <1>   0.0800 
 49 H       -2.0370     9.5760     1.1570 H     1 <1>   0.0800 
 50 H       -1.6640     9.6970    -0.5480 H     1 <1>   0.0800 
@<TRIPOS>BOND
  1   1   2  2   
  2   2   3  am  
  3   2   4  1   
  4   3   5  1   
  5   3  27  1   
  6   4   6  ar  
  7   4   7  ar  
  8   5   8  ar  
  9   5   9  ar  
 10   6  10  ar  
 11   6  28  1   
 12   7  11  ar  
 13   7  29  1   
 14   8  12  1   
 15   8  13  ar  
 16   9  14  ar  
 17   9  30  1   
 18  10  15  1   
 19  10  16  ar  
 20  11  16  ar  
 21  11  31  1   
 22  12  17  1   
 23  12  18  1   
 24  13  19  ar  
 25  13  32  1   
 26  14  19  ar  
 27  14  33  1   
 28  15  20  1   
 29  16  21  1   
 30  17  22  1   
 31  17  34  1   
 32  17  35  1   
 33  18  23  1   
 34  18  36  1   
 35  18  37  1   
 36  19  38  1   
 37  20  24  1   
 38  20  39  1   
 39  20  40  1   
 40  21  24  1   
 41  22  25  1   
 42  22  41  1   
 43  22  42  1   
 44  23  25  1   
 45  23  43  1   
 46  23  44  1   
 47  24  45  1   
 48  24  46  1   
 49  25  26  1   
 50  25  47  1   
 51  26  48  1   
 52  26  49  1   
 53  26  50  1   
@<TRIPOS>SUBSTRUCTURE
  1 ****   3 GROUP 4 **** **** 0

# MOE 2024.06 (io_trps.svl 2023.06)
