@<TRIPOS>MOLECULE
N-Cyclohexyl-3-[3-(3,4,5-trimethoxy-phenyl)-[1,2,4]oxadiazol-5-yl]-propionamide
55 57 1 0 0 
SMALL
USER_CHARGES


@<TRIPOS>ATOM
  1 O        1.6980    -2.4450    -1.7990 O.2   1 <1>  -0.5700 
  2 C        0.9310    -2.4230    -0.8690 C.2   1 <1>   0.5690 
  3 N        0.7950    -1.3480    -0.0550 N.am  1 <1>  -0.7300 
  4 C        0.0730    -3.6390    -0.6140 C.3   1 <1>  -0.0990 
  5 C        1.5510    -0.0920    -0.1810 C.3   1 <1>   0.2200 
  6 C       -1.0130    -3.7630    -1.6880 C.3   1 <1>   0.0200 
  7 C        2.3510     0.1360     1.1060 C.3   1 <1>  -0.1600 
  8 C        0.5680     1.0540    -0.4370 C.3   1 <1>  -0.1600 
  9 C       -1.9290    -4.9350    -1.4010 C.2   1 <1>   0.2980 
 10 C        3.0780     1.4880     1.0740 C.3   1 <1>  -0.1600 
 11 C        1.2920     2.4090    -0.4700 C.3   1 <1>  -0.1600 
 12 O       -1.4870    -6.1480    -1.6000 O.3   1 <1>  -0.0190 
 13 N       -3.1160    -4.8510    -0.9650 N.2   1 <1>  -0.5650 
 14 C        2.0970     2.6400     0.8150 C.3   1 <1>  -0.1600 
 15 N       -2.4830    -6.9050    -1.2610 N.2   1 <1>  -0.4100 
 16 C       -3.4500    -6.1430    -0.8860 C.2   1 <1>   0.4620 
 17 C       -4.7540    -6.5910    -0.4260 C.ar  1 <1>   0.0540 
 18 C       -5.7350    -5.6870    -0.0180 C.ar  1 <1>  -0.1500 
 19 C       -5.0740    -7.9480    -0.3720 C.ar  1 <1>  -0.1500 
 20 C       -6.9760    -6.1020     0.4280 C.ar  1 <1>   0.0820 
 21 C       -6.3180    -8.3940     0.0620 C.ar  1 <1>   0.0820 
 22 O       -7.8320    -5.1160     0.8090 O.3   1 <1>  -0.3620 
 23 C       -7.2840    -7.4650     0.4530 C.ar  1 <1>   0.0820 
 24 O       -6.6400    -9.7200     0.1170 O.3   1 <1>  -0.3620 
 25 C       -8.5440    -5.2590     2.0200 C.3   1 <1>   0.0400 
 26 O       -8.5120    -7.8960     0.8470 O.3   1 <1>  -0.3630 
 27 C       -5.6730   -10.7270    -0.0900 C.3   1 <1>   0.0400 
 28 C       -9.4070    -8.1990    -0.1970 C.3   1 <1>   0.0400 
 29 H        0.1320    -1.3710     0.7190 H     1 <1>   0.3700 
 30 H       -0.3810    -3.5700     0.3580 H     1 <1>   0.0800 
 31 H        0.7020    -4.5110    -0.6300 H     1 <1>   0.0800 
 32 H        2.2350    -0.1600    -1.0120 H     1 <1>   0.0800 
 33 H       -0.5620    -3.8930    -2.6560 H     1 <1>   0.0800 
 34 H       -1.6000    -2.8610    -1.7120 H     1 <1>   0.0800 
 35 H        3.0740    -0.6530     1.2170 H     1 <1>   0.0800 
 36 H        1.6880     0.1160     1.9520 H     1 <1>   0.0800 
 37 H       -0.1740     1.0750     0.3420 H     1 <1>   0.0800 
 38 H        0.0730     0.8940    -1.3780 H     1 <1>   0.0800 
 39 H        3.8230     1.4740     0.2960 H     1 <1>   0.0800 
 40 H        3.5840     1.6480     2.0110 H     1 <1>   0.0800 
 41 H        0.5720     3.2000    -0.5940 H     1 <1>   0.0800 
 42 H        1.9570     2.4350    -1.3170 H     1 <1>   0.0800 
 43 H        2.6410     3.5650     0.7370 H     1 <1>   0.0800 
 44 H        1.4210     2.7260     1.6490 H     1 <1>   0.0800 
 45 H       -5.5310    -4.6320    -0.0420 H     1 <1>   0.1500 
 46 H       -4.3240    -8.6490    -0.6830 H     1 <1>   0.1500 
 47 H       -8.8110    -4.2790     2.3700 H     1 <1>   0.0800 
 48 H       -7.9180    -5.7530     2.7430 H     1 <1>   0.0800 
 49 H       -9.4340    -5.8330     1.8360 H     1 <1>   0.0800 
 50 H       -4.8670   -10.5860     0.6090 H     1 <1>   0.0800 
 51 H       -5.3200   -10.6710    -1.1040 H     1 <1>   0.0800 
 52 H       -6.1420   -11.6790     0.0810 H     1 <1>   0.0800 
 53 H      -10.3420    -8.4990     0.2380 H     1 <1>   0.0800 
 54 H       -8.9990    -9.0020    -0.7850 H     1 <1>   0.0800 
 55 H       -9.5430    -7.3200    -0.8020 H     1 <1>   0.0800 
@<TRIPOS>BOND
  1   1   2  2   
  2   2   3  am  
  3   2   4  1   
  4   3   5  1   
  5   3  29  1   
  6   4   6  1   
  7   4  30  1   
  8   4  31  1   
  9   5   7  1   
 10   5   8  1   
 11   5  32  1   
 12   6   9  1   
 13   6  33  1   
 14   6  34  1   
 15   7  10  1   
 16   7  35  1   
 17   7  36  1   
 18   8  11  1   
 19   8  37  1   
 20   8  38  1   
 21   9  12  1   
 22   9  13  2   
 23  10  14  1   
 24  10  39  1   
 25  10  40  1   
 26  11  14  1   
 27  11  41  1   
 28  11  42  1   
 29  12  15  1   
 30  13  16  1   
 31  14  43  1   
 32  14  44  1   
 33  15  16  2   
 34  16  17  1   
 35  17  18  ar  
 36  17  19  ar  
 37  18  20  ar  
 38  18  45  1   
 39  19  21  ar  
 40  19  46  1   
 41  20  22  1   
 42  20  23  ar  
 43  21  23  ar  
 44  21  24  1   
 45  22  25  1   
 46  23  26  1   
 47  24  27  1   
 48  25  47  1   
 49  25  48  1   
 50  25  49  1   
 51  26  28  1   
 52  27  50  1   
 53  27  51  1   
 54  27  52  1   
 55  28  53  1   
 56  28  54  1   
 57  28  55  1   
@<TRIPOS>SUBSTRUCTURE
  1 ****  13 GROUP 4 **** **** 0

# MOE 2024.06 (io_trps.svl 2023.06)
