@<TRIPOS>MOLECULE
3-[3-(4-Chloro-phenyl)-[1,2,4]oxadiazol-5-yl]-N-ethyl-propionamide
33 34 1 0 0 
SMALL
USER_CHARGES


@<TRIPOS>ATOM
  1 CL       0.8170    -0.1090     1.4270 Cl    1 <1>  -0.1770 
  2 C        2.0990     0.9100     0.8280 C.ar  1 <1>   0.1770 
  3 C        2.2350     2.1940     1.3200 C.ar  1 <1>  -0.1500 
  4 C        2.9640     0.4230    -0.1320 C.ar  1 <1>  -0.1500 
  5 C        3.2540     2.9980     0.8400 C.ar  1 <1>  -0.1500 
  6 C        3.9790     1.2370    -0.6030 C.ar  1 <1>  -0.1500 
  7 C        4.1520     2.5430    -0.1310 C.ar  1 <1>   0.0540 
  8 C        5.2240     3.3870    -0.6350 C.2   1 <1>   0.4620 
  9 N        6.0800     3.0560    -1.5360 N.2   1 <1>  -0.4100 
 10 N        5.4310     4.6320    -0.1920 N.2   1 <1>  -0.5650 
 11 O        6.8720     4.0640    -1.7220 O.3   1 <1>  -0.0190 
 12 C        6.4330     4.9710    -0.8910 C.2   1 <1>   0.2980 
 13 C        7.1450     6.3080    -0.8290 C.3   1 <1>   0.0200 
 14 C        8.5340     6.1650    -0.1860 C.3   1 <1>  -0.0990 
 15 C        9.2940     7.4770    -0.1080 C.2   1 <1>   0.5690 
 16 O        8.7990     8.4850    -0.5430 O.2   1 <1>  -0.5700 
 17 N       10.5280     7.5260     0.4410 N.am  1 <1>  -0.7300 
 18 C       11.3450     6.4440     1.0260 C.3   1 <1>   0.1400 
 19 C       12.6040     6.2800     0.1840 C.3   1 <1>  -0.2400 
 20 H        1.5500     2.5540     2.0670 H     1 <1>   0.1500 
 21 H        2.8410    -0.5790    -0.5020 H     1 <1>   0.1500 
 22 H        3.3560     3.9980     1.2260 H     1 <1>   0.1500 
 23 H        4.6520     0.8540    -1.3520 H     1 <1>   0.1500 
 24 H        6.5510     6.9960    -0.2540 H     1 <1>   0.0800 
 25 H        7.2380     6.7020    -1.8260 H     1 <1>   0.0800 
 26 H        9.1200     5.4690    -0.7570 H     1 <1>   0.0800 
 27 H        8.4170     5.7770     0.8100 H     1 <1>   0.0800 
 28 H       10.9650     8.4510     0.4310 H     1 <1>   0.3700 
 29 H       10.7950     5.5190     1.0490 H     1 <1>   0.0800 
 30 H       11.6080     6.7070     2.0380 H     1 <1>   0.0800 
 31 H       12.3450     6.0180    -0.8260 H     1 <1>   0.0800 
 32 H       13.2140     5.4950     0.5940 H     1 <1>   0.0800 
 33 H       13.1760     7.1900     0.1820 H     1 <1>   0.0800 
@<TRIPOS>BOND
  1   1   2  1   
  2   2   3  ar  
  3   2   4  ar  
  4   3   5  ar  
  5   3  20  1   
  6   4   6  ar  
  7   4  21  1   
  8   5   7  ar  
  9   5  22  1   
 10   6   7  ar  
 11   6  23  1   
 12   7   8  1   
 13   8   9  2   
 14   8  10  1   
 15   9  11  1   
 16  10  12  2   
 17  11  12  1   
 18  12  13  1   
 19  13  14  1   
 20  13  24  1   
 21  13  25  1   
 22  14  15  1   
 23  14  26  1   
 24  14  27  1   
 25  15  16  2   
 26  15  17  am  
 27  17  18  1   
 28  17  28  1   
 29  18  19  1   
 30  18  29  1   
 31  18  30  1   
 32  19  31  1   
 33  19  32  1   
 34  19  33  1   
@<TRIPOS>SUBSTRUCTURE
  1 ****  10 GROUP 4 **** **** 0

# MOE 2024.06 (io_trps.svl 2023.06)
