@<TRIPOS>MOLECULE
N-{1-[3-(4-Methoxy-phenyl)-[1,2,4]oxadiazol-5-yl]-ethyl}-acetamide
34 35 1 0 0 
SMALL
USER_CHARGES


@<TRIPOS>ATOM
  1 O       -1.4550    -0.9190    -2.0270 O.2   1 <1>  -0.5700 
  2 C       -1.9880    -1.0510    -0.9590 C.2   1 <1>   0.5690 
  3 N       -3.3310    -0.9750    -0.8670 N.am  1 <1>  -0.7300 
  4 C       -1.1350    -1.3020     0.2600 C.3   1 <1>  -0.1790 
  5 C       -4.1940    -1.1450     0.3200 C.3   1 <1>   0.4000 
  6 C       -4.7930    -2.5550     0.3580 C.2   1 <1>   0.2980 
  7 C       -5.2540    -0.0430     0.2750 C.3   1 <1>  -0.2400 
  8 O       -3.9980    -3.5380     0.6910 O.3   1 <1>  -0.0190 
  9 N       -5.9930    -2.8940     0.1030 N.2   1 <1>  -0.5650 
 10 N       -4.7530    -4.5890     0.6460 N.2   1 <1>  -0.4100 
 11 C       -5.9330    -4.2160     0.2940 C.2   1 <1>   0.4620 
 12 C       -7.0810    -5.0890     0.1150 C.ar  1 <1>   0.0540 
 13 C       -8.3300    -4.5930    -0.2650 C.ar  1 <1>  -0.1500 
 14 C       -6.9810    -6.4680     0.3180 C.ar  1 <1>  -0.1500 
 15 C       -9.4190    -5.4280    -0.4340 C.ar  1 <1>  -0.1500 
 16 C       -8.0660    -7.3100     0.1510 C.ar  1 <1>  -0.1500 
 17 C       -9.2990    -6.7910    -0.2280 C.ar  1 <1>   0.0820 
 18 O      -10.4120    -7.5410    -0.4140 O.3   1 <1>  -0.3630 
 19 C      -10.3950    -8.9390    -0.2300 C.3   1 <1>   0.0400 
 20 H       -3.8280    -0.8710    -1.7530 H     1 <1>   0.3700 
 21 H       -0.1020    -1.3590    -0.0310 H     1 <1>   0.0800 
 22 H       -1.2510    -0.4980     0.9610 H     1 <1>   0.0800 
 23 H       -1.4130    -2.2330     0.7190 H     1 <1>   0.0800 
 24 H       -3.6090    -1.0120     1.2130 H     1 <1>   0.0800 
 25 H       -5.8640    -0.1420    -0.6040 H     1 <1>   0.0800 
 26 H       -4.7860     0.9250     0.2800 H     1 <1>   0.0800 
 27 H       -5.8910    -0.1190     1.1380 H     1 <1>   0.0800 
 28 H       -8.4520    -3.5370    -0.4320 H     1 <1>   0.1500 
 29 H       -6.0350    -6.8880     0.6110 H     1 <1>   0.1500 
 30 H      -10.3730    -5.0270    -0.7270 H     1 <1>   0.1500 
 31 H       -7.9330    -8.3620     0.3200 H     1 <1>   0.1500 
 32 H      -11.3830    -9.3140    -0.4320 H     1 <1>   0.0800 
 33 H      -10.1240    -9.1540     0.7890 H     1 <1>   0.0800 
 34 H       -9.6920    -9.3730    -0.9180 H     1 <1>   0.0800 
@<TRIPOS>BOND
  1   1   2  2   
  2   2   3  am  
  3   2   4  1   
  4   3   5  1   
  5   3  20  1   
  6   4  21  1   
  7   4  22  1   
  8   4  23  1   
  9   5   6  1   
 10   5   7  1   
 11   5  24  1   
 12   6   8  1   
 13   6   9  2   
 14   7  25  1   
 15   7  26  1   
 16   7  27  1   
 17   8  10  1   
 18   9  11  1   
 19  10  11  2   
 20  11  12  1   
 21  12  13  ar  
 22  12  14  ar  
 23  13  15  ar  
 24  13  28  1   
 25  14  16  ar  
 26  14  29  1   
 27  15  17  ar  
 28  15  30  1   
 29  16  17  ar  
 30  16  31  1   
 31  17  18  1   
 32  18  19  1   
 33  19  32  1   
 34  19  33  1   
 35  19  34  1   
@<TRIPOS>SUBSTRUCTURE
  1 ****  11 GROUP 4 **** **** 0

# MOE 2024.06 (io_trps.svl 2023.06)
