@<TRIPOS>MOLECULE
1-Pyridin-2-yl-4-(3-m-tolyl-[1,2,4]oxadiazol-5-ylmethyl)-piperazine
46 49 1 0 0 
SMALL
USER_CHARGES


@<TRIPOS>ATOM
  1 O       -0.2110    -1.5340    -2.3290 O.3   1 <1>  -0.0190 
  2 N       -1.4320    -1.1520    -2.1170 N.2   1 <1>  -0.4100 
  3 C        0.2490    -1.8050    -1.1360 C.2   1 <1>   0.2980 
  4 C       -1.6510    -1.2050    -0.8510 C.2   1 <1>   0.4620 
  5 N       -0.5730    -1.6310    -0.1820 N.2   1 <1>  -0.5650 
  6 C        1.6880    -2.2960    -1.0000 C.3   1 <1>   0.2900 
  7 C       -2.8970    -0.8530    -0.1890 C.ar  1 <1>   0.0540 
  8 N        2.6940    -1.2980    -1.4300 N.3   1 <1>  -0.8100 
  9 C       -4.0010    -0.4040    -0.9170 C.ar  1 <1>  -0.1500 
 10 C       -3.0450    -0.9450     1.1960 C.ar  1 <1>  -0.1500 
 11 C        4.0560    -1.8760    -1.3720 C.3   1 <1>   0.1100 
 12 C        2.6430    -0.0850    -0.5770 C.3   1 <1>   0.1100 
 13 C       -5.1950    -0.0630    -0.3020 C.ar  1 <1>  -0.1430 
 14 C       -4.2310    -0.6090     1.8210 C.ar  1 <1>  -0.1500 
 15 C        5.1430    -0.8690    -1.8000 C.3   1 <1>   0.2090 
 16 C        3.6830     0.9700    -1.0000 C.3   1 <1>   0.2090 
 17 C       -5.3070    -0.1680     1.0730 C.ar  1 <1>  -0.1500 
 18 C       -6.3780     0.4200    -1.1220 C.3   1 <1>  -0.0960 
 19 N        5.0620     0.4020    -1.0170 N.pl3 1 <1>  -0.8380 
 20 C        5.8230     0.5400     0.1280 C.ar  1 <1>   0.4100 
 21 N        6.0250    -0.5440     0.8700 N.ar  1 <1>  -0.6200 
 22 C        6.3320     1.7940     0.4580 C.ar  1 <1>  -0.1500 
 23 C        6.7490    -0.3690     1.9630 C.ar  1 <1>   0.1600 
 24 C        7.0810     1.9620     1.5980 C.ar  1 <1>  -0.1500 
 25 C        7.2910     0.8370     2.3690 C.ar  1 <1>  -0.1500 
 26 H        1.7920    -3.1810    -1.6020 H     1 <1>   0.0800 
 27 H        1.8660    -2.5670     0.0260 H     1 <1>   0.0800 
 28 H       -3.9190    -0.3240    -1.9860 H     1 <1>   0.1500 
 29 H       -2.2180    -1.2870     1.7940 H     1 <1>   0.1500 
 30 H        4.1110    -2.7320    -2.0210 H     1 <1>   0.0800 
 31 H        4.2730    -2.2030    -0.3690 H     1 <1>   0.0800 
 32 H        2.8250    -0.3520     0.4500 H     1 <1>   0.0800 
 33 H        1.6660     0.3620    -0.6390 H     1 <1>   0.0800 
 34 H       -4.3190    -0.6900     2.8910 H     1 <1>   0.1500 
 35 H        5.0240    -0.6450    -2.8450 H     1 <1>   0.0800 
 36 H        6.1140    -1.3120    -1.6660 H     1 <1>   0.0800 
 37 H        3.6390     1.8010    -0.3180 H     1 <1>   0.0800 
 38 H        3.4380     1.3330    -1.9830 H     1 <1>   0.0800 
 39 H       -6.2290     0.0920     1.5640 H     1 <1>   0.1500 
 40 H       -6.0690     0.6970    -2.1140 H     1 <1>   0.0800 
 41 H       -6.8250     1.2790    -0.6550 H     1 <1>   0.0800 
 42 H       -7.1130    -0.3600    -1.1940 H     1 <1>   0.0800 
 43 H        6.1300     2.6180    -0.1980 H     1 <1>   0.1500 
 44 H        6.9210    -1.2400     2.5710 H     1 <1>   0.1500 
 45 H        7.4860     2.9200     1.8740 H     1 <1>   0.1500 
 46 H        7.8690     0.8950     3.2730 H     1 <1>   0.1500 
@<TRIPOS>BOND
  1   1   2  1   
  2   1   3  1   
  3   2   4  2   
  4   3   5  2   
  5   3   6  1   
  6   4   5  1   
  7   4   7  1   
  8   6   8  1   
  9   6  26  1   
 10   6  27  1   
 11   7   9  ar  
 12   7  10  ar  
 13   8  11  1   
 14   8  12  1   
 15   9  13  ar  
 16   9  28  1   
 17  10  14  ar  
 18  10  29  1   
 19  11  15  1   
 20  11  30  1   
 21  11  31  1   
 22  12  16  1   
 23  12  32  1   
 24  12  33  1   
 25  13  17  ar  
 26  13  18  1   
 27  14  17  ar  
 28  14  34  1   
 29  15  19  1   
 30  15  35  1   
 31  15  36  1   
 32  16  19  1   
 33  16  37  1   
 34  16  38  1   
 35  17  39  1   
 36  18  40  1   
 37  18  41  1   
 38  18  42  1   
 39  19  20  1   
 40  20  21  ar  
 41  20  22  ar  
 42  21  23  ar  
 43  22  24  ar  
 44  22  43  1   
 45  23  25  ar  
 46  23  44  1   
 47  24  25  ar  
 48  24  45  1   
 49  25  46  1   
@<TRIPOS>SUBSTRUCTURE
  1 ****  12 GROUP 4 **** **** 0

# MOE 2024.06 (io_trps.svl 2023.06)
