@<TRIPOS>MOLECULE
3,5-Dimethyl-N-(2-morpholin-4-yl-phenyl)-benzamide
45 47 1 0 0 
SMALL
USER_CHARGES


@<TRIPOS>ATOM
  1 O        0.0600    -0.1460    -0.2270 O.2   1 <1>  -0.5700 
  2 C       -1.0100    -0.6540     0.0490 C.2   1 <1>   0.5440 
  3 N       -2.1650     0.0820    -0.0320 N.am  1 <1>  -0.5470 
  4 C       -1.0850    -2.0490     0.4480 C.ar  1 <1>   0.0860 
  5 C       -2.4780     1.4170    -0.3290 C.ar  1 <1>   0.1170 
  6 C       -2.1210    -2.5360     1.2490 C.ar  1 <1>  -0.1500 
  7 C       -0.1150    -2.9640     0.0350 C.ar  1 <1>  -0.1500 
  8 C       -3.8440     1.7390    -0.3630 C.ar  1 <1>   0.1000 
  9 C       -1.5350     2.4050    -0.5780 C.ar  1 <1>  -0.1500 
 10 C       -2.1980    -3.8710     1.6070 C.ar  1 <1>  -0.1440 
 11 C       -0.1740    -4.3000     0.3880 C.ar  1 <1>  -0.1430 
 12 N       -4.8080     0.7430    -0.1060 N.pl3 1 <1>  -0.8380 
 13 C       -4.2220     3.0430    -0.6540 C.ar  1 <1>  -0.1500 
 14 C       -1.9290     3.7010    -0.8640 C.ar  1 <1>  -0.1500 
 15 C       -1.2210    -4.7500     1.1730 C.ar  1 <1>  -0.1500 
 16 C       -3.3360    -4.3770     2.4760 C.3   1 <1>  -0.0970 
 17 C        0.8940    -5.2720    -0.0780 C.3   1 <1>  -0.0970 
 18 C       -5.6560     0.8930     1.1180 C.3   1 <1>   0.2090 
 19 C       -5.5440     0.1940    -1.2870 C.3   1 <1>   0.2090 
 20 C       -3.2740     4.0200    -0.9030 C.ar  1 <1>  -0.1500 
 21 C       -7.0590     1.4490     0.8060 C.3   1 <1>   0.1200 
 22 C       -6.9440     0.8160    -1.4440 C.3   1 <1>   0.1200 
 23 O       -7.6640     0.7500    -0.2450 O.3   1 <1>  -0.5600 
 24 H       -3.0370    -0.4330     0.1120 H     1 <1>   0.3700 
 25 H       -2.8750    -1.8580     1.6040 H     1 <1>   0.1500 
 26 H        0.6970    -2.6060    -0.5750 H     1 <1>   0.1500 
 27 H       -0.4870     2.1700    -0.5500 H     1 <1>   0.1500 
 28 H       -5.2630     3.2980    -0.6900 H     1 <1>   0.1500 
 29 H       -1.1860     4.4550    -1.0560 H     1 <1>   0.1500 
 30 H       -1.2730    -5.7890     1.4490 H     1 <1>   0.1500 
 31 H       -4.1480    -3.6730     2.4930 H     1 <1>   0.0800 
 32 H       -2.9860    -4.5270     3.4810 H     1 <1>   0.0800 
 33 H       -3.7060    -5.3120     2.0930 H     1 <1>   0.0800 
 34 H        1.7490    -4.7450    -0.4640 H     1 <1>   0.0800 
 35 H        0.4990    -5.9030    -0.8540 H     1 <1>   0.0800 
 36 H        1.2170    -5.8880     0.7420 H     1 <1>   0.0800 
 37 H       -5.1630     1.5440     1.8190 H     1 <1>   0.0800 
 38 H       -5.7620    -0.0700     1.5850 H     1 <1>   0.0800 
 39 H       -5.6480    -0.8710    -1.1700 H     1 <1>   0.0800 
 40 H       -4.9730     0.3710    -2.1820 H     1 <1>   0.0800 
 41 H       -3.5810     5.0270    -1.1270 H     1 <1>   0.1500 
 42 H       -7.0050     2.4890     0.5400 H     1 <1>   0.0800 
 43 H       -7.6920     1.3520     1.6700 H     1 <1>   0.0800 
 44 H       -7.5020     0.2810    -2.1910 H     1 <1>   0.0800 
 45 H       -6.8670     1.8450    -1.7460 H     1 <1>   0.0800 
@<TRIPOS>BOND
  1   1   2  2   
  2   2   3  am  
  3   2   4  1   
  4   3   5  1   
  5   3  24  1   
  6   4   6  ar  
  7   4   7  ar  
  8   5   8  ar  
  9   5   9  ar  
 10   6  10  ar  
 11   6  25  1   
 12   7  11  ar  
 13   7  26  1   
 14   8  12  1   
 15   8  13  ar  
 16   9  14  ar  
 17   9  27  1   
 18  10  15  ar  
 19  10  16  1   
 20  11  15  ar  
 21  11  17  1   
 22  12  18  1   
 23  12  19  1   
 24  13  20  ar  
 25  13  28  1   
 26  14  20  ar  
 27  14  29  1   
 28  15  30  1   
 29  16  31  1   
 30  16  32  1   
 31  16  33  1   
 32  17  34  1   
 33  17  35  1   
 34  17  36  1   
 35  18  21  1   
 36  18  37  1   
 37  18  38  1   
 38  19  22  1   
 39  19  39  1   
 40  19  40  1   
 41  20  41  1   
 42  21  23  1   
 43  21  42  1   
 44  21  43  1   
 45  22  23  1   
 46  22  44  1   
 47  22  45  1   
@<TRIPOS>SUBSTRUCTURE
  1 ****   3 GROUP 4 **** **** 0

# MOE 2024.06 (io_trps.svl 2023.06)
