@<TRIPOS>MOLECULE
N-[4-(4-Methyl-piperazine-1-sulfonyl)-phenyl]-2-phenoxy-propionamide
54 56 1 0 0 
SMALL
USER_CHARGES


@<TRIPOS>ATOM
  1 S       -0.6200     1.2940     2.1640 S.o2  1 <1>   1.4470 
  2 O       -0.6100     0.5440     3.3990 O.2   1 <1>  -0.6500 
  3 O       -0.1130     2.6480     2.1390 O.2   1 <1>  -0.6500 
  4 N        0.3930     0.4370     1.1010 N.am  1 <1>  -0.8490 
  5 C       -2.2490     1.1860     1.3770 C.ar  1 <1>  -0.0090 
  6 C        1.6770     0.1230     1.7570 C.3   1 <1>   0.1960 
  7 C        0.6020     1.1530    -0.1740 C.3   1 <1>   0.1960 
  8 C       -2.9830     0.0060     1.4080 C.ar  1 <1>  -0.1500 
  9 C       -2.7990     2.2680     0.6990 C.ar  1 <1>  -0.1500 
 10 C        2.6250    -0.6700     0.8320 C.3   1 <1>   0.3430 
 11 C        1.5290     0.3680    -1.1290 C.3   1 <1>   0.3430 
 12 C       -4.2140    -0.0910     0.7830 C.ar  1 <1>  -0.1500 
 13 C       -4.0270     2.1740     0.0710 C.ar  1 <1>  -0.1500 
 14 N        2.8500     0.0250    -0.4870 N.4   1 <1>  -0.9590 
 15 C       -4.7550     0.9900     0.0990 C.ar  1 <1>   0.1170 
 16 C        3.6960    -0.8060    -1.3980 C.3   1 <1>   0.2630 
 17 N       -6.0070     0.8430    -0.5090 N.am  1 <1>  -0.5470 
 18 C       -6.6400     1.5570    -1.4930 C.2   1 <1>   0.5690 
 19 O       -6.1390     2.5020    -2.0550 O.2   1 <1>  -0.5700 
 20 C       -8.0590     1.1280    -1.9030 C.3   1 <1>   0.2610 
 21 O       -8.6480     0.2890    -0.9170 O.3   1 <1>  -0.3630 
 22 C       -8.0630     0.3370    -3.2140 C.3   1 <1>  -0.2400 
 23 C       -9.0640     0.7590     0.2870 C.ar  1 <1>   0.0830 
 24 C       -9.6030    -0.1730     1.1600 C.ar  1 <1>  -0.1500 
 25 C       -8.9670     2.0910     0.6820 C.ar  1 <1>  -0.1500 
 26 C      -10.0380     0.2110     2.4160 C.ar  1 <1>  -0.1500 
 27 C       -9.4020     2.4730     1.9390 C.ar  1 <1>  -0.1500 
 28 C       -9.9360     1.5350     2.8060 C.ar  1 <1>  -0.1500 
 29 H        1.4940    -0.4720     2.6370 H     1 <1>   0.0800 
 30 H        2.1590     1.0330     2.0770 H     1 <1>   0.0800 
 31 H        1.0300     2.1250     0.0080 H     1 <1>   0.0800 
 32 H       -0.3470     1.2990    -0.6620 H     1 <1>   0.0800 
 33 H       -2.5860    -0.8480     1.9330 H     1 <1>   0.1500 
 34 H       -2.2640     3.2030     0.6640 H     1 <1>   0.1500 
 35 H        2.1890    -1.6400     0.6600 H     1 <1>   0.0800 
 36 H        3.5670    -0.8160     1.3360 H     1 <1>   0.0800 
 37 H        1.6950     0.9540    -2.0180 H     1 <1>   0.0800 
 38 H        1.0220    -0.5370    -1.4210 H     1 <1>   0.0800 
 39 H       -4.7600    -1.0170     0.8280 H     1 <1>   0.1500 
 40 H       -4.4230     3.0350    -0.4370 H     1 <1>   0.1500 
 41 H        3.3440     0.9090    -0.2930 H     1 <1>   0.4500 
 42 H        3.2050    -1.7410    -1.6170 H     1 <1>   0.0800 
 43 H        4.6470    -1.0180    -0.9370 H     1 <1>   0.0800 
 44 H        3.8740    -0.2850    -2.3250 H     1 <1>   0.0800 
 45 H       -6.5940     0.0970    -0.1270 H     1 <1>   0.3700 
 46 H       -8.6790     1.9990    -2.0190 H     1 <1>   0.0800 
 47 H       -9.0690     0.0690    -3.4810 H     1 <1>   0.0800 
 48 H       -7.4660    -0.5530    -3.1170 H     1 <1>   0.0800 
 49 H       -7.6490     0.9410    -4.0020 H     1 <1>   0.0800 
 50 H       -9.6830    -1.2000     0.8520 H     1 <1>   0.1500 
 51 H       -8.5580     2.8470     0.0380 H     1 <1>   0.1500 
 52 H      -10.4550    -0.5180     3.0890 H     1 <1>   0.1500 
 53 H       -9.3260     3.5020     2.2450 H     1 <1>   0.1500 
 54 H      -10.2730     1.8360     3.7830 H     1 <1>   0.1500 
@<TRIPOS>BOND
  1   1   2  2   
  2   1   3  2   
  3   1   4  am  
  4   1   5  1   
  5   4   6  1   
  6   4   7  1   
  7   5   8  ar  
  8   5   9  ar  
  9   6  10  1   
 10   6  29  1   
 11   6  30  1   
 12   7  11  1   
 13   7  31  1   
 14   7  32  1   
 15   8  12  ar  
 16   8  33  1   
 17   9  13  ar  
 18   9  34  1   
 19  10  14  1   
 20  10  35  1   
 21  10  36  1   
 22  11  14  1   
 23  11  37  1   
 24  11  38  1   
 25  12  15  ar  
 26  12  39  1   
 27  13  15  ar  
 28  13  40  1   
 29  14  16  1   
 30  14  41  1   
 31  15  17  1   
 32  16  42  1   
 33  16  43  1   
 34  16  44  1   
 35  17  18  am  
 36  17  45  1   
 37  18  19  2   
 38  18  20  1   
 39  20  21  1   
 40  20  22  1   
 41  20  46  1   
 42  21  23  1   
 43  22  47  1   
 44  22  48  1   
 45  22  49  1   
 46  23  24  ar  
 47  23  25  ar  
 48  24  26  ar  
 49  24  50  1   
 50  25  27  ar  
 51  25  51  1   
 52  26  28  ar  
 53  26  52  1   
 54  27  28  ar  
 55  27  53  1   
 56  28  54  1   
@<TRIPOS>SUBSTRUCTURE
  1 ****  15 GROUP 4 **** **** 0

# MOE 2024.06 (io_trps.svl 2023.06)
