@<TRIPOS>MOLECULE
4-Ethoxy-N-(4-fluoro-phenyl)-N-(2-oxo-2-pyrrolidin-1-yl-ethyl)-benzenesulfonamid
51 53 1 0 0 
SMALL
USER_CHARGES


@<TRIPOS>ATOM
  1 S        0.3710    -0.9770    -0.0830 S.o2  1 <1>   1.4470 
  2 O        0.9270    -1.8220    -1.1160 O.2   1 <1>  -0.6500 
  3 O        0.8570    -1.0280     1.2760 O.2   1 <1>  -0.6500 
  4 N        0.5510     0.6570    -0.6370 N.am  1 <1>  -0.6930 
  5 C       -1.4350    -1.1470    -0.1030 C.ar  1 <1>  -0.0090 
  6 C       -0.0390     1.6980     0.0650 C.ar  1 <1>   0.1990 
  7 C        1.8010     0.9460    -1.4060 C.3   1 <1>   0.2570 
  8 C       -2.1040    -1.6310    -1.2230 C.ar  1 <1>  -0.1500 
  9 C       -2.2010    -0.7590     0.9910 C.ar  1 <1>  -0.1500 
 10 C        0.3790     2.0320     1.3520 C.ar  1 <1>  -0.1500 
 11 C       -1.0670     2.4260    -0.5280 C.ar  1 <1>  -0.1500 
 12 C        3.0380     1.1670    -0.5270 C.2   1 <1>   0.5690 
 13 C       -3.4850    -1.7270    -1.2560 C.ar  1 <1>  -0.1500 
 14 C       -3.5820    -0.8490     0.9680 C.ar  1 <1>  -0.1500 
 15 C       -0.2140     3.0770     2.0390 C.ar  1 <1>  -0.1500 
 16 C       -1.6710     3.4740     0.1460 C.ar  1 <1>  -0.1500 
 17 O        3.6810     0.1980    -0.1980 O.2   1 <1>  -0.5700 
 18 N        3.4160     2.4280    -0.1370 N.am  1 <1>  -0.6600 
 19 C       -4.2340    -1.3320    -0.1530 C.ar  1 <1>   0.0830 
 20 C       -1.2300     3.7800     1.4200 C.ar  1 <1>   0.1900 
 21 C        4.5320     2.6430     0.8110 C.3   1 <1>   0.1400 
 22 C        2.7740     3.7130    -0.4950 C.3   1 <1>   0.1400 
 23 O       -5.5860    -1.3860    -0.0960 O.3   1 <1>  -0.3620 
 24 F       -1.7920     4.7720     2.0610 F     1 <1>  -0.1900 
 25 C        4.6590     4.1570     0.9390 C.3   1 <1>  -0.1600 
 26 C        3.2860     4.6980     0.5470 C.3   1 <1>  -0.1600 
 27 C       -6.3500    -1.8800    -1.1720 C.3   1 <1>   0.1200 
 28 C       -7.8220    -1.8110    -0.7770 C.3   1 <1>  -0.2400 
 29 H        1.6430     1.8150    -2.0140 H     1 <1>   0.0800 
 30 H        2.0120     0.1310    -2.0750 H     1 <1>   0.0800 
 31 H       -1.5330    -1.9380    -2.0830 H     1 <1>   0.1500 
 32 H       -1.7110    -0.3790     1.8720 H     1 <1>   0.1500 
 33 H        1.1750     1.4710     1.8120 H     1 <1>   0.1500 
 34 H       -1.3940     2.1620    -1.5170 H     1 <1>   0.1500 
 35 H       -3.9550    -2.1080    -2.1420 H     1 <1>   0.1500 
 36 H       -4.1620    -0.5450     1.8210 H     1 <1>   0.1500 
 37 H        0.1010     3.3410     3.0320 H     1 <1>   0.1500 
 38 H       -2.4680     4.0430    -0.2990 H     1 <1>   0.1500 
 39 H        5.4390     2.1950     0.4400 H     1 <1>   0.0800 
 40 H        4.2750     2.2000     1.7590 H     1 <1>   0.0800 
 41 H        1.7010     3.6500    -0.4750 H     1 <1>   0.0800 
 42 H        3.1040     4.0080    -1.4770 H     1 <1>   0.0800 
 43 H        5.4020     4.5040     0.2430 H     1 <1>   0.0800 
 44 H        4.9480     4.4500     1.9330 H     1 <1>   0.0800 
 45 H        2.6290     4.6780     1.3990 H     1 <1>   0.0800 
 46 H        3.3330     5.7010     0.1630 H     1 <1>   0.0800 
 47 H       -6.0550    -2.8980    -1.3610 H     1 <1>   0.0800 
 48 H       -6.1590    -1.2670    -2.0360 H     1 <1>   0.0800 
 49 H       -8.0000    -2.4130     0.0960 H     1 <1>   0.0800 
 50 H       -8.4330    -2.1820    -1.5800 H     1 <1>   0.0800 
 51 H       -8.1030    -0.7930    -0.5740 H     1 <1>   0.0800 
@<TRIPOS>BOND
  1   1   2  2   
  2   1   3  2   
  3   1   4  am  
  4   1   5  1   
  5   4   6  1   
  6   4   7  1   
  7   5   8  ar  
  8   5   9  ar  
  9   6  10  ar  
 10   6  11  ar  
 11   7  12  1   
 12   7  29  1   
 13   7  30  1   
 14   8  13  ar  
 15   8  31  1   
 16   9  14  ar  
 17   9  32  1   
 18  10  15  ar  
 19  10  33  1   
 20  11  16  ar  
 21  11  34  1   
 22  12  17  2   
 23  12  18  am  
 24  13  19  ar  
 25  13  35  1   
 26  14  19  ar  
 27  14  36  1   
 28  15  20  ar  
 29  15  37  1   
 30  16  20  ar  
 31  16  38  1   
 32  18  21  1   
 33  18  22  1   
 34  19  23  1   
 35  20  24  1   
 36  21  25  1   
 37  21  39  1   
 38  21  40  1   
 39  22  26  1   
 40  22  41  1   
 41  22  42  1   
 42  23  27  1   
 43  25  26  1   
 44  25  43  1   
 45  25  44  1   
 46  26  45  1   
 47  26  46  1   
 48  27  28  1   
 49  27  47  1   
 50  27  48  1   
 51  28  49  1   
 52  28  50  1   
 53  28  51  1   
@<TRIPOS>SUBSTRUCTURE
  1 ****   6 GROUP 4 **** **** 0

# MOE 2024.06 (io_trps.svl 2023.06)
