@<TRIPOS>MOLECULE
3-Isopropyl-6-pyrazin-2-yl-[1,2,4]triazolo[3,4-b][1,3,4]thiadiazole
27 29 1 0 0 
SMALL
USER_CHARGES


@<TRIPOS>ATOM
  1 S       -0.6640    -0.0450    -1.0570 S.3   1 <1>  -0.1970 
  2 C        0.3080     1.4030    -0.9900 C.2   1 <1>   0.2420 
  3 C       -2.0020     0.8380    -0.2570 C.2   1 <1>   0.5050 
  4 N        1.4950     1.7420    -1.3440 N.2   1 <1>  -0.3380 
  5 N       -0.4020     2.3570    -0.4190 N.pl3 1 <1>   0.5050 
  6 N       -1.6950     2.0640     0.0050 N.2   1 <1>  -0.6520 
  7 C       -3.2350     0.1100    -0.0120 C.ar  1 <1>   0.3960 
  8 N        1.5940     3.0360    -0.9830 N.2   1 <1>  -0.3380 
  9 C        0.4650     3.3840    -0.4360 C.2   1 <1>   0.0060 
 10 N       -4.3960     0.7830     0.0050 N.ar  1 <1>  -0.6200 
 11 C       -3.2100    -1.2770     0.2090 C.ar  1 <1>   0.1600 
 12 C        0.1020     4.7560     0.1210 C.3   1 <1>   0.1000 
 13 C       -5.4500     0.0230     0.2350 C.ar  1 <1>   0.1600 
 14 N       -4.2640    -2.0410     0.4380 N.ar  1 <1>  -0.6200 
 15 C       -0.5970     5.5920    -0.9570 C.3   1 <1>  -0.2400 
 16 C        1.3380     5.4990     0.6470 C.3   1 <1>  -0.2400 
 17 C       -5.3880    -1.3480     0.4450 C.ar  1 <1>   0.1600 
 18 H       -2.2620    -1.7840     0.2020 H     1 <1>   0.1500 
 19 H       -0.5790     4.6210     0.9440 H     1 <1>   0.0800 
 20 H       -6.4110     0.5060     0.2610 H     1 <1>   0.1500 
 21 H        0.0560     5.7310    -1.8010 H     1 <1>   0.0800 
 22 H       -0.8700     6.5560    -0.5670 H     1 <1>   0.0800 
 23 H       -1.4890     5.0930    -1.2920 H     1 <1>   0.0800 
 24 H        2.0350     5.6820    -0.1530 H     1 <1>   0.0800 
 25 H        1.8300     4.9070     1.3980 H     1 <1>   0.0800 
 26 H        1.0540     6.4400     1.0810 H     1 <1>   0.0800 
 27 H       -6.3020    -1.8890     0.6250 H     1 <1>   0.1500 
@<TRIPOS>BOND
  1   1   2  1   
  2   1   3  1   
  3   2   4  2   
  4   2   5  1   
  5   3   6  2   
  6   3   7  1   
  7   4   8  1   
  8   5   6  1   
  9   5   9  1   
 10   7  10  ar  
 11   7  11  ar  
 12   8   9  2   
 13   9  12  1   
 14  10  13  ar  
 15  11  14  ar  
 16  11  18  1   
 17  12  15  1   
 18  12  16  1   
 19  12  19  1   
 20  13  17  ar  
 21  13  20  1   
 22  14  17  ar  
 23  15  21  1   
 24  15  22  1   
 25  15  23  1   
 26  16  24  1   
 27  16  25  1   
 28  16  26  1   
 29  17  27  1   
@<TRIPOS>SUBSTRUCTURE
  1 ****   6 GROUP 4 **** **** 0

# MOE 2024.06 (io_trps.svl 2023.06)
