@<TRIPOS>MOLECULE
Furan-2-carboxylic acid [4-(2-ethyl-butyrylamino)-phenyl]-amide
42 43 1 0 0 
SMALL
USER_CHARGES


@<TRIPOS>ATOM
  1 O       -0.8010     0.7000     1.5460 O.2   1 <1>  -0.5700 
  2 C       -1.3420     1.1200     0.5410 C.2   1 <1>   0.7150 
  3 N       -0.6690     1.9870    -0.2880 N.am  1 <1>  -0.5470 
  4 C       -2.6960     0.7430     0.1940 C.2   1 <1>   0.0550 
  5 C        0.6580     2.4490    -0.2650 C.ar  1 <1>   0.1170 
  6 O       -3.4620     0.0650     1.0450 O.3   1 <1>  -0.2800 
  7 C       -3.4210     0.9630    -0.9430 C.2   1 <1>  -0.1500 
  8 C        1.7040     1.7270     0.2980 C.ar  1 <1>  -0.1500 
  9 C        0.9510     3.6740    -0.8520 C.ar  1 <1>  -0.1500 
 10 C       -4.6350    -0.1470     0.4950 C.2   1 <1>  -0.0100 
 11 C       -4.6760     0.3870    -0.7440 C.2   1 <1>  -0.1500 
 12 C        2.9980     2.2160     0.2780 C.ar  1 <1>  -0.1500 
 13 C        2.2440     4.1630    -0.8720 C.ar  1 <1>  -0.1500 
 14 C        3.2900     3.4440    -0.3060 C.ar  1 <1>   0.1170 
 15 N        4.5880     3.9820    -0.3660 N.am  1 <1>  -0.5470 
 16 C        5.7100     3.7170     0.3730 C.2   1 <1>   0.5690 
 17 O        5.7360     2.9260     1.2840 O.2   1 <1>  -0.5700 
 18 C        6.9880     4.4850     0.0210 C.3   1 <1>  -0.0190 
 19 C        8.0950     3.4830    -0.3840 C.3   1 <1>  -0.1600 
 20 C        7.3930     5.4110     1.1940 C.3   1 <1>  -0.1600 
 21 C        9.3890     4.1250    -0.8980 C.3   1 <1>  -0.2400 
 22 C        7.9670     6.7630     0.7420 C.3   1 <1>  -0.2400 
 23 H       -1.2560     2.4120    -0.9990 H     1 <1>   0.3700 
 24 H       -3.1220     1.4700    -1.8420 H     1 <1>   0.1500 
 25 H        1.5160     0.7730     0.7570 H     1 <1>   0.1500 
 26 H        0.1620     4.2550    -1.2930 H     1 <1>   0.1500 
 27 H       -5.3820    -0.6860     1.0510 H     1 <1>   0.1500 
 28 H       -5.4900     0.3810    -1.4480 H     1 <1>   0.1500 
 29 H        3.7800     1.6280     0.7210 H     1 <1>   0.1500 
 30 H        2.4410     5.1150    -1.3280 H     1 <1>   0.1500 
 31 H        4.7020     4.7220    -1.0540 H     1 <1>   0.3700 
 32 H        6.7700     5.0980    -0.8360 H     1 <1>   0.0800 
 33 H        7.7060     2.8440    -1.1590 H     1 <1>   0.0800 
 34 H        8.3270     2.8510     0.4570 H     1 <1>   0.0800 
 35 H        8.0970     4.9040     1.8320 H     1 <1>   0.0800 
 36 H        6.5230     5.6160     1.7950 H     1 <1>   0.0800 
 37 H        9.1800     4.8260    -1.6870 H     1 <1>   0.0800 
 38 H       10.0430     3.3630    -1.2840 H     1 <1>   0.0800 
 39 H        9.9040     4.6290    -0.1010 H     1 <1>   0.0800 
 40 H        8.8560     6.6390     0.1540 H     1 <1>   0.0800 
 41 H        8.2160     7.3550     1.6050 H     1 <1>   0.0800 
 42 H        7.2410     7.3040     0.1610 H     1 <1>   0.0800 
@<TRIPOS>BOND
  1   1   2  2   
  2   2   3  am  
  3   2   4  1   
  4   3   5  1   
  5   3  23  1   
  6   4   6  1   
  7   4   7  2   
  8   5   8  ar  
  9   5   9  ar  
 10   6  10  1   
 11   7  11  1   
 12   7  24  1   
 13   8  12  ar  
 14   8  25  1   
 15   9  13  ar  
 16   9  26  1   
 17  10  11  2   
 18  10  27  1   
 19  11  28  1   
 20  12  14  ar  
 21  12  29  1   
 22  13  14  ar  
 23  13  30  1   
 24  14  15  1   
 25  15  16  am  
 26  15  31  1   
 27  16  17  2   
 28  16  18  1   
 29  18  19  1   
 30  18  20  1   
 31  18  32  1   
 32  19  21  1   
 33  19  33  1   
 34  19  34  1   
 35  20  22  1   
 36  20  35  1   
 37  20  36  1   
 38  21  37  1   
 39  21  38  1   
 40  21  39  1   
 41  22  40  1   
 42  22  41  1   
 43  22  42  1   
@<TRIPOS>SUBSTRUCTURE
  1 ****  12 GROUP 4 **** **** 0

# MOE 2024.06 (io_trps.svl 2023.06)
