@<TRIPOS>MOLECULE
1-(2,5-Dimethoxy-benzenesulfonyl)-piperidine-4-carboxylic acid (2,4-difluoro-phe
52 54 1 0 0 
SMALL
USER_CHARGES


@<TRIPOS>ATOM
  1 S       -0.1010    -0.4440     1.6350 S.o2  1 <1>   1.4470 
  2 O        0.1790    -1.7250     2.2500 O.2   1 <1>  -0.6500 
  3 O       -0.4890     0.6420     2.5100 O.2   1 <1>  -0.6500 
  4 N        1.3370     0.0370     0.8690 N.am  1 <1>  -0.8490 
  5 C       -1.2770    -0.7270     0.2810 C.ar  1 <1>  -0.0090 
  6 C        2.4660    -0.0380     1.8020 C.3   1 <1>   0.1960 
  7 C        1.2190     1.3680     0.2650 C.3   1 <1>   0.1960 
  8 C       -2.0920     0.2820    -0.2290 C.ar  1 <1>   0.0820 
  9 C       -1.3720    -1.9880    -0.2970 C.ar  1 <1>  -0.1500 
 10 C        3.7810     0.2830     1.0870 C.3   1 <1>  -0.1600 
 11 C        2.4970     1.7320    -0.4950 C.3   1 <1>  -0.1600 
 12 O       -2.0220     1.5380     0.2600 O.3   1 <1>  -0.3620 
 13 C       -2.9730     0.0370    -1.2720 C.ar  1 <1>  -0.1500 
 14 C       -2.2570    -2.2470    -1.3400 C.ar  1 <1>   0.0820 
 15 C        3.7290     1.6670     0.4200 C.3   1 <1>  -0.0190 
 16 C       -3.0660     1.9320     1.1240 C.3   1 <1>   0.0400 
 17 C       -3.0570    -1.2260    -1.8220 C.ar  1 <1>  -0.1500 
 18 O       -2.3930    -3.4610    -1.9320 O.3   1 <1>  -0.3630 
 19 C        5.0170     1.9820    -0.3410 C.2   1 <1>   0.5690 
 20 C       -1.6220    -4.5670    -1.5170 C.3   1 <1>   0.0400 
 21 O        5.3710     1.2410    -1.2250 O.2   1 <1>  -0.5700 
 22 N        5.7090     3.1050     0.0250 N.am  1 <1>  -0.5470 
 23 C        6.9060     3.6870    -0.4460 C.ar  1 <1>   0.1170 
 24 C        7.3480     4.8860     0.1230 C.ar  1 <1>   0.1900 
 25 C        7.6940     3.1370    -1.4590 C.ar  1 <1>  -0.1500 
 26 F        6.6320     5.4290     1.0780 F     1 <1>  -0.1900 
 27 C        8.5020     5.5350    -0.2650 C.ar  1 <1>  -0.1500 
 28 C        8.8610     3.7630    -1.8730 C.ar  1 <1>  -0.1500 
 29 C        9.2430     4.9480    -1.2700 C.ar  1 <1>   0.1900 
 30 F       10.3430     5.5330    -1.6660 F     1 <1>  -0.1900 
 31 H        2.5350    -1.0340     2.2090 H     1 <1>   0.0800 
 32 H        2.3090     0.6470     2.6190 H     1 <1>   0.0800 
 33 H        1.0190     2.1040     1.0280 H     1 <1>   0.0800 
 34 H        0.4010     1.3790    -0.4340 H     1 <1>   0.0800 
 35 H       -0.7390    -2.7670     0.0860 H     1 <1>   0.1500 
 36 H        3.9650    -0.4750     0.3460 H     1 <1>   0.0800 
 37 H        4.5890     0.2500     1.7960 H     1 <1>   0.0800 
 38 H        2.3980     2.7210    -0.9050 H     1 <1>   0.0800 
 39 H        2.6160     1.0470    -1.3180 H     1 <1>   0.0800 
 40 H       -3.5840     0.8350    -1.6530 H     1 <1>   0.1500 
 41 H        3.6030     2.4010     1.1960 H     1 <1>   0.0800 
 42 H       -2.8560     2.9280     1.4710 H     1 <1>   0.0800 
 43 H       -3.1010     1.2550     1.9600 H     1 <1>   0.0800 
 44 H       -3.9960     1.9160     0.5860 H     1 <1>   0.0800 
 45 H       -3.7380    -1.4290    -2.6300 H     1 <1>   0.1500 
 46 H       -1.8990    -5.4120    -2.1200 H     1 <1>   0.0800 
 47 H       -1.8330    -4.7730    -0.4820 H     1 <1>   0.0800 
 48 H       -0.5800    -4.3410    -1.6610 H     1 <1>   0.0800 
 49 H        5.2830     3.6420     0.7810 H     1 <1>   0.3700 
 50 H        7.4100     2.2170    -1.9350 H     1 <1>   0.1500 
 51 H        8.8140     6.4560     0.1930 H     1 <1>   0.1500 
 52 H        9.4670     3.3390    -2.6540 H     1 <1>   0.1500 
@<TRIPOS>BOND
  1   1   2  2   
  2   1   3  2   
  3   1   4  am  
  4   1   5  1   
  5   4   6  1   
  6   4   7  1   
  7   5   8  ar  
  8   5   9  ar  
  9   6  10  1   
 10   6  31  1   
 11   6  32  1   
 12   7  11  1   
 13   7  33  1   
 14   7  34  1   
 15   8  12  1   
 16   8  13  ar  
 17   9  14  ar  
 18   9  35  1   
 19  10  15  1   
 20  10  36  1   
 21  10  37  1   
 22  11  15  1   
 23  11  38  1   
 24  11  39  1   
 25  12  16  1   
 26  13  17  ar  
 27  13  40  1   
 28  14  17  ar  
 29  14  18  1   
 30  15  19  1   
 31  15  41  1   
 32  16  42  1   
 33  16  43  1   
 34  16  44  1   
 35  17  45  1   
 36  18  20  1   
 37  19  21  2   
 38  19  22  am  
 39  20  46  1   
 40  20  47  1   
 41  20  48  1   
 42  22  23  1   
 43  22  49  1   
 44  23  24  ar  
 45  23  25  ar  
 46  24  26  1   
 47  24  27  ar  
 48  25  28  ar  
 49  25  50  1   
 50  27  29  ar  
 51  27  51  1   
 52  28  29  ar  
 53  28  52  1   
 54  29  30  1   
@<TRIPOS>SUBSTRUCTURE
  1 ****  11 GROUP 4 **** **** 0

# MOE 2024.06 (io_trps.svl 2023.06)
