@<TRIPOS>MOLECULE
4-[3-(4-Chloro-phenyl)-[1,2,4]oxadiazol-5-yl]-1-morpholin-4-yl-butan-1-one
41 43 1 0 0 
SMALL
USER_CHARGES


@<TRIPOS>ATOM
  1 CL       0.8930    -0.0310     1.8800 Cl    1 <1>  -0.1770 
  2 C        2.1480     0.9510     1.1700 C.ar  1 <1>   0.1770 
  3 C        2.3930     2.2120     1.6750 C.ar  1 <1>  -0.1500 
  4 C        2.8830     0.4560     0.1110 C.ar  1 <1>  -0.1500 
  5 C        3.3910     2.9870     1.1080 C.ar  1 <1>  -0.1500 
  6 C        3.8770     1.2390    -0.4480 C.ar  1 <1>  -0.1500 
  7 C        4.1580     2.5220     0.0340 C.ar  1 <1>   0.0540 
  8 C        5.2070     3.3340    -0.5610 C.2   1 <1>   0.4620 
  9 N        5.9810     2.9740    -1.5240 N.2   1 <1>  -0.4100 
 10 N        5.4830     4.5740    -0.1450 N.2   1 <1>  -0.5650 
 11 O        6.7840     3.9570    -1.7780 O.3   1 <1>  -0.0190 
 12 C        6.4420     4.8790    -0.9160 C.2   1 <1>   0.2980 
 13 C        7.2050     6.1920    -0.9110 C.3   1 <1>   0.0200 
 14 C        8.4660     6.1500    -0.0300 C.3   1 <1>  -0.1600 
 15 C        9.4550     5.0320    -0.4260 C.3   1 <1>  -0.0990 
 16 C       10.7650     5.0370     0.3560 C.2   1 <1>   0.5690 
 17 O       10.9490     5.9110     1.1690 O.2   1 <1>  -0.5700 
 18 N       11.7040     4.0640     0.1240 N.am  1 <1>  -0.6600 
 19 C       12.9900     4.0290     0.8840 C.3   1 <1>   0.1400 
 20 C       11.5750     2.9250    -0.8360 C.3   1 <1>   0.1400 
 21 C       13.2260     2.6340     1.4860 C.3   1 <1>   0.1200 
 22 C       11.8830     1.5920    -0.1330 C.3   1 <1>   0.1200 
 23 O       13.1310     1.6450     0.4990 O.3   1 <1>  -0.5600 
 24 H        1.8100     2.5800     2.5000 H     1 <1>   0.1500 
 25 H        2.6750    -0.5290    -0.2680 H     1 <1>   0.1500 
 26 H        3.5790     3.9700     1.5050 H     1 <1>   0.1500 
 27 H        4.4470     0.8490    -1.2750 H     1 <1>   0.1500 
 28 H        6.5510     6.9630    -0.5420 H     1 <1>   0.0800 
 29 H        7.4710     6.4460    -1.9210 H     1 <1>   0.0800 
 30 H        8.1740     6.0090     0.9970 H     1 <1>   0.0800 
 31 H        8.9630     7.1030    -0.0970 H     1 <1>   0.0800 
 32 H        9.6910     5.1220    -1.4700 H     1 <1>   0.0800 
 33 H        8.9860     4.0810    -0.2590 H     1 <1>   0.0800 
 34 H       12.9860     4.7580     1.6770 H     1 <1>   0.0800 
 35 H       13.8010     4.2700     0.2190 H     1 <1>   0.0800 
 36 H       12.2740     3.0640    -1.6420 H     1 <1>   0.0800 
 37 H       10.5890     2.8760    -1.2590 H     1 <1>   0.0800 
 38 H       12.5010     2.4280     2.2540 H     1 <1>   0.0800 
 39 H       14.2100     2.5770     1.9150 H     1 <1>   0.0800 
 40 H       11.9140     0.7910    -0.8500 H     1 <1>   0.0800 
 41 H       11.1320     1.3680     0.6050 H     1 <1>   0.0800 
@<TRIPOS>BOND
  1   1   2  1   
  2   2   3  ar  
  3   2   4  ar  
  4   3   5  ar  
  5   3  24  1   
  6   4   6  ar  
  7   4  25  1   
  8   5   7  ar  
  9   5  26  1   
 10   6   7  ar  
 11   6  27  1   
 12   7   8  1   
 13   8   9  2   
 14   8  10  1   
 15   9  11  1   
 16  10  12  2   
 17  11  12  1   
 18  12  13  1   
 19  13  14  1   
 20  13  28  1   
 21  13  29  1   
 22  14  15  1   
 23  14  30  1   
 24  14  31  1   
 25  15  16  1   
 26  15  32  1   
 27  15  33  1   
 28  16  17  2   
 29  16  18  am  
 30  18  19  1   
 31  18  20  1   
 32  19  21  1   
 33  19  34  1   
 34  19  35  1   
 35  20  22  1   
 36  20  36  1   
 37  20  37  1   
 38  21  23  1   
 39  21  38  1   
 40  21  39  1   
 41  22  23  1   
 42  22  40  1   
 43  22  41  1   
@<TRIPOS>SUBSTRUCTURE
  1 ****  11 GROUP 4 **** **** 0

# MOE 2024.06 (io_trps.svl 2023.06)
