@<TRIPOS>MOLECULE
1-(2,5-Dimethoxy-benzenesulfonyl)-piperidine-4-carboxylic acid isopropylamide
51 52 1 0 0 
SMALL
USER_CHARGES


@<TRIPOS>ATOM
  1 S       -0.2530    -0.2650    -1.5530 S.o2  1 <1>   1.4470 
  2 O        0.0190    -1.4650    -2.3160 O.2   1 <1>  -0.6500 
  3 O       -0.7440     0.8870    -2.2820 O.2   1 <1>  -0.6500 
  4 N        1.2220     0.1950    -0.8500 N.am  1 <1>  -0.8490 
  5 C       -1.3110    -0.7300    -0.1540 C.ar  1 <1>  -0.0090 
  6 C        1.1070     1.4540    -0.1060 C.3   1 <1>   0.1960 
  7 C        2.2780     0.2600    -1.8640 C.3   1 <1>   0.1960 
  8 C       -2.1200     0.1880     0.5140 C.ar  1 <1>   0.0830 
  9 C       -1.3170    -2.0450     0.2990 C.ar  1 <1>  -0.1500 
 10 C        2.4260     1.7920     0.5930 C.3   1 <1>  -0.1600 
 11 C        3.6330     0.5630    -1.2190 C.3   1 <1>  -0.1600 
 12 O       -2.1330     1.4880     0.1530 O.3   1 <1>  -0.3620 
 13 C       -2.9100    -0.1970     1.5880 C.ar  1 <1>  -0.1500 
 14 C       -2.1100    -2.4430     1.3700 C.ar  1 <1>   0.0830 
 15 C        3.5850     1.8700    -0.4120 C.3   1 <1>  -0.0190 
 16 C       -3.2500     1.9200    -0.5920 C.3   1 <1>   0.0400 
 17 C       -2.9070    -1.5110     2.0110 C.ar  1 <1>  -0.1500 
 18 O       -2.1570    -3.7150     1.8440 O.3   1 <1>  -0.3630 
 19 C        4.9150     2.1600     0.2800 C.2   1 <1>   0.5690 
 20 C       -1.3810    -4.7400     1.2640 C.3   1 <1>   0.0400 
 21 O        5.3560     1.3560     1.0660 O.2   1 <1>  -0.5700 
 22 N        5.5510     3.3260    -0.0230 N.am  1 <1>  -0.7300 
 23 C        6.8320     3.8310     0.5070 C.3   1 <1>   0.2200 
 24 C        7.9680     2.8810     0.1360 C.3   1 <1>  -0.2400 
 25 C        6.7300     4.0450     2.0160 C.3   1 <1>  -0.2400 
 26 H        0.3450     1.3630     0.6480 H     1 <1>   0.0800 
 27 H        0.8270     2.2540    -0.7730 H     1 <1>   0.0800 
 28 H        2.0370     1.0160    -2.5940 H     1 <1>   0.0800 
 29 H        2.3500    -0.6870    -2.3750 H     1 <1>   0.0800 
 30 H       -0.6870    -2.7530    -0.2070 H     1 <1>   0.1500 
 31 H        2.6330     1.0360     1.3310 H     1 <1>   0.0800 
 32 H        2.3280     2.7320     1.1070 H     1 <1>   0.0800 
 33 H        4.3850     0.6350    -1.9830 H     1 <1>   0.0800 
 34 H        3.9000    -0.2560    -0.5730 H     1 <1>   0.0800 
 35 H       -3.5180     0.5320     2.0920 H     1 <1>   0.1500 
 36 H        3.3780     2.6730    -1.0960 H     1 <1>   0.0800 
 37 H       -3.1030     2.9530    -0.8490 H     1 <1>   0.0800 
 38 H       -4.1380     1.8100     0.0060 H     1 <1>   0.0800 
 39 H       -3.3230     1.3290    -1.4880 H     1 <1>   0.0800 
 40 H       -3.5160    -1.8220     2.8410 H     1 <1>   0.1500 
 41 H       -1.5800    -5.6520     1.7960 H     1 <1>   0.0800 
 42 H       -0.3400    -4.4850     1.3540 H     1 <1>   0.0800 
 43 H       -1.6630    -4.8510     0.2310 H     1 <1>   0.0800 
 44 H        5.1130     3.9530    -0.6960 H     1 <1>   0.3700 
 45 H        7.0280     4.7850     0.0460 H     1 <1>   0.0800 
 46 H        7.8430     1.9290     0.6190 H     1 <1>   0.0800 
 47 H        8.9080     3.2960     0.4520 H     1 <1>   0.0800 
 48 H        8.0000     2.7370    -0.9290 H     1 <1>   0.0800 
 49 H        6.5880     3.1090     2.5260 H     1 <1>   0.0800 
 50 H        5.9100     4.7010     2.2440 H     1 <1>   0.0800 
 51 H        7.6360     4.4920     2.3830 H     1 <1>   0.0800 
@<TRIPOS>BOND
  1   1   2  2   
  2   1   3  2   
  3   1   4  am  
  4   1   5  1   
  5   4   6  1   
  6   4   7  1   
  7   5   8  ar  
  8   5   9  ar  
  9   6  10  1   
 10   6  26  1   
 11   6  27  1   
 12   7  11  1   
 13   7  28  1   
 14   7  29  1   
 15   8  12  1   
 16   8  13  ar  
 17   9  14  ar  
 18   9  30  1   
 19  10  15  1   
 20  10  31  1   
 21  10  32  1   
 22  11  15  1   
 23  11  33  1   
 24  11  34  1   
 25  12  16  1   
 26  13  17  ar  
 27  13  35  1   
 28  14  17  ar  
 29  14  18  1   
 30  15  19  1   
 31  15  36  1   
 32  16  37  1   
 33  16  38  1   
 34  16  39  1   
 35  17  40  1   
 36  18  20  1   
 37  19  21  2   
 38  19  22  am  
 39  20  41  1   
 40  20  42  1   
 41  20  43  1   
 42  22  23  1   
 43  22  44  1   
 44  23  24  1   
 45  23  25  1   
 46  23  45  1   
 47  24  46  1   
 48  24  47  1   
 49  24  48  1   
 50  25  49  1   
 51  25  50  1   
 52  25  51  1   
@<TRIPOS>SUBSTRUCTURE
  1 ****   4 GROUP 4 **** **** 0

# MOE 2024.06 (io_trps.svl 2023.06)
