@<TRIPOS>MOLECULE
2-Furan-2-yl-5,7-dimethyl-1,3-diaza-tricyclo[3.3.1.1*3,7*]decane
38 41 1 0 0 
SMALL
USER_CHARGES


@<TRIPOS>ATOM
  1 O       -0.6980     0.2090    -0.4390 O.3   1 <1>  -0.2800 
  2 C       -1.6740     0.5810     0.3720 C.2   1 <1>  -0.0400 
  3 C       -0.7630    -1.0970    -0.5880 C.2   1 <1>  -0.0100 
  4 C       -2.3790    -0.5080     0.7670 C.2   1 <1>  -0.1500 
  5 C       -1.7990     2.0730     0.7120 C.3   1 <1>   0.8730 
  6 C       -1.7830    -1.6050     0.1320 C.2   1 <1>  -0.1500 
  7 N       -3.0280     2.3650     1.4930 N.4   1 <1>  -0.9590 
  8 N       -1.8340     2.9400    -0.4710 N.3   1 <1>  -0.8100 
  9 C       -4.2630     2.1000     0.6820 C.3   1 <1>   0.3430 
 10 C       -3.0030     3.7880     1.9540 C.3   1 <1>   0.3430 
 11 C       -2.9960     2.6930    -1.3450 C.3   1 <1>   0.1100 
 12 C       -1.7550     4.3640    -0.1040 C.3   1 <1>   0.1100 
 13 C       -4.2840     3.0040    -0.5630 C.3   1 <1>   0.0000 
 14 C       -2.9920     4.7340     0.7360 C.3   1 <1>   0.0000 
 15 C       -4.2590     4.4830    -0.1120 C.3   1 <1>  -0.1600 
 16 C       -5.5250     2.7260    -1.4230 C.3   1 <1>  -0.2400 
 17 C       -2.9290     6.2020     1.1820 C.3   1 <1>  -0.2400 
 18 H       -0.0440    -1.5850    -1.2250 H     1 <1>   0.1500 
 19 H       -3.2240    -0.5940     1.4270 H     1 <1>   0.1500 
 20 H       -0.9310     2.3400     1.2930 H     1 <1>   0.0800 
 21 H       -2.0940    -2.6320     0.2200 H     1 <1>   0.1500 
 22 H       -2.9990     1.7330     2.2950 H     1 <1>   0.4500 
 23 H       -5.1410     2.2920     1.2760 H     1 <1>   0.0800 
 24 H       -4.2890     1.0710     0.3650 H     1 <1>   0.0800 
 25 H       -3.8710     3.9950     2.5580 H     1 <1>   0.0800 
 26 H       -2.1240     3.9670     2.5520 H     1 <1>   0.0800 
 27 H       -2.9290     3.3210    -2.2190 H     1 <1>   0.0800 
 28 H       -2.9900     1.6690    -1.6830 H     1 <1>   0.0800 
 29 H       -1.7180     4.9650    -0.9990 H     1 <1>   0.0800 
 30 H       -0.8480     4.5480     0.4490 H     1 <1>   0.0800 
 31 H       -5.1420     4.7130     0.4590 H     1 <1>   0.0800 
 32 H       -4.2510     5.1250    -0.9770 H     1 <1>   0.0800 
 33 H       -5.5470     1.6990    -1.7430 H     1 <1>   0.0800 
 34 H       -5.5200     3.3500    -2.3010 H     1 <1>   0.0800 
 35 H       -6.4270     2.9310    -0.8720 H     1 <1>   0.0800 
 36 H       -2.0460     6.3890     1.7680 H     1 <1>   0.0800 
 37 H       -3.7910     6.4600     1.7730 H     1 <1>   0.0800 
 38 H       -2.9050     6.8540     0.3240 H     1 <1>   0.0800 
@<TRIPOS>BOND
  1   1   2  1   
  2   1   3  1   
  3   2   4  2   
  4   2   5  1   
  5   3   6  2   
  6   3  18  1   
  7   4   6  1   
  8   4  19  1   
  9   5   7  1   
 10   5   8  1   
 11   5  20  1   
 12   6  21  1   
 13   7   9  1   
 14   7  10  1   
 15   7  22  1   
 16   8  11  1   
 17   8  12  1   
 18   9  13  1   
 19   9  23  1   
 20   9  24  1   
 21  10  14  1   
 22  10  25  1   
 23  10  26  1   
 24  11  13  1   
 25  11  27  1   
 26  11  28  1   
 27  12  14  1   
 28  12  29  1   
 29  12  30  1   
 30  13  15  1   
 31  13  16  1   
 32  14  15  1   
 33  14  17  1   
 34  15  31  1   
 35  15  32  1   
 36  16  33  1   
 37  16  34  1   
 38  16  35  1   
 39  17  36  1   
 40  17  37  1   
 41  17  38  1   
@<TRIPOS>SUBSTRUCTURE
  1 ****   5 GROUP 4 **** **** 0

# MOE 2024.06 (io_trps.svl 2023.06)
