@<TRIPOS>MOLECULE
3-[3-(3-Ethoxy-4-methoxy-phenyl)-[1,2,4]oxadiazol-5-yl]-1-piperidin-1-yl-propan-
51 53 1 0 0 
SMALL
USER_CHARGES


@<TRIPOS>ATOM
  1 O        0.3350    -0.7390    -1.8290 O.2   1 <1>  -0.5700 
  2 C        0.7650    -1.6940    -1.2260 C.2   1 <1>   0.5690 
  3 N        1.9530    -1.6430    -0.5400 N.am  1 <1>  -0.6600 
  4 C       -0.0520    -2.9770    -1.2460 C.3   1 <1>  -0.0990 
  5 C        2.5860    -2.7820     0.1840 C.3   1 <1>   0.1400 
  6 C        2.7280    -0.3730    -0.4380 C.3   1 <1>   0.1400 
  7 C       -1.4100    -2.8280    -1.9500 C.3   1 <1>   0.0200 
  8 C        2.7330    -2.4260     1.6670 C.3   1 <1>  -0.1600 
  9 C        2.8870     0.0140     1.0360 C.3   1 <1>  -0.1600 
 10 C       -2.1790    -4.1330    -1.9280 C.2   1 <1>   0.2980 
 11 C        3.5180    -1.1200     1.8570 C.3   1 <1>  -0.1600 
 12 O       -1.7650    -5.1200    -2.6790 O.3   1 <1>  -0.0190 
 13 N       -3.2070    -4.3750    -1.2280 N.2   1 <1>  -0.5650 
 14 N       -2.6050    -6.0760    -2.4340 N.2   1 <1>  -0.4100 
 15 C       -3.4620    -5.6400    -1.5780 C.2   1 <1>   0.4620 
 16 C       -4.5780    -6.3970    -1.0360 C.ar  1 <1>   0.0540 
 17 C       -5.4540    -5.8490    -0.0990 C.ar  1 <1>  -0.1500 
 18 C       -4.8240    -7.7110    -1.4340 C.ar  1 <1>  -0.1500 
 19 C       -6.5220    -6.5570     0.4210 C.ar  1 <1>   0.0820 
 20 C       -5.8790    -8.4430    -0.9200 C.ar  1 <1>  -0.1500 
 21 O       -7.2880    -5.8730     1.3160 O.3   1 <1>  -0.3630 
 22 C       -6.7410    -7.8840     0.0210 C.ar  1 <1>   0.0820 
 23 C       -8.6860    -6.0440     1.3410 C.3   1 <1>   0.1200 
 24 O       -7.7660    -8.6010     0.5640 O.3   1 <1>  -0.3620 
 25 C       -9.3030    -4.7930     1.9590 C.3   1 <1>  -0.2400 
 26 C       -7.9160    -9.9850     0.3380 C.3   1 <1>   0.0400 
 27 H       -0.2270    -3.2870    -0.2320 H     1 <1>   0.0800 
 28 H        0.5220    -3.7360    -1.7450 H     1 <1>   0.0800 
 29 H        3.5590    -2.9650    -0.2410 H     1 <1>   0.0800 
 30 H        2.0110    -3.6840     0.0860 H     1 <1>   0.0800 
 31 H        2.2310     0.4240    -0.9660 H     1 <1>   0.0800 
 32 H        3.6950    -0.5150    -0.8880 H     1 <1>   0.0800 
 33 H       -1.2680    -2.5220    -2.9710 H     1 <1>   0.0800 
 34 H       -1.9920    -2.0710    -1.4530 H     1 <1>   0.0800 
 35 H        3.2380    -3.2270     2.1780 H     1 <1>   0.0800 
 36 H        1.7530    -2.3270     2.1010 H     1 <1>   0.0800 
 37 H        1.9170     0.2560     1.4350 H     1 <1>   0.0800 
 38 H        3.4980     0.8960     1.1070 H     1 <1>   0.0800 
 39 H        4.5360    -1.2660     1.5380 H     1 <1>   0.0800 
 40 H        3.5320    -0.8510     2.8990 H     1 <1>   0.0800 
 41 H       -5.3050    -4.8380     0.2360 H     1 <1>   0.1500 
 42 H       -4.1750    -8.1700    -2.1590 H     1 <1>   0.1500 
 43 H       -6.0100    -9.4490    -1.2680 H     1 <1>   0.1500 
 44 H       -8.9110    -6.9110     1.9360 H     1 <1>   0.0800 
 45 H       -9.0350    -6.1860     0.3320 H     1 <1>   0.0800 
 46 H       -8.9350    -4.6580     2.9600 H     1 <1>   0.0800 
 47 H      -10.3720    -4.8950     1.9950 H     1 <1>   0.0800 
 48 H       -9.0590    -3.9300     1.3660 H     1 <1>   0.0800 
 49 H       -8.7430   -10.3320     0.9320 H     1 <1>   0.0800 
 50 H       -7.0150   -10.4880     0.6410 H     1 <1>   0.0800 
 51 H       -8.1220   -10.1500    -0.7040 H     1 <1>   0.0800 
@<TRIPOS>BOND
  1   1   2  2   
  2   2   3  am  
  3   2   4  1   
  4   3   5  1   
  5   3   6  1   
  6   4   7  1   
  7   4  27  1   
  8   4  28  1   
  9   5   8  1   
 10   5  29  1   
 11   5  30  1   
 12   6   9  1   
 13   6  31  1   
 14   6  32  1   
 15   7  10  1   
 16   7  33  1   
 17   7  34  1   
 18   8  11  1   
 19   8  35  1   
 20   8  36  1   
 21   9  11  1   
 22   9  37  1   
 23   9  38  1   
 24  10  12  1   
 25  10  13  2   
 26  11  39  1   
 27  11  40  1   
 28  12  14  1   
 29  13  15  1   
 30  14  15  2   
 31  15  16  1   
 32  16  17  ar  
 33  16  18  ar  
 34  17  19  ar  
 35  17  41  1   
 36  18  20  ar  
 37  18  42  1   
 38  19  21  1   
 39  19  22  ar  
 40  20  22  ar  
 41  20  43  1   
 42  21  23  1   
 43  22  24  1   
 44  23  25  1   
 45  23  44  1   
 46  23  45  1   
 47  24  26  1   
 48  25  46  1   
 49  25  47  1   
 50  25  48  1   
 51  26  49  1   
 52  26  50  1   
 53  26  51  1   
@<TRIPOS>SUBSTRUCTURE
  1 ****  13 GROUP 4 **** **** 0

# MOE 2024.06 (io_trps.svl 2023.06)
