@<TRIPOS>MOLECULE
3-(2-Hydroxy-phenyl)-1-(5-hydroxy-3-propyl-5-trifluoromethyl-4,5-dihydro-pyrazol
43 44 1 0 0 
SMALL
USER_CHARGES


@<TRIPOS>ATOM
  1 F        1.3600    -1.7570    -0.6560 F     1 <1>  -0.3400 
  2 C        0.3490    -2.6210    -0.7420 C.3   1 <1>   1.0200 
  3 F        0.9140    -3.8210    -0.8080 F     1 <1>  -0.3400 
  4 F       -0.1920    -2.4070    -1.9410 F     1 <1>  -0.3400 
  5 C       -0.6950    -2.4410     0.4390 C.3   1 <1>   0.5800 
  6 O       -0.1960    -2.7820     1.7010 O.3   1 <1>  -0.6800 
  7 N       -1.9550    -3.2230     0.2640 N.am  1 <1>  -0.2980 
  8 C       -1.2220    -0.9970     0.5250 C.3   1 <1>  -0.0990 
  9 N       -3.0470    -2.3890     0.1250 N.2   1 <1>  -0.5120 
 10 C       -1.9980    -4.5950     0.3750 C.2   1 <1>   0.5690 
 11 C       -2.6930    -1.1900     0.2660 C.2   1 <1>   0.3280 
 12 O       -1.0240    -5.2300     0.7100 O.2   1 <1>  -0.5700 
 13 C       -3.3170    -5.3020     0.1010 C.3   1 <1>  -0.0990 
 14 C       -3.5830     0.0440     0.1990 C.3   1 <1>  -0.0990 
 15 C       -3.2170    -6.8370     0.0930 C.3   1 <1>  -0.0170 
 16 C       -5.0610    -0.2840    -0.0720 C.3   1 <1>  -0.1600 
 17 C       -4.5260    -7.5810    -0.1960 C.ar  1 <1>  -0.1440 
 18 C       -5.9130     0.9870    -0.1280 C.3   1 <1>  -0.2400 
 19 C       -4.5120    -8.9730    -0.2320 C.ar  1 <1>   0.0820 
 20 C       -5.7350    -6.9320    -0.4240 C.ar  1 <1>  -0.1500 
 21 O       -3.3680    -9.6460    -0.0160 O.3   1 <1>  -0.5320 
 22 C       -5.6660    -9.6970    -0.4880 C.ar  1 <1>  -0.1500 
 23 C       -6.8900    -7.6520    -0.6800 C.ar  1 <1>  -0.1500 
 24 C       -6.8580    -9.0340    -0.7130 C.ar  1 <1>  -0.1500 
 25 H       -0.1670    -3.7670     1.7390 H     1 <1>   0.4000 
 26 H       -0.7980    -0.3620    -0.2310 H     1 <1>   0.0800 
 27 H       -1.0570    -0.5650     1.4950 H     1 <1>   0.0800 
 28 H       -3.6790    -4.9680    -0.8530 H     1 <1>   0.0800 
 29 H       -4.0160    -4.9960     0.8580 H     1 <1>   0.0800 
 30 H       -3.2170     0.6890    -0.5790 H     1 <1>   0.0800 
 31 H       -3.5050     0.5700     1.1340 H     1 <1>   0.0800 
 32 H       -2.8480    -7.1650     1.0500 H     1 <1>   0.0800 
 33 H       -2.4910    -7.1300    -0.6460 H     1 <1>   0.0800 
 34 H       -5.4340    -0.9290     0.7060 H     1 <1>   0.0800 
 35 H       -5.1470    -0.8120    -1.0070 H     1 <1>   0.0800 
 36 H       -5.8630     1.5190     0.8060 H     1 <1>   0.0800 
 37 H       -6.9410     0.7310    -0.3180 H     1 <1>   0.0800 
 38 H       -5.5740     1.6360    -0.9160 H     1 <1>   0.0800 
 39 H       -5.8060    -5.8610    -0.4070 H     1 <1>   0.1500 
 40 H       -3.4790   -10.6100    -0.0630 H     1 <1>   0.4500 
 41 H       -5.6420   -10.7700    -0.5130 H     1 <1>   0.1500 
 42 H       -7.8160    -7.1330    -0.8540 H     1 <1>   0.1500 
 43 H       -7.7570    -9.5890    -0.9120 H     1 <1>   0.1500 
@<TRIPOS>BOND
  1   1   2  1   
  2   2   3  1   
  3   2   4  1   
  4   2   5  1   
  5   5   6  1   
  6   5   7  1   
  7   5   8  1   
  8   6  25  1   
  9   7   9  1   
 10   7  10  am  
 11   8  11  1   
 12   8  26  1   
 13   8  27  1   
 14   9  11  2   
 15  10  12  2   
 16  10  13  1   
 17  11  14  1   
 18  13  15  1   
 19  13  28  1   
 20  13  29  1   
 21  14  16  1   
 22  14  30  1   
 23  14  31  1   
 24  15  17  1   
 25  15  32  1   
 26  15  33  1   
 27  16  18  1   
 28  16  34  1   
 29  16  35  1   
 30  17  19  ar  
 31  17  20  ar  
 32  18  36  1   
 33  18  37  1   
 34  18  38  1   
 35  19  21  1   
 36  19  22  ar  
 37  20  23  ar  
 38  20  39  1   
 39  21  40  1   
 40  22  24  ar  
 41  22  41  1   
 42  23  24  ar  
 43  23  42  1   
 44  24  43  1   
@<TRIPOS>SUBSTRUCTURE
  1 ****  10 GROUP 4 **** **** 0

# MOE 2024.06 (io_trps.svl 2023.06)
