@<TRIPOS>MOLECULE
8-(2-Diethylamino-ethylamino)-3-methyl-7-(4-methyl-benzyl)-3,7-dihydro-purine-2,
58 60 1 0 0 
SMALL
USER_CHARGES


@<TRIPOS>ATOM
  1 O        0.4890     0.3660    -0.0590 O.2   1 <1>  -0.5740 
  2 C        1.5700     0.9040    -0.0560 C.2   1 <1>   0.6870 
  3 N        2.7560     0.1880     0.0520 N.am  1 <1>  -0.4410 
  4 N        1.6180     2.2640    -0.1620 N.am  1 <1>  -0.4940 
  5 C        3.9440     0.9050     0.0400 C.2   1 <1>   0.4210 
  6 C        2.7470    -1.3000     0.1730 C.3   1 <1>   0.0530 
  7 C        2.7780     2.9830    -0.1720 C.2   1 <1>   0.7000 
  8 N        5.2160     0.4250     0.1280 N.pl3 1 <1>  -0.7030 
  9 C        4.0040     2.2520    -0.0640 C.2   1 <1>   0.2710 
 10 O        2.7340     4.1930    -0.2700 O.2   1 <1>  -0.5740 
 11 C        6.0520     1.4590     0.0810 C.cat 1 <1>   1.0690 
 12 N        5.3660     2.6020    -0.0370 N.pl3 1 <1>  -0.7670 
 13 N        7.3810     1.3520     0.1490 N.pl3 1 <1>  -0.7170 
 14 C        5.7910     4.0370    -0.1410 C.3   1 <1>   0.4930 
 15 C        8.2890     0.1750     0.2380 C.3   1 <1>   0.1610 
 16 C        7.3070     4.1250    -0.1500 C.ar  1 <1>  -0.1500 
 17 C        9.7360     0.5800    -0.1320 C.3   1 <1>   0.3380 
 18 C        8.0090     4.2400     1.0410 C.ar  1 <1>  -0.1560 
 19 C        8.0060     4.0090    -1.3430 C.ar  1 <1>  -0.1560 
 20 N       10.7520    -0.5000     0.0940 N.4   1 <1>  -0.9610 
 21 C        9.3910     4.2040     1.0410 C.ar  1 <1>  -0.1560 
 22 C        9.3890     3.9760    -1.3390 C.ar  1 <1>  -0.1560 
 23 C       12.1170     0.0780    -0.0440 C.3   1 <1>   0.3380 
 24 C       10.5890    -1.6690    -0.8150 C.3   1 <1>   0.3380 
 25 C       10.0880     4.0630    -0.1470 C.ar  1 <1>  -0.1500 
 26 C       13.1190    -0.8150     0.6780 C.3   1 <1>  -0.2460 
 27 C        9.9920    -2.8210    -0.0190 C.3   1 <1>  -0.2460 
 28 C       11.6060     4.0560    -0.1460 C.3   1 <1>  -0.1030 
 29 H        0.7310     2.7590    -0.2390 H     1 <1>   0.3650 
 30 H        1.7380    -1.6760     0.2190 H     1 <1>   0.0730 
 31 H        3.2560    -1.5990     1.0720 H     1 <1>   0.0730 
 32 H        3.2310    -1.7400    -0.6810 H     1 <1>   0.0730 
 33 H        5.4750    -0.5510     0.2310 H     1 <1>   0.4450 
 34 H        7.8620     2.2670     0.1360 H     1 <1>   0.4450 
 35 H        5.3950     4.5940     0.6920 H     1 <1>   0.0730 
 36 H        5.3950     4.4690    -1.0460 H     1 <1>   0.0730 
 37 H        7.9420    -0.5930    -0.4320 H     1 <1>   0.0730 
 38 H        8.2730    -0.1980     1.2490 H     1 <1>   0.0730 
 39 H       10.0090     1.4320     0.4690 H     1 <1>   0.0730 
 40 H        9.7660     0.8820    -1.1660 H     1 <1>   0.0730 
 41 H        7.4900     4.3570     1.9810 H     1 <1>   0.1440 
 42 H        7.4850     3.9440    -2.2850 H     1 <1>   0.1440 
 43 H       10.6950    -0.8480     1.0610 H     1 <1>   0.4450 
 44 H        9.9260     4.3050     1.9720 H     1 <1>   0.1440 
 45 H        9.9210     3.9010    -2.2740 H     1 <1>   0.1440 
 46 H       12.1460     1.0590     0.4030 H     1 <1>   0.0730 
 47 H       12.3820     0.1720    -1.0860 H     1 <1>   0.0730 
 48 H       11.5480    -1.9750    -1.2030 H     1 <1>   0.0730 
 49 H        9.9560    -1.4170    -1.6500 H     1 <1>   0.0730 
 50 H       12.8690    -0.9060     1.7200 H     1 <1>   0.0730 
 51 H       14.0970    -0.3720     0.6110 H     1 <1>   0.0730 
 52 H       13.1730    -1.7920     0.2320 H     1 <1>   0.0730 
 53 H       10.6480    -3.1060     0.7850 H     1 <1>   0.0730 
 54 H        9.8820    -3.6740    -0.6670 H     1 <1>   0.0730 
 55 H        9.0230    -2.5790     0.3740 H     1 <1>   0.0730 
 56 H       11.9680     5.0670    -0.2180 H     1 <1>   0.0730 
 57 H       11.9890     3.5000    -0.9830 H     1 <1>   0.0730 
 58 H       11.9870     3.6240     0.7620 H     1 <1>   0.0730 
@<TRIPOS>BOND
  1   1   2  2   
  2   2   3  am  
  3   2   4  am  
  4   3   5  1   
  5   3   6  1   
  6   4   7  am  
  7   4  29  1   
  8   5   8  1   
  9   5   9  2   
 10   6  30  1   
 11   6  31  1   
 12   6  32  1   
 13   7   9  1   
 14   7  10  2   
 15   8  11  ar  
 16   8  33  1   
 17   9  12  1   
 18  11  12  ar  
 19  11  13  ar  
 20  12  14  1   
 21  13  15  1   
 22  13  34  1   
 23  14  16  1   
 24  14  35  1   
 25  14  36  1   
 26  15  17  1   
 27  15  37  1   
 28  15  38  1   
 29  16  18  ar  
 30  16  19  ar  
 31  17  20  1   
 32  17  39  1   
 33  17  40  1   
 34  18  21  ar  
 35  18  41  1   
 36  19  22  ar  
 37  19  42  1   
 38  20  23  1   
 39  20  24  1   
 40  20  43  1   
 41  21  25  ar  
 42  21  44  1   
 43  22  25  ar  
 44  22  45  1   
 45  23  26  1   
 46  23  46  1   
 47  23  47  1   
 48  24  27  1   
 49  24  48  1   
 50  24  49  1   
 51  25  28  1   
 52  26  50  1   
 53  26  51  1   
 54  26  52  1   
 55  27  53  1   
 56  27  54  1   
 57  27  55  1   
 58  28  56  1   
 59  28  57  1   
 60  28  58  1   
@<TRIPOS>SUBSTRUCTURE
  1 ****  13 GROUP 4 **** **** 0

# MOE 2024.06 (io_trps.svl 2023.06)
