@<TRIPOS>MOLECULE
(Tetrahydro-furan-2-ylmethoxy)-acetic acid
22 22 1 0 0 
SMALL
USER_CHARGES


@<TRIPOS>ATOM
  1 O        1.2730     0.9990     1.4880 O.co2 1 <1>  -0.9000 
  2 C        0.8690     1.7820     0.6180 C.2   1 <1>   0.9060 
  3 O        1.5130     2.7950     0.3060 O.co2 1 <1>  -0.9000 
  4 C       -0.4310     1.4630    -0.1360 C.3   1 <1>   0.0140 
  5 O       -1.5830     2.2100     0.2250 O.3   1 <1>  -0.5600 
  6 C       -1.4080     3.5940     0.1200 C.3   1 <1>   0.1200 
  7 C       -2.7320     4.3270     0.3780 C.3   1 <1>   0.2000 
  8 O       -3.6100     4.2140    -0.7000 O.3   1 <1>  -0.5600 
  9 C       -2.5660     5.8310     0.5500 C.3   1 <1>  -0.1600 
 10 C       -4.5650     5.2190    -0.6370 C.3   1 <1>   0.1200 
 11 C       -3.9100     6.3840     0.1030 C.3   1 <1>  -0.1600 
 12 H       -0.6610     0.4280     0.0290 H     1 <1>   0.0800 
 13 H       -0.2550     1.6110    -1.1840 H     1 <1>   0.0800 
 14 H       -1.0270     3.8330    -0.8570 H     1 <1>   0.0800 
 15 H       -0.6890     3.8920     0.8630 H     1 <1>   0.0800 
 16 H       -3.2140     3.9080     1.2440 H     1 <1>   0.0800 
 17 H       -1.7830     6.1840    -0.1000 H     1 <1>   0.0800 
 18 H       -2.3240     6.0870     1.5670 H     1 <1>   0.0800 
 19 H       -5.4140     4.8380    -0.0960 H     1 <1>   0.0800 
 20 H       -4.8520     5.4800    -1.6410 H     1 <1>   0.0800 
 21 H       -3.7890     7.2340    -0.5450 H     1 <1>   0.0800 
 22 H       -4.5170     6.6660     0.9450 H     1 <1>   0.0800 
@<TRIPOS>BOND
  1   1   2  ar  
  2   2   3  ar  
  3   2   4  1   
  4   4   5  1   
  5   4  12  1   
  6   4  13  1   
  7   5   6  1   
  8   6   7  1   
  9   6  14  1   
 10   6  15  1   
 11   7   8  1   
 12   7   9  1   
 13   7  16  1   
 14   8  10  1   
 15   9  11  1   
 16   9  17  1   
 17   9  18  1   
 18  10  11  1   
 19  10  19  1   
 20  10  20  1   
 21  11  21  1   
 22  11  22  1   
@<TRIPOS>SUBSTRUCTURE
  1 ****   6 GROUP 4 **** **** 0

# MOE 2024.06 (io_trps.svl 2023.06)
