@<TRIPOS>MOLECULE
2-(4-Ethyl-piperazin-1-yl)-6-oxo-3,4,5,6-tetrahydro-pyrimidine-4-carboxylic acid
56 58 1 0 0 
SMALL
USER_CHARGES


@<TRIPOS>ATOM
  1 O       -0.1530    -0.3950    -0.0490 O.2   1 <1>  -0.5700 
  2 C       -0.0430    -1.5810    -0.0140 C.2   1 <1>   0.8520 
  3 N       -1.1570    -2.3390     0.0120 N.pl3 1 <1>  -0.8600 
  4 C        1.3120    -2.2410     0.0150 C.3   1 <1>  -0.0990 
  5 C       -1.1720    -3.6480    -0.0620 C.cat 1 <1>   1.2000 
  6 C        1.2420    -3.5550    -0.7610 C.3   1 <1>   0.3090 
  7 N       -2.2750    -4.3570     0.2300 N.pl3 1 <1>  -0.7220 
  8 N       -0.0540    -4.2230    -0.4290 N.pl3 1 <1>  -0.8440 
  9 C        2.4250    -4.4990    -0.4570 C.2   1 <1>   0.5690 
 10 C       -3.5490    -3.7560     0.7830 C.3   1 <1>   0.1680 
 11 C       -2.3330    -5.8690     0.1720 C.3   1 <1>   0.1680 
 12 O        2.1320    -5.5970    -0.0390 O.2   1 <1>  -0.5700 
 13 N        3.7150    -4.0810    -0.6680 N.am  1 <1>  -0.5470 
 14 C       -4.8250    -4.3130     0.1070 C.3   1 <1>   0.3430 
 15 C       -3.6240    -6.4020    -0.4940 C.3   1 <1>   0.3430 
 16 C        4.9310    -4.7560    -0.4560 C.ar  1 <1>   0.1170 
 17 N       -4.8680    -5.8180     0.1130 N.4   1 <1>  -0.9590 
 18 C        6.0780    -4.0000    -0.2430 C.ar  1 <1>  -0.1500 
 19 C        5.0480    -6.1430    -0.4710 C.ar  1 <1>  -0.1500 
 20 C       -6.0780    -6.3440    -0.5820 C.3   1 <1>   0.3430 
 21 C        7.3030    -4.6100    -0.0440 C.ar  1 <1>  -0.1500 
 22 C        6.2710    -6.7590    -0.2710 C.ar  1 <1>  -0.1500 
 23 C       -7.3180    -6.0650     0.2590 C.3   1 <1>  -0.2400 
 24 C        7.4110    -5.9900    -0.0560 C.ar  1 <1>   0.0820 
 25 O        8.6510    -6.5070     0.1480 O.3   1 <1>  -0.3630 
 26 C        8.8610    -7.8990     0.1800 C.3   1 <1>   0.1200 
 27 C       10.3440    -8.1470     0.4390 C.3   1 <1>  -0.2400 
 28 H       -2.0020    -1.7940     0.0840 H     1 <1>   0.4500 
 29 H        1.5870    -2.4240     1.0380 H     1 <1>   0.0800 
 30 H        2.0440    -1.5850    -0.4190 H     1 <1>   0.0800 
 31 H        1.2520    -3.3460    -1.8180 H     1 <1>   0.0800 
 32 H        0.0810    -5.2360    -0.3430 H     1 <1>   0.4500 
 33 H       -3.5580    -2.6860     0.6730 H     1 <1>   0.0800 
 34 H       -3.6020    -3.9620     1.8390 H     1 <1>   0.0800 
 35 H       -2.2730    -6.2610     1.1750 H     1 <1>   0.0800 
 36 H       -1.4970    -6.2710    -0.3740 H     1 <1>   0.0800 
 37 H        3.8530    -3.1290    -1.0050 H     1 <1>   0.3700 
 38 H       -4.8650    -3.9560    -0.9090 H     1 <1>   0.0800 
 39 H       -5.6890    -3.9220     0.6210 H     1 <1>   0.0800 
 40 H       -3.6470    -7.4770    -0.4040 H     1 <1>   0.0800 
 41 H       -3.5920    -6.1660    -1.5460 H     1 <1>   0.0800 
 42 H       -4.9330    -6.1390     1.0910 H     1 <1>   0.4500 
 43 H        6.0240    -2.9270    -0.2260 H     1 <1>   0.1500 
 44 H        4.1850    -6.7590    -0.6420 H     1 <1>   0.1500 
 45 H       -5.9870    -7.4110    -0.7160 H     1 <1>   0.0800 
 46 H       -6.1820    -5.8920    -1.5560 H     1 <1>   0.0800 
 47 H        8.1880    -4.0220     0.1220 H     1 <1>   0.1500 
 48 H        6.3170    -7.8310    -0.2880 H     1 <1>   0.1500 
 49 H       -7.2260    -6.4960     1.2400 H     1 <1>   0.0800 
 50 H       -8.1710    -6.5170    -0.2170 H     1 <1>   0.0800 
 51 H       -7.5180    -5.0120     0.3400 H     1 <1>   0.0800 
 52 H        8.5680    -8.3100    -0.7710 H     1 <1>   0.0800 
 53 H        8.2620    -8.3170     0.9700 H     1 <1>   0.0800 
 54 H       10.9340    -7.7110    -0.3470 H     1 <1>   0.0800 
 55 H       10.5370    -9.2030     0.4690 H     1 <1>   0.0800 
 56 H       10.6300    -7.7180     1.3830 H     1 <1>   0.0800 
@<TRIPOS>BOND
  1   1   2  2   
  2   2   3  1   
  3   2   4  1   
  4   3   5  ar  
  5   3  28  1   
  6   4   6  1   
  7   4  29  1   
  8   4  30  1   
  9   5   7  ar  
 10   5   8  ar  
 11   6   8  1   
 12   6   9  1   
 13   6  31  1   
 14   7  10  1   
 15   7  11  1   
 16   8  32  1   
 17   9  12  2   
 18   9  13  am  
 19  10  14  1   
 20  10  33  1   
 21  10  34  1   
 22  11  15  1   
 23  11  35  1   
 24  11  36  1   
 25  13  16  1   
 26  13  37  1   
 27  14  17  1   
 28  14  38  1   
 29  14  39  1   
 30  15  17  1   
 31  15  40  1   
 32  15  41  1   
 33  16  18  ar  
 34  16  19  ar  
 35  17  20  1   
 36  17  42  1   
 37  18  21  ar  
 38  18  43  1   
 39  19  22  ar  
 40  19  44  1   
 41  20  23  1   
 42  20  45  1   
 43  20  46  1   
 44  21  24  ar  
 45  21  47  1   
 46  22  24  ar  
 47  22  48  1   
 48  23  49  1   
 49  23  50  1   
 50  23  51  1   
 51  24  25  1   
 52  25  26  1   
 53  26  27  1   
 54  26  52  1   
 55  26  53  1   
 56  27  54  1   
 57  27  55  1   
 58  27  56  1   
@<TRIPOS>SUBSTRUCTURE
  1 ****  12 GROUP 4 **** **** 0

# MOE 2024.06 (io_trps.svl 2023.06)
