@<TRIPOS>MOLECULE
4-(3-Fluoro-phenyl)-3,6-dihydroxy-6-methyl-4,5,6,7-tetrahydro-1H-indazole-5-carb
44 46 1 0 0 
SMALL
USER_CHARGES


@<TRIPOS>ATOM
  1 F       -2.1170    -1.0680     2.7440 F     1 <1>  -0.1900 
  2 C       -2.6950    -1.3600     1.6100 C.ar  1 <1>   0.1900 
  3 C       -3.7000    -0.5340     1.1430 C.ar  1 <1>  -0.1500 
  4 C       -2.2820    -2.4840     0.9230 C.ar  1 <1>  -0.1500 
  5 C       -4.3210    -0.8400    -0.0610 C.ar  1 <1>  -0.1440 
  6 C       -2.9020    -2.7880    -0.2770 C.ar  1 <1>  -0.1500 
  7 C       -3.9130    -1.9710    -0.7610 C.ar  1 <1>  -0.1500 
  8 C       -5.4500     0.0350    -0.6120 C.3   1 <1>   0.2450 
  9 C       -5.1590     1.5200    -0.4570 C.2   1 <1>  -0.1810 
 10 C       -6.7730    -0.3090     0.1080 C.3   1 <1>  -0.0190 
 11 C       -4.0270     2.2650    -0.7520 C.2   1 <1>   0.3510 
 12 C       -6.0300     2.4330     0.0140 C.2   1 <1>  -0.3320 
 13 C       -7.2040    -1.7140    -0.2600 C.2   1 <1>   0.6590 
 14 C       -7.8850     0.7500    -0.1150 C.3   1 <1>   0.2800 
 15 O       -2.8890     1.8120    -1.2730 O.3   1 <1>  -0.5120 
 16 N       -4.1390     3.5200    -0.4840 N.2   1 <1>  -0.7070 
 17 N       -5.3980     3.6300     0.0020 N.pl3 1 <1>   0.3000 
 18 C       -7.4490     2.1230     0.4550 C.3   1 <1>   0.0200 
 19 O       -7.2330    -2.0950    -1.4050 O.2   1 <1>  -0.5700 
 20 O       -7.5050    -2.5140     0.7540 O.3   1 <1>  -0.4300 
 21 O       -9.0020     0.3540     0.5890 O.3   1 <1>  -0.6800 
 22 C       -8.3370     0.8840    -1.5770 C.3   1 <1>  -0.2400 
 23 C       -7.9220    -3.8440     0.5630 C.3   1 <1>   0.2580 
 24 C       -9.4080    -3.8500     0.2560 C.2   1 <1>  -0.2880 
 25 C      -10.3520    -4.4380     0.9980 C.2   1 <1>  -0.3000 
 26 H       -3.9800     0.3330     1.7150 H     1 <1>   0.1500 
 27 H       -1.4970    -3.1010     1.3190 H     1 <1>   0.1500 
 28 H       -2.6000    -3.6570    -0.8350 H     1 <1>   0.1500 
 29 H       -4.3860    -2.2250    -1.6960 H     1 <1>   0.1500 
 30 H       -5.5500    -0.1510    -1.6670 H     1 <1>   0.0800 
 31 H       -6.5610    -0.3100     1.1610 H     1 <1>   0.0800 
 32 H       -2.3020     2.5840    -1.3290 H     1 <1>   0.4500 
 33 H       -5.7890     4.5310     0.3060 H     1 <1>   0.2700 
 34 H       -8.1180     2.8950     0.1200 H     1 <1>   0.0800 
 35 H       -7.4690     2.0910     1.5310 H     1 <1>   0.0800 
 36 H       -9.7870     0.8400     0.2760 H     1 <1>   0.4000 
 37 H       -7.5140     1.1850    -2.1990 H     1 <1>   0.0800 
 38 H       -9.1060     1.6300    -1.6730 H     1 <1>   0.0800 
 39 H       -8.7160    -0.0490    -1.9530 H     1 <1>   0.0800 
 40 H       -7.3530    -4.2860    -0.2380 H     1 <1>   0.0800 
 41 H       -7.7210    -4.3810     1.4730 H     1 <1>   0.0800 
 42 H       -9.6340    -3.3130    -0.6510 H     1 <1>   0.1500 
 43 H      -11.4010    -4.4230     0.7540 H     1 <1>   0.1500 
 44 H      -10.1610    -4.9780     1.9090 H     1 <1>   0.1500 
@<TRIPOS>BOND
  1   1   2  1   
  2   2   3  ar  
  3   2   4  ar  
  4   3   5  ar  
  5   3  26  1   
  6   4   6  ar  
  7   4  27  1   
  8   5   7  ar  
  9   5   8  1   
 10   6   7  ar  
 11   6  28  1   
 12   7  29  1   
 13   8   9  1   
 14   8  10  1   
 15   8  30  1   
 16   9  11  1   
 17   9  12  2   
 18  10  13  1   
 19  10  14  1   
 20  10  31  1   
 21  11  15  1   
 22  11  16  2   
 23  12  17  1   
 24  12  18  1   
 25  13  19  2   
 26  13  20  1   
 27  14  18  1   
 28  14  21  1   
 29  14  22  1   
 30  15  32  1   
 31  16  17  1   
 32  17  33  1   
 33  18  34  1   
 34  18  35  1   
 35  20  23  1   
 36  21  36  1   
 37  22  37  1   
 38  22  38  1   
 39  22  39  1   
 40  23  24  1   
 41  23  40  1   
 42  23  41  1   
 43  24  25  2   
 44  24  42  1   
 45  25  43  1   
 46  25  44  1   
@<TRIPOS>SUBSTRUCTURE
  1 ****   8 GROUP 4 **** **** 0

# MOE 2024.06 (io_trps.svl 2023.06)
