@<TRIPOS>MOLECULE
1-(2,3-Dichloro-phenyl)-5-oxo-pyrrolidine-3-carboxylic acid cyclohexylamide
43 45 1 0 0 
SMALL
USER_CHARGES


@<TRIPOS>ATOM
  1 CL       2.5600    -1.1400     2.6490 Cl    1 <1>  -0.1770 
  2 C        1.9930    -1.8190     1.1300 C.ar  1 <1>   0.1770 
  3 C        1.2390    -2.9800     1.1460 C.ar  1 <1>   0.1770 
  4 C        2.2920    -1.1830    -0.0760 C.ar  1 <1>   0.1170 
  5 CL       0.8720    -3.7870     2.6530 Cl    1 <1>  -0.1770 
  6 C        0.7580    -3.5300    -0.0290 C.ar  1 <1>  -0.1500 
  7 N        3.0630    -0.0090    -0.1450 N.am  1 <1>  -0.4770 
  8 C        1.7930    -1.7410    -1.2500 C.ar  1 <1>  -0.1500 
  9 C        1.0370    -2.9020    -1.2320 C.ar  1 <1>  -0.1500 
 10 C        2.6670     1.2000    -0.6320 C.2   1 <1>   0.5690 
 11 C        4.4930     0.0180     0.2220 C.3   1 <1>   0.1400 
 12 O        1.5740     1.4710    -1.0610 O.2   1 <1>  -0.5700 
 13 C        3.7820     2.2060    -0.5720 C.3   1 <1>  -0.0990 
 14 C        4.8210     1.5140     0.3240 C.3   1 <1>  -0.0190 
 15 C        6.2550     1.8320    -0.0600 C.2   1 <1>   0.5690 
 16 O        6.7020     1.3450    -1.0690 O.2   1 <1>  -0.5700 
 17 N        6.9700     2.6590     0.7490 N.am  1 <1>  -0.7300 
 18 C        8.3680     3.1140     0.5790 C.3   1 <1>   0.2200 
 19 C        8.5260     3.9390    -0.7050 C.3   1 <1>  -0.1600 
 20 C        9.3420     1.9300     0.6160 C.3   1 <1>  -0.1600 
 21 C        9.9760     4.4180    -0.8730 C.3   1 <1>  -0.1600 
 22 C       10.7920     2.4080     0.4480 C.3   1 <1>  -0.1600 
 23 C       10.9560     3.2370    -0.8350 C.3   1 <1>  -0.1600 
 24 H        0.1730    -4.4320     0.0010 H     1 <1>   0.1500 
 25 H        1.9980    -1.2510    -2.1860 H     1 <1>   0.1500 
 26 H        0.6630    -3.3130    -2.1550 H     1 <1>   0.1500 
 27 H        5.0590    -0.4560    -0.5630 H     1 <1>   0.0800 
 28 H        4.6770    -0.4890     1.1520 H     1 <1>   0.0800 
 29 H        3.4430     3.1370    -0.1560 H     1 <1>   0.0800 
 30 H        4.1600     2.3610    -1.5670 H     1 <1>   0.0800 
 31 H        4.6500     1.8110     1.3430 H     1 <1>   0.0800 
 32 H        6.5170     3.0460     1.5770 H     1 <1>   0.3700 
 33 H        8.6050     3.7570     1.4110 H     1 <1>   0.0800 
 34 H        7.8700     4.7900    -0.6720 H     1 <1>   0.0800 
 35 H        8.2620     3.3380    -1.5570 H     1 <1>   0.0800 
 36 H        9.1130     1.2460    -0.1820 H     1 <1>   0.0800 
 37 H        9.2430     1.4090     1.5510 H     1 <1>   0.0800 
 38 H       10.2210     5.1100    -0.0860 H     1 <1>   0.0800 
 39 H       10.0760     4.9370    -1.8110 H     1 <1>   0.0800 
 40 H       11.4500     1.5570     0.4120 H     1 <1>   0.0800 
 41 H       11.0750     3.0070     1.2980 H     1 <1>   0.0800 
 42 H       11.9660     3.6030    -0.9010 H     1 <1>   0.0800 
 43 H       10.7810     2.6040    -1.6890 H     1 <1>   0.0800 
@<TRIPOS>BOND
  1   1   2  1   
  2   2   3  ar  
  3   2   4  ar  
  4   3   5  1   
  5   3   6  ar  
  6   4   7  1   
  7   4   8  ar  
  8   6   9  ar  
  9   6  24  1   
 10   7  10  am  
 11   7  11  1   
 12   8   9  ar  
 13   8  25  1   
 14   9  26  1   
 15  10  12  2   
 16  10  13  1   
 17  11  14  1   
 18  11  27  1   
 19  11  28  1   
 20  13  14  1   
 21  13  29  1   
 22  13  30  1   
 23  14  15  1   
 24  14  31  1   
 25  15  16  2   
 26  15  17  am  
 27  17  18  1   
 28  17  32  1   
 29  18  19  1   
 30  18  20  1   
 31  18  33  1   
 32  19  21  1   
 33  19  34  1   
 34  19  35  1   
 35  20  22  1   
 36  20  36  1   
 37  20  37  1   
 38  21  23  1   
 39  21  38  1   
 40  21  39  1   
 41  22  23  1   
 42  22  40  1   
 43  22  41  1   
 44  23  42  1   
 45  23  43  1   
@<TRIPOS>SUBSTRUCTURE
  1 ****  11 GROUP 4 **** **** 0

# MOE 2024.06 (io_trps.svl 2023.06)
