@<TRIPOS>MOLECULE
N-[3-(4-tert-Butyl-phenyl)-[1,2,4]oxadiazol-5-ylmethyl]-butyramide
45 46 1 0 0 
SMALL
USER_CHARGES


@<TRIPOS>ATOM
  1 O       -1.6150    -0.7430    -2.4300 O.2   1 <1>  -0.5700 
  2 C       -2.5610    -0.5010    -1.7260 C.2   1 <1>   0.5690 
  3 N       -3.7930    -0.8650    -2.1420 N.am  1 <1>  -0.7300 
  4 C       -2.3700     0.2050    -0.3880 C.3   1 <1>  -0.0990 
  5 C       -5.1000    -0.7030    -1.4530 C.3   1 <1>   0.3200 
  6 C       -0.8990     0.3960     0.0220 C.3   1 <1>  -0.1600 
  7 C       -5.5340    -1.9850    -0.7590 C.2   1 <1>   0.2980 
  8 C       -0.7820     1.0930     1.3820 C.3   1 <1>  -0.2400 
  9 O       -4.8620    -2.3830     0.2890 O.3   1 <1>  -0.0190 
 10 N       -6.5110    -2.7230    -1.0930 N.2   1 <1>  -0.5650 
 11 N       -5.4620    -3.4710     0.6530 N.2   1 <1>  -0.4100 
 12 C       -6.4350    -3.6820    -0.1620 C.2   1 <1>   0.4620 
 13 C       -7.3560    -4.8040    -0.1110 C.ar  1 <1>   0.0540 
 14 C       -7.2490    -5.7880     0.8700 C.ar  1 <1>  -0.1500 
 15 C       -8.3890    -4.9550    -1.0350 C.ar  1 <1>  -0.1500 
 16 C       -8.1220    -6.8580     0.9240 C.ar  1 <1>  -0.1500 
 17 C       -9.2640    -6.0250    -0.9840 C.ar  1 <1>  -0.1500 
 18 C       -9.1500    -7.0030    -0.0010 C.ar  1 <1>  -0.1430 
 19 C      -10.1020    -8.2150     0.1000 C.3   1 <1>   0.1430 
 20 C      -11.1830    -8.2290    -0.9940 C.3   1 <1>  -0.2400 
 21 C      -10.8180    -8.1950     1.4590 C.3   1 <1>  -0.2400 
 22 C       -9.2930    -9.5150    -0.0310 C.3   1 <1>  -0.2400 
 23 H       -3.8140    -1.4050    -3.0100 H     1 <1>   0.3700 
 24 H       -2.8650    -0.3700     0.3720 H     1 <1>   0.0800 
 25 H       -2.8430     1.1680    -0.4480 H     1 <1>   0.0800 
 26 H       -5.8440    -0.4330    -2.1810 H     1 <1>   0.0800 
 27 H       -5.0460     0.0880    -0.7270 H     1 <1>   0.0800 
 28 H       -0.3910     0.9810    -0.7260 H     1 <1>   0.0800 
 29 H       -0.4150    -0.5660     0.0700 H     1 <1>   0.0800 
 30 H       -1.2380     2.0670     1.3480 H     1 <1>   0.0800 
 31 H        0.2550     1.2120     1.6420 H     1 <1>   0.0800 
 32 H       -1.2600     0.5090     2.1480 H     1 <1>   0.0800 
 33 H       -6.4670    -5.7150     1.6060 H     1 <1>   0.1500 
 34 H       -8.5110    -4.2210    -1.8120 H     1 <1>   0.1500 
 35 H       -7.9890    -7.5850     1.7040 H     1 <1>   0.1500 
 36 H      -10.0330    -6.0700    -1.7310 H     1 <1>   0.1500 
 37 H      -11.7970    -7.3490    -0.9290 H     1 <1>   0.0800 
 38 H      -11.8200    -9.0880    -0.8850 H     1 <1>   0.0800 
 39 H      -10.7320    -8.2710    -1.9690 H     1 <1>   0.0800 
 40 H      -10.1170    -8.2780     2.2680 H     1 <1>   0.0800 
 41 H      -11.5130    -9.0120     1.5350 H     1 <1>   0.0800 
 42 H      -11.3580    -7.2720     1.5740 H     1 <1>   0.0800 
 43 H       -8.7600    -9.5220    -0.9650 H     1 <1>   0.0800 
 44 H       -9.9420   -10.3710    -0.0010 H     1 <1>   0.0800 
 45 H       -8.5780    -9.6090     0.7650 H     1 <1>   0.0800 
@<TRIPOS>BOND
  1   1   2  2   
  2   2   3  am  
  3   2   4  1   
  4   3   5  1   
  5   3  23  1   
  6   4   6  1   
  7   4  24  1   
  8   4  25  1   
  9   5   7  1   
 10   5  26  1   
 11   5  27  1   
 12   6   8  1   
 13   6  28  1   
 14   6  29  1   
 15   7   9  1   
 16   7  10  2   
 17   8  30  1   
 18   8  31  1   
 19   8  32  1   
 20   9  11  1   
 21  10  12  1   
 22  11  12  2   
 23  12  13  1   
 24  13  14  ar  
 25  13  15  ar  
 26  14  16  ar  
 27  14  33  1   
 28  15  17  ar  
 29  15  34  1   
 30  16  18  ar  
 31  16  35  1   
 32  17  18  ar  
 33  17  36  1   
 34  18  19  1   
 35  19  20  1   
 36  19  21  1   
 37  19  22  1   
 38  20  37  1   
 39  20  38  1   
 40  20  39  1   
 41  21  40  1   
 42  21  41  1   
 43  21  42  1   
 44  22  43  1   
 45  22  44  1   
 46  22  45  1   
@<TRIPOS>SUBSTRUCTURE
  1 ****  12 GROUP 4 **** **** 0

# MOE 2024.06 (io_trps.svl 2023.06)
