@<TRIPOS>MOLECULE
7-(3-Chloro-benzyl)-8-(3,4-dihydro-1H-isoquinolin-2-ylmethyl)-1,3-dimethyl-3,7-d
57 61 1 0 0 
SMALL
USER_CHARGES


@<TRIPOS>ATOM
  1 CL      -2.5320    -2.1360    -1.7630 Cl    1 <1>  -0.1770 
  2 C       -1.1310    -3.1440    -1.5160 C.ar  1 <1>   0.1770 
  3 C       -0.8260    -3.5750    -0.2380 C.ar  1 <1>  -0.1500 
  4 C       -0.3500    -3.4970    -2.5980 C.ar  1 <1>  -0.1500 
  5 C        0.2830    -4.3860    -0.0270 C.ar  1 <1>  -0.1440 
  6 C        0.7600    -4.2970    -2.3940 C.ar  1 <1>  -0.1500 
  7 C        1.0730    -4.7370    -1.1180 C.ar  1 <1>  -0.1500 
  8 C        0.6160    -4.8740     1.3770 C.3   1 <1>   0.4980 
  9 N        0.3630    -6.3400     1.4530 N.pl3 1 <1>  -0.7640 
 10 C       -0.9190    -6.8950     1.5650 C.2   1 <1>   0.2770 
 11 C        1.2150    -7.3540     1.3470 C.cat 1 <1>   0.6560 
 12 C       -2.2460    -6.3740     1.7390 C.2   1 <1>   0.7030 
 13 C       -0.7660    -8.2390     1.4950 C.2   1 <1>   0.4260 
 14 N        0.5550    -8.5050     1.3700 N.pl3 1 <1>  -0.7000 
 15 C        2.7460    -7.3230     1.1950 C.3   1 <1>   0.2540 
 16 O       -2.4340    -5.1870     1.9400 O.2   1 <1>  -0.5700 
 17 N       -3.3120    -7.2630     1.7090 N.am  1 <1>  -0.4200 
 18 N       -1.8140    -9.1390     1.5410 N.am  1 <1>  -0.4360 
 19 N        3.2380    -8.5530     0.5270 N.3   1 <1>  -0.8100 
 20 C       -3.1030    -8.6360     1.6240 C.2   1 <1>   0.6900 
 21 C       -4.7130    -6.7480     1.8120 C.3   1 <1>   0.0600 
 22 C       -1.5650   -10.6100     1.4690 C.3   1 <1>   0.0600 
 23 C        4.6420    -8.8550     0.8820 C.3   1 <1>   0.2530 
 24 C        3.0950    -8.5010    -0.9400 C.3   1 <1>   0.1100 
 25 O       -4.0500    -9.3950     1.6240 O.2   1 <1>  -0.5700 
 26 C        5.1450   -10.1070     0.1730 C.ar  1 <1>  -0.1430 
 27 C        3.2890    -9.9010    -1.5300 C.3   1 <1>  -0.0170 
 28 C        4.5220   -10.5930    -0.9710 C.ar  1 <1>  -0.1430 
 29 C        6.2590   -10.7660     0.6730 C.ar  1 <1>  -0.1500 
 30 C        5.0170   -11.7240    -1.6000 C.ar  1 <1>  -0.1500 
 31 C        6.7500   -11.8960     0.0420 C.ar  1 <1>  -0.1500 
 32 C        6.1280   -12.3750    -1.0960 C.ar  1 <1>  -0.1500 
 33 H       -1.4660    -3.2660     0.5700 H     1 <1>   0.1500 
 34 H       -0.6090    -3.1460    -3.5820 H     1 <1>   0.1500 
 35 H        1.3780    -4.5730    -3.2330 H     1 <1>   0.1500 
 36 H        1.9440    -5.3530    -0.9940 H     1 <1>   0.1500 
 37 H        0.0120    -4.3600     2.1070 H     1 <1>   0.0800 
 38 H        1.6480    -4.6610     1.5970 H     1 <1>   0.0800 
 39 H        1.0370    -9.4040     1.2590 H     1 <1>   0.4500 
 40 H        3.1630    -7.2650     2.1860 H     1 <1>   0.0800 
 41 H        3.0600    -6.4530     0.6480 H     1 <1>   0.0800 
 42 H       -4.7730    -5.7260     1.4790 H     1 <1>   0.0800 
 43 H       -5.0430    -6.8040     2.8350 H     1 <1>   0.0800 
 44 H       -5.3740    -7.3380     1.2010 H     1 <1>   0.0800 
 45 H       -0.6930   -10.8710     2.0420 H     1 <1>   0.0800 
 46 H       -1.4210   -10.9040     0.4440 H     1 <1>   0.0800 
 47 H       -2.4030   -11.1570     1.8690 H     1 <1>   0.0800 
 48 H        4.7170    -9.0070     1.9450 H     1 <1>   0.0800 
 49 H        5.2770    -8.0290     0.6100 H     1 <1>   0.0800 
 50 H        3.8320    -7.8330    -1.3570 H     1 <1>   0.0800 
 51 H        2.1170    -8.1430    -1.2150 H     1 <1>   0.0800 
 52 H        3.3700    -9.8250    -2.6000 H     1 <1>   0.0800 
 53 H        2.4260   -10.5010    -1.3070 H     1 <1>   0.0800 
 54 H        6.7550   -10.4040     1.5560 H     1 <1>   0.1500 
 55 H        4.5380   -12.1060    -2.4840 H     1 <1>   0.1500 
 56 H        7.6140   -12.4010     0.4360 H     1 <1>   0.1500 
 57 H        6.5090   -13.2530    -1.5890 H     1 <1>   0.1500 
@<TRIPOS>BOND
  1   1   2  1   
  2   2   3  ar  
  3   2   4  ar  
  4   3   5  ar  
  5   3  33  1   
  6   4   6  ar  
  7   4  34  1   
  8   5   7  ar  
  9   5   8  1   
 10   6   7  ar  
 11   6  35  1   
 12   7  36  1   
 13   8   9  1   
 14   8  37  1   
 15   8  38  1   
 16   9  10  1   
 17   9  11  ar  
 18  10  12  1   
 19  10  13  2   
 20  11  14  ar  
 21  11  15  1   
 22  12  16  2   
 23  12  17  am  
 24  13  14  1   
 25  13  18  1   
 26  14  39  1   
 27  15  19  1   
 28  15  40  1   
 29  15  41  1   
 30  17  20  am  
 31  17  21  1   
 32  18  20  am  
 33  18  22  1   
 34  19  23  1   
 35  19  24  1   
 36  20  25  2   
 37  21  42  1   
 38  21  43  1   
 39  21  44  1   
 40  22  45  1   
 41  22  46  1   
 42  22  47  1   
 43  23  26  1   
 44  23  48  1   
 45  23  49  1   
 46  24  27  1   
 47  24  50  1   
 48  24  51  1   
 49  26  28  ar  
 50  26  29  ar  
 51  27  28  1   
 52  27  52  1   
 53  27  53  1   
 54  28  30  ar  
 55  29  31  ar  
 56  29  54  1   
 57  30  32  ar  
 58  30  55  1   
 59  31  32  ar  
 60  31  56  1   
 61  32  57  1   
@<TRIPOS>SUBSTRUCTURE
  1 ****  11 GROUP 4 **** **** 0

# MOE 2024.06 (io_trps.svl 2023.06)
