@<TRIPOS>MOLECULE
6-(2-Ethoxy-phenyl)-3-ethyl-[1,2,4]triazolo[3,4-b][1,3,4]thiadiazole
33 35 1 0 0 
SMALL
USER_CHARGES


@<TRIPOS>ATOM
  1 S       -0.8670     0.2250     1.4510 S.3   1 <1>  -0.1970 
  2 C        0.1900     1.5940     1.2170 C.2   1 <1>   0.2420 
  3 C       -1.9950     0.9280     0.2570 C.2   1 <1>   0.5050 
  4 N        1.3220     1.9860     1.6810 N.2   1 <1>  -0.3380 
  5 N       -0.3590     2.3970     0.3260 N.pl3 1 <1>   0.5050 
  6 N       -1.5800     2.0400    -0.2390 N.2   1 <1>  -0.6520 
  7 C       -3.1950     0.1770    -0.0130 C.ar  1 <1>   0.0860 
  8 N        1.5560     3.1540     1.0480 N.2   1 <1>  -0.3380 
  9 C        0.5520     3.3810     0.2520 C.2   1 <1>   0.0060 
 10 C       -4.4670     0.7510     0.1100 C.ar  1 <1>   0.0830 
 11 C       -3.1160    -1.1600    -0.4090 C.ar  1 <1>  -0.1500 
 12 C        0.3630     4.5790    -0.6700 C.3   1 <1>   0.0200 
 13 O       -4.5330     2.0400     0.5290 O.3   1 <1>  -0.3620 
 14 C       -5.6070     0.0040    -0.1740 C.ar  1 <1>  -0.1500 
 15 C       -4.2490    -1.8990    -0.6870 C.ar  1 <1>  -0.1500 
 16 C        1.5100     5.5940    -0.5820 C.3   1 <1>  -0.2400 
 17 C       -5.7440     2.7540     0.6110 C.3   1 <1>   0.1200 
 18 C       -5.4980    -1.3150    -0.5720 C.ar  1 <1>  -0.1500 
 19 C       -5.4170     4.1760     1.0560 C.3   1 <1>  -0.2400 
 20 H       -2.1500    -1.6260    -0.5070 H     1 <1>   0.1500 
 21 H       -0.5610     5.0680    -0.4160 H     1 <1>   0.0800 
 22 H        0.2810     4.2250    -1.6830 H     1 <1>   0.0800 
 23 H       -6.5900     0.4280    -0.0890 H     1 <1>   0.1500 
 24 H       -4.1640    -2.9280    -0.9930 H     1 <1>   0.1500 
 25 H        1.5940     5.9710     0.4220 H     1 <1>   0.0800 
 26 H        1.3300     6.4180    -1.2480 H     1 <1>   0.0800 
 27 H        2.4400     5.1260    -0.8520 H     1 <1>   0.0800 
 28 H       -6.3810     2.2670     1.3280 H     1 <1>   0.0800 
 29 H       -6.2050     2.7570    -0.3620 H     1 <1>   0.0800 
 30 H       -6.3820    -1.8900    -0.7900 H     1 <1>   0.1500 
 31 H       -4.9430     4.1610     2.0220 H     1 <1>   0.0800 
 32 H       -6.3210     4.7530     1.1260 H     1 <1>   0.0800 
 33 H       -4.7640     4.6450     0.3430 H     1 <1>   0.0800 
@<TRIPOS>BOND
  1   1   2  1   
  2   1   3  1   
  3   2   4  2   
  4   2   5  1   
  5   3   6  2   
  6   3   7  1   
  7   4   8  1   
  8   5   6  1   
  9   5   9  1   
 10   7  10  ar  
 11   7  11  ar  
 12   8   9  2   
 13   9  12  1   
 14  10  13  1   
 15  10  14  ar  
 16  11  15  ar  
 17  11  20  1   
 18  12  16  1   
 19  12  21  1   
 20  12  22  1   
 21  13  17  1   
 22  14  18  ar  
 23  14  23  1   
 24  15  18  ar  
 25  15  24  1   
 26  16  25  1   
 27  16  26  1   
 28  16  27  1   
 29  17  19  1   
 30  17  28  1   
 31  17  29  1   
 32  18  30  1   
 33  19  31  1   
 34  19  32  1   
 35  19  33  1   
@<TRIPOS>SUBSTRUCTURE
  1 ****   3 GROUP 4 **** **** 0

# MOE 2024.06 (io_trps.svl 2023.06)
