@<TRIPOS>MOLECULE
1-(4-Methyl-piperazin-1-yl)-4-(3-m-tolyl-[1,2,4]oxadiazol-5-yl)-butan-1-one
49 51 1 0 0 
SMALL
USER_CHARGES


@<TRIPOS>ATOM
  1 O       -0.2770    -1.8570     1.1210 O.2   1 <1>  -0.5700 
  2 C       -1.2720    -2.1890     0.5270 C.2   1 <1>   0.5690 
  3 N       -1.3620    -3.4250    -0.0740 N.am  1 <1>  -0.6600 
  4 C       -2.4310    -1.2020     0.4980 C.3   1 <1>  -0.0990 
  5 C       -0.2410    -4.4100     0.0340 C.3   1 <1>   0.1400 
  6 C       -2.5480    -3.9500    -0.8170 C.3   1 <1>   0.1400 
  7 C       -2.5610    -0.4530    -0.8470 C.3   1 <1>  -0.1600 
  8 C       -0.7420    -5.7340     0.6430 C.3   1 <1>   0.3430 
  9 C       -3.0370    -5.2820    -0.2160 C.3   1 <1>   0.3430 
 10 C       -4.0130    -0.0400    -1.1560 C.3   1 <1>   0.0200 
 11 N       -1.9270    -6.2960    -0.1060 N.4   1 <1>  -0.9590 
 12 C       -4.8510    -1.2620    -1.4870 C.2   1 <1>   0.2980 
 13 C       -2.4200    -7.5530     0.5340 C.3   1 <1>   0.2630 
 14 O       -4.7350    -1.7970    -2.6750 O.3   1 <1>  -0.0190 
 15 N       -5.6210    -1.8770    -0.6890 N.2   1 <1>  -0.5650 
 16 N       -5.4710    -2.8610    -2.6150 N.2   1 <1>  -0.4100 
 17 C       -6.0110    -2.9050    -1.4490 C.2   1 <1>   0.4620 
 18 C       -6.8620    -3.9730    -0.9530 C.ar  1 <1>   0.0540 
 19 C       -7.2910    -4.0130     0.3760 C.ar  1 <1>  -0.1500 
 20 C       -7.2630    -5.0210    -1.7840 C.ar  1 <1>  -0.1500 
 21 C       -8.0660    -5.0510     0.8630 C.ar  1 <1>  -0.1430 
 22 C       -8.0390    -6.0620    -1.3090 C.ar  1 <1>  -0.1500 
 23 C       -8.4380    -6.0790     0.0140 C.ar  1 <1>  -0.1500 
 24 C       -8.5230    -5.0630     2.3110 C.3   1 <1>  -0.0970 
 25 H       -2.2790    -0.4780     1.2800 H     1 <1>   0.0800 
 26 H       -3.3300    -1.7280     0.7530 H     1 <1>   0.0800 
 27 H        0.5500    -4.0220     0.6520 H     1 <1>   0.0800 
 28 H        0.1720    -4.5870    -0.9430 H     1 <1>   0.0800 
 29 H       -2.2890    -4.0900    -1.8520 H     1 <1>   0.0800 
 30 H       -3.3560    -3.2530    -0.7820 H     1 <1>   0.0800 
 31 H       -2.1970    -1.0700    -1.6510 H     1 <1>   0.0800 
 32 H       -1.9360     0.4240    -0.8140 H     1 <1>   0.0800 
 33 H       -1.0160    -5.5490     1.6690 H     1 <1>   0.0800 
 34 H        0.0650    -6.4480     0.6410 H     1 <1>   0.0800 
 35 H       -3.8340    -5.6720    -0.8290 H     1 <1>   0.0800 
 36 H       -3.4440    -5.0830     0.7620 H     1 <1>   0.0800 
 37 H       -4.0310     0.6300    -1.9980 H     1 <1>   0.0800 
 38 H       -4.4400     0.4740    -0.3130 H     1 <1>   0.0800 
 39 H       -1.6130    -6.5140    -1.0630 H     1 <1>   0.4500 
 40 H       -2.7560    -7.3550     1.5390 H     1 <1>   0.0800 
 41 H       -1.6320    -8.2890     0.5730 H     1 <1>   0.0800 
 42 H       -3.2430    -7.9630    -0.0290 H     1 <1>   0.0800 
 43 H       -7.0160    -3.2110     1.0380 H     1 <1>   0.1500 
 44 H       -6.9700    -5.0200    -2.8200 H     1 <1>   0.1500 
 45 H       -8.3400    -6.8570    -1.9700 H     1 <1>   0.1500 
 46 H       -9.0470    -6.8900     0.3780 H     1 <1>   0.1500 
 47 H       -7.8940    -4.4350     2.9170 H     1 <1>   0.0800 
 48 H       -8.4890    -6.0620     2.7070 H     1 <1>   0.0800 
 49 H       -9.5340    -4.7000     2.3740 H     1 <1>   0.0800 
@<TRIPOS>BOND
  1   1   2  2   
  2   2   3  am  
  3   2   4  1   
  4   3   5  1   
  5   3   6  1   
  6   4   7  1   
  7   4  25  1   
  8   4  26  1   
  9   5   8  1   
 10   5  27  1   
 11   5  28  1   
 12   6   9  1   
 13   6  29  1   
 14   6  30  1   
 15   7  10  1   
 16   7  31  1   
 17   7  32  1   
 18   8  11  1   
 19   8  33  1   
 20   8  34  1   
 21   9  11  1   
 22   9  35  1   
 23   9  36  1   
 24  10  12  1   
 25  10  37  1   
 26  10  38  1   
 27  11  13  1   
 28  11  39  1   
 29  12  14  1   
 30  12  15  2   
 31  13  40  1   
 32  13  41  1   
 33  13  42  1   
 34  14  16  1   
 35  15  17  1   
 36  16  17  2   
 37  17  18  1   
 38  18  19  ar  
 39  18  20  ar  
 40  19  21  ar  
 41  19  43  1   
 42  20  22  ar  
 43  20  44  1   
 44  21  23  ar  
 45  21  24  1   
 46  22  23  ar  
 47  22  45  1   
 48  23  46  1   
 49  24  47  1   
 50  24  48  1   
 51  24  49  1   
@<TRIPOS>SUBSTRUCTURE
  1 ****   6 GROUP 4 **** **** 0

# MOE 2024.06 (io_trps.svl 2023.06)
