@<TRIPOS>MOLECULE
N-{1-[3-(4-tert-Butyl-phenyl)-[1,2,4]oxadiazol-5-yl]-ethyl}-2-phenoxy-acetamide
53 55 1 0 0 
SMALL
USER_CHARGES


@<TRIPOS>ATOM
  1 O       -5.3210     0.8190    -3.0540 O.2   1 <1>  -0.5700 
  2 C       -5.1050     0.9760    -1.8790 C.2   1 <1>   0.5690 
  3 N       -5.7030     0.1480    -0.9880 N.am  1 <1>  -0.7300 
  4 C       -4.2030     2.1390    -1.4650 C.3   1 <1>   0.1810 
  5 C       -5.4670    -0.0270     0.4630 C.3   1 <1>   0.4000 
  6 O       -3.2010     1.7360    -0.5440 O.3   1 <1>  -0.3630 
  7 C       -5.8850    -1.4340     0.9020 C.2   1 <1>   0.2980 
  8 C       -6.2620     1.0410     1.2150 C.3   1 <1>  -0.2400 
  9 C       -2.3720     2.6400     0.0320 C.ar  1 <1>   0.0830 
 10 O       -5.5140    -1.8410     2.0870 O.3   1 <1>  -0.0190 
 11 N       -6.5690    -2.2720     0.2300 N.2   1 <1>  -0.5650 
 12 C       -1.5030     2.1600     0.9990 C.ar  1 <1>  -0.1500 
 13 C       -2.3550     3.9950    -0.2940 C.ar  1 <1>  -0.1500 
 14 N       -6.0010    -3.0370     2.1790 N.2   1 <1>  -0.4100 
 15 C       -6.6250    -3.2990     1.0850 C.2   1 <1>   0.4620 
 16 C       -0.6300     3.0170     1.6450 C.ar  1 <1>  -0.1500 
 17 C       -1.4800     4.8500     0.3540 C.ar  1 <1>  -0.1500 
 18 C       -7.3150    -4.5410     0.7750 C.ar  1 <1>   0.0540 
 19 C       -0.6190     4.3630     1.3230 C.ar  1 <1>  -0.1500 
 20 C       -7.3750    -5.5880     1.6930 C.ar  1 <1>  -0.1500 
 21 C       -7.9490    -4.7470    -0.4480 C.ar  1 <1>  -0.1500 
 22 C       -8.0290    -6.7720     1.4080 C.ar  1 <1>  -0.1500 
 23 C       -8.6030    -5.9310    -0.7360 C.ar  1 <1>  -0.1500 
 24 C       -8.6590    -6.9710     0.1840 C.ar  1 <1>  -0.1430 
 25 C       -9.4020    -8.2740    -0.1840 C.3   1 <1>   0.1430 
 26 C       -8.7510    -8.9030    -1.4240 C.3   1 <1>  -0.2400 
 27 C       -9.3730    -9.3250     0.9390 C.3   1 <1>  -0.2400 
 28 C      -10.8750    -7.9580    -0.4850 C.3   1 <1>  -0.2400 
 29 H       -6.2680    -0.6090    -1.3850 H     1 <1>   0.3700 
 30 H       -4.8020     2.9030    -1.0070 H     1 <1>   0.0800 
 31 H       -3.7130     2.5340    -2.3370 H     1 <1>   0.0800 
 32 H       -4.4190     0.0800     0.6760 H     1 <1>   0.0800 
 33 H       -7.3120     0.9420     1.0000 H     1 <1>   0.0800 
 34 H       -5.9300     2.0240     0.9390 H     1 <1>   0.0800 
 35 H       -6.1180     0.9240     2.2740 H     1 <1>   0.0800 
 36 H       -1.5130     1.1140     1.2430 H     1 <1>   0.1500 
 37 H       -3.0050     4.4020    -1.0440 H     1 <1>   0.1500 
 38 H        0.0410     2.6370     2.3960 H     1 <1>   0.1500 
 39 H       -1.4650     5.8970     0.1040 H     1 <1>   0.1500 
 40 H        0.0600     5.0310     1.8240 H     1 <1>   0.1500 
 41 H       -6.8990    -5.4730     2.6520 H     1 <1>   0.1500 
 42 H       -7.9310    -3.9690    -1.1910 H     1 <1>   0.1500 
 43 H       -8.0300    -7.5310     2.1680 H     1 <1>   0.1500 
 44 H       -9.0740    -6.0310    -1.6970 H     1 <1>   0.1500 
 45 H       -7.7100    -9.0980    -1.2340 H     1 <1>   0.0800 
 46 H       -8.8210    -8.2500    -2.2740 H     1 <1>   0.0800 
 47 H       -9.2320    -9.8310    -1.6770 H     1 <1>   0.0800 
 48 H       -8.3600    -9.6020     1.1710 H     1 <1>   0.0800 
 49 H       -9.9010   -10.2130     0.6400 H     1 <1>   0.0800 
 50 H       -9.8430    -8.9420     1.8270 H     1 <1>   0.0800 
 51 H      -10.9660    -7.2960    -1.3250 H     1 <1>   0.0800 
 52 H      -11.3300    -7.4860     0.3670 H     1 <1>   0.0800 
 53 H      -11.4180    -8.8580    -0.7090 H     1 <1>   0.0800 
@<TRIPOS>BOND
  1   1   2  2   
  2   2   3  am  
  3   2   4  1   
  4   3   5  1   
  5   3  29  1   
  6   4   6  1   
  7   4  30  1   
  8   4  31  1   
  9   5   7  1   
 10   5   8  1   
 11   5  32  1   
 12   6   9  1   
 13   7  10  1   
 14   7  11  2   
 15   8  33  1   
 16   8  34  1   
 17   8  35  1   
 18   9  12  ar  
 19   9  13  ar  
 20  10  14  1   
 21  11  15  1   
 22  12  16  ar  
 23  12  36  1   
 24  13  17  ar  
 25  13  37  1   
 26  14  15  2   
 27  15  18  1   
 28  16  19  ar  
 29  16  38  1   
 30  17  19  ar  
 31  17  39  1   
 32  18  20  ar  
 33  18  21  ar  
 34  19  40  1   
 35  20  22  ar  
 36  20  41  1   
 37  21  23  ar  
 38  21  42  1   
 39  22  24  ar  
 40  22  43  1   
 41  23  24  ar  
 42  23  44  1   
 43  24  25  1   
 44  25  26  1   
 45  25  27  1   
 46  25  28  1   
 47  26  45  1   
 48  26  46  1   
 49  26  47  1   
 50  27  48  1   
 51  27  49  1   
 52  27  50  1   
 53  28  51  1   
 54  28  52  1   
 55  28  53  1   
@<TRIPOS>SUBSTRUCTURE
  1 ****   7 GROUP 4 **** **** 0

# MOE 2024.06 (io_trps.svl 2023.06)
