@<TRIPOS>MOLECULE
NONAME
41 45 1 0 0 
SMALL
USER_CHARGES


@<TRIPOS>ATOM
  1 O       -0.9090     1.6240    -2.1420 O.2   1 <1>  -0.5700 
  2 C       -1.2040     2.0440    -1.0530 C.2   1 <1>   0.5690 
  3 N       -0.3950     2.7070    -0.1590 N.am  1 <1>  -0.4200 
  4 C       -2.5420     1.8730    -0.3910 C.3   1 <1>  -0.0190 
  5 C       -1.1530     3.2410     0.8630 C.2   1 <1>   0.5690 
  6 C        1.0730     2.8080    -0.3210 C.3   1 <1>   0.2200 
  7 C       -3.9760     1.5280    -0.8720 C.3   1 <1>   0.1530 
  8 C       -2.5870     3.1780     0.4190 C.3   1 <1>  -0.0190 
  9 O       -0.7770     3.7280     1.8970 O.2   1 <1>  -0.5700 
 10 C        1.7970     2.0470     0.7990 C.3   1 <1>  -0.1600 
 11 C        1.5180     4.2770    -0.3810 C.3   1 <1>  -0.1600 
 12 C       -4.5690     1.0290     0.4540 C.2   1 <1>  -0.2880 
 13 C       -4.7660     2.8320    -1.2100 C.3   1 <1>  -0.1950 
 14 C       -3.9630     3.2950     1.1380 C.3   1 <1>   0.1530 
 15 C        3.3210     2.1540     0.6400 C.3   1 <1>  -0.1600 
 16 C        3.0420     4.3830    -0.5410 C.3   1 <1>  -0.1600 
 17 C       -4.5170     1.9020     1.4730 C.2   1 <1>  -0.2880 
 18 C       -4.8700     3.7930    -0.0340 C.3   1 <1>  -0.1950 
 19 C       -6.1090     3.1850    -0.6400 C.3   1 <1>  -0.2000 
 20 C        3.7700     3.6210     0.5750 C.3   1 <1>  -0.1600 
 21 H       -2.2950     1.0690     0.2870 H     1 <1>   0.0800 
 22 H        1.3410     2.3470    -1.2580 H     1 <1>   0.0800 
 23 H       -4.0050     0.7800    -1.6450 H     1 <1>   0.0800 
 24 H       -2.5800     4.0000    -0.2790 H     1 <1>   0.0800 
 25 H        1.5100     1.0110     0.7760 H     1 <1>   0.0800 
 26 H        1.5210     2.4570     1.7550 H     1 <1>   0.0800 
 27 H        1.2330     4.7830     0.5250 H     1 <1>   0.0800 
 28 H        1.0400     4.7650    -1.2120 H     1 <1>   0.0800 
 29 H       -4.9580     0.0250     0.4720 H     1 <1>   0.1500 
 30 H       -4.4930     3.2500    -2.1640 H     1 <1>   0.1000 
 31 H       -3.9580     3.9750     1.9730 H     1 <1>   0.0800 
 32 H        3.6240     1.6490    -0.2610 H     1 <1>   0.0800 
 33 H        3.8040     1.6670     1.4700 H     1 <1>   0.0800 
 34 H        3.3360     5.4190    -0.5200 H     1 <1>   0.0800 
 35 H        3.3310     3.9780    -1.4960 H     1 <1>   0.0800 
 36 H       -4.8510     1.7430     2.4840 H     1 <1>   0.1500 
 37 H       -4.7400     4.8450    -0.2230 H     1 <1>   0.1000 
 38 H       -6.6750     2.4660    -0.0740 H     1 <1>   0.1000 
 39 H       -6.7540     3.8200    -1.2220 H     1 <1>   0.1000 
 40 H        4.8320     3.6660     0.4090 H     1 <1>   0.0800 
 41 H        3.5650     4.0960     1.5200 H     1 <1>   0.0800 
@<TRIPOS>BOND
  1   1   2  2   
  2   2   3  am  
  3   2   4  1   
  4   3   5  am  
  5   3   6  1   
  6   4   7  1   
  7   4   8  1   
  8   4  21  1   
  9   5   8  1   
 10   5   9  2   
 11   6  10  1   
 12   6  11  1   
 13   6  22  1   
 14   7  12  1   
 15   7  13  1   
 16   7  23  1   
 17   8  14  1   
 18   8  24  1   
 19  10  15  1   
 20  10  25  1   
 21  10  26  1   
 22  11  16  1   
 23  11  27  1   
 24  11  28  1   
 25  12  17  2   
 26  12  29  1   
 27  13  18  1   
 28  13  19  1   
 29  13  30  1   
 30  14  17  1   
 31  14  18  1   
 32  14  31  1   
 33  15  20  1   
 34  15  32  1   
 35  15  33  1   
 36  16  20  1   
 37  16  34  1   
 38  16  35  1   
 39  17  36  1   
 40  18  19  1   
 41  18  37  1   
 42  19  38  1   
 43  19  39  1   
 44  20  40  1   
 45  20  41  1   
@<TRIPOS>SUBSTRUCTURE
  1 ****   5 GROUP 4 **** **** 0

# MOE 2024.06 (io_trps.svl 2023.06)
