@<TRIPOS>MOLECULE
4-(5-Amino-pyrazol-1-yl)-piperidine-1-carboxylic acid tert-butyl ester
41 42 1 0 0 
SMALL
USER_CHARGES


@<TRIPOS>ATOM
  1 O        1.5480     1.1200    -1.2820 O.2   1 <1>  -0.5700 
  2 C        2.1490     1.7040    -0.4020 C.2   1 <1>   0.7800 
  3 O        3.3540     1.2910     0.0000 O.3   1 <1>  -0.4300 
  4 N        1.6350     2.8110     0.2240 N.am  1 <1>  -0.6600 
  5 C        4.0850     0.1850    -0.4830 C.3   1 <1>   0.2800 
  6 C        0.2760     3.3260    -0.0910 C.3   1 <1>   0.1400 
  7 C        2.3910     3.5310     1.2890 C.3   1 <1>   0.1400 
  8 C        5.3800     0.1750     0.3310 C.3   1 <1>  -0.2400 
  9 C        3.3170    -1.1160    -0.2230 C.3   1 <1>  -0.2400 
 10 C        4.4230     0.3800    -1.9660 C.3   1 <1>  -0.2400 
 11 C        0.3640     4.7810    -0.5640 C.3   1 <1>  -0.1600 
 12 C        1.8540     4.9520     1.5010 C.3   1 <1>  -0.1600 
 13 C        1.4640     5.5910     0.1570 C.3   1 <1>   0.1760 
 14 N        1.0430     7.0060     0.3400 N.pl3 1 <1>   0.3140 
 15 N        0.0990     7.3740     1.2500 N.2   1 <1>  -0.7070 
 16 C        1.4730     8.0800    -0.3840 C.2   1 <1>  -0.0680 
 17 C       -0.0480     8.6500     1.0720 C.2   1 <1>   0.1390 
 18 N        2.4400     8.0740    -1.4020 N.pl3 1 <1>  -0.8840 
 19 C        0.7760     9.1460     0.0690 C.2   1 <1>  -0.1500 
 20 H       -0.3250     3.2710     0.8010 H     1 <1>   0.0800 
 21 H       -0.2030     2.7250    -0.8460 H     1 <1>   0.0800 
 22 H        3.4270     3.5890     0.9980 H     1 <1>   0.0800 
 23 H        2.3330     2.9740     2.2080 H     1 <1>   0.0800 
 24 H        5.1600     0.0660     1.3780 H     1 <1>   0.0800 
 25 H        5.9220     1.0910     0.1800 H     1 <1>   0.0800 
 26 H        6.0060    -0.6440     0.0290 H     1 <1>   0.0800 
 27 H        3.9360    -1.9610    -0.4620 H     1 <1>   0.0800 
 28 H        2.4370    -1.1780    -0.8350 H     1 <1>   0.0800 
 29 H        3.0340    -1.1830     0.8120 H     1 <1>   0.0800 
 30 H        5.0960    -0.3920    -2.2930 H     1 <1>   0.0800 
 31 H        4.8960     1.3330    -2.1200 H     1 <1>   0.0800 
 32 H        3.5410     0.3200    -2.5760 H     1 <1>   0.0800 
 33 H       -0.5990     5.2370    -0.4100 H     1 <1>   0.0800 
 34 H        0.5640     4.7920    -1.6200 H     1 <1>   0.0800 
 35 H        2.6070     5.5450     1.9890 H     1 <1>   0.0800 
 36 H        0.9950     4.9120     2.1470 H     1 <1>   0.0800 
 37 H        2.3370     5.5890    -0.4690 H     1 <1>   0.0800 
 38 H       -0.7360     9.2500     1.6430 H     1 <1>   0.1500 
 39 H        2.6700     9.0070    -1.7630 H     1 <1>   0.4000 
 40 H        3.3060     7.5700    -1.1820 H     1 <1>   0.4000 
 41 H        0.8280    10.1670    -0.2590 H     1 <1>   0.1500 
@<TRIPOS>BOND
  1   1   2  2   
  2   2   3  1   
  3   2   4  am  
  4   3   5  1   
  5   4   6  1   
  6   4   7  1   
  7   5   8  1   
  8   5   9  1   
  9   5  10  1   
 10   6  11  1   
 11   6  20  1   
 12   6  21  1   
 13   7  12  1   
 14   7  22  1   
 15   7  23  1   
 16   8  24  1   
 17   8  25  1   
 18   8  26  1   
 19   9  27  1   
 20   9  28  1   
 21   9  29  1   
 22  10  30  1   
 23  10  31  1   
 24  10  32  1   
 25  11  13  1   
 26  11  33  1   
 27  11  34  1   
 28  12  13  1   
 29  12  35  1   
 30  12  36  1   
 31  13  14  1   
 32  13  37  1   
 33  14  15  1   
 34  14  16  1   
 35  15  17  2   
 36  16  18  1   
 37  16  19  2   
 38  17  19  1   
 39  17  38  1   
 40  18  39  1   
 41  18  40  1   
 42  19  41  1   
@<TRIPOS>SUBSTRUCTURE
  1 ****   4 GROUP 4 **** **** 0

# MOE 2024.06 (io_trps.svl 2023.06)
