@<TRIPOS>MOLECULE
NONAME
53 55 1 0 0 
SMALL
USER_CHARGES


@<TRIPOS>ATOM
  1 O        3.4880    -2.3100    -2.1860 O.2   1 <1>  -0.5700 
  2 C        4.0830    -1.3540    -1.7520 C.2   1 <1>   0.5690 
  3 N        4.6310    -0.3850    -2.5300 N.am  1 <1>  -0.5390 
  4 C        4.3690    -1.0370    -0.2730 C.3   1 <1>   0.4810 
  5 C        5.3270     0.5160    -1.7660 C.2   1 <1>  -0.0290 
  6 C        5.0490    -2.2190     0.4410 C.2   1 <1>  -0.1240 
  7 C        3.0600    -0.5980     0.3980 C.ar  1 <1>  -0.1440 
  8 C        5.2540     0.2090    -0.4460 C.2   1 <1>  -0.1240 
  9 C        6.0440     1.6490    -2.4760 C.3   1 <1>  -0.1020 
 10 C        4.4580    -2.7370     1.5610 C.2   1 <1>   0.1770 
 11 C        6.2670    -2.7150    -0.1130 C.2   1 <1>   0.7060 
 12 C        2.6190    -1.2500     1.5400 C.ar  1 <1>   0.0830 
 13 C        2.2970     0.4520    -0.1030 C.ar  1 <1>  -0.1500 
 14 C        5.8170     0.8330     0.7090 C.2   1 <1>   0.7060 
 15 O        3.3150    -2.2740     2.0750 O.3   1 <1>  -0.1590 
 16 N        4.9510    -3.7760     2.2910 N.pl3 1 <1>  -0.9000 
 17 O        6.8730    -3.6840     0.3230 O.2   1 <1>  -0.5700 
 18 O        6.8060    -2.0920    -1.1680 O.3   1 <1>  -0.4300 
 19 C        1.4470    -0.8660     2.1710 C.ar  1 <1>  -0.1500 
 20 C        1.1250     0.8380     0.5250 C.ar  1 <1>  -0.1500 
 21 O        6.4960     1.8370     0.6510 O.2   1 <1>  -0.5700 
 22 O        5.5790     0.2630     1.8940 O.3   1 <1>  -0.4300 
 23 C        7.9750    -2.5330    -1.8190 C.3   1 <1>   0.2000 
 24 C        0.6980     0.1790     1.6640 C.ar  1 <1>  -0.1500 
 25 C        6.0170     0.6810     3.1700 C.3   1 <1>   0.2000 
 26 C        8.5810    -1.3210    -2.5190 C.3   1 <1>  -0.2400 
 27 C        7.5850    -3.6180    -2.8240 C.3   1 <1>  -0.2400 
 28 C        5.4330     2.0510     3.5170 C.3   1 <1>  -0.2400 
 29 C        7.5430     0.6210     3.2600 C.3   1 <1>  -0.2400 
 30 H        4.5700    -0.4280    -3.5490 H     1 <1>   0.3700 
 31 H        5.3310     2.2630    -2.9970 H     1 <1>   0.0800 
 32 H        6.7460     1.2540    -3.1870 H     1 <1>   0.0800 
 33 H        6.5810     2.2710    -1.7850 H     1 <1>   0.0800 
 34 H        2.6020     0.9840    -0.9880 H     1 <1>   0.1500 
 35 H        5.8060    -4.2680     1.9870 H     1 <1>   0.4000 
 36 H        4.4580    -4.1800     3.0900 H     1 <1>   0.4000 
 37 H        1.1260    -1.3880     3.0550 H     1 <1>   0.1500 
 38 H        0.5430     1.6510     0.1270 H     1 <1>   0.1500 
 39 H        8.6680    -2.9140    -1.0860 H     1 <1>   0.0800 
 40 H       -0.2130     0.4780     2.1530 H     1 <1>   0.1500 
 41 H        5.6140    -0.0390     3.8620 H     1 <1>   0.0800 
 42 H        7.9020    -0.9370    -3.2580 H     1 <1>   0.0800 
 43 H        9.4970    -1.6000    -3.0060 H     1 <1>   0.0800 
 44 H        8.8000    -0.5530    -1.7980 H     1 <1>   0.0800 
 45 H        6.8580    -3.2430    -3.5220 H     1 <1>   0.0800 
 46 H        7.1780    -4.4700    -2.3090 H     1 <1>   0.0800 
 47 H        8.4530    -3.9410    -3.3690 H     1 <1>   0.0800 
 48 H        5.8570     2.8230     2.9010 H     1 <1>   0.0800 
 49 H        5.6520     2.2870     4.5420 H     1 <1>   0.0800 
 50 H        4.3650     2.0380     3.3920 H     1 <1>   0.0800 
 51 H        8.0010     1.3690     2.6380 H     1 <1>   0.0800 
 52 H        7.8920    -0.3530     2.9670 H     1 <1>   0.0800 
 53 H        7.8510     0.8000     4.2740 H     1 <1>   0.0800 
@<TRIPOS>BOND
  1   1   2  2   
  2   2   3  am  
  3   2   4  1   
  4   3   5  1   
  5   3  30  1   
  6   4   6  1   
  7   4   7  1   
  8   4   8  1   
  9   5   8  2   
 10   5   9  1   
 11   6  10  2   
 12   6  11  1   
 13   7  12  ar  
 14   7  13  ar  
 15   8  14  1   
 16   9  31  1   
 17   9  32  1   
 18   9  33  1   
 19  10  15  1   
 20  10  16  1   
 21  11  17  2   
 22  11  18  1   
 23  12  15  1   
 24  12  19  ar  
 25  13  20  ar  
 26  13  34  1   
 27  14  21  2   
 28  14  22  1   
 29  16  35  1   
 30  16  36  1   
 31  18  23  1   
 32  19  24  ar  
 33  19  37  1   
 34  20  24  ar  
 35  20  38  1   
 36  22  25  1   
 37  23  26  1   
 38  23  27  1   
 39  23  39  1   
 40  24  40  1   
 41  25  28  1   
 42  25  29  1   
 43  25  41  1   
 44  26  42  1   
 45  26  43  1   
 46  26  44  1   
 47  27  45  1   
 48  27  46  1   
 49  27  47  1   
 50  28  48  1   
 51  28  49  1   
 52  28  50  1   
 53  29  51  1   
 54  29  52  1   
 55  29  53  1   
@<TRIPOS>SUBSTRUCTURE
  1 ****   4 GROUP 4 **** **** 0

# MOE 2024.06 (io_trps.svl 2023.06)
