@<TRIPOS>MOLECULE
1,7-Dimethyl-8-(3,3,5-trimethyl-cyclohexyl)-1H,8H-imidazo[2,1-f]purine-2,4-dione
51 54 1 0 0 
SMALL
USER_CHARGES


@<TRIPOS>ATOM
  1 O        1.2690     1.5130     2.4380 O.2   1 <1>  -0.5740 
  2 C        2.1900     1.7640     1.6970 C.2   1 <1>   0.6860 
  3 N        3.3800     1.0480     1.7270 N.am  1 <1>  -0.4410 
  4 N        2.0480     2.7910     0.8080 N.am  1 <1>  -0.4950 
  5 C        4.3850     1.4290     0.8510 C.2   1 <1>   0.4210 
  6 C        3.5700    -0.0830     2.6820 C.3   1 <1>   0.0520 
  7 C        3.0220     3.1790    -0.0680 C.2   1 <1>   0.7000 
  8 N        5.6320     0.8840     0.7200 N.pl3 1 <1>  -0.7040 
  9 C        4.2500     2.4520    -0.0330 C.2   1 <1>   0.2710 
 10 O        2.8090     4.1080    -0.8210 O.2   1 <1>  -0.5740 
 11 C        6.2490     1.5790    -0.2470 C.cat 1 <1>   1.0690 
 12 N        5.4620     2.5310    -0.7320 N.pl3 1 <1>  -0.6330 
 13 N        7.4500     1.5740    -0.8350 N.pl3 1 <1>  -0.5720 
 14 C        6.1900     3.2000    -1.6930 C.2   1 <1>   0.2220 
 15 C        7.4090     2.6180    -1.7610 C.2   1 <1>   0.1580 
 16 C        8.5430     0.6530    -0.4260 C.3   1 <1>   0.2410 
 17 C        8.5490     3.0190    -2.6820 C.3   1 <1>  -0.1090 
 18 C        9.5960     1.3990     0.4030 C.3   1 <1>  -0.1670 
 19 C        9.1720    -0.0870    -1.6110 C.3   1 <1>  -0.1670 
 20 C       10.7050     0.4570     0.9140 C.3   1 <1>  -0.0080 
 21 C       10.2310    -1.0820    -1.1150 C.3   1 <1>  -0.0880 
 22 C       11.2910    -0.3580    -0.2610 C.3   1 <1>  -0.1670 
 23 C       11.8240     1.3050     1.5350 C.3   1 <1>  -0.2470 
 24 C       10.1660    -0.4800     2.0110 C.3   1 <1>  -0.2470 
 25 C       10.8960    -1.7860    -2.3030 C.3   1 <1>  -0.2470 
 26 H        1.1630     3.2950     0.8100 H     1 <1>   0.3640 
 27 H        2.6300    -0.3750     3.1210 H     1 <1>   0.0720 
 28 H        4.2360     0.2170     3.4730 H     1 <1>   0.0720 
 29 H        3.9790    -0.9360     2.1710 H     1 <1>   0.0720 
 30 H        6.0440     0.1190     1.2490 H     1 <1>   0.4450 
 31 H        5.7880     4.0330    -2.2510 H     1 <1>   0.1430 
 32 H        8.1090    -0.1010     0.2060 H     1 <1>   0.0720 
 33 H        8.7100     2.2630    -3.4290 H     1 <1>   0.0720 
 34 H        9.4570     3.1710    -2.1290 H     1 <1>   0.0720 
 35 H        8.3100     3.9370    -3.1880 H     1 <1>   0.0720 
 36 H        9.1290     1.8840     1.2410 H     1 <1>   0.0720 
 37 H       10.0520     2.1550    -0.2080 H     1 <1>   0.0720 
 38 H        9.6590     0.6050    -2.2700 H     1 <1>   0.0720 
 39 H        8.4120    -0.6160    -2.1580 H     1 <1>   0.0720 
 40 H        9.7530    -1.8380    -0.5150 H     1 <1>   0.0720 
 41 H       11.9930    -1.0800     0.1190 H     1 <1>   0.0720 
 42 H       11.8420     0.3090    -0.9020 H     1 <1>   0.0720 
 43 H       12.2400     1.9820     0.8100 H     1 <1>   0.0720 
 44 H       12.6180     0.6740     1.8960 H     1 <1>   0.0720 
 45 H       11.4510     1.8830     2.3620 H     1 <1>   0.0720 
 46 H        9.7670     0.0900     2.8320 H     1 <1>   0.0720 
 47 H       10.9640    -1.0940     2.3940 H     1 <1>   0.0720 
 48 H        9.4000    -1.1370     1.6480 H     1 <1>   0.0720 
 49 H       11.3960    -1.0760    -2.9380 H     1 <1>   0.0720 
 50 H       10.1620    -2.3130    -2.8860 H     1 <1>   0.0720 
 51 H       11.6220    -2.4990    -1.9520 H     1 <1>   0.0720 
@<TRIPOS>BOND
  1   1   2  2   
  2   2   3  am  
  3   2   4  am  
  4   3   5  1   
  5   3   6  1   
  6   4   7  am  
  7   4  26  1   
  8   5   8  1   
  9   5   9  2   
 10   6  27  1   
 11   6  28  1   
 12   6  29  1   
 13   7   9  1   
 14   7  10  2   
 15   8  11  ar  
 16   8  30  1   
 17   9  12  1   
 18  11  12  ar  
 19  11  13  ar  
 20  12  14  1   
 21  13  15  1   
 22  13  16  1   
 23  14  15  2   
 24  14  31  1   
 25  15  17  1   
 26  16  18  1   
 27  16  19  1   
 28  16  32  1   
 29  17  33  1   
 30  17  34  1   
 31  17  35  1   
 32  18  20  1   
 33  18  36  1   
 34  18  37  1   
 35  19  21  1   
 36  19  38  1   
 37  19  39  1   
 38  20  22  1   
 39  20  23  1   
 40  20  24  1   
 41  21  22  1   
 42  21  25  1   
 43  21  40  1   
 44  22  41  1   
 45  22  42  1   
 46  23  43  1   
 47  23  44  1   
 48  23  45  1   
 49  24  46  1   
 50  24  47  1   
 51  24  48  1   
 52  25  49  1   
 53  25  50  1   
 54  25  51  1   
@<TRIPOS>SUBSTRUCTURE
  1 ****  11 GROUP 4 **** **** 0

# MOE 2024.06 (io_trps.svl 2023.06)
