@<TRIPOS>MOLECULE
1-(5-Chloro-2-methoxy-4-methyl-benzenesulfonyl)-3-methyl-piperidine
40 41 1 0 0 
SMALL
USER_CHARGES


@<TRIPOS>ATOM
  1 CL      -0.2370     0.0590    -0.3550 Cl    1 <1>  -0.1770 
  2 C       -1.0900     1.5700    -0.1370 C.ar  1 <1>   0.1770 
  3 C       -0.5590     2.7500    -0.6310 C.ar  1 <1>  -0.1440 
  4 C       -2.2950     1.5500     0.5340 C.ar  1 <1>  -0.1500 
  5 C       -1.2740     3.9190    -0.4380 C.ar  1 <1>  -0.1500 
  6 C        0.7710     2.7660    -1.3710 C.3   1 <1>  -0.0960 
  7 C       -3.0200     2.7170     0.7440 C.ar  1 <1>  -0.0090 
  8 C       -2.4940     3.9080     0.2400 C.ar  1 <1>   0.0830 
  9 S       -4.6070     2.6210     1.6240 S.o2  1 <1>   1.4470 
 10 O       -3.2050     5.0470     0.4220 O.3   1 <1>  -0.3630 
 11 O       -4.5390     1.4750     2.5080 O.2   1 <1>  -0.6500 
 12 O       -5.0560     3.8760     2.1910 O.2   1 <1>  -0.6500 
 13 N       -5.7100     2.2020     0.4040 N.am  1 <1>  -0.8490 
 14 C       -2.6270     6.3290     0.2990 C.3   1 <1>   0.0400 
 15 C       -6.0480     3.3200    -0.5010 C.3   1 <1>   0.1960 
 16 C       -6.8670     1.4770     0.9520 C.3   1 <1>   0.1960 
 17 C       -7.4450     3.9020    -0.2250 C.3   1 <1>  -0.0800 
 18 C       -8.0150     1.4170    -0.0600 C.3   1 <1>  -0.1600 
 19 C       -8.5300     2.8230    -0.4170 C.3   1 <1>  -0.1600 
 20 C       -7.7280     5.1200    -1.1140 C.3   1 <1>  -0.2400 
 21 H       -2.6730     0.6110     0.8990 H     1 <1>   0.1500 
 22 H       -0.8730     4.8360    -0.8270 H     1 <1>   0.1500 
 23 H        0.7140     2.1410    -2.2440 H     1 <1>   0.0800 
 24 H        1.5520     2.3940    -0.7310 H     1 <1>   0.0800 
 25 H        1.0320     3.7620    -1.6810 H     1 <1>   0.0800 
 26 H       -3.3440     7.0500     0.6490 H     1 <1>   0.0800 
 27 H       -2.4000     6.5140    -0.7360 H     1 <1>   0.0800 
 28 H       -1.7400     6.3730     0.9050 H     1 <1>   0.0800 
 29 H       -6.0230     2.9530    -1.5120 H     1 <1>   0.0800 
 30 H       -5.3140     4.1030    -0.4290 H     1 <1>   0.0800 
 31 H       -7.2140     1.9710     1.8460 H     1 <1>   0.0800 
 32 H       -6.5630     0.4790     1.2210 H     1 <1>   0.0800 
 33 H       -7.4590     4.2360     0.7990 H     1 <1>   0.0800 
 34 H       -8.8200     0.8280     0.3410 H     1 <1>   0.0800 
 35 H       -7.6580     0.9200    -0.9460 H     1 <1>   0.0800 
 36 H       -8.8730     2.8090    -1.4370 H     1 <1>   0.0800 
 37 H       -9.3720     3.0710     0.2070 H     1 <1>   0.0800 
 38 H       -7.6940     4.8500    -2.1550 H     1 <1>   0.0800 
 39 H       -6.9960     5.8880    -0.9330 H     1 <1>   0.0800 
 40 H       -8.7010     5.5220    -0.8930 H     1 <1>   0.0800 
@<TRIPOS>BOND
  1   1   2  1   
  2   2   3  ar  
  3   2   4  ar  
  4   3   5  ar  
  5   3   6  1   
  6   4   7  ar  
  7   4  21  1   
  8   5   8  ar  
  9   5  22  1   
 10   6  23  1   
 11   6  24  1   
 12   6  25  1   
 13   7   8  ar  
 14   7   9  1   
 15   8  10  1   
 16   9  11  2   
 17   9  12  2   
 18   9  13  am  
 19  10  14  1   
 20  13  15  1   
 21  13  16  1   
 22  14  26  1   
 23  14  27  1   
 24  14  28  1   
 25  15  17  1   
 26  15  29  1   
 27  15  30  1   
 28  16  18  1   
 29  16  31  1   
 30  16  32  1   
 31  17  19  1   
 32  17  20  1   
 33  17  33  1   
 34  18  19  1   
 35  18  34  1   
 36  18  35  1   
 37  19  36  1   
 38  19  37  1   
 39  20  38  1   
 40  20  39  1   
 41  20  40  1   
@<TRIPOS>SUBSTRUCTURE
  1 ****   7 GROUP 4 **** **** 0

# MOE 2024.06 (io_trps.svl 2023.06)
