@<TRIPOS>MOLECULE
N-[3-(4-tert-Butyl-phenyl)-[1,2,4]oxadiazol-5-ylmethyl]-3,4,5-trimethoxy-benzami
58 60 1 0 0 
SMALL
USER_CHARGES


@<TRIPOS>ATOM
  1 O       -2.2740    -0.5790    -1.8700 O.2   1 <1>  -0.5700 
  2 C       -3.3130    -0.0800    -1.4990 C.2   1 <1>   0.5440 
  3 N       -4.4410    -0.7860    -1.7760 N.am  1 <1>  -0.7300 
  4 C       -3.3200     1.1820    -0.7850 C.ar  1 <1>   0.0860 
  5 C       -5.7180    -0.7660    -1.0140 C.3   1 <1>   0.3200 
  6 C       -4.2780     2.1610    -1.0350 C.ar  1 <1>  -0.1500 
  7 C       -2.3560     1.4540     0.1830 C.ar  1 <1>  -0.1500 
  8 C       -6.0180    -2.1230    -0.3960 C.2   1 <1>   0.2980 
  9 C       -4.3050     3.3560    -0.3400 C.ar  1 <1>   0.0830 
 10 C       -2.3450     2.6530     0.8870 C.ar  1 <1>   0.0830 
 11 O       -5.2800    -2.5280     0.6030 O.3   1 <1>  -0.0190 
 12 N       -6.9350    -2.9240    -0.7580 N.2   1 <1>  -0.5650 
 13 O       -5.3260     4.1930    -0.6760 O.3   1 <1>  -0.3630 
 14 C       -3.3180     3.6200     0.6180 C.ar  1 <1>   0.0830 
 15 O       -1.4090     2.9250     1.8430 O.3   1 <1>  -0.3630 
 16 N       -5.7700    -3.6880     0.9060 N.2   1 <1>  -0.4100 
 17 C       -6.7470    -3.9300     0.1040 C.2   1 <1>   0.4620 
 18 C       -5.9260     5.0240     0.2950 C.3   1 <1>   0.0400 
 19 O       -3.2880     4.8040     1.2850 O.3   1 <1>  -0.3630 
 20 C       -0.4190     1.9860     2.2050 C.3   1 <1>   0.0400 
 21 C       -7.5660    -5.1310     0.1030 C.ar  1 <1>   0.0540 
 22 C       -2.3240     5.7360     0.8500 C.3   1 <1>   0.0400 
 23 C       -7.3480    -6.1610     1.0160 C.ar  1 <1>  -0.1500 
 24 C       -8.6070    -5.3140    -0.8060 C.ar  1 <1>  -0.1500 
 25 C       -8.1230    -7.3070     1.0240 C.ar  1 <1>  -0.1500 
 26 C       -9.3830    -6.4580    -0.8000 C.ar  1 <1>  -0.1500 
 27 C       -9.1610    -7.4810     0.1130 C.ar  1 <1>  -0.1430 
 28 C      -10.0540    -8.7410     0.0810 C.3   1 <1>   0.1430 
 29 C       -9.9280    -9.4250    -1.2880 C.3   1 <1>  -0.2400 
 30 C       -9.6800    -9.7770     1.1540 C.3   1 <1>  -0.2400 
 31 C      -11.5180    -8.3380     0.3160 C.3   1 <1>  -0.2400 
 32 H       -4.2760    -1.6460    -2.3050 H     1 <1>   0.3700 
 33 H       -6.5180    -0.5040    -1.6840 H     1 <1>   0.0800 
 34 H       -5.6790    -0.0320    -0.2290 H     1 <1>   0.0800 
 35 H       -5.0210     1.9940    -1.7930 H     1 <1>   0.1500 
 36 H       -1.6160     0.6970     0.3610 H     1 <1>   0.1500 
 37 H       -6.9070     5.2940    -0.0530 H     1 <1>   0.0800 
 38 H       -5.3280     5.9100     0.4130 H     1 <1>   0.0800 
 39 H       -5.9980     4.4880     1.2250 H     1 <1>   0.0800 
 40 H        0.1840     2.4210     2.9820 H     1 <1>   0.0800 
 41 H        0.1920     1.7730     1.3450 H     1 <1>   0.0800 
 42 H       -0.8970     1.0950     2.5710 H     1 <1>   0.0800 
 43 H       -2.4440     6.6360     1.4240 H     1 <1>   0.0800 
 44 H       -2.4830     5.9370    -0.1940 H     1 <1>   0.0800 
 45 H       -1.3410     5.3280     1.0090 H     1 <1>   0.0800 
 46 H       -6.5550    -6.0650     1.7370 H     1 <1>   0.1500 
 47 H       -8.8150    -4.5470    -1.5310 H     1 <1>   0.1500 
 48 H       -7.8920    -8.0540     1.7590 H     1 <1>   0.1500 
 49 H      -10.1720    -6.5420    -1.5260 H     1 <1>   0.1500 
 50 H       -8.9000    -9.6800    -1.4770 H     1 <1>   0.0800 
 51 H      -10.2650    -8.7800    -2.0780 H     1 <1>   0.0800 
 52 H      -10.5150   -10.3260    -1.3190 H     1 <1>   0.0800 
 53 H       -8.6680   -10.1130     1.0170 H     1 <1>   0.0800 
 54 H      -10.3260   -10.6340     1.0950 H     1 <1>   0.0800 
 55 H       -9.7790    -9.3540     2.1380 H     1 <1>   0.0800 
 56 H      -11.8700    -7.6830    -0.4590 H     1 <1>   0.0800 
 57 H      -11.6100    -7.8260     1.2580 H     1 <1>   0.0800 
 58 H      -12.1530    -9.2050     0.3340 H     1 <1>   0.0800 
@<TRIPOS>BOND
  1   1   2  2   
  2   2   3  am  
  3   2   4  1   
  4   3   5  1   
  5   3  32  1   
  6   4   6  ar  
  7   4   7  ar  
  8   5   8  1   
  9   5  33  1   
 10   5  34  1   
 11   6   9  ar  
 12   6  35  1   
 13   7  10  ar  
 14   7  36  1   
 15   8  11  1   
 16   8  12  2   
 17   9  13  1   
 18   9  14  ar  
 19  10  14  ar  
 20  10  15  1   
 21  11  16  1   
 22  12  17  1   
 23  13  18  1   
 24  14  19  1   
 25  15  20  1   
 26  16  17  2   
 27  17  21  1   
 28  18  37  1   
 29  18  38  1   
 30  18  39  1   
 31  19  22  1   
 32  20  40  1   
 33  20  41  1   
 34  20  42  1   
 35  21  23  ar  
 36  21  24  ar  
 37  22  43  1   
 38  22  44  1   
 39  22  45  1   
 40  23  25  ar  
 41  23  46  1   
 42  24  26  ar  
 43  24  47  1   
 44  25  27  ar  
 45  25  48  1   
 46  26  27  ar  
 47  26  49  1   
 48  27  28  1   
 49  28  29  1   
 50  28  30  1   
 51  28  31  1   
 52  29  50  1   
 53  29  51  1   
 54  29  52  1   
 55  30  53  1   
 56  30  54  1   
 57  30  55  1   
 58  31  56  1   
 59  31  57  1   
 60  31  58  1   
@<TRIPOS>SUBSTRUCTURE
  1 ****   8 GROUP 4 **** **** 0

# MOE 2024.06 (io_trps.svl 2023.06)
