@<TRIPOS>MOLECULE
2-(3,4-Dimethoxy-benzylamino)-4,5,6,7-tetrahydro-cyclopenta[d][1,2,4]triazolo[1,
44 47 1 0 0 
SMALL
USER_CHARGES


@<TRIPOS>ATOM
  1 O       -0.5010    -1.3280    -2.1920 O.2   1 <1>  -0.5700 
  2 C       -0.8830    -1.8900    -1.1730 C.2   1 <1>   0.5650 
  3 N       -2.1750    -2.4610    -1.0460 N.pl3 1 <1>   0.5610 
  4 C       -0.0420    -2.0050    -0.0230 C.2   1 <1>  -0.1240 
  5 N       -3.2290    -2.5410    -1.8970 N.2   1 <1>  -0.7070 
  6 C       -2.5620    -3.0570     0.1170 C.2   1 <1>   0.2700 
  7 C       -0.4520    -2.6040     1.1080 C.2   1 <1>  -0.0380 
  8 C        1.3760    -1.5020     0.1000 C.3   1 <1>  -0.0220 
  9 C       -4.0960    -3.1700    -1.1870 C.2   1 <1>   0.5990 
 10 N       -3.7610    -3.5030     0.0610 N.2   1 <1>  -0.5650 
 11 N       -1.7110    -3.1400     1.2130 N.pl3 1 <1>  -0.5840 
 12 C        0.5940    -2.6190     2.1890 C.3   1 <1>  -0.0220 
 13 C        1.7430    -1.7920     1.5730 C.3   1 <1>  -0.1600 
 14 N       -5.3390    -3.5070    -1.6330 N.pl3 1 <1>  -0.8520 
 15 C       -6.1100    -2.4200    -2.2610 C.3   1 <1>   0.3530 
 16 C       -7.2730    -2.0840    -1.3420 C.ar  1 <1>  -0.1430 
 17 C       -7.0310    -1.4910    -0.1120 C.ar  1 <1>  -0.1500 
 18 C       -8.5760    -2.3680    -1.7150 C.ar  1 <1>  -0.1500 
 19 C       -8.0790    -1.1810     0.7500 C.ar  1 <1>   0.0820 
 20 C       -9.6290    -2.0610    -0.8710 C.ar  1 <1>  -0.1500 
 21 O       -7.8740    -0.6080     1.9710 O.3   1 <1>  -0.3620 
 22 C       -9.3920    -1.4660     0.3650 C.ar  1 <1>   0.0820 
 23 C       -6.5780    -0.4470     2.5030 C.3   1 <1>   0.0400 
 24 O      -10.3980    -1.1470     1.2310 O.3   1 <1>  -0.3630 
 25 C      -11.7480    -1.4200     0.9340 C.3   1 <1>   0.0400 
 26 H        1.4320    -0.4490    -0.1180 H     1 <1>   0.0800 
 27 H        2.0180    -2.0430    -0.5740 H     1 <1>   0.0800 
 28 H       -2.0570    -3.6230     2.0500 H     1 <1>   0.4000 
 29 H        0.9070    -3.6290     2.3890 H     1 <1>   0.0800 
 30 H        0.2260    -2.1630     3.0910 H     1 <1>   0.0800 
 31 H        1.8400    -0.8620     2.1060 H     1 <1>   0.0800 
 32 H        2.6760    -2.3250     1.6370 H     1 <1>   0.0800 
 33 H       -5.8640    -3.8550    -0.8290 H     1 <1>   0.4000 
 34 H       -6.4660    -2.7520    -3.2200 H     1 <1>   0.0800 
 35 H       -5.5030    -1.5430    -2.4140 H     1 <1>   0.0800 
 36 H       -6.0140    -1.2790     0.1590 H     1 <1>   0.1500 
 37 H       -8.7790    -2.8330    -2.6640 H     1 <1>   0.1500 
 38 H      -10.6250    -2.2940    -1.1940 H     1 <1>   0.1500 
 39 H       -6.6750    -0.0510     3.4980 H     1 <1>   0.0800 
 40 H       -6.0310     0.2420     1.8860 H     1 <1>   0.0800 
 41 H       -6.0930    -1.4070     2.5370 H     1 <1>   0.0800 
 42 H      -12.3440    -1.0890     1.7650 H     1 <1>   0.0800 
 43 H      -11.8680    -2.4800     0.7990 H     1 <1>   0.0800 
 44 H      -12.0270    -0.8800     0.0470 H     1 <1>   0.0800 
@<TRIPOS>BOND
  1   1   2  2   
  2   2   3  1   
  3   2   4  1   
  4   3   5  1   
  5   3   6  1   
  6   4   7  2   
  7   4   8  1   
  8   5   9  2   
  9   6  10  2   
 10   6  11  1   
 11   7  11  1   
 12   7  12  1   
 13   8  13  1   
 14   8  26  1   
 15   8  27  1   
 16   9  10  1   
 17   9  14  1   
 18  11  28  1   
 19  12  13  1   
 20  12  29  1   
 21  12  30  1   
 22  13  31  1   
 23  13  32  1   
 24  14  15  1   
 25  14  33  1   
 26  15  16  1   
 27  15  34  1   
 28  15  35  1   
 29  16  17  ar  
 30  16  18  ar  
 31  17  19  ar  
 32  17  36  1   
 33  18  20  ar  
 34  18  37  1   
 35  19  21  1   
 36  19  22  ar  
 37  20  22  ar  
 38  20  38  1   
 39  21  23  1   
 40  22  24  1   
 41  23  39  1   
 42  23  40  1   
 43  23  41  1   
 44  24  25  1   
 45  25  42  1   
 46  25  43  1   
 47  25  44  1   
@<TRIPOS>SUBSTRUCTURE
  1 ****  10 GROUP 4 **** **** 0

# MOE 2024.06 (io_trps.svl 2023.06)
