@<TRIPOS>MOLECULE
3,3-Dimethyl-1-(3-methylsulfanyl-[1,2,4]thiadiazol-5-ylsulfanyl)-butan-2-one
29 29 1 0 0 
SMALL
USER_CHARGES


@<TRIPOS>ATOM
  1 S        0.2820     0.4500     2.0320 S.3   1 <1>   0.1810 
  2 N        1.1190     1.8680     1.6530 N.2   1 <1>  -0.5100 
  3 C        1.2900    -0.4730     0.9690 C.2   1 <1>   0.4340 
  4 C        2.0150     1.5160     0.8170 C.2   1 <1>   0.5710 
  5 S        0.9430    -2.2130     0.8220 S.3   1 <1>  -0.2860 
  6 N        2.1790     0.2110     0.3850 N.2   1 <1>  -0.5650 
  7 S        3.1230     2.7420     0.1260 S.3   1 <1>  -0.2850 
  8 C        2.4570    -2.8730    -0.0180 C.3   1 <1>   0.1310 
  9 C        4.1640     1.8300    -1.0950 C.3   1 <1>  -0.0100 
 10 C        3.6580    -2.8880     0.9260 C.2   1 <1>   0.4480 
 11 O        3.5140    -2.8270     2.1140 O.2   1 <1>  -0.5700 
 12 C        5.0600    -2.9950     0.2790 C.3   1 <1>   0.0610 
 13 C        5.1010    -4.0860    -0.8100 C.3   1 <1>  -0.2400 
 14 C        5.4520    -1.6480    -0.3500 C.3   1 <1>  -0.2400 
 15 C        6.1280    -3.3520     1.3330 C.3   1 <1>  -0.2400 
 16 H        2.6360    -2.2450    -0.8690 H     1 <1>   0.0800 
 17 H        2.2220    -3.8710    -0.3380 H     1 <1>   0.0800 
 18 H        4.7650     2.5530    -1.6160 H     1 <1>   0.0800 
 19 H        3.5070     1.3150    -1.7720 H     1 <1>   0.0800 
 20 H        4.7790     1.1420    -0.5470 H     1 <1>   0.0800 
 21 H        4.4540    -3.8450    -1.6340 H     1 <1>   0.0800 
 22 H        4.7990    -5.0340    -0.3990 H     1 <1>   0.0800 
 23 H        6.0990    -4.1920    -1.1980 H     1 <1>   0.0800 
 24 H        4.7670    -1.3680    -1.1290 H     1 <1>   0.0800 
 25 H        6.4410    -1.6980    -0.7710 H     1 <1>   0.0800 
 26 H        5.4430    -0.8800     0.4040 H     1 <1>   0.0800 
 27 H        5.8900    -4.2910     1.8030 H     1 <1>   0.0800 
 28 H        6.1660    -2.5980     2.0990 H     1 <1>   0.0800 
 29 H        7.1040    -3.4310     0.8870 H     1 <1>   0.0800 
@<TRIPOS>BOND
  1   1   2  1   
  2   1   3  1   
  3   2   4  2   
  4   3   5  1   
  5   3   6  2   
  6   4   6  1   
  7   4   7  1   
  8   5   8  1   
  9   7   9  1   
 10   8  10  1   
 11   8  16  1   
 12   8  17  1   
 13   9  18  1   
 14   9  19  1   
 15   9  20  1   
 16  10  11  2   
 17  10  12  1   
 18  12  13  1   
 19  12  14  1   
 20  12  15  1   
 21  13  21  1   
 22  13  22  1   
 23  13  23  1   
 24  14  24  1   
 25  14  25  1   
 26  14  26  1   
 27  15  27  1   
 28  15  28  1   
 29  15  29  1   
@<TRIPOS>SUBSTRUCTURE
  1 ****   6 GROUP 4 **** **** 0

# MOE 2024.06 (io_trps.svl 2023.06)
