@<TRIPOS>MOLECULE
6-Chloro-4-[2-(4-methyl-piperidin-1-yl)-2-oxo-ethyl]-4H-benzo[1,4]oxazin-3-one
41 43 1 0 0 
SMALL
USER_CHARGES


@<TRIPOS>ATOM
  1 CL       2.4720     3.5600     3.8510 Cl    1 <1>  -0.1770 
  2 C        2.7120     3.7240     2.1300 C.ar  1 <1>   0.1770 
  3 C        3.1200     2.6260     1.3980 C.ar  1 <1>  -0.1500 
  4 C        2.4860     4.9500     1.5370 C.ar  1 <1>  -0.1500 
  5 C        3.3250     2.7300     0.0220 C.ar  1 <1>   0.1170 
  6 C        2.6730     5.0730     0.1720 C.ar  1 <1>  -0.1500 
  7 N        3.7390     1.6410    -0.7910 N.am  1 <1>  -0.4770 
  8 C        3.0870     3.9820    -0.5730 C.ar  1 <1>   0.0830 
  9 C        3.9840     1.8500    -2.1270 C.2   1 <1>   0.5690 
 10 C        3.8160     0.2330    -0.2480 C.3   1 <1>   0.2010 
 11 O        3.2340     4.1790    -1.9090 O.3   1 <1>  -0.3630 
 12 O        4.1870     0.9520    -2.9110 O.2   1 <1>  -0.5700 
 13 C        4.0500     3.2810    -2.6450 C.3   1 <1>   0.1810 
 14 C        4.9240    -0.0050     0.7860 C.2   1 <1>   0.5690 
 15 O        4.5660    -0.3680     1.8840 O.2   1 <1>  -0.5700 
 16 N        6.2570     0.1800     0.5050 N.am  1 <1>  -0.6600 
 17 C        6.8360     0.3750    -0.8490 C.3   1 <1>   0.1400 
 18 C        7.2660     0.2960     1.5920 C.3   1 <1>   0.1400 
 19 C        7.4310     1.7830    -0.9390 C.3   1 <1>  -0.1600 
 20 C        7.8920     1.6950     1.5440 C.3   1 <1>  -0.1600 
 21 C        8.4830     2.0120     0.1590 C.3   1 <1>  -0.0800 
 22 C        9.0060     3.4520     0.1130 C.3   1 <1>  -0.2400 
 23 H        3.2630     1.7080     1.9300 H     1 <1>   0.1500 
 24 H        2.1670     5.7870     2.1330 H     1 <1>   0.1500 
 25 H        2.4980     6.0140    -0.3190 H     1 <1>   0.1500 
 26 H        3.9530    -0.4760    -1.0430 H     1 <1>   0.0800 
 27 H        2.8730    -0.0010     0.2120 H     1 <1>   0.0800 
 28 H        3.7290     3.3120    -3.6700 H     1 <1>   0.0800 
 29 H        5.0620     3.6340    -2.5830 H     1 <1>   0.0800 
 30 H        6.1010     0.2200    -1.6130 H     1 <1>   0.0800 
 31 H        7.6140    -0.3540    -1.0010 H     1 <1>   0.0800 
 32 H        8.0240    -0.4560     1.4540 H     1 <1>   0.0800 
 33 H        6.8110     0.1380     2.5560 H     1 <1>   0.0800 
 34 H        6.6380     2.5030    -0.8400 H     1 <1>   0.0800 
 35 H        7.8800     1.9140    -1.9070 H     1 <1>   0.0800 
 36 H        8.6610     1.7600     2.2920 H     1 <1>   0.0800 
 37 H        7.1320     2.4150     1.7930 H     1 <1>   0.0800 
 38 H        9.3100     1.3440    -0.0180 H     1 <1>   0.0800 
 39 H        8.2080     4.1510     0.2870 H     1 <1>   0.0800 
 40 H        9.4430     3.6600    -0.8480 H     1 <1>   0.0800 
 41 H        9.7610     3.5980     0.8660 H     1 <1>   0.0800 
@<TRIPOS>BOND
  1   1   2  1   
  2   2   3  ar  
  3   2   4  ar  
  4   3   5  ar  
  5   3  23  1   
  6   4   6  ar  
  7   4  24  1   
  8   5   7  1   
  9   5   8  ar  
 10   6   8  ar  
 11   6  25  1   
 12   7   9  am  
 13   7  10  1   
 14   8  11  1   
 15   9  12  2   
 16   9  13  1   
 17  10  14  1   
 18  10  26  1   
 19  10  27  1   
 20  11  13  1   
 21  13  28  1   
 22  13  29  1   
 23  14  15  2   
 24  14  16  am  
 25  16  17  1   
 26  16  18  1   
 27  17  19  1   
 28  17  30  1   
 29  17  31  1   
 30  18  20  1   
 31  18  32  1   
 32  18  33  1   
 33  19  21  1   
 34  19  34  1   
 35  19  35  1   
 36  20  21  1   
 37  20  36  1   
 38  20  37  1   
 39  21  22  1   
 40  21  38  1   
 41  22  39  1   
 42  22  40  1   
 43  22  41  1   
@<TRIPOS>SUBSTRUCTURE
  1 ****   7 GROUP 4 **** **** 0

# MOE 2024.06 (io_trps.svl 2023.06)
