@<TRIPOS>MOLECULE
2,4,8-Trimethyl-1,2,3,4-tetrahydro-quinoline
30 31 1 0 0 
SMALL
USER_CHARGES


@<TRIPOS>ATOM
  1 N       -0.1420     0.0410     0.1020 N.pl3 1 <1>  -0.8690 
  2 C       -1.3200     0.7910     0.1310 C.ar  1 <1>   0.1000 
  3 C        1.2010     0.6230     0.2520 C.3   1 <1>   0.2890 
  4 C       -1.2890     2.1870     0.0440 C.ar  1 <1>  -0.1430 
  5 C       -2.5460     0.1310     0.2430 C.ar  1 <1>  -0.1430 
  6 C        1.1170     2.0830     0.7060 C.3   1 <1>  -0.1600 
  7 C        1.9180     0.4600    -1.0850 C.3   1 <1>  -0.2400 
  8 C       -2.4840     2.8940     0.0560 C.ar  1 <1>  -0.1500 
  9 C        0.0680     2.8870    -0.0750 C.3   1 <1>   0.0630 
 10 C       -3.7230     0.8570     0.2630 C.ar  1 <1>  -0.1500 
 11 C       -2.6150    -1.3880     0.3370 C.3   1 <1>  -0.0970 
 12 C       -3.6940     2.2350     0.1680 C.ar  1 <1>  -0.1500 
 13 C        0.0730     4.3380     0.4340 C.3   1 <1>  -0.2400 
 14 H       -0.2250    -0.9210     0.4330 H     1 <1>   0.4000 
 15 H        1.7380     0.0650     1.0000 H     1 <1>   0.0800 
 16 H        2.0850     2.5410     0.6130 H     1 <1>   0.0800 
 17 H        0.8530     2.0920     1.7480 H     1 <1>   0.0800 
 18 H        1.3680     0.9450    -1.8710 H     1 <1>   0.0800 
 19 H        2.0120    -0.5830    -1.3220 H     1 <1>   0.0800 
 20 H        2.9020     0.8880    -1.0340 H     1 <1>   0.0800 
 21 H       -2.4990     3.9630    -0.0220 H     1 <1>   0.1500 
 22 H        0.3410     2.8980    -1.1160 H     1 <1>   0.0800 
 23 H       -4.6710     0.3580     0.3490 H     1 <1>   0.1500 
 24 H       -2.1300    -1.7200     1.2360 H     1 <1>   0.0800 
 25 H       -2.1260    -1.8270    -0.5140 H     1 <1>   0.0800 
 26 H       -3.6340    -1.7290     0.3530 H     1 <1>   0.0800 
 27 H       -4.6130     2.7950     0.1790 H     1 <1>   0.1500 
 28 H       -0.3090     4.3820     1.4390 H     1 <1>   0.0800 
 29 H       -0.5300     4.9620    -0.1990 H     1 <1>   0.0800 
 30 H        1.0720     4.7350     0.4260 H     1 <1>   0.0800 
@<TRIPOS>BOND
  1   1   2  1   
  2   1   3  1   
  3   1  14  1   
  4   2   4  ar  
  5   2   5  ar  
  6   3   6  1   
  7   3   7  1   
  8   3  15  1   
  9   4   8  ar  
 10   4   9  1   
 11   5  10  ar  
 12   5  11  1   
 13   6   9  1   
 14   6  16  1   
 15   6  17  1   
 16   7  18  1   
 17   7  19  1   
 18   7  20  1   
 19   8  12  ar  
 20   8  21  1   
 21   9  13  1   
 22   9  22  1   
 23  10  12  ar  
 24  10  23  1   
 25  11  24  1   
 26  11  25  1   
 27  11  26  1   
 28  12  27  1   
 29  13  28  1   
 30  13  29  1   
 31  13  30  1   
@<TRIPOS>SUBSTRUCTURE
  1 ****   2 GROUP 4 **** **** 0

# MOE 2024.06 (io_trps.svl 2023.06)
