@<TRIPOS>MOLECULE
1,3-Dimethyl-8-(2-methyl-piperidin-1-ylmethyl)-7-(2-oxo-2-phenyl-ethyl)-3,7-dihy
58 61 1 0 0 
SMALL
USER_CHARGES


@<TRIPOS>ATOM
  1 O        0.9700     1.0120    -1.6550 O.2   1 <1>  -0.5700 
  2 C        1.9670     1.4490    -1.1170 C.2   1 <1>   0.6900 
  3 N        1.8960     2.6220    -0.3730 N.am  1 <1>  -0.4200 
  4 N        3.1730     0.7780    -1.2450 N.am  1 <1>  -0.4360 
  5 C        3.0230     3.1560     0.2360 C.2   1 <1>   0.7030 
  6 C        0.5760     3.3200    -0.2600 C.3   1 <1>   0.0600 
  7 C        4.2810     1.3060    -0.6100 C.2   1 <1>   0.4260 
  8 C        3.2780    -0.4880    -2.0300 C.3   1 <1>   0.0600 
  9 O        2.9560     4.2040     0.8570 O.2   1 <1>  -0.5700 
 10 C        4.2680     2.4510     0.1150 C.2   1 <1>   0.2770 
 11 N        5.5360     0.8060    -0.5790 N.pl3 1 <1>  -0.7000 
 12 N        5.5740     2.6400     0.5930 N.pl3 1 <1>  -0.7640 
 13 C        6.2990     1.6100     0.1480 C.cat 1 <1>   0.6560 
 14 C        6.0320     3.7830     1.4650 C.3   1 <1>   0.4150 
 15 C        7.7820     1.2670     0.3740 C.3   1 <1>   0.2540 
 16 C        7.1690     4.5940     0.8380 C.2   1 <1>   0.4230 
 17 N        8.0550    -0.1710     0.0620 N.3   1 <1>  -0.8100 
 18 O        8.2710     4.1150     0.9410 O.2   1 <1>  -0.5700 
 19 C        6.9180     5.8500     0.1550 C.ar  1 <1>   0.0860 
 20 C        8.0800    -1.0390     1.2650 C.3   1 <1>   0.1900 
 21 C        9.3220    -0.2800    -0.6890 C.3   1 <1>   0.1100 
 22 C        7.9980     6.6400    -0.2500 C.ar  1 <1>  -0.1500 
 23 C        5.6400     6.3370    -0.1430 C.ar  1 <1>  -0.1500 
 24 C        8.2830    -2.5030     0.8420 C.3   1 <1>  -0.1600 
 25 C        6.7750    -0.9400     2.0640 C.3   1 <1>  -0.2400 
 26 C        9.5400    -1.7140    -1.1720 C.3   1 <1>  -0.1600 
 27 C        7.8200     7.8430    -0.9070 C.ar  1 <1>  -0.1500 
 28 C        5.4550     7.5400    -0.7990 C.ar  1 <1>  -0.1500 
 29 C        9.5520    -2.6890     0.0060 C.3   1 <1>  -0.1600 
 30 C        6.5450     8.2970    -1.1840 C.ar  1 <1>  -0.1500 
 31 H        0.3800     3.8690    -1.1650 H     1 <1>   0.0800 
 32 H        0.5640     4.0010     0.5730 H     1 <1>   0.0800 
 33 H       -0.2120     2.6000    -0.1160 H     1 <1>   0.0800 
 34 H        2.4310    -0.6050    -2.6850 H     1 <1>   0.0800 
 35 H        3.3120    -1.3290    -1.3600 H     1 <1>   0.0800 
 36 H        4.1680    -0.4770    -2.6350 H     1 <1>   0.0800 
 37 H        5.9280    -0.0620    -0.9630 H     1 <1>   0.4500 
 38 H        6.3960     3.3770     2.3930 H     1 <1>   0.0800 
 39 H        5.2130     4.4280     1.7190 H     1 <1>   0.0800 
 40 H        8.0760     1.4990     1.3820 H     1 <1>   0.0800 
 41 H        8.3540     1.8990    -0.2820 H     1 <1>   0.0800 
 42 H        8.9030    -0.7470     1.8990 H     1 <1>   0.0800 
 43 H       10.1480     0.0220    -0.0650 H     1 <1>   0.0800 
 44 H        9.2950     0.3670    -1.5500 H     1 <1>   0.0800 
 45 H        9.0030     6.3090    -0.0450 H     1 <1>   0.1500 
 46 H        4.7570     5.7920     0.1270 H     1 <1>   0.1500 
 47 H        7.4310    -2.8300     0.2720 H     1 <1>   0.0800 
 48 H        8.3490    -3.1260     1.7160 H     1 <1>   0.0800 
 49 H        5.9300    -1.1790     1.4450 H     1 <1>   0.0800 
 50 H        6.6490     0.0310     2.5030 H     1 <1>   0.0800 
 51 H        6.8000    -1.6470     2.8750 H     1 <1>   0.0800 
 52 H       10.4750    -1.7760    -1.6990 H     1 <1>   0.0800 
 53 H        8.7560    -1.9790    -1.8600 H     1 <1>   0.0800 
 54 H        8.6740     8.4280    -1.2050 H     1 <1>   0.1500 
 55 H        4.4600     7.8940    -1.0140 H     1 <1>   0.1500 
 56 H        9.6120    -3.7020    -0.3530 H     1 <1>   0.0800 
 57 H       10.4170    -2.5010     0.6200 H     1 <1>   0.0800 
 58 H        6.4030     9.2340    -1.6950 H     1 <1>   0.1500 
@<TRIPOS>BOND
  1   1   2  2   
  2   2   3  am  
  3   2   4  am  
  4   3   5  am  
  5   3   6  1   
  6   4   7  1   
  7   4   8  1   
  8   5   9  2   
  9   5  10  1   
 10   6  31  1   
 11   6  32  1   
 12   6  33  1   
 13   7  10  2   
 14   7  11  1   
 15   8  34  1   
 16   8  35  1   
 17   8  36  1   
 18  10  12  1   
 19  11  13  ar  
 20  11  37  1   
 21  12  13  ar  
 22  12  14  1   
 23  13  15  1   
 24  14  16  1   
 25  14  38  1   
 26  14  39  1   
 27  15  17  1   
 28  15  40  1   
 29  15  41  1   
 30  16  18  2   
 31  16  19  1   
 32  17  20  1   
 33  17  21  1   
 34  19  22  ar  
 35  19  23  ar  
 36  20  24  1   
 37  20  25  1   
 38  20  42  1   
 39  21  26  1   
 40  21  43  1   
 41  21  44  1   
 42  22  27  ar  
 43  22  45  1   
 44  23  28  ar  
 45  23  46  1   
 46  24  29  1   
 47  24  47  1   
 48  24  48  1   
 49  25  49  1   
 50  25  50  1   
 51  25  51  1   
 52  26  29  1   
 53  26  52  1   
 54  26  53  1   
 55  27  30  ar  
 56  27  54  1   
 57  28  30  ar  
 58  28  55  1   
 59  29  56  1   
 60  29  57  1   
 61  30  58  1   
@<TRIPOS>SUBSTRUCTURE
  1 ****  12 GROUP 4 **** **** 0

# MOE 2024.06 (io_trps.svl 2023.06)
