@<TRIPOS>MOLECULE
N-(4-Fluoro-phenyl)-N-(1-methyl-2-morpholin-4-yl-2-oxo-ethyl)-methanesulfonamide
41 42 1 0 0 
SMALL
USER_CHARGES


@<TRIPOS>ATOM
  1 S        0.4390    -0.1940    -0.2440 S.o2  1 <1>   1.3330 
  2 O        1.1540    -0.5840    -1.4340 O.2   1 <1>  -0.6500 
  3 O        1.0450    -0.3820     1.0510 O.2   1 <1>  -0.6500 
  4 N        0.0780     1.4870    -0.4060 N.am  1 <1>  -0.6930 
  5 C       -1.1760    -0.9410    -0.2860 C.3   1 <1>  -0.1350 
  6 C       -0.7570     2.1240     0.5090 C.ar  1 <1>   0.1990 
  7 C        1.0930     2.3110    -1.1410 C.3   1 <1>   0.3370 
  8 C       -0.3920     2.2640     1.8480 C.ar  1 <1>  -0.1500 
  9 C       -1.9870     2.6230     0.0880 C.ar  1 <1>  -0.1500 
 10 C        1.8040     3.3630    -0.2470 C.2   1 <1>   0.5690 
 11 C        0.4070     2.9220    -2.3710 C.3   1 <1>  -0.2400 
 12 C       -1.2350     2.8880     2.7520 C.ar  1 <1>  -0.1500 
 13 C       -2.8410     3.2510     0.9790 C.ar  1 <1>  -0.1500 
 14 O        1.3720     4.4960    -0.2440 O.2   1 <1>  -0.5700 
 15 N        2.8970     3.0350     0.5280 N.am  1 <1>  -0.6600 
 16 C       -2.4470     3.3700     2.2980 C.ar  1 <1>   0.1900 
 17 C        3.5620     1.6960     0.6130 C.3   1 <1>   0.1400 
 18 C        3.5170     4.0310     1.4550 C.3   1 <1>   0.1400 
 19 F       -3.2510     3.9580     3.1460 F     1 <1>  -0.1900 
 20 C        3.6890     1.2400     2.0770 C.3   1 <1>   0.1200 
 21 C        3.6340     3.4480     2.8720 C.3   1 <1>   0.1200 
 22 O        4.3160     2.2260     2.8490 O.3   1 <1>  -0.5600 
 23 H       -1.0890    -2.0080    -0.2200 H     1 <1>   0.0800 
 24 H       -1.6740    -0.6920    -1.2020 H     1 <1>   0.0800 
 25 H       -1.7680    -0.5930     0.5370 H     1 <1>   0.0800 
 26 H        1.8640     1.6720    -1.5260 H     1 <1>   0.0800 
 27 H        0.5580     1.8880     2.1790 H     1 <1>   0.1500 
 28 H       -2.2700     2.5200    -0.9440 H     1 <1>   0.1500 
 29 H       -0.3540     3.6190    -2.0730 H     1 <1>   0.0800 
 30 H       -0.0250     2.1480    -2.9790 H     1 <1>   0.0800 
 31 H        1.1340     3.4540    -2.9580 H     1 <1>   0.0800 
 32 H       -0.9610     3.0010     3.7850 H     1 <1>   0.1500 
 33 H       -3.7920     3.6430     0.6630 H     1 <1>   0.1500 
 34 H        4.5480     1.7670     0.1890 H     1 <1>   0.0800 
 35 H        3.0270     0.9490     0.0620 H     1 <1>   0.0800 
 36 H        2.9330     4.9340     1.4960 H     1 <1>   0.0800 
 37 H        4.4970     4.2880     1.0950 H     1 <1>   0.0800 
 38 H        4.2840     0.3470     2.1360 H     1 <1>   0.0800 
 39 H        2.7210     1.0320     2.4990 H     1 <1>   0.0800 
 40 H        2.6580     3.2930     3.2990 H     1 <1>   0.0800 
 41 H        4.1860     4.1200     3.5050 H     1 <1>   0.0800 
@<TRIPOS>BOND
  1   1   2  2   
  2   1   3  2   
  3   1   4  am  
  4   1   5  1   
  5   4   6  1   
  6   4   7  1   
  7   5  23  1   
  8   5  24  1   
  9   5  25  1   
 10   6   8  ar  
 11   6   9  ar  
 12   7  10  1   
 13   7  11  1   
 14   7  26  1   
 15   8  12  ar  
 16   8  27  1   
 17   9  13  ar  
 18   9  28  1   
 19  10  14  2   
 20  10  15  am  
 21  11  29  1   
 22  11  30  1   
 23  11  31  1   
 24  12  16  ar  
 25  12  32  1   
 26  13  16  ar  
 27  13  33  1   
 28  15  17  1   
 29  15  18  1   
 30  16  19  1   
 31  17  20  1   
 32  17  34  1   
 33  17  35  1   
 34  18  21  1   
 35  18  36  1   
 36  18  37  1   
 37  20  22  1   
 38  20  38  1   
 39  20  39  1   
 40  21  22  1   
 41  21  40  1   
 42  21  41  1   
@<TRIPOS>SUBSTRUCTURE
  1 ****   6 GROUP 4 **** **** 0

# MOE 2024.06 (io_trps.svl 2023.06)
