@<TRIPOS>MOLECULE
8-Azepan-1-yl-7-(2-hydroxy-propyl)-3-methyl-3,7-dihydro-purine-2,6-dione
47 49 1 0 0 
SMALL
USER_CHARGES


@<TRIPOS>ATOM
  1 O        1.0280     1.0360     0.4620 O.2   1 <1>  -0.5750 
  2 C        2.1130     1.4500     0.1290 C.2   1 <1>   0.6860 
  3 N        3.2740     0.7120     0.3030 N.am  1 <1>  -0.4420 
  4 N        2.1910     2.6850    -0.4430 N.am  1 <1>  -0.4960 
  5 C        4.4660     1.2840    -0.1170 C.2   1 <1>   0.4200 
  6 C        3.2440    -0.6420     0.9270 C.3   1 <1>   0.0520 
  7 C        3.3570     3.2550    -0.8700 C.2   1 <1>   0.6990 
  8 N        5.7020     0.7340    -0.0680 N.pl3 1 <1>  -0.7040 
  9 C        4.5700     2.5120    -0.6660 C.2   1 <1>   0.2700 
 10 O        3.3040     4.3410    -1.4120 O.2   1 <1>  -0.5750 
 11 C        6.5960     1.5980    -0.5590 C.cat 1 <1>   1.0690 
 12 N        5.9410     2.7210    -0.9240 N.pl3 1 <1>  -0.7680 
 13 N        7.9050     1.2350    -0.6580 N.pl3 1 <1>  -0.5970 
 14 C        6.4390     4.0420    -1.4250 C.3   1 <1>   0.3480 
 15 C        8.3120    -0.2030    -0.6080 C.3   1 <1>   0.1600 
 16 C        9.0750     2.1500    -0.7880 C.3   1 <1>   0.1600 
 17 C        6.7850     5.0450    -0.2870 C.3   1 <1>   0.1920 
 18 C        8.6310    -0.6130     0.8340 C.3   1 <1>  -0.1680 
 19 C        9.9590     2.1280     0.4660 C.3   1 <1>  -0.1680 
 20 O        7.4830     4.4120     0.7290 O.3   1 <1>  -0.6840 
 21 C        5.5720     5.6960     0.3750 C.3   1 <1>  -0.2470 
 22 C       10.0730    -0.3260     1.2860 C.3   1 <1>  -0.1680 
 23 C       10.7960     0.8490     0.6100 C.3   1 <1>  -0.1680 
 24 H        1.3200     3.1960    -0.5750 H     1 <1>   0.3640 
 25 H        2.2520    -0.8840     1.2730 H     1 <1>   0.0720 
 26 H        3.9100    -0.6730     1.7710 H     1 <1>   0.0720 
 27 H        3.5410    -1.3830     0.2060 H     1 <1>   0.0720 
 28 H        5.9610    -0.1630     0.3270 H     1 <1>   0.4440 
 29 H        5.6950     4.4910    -2.0610 H     1 <1>   0.0720 
 30 H        7.2960     3.8960    -2.0550 H     1 <1>   0.0720 
 31 H        9.1640    -0.3770    -1.2440 H     1 <1>   0.0720 
 32 H        7.5160    -0.8210    -0.9880 H     1 <1>   0.0720 
 33 H        8.7690     3.1600    -0.9400 H     1 <1>   0.0720 
 34 H        9.6580     1.8660    -1.6480 H     1 <1>   0.0720 
 35 H        7.4180     5.8190    -0.6880 H     1 <1>   0.0720 
 36 H        8.4690    -1.6730     0.9330 H     1 <1>   0.0720 
 37 H        7.9490    -0.1280     1.5110 H     1 <1>   0.0720 
 38 H        9.3690     2.3050     1.3490 H     1 <1>   0.0720 
 39 H       10.6460     2.9520     0.3800 H     1 <1>   0.0720 
 40 H        7.6590     5.0440     1.4560 H     1 <1>   0.3940 
 41 H        4.9640     4.9660     0.8780 H     1 <1>   0.0720 
 42 H        4.9700     6.1930    -0.3660 H     1 <1>   0.0720 
 43 H        5.8890     6.4380     1.0870 H     1 <1>   0.0720 
 44 H       10.6680    -1.2080     1.1210 H     1 <1>   0.0720 
 45 H       10.0630    -0.1580     2.3500 H     1 <1>   0.0720 
 46 H       11.6640     1.0780     1.2060 H     1 <1>   0.0720 
 47 H       11.1620     0.5450    -0.3560 H     1 <1>   0.0720 
@<TRIPOS>BOND
  1   1   2  2   
  2   2   3  am  
  3   2   4  am  
  4   3   5  1   
  5   3   6  1   
  6   4   7  am  
  7   4  24  1   
  8   5   8  1   
  9   5   9  2   
 10   6  25  1   
 11   6  26  1   
 12   6  27  1   
 13   7   9  1   
 14   7  10  2   
 15   8  11  ar  
 16   8  28  1   
 17   9  12  1   
 18  11  12  ar  
 19  11  13  ar  
 20  12  14  1   
 21  13  15  1   
 22  13  16  1   
 23  14  17  1   
 24  14  29  1   
 25  14  30  1   
 26  15  18  1   
 27  15  31  1   
 28  15  32  1   
 29  16  19  1   
 30  16  33  1   
 31  16  34  1   
 32  17  20  1   
 33  17  21  1   
 34  17  35  1   
 35  18  22  1   
 36  18  36  1   
 37  18  37  1   
 38  19  23  1   
 39  19  38  1   
 40  19  39  1   
 41  20  40  1   
 42  21  41  1   
 43  21  42  1   
 44  21  43  1   
 45  22  23  1   
 46  22  44  1   
 47  22  45  1   
 48  23  46  1   
 49  23  47  1   
@<TRIPOS>SUBSTRUCTURE
  1 ****  11 GROUP 4 **** **** 0

# MOE 2024.06 (io_trps.svl 2023.06)
