@<TRIPOS>MOLECULE
4-(6-Methyl-1-propyl-1H-pyrazolo[3,4-b]quinolin-3-ylcarbamoyl)-butyric acid
47 49 1 0 0 
SMALL
USER_CHARGES


@<TRIPOS>ATOM
  1 O       -1.4400    -0.4620     1.6850 O.co2 1 <1>  -0.9000 
  2 C       -1.5200    -0.0630     0.5200 C.2   1 <1>   0.9060 
  3 O       -0.5390     0.0810    -0.2140 O.co2 1 <1>  -0.9000 
  4 C       -2.8910     0.2520    -0.0360 C.3   1 <1>  -0.2660 
  5 C       -3.8160    -0.9760    -0.0230 C.3   1 <1>  -0.1600 
  6 C       -5.2150    -0.6310    -0.5620 C.3   1 <1>  -0.0990 
  7 C       -6.2010    -1.7890    -0.5950 C.2   1 <1>   0.5690 
  8 O       -7.2020    -1.6500    -1.2550 O.2   1 <1>  -0.5700 
  9 N       -5.9200    -2.9170     0.1090 N.am  1 <1>  -0.4930 
 10 C       -6.6130    -4.1130     0.2580 C.2   1 <1>   0.3520 
 11 N       -5.9370    -5.1760     0.5110 N.2   1 <1>  -0.7070 
 12 C       -8.0170    -4.3390     0.2070 C.ar  1 <1>   0.0000 
 13 N       -6.8640    -6.1700     0.6100 N.pl3 1 <1>   0.3140 
 14 C       -8.1380    -5.7080     0.4370 C.ar  1 <1>   0.1050 
 15 C       -9.1710    -3.6070     0.0290 C.ar  1 <1>  -0.1500 
 16 C       -6.4820    -7.5690     0.8840 C.3   1 <1>   0.0960 
 17 N       -9.2620    -6.4060     0.4880 N.ar  1 <1>  -0.5670 
 18 C      -10.3880    -4.2830     0.0660 C.ar  1 <1>   0.0000 
 19 C       -6.2450    -8.3370    -0.4230 C.3   1 <1>  -0.1600 
 20 C      -10.3810    -5.6880     0.2980 C.ar  1 <1>   0.3100 
 21 C      -11.6290    -3.6260    -0.1170 C.ar  1 <1>  -0.1500 
 22 C       -5.8420    -9.7910    -0.1520 C.3   1 <1>  -0.2400 
 23 C      -11.6240    -6.3530     0.3320 C.ar  1 <1>  -0.1500 
 24 C      -12.8130    -4.3060    -0.0760 C.ar  1 <1>  -0.1440 
 25 C      -12.8060    -5.6920     0.1530 C.ar  1 <1>  -0.1500 
 26 C      -14.1440    -3.6040    -0.2730 C.3   1 <1>  -0.0970 
 27 H       -2.7670     0.6180    -1.0380 H     1 <1>   0.0800 
 28 H       -3.3040     1.0370     0.5670 H     1 <1>   0.0800 
 29 H       -3.8840    -1.3300     0.9920 H     1 <1>   0.0800 
 30 H       -3.3670    -1.7510    -0.6220 H     1 <1>   0.0800 
 31 H       -5.1190    -0.2510    -1.5630 H     1 <1>   0.0800 
 32 H       -5.6440     0.1480     0.0410 H     1 <1>   0.0800 
 33 H       -4.9790    -2.9790     0.4930 H     1 <1>   0.3700 
 34 H       -9.1430    -2.5470    -0.1330 H     1 <1>   0.1500 
 35 H       -7.2690    -8.0320     1.4510 H     1 <1>   0.0800 
 36 H       -5.5860    -7.5620     1.4790 H     1 <1>   0.0800 
 37 H       -5.4640    -7.8510    -0.9840 H     1 <1>   0.0800 
 38 H       -7.1470    -8.3240    -1.0120 H     1 <1>   0.0800 
 39 H      -11.6080    -2.5660    -0.2930 H     1 <1>   0.1500 
 40 H       -4.9320    -9.8310     0.4200 H     1 <1>   0.0800 
 41 H       -5.6830   -10.3070    -1.0820 H     1 <1>   0.0800 
 42 H       -6.6180   -10.3020     0.3920 H     1 <1>   0.0800 
 43 H      -11.6060    -7.4120     0.5070 H     1 <1>   0.1500 
 44 H      -13.7420    -6.2210     0.1830 H     1 <1>   0.1500 
 45 H      -14.0020    -2.5520    -0.4400 H     1 <1>   0.0800 
 46 H      -14.7580    -3.7330     0.6010 H     1 <1>   0.0800 
 47 H      -14.6550    -4.0200    -1.1230 H     1 <1>   0.0800 
@<TRIPOS>BOND
  1   1   2  ar  
  2   2   3  ar  
  3   2   4  1   
  4   4   5  1   
  5   4  27  1   
  6   4  28  1   
  7   5   6  1   
  8   5  29  1   
  9   5  30  1   
 10   6   7  1   
 11   6  31  1   
 12   6  32  1   
 13   7   8  2   
 14   7   9  am  
 15   9  10  1   
 16   9  33  1   
 17  10  11  2   
 18  10  12  1   
 19  11  13  1   
 20  12  14  ar  
 21  12  15  ar  
 22  13  14  1   
 23  13  16  1   
 24  14  17  ar  
 25  15  18  ar  
 26  15  34  1   
 27  16  19  1   
 28  16  35  1   
 29  16  36  1   
 30  17  20  ar  
 31  18  20  ar  
 32  18  21  ar  
 33  19  22  1   
 34  19  37  1   
 35  19  38  1   
 36  20  23  ar  
 37  21  24  ar  
 38  21  39  1   
 39  22  40  1   
 40  22  41  1   
 41  22  42  1   
 42  23  25  ar  
 43  23  43  1   
 44  24  25  ar  
 45  24  26  1   
 46  25  44  1   
 47  26  45  1   
 48  26  46  1   
 49  26  47  1   
@<TRIPOS>SUBSTRUCTURE
  1 ****  10 GROUP 4 **** **** 0

# MOE 2024.06 (io_trps.svl 2023.06)
