@<TRIPOS>MOLECULE
4-(2-Chloro-phenyl)-1-isopropyl-1,4-dihydro-pyridine-3,5-dicarboxylic acid dimet
44 45 1 0 0 
SMALL
USER_CHARGES


@<TRIPOS>ATOM
  1 CL       2.0220    -2.4620    -2.3290 Cl    1 <1>  -0.1770 
  2 C        2.3020    -0.9890    -1.4340 C.ar  1 <1>   0.1770 
  3 C        2.5690    -0.9920    -0.0680 C.ar  1 <1>  -0.1440 
  4 C        2.2430     0.1880    -2.1590 C.ar  1 <1>  -0.1500 
  5 C        2.7770     0.2370     0.5500 C.ar  1 <1>  -0.1500 
  6 C        2.6460    -2.2680     0.7890 C.3   1 <1>   0.3400 
  7 C        2.4540     1.3990    -1.5250 C.ar  1 <1>  -0.1500 
  8 C        2.7200     1.4190    -0.1680 C.ar  1 <1>  -0.1500 
  9 C        3.7990    -3.1670     0.3340 C.2   1 <1>  -0.1240 
 10 C        1.2960    -2.9900     0.8240 C.2   1 <1>  -0.1240 
 11 C        5.1050    -2.5980     0.4360 C.2   1 <1>   0.7060 
 12 C        3.5390    -4.4190    -0.1170 C.2   1 <1>  -0.0500 
 13 C        0.2140    -2.2520     1.3930 C.2   1 <1>   0.7060 
 14 C        1.1950    -4.2540     0.3410 C.2   1 <1>  -0.0500 
 15 O        5.3570    -1.5820     1.0580 O.2   1 <1>  -0.5700 
 16 O        6.1140    -3.2420    -0.1650 O.3   1 <1>  -0.4300 
 17 N        2.2680    -4.9700    -0.1610 N.pl3 1 <1>  -0.5690 
 18 O        0.3540    -1.2280     2.0360 O.2   1 <1>  -0.5700 
 19 O       -1.0240    -2.7370     1.2310 O.3   1 <1>  -0.4300 
 20 C        7.4390    -2.7510    -0.1200 C.3   1 <1>   0.0400 
 21 C        2.0290    -6.3180    -0.7460 C.3   1 <1>   0.2890 
 22 C       -2.1550    -2.0710     1.7580 C.3   1 <1>   0.0400 
 23 C        2.7580    -7.3820     0.0740 C.3   1 <1>  -0.2400 
 24 C        2.4590    -6.3360    -2.2130 C.3   1 <1>  -0.2400 
 25 H        2.0350     0.1520    -3.2130 H     1 <1>   0.1500 
 26 H        2.9870     0.2830     1.6050 H     1 <1>   0.1500 
 27 H        2.8650    -1.9880     1.8050 H     1 <1>   0.0800 
 28 H        2.4100     2.3190    -2.0820 H     1 <1>   0.1500 
 29 H        2.8850     2.3570     0.3340 H     1 <1>   0.1500 
 30 H        4.3430    -5.0490    -0.4590 H     1 <1>   0.1500 
 31 H        0.2430    -4.7600     0.3430 H     1 <1>   0.1500 
 32 H        8.0710    -3.4220    -0.6740 H     1 <1>   0.0800 
 33 H        7.7570    -2.7040     0.9070 H     1 <1>   0.0800 
 34 H        7.4610    -1.7700    -0.5620 H     1 <1>   0.0800 
 35 H        0.9740    -6.5280    -0.7060 H     1 <1>   0.0800 
 36 H       -3.0340    -2.6340     1.5000 H     1 <1>   0.0800 
 37 H       -2.2080    -1.0840     1.3300 H     1 <1>   0.0800 
 38 H       -2.0550    -2.0070     2.8280 H     1 <1>   0.0800 
 39 H        3.8230    -7.2520     0.0150 H     1 <1>   0.0800 
 40 H        2.5150    -8.3600    -0.3000 H     1 <1>   0.0800 
 41 H        2.4500    -7.3230     1.1020 H     1 <1>   0.0800 
 42 H        3.5180    -6.1890    -2.3090 H     1 <1>   0.0800 
 43 H        1.9450    -5.5580    -2.7500 H     1 <1>   0.0800 
 44 H        2.2040    -7.2810    -2.6570 H     1 <1>   0.0800 
@<TRIPOS>BOND
  1   1   2  1   
  2   2   3  ar  
  3   2   4  ar  
  4   3   5  ar  
  5   3   6  1   
  6   4   7  ar  
  7   4  25  1   
  8   5   8  ar  
  9   5  26  1   
 10   6   9  1   
 11   6  10  1   
 12   6  27  1   
 13   7   8  ar  
 14   7  28  1   
 15   8  29  1   
 16   9  11  1   
 17   9  12  2   
 18  10  13  1   
 19  10  14  2   
 20  11  15  2   
 21  11  16  1   
 22  12  17  1   
 23  12  30  1   
 24  13  18  2   
 25  13  19  1   
 26  14  17  1   
 27  14  31  1   
 28  16  20  1   
 29  17  21  1   
 30  19  22  1   
 31  20  32  1   
 32  20  33  1   
 33  20  34  1   
 34  21  23  1   
 35  21  24  1   
 36  21  35  1   
 37  22  36  1   
 38  22  37  1   
 39  22  38  1   
 40  23  39  1   
 41  23  40  1   
 42  23  41  1   
 43  24  42  1   
 44  24  43  1   
 45  24  44  1   
@<TRIPOS>SUBSTRUCTURE
  1 ****   6 GROUP 4 **** **** 0

# MOE 2024.06 (io_trps.svl 2023.06)
