@<TRIPOS>MOLECULE
2-Methoxy-N-(5-phenethyl-[1,3,4]thiadiazol-2-yl)-acetamide
34 35 1 0 0 
SMALL
USER_CHARGES


@<TRIPOS>ATOM
  1 S        0.1310    -0.2680    -0.4180 S.3   1 <1>  -0.0800 
  2 C       -1.0940    -0.7070     0.7330 C.2   1 <1>   0.4420 
  3 C        1.1730     0.0460     0.9260 C.2   1 <1>   0.1980 
  4 N       -0.6820    -0.5980     1.9420 N.2   1 <1>  -0.3380 
  5 N       -2.3480    -1.1160     0.3380 N.am  1 <1>  -0.4940 
  6 N        0.6130    -0.1690     2.0460 N.2   1 <1>  -0.3380 
  7 C        2.5830     0.5210     0.6430 C.3   1 <1>   0.0200 
  8 C       -2.9240    -1.2950    -0.8860 C.2   1 <1>   0.5690 
  9 C        3.4690    -0.6300     0.1580 C.3   1 <1>  -0.0170 
 10 O       -2.3580    -1.1040    -1.9330 O.2   1 <1>  -0.5700 
 11 C       -4.3740    -1.7690    -0.9110 C.3   1 <1>   0.1810 
 12 C        4.8810    -0.1360    -0.1050 C.ar  1 <1>  -0.1440 
 13 O       -4.8740    -1.9530     0.3940 O.3   1 <1>  -0.5600 
 14 C        5.8180    -0.1210     0.9170 C.ar  1 <1>  -0.1500 
 15 C        5.2440     0.3090    -1.3670 C.ar  1 <1>  -0.1500 
 16 C       -6.1970    -2.3870     0.4340 C.3   1 <1>   0.0400 
 17 C        7.1040     0.3340     0.6800 C.ar  1 <1>  -0.1500 
 18 C        6.5300     0.7650    -1.6050 C.ar  1 <1>  -0.1500 
 19 C        7.4600     0.7780    -0.5810 C.ar  1 <1>  -0.1500 
 20 H       -2.9840    -1.3360     1.1080 H     1 <1>   0.3700 
 21 H        2.9980     0.9340     1.5450 H     1 <1>   0.0800 
 22 H        2.5550     1.3000    -0.0980 H     1 <1>   0.0800 
 23 H        3.0600    -1.0540    -0.7430 H     1 <1>   0.0800 
 24 H        3.4890    -1.4070     0.9030 H     1 <1>   0.0800 
 25 H       -4.4310    -2.7040    -1.4390 H     1 <1>   0.0800 
 26 H       -4.9770    -1.0330    -1.4120 H     1 <1>   0.0800 
 27 H        5.5520    -0.4640     1.9010 H     1 <1>   0.1500 
 28 H        4.5290     0.3040    -2.1720 H     1 <1>   0.1500 
 29 H       -6.4830    -2.4980     1.4650 H     1 <1>   0.0800 
 30 H       -6.2760    -3.3370    -0.0670 H     1 <1>   0.0800 
 31 H       -6.8280    -1.6550    -0.0400 H     1 <1>   0.0800 
 32 H        7.8260     0.3430     1.4770 H     1 <1>   0.1500 
 33 H        6.8060     1.1090    -2.5860 H     1 <1>   0.1500 
 34 H        8.4590     1.1320    -0.7650 H     1 <1>   0.1500 
@<TRIPOS>BOND
  1   1   2  1   
  2   1   3  1   
  3   2   4  2   
  4   2   5  1   
  5   3   6  2   
  6   3   7  1   
  7   4   6  1   
  8   5   8  am  
  9   5  20  1   
 10   7   9  1   
 11   7  21  1   
 12   7  22  1   
 13   8  10  2   
 14   8  11  1   
 15   9  12  1   
 16   9  23  1   
 17   9  24  1   
 18  11  13  1   
 19  11  25  1   
 20  11  26  1   
 21  12  14  ar  
 22  12  15  ar  
 23  13  16  1   
 24  14  17  ar  
 25  14  27  1   
 26  15  18  ar  
 27  15  28  1   
 28  16  29  1   
 29  16  30  1   
 30  16  31  1   
 31  17  19  ar  
 32  17  32  1   
 33  18  19  ar  
 34  18  33  1   
 35  19  34  1   
@<TRIPOS>SUBSTRUCTURE
  1 ****   3 GROUP 4 **** **** 0

# MOE 2024.06 (io_trps.svl 2023.06)
