@<TRIPOS>MOLECULE
(5,7-Dimethyl-[1,2,4]triazolo[1,5-a]pyrimidin-2-yl)-(2-ethoxy-benzyl)-amine
42 44 1 0 0 
SMALL
USER_CHARGES


@<TRIPOS>ATOM
  1 O        2.2490    -0.6950     1.6830 O.3   1 <1>  -0.3630 
  2 C        1.3530    -0.8860     0.6770 C.ar  1 <1>   0.0830 
  3 C        1.9060     0.0080     2.8580 C.3   1 <1>   0.1200 
  4 C        1.7120    -1.7490    -0.3580 C.ar  1 <1>  -0.1440 
  5 C        0.1180    -0.2430     0.6410 C.ar  1 <1>  -0.1500 
  6 C        3.1270     0.0110     3.7730 C.3   1 <1>  -0.2400 
  7 C        0.8360    -1.9490    -1.4150 C.ar  1 <1>  -0.1500 
  8 C        3.0450    -2.4860    -0.3510 C.3   1 <1>   0.3530 
  9 C       -0.7450    -0.4520    -0.4180 C.ar  1 <1>  -0.1500 
 10 C       -0.3860    -1.3030    -1.4470 C.ar  1 <1>  -0.1500 
 11 N        3.9820    -1.8600    -1.3170 N.pl3 1 <1>  -0.8650 
 12 C        4.3770    -0.5580    -1.2660 C.2   1 <1>   0.7490 
 13 N        4.9570     0.0940    -2.2230 N.2   1 <1>  -0.2600 
 14 N        4.1900     0.1870    -0.1750 N.pl3 1 <1>  -0.7000 
 15 N        5.1390     1.3440    -1.6980 N.pl3 1 <1>  -0.3220 
 16 C        4.6520     1.3760    -0.4510 C.cat 1 <1>   0.9620 
 17 C        5.6830     2.4700    -2.2430 C.2   1 <1>   0.2410 
 18 N        4.6340     2.4440     0.3490 N.2   1 <1>  -0.6120 
 19 C        5.6910     3.5840    -1.4610 C.2   1 <1>  -0.1360 
 20 C        6.2320     2.4120    -3.6580 C.3   1 <1>  -0.1020 
 21 C        5.1510     3.5210    -0.1610 C.2   1 <1>   0.3750 
 22 C        5.1580     4.7650     0.7030 C.3   1 <1>  -0.1790 
 23 H        1.0760    -0.4940     3.3270 H     1 <1>   0.0800 
 24 H        1.6320     1.0150     2.5940 H     1 <1>   0.0800 
 25 H       -0.1940     0.4240     1.4220 H     1 <1>   0.1500 
 26 H        3.4120    -0.9970     4.0170 H     1 <1>   0.0800 
 27 H        2.8910     0.5260     4.6860 H     1 <1>   0.0800 
 28 H        3.9500     0.5170     3.3020 H     1 <1>   0.0800 
 29 H        1.0970    -2.6120    -2.2220 H     1 <1>   0.1500 
 30 H        2.8830    -3.5130    -0.6320 H     1 <1>   0.0800 
 31 H        3.4850    -2.4920     0.6310 H     1 <1>   0.0800 
 32 H       -1.6990     0.0460    -0.4440 H     1 <1>   0.1500 
 33 H       -1.0610    -1.4650    -2.2700 H     1 <1>   0.1500 
 34 H        3.9280    -2.2460    -2.2620 H     1 <1>   0.4000 
 35 H        3.6550    -0.0840     0.6480 H     1 <1>   0.4500 
 36 H        6.1000     4.5130    -1.8160 H     1 <1>   0.1500 
 37 H        7.0160     1.6790    -3.7180 H     1 <1>   0.0800 
 38 H        6.6300     3.3660    -3.9540 H     1 <1>   0.0800 
 39 H        5.4510     2.1370    -4.3440 H     1 <1>   0.0800 
 40 H        4.1750     5.2010     0.7170 H     1 <1>   0.0800 
 41 H        5.8570     5.4930     0.3330 H     1 <1>   0.0800 
 42 H        5.4340     4.5100     1.7100 H     1 <1>   0.0800 
@<TRIPOS>BOND
  1   1   2  1   
  2   1   3  1   
  3   2   4  ar  
  4   2   5  ar  
  5   3   6  1   
  6   3  23  1   
  7   3  24  1   
  8   4   7  ar  
  9   4   8  1   
 10   5   9  ar  
 11   5  25  1   
 12   6  26  1   
 13   6  27  1   
 14   6  28  1   
 15   7  10  ar  
 16   7  29  1   
 17   8  11  1   
 18   8  30  1   
 19   8  31  1   
 20   9  10  ar  
 21   9  32  1   
 22  10  33  1   
 23  11  12  1   
 24  11  34  1   
 25  12  13  2   
 26  12  14  1   
 27  13  15  1   
 28  14  16  ar  
 29  14  35  1   
 30  15  16  ar  
 31  15  17  1   
 32  16  18  1   
 33  17  19  2   
 34  17  20  1   
 35  18  21  2   
 36  19  21  1   
 37  19  36  1   
 38  20  37  1   
 39  20  38  1   
 40  20  39  1   
 41  21  22  1   
 42  22  40  1   
 43  22  41  1   
 44  22  42  1   
@<TRIPOS>SUBSTRUCTURE
  1 ****  14 GROUP 4 **** **** 0

# MOE 2024.06 (io_trps.svl 2023.06)
