@<TRIPOS>MOLECULE
1-(4-Methoxy-benzyl)-piperidine-2-carboxylic acid
37 38 1 0 0 
SMALL
USER_CHARGES


@<TRIPOS>ATOM
  1 O        0.3540     1.0390     1.0480 O.co2 1 <1>  -0.9000 
  2 C        1.3120     1.1660     0.2860 C.2   1 <1>   0.9060 
  3 O        1.4540     2.1290    -0.4820 O.co2 1 <1>  -0.9000 
  4 C        2.4880     0.1660     0.3760 C.3   1 <1>   0.3170 
  5 N        3.8380     0.8320     0.1600 N.4   1 <1>  -0.9590 
  6 C        2.3070    -0.9640    -0.6510 C.3   1 <1>  -0.1600 
  7 C        5.0030    -0.0870     0.1450 C.3   1 <1>   0.3430 
  8 C        3.9970     1.9820     1.0910 C.3   1 <1>   0.4860 
  9 C        3.4860    -1.9440    -0.6700 C.3   1 <1>  -0.1600 
 10 C        4.7970    -1.1830    -0.9000 C.3   1 <1>  -0.1600 
 11 C        5.1900     2.8030     0.6400 C.ar  1 <1>  -0.1430 
 12 C        5.0660     3.6250    -0.4700 C.ar  1 <1>  -0.1500 
 13 C        6.4010     2.7410     1.3160 C.ar  1 <1>  -0.1500 
 14 C        6.1490     4.3650    -0.9090 C.ar  1 <1>  -0.1500 
 15 C        7.4840     3.4840     0.8770 C.ar  1 <1>  -0.1500 
 16 C        7.3620     4.3000    -0.2440 C.ar  1 <1>   0.0830 
 17 O        8.3720     5.0550    -0.7410 O.3   1 <1>  -0.3630 
 18 C        9.6310     5.1110    -0.1100 C.3   1 <1>   0.0400 
 19 H        2.4560    -0.2590     1.3630 H     1 <1>   0.0800 
 20 H        3.7260     1.2830    -0.7600 H     1 <1>   0.4500 
 21 H        2.1750    -0.5290    -1.6280 H     1 <1>   0.0800 
 22 H        1.4000    -1.4960    -0.4180 H     1 <1>   0.0800 
 23 H        5.1180    -0.5370     1.1170 H     1 <1>   0.0800 
 24 H        5.9010     0.4630    -0.0860 H     1 <1>   0.0800 
 25 H        4.1390     1.6320     2.1000 H     1 <1>   0.0800 
 26 H        3.1190     2.6090     1.0670 H     1 <1>   0.0800 
 27 H        3.3420    -2.6690    -1.4540 H     1 <1>   0.0800 
 28 H        3.5300    -2.4730     0.2670 H     1 <1>   0.0800 
 29 H        5.6230    -1.8710    -0.8540 H     1 <1>   0.0800 
 30 H        4.7980    -0.7410    -1.8820 H     1 <1>   0.0800 
 31 H        4.1260     3.6960    -0.9960 H     1 <1>   0.1500 
 32 H        6.5110     2.1190     2.1870 H     1 <1>   0.1500 
 33 H        6.0590     5.0030    -1.7700 H     1 <1>   0.1500 
 34 H        8.4100     3.4190     1.4170 H     1 <1>   0.1500 
 35 H       10.2550     5.7860    -0.6690 H     1 <1>   0.0800 
 36 H       10.0670     4.1280    -0.1100 H     1 <1>   0.0800 
 37 H        9.5040     5.4790     0.8930 H     1 <1>   0.0800 
@<TRIPOS>BOND
  1   1   2  ar  
  2   2   3  ar  
  3   2   4  1   
  4   4   5  1   
  5   4   6  1   
  6   4  19  1   
  7   5   7  1   
  8   5   8  1   
  9   5  20  1   
 10   6   9  1   
 11   6  21  1   
 12   6  22  1   
 13   7  10  1   
 14   7  23  1   
 15   7  24  1   
 16   8  11  1   
 17   8  25  1   
 18   8  26  1   
 19   9  10  1   
 20   9  27  1   
 21   9  28  1   
 22  10  29  1   
 23  10  30  1   
 24  11  12  ar  
 25  11  13  ar  
 26  12  14  ar  
 27  12  31  1   
 28  13  15  ar  
 29  13  32  1   
 30  14  16  ar  
 31  14  33  1   
 32  15  16  ar  
 33  15  34  1   
 34  16  17  1   
 35  17  18  1   
 36  18  35  1   
 37  18  36  1   
 38  18  37  1   
@<TRIPOS>SUBSTRUCTURE
  1 ****  11 GROUP 4 **** **** 0

# MOE 2024.06 (io_trps.svl 2023.06)
