@<TRIPOS>MOLECULE
N-(3-p-Tolyl-[1,2,4]oxadiazol-5-ylmethyl)-butyramide
36 37 1 0 0 
SMALL
USER_CHARGES


@<TRIPOS>ATOM
  1 O       -0.9730    -0.7900    -0.0810 O.2   1 <1>  -0.5700 
  2 C       -1.9980    -1.0770    -0.6440 C.2   1 <1>   0.5690 
  3 N       -1.9270    -1.7530    -1.8130 N.am  1 <1>  -0.7300 
  4 C       -3.3410    -0.6950    -0.0310 C.3   1 <1>  -0.0990 
  5 C       -3.0380    -2.2880    -2.6440 C.3   1 <1>   0.3200 
  6 C       -3.2720     0.5170     0.9150 C.3   1 <1>  -0.1600 
  7 C       -3.8490    -3.3520    -1.9160 C.2   1 <1>   0.2980 
  8 C       -4.6540     0.8700     1.4730 C.3   1 <1>  -0.2400 
  9 O       -3.2660    -4.4770    -1.6010 O.3   1 <1>  -0.0190 
 10 N       -5.0680    -3.2540    -1.5750 N.2   1 <1>  -0.5650 
 11 N       -4.1940    -5.1560    -1.0040 N.2   1 <1>  -0.4100 
 12 C       -5.2610    -4.4380    -0.9810 C.2   1 <1>   0.4620 
 13 C       -6.5340    -4.8250    -0.3950 C.ar  1 <1>   0.0540 
 14 C       -7.6460    -3.9820    -0.4270 C.ar  1 <1>  -0.1500 
 15 C       -6.6960    -6.0630     0.2300 C.ar  1 <1>  -0.1500 
 16 C       -8.8550    -4.3550     0.1320 C.ar  1 <1>  -0.1500 
 17 C       -7.9030    -6.4400     0.7910 C.ar  1 <1>  -0.1500 
 18 C       -8.9930    -5.5880     0.7440 C.ar  1 <1>  -0.1440 
 19 C      -10.3180    -5.9980     1.3600 C.3   1 <1>  -0.0970 
 20 H       -0.9810    -2.0080    -2.1020 H     1 <1>   0.3700 
 21 H       -3.7100    -1.5450     0.5130 H     1 <1>   0.0800 
 22 H       -4.0390    -0.4730    -0.8160 H     1 <1>   0.0800 
 23 H       -2.6320    -2.7160    -3.5430 H     1 <1>   0.0800 
 24 H       -3.6910    -1.4810    -2.9260 H     1 <1>   0.0800 
 25 H       -2.8710     1.3640     0.3830 H     1 <1>   0.0800 
 26 H       -2.6040     0.2960     1.7310 H     1 <1>   0.0800 
 27 H       -5.3320     1.1210     0.6760 H     1 <1>   0.0800 
 28 H       -4.5780     1.7140     2.1350 H     1 <1>   0.0800 
 29 H       -5.0600     0.0400     2.0250 H     1 <1>   0.0800 
 30 H       -7.5660    -3.0180    -0.8980 H     1 <1>   0.1500 
 31 H       -5.8640    -6.7430     0.2780 H     1 <1>   0.1500 
 32 H       -9.6910    -3.6780     0.0890 H     1 <1>   0.1500 
 33 H       -7.9900    -7.4020     1.2650 H     1 <1>   0.1500 
 34 H      -11.1360    -5.5660     0.8110 H     1 <1>   0.0800 
 35 H      -10.3660    -5.6580     2.3790 H     1 <1>   0.0800 
 36 H      -10.4270    -7.0670     1.3440 H     1 <1>   0.0800 
@<TRIPOS>BOND
  1   1   2  2   
  2   2   3  am  
  3   2   4  1   
  4   3   5  1   
  5   3  20  1   
  6   4   6  1   
  7   4  21  1   
  8   4  22  1   
  9   5   7  1   
 10   5  23  1   
 11   5  24  1   
 12   6   8  1   
 13   6  25  1   
 14   6  26  1   
 15   7   9  1   
 16   7  10  2   
 17   8  27  1   
 18   8  28  1   
 19   8  29  1   
 20   9  11  1   
 21  10  12  1   
 22  11  12  2   
 23  12  13  1   
 24  13  14  ar  
 25  13  15  ar  
 26  14  16  ar  
 27  14  30  1   
 28  15  17  ar  
 29  15  31  1   
 30  16  18  ar  
 31  16  32  1   
 32  17  18  ar  
 33  17  33  1   
 34  18  19  1   
 35  19  34  1   
 36  19  35  1   
 37  19  36  1   
@<TRIPOS>SUBSTRUCTURE
  1 ****  10 GROUP 4 **** **** 0

# MOE 2024.06 (io_trps.svl 2023.06)
