@<TRIPOS>MOLECULE
[5-(4-Propyl-phenoxymethyl)-furan-2-yl]-thiomorpholin-4-yl-methanone
47 49 1 0 0 
SMALL
USER_CHARGES


@<TRIPOS>ATOM
  1 S       -0.6210     1.0640     1.2790 S.3   1 <1>  -0.4600 
  2 C       -1.0110     2.7860     0.8590 C.3   1 <1>   0.0700 
  3 C        1.1660     0.9910     0.9550 C.3   1 <1>   0.0700 
  4 C       -0.4950     3.0960    -0.5520 C.3   1 <1>   0.1400 
  5 C        1.4340     1.4880    -0.4690 C.3   1 <1>   0.1400 
  6 N        0.9850     2.9040    -0.6330 N.am  1 <1>  -0.6600 
  7 C        1.8860     3.9490    -0.5410 C.2   1 <1>   0.7150 
  8 O        2.9990     3.7100    -0.1060 O.2   1 <1>  -0.5700 
  9 C        1.5320     5.2920    -0.9530 C.2   1 <1>   0.0550 
 10 O        1.8660     6.3480    -0.2170 O.3   1 <1>  -0.2800 
 11 C        0.8590     5.7370    -2.0520 C.2   1 <1>  -0.1500 
 12 C        1.4340     7.4410    -0.8080 C.2   1 <1>  -0.0400 
 13 C        0.7940     7.1270    -1.9550 C.2   1 <1>  -0.1500 
 14 C        1.6930     8.7910    -0.1630 C.3   1 <1>   0.3000 
 15 O        3.0370     9.1600    -0.3770 O.3   1 <1>  -0.3630 
 16 C        3.5230    10.3400     0.0810 C.ar  1 <1>   0.0830 
 17 C        2.7730    11.2650     0.8010 C.ar  1 <1>  -0.1500 
 18 C        4.8510    10.6150    -0.2010 C.ar  1 <1>  -0.1500 
 19 C        3.3540    12.4480     1.2240 C.ar  1 <1>  -0.1500 
 20 C        5.4280    11.7990     0.2240 C.ar  1 <1>  -0.1500 
 21 C        4.6830    12.7240     0.9380 C.ar  1 <1>  -0.1430 
 22 C        5.3130    14.0280     1.4070 C.3   1 <1>  -0.0170 
 23 C        4.8940    15.2230     0.5370 C.3   1 <1>  -0.1600 
 24 C        5.3630    15.0900    -0.9170 C.3   1 <1>  -0.2400 
 25 H       -0.5410     3.4160     1.5930 H     1 <1>   0.0800 
 26 H       -2.0790     2.8920     0.9170 H     1 <1>   0.0800 
 27 H        1.4720    -0.0320     1.0780 H     1 <1>   0.0800 
 28 H        1.6610     1.6110     1.6820 H     1 <1>   0.0800 
 29 H       -0.7630     4.1070    -0.7980 H     1 <1>   0.0800 
 30 H       -0.9780     2.4460    -1.2610 H     1 <1>   0.0800 
 31 H        0.9120     0.8630    -1.1720 H     1 <1>   0.0800 
 32 H        2.4870     1.4070    -0.6800 H     1 <1>   0.0800 
 33 H        0.4560     5.1480    -2.8570 H     1 <1>   0.1500 
 34 H        0.3300     7.7860    -2.6670 H     1 <1>   0.1500 
 35 H        1.5160     8.7360     0.8960 H     1 <1>   0.0800 
 36 H        1.0670     9.5410    -0.6100 H     1 <1>   0.0800 
 37 H        1.7430    11.0890     1.0440 H     1 <1>   0.1500 
 38 H        5.4270     9.8960    -0.7540 H     1 <1>   0.1500 
 39 H        2.7680    13.1600     1.7790 H     1 <1>   0.1500 
 40 H        6.4600    11.9960    -0.0070 H     1 <1>   0.1500 
 41 H        6.3850    13.9390     1.4020 H     1 <1>   0.0800 
 42 H        5.0140    14.2120     2.4240 H     1 <1>   0.0800 
 43 H        5.3130    16.1220     0.9570 H     1 <1>   0.0800 
 44 H        3.8230    15.3210     0.5570 H     1 <1>   0.0800 
 45 H        6.4320    14.9800    -0.9610 H     1 <1>   0.0800 
 46 H        5.0850    15.9670    -1.4750 H     1 <1>   0.0800 
 47 H        4.9070    14.2340    -1.3840 H     1 <1>   0.0800 
@<TRIPOS>BOND
  1   1   2  1   
  2   1   3  1   
  3   2   4  1   
  4   2  25  1   
  5   2  26  1   
  6   3   5  1   
  7   3  27  1   
  8   3  28  1   
  9   4   6  1   
 10   4  29  1   
 11   4  30  1   
 12   5   6  1   
 13   5  31  1   
 14   5  32  1   
 15   6   7  am  
 16   7   8  2   
 17   7   9  1   
 18   9  10  1   
 19   9  11  2   
 20  10  12  1   
 21  11  13  1   
 22  11  33  1   
 23  12  13  2   
 24  12  14  1   
 25  13  34  1   
 26  14  15  1   
 27  14  35  1   
 28  14  36  1   
 29  15  16  1   
 30  16  17  ar  
 31  16  18  ar  
 32  17  19  ar  
 33  17  37  1   
 34  18  20  ar  
 35  18  38  1   
 36  19  21  ar  
 37  19  39  1   
 38  20  21  ar  
 39  20  40  1   
 40  21  22  1   
 41  22  23  1   
 42  22  41  1   
 43  22  42  1   
 44  23  24  1   
 45  23  43  1   
 46  23  44  1   
 47  24  45  1   
 48  24  46  1   
 49  24  47  1   
@<TRIPOS>SUBSTRUCTURE
  1 ****  12 GROUP 4 **** **** 0

# MOE 2024.06 (io_trps.svl 2023.06)
