@<TRIPOS>MOLECULE
1-(3-Chloro-4-ethoxy-benzenesulfonyl)-piperidine-4-carboxylic acid (3-methoxy-pr
54 55 1 0 0 
SMALL
USER_CHARGES


@<TRIPOS>ATOM
  1 CL       1.3710     1.2490    -2.3350 Cl    1 <1>  -0.1770 
  2 C        0.8190     2.4210    -1.1570 C.ar  1 <1>   0.1770 
  3 C       -0.4820     2.9110    -1.1860 C.ar  1 <1>   0.0830 
  4 C        1.7190     2.8590    -0.2040 C.ar  1 <1>  -0.1500 
  5 O       -1.3930     2.5120    -2.1030 O.3   1 <1>  -0.3630 
  6 C       -0.8590     3.8650    -0.2560 C.ar  1 <1>  -0.1500 
  7 C        1.3490     3.8100     0.7410 C.ar  1 <1>  -0.0090 
  8 C       -1.9200     1.2070    -1.9920 C.3   1 <1>   0.1200 
  9 C        0.0470     4.3020     0.6970 C.ar  1 <1>  -0.1500 
 10 S        2.5310     4.3820     1.9920 S.o2  1 <1>   1.4470 
 11 C       -3.0650     1.2140    -0.9790 C.3   1 <1>  -0.2400 
 12 O        2.8370     3.2840     2.8810 O.2   1 <1>  -0.6500 
 13 O        2.0960     5.6460     2.5480 O.2   1 <1>  -0.6500 
 14 N        3.9250     4.7050     1.0810 N.am  1 <1>  -0.8490 
 15 C        5.1170     4.7730     1.9300 C.3   1 <1>   0.1960 
 16 C        3.7780     5.9110     0.2600 C.3   1 <1>   0.1960 
 17 C        6.3760     4.9080     1.0700 C.3   1 <1>  -0.1600 
 18 C        4.9870     6.0700    -0.6640 C.3   1 <1>  -0.1600 
 19 C        6.2960     6.1300     0.1410 C.3   1 <1>  -0.0190 
 20 C        7.5240     6.2180    -0.7630 C.2   1 <1>   0.5690 
 21 O        7.6510     5.4410    -1.6780 O.2   1 <1>  -0.5700 
 22 N        8.4530     7.1750    -0.5030 N.am  1 <1>  -0.7300 
 23 C        9.7140     7.3540    -1.2510 C.3   1 <1>   0.1400 
 24 C       10.8670     7.4790    -0.2590 C.3   1 <1>  -0.1600 
 25 C       12.2000     7.6150    -0.9890 C.3   1 <1>   0.1200 
 26 O       13.1890     7.7730    -0.0290 O.3   1 <1>  -0.5600 
 27 C       14.4730     7.8830    -0.5510 C.3   1 <1>   0.0400 
 28 H        2.7200     2.4600    -0.2000 H     1 <1>   0.1500 
 29 H       -1.8610     4.2570    -0.2820 H     1 <1>   0.1500 
 30 H       -1.1420     0.5260    -1.6930 H     1 <1>   0.0800 
 31 H       -2.2810     0.9220    -2.9650 H     1 <1>   0.0800 
 32 H       -0.2620     5.0410     1.4180 H     1 <1>   0.1500 
 33 H       -2.7000     1.4700    -0.0010 H     1 <1>   0.0800 
 34 H       -3.5090     0.2360    -0.9300 H     1 <1>   0.0800 
 35 H       -3.8200     1.9180    -1.2800 H     1 <1>   0.0800 
 36 H        5.2000     3.8710     2.5150 H     1 <1>   0.0800 
 37 H        5.0350     5.6060     2.6100 H     1 <1>   0.0800 
 38 H        3.6830     6.7800     0.8920 H     1 <1>   0.0800 
 39 H        2.8880     5.8370    -0.3430 H     1 <1>   0.0800 
 40 H        6.4900     4.0130     0.4820 H     1 <1>   0.0800 
 41 H        7.2370     4.9910     1.7080 H     1 <1>   0.0800 
 42 H        4.8790     6.9680    -1.2470 H     1 <1>   0.0800 
 43 H        5.0120     5.2380    -1.3470 H     1 <1>   0.0800 
 44 H        6.2670     7.0130     0.7530 H     1 <1>   0.0800 
 45 H        8.3180     7.8150     0.2800 H     1 <1>   0.3700 
 46 H        9.6450     8.2410    -1.8580 H     1 <1>   0.0800 
 47 H        9.8780     6.5090    -1.9010 H     1 <1>   0.0800 
 48 H       10.9020     6.5990     0.3600 H     1 <1>   0.0800 
 49 H       10.7190     8.3470     0.3580 H     1 <1>   0.0800 
 50 H       12.2010     8.4810    -1.6300 H     1 <1>   0.0800 
 51 H       12.4120     6.7280    -1.5640 H     1 <1>   0.0800 
 52 H       15.1580     8.0030     0.2700 H     1 <1>   0.0800 
 53 H       14.5230     8.7450    -1.1940 H     1 <1>   0.0800 
 54 H       14.7130     6.9870    -1.0960 H     1 <1>   0.0800 
@<TRIPOS>BOND
  1   1   2  1   
  2   2   3  ar  
  3   2   4  ar  
  4   3   5  1   
  5   3   6  ar  
  6   4   7  ar  
  7   4  28  1   
  8   5   8  1   
  9   6   9  ar  
 10   6  29  1   
 11   7   9  ar  
 12   7  10  1   
 13   8  11  1   
 14   8  30  1   
 15   8  31  1   
 16   9  32  1   
 17  10  12  2   
 18  10  13  2   
 19  10  14  am  
 20  11  33  1   
 21  11  34  1   
 22  11  35  1   
 23  14  15  1   
 24  14  16  1   
 25  15  17  1   
 26  15  36  1   
 27  15  37  1   
 28  16  18  1   
 29  16  38  1   
 30  16  39  1   
 31  17  19  1   
 32  17  40  1   
 33  17  41  1   
 34  18  19  1   
 35  18  42  1   
 36  18  43  1   
 37  19  20  1   
 38  19  44  1   
 39  20  21  2   
 40  20  22  am  
 41  22  23  1   
 42  22  45  1   
 43  23  24  1   
 44  23  46  1   
 45  23  47  1   
 46  24  25  1   
 47  24  48  1   
 48  24  49  1   
 49  25  26  1   
 50  25  50  1   
 51  25  51  1   
 52  26  27  1   
 53  27  52  1   
 54  27  53  1   
 55  27  54  1   
@<TRIPOS>SUBSTRUCTURE
  1 ****  14 GROUP 4 **** **** 0

# MOE 2024.06 (io_trps.svl 2023.06)
