@<TRIPOS>MOLECULE
[3-(2-Hydroxy-phenyl)-4,5-dihydro-isoxazol-5-yl]-pyrrolidin-1-yl-methanone
35 37 1 0 0 
SMALL
USER_CHARGES


@<TRIPOS>ATOM
  1 O       -0.5150    -1.1970     1.5350 O.2   1 <1>  -0.5700 
  2 C       -0.4060    -2.0970     0.7300 C.2   1 <1>   0.5690 
  3 N        0.8150    -2.3590     0.1540 N.am  1 <1>  -0.6600 
  4 C       -1.6410    -2.9700     0.4380 C.3   1 <1>   0.2610 
  5 C        1.1230    -3.4360    -0.8170 C.3   1 <1>   0.1400 
  6 C        2.0330    -1.5990     0.5010 C.3   1 <1>   0.1400 
  7 O       -1.8310    -3.2160    -0.9410 O.3   1 <1>  -0.2170 
  8 C       -2.9960    -2.4000     0.8510 C.3   1 <1>  -0.0990 
  9 C        2.6040    -3.2640    -1.1450 C.3   1 <1>  -0.1600 
 10 C        3.1820    -2.4800     0.0290 C.3   1 <1>  -0.1600 
 11 N       -3.0960    -3.1850    -1.2940 N.2   1 <1>  -0.5130 
 12 C       -3.8320    -2.7450    -0.3550 C.2   1 <1>   0.3030 
 13 C       -5.2780    -2.5970    -0.4100 C.ar  1 <1>   0.0860 
 14 C       -6.0760    -1.9470     0.5520 C.ar  1 <1>   0.0820 
 15 C       -5.9600    -3.1380    -1.5060 C.ar  1 <1>  -0.1500 
 16 O       -5.5470    -1.3720     1.6450 O.3   1 <1>  -0.5330 
 17 C       -7.4540    -1.8600     0.4160 C.ar  1 <1>  -0.1500 
 18 C       -7.3330    -3.0530    -1.6450 C.ar  1 <1>  -0.1500 
 19 C       -8.0860    -2.4120    -0.6800 C.ar  1 <1>  -0.1500 
 20 H       -1.5010    -3.9280     0.9010 H     1 <1>   0.0800 
 21 H        0.5240    -3.3380    -1.7060 H     1 <1>   0.0800 
 22 H        0.9450    -4.3930    -0.3580 H     1 <1>   0.0800 
 23 H        2.0840    -1.4080     1.5600 H     1 <1>   0.0800 
 24 H        2.0250    -0.6640    -0.0340 H     1 <1>   0.0800 
 25 H       -2.9570    -1.3330     0.9770 H     1 <1>   0.0800 
 26 H       -3.3510    -2.8700     1.7490 H     1 <1>   0.0800 
 27 H        2.6930    -2.6850    -2.0480 H     1 <1>   0.0800 
 28 H        3.0940    -4.2110    -1.2880 H     1 <1>   0.0800 
 29 H        3.4530    -3.1540     0.8230 H     1 <1>   0.0800 
 30 H        4.0440    -1.8980    -0.2480 H     1 <1>   0.0800 
 31 H       -5.3990    -3.6420    -2.2740 H     1 <1>   0.1500 
 32 H       -6.2020    -0.9200     2.2080 H     1 <1>   0.4500 
 33 H       -8.0460    -1.3610     1.1620 H     1 <1>   0.1500 
 34 H       -7.8140    -3.4850    -2.5050 H     1 <1>   0.1500 
 35 H       -9.1550    -2.3440    -0.7860 H     1 <1>   0.1500 
@<TRIPOS>BOND
  1   1   2  2   
  2   2   3  am  
  3   2   4  1   
  4   3   5  1   
  5   3   6  1   
  6   4   7  1   
  7   4   8  1   
  8   4  20  1   
  9   5   9  1   
 10   5  21  1   
 11   5  22  1   
 12   6  10  1   
 13   6  23  1   
 14   6  24  1   
 15   7  11  1   
 16   8  12  1   
 17   8  25  1   
 18   8  26  1   
 19   9  10  1   
 20   9  27  1   
 21   9  28  1   
 22  10  29  1   
 23  10  30  1   
 24  11  12  2   
 25  12  13  1   
 26  13  14  ar  
 27  13  15  ar  
 28  14  16  1   
 29  14  17  ar  
 30  15  18  ar  
 31  15  31  1   
 32  16  32  1   
 33  17  19  ar  
 34  17  33  1   
 35  18  19  ar  
 36  18  34  1   
 37  19  35  1   
@<TRIPOS>SUBSTRUCTURE
  1 ****   8 GROUP 4 **** **** 0

# MOE 2024.06 (io_trps.svl 2023.06)
