@<TRIPOS>MOLECULE
3-Ethyl-8-(2-methoxy-ethyl)-1,6,7-trimethyl-1H,8H-imidazo[2,1-f]purine-2,4-dione
45 47 1 0 0 
SMALL
USER_CHARGES


@<TRIPOS>ATOM
  1 O        1.4800    -0.4190     1.0640 O.2   1 <1>  -0.5750 
  2 C        2.3190     0.4330     0.8510 C.2   1 <1>   0.6860 
  3 N        1.9380     1.7210     0.4860 N.am  1 <1>  -0.4260 
  4 N        3.6660     0.1160     0.9790 N.am  1 <1>  -0.4420 
  5 C        2.8810     2.7190     0.2700 C.2   1 <1>   0.6990 
  6 C        0.4900     2.0310     0.3030 C.3   1 <1>   0.1320 
  7 C        4.5930     1.1160     0.7770 C.2   1 <1>   0.4200 
  8 C        4.0930    -1.2590     1.3730 C.3   1 <1>   0.0510 
  9 O        2.5360     3.8480    -0.0410 O.2   1 <1>  -0.5750 
 10 C        4.2590     2.3820     0.4250 C.2   1 <1>   0.2700 
 11 C        0.0830     1.7760    -1.1480 C.3   1 <1>  -0.2470 
 12 N        5.9480     1.0240     0.8720 N.pl3 1 <1>  -0.7040 
 13 N        5.4700     3.0830     0.2810 N.pl3 1 <1>  -0.6340 
 14 C        6.4390     2.2190     0.5540 C.cat 1 <1>   1.0690 
 15 C        6.0840     4.2730    -0.0470 C.2   1 <1>   0.2330 
 16 N        7.6540     2.7670     0.4300 N.pl3 1 <1>  -0.5720 
 17 C        7.4230     4.0810     0.0460 C.2   1 <1>   0.1570 
 18 C        5.2570     5.4870    -0.4220 C.3   1 <1>  -0.1100 
 19 C        8.9630     2.1180     0.7490 C.3   1 <1>   0.1600 
 20 C        8.5620     5.0560    -0.2010 C.3   1 <1>  -0.1100 
 21 C        9.2400     0.8540    -0.0820 C.3   1 <1>   0.1120 
 22 O        8.2770    -0.1250     0.1820 O.3   1 <1>  -0.5650 
 23 C        8.5320    -1.3340    -0.4670 C.3   1 <1>   0.0310 
 24 H        0.2950     3.0580     0.5600 H     1 <1>   0.0710 
 25 H       -0.1060     1.4180     0.9590 H     1 <1>   0.0710 
 26 H        3.3580    -1.9840     1.0660 H     1 <1>   0.0710 
 27 H        4.2020    -1.3110     2.4430 H     1 <1>   0.0710 
 28 H        5.0280    -1.5130     0.9060 H     1 <1>   0.0710 
 29 H        0.6420     2.4090    -1.8150 H     1 <1>   0.0710 
 30 H       -0.9620     1.9950    -1.2710 H     1 <1>   0.0710 
 31 H        0.2430     0.7440    -1.4080 H     1 <1>   0.0710 
 32 H        6.5820     0.2140     0.8990 H     1 <1>   0.4440 
 33 H        4.6050     5.7520     0.3910 H     1 <1>   0.0710 
 34 H        4.6550     5.2690    -1.2860 H     1 <1>   0.0710 
 35 H        5.8850     6.3300    -0.6460 H     1 <1>   0.0710 
 36 H        8.9890     1.8620     1.7950 H     1 <1>   0.0710 
 37 H        9.7620     2.8160     0.5730 H     1 <1>   0.0710 
 38 H        9.2050     4.6840    -0.9800 H     1 <1>   0.0710 
 39 H        9.1390     5.1870     0.6960 H     1 <1>   0.0710 
 40 H        8.1870     6.0160    -0.5040 H     1 <1>   0.0710 
 41 H       10.2070     0.4580     0.1800 H     1 <1>   0.0710 
 42 H        9.2280     1.0840    -1.1340 H     1 <1>   0.0710 
 43 H        7.7470    -2.0280    -0.2200 H     1 <1>   0.0710 
 44 H        9.4770    -1.7270    -0.1310 H     1 <1>   0.0710 
 45 H        8.5500    -1.1720    -1.5320 H     1 <1>   0.0710 
@<TRIPOS>BOND
  1   1   2  2   
  2   2   3  am  
  3   2   4  am  
  4   3   5  am  
  5   3   6  1   
  6   4   7  1   
  7   4   8  1   
  8   5   9  2   
  9   5  10  1   
 10   6  11  1   
 11   6  24  1   
 12   6  25  1   
 13   7  10  2   
 14   7  12  1   
 15   8  26  1   
 16   8  27  1   
 17   8  28  1   
 18  10  13  1   
 19  11  29  1   
 20  11  30  1   
 21  11  31  1   
 22  12  14  ar  
 23  12  32  1   
 24  13  14  ar  
 25  13  15  1   
 26  14  16  ar  
 27  15  17  2   
 28  15  18  1   
 29  16  17  1   
 30  16  19  1   
 31  17  20  1   
 32  18  33  1   
 33  18  34  1   
 34  18  35  1   
 35  19  21  1   
 36  19  36  1   
 37  19  37  1   
 38  20  38  1   
 39  20  39  1   
 40  20  40  1   
 41  21  22  1   
 42  21  41  1   
 43  21  42  1   
 44  22  23  1   
 45  23  43  1   
 46  23  44  1   
 47  23  45  1   
@<TRIPOS>SUBSTRUCTURE
  1 ****  10 GROUP 4 **** **** 0

# MOE 2024.06 (io_trps.svl 2023.06)
