@<TRIPOS>MOLECULE
N-(5-tert-Butyl-[1,3,4]thiadiazol-2-yl)-3-phenylsulfanyl-propionamide
40 41 1 0 0 
SMALL
USER_CHARGES


@<TRIPOS>ATOM
  1 S       -0.2120    -0.2650     0.6820 S.3   1 <1>  -0.0800 
  2 C       -1.7440    -0.2060    -0.1240 C.2   1 <1>   0.4420 
  3 C        0.2480     1.1420    -0.2250 C.2   1 <1>   0.1980 
  4 N       -1.8190     0.7730    -0.9490 N.2   1 <1>  -0.3380 
  5 N       -2.6560    -1.1840     0.2150 N.am  1 <1>  -0.4940 
  6 N       -0.6840     1.5340    -1.0000 N.2   1 <1>  -0.3380 
  7 C        1.6510     1.7350    -0.0090 C.3   1 <1>   0.1800 
  8 C       -3.9190    -1.3880    -0.2570 C.2   1 <1>   0.5690 
  9 C        2.7280     0.6990    -0.3670 C.3   1 <1>  -0.2400 
 10 C        1.8270     2.1670     1.4560 C.3   1 <1>  -0.2400 
 11 C        1.8550     2.9700    -0.9040 C.3   1 <1>  -0.2400 
 12 O       -4.4370    -0.7010    -1.0990 O.2   1 <1>  -0.5700 
 13 C       -4.6900    -2.5580     0.3240 C.3   1 <1>  -0.0990 
 14 C       -6.1600    -2.5570    -0.1020 C.3   1 <1>   0.0700 
 15 S       -6.9830    -4.0000     0.7040 S.3   1 <1>  -0.3310 
 16 C       -8.7070    -3.9610     0.1790 C.ar  1 <1>   0.1010 
 17 C       -9.1970    -2.9860    -0.6760 C.ar  1 <1>  -0.1500 
 18 C       -9.5350    -4.9550     0.6700 C.ar  1 <1>  -0.1500 
 19 C      -10.5330    -3.0140    -1.0400 C.ar  1 <1>  -0.1500 
 20 C      -10.8690    -4.9770     0.3030 C.ar  1 <1>  -0.1500 
 21 C      -11.3670    -4.0070    -0.5520 C.ar  1 <1>  -0.1500 
 22 H       -2.3290    -1.8420     0.9160 H     1 <1>   0.3700 
 23 H        2.6650    -0.1590     0.2780 H     1 <1>   0.0800 
 24 H        3.7100     1.1240    -0.2660 H     1 <1>   0.0800 
 25 H        2.6010     0.3700    -1.3830 H     1 <1>   0.0800 
 26 H        1.7560     1.3230     2.1170 H     1 <1>   0.0800 
 27 H        1.0640     2.8760     1.7260 H     1 <1>   0.0800 
 28 H        2.7870     2.6290     1.6010 H     1 <1>   0.0800 
 29 H        1.7460     2.7020    -1.9400 H     1 <1>   0.0800 
 30 H        2.8330     3.3930    -0.7600 H     1 <1>   0.0800 
 31 H        1.1210     3.7230    -0.6740 H     1 <1>   0.0800 
 32 H       -4.6410    -2.5100     1.3960 H     1 <1>   0.0800 
 33 H       -4.2310    -3.4710    -0.0060 H     1 <1>   0.0800 
 34 H       -6.2620    -2.6750    -1.1670 H     1 <1>   0.0800 
 35 H       -6.6660    -1.6670     0.2280 H     1 <1>   0.0800 
 36 H       -8.5660    -2.2110    -1.0640 H     1 <1>   0.1500 
 37 H       -9.1360    -5.7020     1.3320 H     1 <1>   0.1500 
 38 H      -10.9250    -2.2620    -1.7040 H     1 <1>   0.1500 
 39 H      -11.5190    -5.7480     0.6810 H     1 <1>   0.1500 
 40 H      -12.4050    -4.0240    -0.8370 H     1 <1>   0.1500 
@<TRIPOS>BOND
  1   1   2  1   
  2   1   3  1   
  3   2   4  2   
  4   2   5  1   
  5   3   6  2   
  6   3   7  1   
  7   4   6  1   
  8   5   8  am  
  9   5  22  1   
 10   7   9  1   
 11   7  10  1   
 12   7  11  1   
 13   8  12  2   
 14   8  13  1   
 15   9  23  1   
 16   9  24  1   
 17   9  25  1   
 18  10  26  1   
 19  10  27  1   
 20  10  28  1   
 21  11  29  1   
 22  11  30  1   
 23  11  31  1   
 24  13  14  1   
 25  13  32  1   
 26  13  33  1   
 27  14  15  1   
 28  14  34  1   
 29  14  35  1   
 30  15  16  1   
 31  16  17  ar  
 32  16  18  ar  
 33  17  19  ar  
 34  17  36  1   
 35  18  20  ar  
 36  18  37  1   
 37  19  21  ar  
 38  19  38  1   
 39  20  21  ar  
 40  20  39  1   
 41  21  40  1   
@<TRIPOS>SUBSTRUCTURE
  1 ****   8 GROUP 4 **** **** 0

# MOE 2024.06 (io_trps.svl 2023.06)
