@<TRIPOS>MOLECULE
4-tert-Butyl-N-(4H-[1,2,4]triazol-3-yl)-benzamide
34 35 1 0 0 
SMALL
USER_CHARGES


@<TRIPOS>ATOM
  1 O        0.1310     0.2240     0.0310 O.2   1 <1>  -0.5700 
  2 C        0.4450    -0.9470    -0.0180 C.2   1 <1>   0.5440 
  3 N        1.7910    -1.1700    -0.0620 N.am  1 <1>  -0.4940 
  4 C       -0.5760    -1.9830    -0.0040 C.ar  1 <1>   0.0860 
  5 C        2.5320    -2.3000    -0.4180 C.2   1 <1>   0.2500 
  6 C       -0.4480    -3.1610     0.7270 C.ar  1 <1>  -0.1500 
  7 C       -1.7610    -1.8140    -0.7150 C.ar  1 <1>  -0.1500 
  8 N        2.0820    -3.3560    -1.0150 N.2   1 <1>  -0.3380 
  9 N        3.8430    -2.4130    -0.1870 N.pl3 1 <1>   0.0330 
 10 C       -1.4410    -4.1240     0.7380 C.ar  1 <1>  -0.1500 
 11 C       -2.7570    -2.7720    -0.7050 C.ar  1 <1>  -0.1500 
 12 N        3.1140    -4.1940    -1.1760 N.2   1 <1>  -0.3380 
 13 C        4.1480    -3.6150    -0.6800 C.2   1 <1>   0.0370 
 14 C       -2.6210    -3.9500     0.0210 C.ar  1 <1>  -0.1430 
 15 C       -3.7570    -4.9960    -0.0020 C.3   1 <1>   0.1440 
 16 C       -3.9920    -5.4670    -1.4450 C.3   1 <1>  -0.2400 
 17 C       -3.4510    -6.2410     0.8480 C.3   1 <1>  -0.2400 
 18 C       -5.0460    -4.3650     0.5460 C.3   1 <1>  -0.2400 
 19 H        2.2940    -0.2900     0.0180 H     1 <1>   0.3700 
 20 H        0.4500    -3.3330     1.2940 H     1 <1>   0.1500 
 21 H       -1.9000    -0.9100    -1.2830 H     1 <1>   0.1500 
 22 H        4.4600    -1.7430     0.2700 H     1 <1>   0.2700 
 23 H       -1.2640    -5.0090     1.3190 H     1 <1>   0.1500 
 24 H       -3.6490    -2.5870    -1.2750 H     1 <1>   0.1500 
 25 H        5.1390    -4.0340    -0.6560 H     1 <1>   0.1500 
 26 H       -3.0830    -5.8760    -1.8490 H     1 <1>   0.0800 
 27 H       -4.3010    -4.6520    -2.0740 H     1 <1>   0.0800 
 28 H       -4.7540    -6.2240    -1.4800 H     1 <1>   0.0800 
 29 H       -3.3030    -5.9680     1.8780 H     1 <1>   0.0800 
 30 H       -2.5680    -6.7360     0.4860 H     1 <1>   0.0800 
 31 H       -4.2670    -6.9400     0.8030 H     1 <1>   0.0800 
 32 H       -4.8800    -4.0010     1.5440 H     1 <1>   0.0800 
 33 H       -5.8420    -5.0880     0.5730 H     1 <1>   0.0800 
 34 H       -5.3650    -3.5410    -0.0640 H     1 <1>   0.0800 
@<TRIPOS>BOND
  1   1   2  2   
  2   2   3  am  
  3   2   4  1   
  4   3   5  1   
  5   3  19  1   
  6   4   6  ar  
  7   4   7  ar  
  8   5   8  2   
  9   5   9  1   
 10   6  10  ar  
 11   6  20  1   
 12   7  11  ar  
 13   7  21  1   
 14   8  12  1   
 15   9  13  1   
 16   9  22  1   
 17  10  14  ar  
 18  10  23  1   
 19  11  14  ar  
 20  11  24  1   
 21  12  13  2   
 22  13  25  1   
 23  14  15  1   
 24  15  16  1   
 25  15  17  1   
 26  15  18  1   
 27  16  26  1   
 28  16  27  1   
 29  16  28  1   
 30  17  29  1   
 31  17  30  1   
 32  17  31  1   
 33  18  32  1   
 34  18  33  1   
 35  18  34  1   
@<TRIPOS>SUBSTRUCTURE
  1 ****   6 GROUP 4 **** **** 0

# MOE 2024.06 (io_trps.svl 2023.06)
