@<TRIPOS>MOLECULE
1-[4-(2,3-Dimethyl-phenyl)-piperazine-1-sulfonyl]-azepane
53 55 1 0 0 
SMALL
USER_CHARGES


@<TRIPOS>ATOM
  1 S        0.1590     0.2280    -1.5100 S.o2  1 <1>   1.5760 
  2 O        0.7220     1.5170    -1.8470 O.2   1 <1>  -0.6500 
  3 O       -0.4100    -0.6140    -2.5380 O.2   1 <1>  -0.6500 
  4 N       -0.9830     0.4120    -0.2790 N.am  1 <1>  -0.8490 
  5 N        1.3490    -0.6460    -0.6970 N.am  1 <1>  -0.8490 
  6 C       -1.9730     1.4330    -0.6350 C.3   1 <1>   0.1960 
  7 C       -1.5900    -0.8810     0.0570 C.3   1 <1>   0.1960 
  8 C        2.3700    -1.1300    -1.6390 C.3   1 <1>   0.1960 
  9 C        1.9940     0.1650     0.3540 C.3   1 <1>   0.1960 
 10 C       -2.5730     2.0560     0.6290 C.3   1 <1>  -0.1600 
 11 C       -2.4620    -0.8360     1.3180 C.3   1 <1>  -0.1600 
 12 C        3.4620    -1.9720    -0.9480 C.3   1 <1>   0.2090 
 13 C        3.0690    -0.6210     1.1300 C.3   1 <1>   0.2090 
 14 C       -3.8210     1.3510     1.1840 C.3   1 <1>  -0.1600 
 15 C       -3.8300    -0.1800     1.0820 C.3   1 <1>  -0.1600 
 16 N        4.0630    -1.2770     0.2280 N.pl3 1 <1>  -0.8380 
 17 C        5.3130    -0.6750     0.0700 C.ar  1 <1>   0.1000 
 18 C        6.4650    -1.2460     0.6210 C.ar  1 <1>  -0.1440 
 19 C        5.4210     0.5100    -0.6490 C.ar  1 <1>  -0.1500 
 20 C        7.7010    -0.6270     0.4430 C.ar  1 <1>  -0.1440 
 21 C        6.3110    -2.5490     1.4080 C.3   1 <1>  -0.0970 
 22 C        6.6430     1.1240    -0.8230 C.ar  1 <1>  -0.1500 
 23 C        7.7790     0.5550    -0.2780 C.ar  1 <1>  -0.1500 
 24 C        8.9910    -1.1990     1.0140 C.3   1 <1>  -0.0970 
 25 H       -2.7350     1.0270    -1.2800 H     1 <1>   0.0800 
 26 H       -1.4870     2.2300    -1.1710 H     1 <1>   0.0800 
 27 H       -0.8050    -1.5960     0.2390 H     1 <1>   0.0800 
 28 H       -2.1660    -1.2470    -0.7770 H     1 <1>   0.0800 
 29 H        2.8350    -0.2960    -2.1370 H     1 <1>   0.0800 
 30 H        1.9010    -1.7390    -2.3930 H     1 <1>   0.0800 
 31 H        1.2500     0.5030     1.0540 H     1 <1>   0.0800 
 32 H        2.4510     1.0370    -0.0790 H     1 <1>   0.0800 
 33 H       -2.8460     3.0720     0.4050 H     1 <1>   0.0800 
 34 H       -1.8100     2.1010     1.3870 H     1 <1>   0.0800 
 35 H       -1.9320    -0.3600     2.1240 H     1 <1>   0.0800 
 36 H       -2.6390    -1.8550     1.6130 H     1 <1>   0.0800 
 37 H        4.2360    -2.2050    -1.6590 H     1 <1>   0.0800 
 38 H        3.0300    -2.9000    -0.6170 H     1 <1>   0.0800 
 39 H        2.5880    -1.3790     1.7220 H     1 <1>   0.0800 
 40 H        3.5820     0.0450     1.8020 H     1 <1>   0.0800 
 41 H       -4.6920     1.7240     0.6710 H     1 <1>   0.0800 
 42 H       -3.9250     1.6310     2.2180 H     1 <1>   0.0800 
 43 H       -4.5270    -0.5560     1.8100 H     1 <1>   0.0800 
 44 H       -4.2020    -0.4730     0.1150 H     1 <1>   0.0800 
 45 H        4.5410     0.9520    -1.0740 H     1 <1>   0.1500 
 46 H        5.6040    -2.4030     2.2030 H     1 <1>   0.0800 
 47 H        7.2290    -2.8960     1.8390 H     1 <1>   0.0800 
 48 H        5.9330    -3.3140     0.7550 H     1 <1>   0.0800 
 49 H        6.7140     2.0400    -1.3810 H     1 <1>   0.1500 
 50 H        8.7270     1.0430    -0.4220 H     1 <1>   0.1500 
 51 H        9.1570    -2.1880     0.6270 H     1 <1>   0.0800 
 52 H        8.9300    -1.2430     2.0860 H     1 <1>   0.0800 
 53 H        9.8370    -0.5900     0.7510 H     1 <1>   0.0800 
@<TRIPOS>BOND
  1   1   2  2   
  2   1   3  2   
  3   1   4  am  
  4   1   5  am  
  5   4   6  1   
  6   4   7  1   
  7   5   8  1   
  8   5   9  1   
  9   6  10  1   
 10   6  25  1   
 11   6  26  1   
 12   7  11  1   
 13   7  27  1   
 14   7  28  1   
 15   8  12  1   
 16   8  29  1   
 17   8  30  1   
 18   9  13  1   
 19   9  31  1   
 20   9  32  1   
 21  10  14  1   
 22  10  33  1   
 23  10  34  1   
 24  11  15  1   
 25  11  35  1   
 26  11  36  1   
 27  12  16  1   
 28  12  37  1   
 29  12  38  1   
 30  13  16  1   
 31  13  39  1   
 32  13  40  1   
 33  14  15  1   
 34  14  41  1   
 35  14  42  1   
 36  15  43  1   
 37  15  44  1   
 38  16  17  1   
 39  17  18  ar  
 40  17  19  ar  
 41  18  20  ar  
 42  18  21  1   
 43  19  22  ar  
 44  19  45  1   
 45  20  23  ar  
 46  20  24  1   
 47  21  46  1   
 48  21  47  1   
 49  21  48  1   
 50  22  23  ar  
 51  22  49  1   
 52  23  50  1   
 53  24  51  1   
 54  24  52  1   
 55  24  53  1   
@<TRIPOS>SUBSTRUCTURE
  1 ****   9 GROUP 4 **** **** 0

# MOE 2024.06 (io_trps.svl 2023.06)
