@<TRIPOS>MOLECULE
3-Methyl-8-[4-(4-methyl-benzyl)-piperazin-1-yl]-7-propyl-3,7-dihydro-purine-2,6-
59 62 1 0 0 
SMALL
USER_CHARGES


@<TRIPOS>ATOM
  1 O        0.7110     0.0020     0.1100 O.2   1 <1>  -0.5740 
  2 C        1.7440     0.6180     0.2240 C.2   1 <1>   0.6870 
  3 N        2.9630    -0.0090     0.4380 N.am  1 <1>  -0.4410 
  4 N        1.7030     1.9780     0.1380 N.am  1 <1>  -0.4940 
  5 C        4.0890     0.7940     0.5400 C.2   1 <1>   0.4210 
  6 C        3.0480    -1.4960     0.5460 C.3   1 <1>   0.0530 
  7 C        2.8010     2.7810     0.2440 C.2   1 <1>   0.7000 
  8 N        5.3720     0.3880     0.7350 N.pl3 1 <1>  -0.7030 
  9 C        4.0730     2.1440     0.4590 C.2   1 <1>   0.2710 
 10 O        2.6510     3.9820     0.1520 O.2   1 <1>  -0.5740 
 11 C        6.1590     1.4640     0.7930 C.cat 1 <1>   1.0690 
 12 N        5.4150     2.5690     0.6150 N.pl3 1 <1>  -0.7670 
 13 N        7.5030     1.3650     0.9950 N.pl3 1 <1>  -0.5960 
 14 C        5.8050     3.9900     0.3750 C.3   1 <1>   0.3490 
 15 C        8.2910     0.1460     0.5960 C.3   1 <1>   0.1610 
 16 C        8.3180     2.3360     1.8070 C.3   1 <1>   0.1610 
 17 C        6.6250     4.0950    -0.9150 C.3   1 <1>  -0.1660 
 18 C        9.6280     0.5180    -0.0880 C.3   1 <1>   0.3380 
 19 C        9.6510     2.7120     1.1160 C.3   1 <1>   0.3380 
 20 C        7.1550     5.5180    -1.1260 C.3   1 <1>  -0.2460 
 21 N       10.4340     1.4950     0.7240 N.4   1 <1>  -0.9610 
 22 C       11.7030     1.8550     0.0230 C.3   1 <1>   0.4820 
 23 C       12.5140     0.5880    -0.1340 C.ar  1 <1>  -0.1500 
 24 C       13.1350     0.0130     0.9660 C.ar  1 <1>  -0.1560 
 25 C       12.6290    -0.0180    -1.3760 C.ar  1 <1>  -0.1560 
 26 C       13.8430    -1.1670     0.8250 C.ar  1 <1>  -0.1560 
 27 C       13.3380    -1.1970    -1.5120 C.ar  1 <1>  -0.1560 
 28 C       13.9430    -1.7800    -0.4110 C.ar  1 <1>  -0.1500 
 29 C       14.7230    -3.0740    -0.5630 C.3   1 <1>  -0.1030 
 30 H        0.7930     2.4100    -0.0160 H     1 <1>   0.3650 
 31 H        2.0660    -1.9380     0.5530 H     1 <1>   0.0730 
 32 H        3.5440    -1.7720     1.4590 H     1 <1>   0.0730 
 33 H        3.5900    -1.8930    -0.2950 H     1 <1>   0.0730 
 34 H        5.6570    -0.5750     0.8850 H     1 <1>   0.4450 
 35 H        6.3550     4.3780     1.2110 H     1 <1>   0.0730 
 36 H        4.9330     4.6120     0.2760 H     1 <1>   0.0730 
 37 H        7.7240    -0.4620    -0.0890 H     1 <1>   0.0730 
 38 H        8.4990    -0.4490     1.4700 H     1 <1>   0.0730 
 39 H        8.5470     1.8810     2.7560 H     1 <1>   0.0730 
 40 H        7.7660     3.2270     2.0270 H     1 <1>   0.0730 
 41 H        5.9980     3.8370    -1.7520 H     1 <1>   0.0730 
 42 H        7.4600     3.4220    -0.8960 H     1 <1>   0.0730 
 43 H        9.4190     0.9420    -1.0570 H     1 <1>   0.0730 
 44 H       10.2030    -0.3820    -0.2460 H     1 <1>   0.0730 
 45 H       10.2380     3.3190     1.7870 H     1 <1>   0.0730 
 46 H        9.4380     3.3030     0.2410 H     1 <1>   0.0730 
 47 H        6.3390     6.2190    -1.1920 H     1 <1>   0.0730 
 48 H        7.7120     5.5730    -2.0470 H     1 <1>   0.0730 
 49 H        7.8000     5.8190    -0.3200 H     1 <1>   0.0730 
 50 H       10.7500     0.9980     1.5690 H     1 <1>   0.4450 
 51 H       12.2650     2.5680     0.6050 H     1 <1>   0.0730 
 52 H       11.4940     2.2850    -0.9440 H     1 <1>   0.0730 
 53 H       13.0860     0.4690     1.9390 H     1 <1>   0.1440 
 54 H       12.1770     0.4140    -2.2530 H     1 <1>   0.1440 
 55 H       14.3250    -1.6080     1.6810 H     1 <1>   0.1440 
 56 H       13.4270    -1.6620    -2.4790 H     1 <1>   0.1440 
 57 H       15.7530    -2.8540    -0.7790 H     1 <1>   0.0730 
 58 H       14.3190    -3.6670    -1.3640 H     1 <1>   0.0730 
 59 H       14.6750    -3.6520     0.3430 H     1 <1>   0.0730 
@<TRIPOS>BOND
  1   1   2  2   
  2   2   3  am  
  3   2   4  am  
  4   3   5  1   
  5   3   6  1   
  6   4   7  am  
  7   4  30  1   
  8   5   8  1   
  9   5   9  2   
 10   6  31  1   
 11   6  32  1   
 12   6  33  1   
 13   7   9  1   
 14   7  10  2   
 15   8  11  ar  
 16   8  34  1   
 17   9  12  1   
 18  11  12  ar  
 19  11  13  ar  
 20  12  14  1   
 21  13  15  1   
 22  13  16  1   
 23  14  17  1   
 24  14  35  1   
 25  14  36  1   
 26  15  18  1   
 27  15  37  1   
 28  15  38  1   
 29  16  19  1   
 30  16  39  1   
 31  16  40  1   
 32  17  20  1   
 33  17  41  1   
 34  17  42  1   
 35  18  21  1   
 36  18  43  1   
 37  18  44  1   
 38  19  21  1   
 39  19  45  1   
 40  19  46  1   
 41  20  47  1   
 42  20  48  1   
 43  20  49  1   
 44  21  22  1   
 45  21  50  1   
 46  22  23  1   
 47  22  51  1   
 48  22  52  1   
 49  23  24  ar  
 50  23  25  ar  
 51  24  26  ar  
 52  24  53  1   
 53  25  27  ar  
 54  25  54  1   
 55  26  28  ar  
 56  26  55  1   
 57  27  28  ar  
 58  27  56  1   
 59  28  29  1   
 60  29  57  1   
 61  29  58  1   
 62  29  59  1   
@<TRIPOS>SUBSTRUCTURE
  1 ****  13 GROUP 4 **** **** 0

# MOE 2024.06 (io_trps.svl 2023.06)
