@<TRIPOS>MOLECULE
[(Thiophene-2-carbonyl)-amino]-acetic acid 2-oxo-2-(5,6,7,8-tetrahydro-naphthale
44 46 1 0 0 
SMALL
USER_CHARGES


@<TRIPOS>ATOM
  1 S        0.3410    -1.3230    -1.8270 S.3   1 <1>  -0.0800 
  2 C        0.8260    -1.1460    -0.1350 C.2   1 <1>  -0.0450 
  3 C       -1.1860    -2.0580    -1.3880 C.2   1 <1>  -0.1100 
  4 C        2.0930    -0.5400     0.1790 C.2   1 <1>   0.7150 
  5 C       -0.1630    -1.6400     0.6520 C.2   1 <1>  -0.1500 
  6 C       -1.2930    -2.1520    -0.0500 C.2   1 <1>  -0.1500 
  7 O        2.4330    -0.3590     1.3320 O.2   1 <1>  -0.5700 
  8 N        2.9290    -0.1150    -0.8090 N.am  1 <1>  -0.7300 
  9 C        4.2380     0.5910    -0.6190 C.3   1 <1>   0.2010 
 10 C        4.2070     2.0460    -1.1000 C.2   1 <1>   0.6590 
 11 O        4.6880     2.3340    -2.1620 O.2   1 <1>  -0.5700 
 12 O        3.6050     2.9810    -0.3720 O.3   1 <1>  -0.4300 
 13 C        3.4030     2.9250     1.0320 C.3   1 <1>   0.1810 
 14 C        2.5180     4.0770     1.4920 C.2   1 <1>   0.4230 
 15 O        3.0450     4.9330     2.1590 O.2   1 <1>  -0.5700 
 16 C        1.1070     4.0890     1.1520 C.ar  1 <1>   0.0860 
 17 C        0.4810     3.0750     0.4190 C.ar  1 <1>  -0.1500 
 18 C        0.2970     5.1460     1.5680 C.ar  1 <1>  -0.1500 
 19 C       -0.8720     3.0990     0.1250 C.ar  1 <1>  -0.1430 
 20 C       -1.0530     5.1860     1.2790 C.ar  1 <1>  -0.1500 
 21 C       -1.6500     4.1660     0.5580 C.ar  1 <1>  -0.1430 
 22 C       -1.4640     1.9510    -0.6850 C.3   1 <1>  -0.0170 
 23 C       -3.1460     4.2420     0.2780 C.3   1 <1>  -0.0170 
 24 C       -2.9940     1.8930    -0.6090 C.3   1 <1>  -0.1600 
 25 C       -3.5910     3.2850    -0.8340 C.3   1 <1>  -0.1600 
 26 H       -1.8500    -2.3480    -2.1830 H     1 <1>   0.1500 
 27 H       -0.1260    -1.6560     1.7280 H     1 <1>   0.1500 
 28 H       -2.1340    -2.5680     0.4790 H     1 <1>   0.1500 
 29 H        2.6290    -0.2460    -1.7790 H     1 <1>   0.3700 
 30 H        4.9890     0.0710    -1.1860 H     1 <1>   0.0800 
 31 H        4.5380     0.5560     0.4130 H     1 <1>   0.0800 
 32 H        4.3640     2.9960     1.5110 H     1 <1>   0.0800 
 33 H        2.9410     1.9970     1.2980 H     1 <1>   0.0800 
 34 H        1.0550     2.2430     0.0600 H     1 <1>   0.1500 
 35 H        0.7360     5.9510     2.1320 H     1 <1>   0.1500 
 36 H       -1.6430     6.0180     1.6210 H     1 <1>   0.1500 
 37 H       -1.0660     1.0170    -0.3340 H     1 <1>   0.0800 
 38 H       -1.1670     2.0740    -1.7120 H     1 <1>   0.0800 
 39 H       -3.4150     5.2480     0.0060 H     1 <1>   0.0800 
 40 H       -3.6700     3.9940     1.1840 H     1 <1>   0.0800 
 41 H       -3.2880     1.5300     0.3600 H     1 <1>   0.0800 
 42 H       -3.3640     1.2070    -1.3510 H     1 <1>   0.0800 
 43 H       -3.2610     3.6670    -1.7860 H     1 <1>   0.0800 
 44 H       -4.6650     3.2270    -0.8510 H     1 <1>   0.0800 
@<TRIPOS>BOND
  1   1   2  1   
  2   1   3  1   
  3   2   4  1   
  4   2   5  2   
  5   3   6  2   
  6   3  26  1   
  7   4   7  2   
  8   4   8  am  
  9   5   6  1   
 10   5  27  1   
 11   6  28  1   
 12   8   9  1   
 13   8  29  1   
 14   9  10  1   
 15   9  30  1   
 16   9  31  1   
 17  10  11  2   
 18  10  12  1   
 19  12  13  1   
 20  13  14  1   
 21  13  32  1   
 22  13  33  1   
 23  14  15  2   
 24  14  16  1   
 25  16  17  ar  
 26  16  18  ar  
 27  17  19  ar  
 28  17  34  1   
 29  18  20  ar  
 30  18  35  1   
 31  19  21  ar  
 32  19  22  1   
 33  20  21  ar  
 34  20  36  1   
 35  21  23  1   
 36  22  24  1   
 37  22  37  1   
 38  22  38  1   
 39  23  25  1   
 40  23  39  1   
 41  23  40  1   
 42  24  25  1   
 43  24  41  1   
 44  24  42  1   
 45  25  43  1   
 46  25  44  1   
@<TRIPOS>SUBSTRUCTURE
  1 ****  17 GROUP 4 **** **** 0

# MOE 2024.06 (io_trps.svl 2023.06)
