@<TRIPOS>MOLECULE
1-(5-Chloro-2-methoxy-benzenesulfonyl)-piperidine-4-carboxylic acid (pyridin-2-y
50 52 1 0 0 
SMALL
USER_CHARGES


@<TRIPOS>ATOM
  1 CL       2.8290     0.3320     1.8280 Cl    1 <1>  -0.1770 
  2 C        2.2490     1.9410     1.4840 C.ar  1 <1>   0.1770 
  3 C        2.6840     2.5910     0.3470 C.ar  1 <1>  -0.1500 
  4 C        1.3650     2.5410     2.3560 C.ar  1 <1>  -0.1500 
  5 C        2.2380     3.8730     0.0430 C.ar  1 <1>  -0.0090 
  6 C        0.9160     3.8190     2.0790 C.ar  1 <1>  -0.1500 
  7 S        2.8440     4.6880    -1.4640 S.o2  1 <1>   1.4470 
  8 C        1.3520     4.4860     0.9330 C.ar  1 <1>   0.0830 
  9 O        3.2620     3.6460    -2.3790 O.2   1 <1>  -0.6500 
 10 O        1.9580     5.7110    -1.9780 O.2   1 <1>  -0.6500 
 11 N        4.2650     5.4770    -0.9690 N.am  1 <1>  -0.8490 
 12 O        0.9390     5.7460     0.6550 O.3   1 <1>  -0.3630 
 13 C        3.9770     6.6540    -0.1430 C.3   1 <1>   0.1960 
 14 C        5.0890     5.8360    -2.1280 C.3   1 <1>   0.1960 
 15 C       -0.2300     6.2960     1.2240 C.3   1 <1>   0.0400 
 16 C        5.2770     7.2590     0.3920 C.3   1 <1>  -0.1600 
 17 C        6.4310     6.4130    -1.6710 C.3   1 <1>  -0.1600 
 18 C        6.2270     7.6330    -0.7570 C.3   1 <1>  -0.0190 
 19 C        7.5480     8.2000    -0.2470 C.2   1 <1>   0.5690 
 20 O        7.8390     9.3400    -0.5150 O.2   1 <1>  -0.5700 
 21 N        8.3650     7.4180     0.4960 N.am  1 <1>  -0.7300 
 22 C        9.6980     7.8060     1.0030 C.3   1 <1>   0.2840 
 23 C       10.6730     6.6470     0.8300 C.ar  1 <1>   0.1670 
 24 N       10.3500     5.5000     1.4200 N.ar  1 <1>  -0.6200 
 25 C       11.8260     6.8320     0.0800 C.ar  1 <1>  -0.1500 
 26 C       11.2140     4.5090     1.2590 C.ar  1 <1>   0.1600 
 27 C       12.7140     5.7900    -0.0780 C.ar  1 <1>  -0.1500 
 28 C       12.3900     4.5990     0.5340 C.ar  1 <1>  -0.1500 
 29 H        3.3760     2.0900    -0.3080 H     1 <1>   0.1500 
 30 H        1.0390     2.0140     3.2350 H     1 <1>   0.1500 
 31 H        0.2350     4.2810     2.7700 H     1 <1>   0.1500 
 32 H        3.3690     6.3710     0.6970 H     1 <1>   0.0800 
 33 H        3.4360     7.3880    -0.7180 H     1 <1>   0.0800 
 34 H        4.5650     6.5500    -2.7430 H     1 <1>   0.0800 
 35 H        5.2840     4.9600    -2.7260 H     1 <1>   0.0800 
 36 H       -0.4390     7.2230     0.7210 H     1 <1>   0.0800 
 37 H       -0.0600     6.4790     2.2700 H     1 <1>   0.0800 
 38 H       -1.0470     5.6110     1.0780 H     1 <1>   0.0800 
 39 H        5.7450     6.5460     1.0480 H     1 <1>   0.0800 
 40 H        5.0490     8.1370     0.9690 H     1 <1>   0.0800 
 41 H        7.0060     6.7020    -2.5330 H     1 <1>   0.0800 
 42 H        6.9760     5.6430    -1.1550 H     1 <1>   0.0800 
 43 H        5.7540     8.4050    -1.3390 H     1 <1>   0.0800 
 44 H        8.1470     6.4340     0.6750 H     1 <1>   0.3700 
 45 H        9.6190     8.0440     2.0490 H     1 <1>   0.0800 
 46 H       10.0510     8.6790     0.4820 H     1 <1>   0.0800 
 47 H       12.0290     7.7820    -0.3790 H     1 <1>   0.1500 
 48 H       10.9720     3.5730     1.7320 H     1 <1>   0.1500 
 49 H       13.6180     5.9010    -0.6530 H     1 <1>   0.1500 
 50 H       13.0390     3.7460     0.4510 H     1 <1>   0.1500 
@<TRIPOS>BOND
  1   1   2  1   
  2   2   3  ar  
  3   2   4  ar  
  4   3   5  ar  
  5   3  29  1   
  6   4   6  ar  
  7   4  30  1   
  8   5   7  1   
  9   5   8  ar  
 10   6   8  ar  
 11   6  31  1   
 12   7   9  2   
 13   7  10  2   
 14   7  11  am  
 15   8  12  1   
 16  11  13  1   
 17  11  14  1   
 18  12  15  1   
 19  13  16  1   
 20  13  32  1   
 21  13  33  1   
 22  14  17  1   
 23  14  34  1   
 24  14  35  1   
 25  15  36  1   
 26  15  37  1   
 27  15  38  1   
 28  16  18  1   
 29  16  39  1   
 30  16  40  1   
 31  17  18  1   
 32  17  41  1   
 33  17  42  1   
 34  18  19  1   
 35  18  43  1   
 36  19  20  2   
 37  19  21  am  
 38  21  22  1   
 39  21  44  1   
 40  22  23  1   
 41  22  45  1   
 42  22  46  1   
 43  23  24  ar  
 44  23  25  ar  
 45  24  26  ar  
 46  25  27  ar  
 47  25  47  1   
 48  26  28  ar  
 49  26  48  1   
 50  27  28  ar  
 51  27  49  1   
 52  28  50  1   
@<TRIPOS>SUBSTRUCTURE
  1 ****  11 GROUP 4 **** **** 0

# MOE 2024.06 (io_trps.svl 2023.06)
