@<TRIPOS>MOLECULE
3-[3-(4-Chloro-phenyl)-[1,2,4]oxadiazol-5-yl]-N,N-dimethyl-propionamide
33 34 1 0 0 
SMALL
USER_CHARGES


@<TRIPOS>ATOM
  1 CL       1.1510    -0.1890     1.8130 Cl    1 <1>  -0.1770 
  2 C        2.3200     0.9000     1.1120 C.ar  1 <1>   0.1770 
  3 C        2.5980     2.0970     1.7420 C.ar  1 <1>  -0.1500 
  4 C        2.9530     0.5530    -0.0640 C.ar  1 <1>  -0.1500 
  5 C        3.5260     2.9570     1.1810 C.ar  1 <1>  -0.1500 
  6 C        3.8800     1.4220    -0.6150 C.ar  1 <1>  -0.1500 
  7 C        4.1910     2.6430    -0.0090 C.ar  1 <1>   0.0540 
  8 C        5.1670     3.5470    -0.5980 C.2   1 <1>   0.4620 
  9 N        5.8200     3.3400    -1.6870 N.2   1 <1>  -0.4100 
 10 N        5.4930     4.7190    -0.0430 N.2   1 <1>  -0.5650 
 11 O        6.5900     4.3620    -1.8900 O.3   1 <1>  -0.0190 
 12 C        6.3480     5.1490    -0.8740 C.2   1 <1>   0.2980 
 13 C        7.0970     6.4620    -0.7760 C.3   1 <1>   0.0200 
 14 C        8.5760     6.2280    -0.4250 C.3   1 <1>  -0.0990 
 15 C        9.3740     7.5150    -0.2860 C.2   1 <1>   0.5690 
 16 O        8.8560     8.5470    -0.6440 O.2   1 <1>  -0.5700 
 17 N       10.6480     7.4840     0.2310 N.am  1 <1>  -0.6600 
 18 C       11.3830     6.2500     0.6280 C.3   1 <1>   0.0600 
 19 C       11.4220     8.7400     0.4470 C.3   1 <1>   0.0600 
 20 H        2.0930     2.3480     2.6580 H     1 <1>   0.1500 
 21 H        2.7220    -0.3830    -0.5390 H     1 <1>   0.1500 
 22 H        3.7400     3.8890     1.6760 H     1 <1>   0.1500 
 23 H        4.3720     1.1480    -1.5340 H     1 <1>   0.1500 
 24 H        6.6400     7.0710    -0.0160 H     1 <1>   0.0800 
 25 H        7.0160     6.9830    -1.7130 H     1 <1>   0.0800 
 26 H        9.0310     5.6300    -1.1930 H     1 <1>   0.0800 
 27 H        8.6240     5.6910     0.5040 H     1 <1>   0.0800 
 28 H       10.9420     5.3710     0.1950 H     1 <1>   0.0800 
 29 H       11.3760     6.1560     1.7000 H     1 <1>   0.0800 
 30 H       12.4040     6.3120     0.2900 H     1 <1>   0.0800 
 31 H       10.8210     9.6070     0.2330 H     1 <1>   0.0800 
 32 H       12.2810     8.7520    -0.2010 H     1 <1>   0.0800 
 33 H       11.7470     8.7970     1.4710 H     1 <1>   0.0800 
@<TRIPOS>BOND
  1   1   2  1   
  2   2   3  ar  
  3   2   4  ar  
  4   3   5  ar  
  5   3  20  1   
  6   4   6  ar  
  7   4  21  1   
  8   5   7  ar  
  9   5  22  1   
 10   6   7  ar  
 11   6  23  1   
 12   7   8  1   
 13   8   9  2   
 14   8  10  1   
 15   9  11  1   
 16  10  12  2   
 17  11  12  1   
 18  12  13  1   
 19  13  14  1   
 20  13  24  1   
 21  13  25  1   
 22  14  15  1   
 23  14  26  1   
 24  14  27  1   
 25  15  16  2   
 26  15  17  am  
 27  17  18  1   
 28  17  19  1   
 29  18  28  1   
 30  18  29  1   
 31  18  30  1   
 32  19  31  1   
 33  19  32  1   
 34  19  33  1   
@<TRIPOS>SUBSTRUCTURE
  1 ****  10 GROUP 4 **** **** 0

# MOE 2024.06 (io_trps.svl 2023.06)
