@<TRIPOS>MOLECULE
Diethyl-[2-(8-fluoro-5-propyl-5H-[1,2,4]triazino[5,6-b]indol-3-ylsulfanyl)-ethyl
50 52 1 0 0 
SMALL
USER_CHARGES


@<TRIPOS>ATOM
  1 S       -0.2790    -0.4180    -0.2360 S.3   1 <1>  -0.3320 
  2 C       -1.8940     0.3540    -0.2540 C.ar  1 <1>   0.7220 
  3 C        0.9040     0.9880    -0.0710 C.3   1 <1>   0.0700 
  4 N       -1.8920     1.7050    -0.1460 N.ar  1 <1>  -0.3100 
  5 N       -2.9140    -0.4530    -0.3670 N.ar  1 <1>  -0.5670 
  6 C        2.3120     0.3920    -0.0100 C.3   1 <1>   0.3430 
  7 N       -3.0210     2.3530    -0.1480 N.ar  1 <1>  -0.2560 
  8 C       -4.0650     0.2260    -0.3660 C.ar  1 <1>   0.1050 
  9 N        3.3760     1.4500     0.0630 N.4   1 <1>  -0.9590 
 10 C       -4.1250     1.6040    -0.2600 C.ar  1 <1>   0.2560 
 11 N       -5.3360    -0.2790    -0.4630 N.pl3 1 <1>   0.0480 
 12 C        4.7220     0.8660    -0.1990 C.3   1 <1>   0.3430 
 13 C        3.3490     2.1650     1.3700 C.3   1 <1>   0.3430 
 14 C       -5.4970     1.9680    -0.2990 C.ar  1 <1>   0.0000 
 15 C       -6.2260     0.7840    -0.4260 C.ar  1 <1>  -0.1520 
 16 C       -5.6710    -1.7150    -0.6030 C.3   1 <1>   0.0960 
 17 C        4.8820     0.5930    -1.6900 C.3   1 <1>  -0.2400 
 18 C        4.0430     3.5140     1.2270 C.3   1 <1>  -0.2400 
 19 C       -6.1610     3.1940    -0.2360 C.ar  1 <1>  -0.1500 
 20 C       -7.6230     0.8020    -0.4910 C.ar  1 <1>  -0.1500 
 21 C       -5.6620    -2.4390     0.7530 C.3   1 <1>  -0.1600 
 22 C       -7.5340     3.1850    -0.3030 C.ar  1 <1>   0.1900 
 23 C       -8.2790     2.0140    -0.4290 C.ar  1 <1>  -0.1500 
 24 C       -6.7160    -1.9080     1.7350 C.3   1 <1>  -0.2400 
 25 F       -8.1790     4.3220    -0.2460 F     1 <1>  -0.1900 
 26 H        0.6400     1.5110     0.8300 H     1 <1>   0.0800 
 27 H        0.7690     1.6140    -0.9360 H     1 <1>   0.0800 
 28 H        2.4550    -0.2070    -0.8940 H     1 <1>   0.0800 
 29 H        2.3850    -0.2600     0.8450 H     1 <1>   0.0800 
 30 H        3.1990     2.1430    -0.6760 H     1 <1>   0.4500 
 31 H        4.8520    -0.0450     0.3640 H     1 <1>   0.0800 
 32 H        5.4900     1.5590     0.1060 H     1 <1>   0.0800 
 33 H        3.8320     1.5740     2.1320 H     1 <1>   0.0800 
 34 H        2.3300     2.3380     1.6780 H     1 <1>   0.0800 
 35 H       -4.9440    -2.1680    -1.2530 H     1 <1>   0.0800 
 36 H       -6.6360    -1.8090    -1.0660 H     1 <1>   0.0800 
 37 H        4.1980    -0.1620    -2.0330 H     1 <1>   0.0800 
 38 H        5.8790     0.2350    -1.8750 H     1 <1>   0.0800 
 39 H        4.7450     1.4940    -2.2610 H     1 <1>   0.0800 
 40 H        5.0870     3.4030     0.9970 H     1 <1>   0.0800 
 41 H        3.9710     4.0460     2.1590 H     1 <1>   0.0800 
 42 H        3.5670     4.1120     0.4700 H     1 <1>   0.0800 
 43 H       -5.6100     4.1120    -0.1380 H     1 <1>   0.1500 
 44 H       -8.1780    -0.1140    -0.5860 H     1 <1>   0.1500 
 45 H       -4.6810    -2.3570     1.1930 H     1 <1>   0.0800 
 46 H       -5.8480    -3.4850     0.5810 H     1 <1>   0.0800 
 47 H       -9.3520     2.0740    -0.4750 H     1 <1>   0.1500 
 48 H       -6.5210    -0.8800     1.9870 H     1 <1>   0.0800 
 49 H       -6.6930    -2.4850     2.6420 H     1 <1>   0.0800 
 50 H       -7.7010    -1.9820     1.3090 H     1 <1>   0.0800 
@<TRIPOS>BOND
  1   1   2  1   
  2   1   3  1   
  3   2   4  ar  
  4   2   5  ar  
  5   3   6  1   
  6   3  26  1   
  7   3  27  1   
  8   4   7  ar  
  9   5   8  ar  
 10   6   9  1   
 11   6  28  1   
 12   6  29  1   
 13   7  10  ar  
 14   8  10  ar  
 15   8  11  1   
 16   9  12  1   
 17   9  13  1   
 18   9  30  1   
 19  10  14  1   
 20  11  15  1   
 21  11  16  1   
 22  12  17  1   
 23  12  31  1   
 24  12  32  1   
 25  13  18  1   
 26  13  33  1   
 27  13  34  1   
 28  14  15  ar  
 29  14  19  ar  
 30  15  20  ar  
 31  16  21  1   
 32  16  35  1   
 33  16  36  1   
 34  17  37  1   
 35  17  38  1   
 36  17  39  1   
 37  18  40  1   
 38  18  41  1   
 39  18  42  1   
 40  19  22  ar  
 41  19  43  1   
 42  20  23  ar  
 43  20  44  1   
 44  21  24  1   
 45  21  45  1   
 46  21  46  1   
 47  22  23  ar  
 48  22  25  1   
 49  23  47  1   
 50  24  48  1   
 51  24  49  1   
 52  24  50  1   
@<TRIPOS>SUBSTRUCTURE
  1 ****   2 GROUP 4 **** **** 0

# MOE 2024.06 (io_trps.svl 2023.06)
