@<TRIPOS>MOLECULE
2,2-Dimethyl-chroman-4-ylamine
29 30 1 0 0 
SMALL
USER_CHARGES


@<TRIPOS>ATOM
  1 O       -0.3420     0.2730     0.0250 O.3   1 <1>  -0.3630 
  2 C       -1.3920     1.0700    -0.2770 C.ar  1 <1>   0.0830 
  3 C        0.9800     0.7530    -0.0290 C.3   1 <1>   0.2800 
  4 C       -1.2790     2.4570    -0.2860 C.ar  1 <1>  -0.1440 
  5 C       -2.5930     0.4590    -0.5910 C.ar  1 <1>  -0.1500 
  6 C        1.0290     2.0950     0.7060 C.3   1 <1>  -0.1600 
  7 C        1.4040     0.8490    -1.5010 C.3   1 <1>  -0.2400 
  8 C        1.8460    -0.2830     0.6900 C.3   1 <1>  -0.2400 
  9 C       -2.3810     3.2180    -0.6640 C.ar  1 <1>  -0.1500 
 10 C        0.0420     3.0930     0.1020 C.3   1 <1>   0.5660 
 11 C       -3.6880     1.2250    -0.9430 C.ar  1 <1>  -0.1500 
 12 C       -3.5790     2.6030    -0.9860 C.ar  1 <1>  -0.1500 
 13 N       -0.2390     4.1190     1.1130 N.4   1 <1>  -0.8530 
 14 H       -2.6640    -0.6150    -0.5650 H     1 <1>   0.1500 
 15 H        2.0270     2.4920     0.6550 H     1 <1>   0.0800 
 16 H        0.7890     1.9080     1.7380 H     1 <1>   0.0800 
 17 H        0.7730     1.5120    -2.0630 H     1 <1>   0.0800 
 18 H        1.3550    -0.1250    -1.9580 H     1 <1>   0.0800 
 19 H        2.4190     1.1960    -1.5770 H     1 <1>   0.0800 
 20 H        1.5270    -0.4040     1.7100 H     1 <1>   0.0800 
 21 H        2.8780     0.0210     0.6890 H     1 <1>   0.0800 
 22 H        1.7760    -1.2350     0.1940 H     1 <1>   0.0800 
 23 H       -2.3380     4.2910    -0.7260 H     1 <1>   0.1500 
 24 H        0.4810     3.5390    -0.7770 H     1 <1>   0.0800 
 25 H       -4.6220     0.7480    -1.1900 H     1 <1>   0.1500 
 26 H       -4.4330     3.1930    -1.2750 H     1 <1>   0.1500 
 27 H       -0.7600     3.6730     1.8760 H     1 <1>   0.4500 
 28 H       -0.8360     4.8470     0.7150 H     1 <1>   0.4500 
 29 H        0.6210     4.5340     1.4800 H     1 <1>   0.4500 
@<TRIPOS>BOND
  1   1   2  1   
  2   1   3  1   
  3   2   4  ar  
  4   2   5  ar  
  5   3   6  1   
  6   3   7  1   
  7   3   8  1   
  8   4   9  ar  
  9   4  10  1   
 10   5  11  ar  
 11   5  14  1   
 12   6  10  1   
 13   6  15  1   
 14   6  16  1   
 15   7  17  1   
 16   7  18  1   
 17   7  19  1   
 18   8  20  1   
 19   8  21  1   
 20   8  22  1   
 21   9  12  ar  
 22   9  23  1   
 23  10  13  1   
 24  10  24  1   
 25  11  12  ar  
 26  11  25  1   
 27  12  26  1   
 28  13  27  1   
 29  13  28  1   
 30  13  29  1   
@<TRIPOS>SUBSTRUCTURE
  1 ****   2 GROUP 4 **** **** 0

# MOE 2024.06 (io_trps.svl 2023.06)
