@<TRIPOS>MOLECULE
1-(2-Ethanesulfonyl-benzoimidazol-1-yl)-propan-2-one
32 33 1 0 0 
SMALL
USER_CHARGES


@<TRIPOS>ATOM
  1 S       -0.3980    -0.5510    -0.9600 S.o2  1 <1>   1.2570 
  2 O       -0.2370    -1.9060    -1.4530 O.2   1 <1>  -0.6500 
  3 O        0.1770     0.5110    -1.7570 O.2   1 <1>  -0.6500 
  4 C       -2.1650    -0.2050    -0.6140 C.2   1 <1>   0.1240 
  5 C        0.3170    -0.4570     0.6880 C.3   1 <1>  -0.0550 
  6 N       -2.6320     0.9290    -0.1850 N.2   1 <1>  -0.5650 
  7 N       -3.1500    -1.1500    -0.7560 N.pl3 1 <1>   0.0480 
  8 C        1.8320    -0.7210     0.7410 C.3   1 <1>  -0.2400 
  9 C       -3.9680     0.7440    -0.0480 C.ar  1 <1>   0.2270 
 10 C       -4.3150    -0.5440    -0.3960 C.ar  1 <1>  -0.1520 
 11 C       -3.0350    -2.5830    -1.1300 C.3   1 <1>   0.1570 
 12 C       -4.9410     1.6480     0.3760 C.ar  1 <1>  -0.1500 
 13 C       -5.6470    -0.9680    -0.3240 C.ar  1 <1>  -0.1500 
 14 C       -2.3310    -3.3960    -0.0520 C.2   1 <1>   0.4480 
 15 C       -6.2540     1.2370     0.4460 C.ar  1 <1>  -0.1500 
 16 C       -6.6050    -0.0720     0.0960 C.ar  1 <1>  -0.1500 
 17 O       -2.0270    -2.9380     1.0090 O.2   1 <1>  -0.5700 
 18 C       -2.0060    -4.8330    -0.3940 C.3   1 <1>  -0.1790 
 19 H       -0.1750    -1.1670     1.3250 H     1 <1>   0.0800 
 20 H        0.1250     0.5200     1.0900 H     1 <1>   0.0800 
 21 H        2.0490    -1.7080     0.3710 H     1 <1>   0.0800 
 22 H        2.1870    -0.6440     1.7530 H     1 <1>   0.0800 
 23 H        2.3550    -0.0030     0.1330 H     1 <1>   0.0800 
 24 H       -2.4970    -2.6590    -2.0560 H     1 <1>   0.0800 
 25 H       -4.0160    -2.9870    -1.2840 H     1 <1>   0.0800 
 26 H       -4.6410     2.6450     0.6380 H     1 <1>   0.1500 
 27 H       -5.9230    -1.9730    -0.5880 H     1 <1>   0.1500 
 28 H       -7.0200     1.9200     0.7700 H     1 <1>   0.1500 
 29 H       -7.6370    -0.3700     0.1610 H     1 <1>   0.1500 
 30 H       -1.3270    -4.8630    -1.2270 H     1 <1>   0.0800 
 31 H       -2.9030    -5.3700    -0.6390 H     1 <1>   0.0800 
 32 H       -1.5360    -5.3080     0.4490 H     1 <1>   0.0800 
@<TRIPOS>BOND
  1   1   2  2   
  2   1   3  2   
  3   1   4  1   
  4   1   5  1   
  5   4   6  2   
  6   4   7  1   
  7   5   8  1   
  8   5  19  1   
  9   5  20  1   
 10   6   9  1   
 11   7  10  1   
 12   7  11  1   
 13   8  21  1   
 14   8  22  1   
 15   8  23  1   
 16   9  10  ar  
 17   9  12  ar  
 18  10  13  ar  
 19  11  14  1   
 20  11  24  1   
 21  11  25  1   
 22  12  15  ar  
 23  12  26  1   
 24  13  16  ar  
 25  13  27  1   
 26  14  17  2   
 27  14  18  1   
 28  15  16  ar  
 29  15  28  1   
 30  16  29  1   
 31  18  30  1   
 32  18  31  1   
 33  18  32  1   
@<TRIPOS>SUBSTRUCTURE
  1 ****   7 GROUP 4 **** **** 0

# MOE 2024.06 (io_trps.svl 2023.06)
