@<TRIPOS>MOLECULE
N-Cyclohexyl-4-[3-(3,4-dimethoxy-phenyl)-[1,2,4]oxadiazol-5-yl]-butyramide
54 56 1 0 0 
SMALL
USER_CHARGES


@<TRIPOS>ATOM
  1 O       -0.4320    -1.3180     1.7700 O.2   1 <1>  -0.5700 
  2 C       -1.4260    -1.8390     1.3330 C.2   1 <1>   0.5690 
  3 N       -1.4260    -3.1630     1.0550 N.am  1 <1>  -0.7300 
  4 C       -2.6560    -0.9820     1.0970 C.3   1 <1>  -0.0990 
  5 C       -2.5160    -4.0140     0.5430 C.3   1 <1>   0.2200 
  6 C       -2.6910    -0.4250    -0.3400 C.3   1 <1>  -0.1600 
  7 C       -3.0210    -4.9060     1.6820 C.3   1 <1>  -0.1600 
  8 C       -1.9920    -4.8500    -0.6270 C.3   1 <1>  -0.1600 
  9 C       -4.1170    -0.0920    -0.8060 C.3   1 <1>   0.0200 
 10 C       -4.0930    -5.8880     1.1880 C.3   1 <1>  -0.1600 
 11 C       -3.0650    -5.8270    -1.1320 C.3   1 <1>  -0.1600 
 12 C       -4.8930    -1.3630    -1.1030 C.2   1 <1>   0.2980 
 13 C       -3.5850    -6.7200     0.0030 C.3   1 <1>  -0.1600 
 14 O       -4.6840    -1.9680    -2.2430 O.3   1 <1>  -0.0190 
 15 N       -5.7210    -1.9300    -0.3280 N.2   1 <1>  -0.5650 
 16 N       -5.4390    -3.0190    -2.1840 N.2   1 <1>  -0.4100 
 17 C       -6.0500    -3.0050    -1.0520 C.2   1 <1>   0.4620 
 18 C       -6.9590    -4.0300    -0.5700 C.ar  1 <1>   0.0540 
 19 C       -7.5520    -3.9530     0.6890 C.ar  1 <1>  -0.1500 
 20 C       -7.2600    -5.1520    -1.3410 C.ar  1 <1>  -0.1500 
 21 C       -8.3980    -4.9350     1.1710 C.ar  1 <1>   0.0830 
 22 C       -8.0960    -6.1510    -0.8780 C.ar  1 <1>  -0.1500 
 23 O       -8.8960    -4.7070     2.4190 O.3   1 <1>  -0.3630 
 24 C       -8.6720    -6.0670     0.3870 C.ar  1 <1>   0.0830 
 25 C      -10.2250    -5.0610     2.7340 C.3   1 <1>   0.0400 
 26 O       -9.4700    -7.0590     0.8760 O.3   1 <1>  -0.3630 
 27 C       -9.6530    -8.2810     0.1950 C.3   1 <1>   0.0400 
 28 H       -0.5560    -3.6530     1.2660 H     1 <1>   0.3700 
 29 H       -2.6430    -0.1650     1.7950 H     1 <1>   0.0800 
 30 H       -3.5300    -1.5630     1.3180 H     1 <1>   0.0800 
 31 H       -3.3300    -3.4080     0.1860 H     1 <1>   0.0800 
 32 H       -2.2620    -1.1430    -1.0200 H     1 <1>   0.0800 
 33 H       -2.0780     0.4600    -0.3810 H     1 <1>   0.0800 
 34 H       -3.4380    -4.2900     2.4590 H     1 <1>   0.0800 
 35 H       -2.1990    -5.4640     2.0930 H     1 <1>   0.0800 
 36 H       -1.1290    -5.4110    -0.3130 H     1 <1>   0.0800 
 37 H       -1.7030    -4.1960    -1.4310 H     1 <1>   0.0800 
 38 H       -4.0780     0.5010    -1.7020 H     1 <1>   0.0800 
 39 H       -4.6300     0.4770    -0.0520 H     1 <1>   0.0800 
 40 H       -4.9670    -5.3380     0.8880 H     1 <1>   0.0800 
 41 H       -4.3820    -6.5430     1.9920 H     1 <1>   0.0800 
 42 H       -2.6550    -6.4400    -1.9150 H     1 <1>   0.0800 
 43 H       -3.8870    -5.2700    -1.5490 H     1 <1>   0.0800 
 44 H       -4.3830    -7.3420    -0.3650 H     1 <1>   0.0800 
 45 H       -2.7920    -7.3660     0.3380 H     1 <1>   0.0800 
 46 H       -7.3530    -3.1040     1.3190 H     1 <1>   0.1500 
 47 H       -6.8270    -5.2470    -2.3220 H     1 <1>   0.1500 
 48 H       -8.2830    -6.9880    -1.5210 H     1 <1>   0.1500 
 49 H      -10.5420    -4.4620     3.5680 H     1 <1>   0.0800 
 50 H      -10.2520    -6.1010     3.0050 H     1 <1>   0.0800 
 51 H      -10.8530    -4.8720     1.8820 H     1 <1>   0.0800 
 52 H      -10.2670    -8.9150     0.8090 H     1 <1>   0.0800 
 53 H       -8.6940    -8.7420     0.0400 H     1 <1>   0.0800 
 54 H      -10.1490    -8.0900    -0.7400 H     1 <1>   0.0800 
@<TRIPOS>BOND
  1   1   2  2   
  2   2   3  am  
  3   2   4  1   
  4   3   5  1   
  5   3  28  1   
  6   4   6  1   
  7   4  29  1   
  8   4  30  1   
  9   5   7  1   
 10   5   8  1   
 11   5  31  1   
 12   6   9  1   
 13   6  32  1   
 14   6  33  1   
 15   7  10  1   
 16   7  34  1   
 17   7  35  1   
 18   8  11  1   
 19   8  36  1   
 20   8  37  1   
 21   9  12  1   
 22   9  38  1   
 23   9  39  1   
 24  10  13  1   
 25  10  40  1   
 26  10  41  1   
 27  11  13  1   
 28  11  42  1   
 29  11  43  1   
 30  12  14  1   
 31  12  15  2   
 32  13  44  1   
 33  13  45  1   
 34  14  16  1   
 35  15  17  1   
 36  16  17  2   
 37  17  18  1   
 38  18  19  ar  
 39  18  20  ar  
 40  19  21  ar  
 41  19  46  1   
 42  20  22  ar  
 43  20  47  1   
 44  21  23  1   
 45  21  24  ar  
 46  22  24  ar  
 47  22  48  1   
 48  23  25  1   
 49  24  26  1   
 50  25  49  1   
 51  25  50  1   
 52  25  51  1   
 53  26  27  1   
 54  27  52  1   
 55  27  53  1   
 56  27  54  1   
@<TRIPOS>SUBSTRUCTURE
  1 ****  17 GROUP 4 **** **** 0

# MOE 2024.06 (io_trps.svl 2023.06)
