@<TRIPOS>MOLECULE
3-(2-Hydroxy-phenyl)-4,5-dihydro-isoxazole-5-carboxylic acid (3-morpholin-4-yl-p
48 50 1 0 0 
SMALL
USER_CHARGES


@<TRIPOS>ATOM
  1 O        1.8250    -3.6590     2.3230 O.2   1 <1>  -0.5700 
  2 C        0.7420    -3.3880     1.8530 C.2   1 <1>   0.5690 
  3 N        0.3610    -2.0850     1.7270 N.am  1 <1>  -0.7300 
  4 C       -0.1380    -4.5110     1.2880 C.3   1 <1>   0.2610 
  5 C        1.0970    -0.8950     2.1940 C.3   1 <1>   0.1400 
  6 O        0.1990    -4.6380    -0.0780 O.3   1 <1>  -0.2170 
  7 C       -1.6230    -4.1740     1.2070 C.3   1 <1>  -0.0990 
  8 C        1.8040    -0.2250     1.0100 C.3   1 <1>  -0.1600 
  9 N       -0.6300    -3.9780    -0.8560 N.2   1 <1>  -0.5130 
 10 C       -1.6720    -3.6560    -0.2080 C.2   1 <1>   0.3030 
 11 C        3.2310    -0.7270     0.7610 C.3   1 <1>   0.3430 
 12 C       -2.7970    -2.9000    -0.6890 C.ar  1 <1>   0.0860 
 13 N        3.3050    -2.1720     0.4230 N.4   1 <1>  -0.9590 
 14 C       -3.1960    -1.6930    -0.0970 C.ar  1 <1>   0.0820 
 15 C       -3.5270    -3.3530    -1.7870 C.ar  1 <1>  -0.1500 
 16 C        4.7270    -2.6520     0.4990 C.3   1 <1>   0.3430 
 17 C        2.6660    -2.5110    -0.9030 C.3   1 <1>   0.3430 
 18 O       -2.5020    -1.1680     0.9310 O.3   1 <1>  -0.5330 
 19 C       -4.3000    -0.9980    -0.5640 C.ar  1 <1>  -0.1500 
 20 C       -4.6260    -2.6580    -2.2580 C.ar  1 <1>  -0.1500 
 21 C        4.8890    -4.0900    -0.0210 C.3   1 <1>   0.1200 
 22 C        2.9940    -3.9440    -1.3730 C.3   1 <1>   0.1200 
 23 C       -5.0170    -1.4810    -1.6430 C.ar  1 <1>  -0.1500 
 24 O        4.3690    -4.1830    -1.3120 O.3   1 <1>  -0.5600 
 25 H       -0.5430    -1.8790     1.2740 H     1 <1>   0.3700 
 26 H        0.0530    -5.4430     1.7860 H     1 <1>   0.0800 
 27 H        1.8020    -1.1660     2.9640 H     1 <1>   0.0800 
 28 H        0.3860    -0.2100     2.6260 H     1 <1>   0.0800 
 29 H       -1.9320    -3.4690     1.9550 H     1 <1>   0.0800 
 30 H       -2.2140    -5.0670     1.2890 H     1 <1>   0.0800 
 31 H        1.8890     0.8210     1.2450 H     1 <1>   0.0800 
 32 H        1.2060    -0.2900     0.1190 H     1 <1>   0.0800 
 33 H        3.8110    -0.5470     1.6520 H     1 <1>   0.0800 
 34 H        3.6720    -0.1530    -0.0370 H     1 <1>   0.0800 
 35 H        2.7730    -2.6980     1.1490 H     1 <1>   0.4500 
 36 H       -3.2260    -4.2650    -2.2730 H     1 <1>   0.1500 
 37 H        5.0730    -2.6040     1.5180 H     1 <1>   0.0800 
 38 H        5.3560    -2.0120    -0.0970 H     1 <1>   0.0800 
 39 H        3.0170    -1.8270    -1.6570 H     1 <1>   0.0800 
 40 H        1.5950    -2.4050    -0.8320 H     1 <1>   0.0800 
 41 H       -2.9110    -0.3480     1.2750 H     1 <1>   0.4500 
 42 H       -4.6090    -0.0780    -0.1000 H     1 <1>   0.1500 
 43 H       -5.1780    -3.0310    -3.1040 H     1 <1>   0.1500 
 44 H        4.3810    -4.7940     0.6170 H     1 <1>   0.0800 
 45 H        5.9310    -4.3540    -0.0660 H     1 <1>   0.0800 
 46 H        2.6750    -4.0810    -2.3910 H     1 <1>   0.0800 
 47 H        2.5000    -4.6790    -0.7640 H     1 <1>   0.0800 
 48 H       -5.8760    -0.9440    -2.0100 H     1 <1>   0.1500 
@<TRIPOS>BOND
  1   1   2  2   
  2   2   3  am  
  3   2   4  1   
  4   3   5  1   
  5   3  25  1   
  6   4   6  1   
  7   4   7  1   
  8   4  26  1   
  9   5   8  1   
 10   5  27  1   
 11   5  28  1   
 12   6   9  1   
 13   7  10  1   
 14   7  29  1   
 15   7  30  1   
 16   8  11  1   
 17   8  31  1   
 18   8  32  1   
 19   9  10  2   
 20  10  12  1   
 21  11  13  1   
 22  11  33  1   
 23  11  34  1   
 24  12  14  ar  
 25  12  15  ar  
 26  13  16  1   
 27  13  17  1   
 28  13  35  1   
 29  14  18  1   
 30  14  19  ar  
 31  15  20  ar  
 32  15  36  1   
 33  16  21  1   
 34  16  37  1   
 35  16  38  1   
 36  17  22  1   
 37  17  39  1   
 38  17  40  1   
 39  18  41  1   
 40  19  23  ar  
 41  19  42  1   
 42  20  23  ar  
 43  20  43  1   
 44  21  24  1   
 45  21  44  1   
 46  21  45  1   
 47  22  24  1   
 48  22  46  1   
 49  22  47  1   
 50  23  48  1   
@<TRIPOS>SUBSTRUCTURE
  1 ****   9 GROUP 4 **** **** 0

# MOE 2024.06 (io_trps.svl 2023.06)
