@<TRIPOS>MOLECULE
Naphthalene-2-sulfonic acid (2-azepan-1-yl-2-oxo-ethyl)-methyl-amide
49 51 1 0 0 
SMALL
USER_CHARGES


@<TRIPOS>ATOM
  1 S       -0.8440    -1.0750    -1.2780 S.o2  1 <1>   1.4470 
  2 O       -0.0620    -1.8540    -2.2150 O.2   1 <1>  -0.6500 
  3 O       -2.2580    -0.9170    -1.5370 O.2   1 <1>  -0.6500 
  4 N       -0.7040    -1.8660     0.2200 N.am  1 <1>  -0.8490 
  5 C       -0.1060     0.5720    -1.0760 C.ar  1 <1>  -0.0090 
  6 C        0.6900    -2.2670     0.5650 C.3   1 <1>   0.2570 
  7 C       -1.6010    -3.0200     0.3110 C.3   1 <1>   0.1160 
  8 C       -0.2070     1.2880     0.0900 C.ar  1 <1>  -0.1500 
  9 C        0.5910     1.1600    -2.1470 C.ar  1 <1>  -0.1500 
 10 C        1.6210    -1.1150     0.9850 C.2   1 <1>   0.5690 
 11 C        0.3930     2.5510     0.2580 C.ar  1 <1>   0.0000 
 12 C        1.1730     2.3910    -2.0270 C.ar  1 <1>  -0.1500 
 13 O        1.4280    -0.6340     2.0800 O.2   1 <1>  -0.5700 
 14 N        2.6280    -0.6470     0.1730 N.am  1 <1>  -0.6600 
 15 C        1.0970     3.1170    -0.8230 C.ar  1 <1>   0.0000 
 16 C        0.3300     3.2620     1.4730 C.ar  1 <1>  -0.1500 
 17 C        3.0940    -1.2730    -1.0920 C.3   1 <1>   0.1400 
 18 C        3.3800     0.5860     0.5360 C.3   1 <1>   0.1400 
 19 C        1.7010     4.3790    -0.6540 C.ar  1 <1>  -0.1500 
 20 C        0.9300     4.4830     1.6120 C.ar  1 <1>  -0.1500 
 21 C        4.1120    -2.3860    -0.8230 C.3   1 <1>  -0.1600 
 22 C        4.7190     0.2480     1.1990 C.3   1 <1>  -0.1600 
 23 C        1.6220     5.0490     0.5350 C.ar  1 <1>  -0.1500 
 24 C        5.1170    -2.1260     0.3150 C.3   1 <1>  -0.1600 
 25 C        5.6450    -0.6830     0.3920 C.3   1 <1>  -0.1600 
 26 H        1.1230    -2.8300    -0.2400 H     1 <1>   0.0800 
 27 H        0.6530    -2.9240     1.4150 H     1 <1>   0.0800 
 28 H       -2.6220    -2.7060     0.1690 H     1 <1>   0.0800 
 29 H       -1.5280    -3.4750     1.2840 H     1 <1>   0.0800 
 30 H       -1.3560    -3.7490    -0.4440 H     1 <1>   0.0800 
 31 H       -0.7430     0.8710     0.9270 H     1 <1>   0.1500 
 32 H        0.6600     0.6150    -3.0740 H     1 <1>   0.1500 
 33 H        1.7010     2.8280    -2.8550 H     1 <1>   0.1500 
 34 H       -0.1990     2.8170     2.2970 H     1 <1>   0.1500 
 35 H        3.5540    -0.5190    -1.7080 H     1 <1>   0.0800 
 36 H        2.2690    -1.6660    -1.6540 H     1 <1>   0.0800 
 37 H        2.7930     1.1860     1.2120 H     1 <1>   0.0800 
 38 H        3.5460     1.1800    -0.3460 H     1 <1>   0.0800 
 39 H        2.2310     4.8100    -1.4840 H     1 <1>   0.1500 
 40 H        0.8780     5.0200     2.5430 H     1 <1>   0.1500 
 41 H        4.6580    -2.5520    -1.7350 H     1 <1>   0.0800 
 42 H        3.5840    -3.2980    -0.6110 H     1 <1>   0.0800 
 43 H        4.5210    -0.1850     2.1640 H     1 <1>   0.0800 
 44 H        5.2370     1.1740     1.3750 H     1 <1>   0.0800 
 45 H        2.0850     6.0120     0.6610 H     1 <1>   0.1500 
 46 H        5.9510    -2.7940     0.1810 H     1 <1>   0.0800 
 47 H        4.6610    -2.3830     1.2570 H     1 <1>   0.0800 
 48 H        6.5960    -0.7070     0.8950 H     1 <1>   0.0800 
 49 H        5.8160    -0.2880    -0.5940 H     1 <1>   0.0800 
@<TRIPOS>BOND
  1   1   2  2   
  2   1   3  2   
  3   1   4  am  
  4   1   5  1   
  5   4   6  1   
  6   4   7  1   
  7   5   8  ar  
  8   5   9  ar  
  9   6  10  1   
 10   6  26  1   
 11   6  27  1   
 12   7  28  1   
 13   7  29  1   
 14   7  30  1   
 15   8  11  ar  
 16   8  31  1   
 17   9  12  ar  
 18   9  32  1   
 19  10  13  2   
 20  10  14  am  
 21  11  15  ar  
 22  11  16  ar  
 23  12  15  ar  
 24  12  33  1   
 25  14  17  1   
 26  14  18  1   
 27  15  19  ar  
 28  16  20  ar  
 29  16  34  1   
 30  17  21  1   
 31  17  35  1   
 32  17  36  1   
 33  18  22  1   
 34  18  37  1   
 35  18  38  1   
 36  19  23  ar  
 37  19  39  1   
 38  20  23  ar  
 39  20  40  1   
 40  21  24  1   
 41  21  41  1   
 42  21  42  1   
 43  22  25  1   
 44  22  43  1   
 45  22  44  1   
 46  23  45  1   
 47  24  25  1   
 48  24  46  1   
 49  24  47  1   
 50  25  48  1   
 51  25  49  1   
@<TRIPOS>SUBSTRUCTURE
  1 ****  14 GROUP 4 **** **** 0

# MOE 2024.06 (io_trps.svl 2023.06)
