@<TRIPOS>MOLECULE
3-Benzyl-1,7-dimethyl-8-(tetrahydro-furan-2-ylmethyl)-1H,8H-imidazo[2,1-f]purine
53 57 1 0 0 
SMALL
USER_CHARGES


@<TRIPOS>ATOM
  1 O        1.3480    -0.9080     1.4280 O.2   1 <1>  -0.5740 
  2 C        2.0410     0.0870     1.3550 C.2   1 <1>   0.6870 
  3 N        1.4820     1.3440     1.5430 N.am  1 <1>  -0.4250 
  4 N        3.4010    -0.0380     1.1010 N.am  1 <1>  -0.4410 
  5 C        2.2650     2.4870     1.5800 C.2   1 <1>   0.7000 
  6 C        0.0030     1.4890     1.5090 C.3   1 <1>   0.2780 
  7 C        4.1730     1.1070     1.1100 C.2   1 <1>   0.4210 
  8 C        4.0150    -1.3770     0.8610 C.3   1 <1>   0.0530 
  9 O        1.7800     3.5770     1.8370 O.2   1 <1>  -0.5740 
 10 C        3.6600     2.3420     1.3300 C.2   1 <1>   0.2710 
 11 C       -0.4290     1.7340     0.0720 C.ar  1 <1>  -0.1500 
 12 N        5.5160     1.2140     0.9080 N.pl3 1 <1>  -0.7030 
 13 N        4.7390     3.2370     1.2440 N.pl3 1 <1>  -0.6330 
 14 C       -0.5830     3.0270    -0.4050 C.ar  1 <1>  -0.1570 
 15 C       -0.6660     0.6630    -0.7770 C.ar  1 <1>  -0.1570 
 16 C        5.8180     2.5090     0.9840 C.cat 1 <1>   1.0690 
 17 C        5.1480     4.5540     1.2930 C.2   1 <1>   0.2230 
 18 C       -0.9680     3.2460    -1.7170 C.ar  1 <1>  -0.1570 
 19 C       -1.0510     0.8820    -2.0880 C.ar  1 <1>  -0.1570 
 20 N        6.9150     3.2700     0.8650 N.pl3 1 <1>  -0.5720 
 21 C        6.4810     4.5740     1.0640 C.2   1 <1>   0.1580 
 22 C       -1.2020     2.1740    -2.5590 C.ar  1 <1>  -0.1570 
 23 C        8.3230     2.7970     0.6690 C.3   1 <1>   0.1610 
 24 C        7.4170     5.7680     1.0160 C.3   1 <1>  -0.1090 
 25 C        8.5120     1.8960    -0.5670 C.3   1 <1>   0.1930 
 26 O        7.7740     0.7180    -0.4500 O.3   1 <1>  -0.5640 
 27 C        9.9450     1.4190    -0.7530 C.3   1 <1>  -0.1670 
 28 C        8.3070    -0.2560    -1.2980 C.3   1 <1>   0.1130 
 29 C        9.7770     0.1020    -1.4920 C.3   1 <1>  -0.1670 
 30 H       -0.3060     2.3110     2.1320 H     1 <1>   0.0730 
 31 H       -0.4740     0.6030     1.8890 H     1 <1>   0.0730 
 32 H        3.2860    -2.0540     0.4480 H     1 <1>   0.0730 
 33 H        4.3740    -1.7830     1.7910 H     1 <1>   0.0730 
 34 H        4.8310    -1.2990     0.1650 H     1 <1>   0.0730 
 35 H        6.2140     0.5530     0.5390 H     1 <1>   0.4450 
 36 H       -0.4050     3.8710     0.2390 H     1 <1>   0.1430 
 37 H       -0.5530    -0.3480    -0.4220 H     1 <1>   0.1430 
 38 H        4.4630     5.3660     1.4880 H     1 <1>   0.1430 
 39 H       -1.0870     4.2520    -2.0820 H     1 <1>   0.1430 
 40 H       -1.2370     0.0470    -2.7410 H     1 <1>   0.1430 
 41 H       -1.5030     2.3440    -3.5780 H     1 <1>   0.1430 
 42 H        8.6410     2.2600     1.5470 H     1 <1>   0.0730 
 43 H        8.9730     3.6480     0.5630 H     1 <1>   0.0730 
 44 H        8.1770     5.6770     1.7710 H     1 <1>   0.0730 
 45 H        6.8720     6.6790     1.1900 H     1 <1>   0.0730 
 46 H        7.8870     5.8340     0.0510 H     1 <1>   0.0730 
 47 H        8.1830     2.4050    -1.4590 H     1 <1>   0.0730 
 48 H       10.4090     1.2440     0.2030 H     1 <1>   0.0730 
 49 H       10.5360     2.1260    -1.3080 H     1 <1>   0.0730 
 50 H        7.7740    -0.2200    -2.2340 H     1 <1>   0.0730 
 51 H        8.1850    -1.2230    -0.8400 H     1 <1>   0.0730 
 52 H       10.4200    -0.6610    -1.0900 H     1 <1>   0.0730 
 53 H        9.9880     0.2150    -2.5410 H     1 <1>   0.0730 
@<TRIPOS>BOND
  1   1   2  2   
  2   2   3  am  
  3   2   4  am  
  4   3   5  am  
  5   3   6  1   
  6   4   7  1   
  7   4   8  1   
  8   5   9  2   
  9   5  10  1   
 10   6  11  1   
 11   6  30  1   
 12   6  31  1   
 13   7  10  2   
 14   7  12  1   
 15   8  32  1   
 16   8  33  1   
 17   8  34  1   
 18  10  13  1   
 19  11  14  ar  
 20  11  15  ar  
 21  12  16  ar  
 22  12  35  1   
 23  13  16  ar  
 24  13  17  1   
 25  14  18  ar  
 26  14  36  1   
 27  15  19  ar  
 28  15  37  1   
 29  16  20  ar  
 30  17  21  2   
 31  17  38  1   
 32  18  22  ar  
 33  18  39  1   
 34  19  22  ar  
 35  19  40  1   
 36  20  21  1   
 37  20  23  1   
 38  21  24  1   
 39  22  41  1   
 40  23  25  1   
 41  23  42  1   
 42  23  43  1   
 43  24  44  1   
 44  24  45  1   
 45  24  46  1   
 46  25  26  1   
 47  25  27  1   
 48  25  47  1   
 49  26  28  1   
 50  27  29  1   
 51  27  48  1   
 52  27  49  1   
 53  28  29  1   
 54  28  50  1   
 55  28  51  1   
 56  29  52  1   
 57  29  53  1   
@<TRIPOS>SUBSTRUCTURE
  1 ****   7 GROUP 4 **** **** 0

# MOE 2024.06 (io_trps.svl 2023.06)
