@<TRIPOS>MOLECULE
4-[5-Fluoro-4-(4-phenyl-piperazin-1-yl)-pyrimidin-2-yl]-morpholine
47 50 1 0 0 
SMALL
USER_CHARGES


@<TRIPOS>ATOM
  1 F        0.8500     0.0940     1.9340 F     1 <1>  -0.1900 
  2 C        1.4610    -0.7910     1.1720 C.ar  1 <1>   0.1900 
  3 C        1.0310    -2.1130     1.1020 C.ar  1 <1>   0.4100 
  4 C        2.5430    -0.4020     0.4370 C.ar  1 <1>   0.1600 
  5 N        1.6800    -2.9670     0.3340 N.ar  1 <1>  -0.6200 
  6 N       -0.0710    -2.5970     1.7980 N.pl3 1 <1>  -0.8380 
  7 N        3.1890    -1.2500    -0.3390 N.ar  1 <1>  -0.6200 
  8 C        2.7180    -2.4980    -0.3520 C.ar  1 <1>   0.7200 
  9 C       -0.1680    -4.0560     2.1360 C.3   1 <1>   0.2090 
 10 C       -1.4180    -2.0010     1.5160 C.3   1 <1>   0.2090 
 11 N        3.3770    -3.4050    -1.1540 N.pl3 1 <1>  -0.8380 
 12 C       -0.9380    -4.8450     1.0580 C.3   1 <1>   0.2090 
 13 C       -2.1850    -2.8020     0.4440 C.3   1 <1>   0.2090 
 14 C        3.6320    -4.7960    -0.6720 C.3   1 <1>   0.2090 
 15 C        4.3690    -2.9830    -2.1900 C.3   1 <1>   0.2090 
 16 N       -2.2880    -4.2520     0.7960 N.pl3 1 <1>  -0.8380 
 17 C        5.1090    -4.9630    -0.2650 C.3   1 <1>   0.1200 
 18 C        5.8030    -3.2330    -1.6920 C.3   1 <1>   0.1200 
 19 C       -3.1330    -5.0070    -0.0070 C.ar  1 <1>   0.1000 
 20 O        5.9700    -4.5700    -1.3000 O.3   1 <1>  -0.5600 
 21 C       -4.3010    -5.5300     0.5300 C.ar  1 <1>  -0.1500 
 22 C       -2.8400    -5.2580    -1.3440 C.ar  1 <1>  -0.1500 
 23 C       -5.1610    -6.2860    -0.2460 C.ar  1 <1>  -0.1500 
 24 C       -3.6970    -6.0130    -2.1240 C.ar  1 <1>  -0.1500 
 25 C       -4.8590    -6.5290    -1.5760 C.ar  1 <1>  -0.1500 
 26 H        2.8880     0.6150     0.4840 H     1 <1>   0.1500 
 27 H       -0.6780    -4.1650     3.0760 H     1 <1>   0.0800 
 28 H        0.8170    -4.4730     2.2490 H     1 <1>   0.0800 
 29 H       -1.3130    -0.9850     1.1830 H     1 <1>   0.0800 
 30 H       -1.9940    -1.9920     2.4240 H     1 <1>   0.0800 
 31 H       -1.0580    -5.8650     1.3800 H     1 <1>   0.0800 
 32 H       -0.3620    -4.8460     0.1500 H     1 <1>   0.0800 
 33 H       -1.6760    -2.6980    -0.4980 H     1 <1>   0.0800 
 34 H       -3.1750    -2.3950     0.3370 H     1 <1>   0.0800 
 35 H        3.4000    -5.4900    -1.4610 H     1 <1>   0.0800 
 36 H        3.0070    -5.0370     0.1690 H     1 <1>   0.0800 
 37 H        4.2470    -1.9450    -2.4450 H     1 <1>   0.0800 
 38 H        4.2050    -3.5540    -3.0860 H     1 <1>   0.0800 
 39 H        5.3170    -5.9930    -0.0400 H     1 <1>   0.0800 
 40 H        5.3240    -4.3670     0.6050 H     1 <1>   0.0800 
 41 H        6.0230    -2.5950    -0.8530 H     1 <1>   0.0800 
 42 H        6.5100    -3.0300    -2.4770 H     1 <1>   0.0800 
 43 H       -4.5230    -5.3340     1.5620 H     1 <1>   0.1500 
 44 H       -1.9380    -4.8580    -1.7670 H     1 <1>   0.1500 
 45 H       -6.0620    -6.6840     0.1840 H     1 <1>   0.1500 
 46 H       -3.4600    -6.2000    -3.1570 H     1 <1>   0.1500 
 47 H       -5.5270    -7.1160    -2.1810 H     1 <1>   0.1500 
@<TRIPOS>BOND
  1   1   2  1   
  2   2   3  ar  
  3   2   4  ar  
  4   3   5  ar  
  5   3   6  1   
  6   4   7  ar  
  7   4  26  1   
  8   5   8  ar  
  9   6   9  1   
 10   6  10  1   
 11   7   8  ar  
 12   8  11  1   
 13   9  12  1   
 14   9  27  1   
 15   9  28  1   
 16  10  13  1   
 17  10  29  1   
 18  10  30  1   
 19  11  14  1   
 20  11  15  1   
 21  12  16  1   
 22  12  31  1   
 23  12  32  1   
 24  13  16  1   
 25  13  33  1   
 26  13  34  1   
 27  14  17  1   
 28  14  35  1   
 29  14  36  1   
 30  15  18  1   
 31  15  37  1   
 32  15  38  1   
 33  16  19  1   
 34  17  20  1   
 35  17  39  1   
 36  17  40  1   
 37  18  20  1   
 38  18  41  1   
 39  18  42  1   
 40  19  21  ar  
 41  19  22  ar  
 42  21  23  ar  
 43  21  43  1   
 44  22  24  ar  
 45  22  44  1   
 46  23  25  ar  
 47  23  45  1   
 48  24  25  ar  
 49  24  46  1   
 50  25  47  1   
@<TRIPOS>SUBSTRUCTURE
  1 ****   5 GROUP 4 **** **** 0

# MOE 2024.06 (io_trps.svl 2023.06)
