@<TRIPOS>MOLECULE
1-{2-[(4-Fluoro-benzenesulfonyl)-(4-methoxy-phenyl)-amino]-acetyl}-piperidine-4-
55 57 1 0 0 
SMALL
USER_CHARGES


@<TRIPOS>ATOM
  1 S        0.1840    -0.4310    -0.1150 S.o2  1 <1>   1.4470 
  2 O        0.5640    -0.0130    -1.4460 O.2   1 <1>  -0.6500 
  3 O        1.0120    -1.3430     0.6370 O.2   1 <1>  -0.6500 
  4 N        0.0260     1.0140     0.8310 N.am  1 <1>  -0.6930 
  5 C       -1.5190    -1.0610    -0.1030 C.ar  1 <1>  -0.0090 
  6 C       -0.9740     1.9510     0.5800 C.ar  1 <1>   0.1990 
  7 C        0.9660     1.2080     1.9850 C.3   1 <1>   0.2570 
  8 C       -2.4370    -0.6670    -1.0760 C.ar  1 <1>  -0.1500 
  9 C       -1.9540    -1.9230     0.9030 C.ar  1 <1>  -0.1500 
 10 C       -1.8870     2.2850     1.5750 C.ar  1 <1>  -0.1500 
 11 C       -1.0940     2.5630    -0.6630 C.ar  1 <1>  -0.1500 
 12 C        2.4640     1.0030     1.7010 C.2   1 <1>   0.5690 
 13 C       -3.7470    -1.1150    -1.0540 C.ar  1 <1>  -0.1500 
 14 C       -3.2600    -2.3830     0.9430 C.ar  1 <1>  -0.1500 
 15 C       -2.8960     3.2020     1.3390 C.ar  1 <1>  -0.1500 
 16 C       -2.1000     3.4800    -0.9050 C.ar  1 <1>  -0.1500 
 17 O        3.0940     0.4150     2.5510 O.2   1 <1>  -0.5700 
 18 N        3.0810     1.4780     0.5650 N.am  1 <1>  -0.6600 
 19 C       -4.1350    -1.9670    -0.0400 C.ar  1 <1>   0.1900 
 20 C       -3.0070     3.8060     0.0890 C.ar  1 <1>   0.0830 
 21 C        2.5110     2.4950    -0.3580 C.3   1 <1>   0.1400 
 22 C        4.3860     0.9150     0.1220 C.3   1 <1>   0.1400 
 23 F       -5.3680    -2.3930    -0.0090 F     1 <1>  -0.1900 
 24 O       -3.9670     4.7140    -0.2340 O.3   1 <1>  -0.3630 
 25 C        3.5090     3.6410    -0.5420 C.3   1 <1>  -0.1600 
 26 C        5.4050     2.0440    -0.0380 C.3   1 <1>  -0.1600 
 27 C       -4.9610     5.0810     0.6960 C.3   1 <1>   0.0400 
 28 C        4.8880     3.1320    -0.9990 C.3   1 <1>  -0.0190 
 29 C        5.8810     4.2790    -1.1580 C.2   1 <1>   0.5690 
 30 O        6.2740     4.5840    -2.2530 O.2   1 <1>  -0.5700 
 31 N        6.3120     4.9580    -0.0780 N.am  1 <1>  -0.8000 
 32 H        0.6880     0.5170     2.7610 H     1 <1>   0.0800 
 33 H        0.8450     2.2010     2.3770 H     1 <1>   0.0800 
 34 H       -2.1220     0.0010    -1.8610 H     1 <1>   0.1500 
 35 H       -1.2590    -2.2390     1.6650 H     1 <1>   0.1500 
 36 H       -1.8140     1.8150     2.5380 H     1 <1>   0.1500 
 37 H       -0.3990     2.3250    -1.4480 H     1 <1>   0.1500 
 38 H       -4.4550    -0.8090    -1.8040 H     1 <1>   0.1500 
 39 H       -3.5950    -3.0500     1.7170 H     1 <1>   0.1500 
 40 H       -3.5820     3.4320     2.1310 H     1 <1>   0.1500 
 41 H       -2.1900     3.9510    -1.8680 H     1 <1>   0.1500 
 42 H        1.5980     2.9010     0.0350 H     1 <1>   0.0800 
 43 H        2.2980     2.0310    -1.3070 H     1 <1>   0.0800 
 44 H        4.2450     0.4090    -0.8180 H     1 <1>   0.0800 
 45 H        4.7520     0.1930     0.8320 H     1 <1>   0.0800 
 46 H        3.6010     4.1700     0.3900 H     1 <1>   0.0800 
 47 H        3.1230     4.3300    -1.2720 H     1 <1>   0.0800 
 48 H        6.3260     1.6370    -0.4170 H     1 <1>   0.0800 
 49 H        5.6050     2.4610     0.9330 H     1 <1>   0.0800 
 50 H       -5.6140     5.7930     0.2230 H     1 <1>   0.0800 
 51 H       -4.4910     5.5320     1.5520 H     1 <1>   0.0800 
 52 H       -5.5190     4.2050     0.9760 H     1 <1>   0.0800 
 53 H        4.7680     2.6820    -1.9700 H     1 <1>   0.0800 
 54 H        6.9750     5.7230    -0.2020 H     1 <1>   0.3700 
 55 H        6.0270     4.7430     0.8770 H     1 <1>   0.3700 
@<TRIPOS>BOND
  1   1   2  2   
  2   1   3  2   
  3   1   4  am  
  4   1   5  1   
  5   4   6  1   
  6   4   7  1   
  7   5   8  ar  
  8   5   9  ar  
  9   6  10  ar  
 10   6  11  ar  
 11   7  12  1   
 12   7  32  1   
 13   7  33  1   
 14   8  13  ar  
 15   8  34  1   
 16   9  14  ar  
 17   9  35  1   
 18  10  15  ar  
 19  10  36  1   
 20  11  16  ar  
 21  11  37  1   
 22  12  17  2   
 23  12  18  am  
 24  13  19  ar  
 25  13  38  1   
 26  14  19  ar  
 27  14  39  1   
 28  15  20  ar  
 29  15  40  1   
 30  16  20  ar  
 31  16  41  1   
 32  18  21  1   
 33  18  22  1   
 34  19  23  1   
 35  20  24  1   
 36  21  25  1   
 37  21  42  1   
 38  21  43  1   
 39  22  26  1   
 40  22  44  1   
 41  22  45  1   
 42  24  27  1   
 43  25  28  1   
 44  25  46  1   
 45  25  47  1   
 46  26  28  1   
 47  26  48  1   
 48  26  49  1   
 49  27  50  1   
 50  27  51  1   
 51  27  52  1   
 52  28  29  1   
 53  28  53  1   
 54  29  30  2   
 55  29  31  am  
 56  31  54  1   
 57  31  55  1   
@<TRIPOS>SUBSTRUCTURE
  1 ****   4 GROUP 4 **** **** 0

# MOE 2024.06 (io_trps.svl 2023.06)
