@<TRIPOS>MOLECULE
2-[2-Methyl-4-(piperidine-1-sulfonyl)-phenoxy]-N-pyridin-3-ylmethyl-acetamide
53 55 1 0 0 
SMALL
USER_CHARGES


@<TRIPOS>ATOM
  1 S       -0.2920     0.5750    -1.1910 S.o2  1 <1>   1.4470 
  2 O       -0.6400    -0.2410    -2.3340 O.2   1 <1>  -0.6500 
  3 O       -0.8200     1.9200    -1.0960 O.2   1 <1>  -0.6500 
  4 N       -0.8100    -0.2520     0.1960 N.am  1 <1>  -0.8490 
  5 C        1.5100     0.5900    -1.0080 C.ar  1 <1>  -0.0090 
  6 C       -0.6340     0.5510     1.4110 C.3   1 <1>   0.1960 
  7 C       -2.1990    -0.6990     0.0600 C.3   1 <1>   0.1960 
  8 C        2.2370     1.7700    -1.1300 C.ar  1 <1>  -0.1500 
  9 C        2.2060    -0.5830    -0.7400 C.ar  1 <1>  -0.1500 
 10 C       -0.9630    -0.2860     2.6520 C.3   1 <1>  -0.1600 
 11 C       -2.5980    -1.5720     1.2550 C.3   1 <1>  -0.1600 
 12 C        3.6160     1.7960    -0.9940 C.ar  1 <1>  -0.1430 
 13 C        3.5810    -0.5810    -0.6030 C.ar  1 <1>  -0.1500 
 14 C       -2.3910    -0.8380     2.5850 C.3   1 <1>  -0.1600 
 15 C        4.2850     0.6020    -0.7410 C.ar  1 <1>   0.0820 
 16 C        4.3510     3.1230    -1.1190 C.3   1 <1>  -0.0970 
 17 O        5.6260     0.5610    -0.6190 O.3   1 <1>  -0.3630 
 18 C        6.3710     0.5920    -1.8310 C.3   1 <1>   0.1810 
 19 C        7.4030     1.7110    -1.8070 C.2   1 <1>   0.5690 
 20 O        7.8250     2.1400    -2.8530 O.2   1 <1>  -0.5700 
 21 N        7.8250     2.2040    -0.6150 N.am  1 <1>  -0.7300 
 22 C        8.8550     3.2400    -0.4360 C.3   1 <1>   0.2840 
 23 C        9.7360     2.8390     0.7300 C.ar  1 <1>  -0.1430 
 24 C       10.7210     1.8790     0.5540 C.ar  1 <1>   0.1600 
 25 C        9.5780     3.4110     1.9770 C.ar  1 <1>  -0.1500 
 26 N       11.5450     1.4550     1.4990 N.ar  1 <1>  -0.6200 
 27 C       10.4280     2.9810     2.9730 C.ar  1 <1>  -0.1500 
 28 C       11.3790     2.0170     2.6860 C.ar  1 <1>   0.1600 
 29 H       -1.2750     1.4180     1.3770 H     1 <1>   0.0800 
 30 H        0.3860     0.8900     1.4810 H     1 <1>   0.0800 
 31 H       -2.3100    -1.2800    -0.8410 H     1 <1>   0.0800 
 32 H       -2.8530     0.1560    -0.0110 H     1 <1>   0.0800 
 33 H        1.7040     2.6840    -1.3360 H     1 <1>   0.1500 
 34 H        1.6590    -1.5060    -0.6380 H     1 <1>   0.1500 
 35 H       -0.8510     0.3210     3.5320 H     1 <1>   0.0800 
 36 H       -0.2600    -1.0980     2.7190 H     1 <1>   0.0800 
 37 H       -2.0030    -2.4690     1.2380 H     1 <1>   0.0800 
 38 H       -3.6300    -1.8610     1.1560 H     1 <1>   0.0800 
 39 H        4.1110    -1.4930    -0.3930 H     1 <1>   0.1500 
 40 H       -3.0940    -0.0250     2.6570 H     1 <1>   0.0800 
 41 H       -2.5670    -1.5090     3.4080 H     1 <1>   0.0800 
 42 H        3.6700     3.9500    -1.0220 H     1 <1>   0.0800 
 43 H        4.8340     3.1900    -2.0770 H     1 <1>   0.0800 
 44 H        5.0930     3.2100    -0.3460 H     1 <1>   0.0800 
 45 H        5.7030     0.7380    -2.6610 H     1 <1>   0.0800 
 46 H        6.8660    -0.3540    -1.9390 H     1 <1>   0.0800 
 47 H        7.4240     1.8150     0.2440 H     1 <1>   0.3700 
 48 H        8.3790     4.1850    -0.2400 H     1 <1>   0.0800 
 49 H        9.4450     3.3360    -1.3320 H     1 <1>   0.0800 
 50 H       10.8360     1.4310    -0.4200 H     1 <1>   0.1500 
 51 H        8.8280     4.1580     2.1700 H     1 <1>   0.1500 
 52 H       10.3570     3.3870     3.9660 H     1 <1>   0.1500 
 53 H       12.0370     1.6900     3.4730 H     1 <1>   0.1500 
@<TRIPOS>BOND
  1   1   2  2   
  2   1   3  2   
  3   1   4  am  
  4   1   5  1   
  5   4   6  1   
  6   4   7  1   
  7   5   8  ar  
  8   5   9  ar  
  9   6  10  1   
 10   6  29  1   
 11   6  30  1   
 12   7  11  1   
 13   7  31  1   
 14   7  32  1   
 15   8  12  ar  
 16   8  33  1   
 17   9  13  ar  
 18   9  34  1   
 19  10  14  1   
 20  10  35  1   
 21  10  36  1   
 22  11  14  1   
 23  11  37  1   
 24  11  38  1   
 25  12  15  ar  
 26  12  16  1   
 27  13  15  ar  
 28  13  39  1   
 29  14  40  1   
 30  14  41  1   
 31  15  17  1   
 32  16  42  1   
 33  16  43  1   
 34  16  44  1   
 35  17  18  1   
 36  18  19  1   
 37  18  45  1   
 38  18  46  1   
 39  19  20  2   
 40  19  21  am  
 41  21  22  1   
 42  21  47  1   
 43  22  23  1   
 44  22  48  1   
 45  22  49  1   
 46  23  24  ar  
 47  23  25  ar  
 48  24  26  ar  
 49  24  50  1   
 50  25  27  ar  
 51  25  51  1   
 52  26  28  ar  
 53  27  28  ar  
 54  27  52  1   
 55  28  53  1   
@<TRIPOS>SUBSTRUCTURE
  1 ****  15 GROUP 4 **** **** 0

# MOE 2024.06 (io_trps.svl 2023.06)
