@<TRIPOS>MOLECULE
N-{4-[1-Acetyl-5-(2,5-dimethoxy-phenyl)-4,5-dihydro-1H-pyrazol-3-yl]-phenyl}-met
52 54 1 0 0 
SMALL
USER_CHARGES


@<TRIPOS>ATOM
  1 S       -0.0380     0.2970     0.6350 S.o2  1 <1>   1.3330 
  2 O        0.6820    -0.9450     0.7460 O.2   1 <1>  -0.6500 
  3 O        0.3240     1.2970    -0.3370 O.2   1 <1>  -0.6500 
  4 N       -1.6530    -0.1920     0.3300 N.am  1 <1>  -0.7570 
  5 C       -0.1650     1.0290     2.2520 C.3   1 <1>  -0.1350 
  6 C       -2.7650     0.5540    -0.0320 C.ar  1 <1>   0.1990 
  7 C       -2.7440     1.9360    -0.1820 C.ar  1 <1>  -0.1500 
  8 C       -3.9700    -0.1020    -0.2510 C.ar  1 <1>  -0.1500 
  9 C       -3.8880     2.6290    -0.5280 C.ar  1 <1>  -0.1500 
 10 C       -5.1120     0.5930    -0.6000 C.ar  1 <1>  -0.1500 
 11 C       -5.1080     1.9840    -0.7470 C.ar  1 <1>   0.0860 
 12 C       -6.2850     2.7430    -1.1070 C.2   1 <1>   0.3030 
 13 N       -6.3510     4.0090    -1.2370 N.2   1 <1>  -0.5120 
 14 C       -7.6070     2.0600    -1.3870 C.3   1 <1>  -0.0990 
 15 N       -7.6270     4.3870    -1.5860 N.am  1 <1>  -0.2980 
 16 C       -8.5540     3.2360    -1.5970 C.3   1 <1>   0.3640 
 17 C       -8.0400     5.6410    -1.9820 C.2   1 <1>   0.5690 
 18 C       -9.5970     3.2870    -0.4740 C.ar  1 <1>  -0.1430 
 19 O       -9.1520     5.8670    -2.3980 O.2   1 <1>  -0.5700 
 20 C       -7.0570     6.7870    -1.9100 C.3   1 <1>  -0.1790 
 21 C      -10.8080     2.6230    -0.6460 C.ar  1 <1>   0.0830 
 22 C       -9.3530     3.9630     0.7160 C.ar  1 <1>  -0.1500 
 23 O      -11.0010     1.9490    -1.8130 O.3   1 <1>  -0.3630 
 24 C      -11.7660     2.6530     0.3650 C.ar  1 <1>  -0.1500 
 25 C      -10.3110     3.9940     1.7250 C.ar  1 <1>   0.0830 
 26 C      -12.2970     1.5740    -2.2250 C.3   1 <1>   0.0400 
 27 C      -11.5140     3.3360     1.5400 C.ar  1 <1>  -0.1500 
 28 O      -10.1430     4.6390     2.9090 O.3   1 <1>  -0.3620 
 29 C       -9.0100     5.4470     3.1380 C.3   1 <1>   0.0400 
 30 H       -1.6890    -1.2040     0.2470 H     1 <1>   0.4200 
 31 H        0.8020     1.3490     2.5860 H     1 <1>   0.0800 
 32 H       -0.5520     0.3150     2.9520 H     1 <1>   0.0800 
 33 H       -0.8190     1.8790     2.2260 H     1 <1>   0.0800 
 34 H       -1.8330     2.4860    -0.0380 H     1 <1>   0.1500 
 35 H       -4.0120    -1.1710    -0.1460 H     1 <1>   0.1500 
 36 H       -3.8370     3.6990    -0.6380 H     1 <1>   0.1500 
 37 H       -6.0180     0.0360    -0.7580 H     1 <1>   0.1500 
 38 H       -7.9230     1.4500    -0.5610 H     1 <1>   0.0800 
 39 H       -7.5510     1.4680    -2.2810 H     1 <1>   0.0800 
 40 H       -9.0270     3.1840    -2.5620 H     1 <1>   0.0800 
 41 H       -7.5370     7.7030    -2.1980 H     1 <1>   0.0800 
 42 H       -6.2350     6.5930    -2.5730 H     1 <1>   0.0800 
 43 H       -6.6880     6.8800    -0.9060 H     1 <1>   0.0800 
 44 H       -8.4120     4.4610     0.8510 H     1 <1>   0.1500 
 45 H      -12.7070     2.1480     0.2600 H     1 <1>   0.1500 
 46 H      -12.2330     1.1990    -3.2300 H     1 <1>   0.0800 
 47 H      -12.9360     2.4400    -2.1990 H     1 <1>   0.0800 
 48 H      -12.6640     0.8040    -1.5710 H     1 <1>   0.0800 
 49 H      -12.2490     3.3640     2.3240 H     1 <1>   0.1500 
 50 H       -9.1120     5.8990     4.1070 H     1 <1>   0.0800 
 51 H       -8.9670     6.2100     2.3800 H     1 <1>   0.0800 
 52 H       -8.1300     4.8290     3.1130 H     1 <1>   0.0800 
@<TRIPOS>BOND
  1   1   2  2   
  2   1   3  2   
  3   1   4  am  
  4   1   5  1   
  5   4   6  1   
  6   4  30  1   
  7   5  31  1   
  8   5  32  1   
  9   5  33  1   
 10   6   7  ar  
 11   6   8  ar  
 12   7   9  ar  
 13   7  34  1   
 14   8  10  ar  
 15   8  35  1   
 16   9  11  ar  
 17   9  36  1   
 18  10  11  ar  
 19  10  37  1   
 20  11  12  1   
 21  12  13  2   
 22  12  14  1   
 23  13  15  1   
 24  14  16  1   
 25  14  38  1   
 26  14  39  1   
 27  15  16  1   
 28  15  17  am  
 29  16  18  1   
 30  16  40  1   
 31  17  19  2   
 32  17  20  1   
 33  18  21  ar  
 34  18  22  ar  
 35  20  41  1   
 36  20  42  1   
 37  20  43  1   
 38  21  23  1   
 39  21  24  ar  
 40  22  25  ar  
 41  22  44  1   
 42  23  26  1   
 43  24  27  ar  
 44  24  45  1   
 45  25  27  ar  
 46  25  28  1   
 47  26  46  1   
 48  26  47  1   
 49  26  48  1   
 50  27  49  1   
 51  28  29  1   
 52  29  50  1   
 53  29  51  1   
 54  29  52  1   
@<TRIPOS>SUBSTRUCTURE
  1 ****  12 GROUP 4 **** **** 0

# MOE 2024.06 (io_trps.svl 2023.06)
