@<TRIPOS>MOLECULE
3-Ethyl-6-(3,4,5-triethoxy-phenyl)-[1,2,4]triazolo[3,4-b][1,3,4]thiadiazole
47 49 1 0 0 
SMALL
USER_CHARGES


@<TRIPOS>ATOM
  1 S       -0.5330    -0.2810    -0.5310 S.3   1 <1>  -0.1970 
  2 C        0.4280     1.1750    -0.5080 C.2   1 <1>   0.2420 
  3 C       -2.0040     0.7120    -0.2950 C.2   1 <1>   0.5050 
  4 N        1.6740     1.4700    -0.6110 N.2   1 <1>  -0.3380 
  5 N       -0.3790     2.2040    -0.3380 N.pl3 1 <1>   0.5050 
  6 N       -1.7490     1.9710    -0.2160 N.2   1 <1>  -0.6520 
  7 C       -3.2920     0.0490    -0.2150 C.ar  1 <1>   0.0860 
  8 N        1.7100     2.8120    -0.5020 N.2   1 <1>  -0.3380 
  9 C        0.4880     3.2300    -0.3410 C.2   1 <1>   0.0060 
 10 C       -3.4490    -1.3340    -0.3310 C.ar  1 <1>  -0.1500 
 11 C       -4.4500     0.8020    -0.0100 C.ar  1 <1>  -0.1500 
 12 C        0.0280     4.6730    -0.1730 C.3   1 <1>   0.0200 
 13 C       -4.6870    -1.9440    -0.2460 C.ar  1 <1>   0.0830 
 14 C       -5.7080     0.2170     0.0710 C.ar  1 <1>   0.0830 
 15 C        1.1830     5.6810    -0.2070 C.3   1 <1>  -0.2400 
 16 O       -4.6790    -3.3000    -0.3660 O.3   1 <1>  -0.3630 
 17 C       -5.8340    -1.1670    -0.0590 C.ar  1 <1>   0.0830 
 18 O       -6.8410     0.9500     0.2750 O.3   1 <1>  -0.3630 
 19 C       -5.5210    -4.0850     0.4490 C.3   1 <1>   0.1200 
 20 O       -7.0640    -1.7410    -0.0010 O.3   1 <1>  -0.3630 
 21 C       -6.7980     2.3190     0.6030 C.3   1 <1>   0.1200 
 22 C       -4.9010    -5.4740     0.5680 C.3   1 <1>  -0.2400 
 23 C       -7.8530    -1.6320    -1.1610 C.3   1 <1>   0.1200 
 24 C       -8.2280     2.7820     0.8640 C.3   1 <1>  -0.2400 
 25 C       -9.1460    -2.4090    -0.9290 C.3   1 <1>  -0.2400 
 26 H       -2.6010    -1.9750    -0.4890 H     1 <1>   0.1500 
 27 H       -4.3410     1.8660     0.0810 H     1 <1>   0.1500 
 28 H       -0.4910     4.7640     0.7650 H     1 <1>   0.0800 
 29 H       -0.6670     4.9090    -0.9590 H     1 <1>   0.0800 
 30 H        1.8810     5.4720     0.5860 H     1 <1>   0.0800 
 31 H        0.8090     6.6810    -0.0840 H     1 <1>   0.0800 
 32 H        1.7030     5.6180    -1.1460 H     1 <1>   0.0800 
 33 H       -6.4890    -4.1430    -0.0180 H     1 <1>   0.0800 
 34 H       -5.6060    -3.6180     1.4150 H     1 <1>   0.0800 
 35 H       -6.3720     2.8570    -0.2260 H     1 <1>   0.0800 
 36 H       -6.1920     2.4410     1.4840 H     1 <1>   0.0800 
 37 H       -4.8120    -5.9230    -0.4040 H     1 <1>   0.0800 
 38 H       -5.5250    -6.0980     1.1800 H     1 <1>   0.0800 
 39 H       -3.9300    -5.4060     1.0250 H     1 <1>   0.0800 
 40 H       -7.3000    -2.0430    -1.9880 H     1 <1>   0.0800 
 41 H       -8.0600    -0.5910    -1.3420 H     1 <1>   0.0800 
 42 H       -8.8290     2.6410    -0.0160 H     1 <1>   0.0800 
 43 H       -8.2330     3.8260     1.1210 H     1 <1>   0.0800 
 44 H       -8.6520     2.2250     1.6810 H     1 <1>   0.0800 
 45 H       -8.9270    -3.4450    -0.7440 H     1 <1>   0.0800 
 46 H       -9.7720    -2.3400    -1.8000 H     1 <1>   0.0800 
 47 H       -9.6760    -1.9960    -0.0900 H     1 <1>   0.0800 
@<TRIPOS>BOND
  1   1   2  1   
  2   1   3  1   
  3   2   4  2   
  4   2   5  1   
  5   3   6  2   
  6   3   7  1   
  7   4   8  1   
  8   5   6  1   
  9   5   9  1   
 10   7  10  ar  
 11   7  11  ar  
 12   8   9  2   
 13   9  12  1   
 14  10  13  ar  
 15  10  26  1   
 16  11  14  ar  
 17  11  27  1   
 18  12  15  1   
 19  12  28  1   
 20  12  29  1   
 21  13  16  1   
 22  13  17  ar  
 23  14  17  ar  
 24  14  18  1   
 25  15  30  1   
 26  15  31  1   
 27  15  32  1   
 28  16  19  1   
 29  17  20  1   
 30  18  21  1   
 31  19  22  1   
 32  19  33  1   
 33  19  34  1   
 34  20  23  1   
 35  21  24  1   
 36  21  35  1   
 37  21  36  1   
 38  22  37  1   
 39  22  38  1   
 40  22  39  1   
 41  23  25  1   
 42  23  40  1   
 43  23  41  1   
 44  24  42  1   
 45  24  43  1   
 46  24  44  1   
 47  25  45  1   
 48  25  46  1   
 49  25  47  1   
@<TRIPOS>SUBSTRUCTURE
  1 ****   7 GROUP 4 **** **** 0

# MOE 2024.06 (io_trps.svl 2023.06)
