@<TRIPOS>MOLECULE
1-(5-Chloro-2-ethoxy-benzenesulfonyl)-piperidine-4-carboxylic acid (furan-2-ylme
51 53 1 0 0 
SMALL
USER_CHARGES


@<TRIPOS>ATOM
  1 CL       2.5250     0.2690     1.2280 Cl    1 <1>  -0.1770 
  2 C        1.9980     1.9250     1.0660 C.ar  1 <1>   0.1770 
  3 C        2.4520     2.6790     0.0010 C.ar  1 <1>  -0.1500 
  4 C        1.1370     2.4540     2.0070 C.ar  1 <1>  -0.1500 
  5 C        2.0480     4.0010    -0.1590 C.ar  1 <1>  -0.0090 
  6 C        0.7310     3.7680     1.8720 C.ar  1 <1>  -0.1500 
  7 S        2.6640     4.9690    -1.5660 S.o2  1 <1>   1.4470 
  8 C        1.1840     4.5300     0.8010 C.ar  1 <1>   0.0830 
  9 O        3.0780     4.0290    -2.5870 O.2   1 <1>  -0.6500 
 10 O        1.7640     6.0310    -1.9630 O.2   1 <1>  -0.6500 
 11 N        4.0820     5.7090    -0.9960 N.am  1 <1>  -0.8490 
 12 O        0.7900     5.8150     0.7300 O.3   1 <1>  -0.3630 
 13 C        3.7960     6.7860    -0.0410 C.3   1 <1>   0.1960 
 14 C        4.8920     6.2030    -2.1140 C.3   1 <1>   0.1960 
 15 C       -0.5250     6.0570     0.2850 C.3   1 <1>   0.1200 
 16 C        5.0980     7.3300     0.5500 C.3   1 <1>  -0.1600 
 17 C        6.2370     6.7240    -1.6070 C.3   1 <1>  -0.1600 
 18 C       -0.7040     7.5660     0.1540 C.3   1 <1>  -0.2400 
 19 C        6.0470     7.8280    -0.5530 C.3   1 <1>  -0.0190 
 20 C        7.3800     8.3110     0.0080 C.2   1 <1>   0.5690 
 21 O        7.7140     9.4570    -0.1710 O.2   1 <1>  -0.5700 
 22 N        8.1630     7.4440     0.6910 N.am  1 <1>  -0.7300 
 23 C        9.5070     7.7440     1.2070 C.3   1 <1>   0.3200 
 24 C       10.3520     6.4900     1.0920 C.2   1 <1>  -0.0400 
 25 O        9.9700     5.4000     1.7330 O.3   1 <1>  -0.2800 
 26 C       11.4940     6.2590     0.4080 C.2   1 <1>  -0.1500 
 27 C       10.8550     4.4570     1.4760 C.2   1 <1>  -0.0100 
 28 C       11.8250     4.9220     0.6610 C.2   1 <1>  -0.1500 
 29 H        3.1240     2.2290    -0.7090 H     1 <1>   0.1500 
 30 H        0.7980     1.8470     2.8280 H     1 <1>   0.1500 
 31 H        0.0720     4.2090     2.5990 H     1 <1>   0.1500 
 32 H        3.1960     6.4080     0.7670 H     1 <1>   0.0800 
 33 H        3.2480     7.5780    -0.5270 H     1 <1>   0.0800 
 34 H        4.3600     6.9830    -2.6350 H     1 <1>   0.0800 
 35 H        5.0800     5.4040    -2.8130 H     1 <1>   0.0800 
 36 H       -1.2150     5.6470     1.0010 H     1 <1>   0.0800 
 37 H       -0.6570     5.5760    -0.6700 H     1 <1>   0.0800 
 38 H        5.5650     6.5480     1.1220 H     1 <1>   0.0800 
 39 H        4.8720     8.1390     1.2210 H     1 <1>   0.0800 
 40 H        6.8030     7.1120    -2.4350 H     1 <1>   0.0800 
 41 H        6.7880     5.8980    -1.1910 H     1 <1>   0.0800 
 42 H       -0.5470     8.0440     1.1040 H     1 <1>   0.0800 
 43 H       -1.7010     7.7850    -0.1830 H     1 <1>   0.0800 
 44 H       -0.0070     7.9550    -0.5670 H     1 <1>   0.0800 
 45 H        5.5800     8.6690    -1.0360 H     1 <1>   0.0800 
 46 H        7.8880     6.4670     0.8100 H     1 <1>   0.3700 
 47 H        9.4370     8.0420     2.2390 H     1 <1>   0.0800 
 48 H        9.9510     8.5470     0.6420 H     1 <1>   0.0800 
 49 H       12.0570     6.9340    -0.2120 H     1 <1>   0.1500 
 50 H       10.7190     3.4830     1.9140 H     1 <1>   0.1500 
 51 H       12.6830     4.4050     0.2700 H     1 <1>   0.1500 
@<TRIPOS>BOND
  1   1   2  1   
  2   2   3  ar  
  3   2   4  ar  
  4   3   5  ar  
  5   3  29  1   
  6   4   6  ar  
  7   4  30  1   
  8   5   7  1   
  9   5   8  ar  
 10   6   8  ar  
 11   6  31  1   
 12   7   9  2   
 13   7  10  2   
 14   7  11  am  
 15   8  12  1   
 16  11  13  1   
 17  11  14  1   
 18  12  15  1   
 19  13  16  1   
 20  13  32  1   
 21  13  33  1   
 22  14  17  1   
 23  14  34  1   
 24  14  35  1   
 25  15  18  1   
 26  15  36  1   
 27  15  37  1   
 28  16  19  1   
 29  16  38  1   
 30  16  39  1   
 31  17  19  1   
 32  17  40  1   
 33  17  41  1   
 34  18  42  1   
 35  18  43  1   
 36  18  44  1   
 37  19  20  1   
 38  19  45  1   
 39  20  21  2   
 40  20  22  am  
 41  22  23  1   
 42  22  46  1   
 43  23  24  1   
 44  23  47  1   
 45  23  48  1   
 46  24  25  1   
 47  24  26  2   
 48  25  27  1   
 49  26  28  1   
 50  26  49  1   
 51  27  28  2   
 52  27  50  1   
 53  28  51  1   
@<TRIPOS>SUBSTRUCTURE
  1 ****  11 GROUP 4 **** **** 0

# MOE 2024.06 (io_trps.svl 2023.06)
