@<TRIPOS>MOLECULE
N-[6-(2,2-Dimethyl-propionylamino)-benzothiazol-2-yl]-butyramide
43 44 1 0 0 
SMALL
USER_CHARGES


@<TRIPOS>ATOM
  1 S       -0.2560     0.3880     0.6020 S.3   1 <1>  -0.0800 
  2 C       -0.1020    -1.3710     0.5930 C.2   1 <1>   0.4420 
  3 C        1.4800     0.5360     0.4510 C.ar  1 <1>   0.0400 
  4 N        1.1020    -1.7880     0.4910 N.2   1 <1>  -0.5650 
  5 N       -1.2840    -2.0690     0.6960 N.am  1 <1>  -0.4940 
  6 C        2.0060    -0.7410     0.4090 C.ar  1 <1>   0.2270 
  7 C        2.2440     1.6830     0.3820 C.ar  1 <1>  -0.1500 
  8 C       -1.5100    -3.4150     0.7040 C.2   1 <1>   0.5690 
  9 C        3.3820    -0.8690     0.2900 C.ar  1 <1>  -0.1500 
 10 C        3.6240     1.5520     0.2590 C.ar  1 <1>   0.1170 
 11 O       -0.6490    -4.2500     0.6100 O.2   1 <1>  -0.5700 
 12 C       -2.9500    -3.8750     0.8400 C.3   1 <1>  -0.0990 
 13 C        4.1740     0.2650     0.2180 C.ar  1 <1>  -0.1500 
 14 N        4.4940     2.6500     0.1890 N.am  1 <1>  -0.5470 
 15 C       -3.7630    -3.6420    -0.4440 C.3   1 <1>  -0.1600 
 16 C        4.2760     3.9630    -0.1410 C.2   1 <1>   0.5690 
 17 C       -5.2080    -4.1230    -0.2820 C.3   1 <1>  -0.2400 
 18 O        3.1890     4.3750    -0.4720 O.2   1 <1>  -0.5700 
 19 C        5.4900     4.9280    -0.0910 C.3   1 <1>   0.0610 
 20 C        5.0940     6.3690    -0.4730 C.3   1 <1>  -0.2400 
 21 C        6.5840     4.4660    -1.0740 C.3   1 <1>  -0.2400 
 22 C        6.0880     4.9670     1.3300 C.3   1 <1>  -0.2400 
 23 H       -2.1110    -1.4870     0.7670 H     1 <1>   0.3700 
 24 H        1.7690     2.6450     0.4260 H     1 <1>   0.1500 
 25 H        3.8060    -1.8560     0.2560 H     1 <1>   0.1500 
 26 H       -3.4050    -3.3590     1.6660 H     1 <1>   0.0800 
 27 H       -2.9470    -4.9250     1.0740 H     1 <1>   0.0800 
 28 H        5.2380     0.1500     0.1230 H     1 <1>   0.1500 
 29 H        5.4690     2.4340     0.3840 H     1 <1>   0.3700 
 30 H       -3.2990    -4.1790    -1.2570 H     1 <1>   0.0800 
 31 H       -3.7640    -2.5960    -0.6980 H     1 <1>   0.0800 
 32 H       -5.2320    -5.1750    -0.0580 H     1 <1>   0.0800 
 33 H       -5.7550    -3.9580    -1.1940 H     1 <1>   0.0800 
 34 H       -5.7000    -3.5890     0.5110 H     1 <1>   0.0800 
 35 H        5.9420     7.0290    -0.4340 H     1 <1>   0.0800 
 36 H        4.6880     6.3930    -1.4700 H     1 <1>   0.0800 
 37 H        4.3410     6.7400     0.2000 H     1 <1>   0.0800 
 38 H        6.1850     4.4200    -2.0730 H     1 <1>   0.0800 
 39 H        6.9570     3.4920    -0.8140 H     1 <1>   0.0800 
 40 H        7.4110     5.1540    -1.0720 H     1 <1>   0.0800 
 41 H        5.3380     5.2790     2.0360 H     1 <1>   0.0800 
 42 H        6.9070     5.6630     1.3780 H     1 <1>   0.0800 
 43 H        6.4510     4.0000     1.6280 H     1 <1>   0.0800 
@<TRIPOS>BOND
  1   1   2  1   
  2   1   3  1   
  3   2   4  2   
  4   2   5  1   
  5   3   6  ar  
  6   3   7  ar  
  7   4   6  1   
  8   5   8  am  
  9   5  23  1   
 10   6   9  ar  
 11   7  10  ar  
 12   7  24  1   
 13   8  11  2   
 14   8  12  1   
 15   9  13  ar  
 16   9  25  1   
 17  10  13  ar  
 18  10  14  1   
 19  12  15  1   
 20  12  26  1   
 21  12  27  1   
 22  13  28  1   
 23  14  16  am  
 24  14  29  1   
 25  15  17  1   
 26  15  30  1   
 27  15  31  1   
 28  16  18  2   
 29  16  19  1   
 30  17  32  1   
 31  17  33  1   
 32  17  34  1   
 33  19  20  1   
 34  19  21  1   
 35  19  22  1   
 36  20  35  1   
 37  20  36  1   
 38  20  37  1   
 39  21  38  1   
 40  21  39  1   
 41  21  40  1   
 42  22  41  1   
 43  22  42  1   
 44  22  43  1   
@<TRIPOS>SUBSTRUCTURE
  1 ****   3 GROUP 4 **** **** 0

# MOE 2024.06 (io_trps.svl 2023.06)
