@<TRIPOS>MOLECULE
3a-Methyl-decahydro-benzo[d]pyrrolo[1,2-a]imidazol-1-one
33 35 1 0 0 
SMALL
USER_CHARGES


@<TRIPOS>ATOM
  1 O        0.2520     0.6760    -0.0430 O.2   1 <1>  -0.5700 
  2 C       -0.3160     1.7330    -0.1150 C.2   1 <1>   0.5690 
  3 N        0.2480     2.9530    -0.0420 N.am  1 <1>  -0.6600 
  4 C       -1.7710     1.8620    -0.2140 C.3   1 <1>  -0.0990 
  5 C       -0.6160     4.1740    -0.0480 C.3   1 <1>   0.8030 
  6 C        1.6140     3.1440     0.5040 C.3   1 <1>   0.2200 
  7 C       -1.9150     3.3120     0.2390 C.3   1 <1>  -0.1600 
  8 N        0.5690     4.9440    -0.4120 N.4   1 <1>  -0.9060 
  9 C       -1.4560     5.5030     0.0140 C.3   1 <1>  -0.2400 
 10 C        1.6790     4.6540     0.5000 C.3   1 <1>   0.4230 
 11 C        2.6880     2.5070    -0.3990 C.3   1 <1>  -0.1600 
 12 C        2.9820     5.2610    -0.0410 C.3   1 <1>  -0.1600 
 13 C        4.1070     2.9720    -0.0220 C.3   1 <1>  -0.1600 
 14 C        4.1880     4.4410     0.4350 C.3   1 <1>  -0.1600 
 15 H       -2.2750     1.1690     0.4370 H     1 <1>   0.0800 
 16 H       -2.0760     1.7170    -1.2350 H     1 <1>   0.0800 
 17 H        1.6890     2.7590     1.5070 H     1 <1>   0.0800 
 18 H       -2.0910     3.3100     1.3030 H     1 <1>   0.0800 
 19 H       -2.8180     3.6600    -0.2410 H     1 <1>   0.0800 
 20 H        0.3800     5.9380    -0.5120 H     1 <1>   0.4500 
 21 H        0.8280     4.5590    -1.3210 H     1 <1>   0.4500 
 22 H       -2.2660     5.4920     0.7280 H     1 <1>   0.0800 
 23 H       -1.8950     5.6930    -0.9510 H     1 <1>   0.0800 
 24 H       -0.9370     6.3980     0.3250 H     1 <1>   0.0800 
 25 H        1.4740     5.0230     1.4930 H     1 <1>   0.0800 
 26 H        2.4980     2.7670    -1.4260 H     1 <1>   0.0800 
 27 H        2.6500     1.4340    -0.3230 H     1 <1>   0.0800 
 28 H        3.0800     6.2750     0.3050 H     1 <1>   0.0800 
 29 H        2.9860     5.2680    -1.1180 H     1 <1>   0.0800 
 30 H        4.7510     2.8260    -0.8740 H     1 <1>   0.0800 
 31 H        4.4910     2.3450     0.7670 H     1 <1>   0.0800 
 32 H        4.2330     4.4730     1.5120 H     1 <1>   0.0800 
 33 H        5.1010     4.8800     0.0680 H     1 <1>   0.0800 
@<TRIPOS>BOND
  1   1   2  2   
  2   2   3  am  
  3   2   4  1   
  4   3   5  1   
  5   3   6  1   
  6   4   7  1   
  7   4  15  1   
  8   4  16  1   
  9   5   7  1   
 10   5   8  1   
 11   5   9  1   
 12   6  10  1   
 13   6  11  1   
 14   6  17  1   
 15   7  18  1   
 16   7  19  1   
 17   8  10  1   
 18   8  20  1   
 19   8  21  1   
 20   9  22  1   
 21   9  23  1   
 22   9  24  1   
 23  10  12  1   
 24  10  25  1   
 25  11  13  1   
 26  11  26  1   
 27  11  27  1   
 28  12  14  1   
 29  12  28  1   
 30  12  29  1   
 31  13  14  1   
 32  13  30  1   
 33  13  31  1   
 34  14  32  1   
 35  14  33  1   
@<TRIPOS>SUBSTRUCTURE
  1 ****   3 GROUP 4 **** **** 0

# MOE 2024.06 (io_trps.svl 2023.06)
