@<TRIPOS>MOLECULE
Thiophene-2-carboxylic acid [2-(4-methanesulfonyl-piperazin-1-yl)-phenyl]-amide
43 45 1 0 0 
SMALL
USER_CHARGES


@<TRIPOS>ATOM
  1 S       -0.2800    -1.5010    -0.5450 S.o2  1 <1>   1.3330 
  2 O        0.3040    -1.3940    -1.8610 O.2   1 <1>  -0.6500 
  3 O       -1.0800    -2.6530    -0.1970 O.2   1 <1>  -0.6500 
  4 N       -1.2320    -0.1250    -0.2830 N.am  1 <1>  -0.8490 
  5 C        1.0280    -1.3110     0.6480 C.3   1 <1>  -0.1350 
  6 C       -1.9880     0.2380    -1.4980 C.3   1 <1>   0.1960 
  7 C       -2.1740    -0.2930     0.8420 C.3   1 <1>   0.1960 
  8 C       -2.8320     1.5180    -1.3240 C.3   1 <1>   0.2090 
  9 C       -3.0000     0.9790     1.1210 C.3   1 <1>   0.2090 
 10 N       -3.6950     1.5040    -0.0980 N.pl3 1 <1>  -0.8380 
 11 C       -5.0490     1.1450    -0.2650 C.ar  1 <1>   0.1000 
 12 C       -6.0570     2.1040    -0.0760 C.ar  1 <1>   0.1170 
 13 C       -5.4090    -0.1510    -0.6120 C.ar  1 <1>  -0.1500 
 14 N       -5.6280     3.3940     0.2700 N.am  1 <1>  -0.5470 
 15 C       -7.3880     1.7410    -0.2380 C.ar  1 <1>  -0.1500 
 16 C       -6.7390    -0.5020    -0.7710 C.ar  1 <1>  -0.1500 
 17 C       -6.2460     4.5800     0.5650 C.2   1 <1>   0.7150 
 18 C       -7.7290     0.4450    -0.5840 C.ar  1 <1>  -0.1500 
 19 O       -7.4600     4.6590     0.5630 O.2   1 <1>  -0.5700 
 20 C       -5.4150     5.7170     0.8750 C.2   1 <1>  -0.0450 
 21 S       -6.1820     7.2580     1.2830 S.3   1 <1>  -0.0800 
 22 C       -4.0660     5.8820     0.9280 C.2   1 <1>  -0.1500 
 23 C       -4.6400     8.0530     1.5080 C.2   1 <1>  -0.1100 
 24 C       -3.6310     7.1920     1.2840 C.2   1 <1>  -0.1500 
 25 H        1.5500    -0.3910     0.4750 H     1 <1>   0.0800 
 26 H        1.7230    -2.1220     0.5580 H     1 <1>   0.0800 
 27 H        0.6320    -1.3060     1.6430 H     1 <1>   0.0800 
 28 H       -2.6310    -0.5760    -1.7830 H     1 <1>   0.0800 
 29 H       -1.3020     0.4060    -2.3110 H     1 <1>   0.0800 
 30 H       -1.6290    -0.5460     1.7340 H     1 <1>   0.0800 
 31 H       -2.8520    -1.1040     0.6380 H     1 <1>   0.0800 
 32 H       -3.4520     1.6510    -2.1950 H     1 <1>   0.0800 
 33 H       -2.1680     2.3620    -1.2680 H     1 <1>   0.0800 
 34 H       -2.3450     1.7420     1.5020 H     1 <1>   0.0800 
 35 H       -3.7310     0.7650     1.8820 H     1 <1>   0.0800 
 36 H       -4.6520    -0.8950    -0.7610 H     1 <1>   0.1500 
 37 H       -4.6090     3.4060     0.3080 H     1 <1>   0.3700 
 38 H       -8.1700     2.4640    -0.0970 H     1 <1>   0.1500 
 39 H       -7.0020    -1.5100    -1.0410 H     1 <1>   0.1500 
 40 H       -8.7650     0.1780    -0.7060 H     1 <1>   0.1500 
 41 H       -3.3420     5.1120     0.7260 H     1 <1>   0.1500 
 42 H       -4.6520     9.0920     1.7870 H     1 <1>   0.1500 
 43 H       -2.5840     7.4320     1.3550 H     1 <1>   0.1500 
@<TRIPOS>BOND
  1   1   2  2   
  2   1   3  2   
  3   1   4  am  
  4   1   5  1   
  5   4   6  1   
  6   4   7  1   
  7   5  25  1   
  8   5  26  1   
  9   5  27  1   
 10   6   8  1   
 11   6  28  1   
 12   6  29  1   
 13   7   9  1   
 14   7  30  1   
 15   7  31  1   
 16   8  10  1   
 17   8  32  1   
 18   8  33  1   
 19   9  10  1   
 20   9  34  1   
 21   9  35  1   
 22  10  11  1   
 23  11  12  ar  
 24  11  13  ar  
 25  12  14  1   
 26  12  15  ar  
 27  13  16  ar  
 28  13  36  1   
 29  14  17  am  
 30  14  37  1   
 31  15  18  ar  
 32  15  38  1   
 33  16  18  ar  
 34  16  39  1   
 35  17  19  2   
 36  17  20  1   
 37  18  40  1   
 38  20  21  1   
 39  20  22  2   
 40  21  23  1   
 41  22  24  1   
 42  22  41  1   
 43  23  24  2   
 44  23  42  1   
 45  24  43  1   
@<TRIPOS>SUBSTRUCTURE
  1 ****  10 GROUP 4 **** **** 0

# MOE 2024.06 (io_trps.svl 2023.06)
