@<TRIPOS>MOLECULE
3-Methyl-7-[2-methyl-3-(pyrimidin-2-ylsulfanyl)-propyl]-8-pyrrolidin-1-yl-3,7-di
52 55 1 0 0 
SMALL
USER_CHARGES


@<TRIPOS>ATOM
  1 S       -1.7040     1.3390    -0.7780 S.3   1 <1>  -0.3380 
  2 C       -0.2460     2.3690    -0.7820 C.ar  1 <1>   0.7180 
  3 C       -1.4750     0.2100     0.6680 C.3   1 <1>   0.0620 
  4 N       -0.2170     3.2830    -1.7360 N.ar  1 <1>  -0.6240 
  5 N        0.6480     2.1050     0.1600 N.ar  1 <1>  -0.6240 
  6 C       -2.6250    -0.8100     0.7380 C.3   1 <1>  -0.0880 
  7 C        0.8580     4.0380    -1.7330 C.ar  1 <1>   0.1530 
  8 C        1.7090     2.8820     0.1310 C.ar  1 <1>   0.1530 
  9 C       -2.7760    -1.5540    -0.6040 C.3   1 <1>   0.3480 
 10 C       -3.9330    -0.1330     1.1880 C.3   1 <1>  -0.2470 
 11 C        1.8630     3.8760    -0.8070 C.ar  1 <1>  -0.1570 
 12 N       -3.6060    -2.7830    -0.4390 N.pl3 1 <1>  -0.7670 
 13 C       -3.2980    -3.9780     0.0920 C.cat 1 <1>   1.0690 
 14 C       -4.9860    -2.7990    -0.7320 C.2   1 <1>   0.2710 
 15 N       -4.4040    -4.7210     0.1660 N.pl3 1 <1>  -0.7040 
 16 N       -2.0990    -4.4430     0.5130 N.pl3 1 <1>  -0.5960 
 17 C       -5.9310    -1.8820    -1.3090 C.2   1 <1>   0.6990 
 18 C       -5.4440    -4.0090    -0.3390 C.2   1 <1>   0.4210 
 19 C       -0.7670    -3.8370     0.2480 C.3   1 <1>   0.1610 
 20 C       -1.9240    -5.7190     1.2580 C.3   1 <1>   0.1610 
 21 O       -5.6490    -0.7750    -1.7180 O.2   1 <1>  -0.5750 
 22 N       -7.2290    -2.2960    -1.4050 N.am  1 <1>  -0.4950 
 23 N       -6.7660    -4.4160    -0.4490 N.am  1 <1>  -0.4410 
 24 C        0.2520    -4.8830     0.6780 C.3   1 <1>  -0.1670 
 25 C       -0.4750    -5.7200     1.7200 C.3   1 <1>  -0.1670 
 26 C       -7.6700    -3.5210    -1.0000 C.2   1 <1>   0.6860 
 27 C       -7.2010    -5.7690     0.0080 C.3   1 <1>   0.0520 
 28 O       -8.8410    -3.7860    -1.1360 O.2   1 <1>  -0.5750 
 29 H       -1.4340     0.8280     1.5490 H     1 <1>   0.0720 
 30 H       -0.5270    -0.2780     0.5310 H     1 <1>   0.0720 
 31 H       -2.3500    -1.5190     1.4980 H     1 <1>   0.0720 
 32 H        0.9370     4.8040    -2.4870 H     1 <1>   0.1430 
 33 H        2.4730     2.7220     0.8730 H     1 <1>   0.1430 
 34 H       -1.8100    -1.8120    -0.9950 H     1 <1>   0.0720 
 35 H       -3.2300    -0.9020    -1.3320 H     1 <1>   0.0720 
 36 H       -4.2860     0.5560     0.4390 H     1 <1>   0.0720 
 37 H       -3.7730     0.4170     2.1000 H     1 <1>   0.0720 
 38 H       -4.7010    -0.8610     1.3740 H     1 <1>   0.0720 
 39 H        2.7350     4.5030    -0.8180 H     1 <1>   0.1430 
 40 H       -4.4370    -5.6700     0.5210 H     1 <1>   0.4450 
 41 H       -0.6450    -2.9510     0.8470 H     1 <1>   0.0720 
 42 H       -0.6430    -3.6020    -0.7960 H     1 <1>   0.0720 
 43 H       -2.0920    -6.5490     0.5920 H     1 <1>   0.0720 
 44 H       -2.5940    -5.7800     2.1000 H     1 <1>   0.0720 
 45 H       -7.9140    -1.6620    -1.8110 H     1 <1>   0.3640 
 46 H        1.1490    -4.4330     1.0690 H     1 <1>   0.0720 
 47 H        0.5150    -5.4950    -0.1680 H     1 <1>   0.0720 
 48 H       -0.0750    -6.7170     1.7940 H     1 <1>   0.0720 
 49 H       -0.4060    -5.2480     2.6860 H     1 <1>   0.0720 
 50 H       -6.9840    -5.8900     1.0540 H     1 <1>   0.0720 
 51 H       -6.6900    -6.5280    -0.5580 H     1 <1>   0.0720 
 52 H       -8.2610    -5.9000    -0.1330 H     1 <1>   0.0720 
@<TRIPOS>BOND
  1   1   2  1   
  2   1   3  1   
  3   2   4  ar  
  4   2   5  ar  
  5   3   6  1   
  6   3  29  1   
  7   3  30  1   
  8   4   7  ar  
  9   5   8  ar  
 10   6   9  1   
 11   6  10  1   
 12   6  31  1   
 13   7  11  ar  
 14   7  32  1   
 15   8  11  ar  
 16   8  33  1   
 17   9  12  1   
 18   9  34  1   
 19   9  35  1   
 20  10  36  1   
 21  10  37  1   
 22  10  38  1   
 23  11  39  1   
 24  12  13  ar  
 25  12  14  1   
 26  13  15  ar  
 27  13  16  ar  
 28  14  17  1   
 29  14  18  2   
 30  15  18  1   
 31  15  40  1   
 32  16  19  1   
 33  16  20  1   
 34  17  21  2   
 35  17  22  am  
 36  18  23  1   
 37  19  24  1   
 38  19  41  1   
 39  19  42  1   
 40  20  25  1   
 41  20  43  1   
 42  20  44  1   
 43  22  26  am  
 44  22  45  1   
 45  23  26  am  
 46  23  27  1   
 47  24  25  1   
 48  24  46  1   
 49  24  47  1   
 50  25  48  1   
 51  25  49  1   
 52  26  28  2   
 53  27  50  1   
 54  27  51  1   
 55  27  52  1   
@<TRIPOS>SUBSTRUCTURE
  1 ****   9 GROUP 4 **** **** 0

# MOE 2024.06 (io_trps.svl 2023.06)
