@<TRIPOS>MOLECULE
3-(2-Methyl-benzoylamino)-4-(4-methyl-piperazin-1-yl)-benzoic acid methyl ester
53 55 1 0 0 
SMALL
USER_CHARGES


@<TRIPOS>ATOM
  1 O        0.6350     0.7800     0.4940 O.2   1 <1>  -0.5700 
  2 C        0.9940    -0.3200     0.1240 C.2   1 <1>   0.6340 
  3 O        0.0640    -1.2100    -0.2410 O.3   1 <1>  -0.4300 
  4 C        2.3840    -0.7180     0.0570 C.ar  1 <1>   0.0860 
  5 C       -1.3160    -0.9020    -0.2060 C.3   1 <1>   0.0400 
  6 C        3.4020     0.1670     0.4150 C.ar  1 <1>  -0.1500 
  7 C        2.7820    -1.9870    -0.3630 C.ar  1 <1>  -0.1500 
  8 C        4.7480    -0.1570     0.3620 C.ar  1 <1>   0.1170 
  9 C        4.1150    -2.3390    -0.4150 C.ar  1 <1>  -0.1500 
 10 N        5.6440     0.8610     0.7490 N.am  1 <1>  -0.5470 
 11 C        5.1230    -1.4530    -0.0580 C.ar  1 <1>   0.1000 
 12 C        6.5070     1.5750    -0.0400 C.2   1 <1>   0.5440 
 13 N        6.4350    -1.9270    -0.1390 N.pl3 1 <1>  -0.8380 
 14 O        6.9950     1.0760    -1.0360 O.2   1 <1>  -0.5700 
 15 C        6.8650     2.9190     0.3590 C.ar  1 <1>   0.0860 
 16 C        7.3820    -1.8410     1.0170 C.3   1 <1>   0.2090 
 17 C        6.9720    -2.3300    -1.4800 C.3   1 <1>   0.2090 
 18 C        5.9630     3.9900     0.2940 C.ar  1 <1>  -0.1430 
 19 C        8.1500     3.1720     0.8410 C.ar  1 <1>  -0.1500 
 20 C        8.7330    -1.1670     0.6640 C.3   1 <1>   0.3430 
 21 C        8.4880    -2.0740    -1.6280 C.3   1 <1>   0.3430 
 22 C        6.3470     5.2500     0.7230 C.ar  1 <1>  -0.1500 
 23 C        4.5500     3.8130    -0.2520 C.3   1 <1>  -0.0970 
 24 C        8.5280     4.4320     1.2630 C.ar  1 <1>  -0.1500 
 25 N        8.9130    -0.9000    -0.8050 N.4   1 <1>  -0.9590 
 26 C        7.6230     5.4730     1.2070 C.ar  1 <1>  -0.1500 
 27 C       10.2520    -0.3630    -1.1660 C.3   1 <1>   0.2630 
 28 H       -1.8670    -1.7630    -0.5420 H     1 <1>   0.0800 
 29 H       -1.5020    -0.0650    -0.8570 H     1 <1>   0.0800 
 30 H       -1.5920    -0.6550     0.8040 H     1 <1>   0.0800 
 31 H        3.1150     1.1500     0.7420 H     1 <1>   0.1500 
 32 H        2.0360    -2.7090    -0.6500 H     1 <1>   0.1500 
 33 H        4.3820    -3.3310    -0.7310 H     1 <1>   0.1500 
 34 H        5.3330     1.3810     1.5720 H     1 <1>   0.3700 
 35 H        7.5760    -2.8390     1.3710 H     1 <1>   0.0800 
 36 H        6.9190    -1.3080     1.8290 H     1 <1>   0.0800 
 37 H        6.4540    -1.7670    -2.2380 H     1 <1>   0.0800 
 38 H        6.7670    -3.3720    -1.6520 H     1 <1>   0.0800 
 39 H        8.8620     2.3700     0.8850 H     1 <1>   0.1500 
 40 H        9.5310    -1.7950     1.0210 H     1 <1>   0.0800 
 41 H        8.7930    -0.2340     1.1990 H     1 <1>   0.0800 
 42 H        8.7100    -1.9020    -2.6680 H     1 <1>   0.0800 
 43 H        9.0270    -2.9510    -1.3130 H     1 <1>   0.0800 
 44 H        5.6550     6.0730     0.6790 H     1 <1>   0.1500 
 45 H        3.8960     3.4530     0.5200 H     1 <1>   0.0800 
 46 H        4.5370     3.1210    -1.0760 H     1 <1>   0.0800 
 47 H        4.1640     4.7510    -0.6100 H     1 <1>   0.0800 
 48 H        9.5240     4.6090     1.6340 H     1 <1>   0.1500 
 49 H        8.1830    -0.1780    -1.0170 H     1 <1>   0.4500 
 50 H        7.9100     6.4580     1.5350 H     1 <1>   0.1500 
 51 H       11.0180    -1.0930    -0.9620 H     1 <1>   0.0800 
 52 H       10.4600     0.5300    -0.5990 H     1 <1>   0.0800 
 53 H       10.2800    -0.1120    -2.2150 H     1 <1>   0.0800 
@<TRIPOS>BOND
  1   1   2  2   
  2   2   3  1   
  3   2   4  1   
  4   3   5  1   
  5   4   6  ar  
  6   4   7  ar  
  7   5  28  1   
  8   5  29  1   
  9   5  30  1   
 10   6   8  ar  
 11   6  31  1   
 12   7   9  ar  
 13   7  32  1   
 14   8  10  1   
 15   8  11  ar  
 16   9  11  ar  
 17   9  33  1   
 18  10  12  am  
 19  10  34  1   
 20  11  13  1   
 21  12  14  2   
 22  12  15  1   
 23  13  16  1   
 24  13  17  1   
 25  15  18  ar  
 26  15  19  ar  
 27  16  20  1   
 28  16  35  1   
 29  16  36  1   
 30  17  21  1   
 31  17  37  1   
 32  17  38  1   
 33  18  22  ar  
 34  18  23  1   
 35  19  24  ar  
 36  19  39  1   
 37  20  25  1   
 38  20  40  1   
 39  20  41  1   
 40  21  25  1   
 41  21  42  1   
 42  21  43  1   
 43  22  26  ar  
 44  22  44  1   
 45  23  45  1   
 46  23  46  1   
 47  23  47  1   
 48  24  26  ar  
 49  24  48  1   
 50  25  27  1   
 51  25  49  1   
 52  26  50  1   
 53  27  51  1   
 54  27  52  1   
 55  27  53  1   
@<TRIPOS>SUBSTRUCTURE
  1 ****  10 GROUP 4 **** **** 0

# MOE 2024.06 (io_trps.svl 2023.06)
