@<TRIPOS>MOLECULE
8-(3-Methoxy-propyl)-1,6,7-trimethyl-3-((E)-3-phenyl-allyl)-1H,8H-imidazo[2,1-f]
59 62 1 0 0 
SMALL
USER_CHARGES


@<TRIPOS>ATOM
  1 O        0.7800     0.4990    -3.3820 O.2   1 <1>  -0.5740 
  2 C        1.6170     1.1630    -2.8060 C.2   1 <1>   0.6870 
  3 N        1.3510     2.4810    -2.4590 N.am  1 <1>  -0.4250 
  4 N        2.8540     0.6030    -2.5090 N.am  1 <1>  -0.4410 
  5 C        2.3200     3.2910    -1.8900 C.2   1 <1>   0.7000 
  6 C       -0.0450     2.9790    -2.5360 C.3   1 <1>   0.2730 
  7 C        3.8120     1.4100    -1.9290 C.2   1 <1>   0.4210 
  8 C        3.1310    -0.8330    -2.8170 C.3   1 <1>   0.0540 
  9 O        2.0850     4.4620    -1.6390 O.2   1 <1>  -0.5740 
 10 C        3.5940     2.7110    -1.6140 C.2   1 <1>   0.2720 
 11 C       -0.6840     2.7830    -1.1770 C.2   1 <1>  -0.2940 
 12 N        5.0870     1.0670    -1.5830 N.pl3 1 <1>  -0.7030 
 13 N        4.7890     3.1820    -1.0430 N.pl3 1 <1>  -0.6320 
 14 C       -1.5380     1.7910    -0.8720 C.2   1 <1>  -0.1840 
 15 C        5.6360     2.1630    -1.0460 C.cat 1 <1>   1.0690 
 16 C        5.4440     4.2410    -0.4470 C.2   1 <1>   0.2350 
 17 C       -2.1810     1.5240     0.3960 C.ar  1 <1>   0.0220 
 18 N        6.8120     2.4870    -0.4980 N.pl3 1 <1>  -0.5710 
 19 C        6.6870     3.8140    -0.1120 C.2   1 <1>   0.1590 
 20 C        4.7500     5.5780    -0.2720 C.3   1 <1>  -0.1080 
 21 C       -2.1700     2.4370     1.4490 C.ar  1 <1>  -0.1560 
 22 C       -2.8430     0.3160     0.5980 C.ar  1 <1>  -0.1560 
 23 C        7.9790     1.5870    -0.3270 C.3   1 <1>   0.1620 
 24 C        7.8220     4.5590     0.5700 C.3   1 <1>  -0.1080 
 25 C       -2.7860     2.1520     2.6540 C.ar  1 <1>  -0.1560 
 26 C       -3.4620     0.0250     1.8000 C.ar  1 <1>  -0.1560 
 27 C        7.6620     0.5380     0.7400 C.3   1 <1>  -0.1660 
 28 C       -3.4340     0.9440     2.8330 C.ar  1 <1>  -0.1560 
 29 C        8.7330    -0.5530     0.7750 C.3   1 <1>   0.1140 
 30 O        8.1740    -1.6780     1.3630 O.3   1 <1>  -0.5640 
 31 C        8.3250    -1.7600     2.7460 C.3   1 <1>   0.0330 
 32 H       -0.0640     4.0200    -2.8090 H     1 <1>   0.0740 
 33 H       -0.5980     2.4380    -3.2860 H     1 <1>   0.0740 
 34 H        3.7480    -1.2710    -2.0540 H     1 <1>   0.0740 
 35 H        3.6260    -0.9110    -3.7700 H     1 <1>   0.0740 
 36 H        2.2120    -1.3930    -2.8620 H     1 <1>   0.0740 
 37 H       -0.3690     3.5270    -0.4660 H     1 <1>   0.1440 
 38 H        5.5400     0.1580    -1.6540 H     1 <1>   0.4460 
 39 H       -1.7980     1.0770    -1.6360 H     1 <1>   0.1440 
 40 H        4.4590     5.9690    -1.2300 H     1 <1>   0.0740 
 41 H        5.3970     6.2900     0.2050 H     1 <1>   0.0740 
 42 H        3.8680     5.4580     0.3310 H     1 <1>   0.0740 
 43 H       -1.6800     3.3840     1.3310 H     1 <1>   0.1440 
 44 H       -2.8730    -0.4090    -0.1950 H     1 <1>   0.1440 
 45 H        8.1890     1.1040    -1.2670 H     1 <1>   0.0740 
 46 H        8.8520     2.1490    -0.0410 H     1 <1>   0.0740 
 47 H        8.0970     4.0600     1.4820 H     1 <1>   0.0740 
 48 H        7.5320     5.5660     0.8110 H     1 <1>   0.0740 
 49 H        8.6800     4.6010    -0.0770 H     1 <1>   0.0740 
 50 H       -2.7630     2.8720     3.4530 H     1 <1>   0.1440 
 51 H       -3.9660    -0.9170     1.9330 H     1 <1>   0.1440 
 52 H        6.7210     0.0670     0.5200 H     1 <1>   0.0740 
 53 H        7.6020     1.0090     1.7050 H     1 <1>   0.0740 
 54 H       -3.9140     0.7200     3.7690 H     1 <1>   0.1440 
 55 H        9.6150    -0.2480     1.3140 H     1 <1>   0.0740 
 56 H        9.0160    -0.8390    -0.2230 H     1 <1>   0.0740 
 57 H        7.8400    -2.6590     3.0830 H     1 <1>   0.0740 
 58 H        7.8670    -0.9050     3.2120 H     1 <1>   0.0740 
 59 H        9.3740    -1.8060     2.9860 H     1 <1>   0.0740 
@<TRIPOS>BOND
  1   1   2  2   
  2   2   3  am  
  3   2   4  am  
  4   3   5  am  
  5   3   6  1   
  6   4   7  1   
  7   4   8  1   
  8   5   9  2   
  9   5  10  1   
 10   6  11  1   
 11   6  32  1   
 12   6  33  1   
 13   7  10  2   
 14   7  12  1   
 15   8  34  1   
 16   8  35  1   
 17   8  36  1   
 18  10  13  1   
 19  11  14  2   
 20  11  37  1   
 21  12  15  ar  
 22  12  38  1   
 23  13  15  ar  
 24  13  16  1   
 25  14  17  1   
 26  14  39  1   
 27  15  18  ar  
 28  16  19  2   
 29  16  20  1   
 30  17  21  ar  
 31  17  22  ar  
 32  18  19  1   
 33  18  23  1   
 34  19  24  1   
 35  20  40  1   
 36  20  41  1   
 37  20  42  1   
 38  21  25  ar  
 39  21  43  1   
 40  22  26  ar  
 41  22  44  1   
 42  23  27  1   
 43  23  45  1   
 44  23  46  1   
 45  24  47  1   
 46  24  48  1   
 47  24  49  1   
 48  25  28  ar  
 49  25  50  1   
 50  26  28  ar  
 51  26  51  1   
 52  27  29  1   
 53  27  52  1   
 54  27  53  1   
 55  28  54  1   
 56  29  30  1   
 57  29  55  1   
 58  29  56  1   
 59  30  31  1   
 60  31  57  1   
 61  31  58  1   
 62  31  59  1   
@<TRIPOS>SUBSTRUCTURE
  1 ****  10 GROUP 4 **** **** 0

# MOE 2024.06 (io_trps.svl 2023.06)
