@<TRIPOS>MOLECULE
4-(1H-Benzoimidazol-2-yl)-1-tert-butyl-pyrrolidin-2-one
38 40 1 0 0 
SMALL
USER_CHARGES


@<TRIPOS>ATOM
  1 O       -1.4710    -1.4500    -1.9630 O.2   1 <1>  -0.5700 
  2 C       -1.8760    -1.4290    -0.8270 C.2   1 <1>   0.5690 
  3 N       -1.8930    -2.4610     0.0590 N.am  1 <1>  -0.6600 
  4 C       -2.5300    -0.2050    -0.2510 C.3   1 <1>  -0.0990 
  5 C       -1.3150    -3.8220    -0.1430 C.3   1 <1>   0.3000 
  6 C       -2.6310    -2.0740     1.2890 C.3   1 <1>   0.1400 
  7 C       -3.3650    -0.7870     0.8940 C.3   1 <1>   0.1000 
  8 C       -1.3660    -4.6470     1.1510 C.3   1 <1>  -0.2400 
  9 C        0.1530    -3.6980    -0.5650 C.3   1 <1>  -0.2400 
 10 C       -2.1280    -4.5400    -1.2210 C.3   1 <1>  -0.2400 
 11 C       -4.7700    -1.1350     0.4180 C.2   1 <1>   0.0060 
 12 N       -5.8420    -0.7320     1.0030 N.2   1 <1>  -0.5650 
 13 N       -5.0010    -1.9210    -0.6690 N.pl3 1 <1>   0.0330 
 14 C       -6.8540    -1.2750     0.2690 C.ar  1 <1>   0.2270 
 15 C       -6.3470    -2.0210    -0.7780 C.ar  1 <1>  -0.1520 
 16 C       -8.2330    -1.1720     0.4430 C.ar  1 <1>  -0.1500 
 17 C       -7.1890    -2.6810    -1.6760 C.ar  1 <1>  -0.1500 
 18 C       -9.0730    -1.8200    -0.4370 C.ar  1 <1>  -0.1500 
 19 C       -8.5500    -2.5740    -1.4950 C.ar  1 <1>  -0.1500 
 20 H       -3.1310     0.3070    -0.9810 H     1 <1>   0.0800 
 21 H       -1.7680     0.4520     0.1230 H     1 <1>   0.0800 
 22 H       -1.9300    -1.8830     2.0830 H     1 <1>   0.0800 
 23 H       -3.3340    -2.8310     1.5930 H     1 <1>   0.0800 
 24 H       -3.4320    -0.1060     1.7250 H     1 <1>   0.0800 
 25 H       -0.8360    -4.1470     1.9420 H     1 <1>   0.0800 
 26 H       -0.8970    -5.6020     0.9950 H     1 <1>   0.0800 
 27 H       -2.3790    -4.8350     1.4540 H     1 <1>   0.0800 
 28 H        0.7030    -3.1250     0.1590 H     1 <1>   0.0800 
 29 H        0.2420    -3.2240    -1.5260 H     1 <1>   0.0800 
 30 H        0.6030    -4.6700    -0.6430 H     1 <1>   0.0800 
 31 H       -3.1570    -4.6200    -0.9250 H     1 <1>   0.0800 
 32 H       -1.7420    -5.5320    -1.3760 H     1 <1>   0.0800 
 33 H       -2.0670    -4.0130    -2.1560 H     1 <1>   0.0800 
 34 H       -4.2950    -2.3500    -1.2760 H     1 <1>   0.2700 
 35 H       -8.6060    -0.5870     1.2630 H     1 <1>   0.1500 
 36 H       -6.7750    -3.2560    -2.4860 H     1 <1>   0.1500 
 37 H      -10.1400    -1.7510    -0.3170 H     1 <1>   0.1500 
 38 H       -9.2270    -3.0700    -2.1690 H     1 <1>   0.1500 
@<TRIPOS>BOND
  1   1   2  2   
  2   2   3  am  
  3   2   4  1   
  4   3   5  1   
  5   3   6  1   
  6   4   7  1   
  7   4  20  1   
  8   4  21  1   
  9   5   8  1   
 10   5   9  1   
 11   5  10  1   
 12   6   7  1   
 13   6  22  1   
 14   6  23  1   
 15   7  11  1   
 16   7  24  1   
 17   8  25  1   
 18   8  26  1   
 19   8  27  1   
 20   9  28  1   
 21   9  29  1   
 22   9  30  1   
 23  10  31  1   
 24  10  32  1   
 25  10  33  1   
 26  11  12  2   
 27  11  13  1   
 28  12  14  1   
 29  13  15  1   
 30  13  34  1   
 31  14  15  ar  
 32  14  16  ar  
 33  15  17  ar  
 34  16  18  ar  
 35  16  35  1   
 36  17  19  ar  
 37  17  36  1   
 38  18  19  ar  
 39  18  37  1   
 40  19  38  1   
@<TRIPOS>SUBSTRUCTURE
  1 ****  13 GROUP 4 **** **** 0

# MOE 2024.06 (io_trps.svl 2023.06)
