@<TRIPOS>MOLECULE
2-(4-Methyl-piperidin-1-yl)-N-(4-trifluoromethoxy-phenyl)-acetamide
42 43 1 0 0 
SMALL
USER_CHARGES


@<TRIPOS>ATOM
  1 F       -0.8970    -2.3260    -1.2070 F     1 <1>  -0.3400 
  2 C       -1.1230    -1.2900    -0.4080 C.3   1 <1>   1.3000 
  3 F       -0.8350    -0.1780    -1.0740 F     1 <1>  -0.3400 
  4 F       -2.4190    -1.2690    -0.1310 F     1 <1>  -0.3400 
  5 O       -0.3750    -1.3860     0.7870 O.3   1 <1>  -0.3630 
  6 C        0.9700    -1.4280     0.6680 C.ar  1 <1>   0.0830 
  7 C        1.7030    -0.2520     0.6690 C.ar  1 <1>  -0.1500 
  8 C        1.6170    -2.6480     0.5670 C.ar  1 <1>  -0.1500 
  9 C        3.0800    -0.3000     0.5530 C.ar  1 <1>  -0.1500 
 10 C        2.9950    -2.6880     0.4500 C.ar  1 <1>  -0.1500 
 11 C        3.7470    -1.5180     0.4350 C.ar  1 <1>   0.1170 
 12 N        5.1450    -1.6200     0.3240 N.am  1 <1>  -0.5470 
 13 C        6.0540    -0.7150    -0.1650 C.2   1 <1>   0.5690 
 14 O        5.7470     0.3630    -0.6160 O.2   1 <1>  -0.5700 
 15 C        7.5560    -1.0550    -0.1550 C.3   1 <1>   0.4040 
 16 N        8.4430     0.1640    -0.2720 N.4   1 <1>  -0.9590 
 17 C        9.8340    -0.1650    -0.6910 C.3   1 <1>   0.3430 
 18 C        8.3930     1.0060     0.9600 C.3   1 <1>   0.3430 
 19 C       10.6110     1.1250    -0.9520 C.3   1 <1>  -0.1600 
 20 C        9.1530     2.3110     0.7210 C.3   1 <1>  -0.1600 
 21 C       10.5990     2.0540     0.2710 C.3   1 <1>  -0.0800 
 22 C       11.3070     3.3750    -0.0480 C.3   1 <1>  -0.2400 
 23 H        1.1990     0.6950     0.7620 H     1 <1>   0.1500 
 24 H        1.0450    -3.5600     0.5800 H     1 <1>   0.1500 
 25 H        3.6280     0.6240     0.5580 H     1 <1>   0.1500 
 26 H        3.4810    -3.6430     0.3660 H     1 <1>   0.1500 
 27 H        5.4940    -2.5380     0.6010 H     1 <1>   0.3700 
 28 H        7.7420    -1.7090    -0.9890 H     1 <1>   0.0800 
 29 H        7.7900    -1.5880     0.7500 H     1 <1>   0.0800 
 30 H        8.0050     0.7440    -1.0090 H     1 <1>   0.4500 
 31 H        9.8200    -0.7610    -1.5900 H     1 <1>   0.0800 
 32 H       10.3260    -0.7290     0.0850 H     1 <1>   0.0800 
 33 H        8.8400     0.4770     1.7870 H     1 <1>   0.0800 
 34 H        7.3690     1.2350     1.2110 H     1 <1>   0.0800 
 35 H       10.1890     1.6270    -1.8050 H     1 <1>   0.0800 
 36 H       11.6280     0.8730    -1.1990 H     1 <1>   0.0800 
 37 H        9.1580     2.8820     1.6330 H     1 <1>   0.0800 
 38 H        8.6290     2.8930    -0.0190 H     1 <1>   0.0800 
 39 H       11.1320     1.5740     1.0760 H     1 <1>   0.0800 
 40 H       10.8110     3.8960    -0.8490 H     1 <1>   0.0800 
 41 H       12.3260     3.1930    -0.3400 H     1 <1>   0.0800 
 42 H       11.3170     4.0140     0.8180 H     1 <1>   0.0800 
@<TRIPOS>BOND
  1   1   2  1   
  2   2   3  1   
  3   2   4  1   
  4   2   5  1   
  5   5   6  1   
  6   6   7  ar  
  7   6   8  ar  
  8   7   9  ar  
  9   7  23  1   
 10   8  10  ar  
 11   8  24  1   
 12   9  11  ar  
 13   9  25  1   
 14  10  11  ar  
 15  10  26  1   
 16  11  12  1   
 17  12  13  am  
 18  12  27  1   
 19  13  14  2   
 20  13  15  1   
 21  15  16  1   
 22  15  28  1   
 23  15  29  1   
 24  16  17  1   
 25  16  18  1   
 26  16  30  1   
 27  17  19  1   
 28  17  31  1   
 29  17  32  1   
 30  18  20  1   
 31  18  33  1   
 32  18  34  1   
 33  19  21  1   
 34  19  35  1   
 35  19  36  1   
 36  20  21  1   
 37  20  37  1   
 38  20  38  1   
 39  21  22  1   
 40  21  39  1   
 41  22  40  1   
 42  22  41  1   
 43  22  42  1   
@<TRIPOS>SUBSTRUCTURE
  1 ****  12 GROUP 4 **** **** 0

# MOE 2024.06 (io_trps.svl 2023.06)
