@<TRIPOS>MOLECULE
1-(2-Cyano-ethyl)-3-(3-methoxy-phenyl)-1H-pyrazole-4-carboxylic acid diethylamid
46 47 1 0 0 
SMALL
USER_CHARGES


@<TRIPOS>ATOM
  1 O        0.9760    -0.5510    -2.2740 O.2   1 <1>  -0.5700 
  2 C        1.2980    -1.1620    -1.2710 C.2   1 <1>   0.7160 
  3 N        2.2990    -0.6620    -0.4600 N.am  1 <1>  -0.6600 
  4 C        0.6300    -2.3960    -0.9560 C.2   1 <1>  -0.0860 
  5 C        2.5810    -1.2120     0.8950 C.3   1 <1>   0.1400 
  6 C        2.9800     0.6170    -0.7990 C.3   1 <1>   0.1400 
  7 C       -0.6980    -2.5270    -0.5140 C.2   1 <1>   0.2350 
  8 C        1.0880    -3.6750    -1.0180 C.2   1 <1>  -0.3020 
  9 C        3.8790    -2.0130     0.8760 C.3   1 <1>  -0.2400 
 10 C        4.0890     0.3630    -1.8190 C.3   1 <1>  -0.2400 
 11 N       -1.0120    -3.7860    -0.3360 N.2   1 <1>  -0.7070 
 12 C       -1.6210    -1.4400    -0.2660 C.ar  1 <1>   0.0540 
 13 N        0.0870    -4.4820    -0.6500 N.pl3 1 <1>   0.3140 
 14 C       -1.2460    -0.2930     0.4300 C.ar  1 <1>  -0.1500 
 15 C       -2.9390    -1.5170    -0.7130 C.ar  1 <1>  -0.1500 
 16 C        0.1180    -5.9530    -0.5800 C.3   1 <1>   0.0960 
 17 C       -2.1340     0.7420     0.6640 C.ar  1 <1>   0.0830 
 18 C       -3.8390    -0.4920    -0.4870 C.ar  1 <1>  -0.1500 
 19 C       -0.4040    -6.4370     0.7760 C.3   1 <1>   0.0400 
 20 O       -1.6560     1.8100     1.3510 O.3   1 <1>  -0.3630 
 21 C       -3.4420     0.6410     0.2000 C.ar  1 <1>  -0.1500 
 22 C       -0.2670    -7.9120     0.8660 C.1   1 <1>   0.3570 
 23 C       -2.4630     2.9400     1.5950 C.3   1 <1>   0.0400 
 24 N       -0.1380    -9.0400     0.9080 N.1   1 <1>  -0.5570 
 25 H        1.7740    -1.8470     1.2190 H     1 <1>   0.0800 
 26 H        2.6570    -0.4050     1.6040 H     1 <1>   0.0800 
 27 H        3.3950     1.0650     0.0870 H     1 <1>   0.0800 
 28 H        2.2620     1.3070    -1.2120 H     1 <1>   0.0800 
 29 H        2.0600    -4.0230    -1.3150 H     1 <1>   0.1500 
 30 H        3.8330    -2.7830     0.1270 H     1 <1>   0.0800 
 31 H        4.0310    -2.4760     1.8340 H     1 <1>   0.0800 
 32 H        4.7160    -1.3690     0.6770 H     1 <1>   0.0800 
 33 H        4.8210    -0.3170    -1.4270 H     1 <1>   0.0800 
 34 H        4.5750     1.2900    -2.0600 H     1 <1>   0.0800 
 35 H        3.6720    -0.0440    -2.7230 H     1 <1>   0.0800 
 36 H       -0.2460    -0.1950     0.8040 H     1 <1>   0.1500 
 37 H       -3.2510    -2.3990    -1.2450 H     1 <1>   0.1500 
 38 H        1.1300    -6.2830    -0.7300 H     1 <1>   0.0800 
 39 H       -0.4960    -6.3400    -1.3730 H     1 <1>   0.0800 
 40 H       -4.8500    -0.5770    -0.8470 H     1 <1>   0.1500 
 41 H       -1.4420    -6.1790     0.8890 H     1 <1>   0.0800 
 42 H        0.1590    -5.9880     1.5730 H     1 <1>   0.0800 
 43 H       -4.1570     1.4240     0.3630 H     1 <1>   0.1500 
 44 H       -1.8730     3.6620     2.1300 H     1 <1>   0.0800 
 45 H       -3.3080     2.6430     2.1910 H     1 <1>   0.0800 
 46 H       -2.7800     3.3530     0.6530 H     1 <1>   0.0800 
@<TRIPOS>BOND
  1   1   2  2   
  2   2   3  am  
  3   2   4  1   
  4   3   5  1   
  5   3   6  1   
  6   4   7  1   
  7   4   8  2   
  8   5   9  1   
  9   5  25  1   
 10   5  26  1   
 11   6  10  1   
 12   6  27  1   
 13   6  28  1   
 14   7  11  2   
 15   7  12  1   
 16   8  13  1   
 17   8  29  1   
 18   9  30  1   
 19   9  31  1   
 20   9  32  1   
 21  10  33  1   
 22  10  34  1   
 23  10  35  1   
 24  11  13  1   
 25  12  14  ar  
 26  12  15  ar  
 27  13  16  1   
 28  14  17  ar  
 29  14  36  1   
 30  15  18  ar  
 31  15  37  1   
 32  16  19  1   
 33  16  38  1   
 34  16  39  1   
 35  17  20  1   
 36  17  21  ar  
 37  18  21  ar  
 38  18  40  1   
 39  19  22  1   
 40  19  41  1   
 41  19  42  1   
 42  20  23  1   
 43  21  43  1   
 44  22  24  3   
 45  23  44  1   
 46  23  45  1   
 47  23  46  1   
@<TRIPOS>SUBSTRUCTURE
  1 ****   7 GROUP 4 **** **** 0

# MOE 2024.06 (io_trps.svl 2023.06)
