@<TRIPOS>MOLECULE
4-(5,6-Dimethyl-1H-benzoimidazol-2-yl)-butyric acid
32 33 1 0 0 
SMALL
USER_CHARGES


@<TRIPOS>ATOM
  1 O       -1.1460    -0.1180    -1.2050 O.co2 1 <1>  -0.9000 
  2 C       -1.8630     0.0270    -0.2120 C.2   1 <1>   0.9060 
  3 O       -2.1320    -0.8920     0.5670 O.co2 1 <1>  -0.9000 
  4 C       -2.4570     1.3900     0.0610 C.3   1 <1>  -0.2660 
  5 C       -3.9870     1.3790    -0.0910 C.3   1 <1>  -0.1600 
  6 C       -4.6190     2.7150     0.3230 C.3   1 <1>   0.0200 
  7 C       -6.1350     2.7000     0.2070 C.2   1 <1>   0.0060 
  8 N       -6.8430     3.7150    -0.1500 N.2   1 <1>  -0.5650 
  9 N       -6.8700     1.5940     0.4870 N.pl3 1 <1>   0.0330 
 10 C       -8.1290     3.2610    -0.1110 C.ar  1 <1>   0.2270 
 11 C       -8.1640     1.9400     0.2850 C.ar  1 <1>  -0.1520 
 12 C       -9.3180     3.9250    -0.4010 C.ar  1 <1>  -0.1500 
 13 C       -9.3720     1.2510     0.3980 C.ar  1 <1>  -0.1500 
 14 C      -10.5230     3.2600    -0.2930 C.ar  1 <1>  -0.1440 
 15 C      -10.5490     1.9110     0.1100 C.ar  1 <1>  -0.1440 
 16 C      -11.8090     4.0080    -0.6150 C.3   1 <1>  -0.0970 
 17 C      -11.8670     1.1600     0.2340 C.3   1 <1>  -0.0970 
 18 H       -2.0170     2.0940    -0.6190 H     1 <1>   0.0800 
 19 H       -2.1830     1.6590     1.0630 H     1 <1>   0.0800 
 20 H       -4.3730     0.5850     0.5250 H     1 <1>   0.0800 
 21 H       -4.2370     1.1590    -1.1150 H     1 <1>   0.0800 
 22 H       -4.2300     3.5040    -0.2970 H     1 <1>   0.0800 
 23 H       -4.3560     2.9360     1.3420 H     1 <1>   0.0800 
 24 H       -6.5070     0.6790     0.7650 H     1 <1>   0.2700 
 25 H       -9.2540     4.9520    -0.7040 H     1 <1>   0.1500 
 26 H       -9.3640     0.2220     0.7070 H     1 <1>   0.1500 
 27 H      -11.6000     5.0220    -0.9040 H     1 <1>   0.0800 
 28 H      -12.4500     4.0280     0.2470 H     1 <1>   0.0800 
 29 H      -12.3220     3.5260    -1.4270 H     1 <1>   0.0800 
 30 H      -11.7050     0.1460     0.5510 H     1 <1>   0.0800 
 31 H      -12.3710     1.1400    -0.7150 H     1 <1>   0.0800 
 32 H      -12.4990     1.6420     0.9580 H     1 <1>   0.0800 
@<TRIPOS>BOND
  1   1   2  ar  
  2   2   3  ar  
  3   2   4  1   
  4   4   5  1   
  5   4  18  1   
  6   4  19  1   
  7   5   6  1   
  8   5  20  1   
  9   5  21  1   
 10   6   7  1   
 11   6  22  1   
 12   6  23  1   
 13   7   8  2   
 14   7   9  1   
 15   8  10  1   
 16   9  11  1   
 17   9  24  1   
 18  10  11  ar  
 19  10  12  ar  
 20  11  13  ar  
 21  12  14  ar  
 22  12  25  1   
 23  13  15  ar  
 24  13  26  1   
 25  14  15  ar  
 26  14  16  1   
 27  15  17  1   
 28  16  27  1   
 29  16  28  1   
 30  16  29  1   
 31  17  30  1   
 32  17  31  1   
 33  17  32  1   
@<TRIPOS>SUBSTRUCTURE
  1 ****   9 GROUP 4 **** **** 0

# MOE 2024.06 (io_trps.svl 2023.06)
