@<TRIPOS>MOLECULE
8-(3-Chloro-4-methoxy-phenyl)-3-(3-hydroxy-propyl)-1,6,7-trimethyl-1H,8H-imidazo
53 56 1 0 0 
SMALL
USER_CHARGES


@<TRIPOS>ATOM
  1 CL      -2.5540    -2.3220     3.2630 Cl    1 <1>  -0.1840 
  2 C       -2.9160    -1.7790     1.6400 C.ar  1 <1>   0.1700 
  3 C       -2.1540    -2.2170     0.5610 C.ar  1 <1>   0.0750 
  4 C       -3.9760    -0.9120     1.4730 C.ar  1 <1>  -0.1570 
  5 O       -1.1280    -3.0750     0.8020 O.3   1 <1>  -0.3680 
  6 C       -2.4820    -1.7580    -0.7130 C.ar  1 <1>  -0.1570 
  7 C       -4.3020    -0.4650     0.2030 C.ar  1 <1>   0.3050 
  8 C       -0.2700    -3.5170    -0.2270 C.3   1 <1>   0.0320 
  9 C       -3.5470    -0.8880    -0.8830 C.ar  1 <1>  -0.1570 
 10 N       -5.3900     0.4020     0.0170 N.pl3 1 <1>  -0.5550 
 11 C       -6.6730     0.0560    -0.1480 C.cat 1 <1>   1.0690 
 12 C       -5.3840     1.7920    -0.0240 C.2   1 <1>   0.1580 
 13 N       -7.3640    -1.0870    -0.2050 N.pl3 1 <1>  -0.7030 
 14 N       -7.4610     1.1110    -0.2920 N.pl3 1 <1>  -0.6330 
 15 C       -6.6530     2.2260    -0.2130 C.2   1 <1>   0.2340 
 16 C       -4.0890     2.5700     0.1350 C.3   1 <1>  -0.1090 
 17 C       -8.6700    -0.7340    -0.3940 C.2   1 <1>   0.4210 
 18 C       -8.7670     0.6170    -0.4560 C.2   1 <1>   0.2710 
 19 C       -7.2380     3.6190    -0.3360 C.3   1 <1>  -0.1090 
 20 N       -9.7590    -1.5740    -0.5140 N.am  1 <1>  -0.4410 
 21 C      -10.0460     1.2180    -0.6600 C.2   1 <1>   0.7000 
 22 C      -11.0090    -1.0040    -0.7330 C.2   1 <1>   0.6860 
 23 C       -9.6050    -3.0580    -0.4330 C.3   1 <1>   0.0530 
 24 O      -10.1740     2.4300    -0.7170 O.2   1 <1>  -0.5740 
 25 N      -11.1440     0.3790    -0.7940 N.am  1 <1>  -0.4250 
 26 O      -11.9800    -1.7190    -0.8720 O.2   1 <1>  -0.5740 
 27 C      -12.5030     0.9710    -0.9920 C.3   1 <1>   0.1330 
 28 C      -13.1950     1.1590     0.3600 C.3   1 <1>  -0.1670 
 29 C      -14.5890     1.7530     0.1690 C.3   1 <1>   0.1130 
 30 O      -15.1590     1.9230     1.4140 O.3   1 <1>  -0.6840 
 31 H       -4.5340    -0.5910     2.3330 H     1 <1>   0.1430 
 32 H       -1.9180    -2.0650    -1.5750 H     1 <1>   0.1430 
 33 H        0.4720    -4.1610     0.2120 H     1 <1>   0.0730 
 34 H        0.2090    -2.6650    -0.6750 H     1 <1>   0.0730 
 35 H       -0.8440    -4.0660    -0.9520 H     1 <1>   0.0730 
 36 H       -3.7880    -0.5360    -1.8710 H     1 <1>   0.1430 
 37 H       -6.9640    -2.0200    -0.1230 H     1 <1>   0.4450 
 38 H       -3.3980     2.3030    -0.6450 H     1 <1>   0.0730 
 39 H       -3.6380     2.3490     1.0860 H     1 <1>   0.0730 
 40 H       -4.2660     3.6290     0.0820 H     1 <1>   0.0730 
 41 H       -7.9660     3.7830     0.4390 H     1 <1>   0.0730 
 42 H       -7.7230     3.7330    -1.2890 H     1 <1>   0.0730 
 43 H       -6.4740     4.3690    -0.2500 H     1 <1>   0.0730 
 44 H       -8.8650    -3.3210     0.3020 H     1 <1>   0.0730 
 45 H       -9.3130    -3.4460    -1.3930 H     1 <1>   0.0730 
 46 H      -10.5350    -3.5210    -0.1450 H     1 <1>   0.0730 
 47 H      -13.0950     0.3240    -1.6180 H     1 <1>   0.0730 
 48 H      -12.4240     1.9200    -1.4970 H     1 <1>   0.0730 
 49 H      -12.6130     1.8310     0.9680 H     1 <1>   0.0730 
 50 H      -13.2820     0.2060     0.8510 H     1 <1>   0.0730 
 51 H      -15.2230     1.1000    -0.4070 H     1 <1>   0.0730 
 52 H      -14.5390     2.7190    -0.3050 H     1 <1>   0.0730 
 53 H      -15.2600     1.0630     1.8670 H     1 <1>   0.3950 
@<TRIPOS>BOND
  1   1   2  1   
  2   2   3  ar  
  3   2   4  ar  
  4   3   5  1   
  5   3   6  ar  
  6   4   7  ar  
  7   4  31  1   
  8   5   8  1   
  9   6   9  ar  
 10   6  32  1   
 11   7   9  ar  
 12   7  10  1   
 13   8  33  1   
 14   8  34  1   
 15   8  35  1   
 16   9  36  1   
 17  10  11  ar  
 18  10  12  1   
 19  11  13  ar  
 20  11  14  ar  
 21  12  15  2   
 22  12  16  1   
 23  13  17  1   
 24  13  37  1   
 25  14  15  1   
 26  14  18  1   
 27  15  19  1   
 28  16  38  1   
 29  16  39  1   
 30  16  40  1   
 31  17  18  2   
 32  17  20  1   
 33  18  21  1   
 34  19  41  1   
 35  19  42  1   
 36  19  43  1   
 37  20  22  am  
 38  20  23  1   
 39  21  24  2   
 40  21  25  am  
 41  22  25  am  
 42  22  26  2   
 43  23  44  1   
 44  23  45  1   
 45  23  46  1   
 46  25  27  1   
 47  27  28  1   
 48  27  47  1   
 49  27  48  1   
 50  28  29  1   
 51  28  49  1   
 52  28  50  1   
 53  29  30  1   
 54  29  51  1   
 55  29  52  1   
 56  30  53  1   
@<TRIPOS>SUBSTRUCTURE
  1 ****  11 GROUP 4 **** **** 0

# MOE 2024.06 (io_trps.svl 2023.06)
