@<TRIPOS>MOLECULE
NONAME
30 33 1 0 0 
SMALL
USER_CHARGES


@<TRIPOS>ATOM
  1 O        0.1020     0.7160     1.4820 O.2   1 <1>  -0.5700 
  2 C       -0.3630     1.6960     0.9510 C.2   1 <1>   0.5690 
  3 N        0.2140     2.9360     0.9740 N.am  1 <1>  -0.6600 
  4 C       -1.6190     1.7210     0.1140 C.3   1 <1>  -0.0190 
  5 C       -0.6960     3.9230     0.3430 C.3   1 <1>   0.5000 
  6 C        1.6700     3.1350     0.8610 C.3   1 <1>   0.1400 
  7 C       -2.0330     3.1520     0.3820 C.3   1 <1>   0.4180 
  8 C       -2.9870     1.0010     0.1990 C.3   1 <1>  -0.1860 
  9 O       -0.1760     4.1660    -0.9310 O.3   1 <1>  -0.5600 
 10 C        1.9420     4.5180     0.2630 C.3   1 <1>  -0.1600 
 11 O       -3.1300     3.2210    -0.4600 O.3   1 <1>  -0.5600 
 12 C       -2.7590     3.3030     1.7200 C.2   1 <1>  -0.2880 
 13 C       -3.3230     0.0710    -0.9380 C.2   1 <1>   0.9060 
 14 C       -3.9300     2.2210     0.1380 C.3   1 <1>   0.3380 
 15 C        1.0710     4.8010    -0.9780 C.3   1 <1>   0.1200 
 16 C       -3.9530     2.7570     1.5470 C.2   1 <1>  -0.2880 
 17 O       -2.4340    -0.3510    -1.6830 O.co2 1 <1>  -0.9000 
 18 O       -4.5050    -0.2690    -1.0660 O.co2 1 <1>  -0.9000 
 19 H       -1.2770     1.6720    -0.9050 H     1 <1>   0.0800 
 20 H       -0.7490     4.8400     0.9010 H     1 <1>   0.0800 
 21 H        2.0740     2.3710     0.2170 H     1 <1>   0.0800 
 22 H        2.1230     3.0400     1.8330 H     1 <1>   0.0800 
 23 H       -3.1020     0.4570     1.1160 H     1 <1>   0.0800 
 24 H        2.9810     4.6060     0.0030 H     1 <1>   0.0800 
 25 H        1.7420     5.2650     1.0110 H     1 <1>   0.0800 
 26 H       -2.2930     3.7700     2.5680 H     1 <1>   0.1500 
 27 H       -4.8800     2.1140    -0.3600 H     1 <1>   0.0800 
 28 H        0.9040     5.8590    -1.0900 H     1 <1>   0.0800 
 29 H        1.5640     4.4390    -1.8640 H     1 <1>   0.0800 
 30 H       -4.8080     2.6170     2.1830 H     1 <1>   0.1500 
@<TRIPOS>BOND
  1   1   2  2   
  2   2   3  am  
  3   2   4  1   
  4   3   5  1   
  5   3   6  1   
  6   4   7  1   
  7   4   8  1   
  8   4  19  1   
  9   5   7  1   
 10   5   9  1   
 11   5  20  1   
 12   6  10  1   
 13   6  21  1   
 14   6  22  1   
 15   7  11  1   
 16   7  12  1   
 17   8  13  1   
 18   8  14  1   
 19   8  23  1   
 20   9  15  1   
 21  10  15  1   
 22  10  24  1   
 23  10  25  1   
 24  11  14  1   
 25  12  16  2   
 26  12  26  1   
 27  13  17  ar  
 28  13  18  ar  
 29  14  16  1   
 30  14  27  1   
 31  15  28  1   
 32  15  29  1   
 33  16  30  1   
@<TRIPOS>SUBSTRUCTURE
  1 ****   4 GROUP 4 **** **** 0

# MOE 2024.06 (io_trps.svl 2023.06)
