@<TRIPOS>MOLECULE
1-Methanesulfonyl-piperidine-3-carboxylic acid (5-chloro-2-phenoxy-phenyl)-amide
48 50 1 0 0 
SMALL
USER_CHARGES


@<TRIPOS>ATOM
  1 CL       0.0960     0.2080     1.1090 Cl    1 <1>  -0.1770 
  2 C       -0.0980    -1.5260     1.0440 C.ar  1 <1>   0.1770 
  3 C       -1.3600    -2.0600     0.8640 C.ar  1 <1>  -0.1500 
  4 C        1.0190    -2.3300     1.1730 C.ar  1 <1>  -0.1500 
  5 C       -1.5320    -3.4390     0.8070 C.ar  1 <1>   0.1170 
  6 C        0.8650    -3.7040     1.1160 C.ar  1 <1>  -0.1500 
  7 N       -2.7870    -4.0550     0.6240 N.am  1 <1>  -0.5470 
  8 C       -0.3980    -4.2530     0.9260 C.ar  1 <1>   0.0830 
  9 C       -4.0660    -3.5720     0.6380 C.2   1 <1>   0.5690 
 10 O       -0.5580    -5.6040     0.8720 O.3   1 <1>  -0.1650 
 11 O       -4.3420    -2.4130     0.8330 O.2   1 <1>  -0.5700 
 12 C       -5.1990    -4.5610     0.4100 C.3   1 <1>  -0.0190 
 13 C        0.2570    -6.3850     0.1190 C.ar  1 <1>   0.0830 
 14 C       -6.2360    -3.9580    -0.5460 C.3   1 <1>   0.1960 
 15 C       -5.8570    -4.9760     1.7390 C.3   1 <1>  -0.1600 
 16 C        0.5230    -7.6700     0.5670 C.ar  1 <1>  -0.1500 
 17 C        0.8100    -5.9420    -1.0780 C.ar  1 <1>  -0.1500 
 18 N       -7.3470    -4.8940    -0.7550 N.am  1 <1>  -0.8490 
 19 C       -7.0600    -5.8900     1.4710 C.3   1 <1>  -0.1600 
 20 C        1.3470    -8.5050    -0.1670 C.ar  1 <1>  -0.1500 
 21 C        1.6340    -6.7790    -1.8100 C.ar  1 <1>  -0.1500 
 22 S       -8.3640    -4.4930    -2.0500 S.o2  1 <1>   1.3330 
 23 C       -8.0450    -5.2600     0.4800 C.3   1 <1>   0.1960 
 24 C        1.9030    -8.0590    -1.3540 C.ar  1 <1>  -0.1500 
 25 O       -9.4070    -5.4900    -2.1210 O.2   1 <1>  -0.6500 
 26 O       -7.5290    -4.2170    -3.1950 O.2   1 <1>  -0.6500 
 27 C       -9.1240    -2.9580    -1.5550 C.3   1 <1>  -0.1350 
 28 H       -2.1900    -1.3870     0.7680 H     1 <1>   0.1500 
 29 H        1.9870    -1.8850     1.3160 H     1 <1>   0.1500 
 30 H        1.7230    -4.3460     1.2210 H     1 <1>   0.1500 
 31 H       -2.7090    -5.0660     0.4980 H     1 <1>   0.3700 
 32 H       -4.7970    -5.4370    -0.0680 H     1 <1>   0.0800 
 33 H       -5.7550    -3.7480    -1.4880 H     1 <1>   0.0800 
 34 H       -6.6090    -3.0310    -0.1430 H     1 <1>   0.0800 
 35 H       -6.1870    -4.0950     2.2640 H     1 <1>   0.0800 
 36 H       -5.1420    -5.4850     2.3620 H     1 <1>   0.0800 
 37 H        0.0880    -8.0110     1.4900 H     1 <1>   0.1500 
 38 H        0.5990    -4.9540    -1.4450 H     1 <1>   0.1500 
 39 H       -7.5710    -6.0980     2.3950 H     1 <1>   0.0800 
 40 H       -6.7220    -6.8290     1.0670 H     1 <1>   0.0800 
 41 H        1.5550    -9.5020     0.1840 H     1 <1>   0.1500 
 42 H        2.0660    -6.4380    -2.7350 H     1 <1>   0.1500 
 43 H       -8.8210    -5.9760     0.2610 H     1 <1>   0.0800 
 44 H       -8.4990    -4.3890     0.9200 H     1 <1>   0.0800 
 45 H        2.5450    -8.7100    -1.9240 H     1 <1>   0.1500 
 46 H       -9.6800    -3.0870    -0.6490 H     1 <1>   0.0800 
 47 H       -9.7970    -2.6270    -2.3220 H     1 <1>   0.0800 
 48 H       -8.3810    -2.1990    -1.4090 H     1 <1>   0.0800 
@<TRIPOS>BOND
  1   1   2  1   
  2   2   3  ar  
  3   2   4  ar  
  4   3   5  ar  
  5   3  28  1   
  6   4   6  ar  
  7   4  29  1   
  8   5   7  1   
  9   5   8  ar  
 10   6   8  ar  
 11   6  30  1   
 12   7   9  am  
 13   7  31  1   
 14   8  10  1   
 15   9  11  2   
 16   9  12  1   
 17  10  13  1   
 18  12  14  1   
 19  12  15  1   
 20  12  32  1   
 21  13  16  ar  
 22  13  17  ar  
 23  14  18  1   
 24  14  33  1   
 25  14  34  1   
 26  15  19  1   
 27  15  35  1   
 28  15  36  1   
 29  16  20  ar  
 30  16  37  1   
 31  17  21  ar  
 32  17  38  1   
 33  18  22  am  
 34  18  23  1   
 35  19  23  1   
 36  19  39  1   
 37  19  40  1   
 38  20  24  ar  
 39  20  41  1   
 40  21  24  ar  
 41  21  42  1   
 42  22  25  2   
 43  22  26  2   
 44  22  27  1   
 45  23  43  1   
 46  23  44  1   
 47  24  45  1   
 48  27  46  1   
 49  27  47  1   
 50  27  48  1   
@<TRIPOS>SUBSTRUCTURE
  1 ****   7 GROUP 4 **** **** 0

# MOE 2024.06 (io_trps.svl 2023.06)
