@<TRIPOS>MOLECULE
N-Cyclopentyl-2-(3,6-dimethyl-4-oxo-3,4-dihydro-thieno[2,3-d]pyrimidin-2-ylsulfa
41 43 1 0 0 
SMALL
USER_CHARGES


@<TRIPOS>ATOM
  1 S        1.2570     0.1040     1.2030 S.3   1 <1>  -0.0800 
  2 C        2.4670     1.0990     0.4190 C.2   1 <1>   0.1660 
  3 C       -0.0330     0.8730     0.2810 C.2   1 <1>  -0.1400 
  4 N        3.7840     0.9940     0.6970 N.2   1 <1>  -0.5760 
  5 C        1.8970     1.9440    -0.4770 C.2   1 <1>  -0.0860 
  6 C        0.4690     1.8090    -0.5470 C.2   1 <1>  -0.1500 
  7 C       -1.4460     0.3950     0.5420 C.3   1 <1>  -0.0600 
  8 C        4.5390     1.7880     0.0170 C.2   1 <1>   0.6510 
  9 C        2.7700     2.8070    -1.1930 C.2   1 <1>   0.7160 
 10 S        6.3000     1.6800     0.2990 S.3   1 <1>  -0.3710 
 11 N        4.1230     2.7070    -0.9250 N.am  1 <1>  -0.4200 
 12 O        2.3500     3.6060    -2.0190 O.2   1 <1>  -0.5700 
 13 C        6.5510     0.3910     1.6240 C.3   1 <1>   0.1310 
 14 C        5.1030     3.5790    -1.6450 C.3   1 <1>   0.0600 
 15 C        7.3630    -0.7880     1.1030 C.2   1 <1>   0.5690 
 16 O        8.5240    -0.8730     1.4190 O.2   1 <1>  -0.5700 
 17 N        6.8150    -1.7600     0.3350 N.am  1 <1>  -0.7300 
 18 C        5.4500    -1.8660    -0.2060 C.3   1 <1>   0.2200 
 19 C        4.5580    -2.5890     0.7950 C.3   1 <1>  -0.1600 
 20 C        5.4700    -2.8090    -1.4020 C.3   1 <1>  -0.1600 
 21 C        4.8410    -4.0820     0.5980 C.3   1 <1>  -0.1600 
 22 C        5.4120    -4.2260    -0.8190 C.3   1 <1>  -0.1600 
 23 H       -0.1010     2.4270    -1.2200 H     1 <1>   0.1500 
 24 H       -1.7010     0.5520     1.5750 H     1 <1>   0.0800 
 25 H       -1.5250    -0.6530     0.3180 H     1 <1>   0.0800 
 26 H       -2.1410     0.9370    -0.0740 H     1 <1>   0.0800 
 27 H        5.6030     0.0580     1.9970 H     1 <1>   0.0800 
 28 H        7.0880     0.8730     2.4190 H     1 <1>   0.0800 
 29 H        5.7880     2.9680    -2.2070 H     1 <1>   0.0800 
 30 H        5.6550     4.1690    -0.9350 H     1 <1>   0.0800 
 31 H        4.6080     4.2480    -2.3270 H     1 <1>   0.0800 
 32 H        7.4260    -2.5440     0.1060 H     1 <1>   0.3700 
 33 H        5.0710    -0.8970    -0.4770 H     1 <1>   0.0800 
 34 H        3.5310    -2.3900     0.5410 H     1 <1>   0.0800 
 35 H        4.7270    -2.2670     1.8070 H     1 <1>   0.0800 
 36 H        6.3260    -2.6520    -2.0350 H     1 <1>   0.0800 
 37 H        4.5800    -2.6380    -1.9820 H     1 <1>   0.0800 
 38 H        3.9450    -4.6640     0.7250 H     1 <1>   0.0800 
 39 H        5.5740    -4.4100     1.3160 H     1 <1>   0.0800 
 40 H        6.4030    -4.6450    -0.7680 H     1 <1>   0.0800 
 41 H        4.7960    -4.8650    -1.4280 H     1 <1>   0.0800 
@<TRIPOS>BOND
  1   1   2  1   
  2   1   3  1   
  3   2   4  1   
  4   2   5  2   
  5   3   6  2   
  6   3   7  1   
  7   4   8  2   
  8   5   6  1   
  9   5   9  1   
 10   6  23  1   
 11   7  24  1   
 12   7  25  1   
 13   7  26  1   
 14   8  10  1   
 15   8  11  1   
 16   9  11  am  
 17   9  12  2   
 18  10  13  1   
 19  11  14  1   
 20  13  15  1   
 21  13  27  1   
 22  13  28  1   
 23  14  29  1   
 24  14  30  1   
 25  14  31  1   
 26  15  16  2   
 27  15  17  am  
 28  17  18  1   
 29  17  32  1   
 30  18  19  1   
 31  18  20  1   
 32  18  33  1   
 33  19  21  1   
 34  19  34  1   
 35  19  35  1   
 36  20  22  1   
 37  20  36  1   
 38  20  37  1   
 39  21  22  1   
 40  21  38  1   
 41  21  39  1   
 42  22  40  1   
 43  22  41  1   
@<TRIPOS>SUBSTRUCTURE
  1 ****   4 GROUP 4 **** **** 0

# MOE 2024.06 (io_trps.svl 2023.06)
