@<TRIPOS>MOLECULE
1-(3,5-Dimethyl-phenyl)-5-oxo-pyrrolidine-3-carboxylic acid (3-methoxy-phenyl)-a
47 49 1 0 0 
SMALL
USER_CHARGES


@<TRIPOS>ATOM
  1 O        0.5120     0.0530     0.7780 O.2   1 <1>  -0.5700 
  2 C        1.6000    -0.2450     0.3510 C.2   1 <1>   0.5690 
  3 N        2.0580    -1.4920     0.0360 N.am  1 <1>  -0.4770 
  4 C        2.6440     0.8040     0.0890 C.3   1 <1>  -0.0990 
  5 C        1.3740    -2.7240     0.0950 C.ar  1 <1>   0.1170 
  6 C        3.4490    -1.4180    -0.4590 C.3   1 <1>   0.1400 
  7 C        3.6640     0.0660    -0.7920 C.3   1 <1>  -0.0190 
  8 C        0.0120    -2.8030    -0.1730 C.ar  1 <1>  -0.1500 
  9 C        2.0490    -3.9010     0.4100 C.ar  1 <1>  -0.1500 
 10 C        5.1020     0.5320    -0.6130 C.2   1 <1>   0.5690 
 11 C       -0.6610    -4.0130    -0.1340 C.ar  1 <1>  -0.1440 
 12 C        1.3920    -5.1180     0.4480 C.ar  1 <1>  -0.1440 
 13 O        5.9700    -0.2960    -0.4960 O.2   1 <1>  -0.5700 
 14 N        5.3340     1.8810    -0.6040 N.am  1 <1>  -0.5470 
 15 C        0.0360    -5.1690     0.1750 C.ar  1 <1>  -0.1500 
 16 C       -2.1490    -4.0760    -0.4270 C.3   1 <1>  -0.0970 
 17 C        2.1380    -6.3950     0.7930 C.3   1 <1>  -0.0970 
 18 C        6.5170     2.6190    -0.4420 C.ar  1 <1>   0.1170 
 19 C        6.4140     3.9490    -0.0580 C.ar  1 <1>  -0.1500 
 20 C        7.7860     2.0910    -0.6610 C.ar  1 <1>  -0.1500 
 21 C        7.5370     4.7390     0.1130 C.ar  1 <1>   0.0820 
 22 C        8.9170     2.8710    -0.4920 C.ar  1 <1>  -0.1500 
 23 O        7.3230     6.0240     0.4920 O.3   1 <1>  -0.3630 
 24 C        8.7990     4.1940    -0.1050 C.ar  1 <1>  -0.1500 
 25 C        8.3990     6.9090     0.7110 C.3   1 <1>   0.0400 
 26 H        3.0700     1.0960     1.0320 H     1 <1>   0.0800 
 27 H        2.2130     1.6540    -0.4070 H     1 <1>   0.0800 
 28 H        3.5840    -2.0390    -1.3280 H     1 <1>   0.0800 
 29 H        4.1130    -1.7400     0.3250 H     1 <1>   0.0800 
 30 H        3.3970     0.2050    -1.8240 H     1 <1>   0.0800 
 31 H       -0.5270    -1.9060    -0.4160 H     1 <1>   0.1500 
 32 H        3.0980    -3.8640     0.6360 H     1 <1>   0.1500 
 33 H        4.5010     2.4620    -0.6780 H     1 <1>   0.3700 
 34 H       -0.4810    -6.1120     0.2050 H     1 <1>   0.1500 
 35 H       -2.6010    -3.1090    -0.3030 H     1 <1>   0.0800 
 36 H       -2.6300    -4.7630     0.2450 H     1 <1>   0.0800 
 37 H       -2.3070    -4.4060    -1.4380 H     1 <1>   0.0800 
 38 H        3.2010    -6.2400     0.7530 H     1 <1>   0.0800 
 39 H        1.8810    -7.1720     0.0970 H     1 <1>   0.0800 
 40 H        1.8730    -6.7130     1.7850 H     1 <1>   0.0800 
 41 H        5.4520     4.3900     0.1190 H     1 <1>   0.1500 
 42 H        7.9030     1.0680    -0.9670 H     1 <1>   0.1500 
 43 H        9.8900     2.4450    -0.6630 H     1 <1>   0.1500 
 44 H        9.6910     4.7780     0.0190 H     1 <1>   0.1500 
 45 H        7.9940     7.8600     1.0080 H     1 <1>   0.0800 
 46 H        8.9540     7.0170    -0.2040 H     1 <1>   0.0800 
 47 H        9.0210     6.5160     1.4960 H     1 <1>   0.0800 
@<TRIPOS>BOND
  1   1   2  2   
  2   2   3  am  
  3   2   4  1   
  4   3   5  1   
  5   3   6  1   
  6   4   7  1   
  7   4  26  1   
  8   4  27  1   
  9   5   8  ar  
 10   5   9  ar  
 11   6   7  1   
 12   6  28  1   
 13   6  29  1   
 14   7  10  1   
 15   7  30  1   
 16   8  11  ar  
 17   8  31  1   
 18   9  12  ar  
 19   9  32  1   
 20  10  13  2   
 21  10  14  am  
 22  11  15  ar  
 23  11  16  1   
 24  12  15  ar  
 25  12  17  1   
 26  14  18  1   
 27  14  33  1   
 28  15  34  1   
 29  16  35  1   
 30  16  36  1   
 31  16  37  1   
 32  17  38  1   
 33  17  39  1   
 34  17  40  1   
 35  18  19  ar  
 36  18  20  ar  
 37  19  21  ar  
 38  19  41  1   
 39  20  22  ar  
 40  20  42  1   
 41  21  23  1   
 42  21  24  ar  
 43  22  24  ar  
 44  22  43  1   
 45  23  25  1   
 46  24  44  1   
 47  25  45  1   
 48  25  46  1   
 49  25  47  1   
@<TRIPOS>SUBSTRUCTURE
  1 ****   7 GROUP 4 **** **** 0

# MOE 2024.06 (io_trps.svl 2023.06)
