@<TRIPOS>MOLECULE
3-Chloro-4-methoxy-N-[4-(piperidine-1-sulfonyl)-phenyl]-benzenesulfonamide
49 51 1 0 0 
SMALL
USER_CHARGES


@<TRIPOS>ATOM
  1 CL       5.1100     3.3430    -1.8560 Cl    1 <1>  -0.1770 
  2 C        4.4580     2.1240    -0.7830 C.ar  1 <1>   0.1770 
  3 C        3.9430     2.4660     0.4630 C.ar  1 <1>   0.0830 
  4 C        4.4810     0.8080    -1.2040 C.ar  1 <1>  -0.1500 
  5 O        3.9100     3.7390     0.9080 O.3   1 <1>  -0.3630 
  6 C        3.4670     1.4620     1.2890 C.ar  1 <1>  -0.1500 
  7 C        4.0040    -0.2100    -0.3840 C.ar  1 <1>  -0.0090 
  8 C        2.9020     4.5720     0.3800 C.3   1 <1>   0.0400 
  9 C        3.4970     0.1430     0.8650 C.ar  1 <1>  -0.1500 
 10 S        4.0380    -1.9410    -0.9220 S.o2  1 <1>   1.4470 
 11 O        3.1810    -2.1140    -2.0680 O.2   1 <1>  -0.6500 
 12 O        3.9630    -2.8350     0.2090 O.2   1 <1>  -0.6500 
 13 N        5.6100    -2.0990    -1.5910 N.am  1 <1>  -0.7570 
 14 C        6.8490    -2.0120    -0.9750 C.ar  1 <1>   0.1990 
 15 C        7.9930    -2.0720    -1.7590 C.ar  1 <1>  -0.1500 
 16 C        7.0040    -1.8520     0.3980 C.ar  1 <1>  -0.1500 
 17 C        9.2500    -1.9660    -1.1910 C.ar  1 <1>  -0.1500 
 18 C        8.2630    -1.7470     0.9610 C.ar  1 <1>  -0.1500 
 19 C        9.4110    -1.7980     0.1790 C.ar  1 <1>  -0.0090 
 20 S       11.0650    -1.6510     0.9080 S.o2  1 <1>   1.4470 
 21 O       10.9660    -1.2460     2.2940 O.2   1 <1>  -0.6500 
 22 O       11.8300    -2.8290     0.5640 O.2   1 <1>  -0.6500 
 23 N       11.7380    -0.3460     0.0600 N.am  1 <1>  -0.8490 
 24 C       11.1360     0.9340     0.4520 C.3   1 <1>   0.1960 
 25 C       13.1960    -0.3060     0.2150 C.3   1 <1>   0.1960 
 26 C       11.6540     2.0610    -0.4460 C.3   1 <1>  -0.1600 
 27 C       13.7980     0.7840    -0.6790 C.3   1 <1>  -0.1600 
 28 C       13.1830     2.1570    -0.3880 C.3   1 <1>  -0.1600 
 29 H        4.8800     0.5790    -2.1760 H     1 <1>   0.1500 
 30 H        3.0760     1.7180     2.2580 H     1 <1>   0.1500 
 31 H        2.9760     5.5330     0.8570 H     1 <1>   0.0800 
 32 H        1.9420     4.1320     0.5860 H     1 <1>   0.0800 
 33 H        3.0460     4.6790    -0.6800 H     1 <1>   0.0800 
 34 H        3.1200    -0.6280     1.5190 H     1 <1>   0.1500 
 35 H        5.5470    -2.3840    -2.5630 H     1 <1>   0.4200 
 36 H        7.9030    -2.2010    -2.8220 H     1 <1>   0.1500 
 37 H        6.1460    -1.8160     1.0440 H     1 <1>   0.1500 
 38 H       10.1270    -2.0130    -1.8160 H     1 <1>   0.1500 
 39 H        8.3570    -1.6260     2.0280 H     1 <1>   0.1500 
 40 H       11.3710     1.1530     1.4820 H     1 <1>   0.0800 
 41 H       10.0640     0.8780     0.3570 H     1 <1>   0.0800 
 42 H       13.6200    -1.2550    -0.0700 H     1 <1>   0.0800 
 43 H       13.4490    -0.1220     1.2470 H     1 <1>   0.0800 
 44 H       11.2220     2.9950    -0.1330 H     1 <1>   0.0800 
 45 H       11.3380     1.8730    -1.4570 H     1 <1>   0.0800 
 46 H       13.6240     0.5180    -1.7080 H     1 <1>   0.0800 
 47 H       14.8620     0.8220    -0.5260 H     1 <1>   0.0800 
 48 H       13.4850     2.4830     0.5930 H     1 <1>   0.0800 
 49 H       13.5360     2.8790    -1.1050 H     1 <1>   0.0800 
@<TRIPOS>BOND
  1   1   2  1   
  2   2   3  ar  
  3   2   4  ar  
  4   3   5  1   
  5   3   6  ar  
  6   4   7  ar  
  7   4  29  1   
  8   5   8  1   
  9   6   9  ar  
 10   6  30  1   
 11   7   9  ar  
 12   7  10  1   
 13   8  31  1   
 14   8  32  1   
 15   8  33  1   
 16   9  34  1   
 17  10  11  2   
 18  10  12  2   
 19  10  13  am  
 20  13  14  1   
 21  13  35  1   
 22  14  15  ar  
 23  14  16  ar  
 24  15  17  ar  
 25  15  36  1   
 26  16  18  ar  
 27  16  37  1   
 28  17  19  ar  
 29  17  38  1   
 30  18  19  ar  
 31  18  39  1   
 32  19  20  1   
 33  20  21  2   
 34  20  22  2   
 35  20  23  am  
 36  23  24  1   
 37  23  25  1   
 38  24  26  1   
 39  24  40  1   
 40  24  41  1   
 41  25  27  1   
 42  25  42  1   
 43  25  43  1   
 44  26  28  1   
 45  26  44  1   
 46  26  45  1   
 47  27  28  1   
 48  27  46  1   
 49  27  47  1   
 50  28  48  1   
 51  28  49  1   
@<TRIPOS>SUBSTRUCTURE
  1 ****  16 GROUP 4 **** **** 0

# MOE 2024.06 (io_trps.svl 2023.06)
