@<TRIPOS>MOLECULE
4-Fluoro-N-(4-methoxy-phenyl)-N-[2-(4-methyl-piperidin-1-yl)-2-oxo-ethyl]-benzen
54 56 1 0 0 
SMALL
USER_CHARGES


@<TRIPOS>ATOM
  1 S        0.5760    -0.3390     0.2270 S.o2  1 <1>   1.4470 
  2 O        0.9270     0.1300     1.5480 O.2   1 <1>  -0.6500 
  3 O        1.4930    -1.1500    -0.5370 O.2   1 <1>  -0.6500 
  4 N        0.2180     1.0690    -0.7220 N.am  1 <1>  -0.6930 
  5 C       -1.0370    -1.1730     0.2550 C.ar  1 <1>  -0.0090 
  6 C       -0.8760     1.8840    -0.4370 C.ar  1 <1>   0.1990 
  7 C        1.0690     1.3500    -1.9250 C.3   1 <1>   0.2570 
  8 C       -1.3750    -2.1070    -0.7230 C.ar  1 <1>  -0.1500 
  9 C       -1.9830    -0.8700     1.2330 C.ar  1 <1>  -0.1500 
 10 C       -1.8700     2.0810    -1.3890 C.ar  1 <1>  -0.1500 
 11 C       -1.0080     2.5050     0.8000 C.ar  1 <1>  -0.1500 
 12 C        2.5950     1.3080    -1.7290 C.2   1 <1>   0.5690 
 13 C       -2.6160    -2.7240    -0.7310 C.ar  1 <1>  -0.1500 
 14 C       -3.2290    -1.4740     1.2420 C.ar  1 <1>  -0.1500 
 15 C       -2.9710     2.8740    -1.1170 C.ar  1 <1>  -0.1500 
 16 C       -2.1070     3.2980     1.0780 C.ar  1 <1>  -0.1500 
 17 O        3.2270     0.7510    -2.5980 O.2   1 <1>  -0.5700 
 18 N        3.2250     1.8890    -0.6500 N.am  1 <1>  -0.6600 
 19 C       -3.5230    -2.3940     0.2550 C.ar  1 <1>   0.1900 
 20 C       -3.0950     3.4870     0.1260 C.ar  1 <1>   0.0830 
 21 C        4.6300     1.5290    -0.3090 C.3   1 <1>   0.1400 
 22 C        2.5860     2.8290     0.3130 C.3   1 <1>   0.1400 
 23 F       -4.6940    -2.9670     0.2540 F     1 <1>  -0.1900 
 24 O       -4.1420     4.2780     0.4840 O.3   1 <1>  -0.3620 
 25 C        5.4830     2.7930    -0.1850 C.3   1 <1>  -0.1600 
 26 C        3.4340     4.0970     0.4560 C.3   1 <1>  -0.1600 
 27 C       -5.2180     4.5010    -0.4010 C.3   1 <1>   0.0400 
 28 C        4.8870     3.7730     0.8360 C.3   1 <1>  -0.0800 
 29 C        5.7250     5.0540     0.9100 C.3   1 <1>  -0.2400 
 30 H        0.8240     2.3220    -2.3120 H     1 <1>   0.0800 
 31 H        0.8230     0.6290    -2.6830 H     1 <1>   0.0800 
 32 H       -0.6570    -2.3560    -1.4880 H     1 <1>   0.1500 
 33 H       -1.7410    -0.1480     1.9970 H     1 <1>   0.1500 
 34 H       -1.7850     1.6030    -2.3470 H     1 <1>   0.1500 
 35 H       -0.2510     2.3710     1.5510 H     1 <1>   0.1500 
 36 H       -2.8770    -3.4470    -1.4840 H     1 <1>   0.1500 
 37 H       -3.9590    -1.2390     1.9960 H     1 <1>   0.1500 
 38 H       -3.7190     3.0000    -1.8770 H     1 <1>   0.1500 
 39 H       -2.2060     3.7760     2.0360 H     1 <1>   0.1500 
 40 H        5.0510     0.8820    -1.0600 H     1 <1>   0.0800 
 41 H        4.6320     0.9920     0.6240 H     1 <1>   0.0800 
 42 H        2.4880     2.3400     1.2670 H     1 <1>   0.0800 
 43 H        1.6090     3.1160    -0.0250 H     1 <1>   0.0800 
 44 H        5.5500     3.2580    -1.1530 H     1 <1>   0.0800 
 45 H        6.4770     2.5140     0.1160 H     1 <1>   0.0800 
 46 H        2.9950     4.7270     1.2090 H     1 <1>   0.0800 
 47 H        3.4110     4.6330    -0.4760 H     1 <1>   0.0800 
 48 H       -5.9290     5.1380     0.0930 H     1 <1>   0.0800 
 49 H       -5.6770     3.5580    -0.6390 H     1 <1>   0.0800 
 50 H       -4.8480     4.9870    -1.2870 H     1 <1>   0.0800 
 51 H        4.8920     3.3040     1.8060 H     1 <1>   0.0800 
 52 H        5.7450     5.5510    -0.0440 H     1 <1>   0.0800 
 53 H        6.7350     4.8220     1.1970 H     1 <1>   0.0800 
 54 H        5.3130     5.7280     1.6400 H     1 <1>   0.0800 
@<TRIPOS>BOND
  1   1   2  2   
  2   1   3  2   
  3   1   4  am  
  4   1   5  1   
  5   4   6  1   
  6   4   7  1   
  7   5   8  ar  
  8   5   9  ar  
  9   6  10  ar  
 10   6  11  ar  
 11   7  12  1   
 12   7  30  1   
 13   7  31  1   
 14   8  13  ar  
 15   8  32  1   
 16   9  14  ar  
 17   9  33  1   
 18  10  15  ar  
 19  10  34  1   
 20  11  16  ar  
 21  11  35  1   
 22  12  17  2   
 23  12  18  am  
 24  13  19  ar  
 25  13  36  1   
 26  14  19  ar  
 27  14  37  1   
 28  15  20  ar  
 29  15  38  1   
 30  16  20  ar  
 31  16  39  1   
 32  18  21  1   
 33  18  22  1   
 34  19  23  1   
 35  20  24  1   
 36  21  25  1   
 37  21  40  1   
 38  21  41  1   
 39  22  26  1   
 40  22  42  1   
 41  22  43  1   
 42  24  27  1   
 43  25  28  1   
 44  25  44  1   
 45  25  45  1   
 46  26  28  1   
 47  26  46  1   
 48  26  47  1   
 49  27  48  1   
 50  27  49  1   
 51  27  50  1   
 52  28  29  1   
 53  28  51  1   
 54  29  52  1   
 55  29  53  1   
 56  29  54  1   
@<TRIPOS>SUBSTRUCTURE
  1 ****   4 GROUP 4 **** **** 0

# MOE 2024.06 (io_trps.svl 2023.06)
