@<TRIPOS>MOLECULE
(4-Oxo-2-pyrrolidin-1-yl-4,5-dihydro-thiazol-5-yl)-acetic acid
26 27 1 0 0 
SMALL
USER_CHARGES


@<TRIPOS>ATOM
  1 S       -0.0040    -0.0350     0.9950 S.3   1 <1>  -0.3710 
  2 C       -1.4270     0.7040     0.2760 C.2   1 <1>   0.6410 
  3 C        0.9590     1.5070     0.8570 C.3   1 <1>   0.2110 
  4 N       -1.3230     1.9420    -0.0110 N.2   1 <1>  -0.6610 
  5 N       -2.5150    -0.0810     0.0910 N.pl3 1 <1>  -0.7880 
  6 C       -0.1000     2.4660     0.2950 C.2   1 <1>   0.7200 
  7 C        2.1610     1.2000    -0.0400 C.3   1 <1>  -0.2660 
  8 C       -3.7780     0.4320    -0.4730 C.3   1 <1>   0.2090 
  9 C       -2.6080    -1.5160     0.4260 C.3   1 <1>   0.2090 
 10 O        0.1150     3.6440     0.1610 O.2   1 <1>  -0.5700 
 11 C        3.1900     2.2810     0.0880 C.2   1 <1>   0.9060 
 12 C       -4.7850    -0.6840    -0.2240 C.3   1 <1>  -0.1600 
 13 C       -3.9460    -1.9590    -0.1580 C.3   1 <1>  -0.1600 
 14 O        3.5000     2.6520     1.2230 O.co2 1 <1>  -0.9000 
 15 O        3.7230     2.7100    -0.9360 O.co2 1 <1>  -0.9000 
 16 H        1.2520     1.7960     1.8500 H     1 <1>   0.0800 
 17 H        1.8610     1.1180    -1.0670 H     1 <1>   0.0800 
 18 H        2.6310     0.2870     0.2680 H     1 <1>   0.0800 
 19 H       -3.6470     0.6000    -1.5290 H     1 <1>   0.0800 
 20 H       -4.0690     1.3520     0.0060 H     1 <1>   0.0800 
 21 H       -2.6050    -1.6300     1.4970 H     1 <1>   0.0800 
 22 H       -1.7880    -2.0690    -0.0030 H     1 <1>   0.0800 
 23 H       -5.5350    -0.7230    -0.9940 H     1 <1>   0.0800 
 24 H       -5.2650    -0.5120     0.7240 H     1 <1>   0.0800 
 25 H       -4.4070    -2.7250     0.4380 H     1 <1>   0.0800 
 26 H       -3.7810    -2.3390    -1.1510 H     1 <1>   0.0800 
@<TRIPOS>BOND
  1   1   2  1   
  2   1   3  1   
  3   2   4  2   
  4   2   5  1   
  5   3   6  1   
  6   3   7  1   
  7   3  16  1   
  8   4   6  1   
  9   5   8  1   
 10   5   9  1   
 11   6  10  2   
 12   7  11  1   
 13   7  17  1   
 14   7  18  1   
 15   8  12  1   
 16   8  19  1   
 17   8  20  1   
 18   9  13  1   
 19   9  21  1   
 20   9  22  1   
 21  11  14  ar  
 22  11  15  ar  
 23  12  13  1   
 24  12  23  1   
 25  12  24  1   
 26  13  25  1   
 27  13  26  1   
@<TRIPOS>SUBSTRUCTURE
  1 ****   2 GROUP 4 **** **** 0

# MOE 2024.06 (io_trps.svl 2023.06)
