@<TRIPOS>MOLECULE
2-Azepan-1-yl-N-(2-ethoxy-phenyl)-acetamide
45 46 1 0 0 
SMALL
USER_CHARGES


@<TRIPOS>ATOM
  1 O       -0.2410    -0.2860     1.2710 O.2   1 <1>  -0.5700 
  2 C        0.2790    -1.3050     0.8840 C.2   1 <1>   0.5690 
  3 N        1.6150    -1.4330     0.6150 N.am  1 <1>  -0.5470 
  4 C       -0.6480    -2.5100     0.6560 C.3   1 <1>   0.4040 
  5 C        2.6900    -0.5260     0.6630 C.ar  1 <1>   0.1170 
  6 N       -2.0500    -2.1040     0.2630 N.4   1 <1>  -0.9590 
  7 C        3.9280    -0.9780     0.1950 C.ar  1 <1>   0.0830 
  8 C        2.5880     0.7750     1.1450 C.ar  1 <1>  -0.1500 
  9 C       -3.0370    -3.2050     0.3980 C.3   1 <1>   0.3430 
 10 C       -2.0940    -1.4910    -1.0890 C.3   1 <1>   0.3430 
 11 O        3.9810    -2.2660    -0.2650 O.3   1 <1>  -0.3630 
 12 C        5.0320    -0.1320     0.2110 C.ar  1 <1>  -0.1500 
 13 C        3.6900     1.6110     1.1590 C.ar  1 <1>  -0.1500 
 14 C       -4.4400    -2.6570     0.6720 C.3   1 <1>  -0.1600 
 15 C       -2.9330    -0.2130    -1.0590 C.3   1 <1>  -0.1600 
 16 C        5.1900    -2.8240    -0.7280 C.3   1 <1>   0.1200 
 17 C        4.9110     1.1600     0.6920 C.ar  1 <1>  -0.1500 
 18 C       -4.9770    -1.6240    -0.3360 C.3   1 <1>  -0.1600 
 19 C       -4.2470    -0.2740    -0.2580 C.3   1 <1>  -0.1600 
 20 C        4.9150    -4.2650    -1.1470 C.3   1 <1>  -0.2400 
 21 H        1.9600    -2.3390     0.2850 H     1 <1>   0.3700 
 22 H       -0.6840    -3.0660     1.5760 H     1 <1>   0.0800 
 23 H       -0.2250    -3.1430    -0.1050 H     1 <1>   0.0800 
 24 H       -2.3070    -1.3420     0.9140 H     1 <1>   0.4500 
 25 H        1.6550     1.1530     1.5180 H     1 <1>   0.1500 
 26 H       -2.7580    -3.8470     1.2180 H     1 <1>   0.0800 
 27 H       -3.0470    -3.8000    -0.5020 H     1 <1>   0.0800 
 28 H       -2.5230    -2.1870    -1.7920 H     1 <1>   0.0800 
 29 H       -1.1010    -1.2410    -1.4270 H     1 <1>   0.0800 
 30 H        5.9940    -0.4520    -0.1430 H     1 <1>   0.1500 
 31 H        3.5970     2.6160     1.5350 H     1 <1>   0.1500 
 32 H       -4.4660    -2.2390     1.6640 H     1 <1>   0.0800 
 33 H       -5.1150    -3.4950     0.6790 H     1 <1>   0.0800 
 34 H       -3.1650     0.0390    -2.0800 H     1 <1>   0.0800 
 35 H       -2.3290     0.5920    -0.6760 H     1 <1>   0.0800 
 36 H        5.9110    -2.7930     0.0710 H     1 <1>   0.0800 
 37 H        5.5360    -2.2450    -1.5670 H     1 <1>   0.0800 
 38 H        5.7650     1.8140     0.7040 H     1 <1>   0.1500 
 39 H       -6.0130    -1.4470    -0.0950 H     1 <1>   0.0800 
 40 H       -4.9550    -2.0140    -1.3400 H     1 <1>   0.0800 
 41 H       -4.9000     0.4930    -0.6400 H     1 <1>   0.0800 
 42 H       -4.0590    -0.0250     0.7730 H     1 <1>   0.0800 
 43 H        4.5600    -4.8360    -0.3080 H     1 <1>   0.0800 
 44 H        5.8220    -4.7160    -1.5060 H     1 <1>   0.0800 
 45 H        4.1870    -4.2900    -1.9390 H     1 <1>   0.0800 
@<TRIPOS>BOND
  1   1   2  2   
  2   2   3  am  
  3   2   4  1   
  4   3   5  1   
  5   3  21  1   
  6   4   6  1   
  7   4  22  1   
  8   4  23  1   
  9   5   7  ar  
 10   5   8  ar  
 11   6   9  1   
 12   6  10  1   
 13   6  24  1   
 14   7  11  1   
 15   7  12  ar  
 16   8  13  ar  
 17   8  25  1   
 18   9  14  1   
 19   9  26  1   
 20   9  27  1   
 21  10  15  1   
 22  10  28  1   
 23  10  29  1   
 24  11  16  1   
 25  12  17  ar  
 26  12  30  1   
 27  13  17  ar  
 28  13  31  1   
 29  14  18  1   
 30  14  32  1   
 31  14  33  1   
 32  15  19  1   
 33  15  34  1   
 34  15  35  1   
 35  16  20  1   
 36  16  36  1   
 37  16  37  1   
 38  17  38  1   
 39  18  19  1   
 40  18  39  1   
 41  18  40  1   
 42  19  41  1   
 43  19  42  1   
 44  20  43  1   
 45  20  44  1   
 46  20  45  1   
@<TRIPOS>SUBSTRUCTURE
  1 ****   2 GROUP 4 **** **** 0

# MOE 2024.06 (io_trps.svl 2023.06)
