@<TRIPOS>MOLECULE
4-(8-Methyl-1-propyl-1H-pyrazolo[3,4-b]quinolin-3-ylcarbamoyl)-butyric acid
47 49 1 0 0 
SMALL
USER_CHARGES


@<TRIPOS>ATOM
  1 O       -1.4110    -1.0960    -2.0890 O.co2 1 <1>  -0.9000 
  2 C       -1.4220    -0.5860    -0.9650 C.2   1 <1>   0.9060 
  3 O       -0.4130    -0.4680    -0.2670 O.co2 1 <1>  -0.9000 
  4 C       -2.7420    -0.0970    -0.4160 C.3   1 <1>  -0.2660 
  5 C       -3.7370    -1.2500    -0.2010 C.3   1 <1>  -0.1600 
  6 C       -5.0860    -0.7360     0.3330 C.3   1 <1>  -0.0990 
  7 C       -6.1390    -1.8050     0.5770 C.2   1 <1>   0.5690 
  8 O       -7.1320    -1.4800     1.1810 O.2   1 <1>  -0.5700 
  9 N       -5.9240    -3.0660     0.1170 N.am  1 <1>  -0.4930 
 10 C       -6.6880    -4.2250     0.2020 C.2   1 <1>   0.3520 
 11 N       -6.0760    -5.3550     0.1810 N.2   1 <1>  -0.7070 
 12 C       -8.1030    -4.3530     0.2740 C.ar  1 <1>   0.0000 
 13 N       -7.0630    -6.2910     0.2680 N.pl3 1 <1>   0.3140 
 14 C       -8.3060    -5.7280     0.3240 C.ar  1 <1>   0.1050 
 15 C       -9.2110    -3.5360     0.2810 C.ar  1 <1>  -0.1500 
 16 C       -6.7690    -7.7370     0.2830 C.3   1 <1>   0.0960 
 17 N       -9.4700    -6.3540     0.3980 N.ar  1 <1>  -0.5670 
 18 C      -10.4670    -4.1330     0.3600 C.ar  1 <1>   0.0000 
 19 C       -6.8310    -8.3240    -1.1350 C.3   1 <1>  -0.1600 
 20 C      -10.5560    -5.5560     0.4180 C.ar  1 <1>   0.3100 
 21 C      -11.6560    -3.3670     0.3850 C.ar  1 <1>  -0.1500 
 22 C       -6.5250    -9.8260    -1.1310 C.3   1 <1>  -0.2400 
 23 C      -11.8500    -6.1400     0.4960 C.ar  1 <1>  -0.1440 
 24 C      -12.8790    -3.9630     0.4600 C.ar  1 <1>  -0.1500 
 25 C      -12.9750    -5.3610     0.5160 C.ar  1 <1>  -0.1500 
 26 C      -11.9870    -7.6570     0.5590 C.3   1 <1>  -0.0970 
 27 H       -3.1370     0.6100    -1.1190 H     1 <1>   0.0800 
 28 H       -2.5500     0.4090     0.5110 H     1 <1>   0.0800 
 29 H       -3.3040    -1.9510     0.4940 H     1 <1>   0.0800 
 30 H       -3.8760    -1.7510    -1.1450 H     1 <1>   0.0800 
 31 H       -5.4930    -0.0270    -0.3650 H     1 <1>   0.0800 
 32 H       -4.9200    -0.2190     1.2610 H     1 <1>   0.0800 
 33 H       -4.9900    -3.2570    -0.2380 H     1 <1>   0.3700 
 34 H       -9.1190    -2.4690     0.2250 H     1 <1>   0.1500 
 35 H       -7.4870    -8.2230     0.9180 H     1 <1>   0.0800 
 36 H       -5.7880    -7.8770     0.7000 H     1 <1>   0.0800 
 37 H       -6.1160    -7.8180    -1.7610 H     1 <1>   0.0800 
 38 H       -7.8160    -8.1660    -1.5420 H     1 <1>   0.0800 
 39 H      -11.5690    -2.2960     0.3440 H     1 <1>   0.1500 
 40 H       -5.5370   -10.0100    -0.7440 H     1 <1>   0.0800 
 41 H       -6.5750   -10.2130    -2.1340 H     1 <1>   0.0800 
 42 H       -7.2400   -10.3560    -0.5260 H     1 <1>   0.0800 
 43 H      -13.7820    -3.3780     0.4780 H     1 <1>   0.1500 
 44 H      -13.9560    -5.7980     0.5750 H     1 <1>   0.1500 
 45 H      -11.5500    -8.0990    -0.3180 H     1 <1>   0.0800 
 46 H      -13.0180    -7.9550     0.6150 H     1 <1>   0.0800 
 47 H      -11.4750    -8.0340     1.4260 H     1 <1>   0.0800 
@<TRIPOS>BOND
  1   1   2  ar  
  2   2   3  ar  
  3   2   4  1   
  4   4   5  1   
  5   4  27  1   
  6   4  28  1   
  7   5   6  1   
  8   5  29  1   
  9   5  30  1   
 10   6   7  1   
 11   6  31  1   
 12   6  32  1   
 13   7   8  2   
 14   7   9  am  
 15   9  10  1   
 16   9  33  1   
 17  10  11  2   
 18  10  12  1   
 19  11  13  1   
 20  12  14  ar  
 21  12  15  ar  
 22  13  14  1   
 23  13  16  1   
 24  14  17  ar  
 25  15  18  ar  
 26  15  34  1   
 27  16  19  1   
 28  16  35  1   
 29  16  36  1   
 30  17  20  ar  
 31  18  20  ar  
 32  18  21  ar  
 33  19  22  1   
 34  19  37  1   
 35  19  38  1   
 36  20  23  ar  
 37  21  24  ar  
 38  21  39  1   
 39  22  40  1   
 40  22  41  1   
 41  22  42  1   
 42  23  25  ar  
 43  23  26  1   
 44  24  25  ar  
 45  24  43  1   
 46  25  44  1   
 47  26  45  1   
 48  26  46  1   
 49  26  47  1   
@<TRIPOS>SUBSTRUCTURE
  1 ****  10 GROUP 4 **** **** 0

# MOE 2024.06 (io_trps.svl 2023.06)
