@<TRIPOS>MOLECULE
N-Isopropyl-2,2-dimethyl-N-(3-p-tolyl-[1,2,4]oxadiazol-5-ylmethyl)-propionamide
48 49 1 0 0 
SMALL
USER_CHARGES


@<TRIPOS>ATOM
  1 O       -0.4030     1.4140     1.6430 O.2   1 <1>  -0.5700 
  2 C        0.1410     2.0930     0.8020 C.2   1 <1>   0.5690 
  3 N        1.4430     2.4640     0.9850 N.am  1 <1>  -0.6600 
  4 C       -0.6230     2.4420    -0.5080 C.3   1 <1>   0.0610 
  5 C        1.8570     3.7230     1.6690 C.3   1 <1>   0.2200 
  6 C        2.4100     1.3440     1.1720 C.3   1 <1>   0.3200 
  7 C       -1.4480     3.7300    -0.3340 C.3   1 <1>  -0.2400 
  8 C        0.3290     2.6170    -1.7090 C.3   1 <1>  -0.2400 
  9 C       -1.6010     1.3070    -0.8780 C.3   1 <1>  -0.2400 
 10 C        0.7790     4.2500     2.6170 C.3   1 <1>  -0.2400 
 11 C        2.2520     4.7730     0.6330 C.3   1 <1>  -0.2400 
 12 C        3.7000     1.5820     0.4020 C.2   1 <1>   0.2980 
 13 O        3.6560     1.5660    -0.9040 O.3   1 <1>  -0.0190 
 14 N        4.8440     1.8080     0.9070 N.2   1 <1>  -0.5650 
 15 N        4.8770     1.8070    -1.2630 N.2   1 <1>  -0.4100 
 16 C        5.5840     1.9520    -0.1980 C.2   1 <1>   0.4620 
 17 C        7.0080     2.2400    -0.1570 C.ar  1 <1>   0.0540 
 18 C        7.6980     2.3740     1.0500 C.ar  1 <1>  -0.1500 
 19 C        7.7500     2.3960    -1.3290 C.ar  1 <1>  -0.1500 
 20 C        9.0530     2.6490     1.0850 C.ar  1 <1>  -0.1500 
 21 C        9.1050     2.6720    -1.3000 C.ar  1 <1>  -0.1500 
 22 C        9.7660     2.8010    -0.0910 C.ar  1 <1>  -0.1440 
 23 C       11.2540     3.1020    -0.0560 C.3   1 <1>  -0.0970 
 24 H        2.7300     3.5190     2.2690 H     1 <1>   0.0800 
 25 H        1.9710     0.4220     0.8310 H     1 <1>   0.0800 
 26 H        2.6320     1.2350     2.2190 H     1 <1>   0.0800 
 27 H       -0.8080     4.5740    -0.1640 H     1 <1>   0.0800 
 28 H       -2.1120     3.6310     0.5060 H     1 <1>   0.0800 
 29 H       -2.0360     3.9270    -1.2130 H     1 <1>   0.0800 
 30 H        0.9060     1.7220    -1.8620 H     1 <1>   0.0800 
 31 H        1.0110     3.4310    -1.5490 H     1 <1>   0.0800 
 32 H       -0.2240     2.8210    -2.6090 H     1 <1>   0.0800 
 33 H       -1.0690     0.3800    -0.9930 H     1 <1>   0.0800 
 34 H       -2.1170     1.5240    -1.7960 H     1 <1>   0.0800 
 35 H       -2.3350     1.1760    -0.1020 H     1 <1>   0.0800 
 36 H       -0.1020     4.5510     2.0830 H     1 <1>   0.0800 
 37 H        1.1520     5.1030     3.1540 H     1 <1>   0.0800 
 38 H        0.5160     3.4920     3.3340 H     1 <1>   0.0800 
 39 H        1.4030     5.0870     0.0590 H     1 <1>   0.0800 
 40 H        3.0050     4.3830    -0.0270 H     1 <1>   0.0800 
 41 H        2.6580     5.6360     1.1290 H     1 <1>   0.0800 
 42 H        7.1660     2.2600     1.9780 H     1 <1>   0.1500 
 43 H        7.2570     2.3000    -2.2810 H     1 <1>   0.1500 
 44 H        9.5510     2.7440     2.0340 H     1 <1>   0.1500 
 45 H        9.6440     2.7840    -2.2250 H     1 <1>   0.1500 
 46 H       11.8100     2.1820    -0.0490 H     1 <1>   0.0800 
 47 H       11.5030     3.6650     0.8260 H     1 <1>   0.0800 
 48 H       11.5420     3.6760    -0.9180 H     1 <1>   0.0800 
@<TRIPOS>BOND
  1   1   2  2   
  2   2   3  am  
  3   2   4  1   
  4   3   5  1   
  5   3   6  1   
  6   4   7  1   
  7   4   8  1   
  8   4   9  1   
  9   5  10  1   
 10   5  11  1   
 11   5  24  1   
 12   6  12  1   
 13   6  25  1   
 14   6  26  1   
 15   7  27  1   
 16   7  28  1   
 17   7  29  1   
 18   8  30  1   
 19   8  31  1   
 20   8  32  1   
 21   9  33  1   
 22   9  34  1   
 23   9  35  1   
 24  10  36  1   
 25  10  37  1   
 26  10  38  1   
 27  11  39  1   
 28  11  40  1   
 29  11  41  1   
 30  12  13  1   
 31  12  14  2   
 32  13  15  1   
 33  14  16  1   
 34  15  16  2   
 35  16  17  1   
 36  17  18  ar  
 37  17  19  ar  
 38  18  20  ar  
 39  18  42  1   
 40  19  21  ar  
 41  19  43  1   
 42  20  22  ar  
 43  20  44  1   
 44  21  22  ar  
 45  21  45  1   
 46  22  23  1   
 47  23  46  1   
 48  23  47  1   
 49  23  48  1   
@<TRIPOS>SUBSTRUCTURE
  1 ****  12 GROUP 4 **** **** 0

# MOE 2024.06 (io_trps.svl 2023.06)
