@<TRIPOS>MOLECULE
Tetrahydro-furan-2-carboxylic acid (2,4-dioxo-1,2,3,4-tetrahydro-pyrimidin-5-yl)
27 28 1 0 0 
SMALL
USER_CHARGES


@<TRIPOS>ATOM
  1 O       -0.8070     0.0990     0.7280 O.2   1 <1>  -0.5700 
  2 C       -1.7140    -0.6720     0.5150 C.2   1 <1>   0.6900 
  3 N       -3.0010    -0.3190     0.7600 N.am  1 <1>  -0.4900 
  4 N       -1.4750    -1.9200     0.0220 N.am  1 <1>  -0.5390 
  5 C       -4.0540    -1.1580     0.5340 C.2   1 <1>   0.6160 
  6 C       -2.5020    -2.8290    -0.2340 C.2   1 <1>  -0.0410 
  7 O       -5.1720    -0.7510     0.7890 O.2   1 <1>  -0.5700 
  8 C       -3.7950    -2.4820     0.0100 C.2   1 <1>   0.1230 
  9 N       -4.9090    -3.3370    -0.2180 N.am  1 <1>  -0.5390 
 10 C       -5.0050    -4.6180    -0.6760 C.2   1 <1>   0.5690 
 11 O       -4.0430    -5.2770    -1.0010 O.2   1 <1>  -0.5700 
 12 C       -6.4050    -5.2380    -0.7730 C.3   1 <1>   0.2610 
 13 O       -7.4130    -4.3000    -0.5000 O.3   1 <1>  -0.5600 
 14 C       -6.6620    -6.3520     0.2360 C.3   1 <1>  -0.1600 
 15 C       -8.5890    -4.9550    -0.1430 C.3   1 <1>   0.1200 
 16 C       -8.1670    -6.2990     0.4480 C.3   1 <1>  -0.1600 
 17 H       -3.1850     0.6070     1.1270 H     1 <1>   0.3700 
 18 H       -0.4920    -2.1440    -0.1480 H     1 <1>   0.3700 
 19 H       -2.2140    -3.7910    -0.6240 H     1 <1>   0.1500 
 20 H       -5.8250    -2.9150    -0.0060 H     1 <1>   0.3700 
 21 H       -6.5640    -5.6000    -1.7730 H     1 <1>   0.0800 
 22 H       -6.1480    -6.1290     1.1560 H     1 <1>   0.0800 
 23 H       -6.3240    -7.3040    -0.1330 H     1 <1>   0.0800 
 24 H       -9.1830    -5.0870    -1.0320 H     1 <1>   0.0800 
 25 H       -9.1200    -4.3450     0.5680 H     1 <1>   0.0800 
 26 H       -8.4200    -6.3580     1.4920 H     1 <1>   0.0800 
 27 H       -8.6630    -7.0980    -0.0760 H     1 <1>   0.0800 
@<TRIPOS>BOND
  1   1   2  2   
  2   2   3  am  
  3   2   4  am  
  4   3   5  am  
  5   3  17  1   
  6   4   6  1   
  7   4  18  1   
  8   5   7  2   
  9   5   8  1   
 10   6   8  2   
 11   6  19  1   
 12   8   9  1   
 13   9  10  am  
 14   9  20  1   
 15  10  11  2   
 16  10  12  1   
 17  12  13  1   
 18  12  14  1   
 19  12  21  1   
 20  13  15  1   
 21  14  16  1   
 22  14  22  1   
 23  14  23  1   
 24  15  16  1   
 25  15  24  1   
 26  15  25  1   
 27  16  26  1   
 28  16  27  1   
@<TRIPOS>SUBSTRUCTURE
  1 ****   9 GROUP 4 **** **** 0

# MOE 2024.06 (io_trps.svl 2023.06)
