@<TRIPOS>MOLECULE
1-(4-Methoxy-3-methyl-benzenesulfonyl)-piperidine-4-carboxylic acid [2-(4-methox
61 63 1 0 0 
SMALL
USER_CHARGES


@<TRIPOS>ATOM
  1 S       -0.0380    -0.6470    -2.2970 S.o2  1 <1>   1.4470 
  2 O        0.3320    -1.9460    -2.8160 O.2   1 <1>  -0.6500 
  3 O       -0.5380     0.3610    -3.2090 O.2   1 <1>  -0.6500 
  4 N        1.3430     0.0130    -1.5660 N.am  1 <1>  -0.8490 
  5 C       -1.1780    -0.8630    -0.9030 C.ar  1 <1>  -0.0090 
  6 C        1.1170     1.3890    -1.1120 C.3   1 <1>   0.1960 
  7 C        2.5090    -0.0800    -2.4470 C.3   1 <1>   0.1960 
  8 C       -2.4700    -0.3540    -0.9390 C.ar  1 <1>  -0.1500 
  9 C       -0.7810    -1.5440     0.2410 C.ar  1 <1>  -0.1500 
 10 C        2.3270     1.8890    -0.3200 C.3   1 <1>  -0.1600 
 11 C        3.7700     0.3810    -1.7110 C.3   1 <1>  -0.1600 
 12 C       -3.3440    -0.5060     0.1260 C.ar  1 <1>  -0.1430 
 13 C       -1.6380    -1.7080     1.3150 C.ar  1 <1>  -0.1500 
 14 C        3.6130     1.8070    -1.1590 C.3   1 <1>  -0.0190 
 15 C       -2.9280    -1.1870     1.2650 C.ar  1 <1>   0.0830 
 16 C       -4.7500     0.0720     0.0400 C.3   1 <1>  -0.0970 
 17 C        4.8410     2.2340    -0.3580 C.2   1 <1>   0.5690 
 18 O       -3.8140    -1.3120     2.2870 O.3   1 <1>  -0.3630 
 19 O        5.0860     1.6940     0.6930 O.2   1 <1>  -0.5700 
 20 N        5.6400     3.2130    -0.8590 N.am  1 <1>  -0.7300 
 21 C       -3.4900    -2.0050     3.4720 C.3   1 <1>   0.0400 
 22 C        6.8460     3.7380    -0.1730 C.3   1 <1>   0.1400 
 23 C        8.0880     2.9890    -0.6520 C.3   1 <1>  -0.0170 
 24 C        9.3240     3.5270     0.0490 C.ar  1 <1>  -0.1430 
 25 C        9.6470     3.0820     1.3220 C.ar  1 <1>  -0.1500 
 26 C       10.1350     4.4680    -0.5680 C.ar  1 <1>  -0.1500 
 27 C       10.7660     3.5690     1.9750 C.ar  1 <1>  -0.1500 
 28 C       11.2540     4.9560     0.0830 C.ar  1 <1>  -0.1500 
 29 C       11.5780     4.5140     1.3550 C.ar  1 <1>   0.0830 
 30 O       12.6900     5.0440     1.9220 O.3   1 <1>  -0.3630 
 31 C       13.1050     4.6590     3.2130 C.3   1 <1>   0.0400 
 32 H        0.2480     1.4250    -0.4770 H     1 <1>   0.0800 
 33 H        0.9410     2.0330    -1.9590 H     1 <1>   0.0800 
 34 H        2.3490     0.5190    -3.3290 H     1 <1>   0.0800 
 35 H        2.6500    -1.1020    -2.7580 H     1 <1>   0.0800 
 36 H       -2.7930     0.1730    -1.8220 H     1 <1>   0.1500 
 37 H        0.2160    -1.9500     0.2880 H     1 <1>   0.1500 
 38 H        2.4300     1.2890     0.5680 H     1 <1>   0.0800 
 39 H        2.1580     2.9050    -0.0110 H     1 <1>   0.0800 
 40 H        4.6100     0.3390    -2.3800 H     1 <1>   0.0800 
 41 H        3.9630    -0.3020    -0.9000 H     1 <1>   0.0800 
 42 H       -1.2830    -2.2410     2.1760 H     1 <1>   0.1500 
 43 H        3.5060     2.4770    -1.9940 H     1 <1>   0.0800 
 44 H       -4.9130     0.5650    -0.9010 H     1 <1>   0.0800 
 45 H       -4.9000     0.7830     0.8320 H     1 <1>   0.0800 
 46 H       -5.4730    -0.7170     0.1440 H     1 <1>   0.0800 
 47 H        5.4280     3.6330    -1.7640 H     1 <1>   0.3700 
 48 H       -4.3470    -1.9740     4.1210 H     1 <1>   0.0800 
 49 H       -2.6560    -1.5180     3.9440 H     1 <1>   0.0800 
 50 H       -3.2550    -3.0260     3.2260 H     1 <1>   0.0800 
 51 H        6.7400     3.6110     0.8920 H     1 <1>   0.0800 
 52 H        6.9480     4.7900    -0.3750 H     1 <1>   0.0800 
 53 H        8.1950     3.1000    -1.7150 H     1 <1>   0.0800 
 54 H        7.9810     1.9420    -0.4280 H     1 <1>   0.0800 
 55 H        9.0230     2.3510     1.8100 H     1 <1>   0.1500 
 56 H        9.9010     4.8250    -1.5550 H     1 <1>   0.1500 
 57 H       10.9860     3.2030     2.9590 H     1 <1>   0.1500 
 58 H       11.8850     5.6850    -0.3920 H     1 <1>   0.1500 
 59 H       14.0020     5.2030     3.4510 H     1 <1>   0.0800 
 60 H       13.3070     3.6030     3.2140 H     1 <1>   0.0800 
 61 H       12.3300     4.9050     3.9160 H     1 <1>   0.0800 
@<TRIPOS>BOND
  1   1   2  2   
  2   1   3  2   
  3   1   4  am  
  4   1   5  1   
  5   4   6  1   
  6   4   7  1   
  7   5   8  ar  
  8   5   9  ar  
  9   6  10  1   
 10   6  32  1   
 11   6  33  1   
 12   7  11  1   
 13   7  34  1   
 14   7  35  1   
 15   8  12  ar  
 16   8  36  1   
 17   9  13  ar  
 18   9  37  1   
 19  10  14  1   
 20  10  38  1   
 21  10  39  1   
 22  11  14  1   
 23  11  40  1   
 24  11  41  1   
 25  12  15  ar  
 26  12  16  1   
 27  13  15  ar  
 28  13  42  1   
 29  14  17  1   
 30  14  43  1   
 31  15  18  1   
 32  16  44  1   
 33  16  45  1   
 34  16  46  1   
 35  17  19  2   
 36  17  20  am  
 37  18  21  1   
 38  20  22  1   
 39  20  47  1   
 40  21  48  1   
 41  21  49  1   
 42  21  50  1   
 43  22  23  1   
 44  22  51  1   
 45  22  52  1   
 46  23  24  1   
 47  23  53  1   
 48  23  54  1   
 49  24  25  ar  
 50  24  26  ar  
 51  25  27  ar  
 52  25  55  1   
 53  26  28  ar  
 54  26  56  1   
 55  27  29  ar  
 56  27  57  1   
 57  28  29  ar  
 58  28  58  1   
 59  29  30  1   
 60  30  31  1   
 61  31  59  1   
 62  31  60  1   
 63  31  61  1   
@<TRIPOS>SUBSTRUCTURE
  1 ****  14 GROUP 4 **** **** 0

# MOE 2024.06 (io_trps.svl 2023.06)
