@<TRIPOS>MOLECULE
(8,8-Dimethyl-8,9-dihydro-6H-7-oxa-11-thia-2,4,10-triaza-benzo[b]fluoren-1-yl)-(
44 47 1 0 0 
SMALL
USER_CHARGES


@<TRIPOS>ATOM
  1 S       -0.2840    -0.3000     1.5290 S.3   1 <1>  -0.0800 
  2 C       -1.7010     0.4210     0.7560 C.ar  1 <1>   0.2970 
  3 C        0.7540     1.0560     1.0310 C.ar  1 <1>   0.0400 
  4 N       -2.8810    -0.1710     0.7810 N.ar  1 <1>  -0.5670 
  5 C       -1.3640     1.6290     0.1660 C.ar  1 <1>   0.0000 
  6 C        2.1040     1.2760     1.2580 C.ar  1 <1>   0.4100 
  7 C        0.0230     1.9790     0.3290 C.ar  1 <1>   0.2560 
  8 C       -3.8260     0.5120     0.1540 C.ar  1 <1>   0.1660 
  9 C       -2.3760     2.3180    -0.4800 C.ar  1 <1>  -0.1500 
 10 N        2.6710     2.3730     0.8060 N.ar  1 <1>  -0.6200 
 11 N        2.9580     0.4480     1.9300 N.pl3 1 <1>  -0.8690 
 12 N        0.5940     3.0880    -0.1350 N.ar  1 <1>  -0.5660 
 13 C       -3.6310     1.7400    -0.4810 C.ar  1 <1>  -0.1430 
 14 C       -5.2010    -0.1240     0.1320 C.3   1 <1>  -0.0170 
 15 C        1.8800     3.2080     0.1410 C.ar  1 <1>   0.4700 
 16 C        3.0100    -1.0300     1.7610 C.3   1 <1>   0.2090 
 17 C       -4.7890     2.4620    -1.1590 C.3   1 <1>   0.2630 
 18 C       -6.3100     0.8920    -0.1820 C.3   1 <1>   0.2800 
 19 C        3.1510    -1.4160     0.2850 C.3   1 <1>   0.1200 
 20 O       -5.9210     1.6490    -1.2860 O.3   1 <1>  -0.5600 
 21 C       -7.5900     0.1710    -0.6090 C.3   1 <1>  -0.2400 
 22 C       -6.6250     1.8150     1.0070 C.3   1 <1>  -0.2400 
 23 O        3.3250    -2.7960     0.2000 O.3   1 <1>  -0.5600 
 24 C        3.4170    -3.2710    -1.1040 C.3   1 <1>   0.0400 
 25 H       -2.1720     3.2630    -0.9540 H     1 <1>   0.1500 
 26 H        3.8840     0.8730     2.0280 H     1 <1>   0.4000 
 27 H       -5.3980    -0.5890     1.0810 H     1 <1>   0.0800 
 28 H       -5.1960    -0.8980    -0.6130 H     1 <1>   0.0800 
 29 H        2.3550     4.1040    -0.2230 H     1 <1>   0.1500 
 30 H        2.1240    -1.4770     2.1730 H     1 <1>   0.0800 
 31 H        3.8600    -1.4080     2.3020 H     1 <1>   0.0800 
 32 H       -4.5040     2.7650    -2.1510 H     1 <1>   0.0800 
 33 H       -5.0640     3.3390    -0.6010 H     1 <1>   0.0800 
 34 H        4.0130    -0.9350    -0.1440 H     1 <1>   0.0800 
 35 H        2.2620    -1.1460    -0.2580 H     1 <1>   0.0800 
 36 H       -7.4050    -0.4370    -1.4760 H     1 <1>   0.0800 
 37 H       -8.3570     0.8860    -0.8440 H     1 <1>   0.0800 
 38 H       -7.9450    -0.4620     0.1840 H     1 <1>   0.0800 
 39 H       -5.7360     2.2750     1.3980 H     1 <1>   0.0800 
 40 H       -7.0670     1.2450     1.8030 H     1 <1>   0.0800 
 41 H       -7.3220     2.5780     0.7110 H     1 <1>   0.0800 
 42 H        3.5540    -4.3370    -1.0630 H     1 <1>   0.0800 
 43 H        4.2620    -2.8150    -1.5910 H     1 <1>   0.0800 
 44 H        2.5070    -3.0430    -1.6310 H     1 <1>   0.0800 
@<TRIPOS>BOND
  1   1   2  1   
  2   1   3  1   
  3   2   4  ar  
  4   2   5  ar  
  5   3   6  ar  
  6   3   7  ar  
  7   4   8  ar  
  8   5   7  1   
  9   5   9  ar  
 10   6  10  ar  
 11   6  11  1   
 12   7  12  ar  
 13   8  13  ar  
 14   8  14  1   
 15   9  13  ar  
 16   9  25  1   
 17  10  15  ar  
 18  11  16  1   
 19  11  26  1   
 20  12  15  ar  
 21  13  17  1   
 22  14  18  1   
 23  14  27  1   
 24  14  28  1   
 25  15  29  1   
 26  16  19  1   
 27  16  30  1   
 28  16  31  1   
 29  17  20  1   
 30  17  32  1   
 31  17  33  1   
 32  18  20  1   
 33  18  21  1   
 34  18  22  1   
 35  19  23  1   
 36  19  34  1   
 37  19  35  1   
 38  21  36  1   
 39  21  37  1   
 40  21  38  1   
 41  22  39  1   
 42  22  40  1   
 43  22  41  1   
 44  23  24  1   
 45  24  42  1   
 46  24  43  1   
 47  24  44  1   
@<TRIPOS>SUBSTRUCTURE
  1 ****   2 GROUP 4 **** **** 0

# MOE 2024.06 (io_trps.svl 2023.06)
