@<TRIPOS>MOLECULE
2-(2-Ethoxy-benzylamino)-5,6-dimethyl-4H-[1,2,4]triazolo[1,5-a]pyrimidin-7-one
42 44 1 0 0 
SMALL
USER_CHARGES


@<TRIPOS>ATOM
  1 O       -1.9980     0.2570     1.6980 O.2   1 <1>  -0.5700 
  2 C       -2.2370    -0.7560     1.0500 C.2   1 <1>   0.5650 
  3 N       -3.5530    -1.2590     0.9400 N.pl3 1 <1>   0.5610 
  4 C       -1.1950    -1.4690     0.3540 C.2   1 <1>  -0.1240 
  5 N       -4.7420    -0.8420     1.4470 N.2   1 <1>  -0.7070 
  6 C       -3.8110    -2.3290     0.1540 C.2   1 <1>   0.2700 
  7 C       -1.4930    -2.5520    -0.4270 C.2   1 <1>  -0.0380 
  8 C        0.2310    -0.9420     0.5460 C.3   1 <1>  -0.1020 
  9 C       -5.5580    -1.6780     0.9210 C.2   1 <1>   0.5990 
 10 N       -5.0560    -2.6220     0.1150 N.2   1 <1>  -0.5650 
 11 N       -2.7970    -2.9800    -0.5210 N.pl3 1 <1>  -0.5840 
 12 C       -0.5150    -3.3790    -1.2480 C.3   1 <1>  -0.1020 
 13 N       -6.8900    -1.5820     1.1750 N.pl3 1 <1>  -0.8520 
 14 C       -7.7270    -1.4000    -0.0250 C.3   1 <1>   0.3530 
 15 C       -8.4480    -0.0690     0.1050 C.ar  1 <1>  -0.1440 
 16 C       -7.9440     1.0750    -0.5030 C.ar  1 <1>   0.0820 
 17 C       -9.6150     0.0190     0.8490 C.ar  1 <1>  -0.1500 
 18 O       -6.8040     1.0030    -1.2240 O.3   1 <1>  -0.3630 
 19 C       -8.6090     2.2870    -0.3790 C.ar  1 <1>  -0.1500 
 20 C      -10.2760     1.2290     0.9770 C.ar  1 <1>  -0.1500 
 21 C       -5.6910     1.7040    -0.7220 C.3   1 <1>   0.1200 
 22 C       -9.7750     2.3630     0.3620 C.ar  1 <1>  -0.1500 
 23 C       -4.4720     1.3060    -1.5480 C.3   1 <1>  -0.2400 
 24 H        0.3950    -0.6860     1.5790 H     1 <1>   0.0800 
 25 H        0.3740    -0.0550    -0.0450 H     1 <1>   0.0800 
 26 H        0.9790    -1.6630     0.2800 H     1 <1>   0.0800 
 27 H       -3.0750    -3.7910    -1.0860 H     1 <1>   0.4000 
 28 H       -0.9350    -3.5880    -2.2160 H     1 <1>   0.0800 
 29 H       -0.3190    -4.3110    -0.7500 H     1 <1>   0.0800 
 30 H        0.4160    -2.8700    -1.4100 H     1 <1>   0.0800 
 31 H       -7.0010    -0.7480     1.7530 H     1 <1>   0.4000 
 32 H       -8.4420    -2.2030    -0.0790 H     1 <1>   0.0800 
 33 H       -7.1350    -1.4230    -0.9250 H     1 <1>   0.0800 
 34 H      -10.0120    -0.8570     1.3340 H     1 <1>   0.1500 
 35 H       -8.2200     3.1620    -0.8660 H     1 <1>   0.1500 
 36 H      -11.1820     1.2880     1.5560 H     1 <1>   0.1500 
 37 H       -5.5590     1.4370     0.3130 H     1 <1>   0.0800 
 38 H       -5.8820     2.7600    -0.8020 H     1 <1>   0.0800 
 39 H      -10.2910     3.3020     0.4590 H     1 <1>   0.1500 
 40 H       -4.3360     0.2400    -1.5150 H     1 <1>   0.0800 
 41 H       -3.5930     1.7800    -1.1490 H     1 <1>   0.0800 
 42 H       -4.6000     1.6190    -2.5680 H     1 <1>   0.0800 
@<TRIPOS>BOND
  1   1   2  2   
  2   2   3  1   
  3   2   4  1   
  4   3   5  1   
  5   3   6  1   
  6   4   7  2   
  7   4   8  1   
  8   5   9  2   
  9   6  10  2   
 10   6  11  1   
 11   7  11  1   
 12   7  12  1   
 13   8  24  1   
 14   8  25  1   
 15   8  26  1   
 16   9  10  1   
 17   9  13  1   
 18  11  27  1   
 19  12  28  1   
 20  12  29  1   
 21  12  30  1   
 22  13  14  1   
 23  13  31  1   
 24  14  15  1   
 25  14  32  1   
 26  14  33  1   
 27  15  16  ar  
 28  15  17  ar  
 29  16  18  1   
 30  16  19  ar  
 31  17  20  ar  
 32  17  34  1   
 33  18  21  1   
 34  19  22  ar  
 35  19  35  1   
 36  20  22  ar  
 37  20  36  1   
 38  21  23  1   
 39  21  37  1   
 40  21  38  1   
 41  22  39  1   
 42  23  40  1   
 43  23  41  1   
 44  23  42  1   
@<TRIPOS>SUBSTRUCTURE
  1 ****   5 GROUP 4 **** **** 0

# MOE 2024.06 (io_trps.svl 2023.06)
