@<TRIPOS>MOLECULE
2,5-Dimethyl-4-propoxy-N-pyridin-2-yl-benzenesulfonamide
42 43 1 0 0 
SMALL
USER_CHARGES


@<TRIPOS>ATOM
  1 S       -0.1160     0.3980     0.7410 S.o2  1 <1>   1.4970 
  2 O       -0.2240     1.2910     1.8780 O.2   1 <1>  -0.6500 
  3 O       -0.9690    -0.7740     0.7080 O.2   1 <1>  -0.6500 
  4 N       -0.4400     1.2870    -0.6390 N.2   1 <1>  -0.6380 
  5 C        1.6210    -0.1110     0.5040 C.ar  1 <1>  -0.0090 
  6 C       -1.6050     1.7850    -0.7720 C.2   1 <1>   0.4860 
  7 C        2.7020     0.7730     0.5820 C.ar  1 <1>  -0.1440 
  8 C        1.9000    -1.4440     0.2150 C.ar  1 <1>  -0.1500 
  9 N       -1.7980     2.4990    -1.9340 N.pl3 1 <1>  -0.5500 
 10 C       -2.7530     1.7230     0.0990 C.2   1 <1>  -0.1360 
 11 C        3.9970     0.3170     0.3850 C.ar  1 <1>  -0.1500 
 12 C        2.5070     2.2550     0.8860 C.3   1 <1>  -0.0970 
 13 C        3.1880    -1.9070     0.0160 C.ar  1 <1>  -0.1430 
 14 C       -2.9850     3.1230    -2.2670 C.2   1 <1>  -0.0500 
 15 C       -3.9290     2.3290    -0.2120 C.2   1 <1>  -0.1500 
 16 C        4.2530    -1.0210     0.1030 C.ar  1 <1>   0.0830 
 17 C        3.4280    -3.3780    -0.2950 C.3   1 <1>  -0.0970 
 18 C       -4.0470     3.0490    -1.4280 C.2   1 <1>  -0.1500 
 19 O        5.5030    -1.5130    -0.0950 O.3   1 <1>  -0.3620 
 20 C        6.6500    -0.7020     0.0030 C.3   1 <1>   0.1200 
 21 C        7.8780    -1.5750    -0.2610 C.3   1 <1>  -0.1600 
 22 C        9.1720    -0.7590    -0.1720 C.3   1 <1>  -0.2400 
 23 H        1.0810    -2.1400     0.1440 H     1 <1>   0.1500 
 24 H       -0.9850     2.5300    -2.5520 H     1 <1>   0.4000 
 25 H       -2.6750     1.1800     1.0210 H     1 <1>   0.1500 
 26 H        4.8070     1.0160     0.4560 H     1 <1>   0.1500 
 27 H        2.1670     2.3820     1.8990 H     1 <1>   0.0800 
 28 H        1.7860     2.6890     0.2180 H     1 <1>   0.0800 
 29 H        3.4270     2.8000     0.7740 H     1 <1>   0.0800 
 30 H       -3.0250     3.6560    -3.2030 H     1 <1>   0.1500 
 31 H       -4.7830     2.2810     0.4410 H     1 <1>   0.1500 
 32 H        2.5050    -3.9280    -0.3250 H     1 <1>   0.0800 
 33 H        4.0610    -3.8100     0.4590 H     1 <1>   0.0800 
 34 H        3.9160    -3.4730    -1.2490 H     1 <1>   0.0800 
 35 H       -4.9860     3.5230    -1.6560 H     1 <1>   0.1500 
 36 H        6.6870    -0.2830     0.9940 H     1 <1>   0.0800 
 37 H        6.5760     0.0810    -0.7330 H     1 <1>   0.0800 
 38 H        7.7980    -2.0090    -1.2420 H     1 <1>   0.0800 
 39 H        7.9080    -2.3690     0.4650 H     1 <1>   0.0800 
 40 H        9.1710     0.0320    -0.9010 H     1 <1>   0.0800 
 41 H       10.0190    -1.3950    -0.3610 H     1 <1>   0.0800 
 42 H        9.2810    -0.3290     0.8090 H     1 <1>   0.0800 
@<TRIPOS>BOND
  1   1   2  2   
  2   1   3  2   
  3   1   4  1   
  4   1   5  1   
  5   4   6  2   
  6   5   7  ar  
  7   5   8  ar  
  8   6   9  1   
  9   6  10  1   
 10   7  11  ar  
 11   7  12  1   
 12   8  13  ar  
 13   8  23  1   
 14   9  14  1   
 15   9  24  1   
 16  10  15  2   
 17  10  25  1   
 18  11  16  ar  
 19  11  26  1   
 20  12  27  1   
 21  12  28  1   
 22  12  29  1   
 23  13  16  ar  
 24  13  17  1   
 25  14  18  2   
 26  14  30  1   
 27  15  18  1   
 28  15  31  1   
 29  16  19  1   
 30  17  32  1   
 31  17  33  1   
 32  17  34  1   
 33  18  35  1   
 34  19  20  1   
 35  20  21  1   
 36  20  36  1   
 37  20  37  1   
 38  21  22  1   
 39  21  38  1   
 40  21  39  1   
 41  22  40  1   
 42  22  41  1   
 43  22  42  1   
@<TRIPOS>SUBSTRUCTURE
  1 ****   5 GROUP 4 **** **** 0

# MOE 2024.06 (io_trps.svl 2023.06)
