@<TRIPOS>MOLECULE
N-Ethyl-6-(6-propoxy-pyridazin-3-yloxy)-[1,3,5]triazine-2,4-diamine
38 39 1 0 0 
SMALL
USER_CHARGES


@<TRIPOS>ATOM
  1 O        0.2850    -0.4290     0.0840 O.3   1 <1>  -0.1650 
  2 C        0.1790    -1.7460    -0.1560 C.ar  1 <1>   0.7020 
  3 C        1.4740     0.2000     0.1880 C.ar  1 <1>   0.3920 
  4 N        1.2310    -2.5060     0.0180 N.ar  1 <1>  -0.6200 
  5 N       -1.0000    -2.1390    -0.5530 N.ar  1 <1>  -0.6200 
  6 N        1.6520     0.9360     1.2830 N.ar  1 <1>  -0.3100 
  7 C        2.4230     0.0930    -0.8130 C.ar  1 <1>  -0.1500 
  8 C        1.0120    -3.7680    -0.2450 C.ar  1 <1>   0.7200 
  9 C       -1.0590    -3.4180    -0.7830 C.ar  1 <1>   0.7200 
 10 N        2.7860     1.5790     1.4560 N.ar  1 <1>  -0.3100 
 11 C        3.6070     0.7670    -0.6320 C.ar  1 <1>  -0.1500 
 12 N       -0.1090    -4.2930    -0.6450 N.ar  1 <1>  -0.6200 
 13 N        2.0320    -4.6390    -0.0920 N.pl3 1 <1>  -0.8690 
 14 N       -2.2380    -3.8860    -1.1940 N.pl3 1 <1>  -0.9000 
 15 C        3.7490     1.5000     0.5360 C.ar  1 <1>   0.3930 
 16 C        3.2610    -4.3770     0.6760 C.3   1 <1>   0.2090 
 17 O        4.8740     2.1910     0.8350 O.3   1 <1>  -0.3620 
 18 C        4.2550    -5.4910     0.3810 C.3   1 <1>  -0.2400 
 19 C        6.1070     2.0170     0.1680 C.3   1 <1>   0.1200 
 20 C        6.7400     0.6830     0.5840 C.3   1 <1>  -0.1600 
 21 C        8.1010     0.4820    -0.0900 C.3   1 <1>  -0.2400 
 22 H        2.2400    -0.4960    -1.6930 H     1 <1>   0.1500 
 23 H        4.3760     0.7130    -1.3770 H     1 <1>   0.1500 
 24 H        1.7620    -5.6150    -0.1980 H     1 <1>   0.4000 
 25 H       -2.3830    -4.8910    -1.1450 H     1 <1>   0.4000 
 26 H       -3.0500    -3.2880    -1.0640 H     1 <1>   0.4000 
 27 H        3.0300    -4.3480     1.7280 H     1 <1>   0.0800 
 28 H        3.6770    -3.4250     0.3870 H     1 <1>   0.0800 
 29 H        3.8580    -6.4410     0.6920 H     1 <1>   0.0800 
 30 H        5.1680    -5.3110     0.9200 H     1 <1>   0.0800 
 31 H        4.4790    -5.5190    -0.6700 H     1 <1>   0.0800 
 32 H        6.7430     2.8310     0.4700 H     1 <1>   0.0800 
 33 H        5.9530     2.0860    -0.8940 H     1 <1>   0.0800 
 34 H        6.0950    -0.1350     0.3150 H     1 <1>   0.0800 
 35 H        6.8710     0.6770     1.6520 H     1 <1>   0.0800 
 36 H        7.9970     0.4690    -1.1610 H     1 <1>   0.0800 
 37 H        8.5320    -0.4530     0.2220 H     1 <1>   0.0800 
 38 H        8.7770     1.2740     0.1830 H     1 <1>   0.0800 
@<TRIPOS>BOND
  1   1   2  1   
  2   1   3  1   
  3   2   4  ar  
  4   2   5  ar  
  5   3   6  ar  
  6   3   7  ar  
  7   4   8  ar  
  8   5   9  ar  
  9   6  10  ar  
 10   7  11  ar  
 11   7  22  1   
 12   8  12  ar  
 13   8  13  1   
 14   9  12  ar  
 15   9  14  1   
 16  10  15  ar  
 17  11  15  ar  
 18  11  23  1   
 19  13  16  1   
 20  13  24  1   
 21  14  25  1   
 22  14  26  1   
 23  15  17  1   
 24  16  18  1   
 25  16  27  1   
 26  16  28  1   
 27  17  19  1   
 28  18  29  1   
 29  18  30  1   
 30  18  31  1   
 31  19  20  1   
 32  19  32  1   
 33  19  33  1   
 34  20  21  1   
 35  20  34  1   
 36  20  35  1   
 37  21  36  1   
 38  21  37  1   
 39  21  38  1   
@<TRIPOS>SUBSTRUCTURE
  1 ****   7 GROUP 4 **** **** 0

# MOE 2024.06 (io_trps.svl 2023.06)
