@<TRIPOS>MOLECULE
Adamantan-1-yl-[5-(4-fluoro-phenyl)-1H-pyrazol-4-ylmethyl]-amine
49 53 1 0 0 
SMALL
USER_CHARGES


@<TRIPOS>ATOM
  1 F       -2.5760    -2.3870    -3.2890 F     1 <1>  -0.1900 
  2 C       -2.2690    -3.1210    -2.2550 C.ar  1 <1>   0.1900 
  3 C       -1.8050    -4.4050    -2.4610 C.ar  1 <1>  -0.1500 
  4 C       -2.4200    -2.5880    -0.9890 C.ar  1 <1>  -0.1500 
  5 C       -1.4960    -5.1810    -1.3570 C.ar  1 <1>  -0.1500 
  6 C       -2.1070    -3.3770     0.1040 C.ar  1 <1>  -0.1500 
  7 C       -1.6610    -4.6900    -0.0620 C.ar  1 <1>   0.0540 
  8 C       -1.4150    -5.5460     1.0750 C.2   1 <1>   0.2350 
  9 N       -0.2500    -6.0540     1.3600 N.2   1 <1>  -0.7070 
 10 C       -2.3840    -5.9770     1.9890 C.2   1 <1>  -0.1810 
 11 N       -0.4340    -6.7900     2.4660 N.pl3 1 <1>   0.3000 
 12 C       -1.7210    -6.7630     2.8640 C.2   1 <1>  -0.3020 
 13 C       -3.8600    -5.6330     1.9680 C.3   1 <1>   0.5240 
 14 N       -4.4070    -5.7930     0.5950 N.4   1 <1>  -0.9060 
 15 C       -4.8730    -7.1240     0.1690 C.3   1 <1>   0.5030 
 16 C       -3.7620    -8.1900     0.2480 C.3   1 <1>  -0.1600 
 17 C       -6.0780    -7.5720     1.0190 C.3   1 <1>  -0.1600 
 18 C       -5.3190    -6.9760    -1.2980 C.3   1 <1>  -0.1600 
 19 C       -4.2870    -9.5390    -0.2780 C.3   1 <1>  -0.0800 
 20 C       -6.6130    -8.9200     0.4980 C.3   1 <1>  -0.0800 
 21 C       -5.8540    -8.3160    -1.8330 C.3   1 <1>  -0.0800 
 22 C       -5.4930    -9.9760     0.5760 C.3   1 <1>  -0.1600 
 23 C       -4.7390    -9.3740    -1.7410 C.3   1 <1>  -0.1600 
 24 C       -7.0490    -8.7610    -0.9700 C.3   1 <1>  -0.1600 
 25 H       -1.6790    -4.7780    -3.4630 H     1 <1>   0.1500 
 26 H       -2.7630    -1.5740    -0.8730 H     1 <1>   0.1500 
 27 H       -1.1120    -6.1790    -1.4930 H     1 <1>   0.1500 
 28 H       -2.1950    -2.9680     1.0960 H     1 <1>   0.1500 
 29 H        0.3380    -7.2980     2.9210 H     1 <1>   0.2700 
 30 H       -2.0670    -7.3010     3.7300 H     1 <1>   0.1500 
 31 H       -3.9710    -4.6070     2.2810 H     1 <1>   0.0800 
 32 H       -4.3940    -6.2550     2.6670 H     1 <1>   0.0800 
 33 H       -3.6720    -5.5070    -0.0610 H     1 <1>   0.4500 
 34 H       -5.1860    -5.1450     0.4650 H     1 <1>   0.4500 
 35 H       -3.4450    -8.3370     1.2630 H     1 <1>   0.0800 
 36 H       -2.9080    -7.8920    -0.3360 H     1 <1>   0.0800 
 37 H       -6.8670    -6.8420     0.9690 H     1 <1>   0.0800 
 38 H       -5.7940    -7.6980     2.0480 H     1 <1>   0.0800 
 39 H       -4.4900    -6.6660    -1.9120 H     1 <1>   0.0800 
 40 H       -6.0970    -6.2380    -1.3840 H     1 <1>   0.0800 
 41 H       -3.5110   -10.2850    -0.2200 H     1 <1>   0.0800 
 42 H       -7.4540    -9.2390     1.0930 H     1 <1>   0.0800 
 43 H       -6.1660    -8.2080    -2.8590 H     1 <1>   0.0800 
 44 H       -5.1890   -10.1180     1.5990 H     1 <1>   0.0800 
 45 H       -5.8640   -10.9230     0.2200 H     1 <1>   0.0800 
 46 H       -5.1020   -10.3170    -2.1160 H     1 <1>   0.0800 
 47 H       -3.9030    -9.0870    -2.3550 H     1 <1>   0.0800 
 48 H       -7.8470    -8.0420    -1.0440 H     1 <1>   0.0800 
 49 H       -7.4310    -9.7000    -1.3380 H     1 <1>   0.0800 
@<TRIPOS>BOND
  1   1   2  1   
  2   2   3  ar  
  3   2   4  ar  
  4   3   5  ar  
  5   3  25  1   
  6   4   6  ar  
  7   4  26  1   
  8   5   7  ar  
  9   5  27  1   
 10   6   7  ar  
 11   6  28  1   
 12   7   8  1   
 13   8   9  2   
 14   8  10  1   
 15   9  11  1   
 16  10  12  2   
 17  10  13  1   
 18  11  12  1   
 19  11  29  1   
 20  12  30  1   
 21  13  14  1   
 22  13  31  1   
 23  13  32  1   
 24  14  15  1   
 25  14  33  1   
 26  14  34  1   
 27  15  16  1   
 28  15  17  1   
 29  15  18  1   
 30  16  19  1   
 31  16  35  1   
 32  16  36  1   
 33  17  20  1   
 34  17  37  1   
 35  17  38  1   
 36  18  21  1   
 37  18  39  1   
 38  18  40  1   
 39  19  22  1   
 40  19  23  1   
 41  19  41  1   
 42  20  22  1   
 43  20  24  1   
 44  20  42  1   
 45  21  23  1   
 46  21  24  1   
 47  21  43  1   
 48  22  44  1   
 49  22  45  1   
 50  23  46  1   
 51  23  47  1   
 52  24  48  1   
 53  24  49  1   
@<TRIPOS>SUBSTRUCTURE
  1 ****  14 GROUP 4 **** **** 0

# MOE 2024.06 (io_trps.svl 2023.06)
