@<TRIPOS>MOLECULE
NONAME
44 47 1 0 0 
SMALL
USER_CHARGES


@<TRIPOS>ATOM
  1 S       -0.4680     0.0910     0.3560 S.3   1 <1>  -0.0800 
  2 C       -1.5850    -1.2410     0.1760 C.2   1 <1>   0.1660 
  3 C        0.9100    -1.0020     0.3510 C.2   1 <1>  -0.1400 
  4 N       -2.9260    -1.0470     0.1070 N.2   1 <1>  -0.5760 
  5 C       -0.9280    -2.4300     0.1190 C.2   1 <1>  -0.0860 
  6 C        0.5050    -2.2830     0.2190 C.2   1 <1>  -0.1810 
  7 C        2.2660    -0.3360     0.4890 C.3   1 <1>  -0.0600 
  8 C       -3.6260    -2.1160    -0.0310 C.2   1 <1>   0.4500 
  9 C       -1.7490    -3.5880    -0.0230 C.2   1 <1>   0.7160 
 10 C        1.4150    -3.5020     0.1720 C.3   1 <1>  -0.0590 
 11 N       -3.1150    -3.3910    -0.1050 N.am  1 <1>  -0.4200 
 12 O       -1.3100    -4.7310    -0.0570 O.2   1 <1>  -0.5700 
 13 C       -4.0310    -4.5470    -0.2850 C.3   1 <1>   0.1400 
 14 C       -4.2100    -5.3020     1.0390 C.3   1 <1>   0.1400 
 15 N       -5.1260    -6.4590     0.8580 N.am  1 <1>  -0.4200 
 16 C       -6.4910    -6.2620     0.7760 C.2   1 <1>   0.7160 
 17 C       -4.6140    -7.7330     0.7850 C.2   1 <1>   0.4500 
 18 O       -6.9310    -5.1190     0.8100 O.2   1 <1>  -0.5700 
 19 C       -7.3120    -7.4210     0.6340 C.2   1 <1>  -0.0860 
 20 N       -5.3130    -8.8030     0.6460 N.2   1 <1>  -0.5760 
 21 C       -6.6550    -8.6090     0.5780 C.2   1 <1>   0.1660 
 22 C       -8.7450    -7.5680     0.5340 C.2   1 <1>  -0.1810 
 23 S       -7.7700    -9.9420     0.3970 S.3   1 <1>  -0.0800 
 24 C       -9.1500    -8.8500     0.4020 C.2   1 <1>  -0.1400 
 25 C       -9.6550    -6.3500     0.5810 C.3   1 <1>  -0.0590 
 26 C      -10.5050    -9.5160     0.2640 C.3   1 <1>  -0.0600 
 27 H        2.3090     0.2090     1.4150 H     1 <1>   0.0800 
 28 H        2.4170     0.3510    -0.3240 H     1 <1>   0.0800 
 29 H        3.0590    -1.0600     0.4800 H     1 <1>   0.0800 
 30 H       -4.6970    -2.0250    -0.0940 H     1 <1>   0.0600 
 31 H        2.4490    -3.2250     0.2480 H     1 <1>   0.0800 
 32 H        1.2720    -4.0290    -0.7550 H     1 <1>   0.0800 
 33 H        1.1800    -4.1650     0.9850 H     1 <1>   0.0800 
 34 H       -3.6190    -5.2090    -1.0280 H     1 <1>   0.0800 
 35 H       -4.9850    -4.1950    -0.6380 H     1 <1>   0.0800 
 36 H       -4.6230    -4.6400     1.7820 H     1 <1>   0.0800 
 37 H       -3.2560    -5.6540     1.3920 H     1 <1>   0.0800 
 38 H       -3.5430    -7.8240     0.8480 H     1 <1>   0.0600 
 39 H       -9.5130    -5.8230     1.5070 H     1 <1>   0.0800 
 40 H      -10.6890    -6.6280     0.5040 H     1 <1>   0.0800 
 41 H       -9.4210    -5.6860    -0.2320 H     1 <1>   0.0800 
 42 H      -11.2980    -8.7930     0.2730 H     1 <1>   0.0800 
 43 H      -10.6560   -10.2030     1.0770 H     1 <1>   0.0800 
 44 H      -10.5480   -10.0620    -0.6620 H     1 <1>   0.0800 
@<TRIPOS>BOND
  1   1   2  1   
  2   1   3  1   
  3   2   4  1   
  4   2   5  2   
  5   3   6  2   
  6   3   7  1   
  7   4   8  2   
  8   5   6  1   
  9   5   9  1   
 10   6  10  1   
 11   7  27  1   
 12   7  28  1   
 13   7  29  1   
 14   8  11  1   
 15   8  30  1   
 16   9  11  am  
 17   9  12  2   
 18  10  31  1   
 19  10  32  1   
 20  10  33  1   
 21  11  13  1   
 22  13  14  1   
 23  13  34  1   
 24  13  35  1   
 25  14  15  1   
 26  14  36  1   
 27  14  37  1   
 28  15  16  am  
 29  15  17  1   
 30  16  18  2   
 31  16  19  1   
 32  17  20  2   
 33  17  38  1   
 34  19  21  2   
 35  19  22  1   
 36  20  21  1   
 37  21  23  1   
 38  22  24  2   
 39  22  25  1   
 40  23  24  1   
 41  24  26  1   
 42  25  39  1   
 43  25  40  1   
 44  25  41  1   
 45  26  42  1   
 46  26  43  1   
 47  26  44  1   
@<TRIPOS>SUBSTRUCTURE
  1 ****  13 GROUP 4 **** **** 0

# MOE 2024.06 (io_trps.svl 2023.06)
