@<TRIPOS>MOLECULE
(1-Furan-2-yl-ethyl)-methyl-amine
21 21 1 0 0 
SMALL
USER_CHARGES


@<TRIPOS>ATOM
  1 O       -0.0250    -0.2410    -0.1440 O.3   1 <1>  -0.2800 
  2 C        1.0890    -0.9320    -0.3120 C.2   1 <1>  -0.0400 
  3 C       -1.0360    -1.0110    -0.4930 C.2   1 <1>  -0.0100 
  4 C        0.8010    -2.1690    -0.7790 C.2   1 <1>  -0.1500 
  5 C        2.4140    -0.2580     0.0290 C.3   1 <1>   0.6030 
  6 C       -0.5930    -2.2190    -0.8980 C.2   1 <1>  -0.1500 
  7 N        2.6060     0.8960    -0.8700 N.4   1 <1>  -0.9060 
  8 C        3.6030    -1.1910    -0.1700 C.3   1 <1>  -0.2400 
  9 C        1.8560     2.1110    -0.4320 C.3   1 <1>   0.2630 
 10 H       -2.0400    -0.6260    -0.4230 H     1 <1>   0.1500 
 11 H        1.4570    -2.9880    -1.0230 H     1 <1>   0.1500 
 12 H        2.3910     0.0720     1.0560 H     1 <1>   0.0800 
 13 H       -1.1650    -3.0640    -1.2420 H     1 <1>   0.1500 
 14 H        2.2620     0.5980    -1.7910 H     1 <1>   0.4500 
 15 H        3.6080     1.0930    -0.9530 H     1 <1>   0.4500 
 16 H        3.6630    -1.5340    -1.1880 H     1 <1>   0.0800 
 17 H        3.4880    -2.0510     0.4670 H     1 <1>   0.0800 
 18 H        4.5210    -0.7030     0.1040 H     1 <1>   0.0800 
 19 H        0.7970     1.9110    -0.3990 H     1 <1>   0.0800 
 20 H        2.0260     2.9230    -1.1210 H     1 <1>   0.0800 
 21 H        2.1780     2.4200     0.5500 H     1 <1>   0.0800 
@<TRIPOS>BOND
  1   1   2  1   
  2   1   3  1   
  3   2   4  2   
  4   2   5  1   
  5   3   6  2   
  6   3  10  1   
  7   4   6  1   
  8   4  11  1   
  9   5   7  1   
 10   5   8  1   
 11   5  12  1   
 12   6  13  1   
 13   7   9  1   
 14   7  14  1   
 15   7  15  1   
 16   8  16  1   
 17   8  17  1   
 18   8  18  1   
 19   9  19  1   
 20   9  20  1   
 21   9  21  1   
@<TRIPOS>SUBSTRUCTURE
  1 ****   2 GROUP 4 **** **** 0

# MOE 2024.06 (io_trps.svl 2023.06)
