@<TRIPOS>MOLECULE
[1-(3-Chloro-4-ethoxy-benzenesulfonyl)-piperidin-4-yl]-morpholin-4-yl-methanone
52 54 1 0 0 
SMALL
USER_CHARGES


@<TRIPOS>ATOM
  1 CL      -0.3480     0.3000    -0.9740 Cl    1 <1>  -0.1770 
  2 C        0.0470     1.8480    -0.2550 C.ar  1 <1>   0.1770 
  3 C       -0.2100     2.1500     1.0860 C.ar  1 <1>   0.0830 
  4 C        0.6610     2.7690    -1.0830 C.ar  1 <1>  -0.1500 
  5 O       -0.8120     1.3320     1.9860 O.3   1 <1>  -0.3630 
  6 C        0.1860     3.3880     1.5640 C.ar  1 <1>  -0.1500 
  7 C        1.0530     4.0150    -0.6070 C.ar  1 <1>  -0.0090 
  8 C       -1.9130     0.5300     1.6250 C.3   1 <1>   0.1200 
  9 C        0.8020     4.3050     0.7300 C.ar  1 <1>  -0.1500 
 10 S        1.8550     5.2270    -1.6940 S.o2  1 <1>   1.4470 
 11 C       -2.7650     0.3120     2.8720 C.3   1 <1>  -0.2400 
 12 O        2.4260     4.5580    -2.8440 O.2   1 <1>  -0.6500 
 13 O        0.9540     6.3400    -1.8980 O.2   1 <1>  -0.6500 
 14 N        3.1580     5.7850    -0.7620 N.am  1 <1>  -0.8490 
 15 C        3.6570     7.0730    -1.2530 C.3   1 <1>   0.1960 
 16 C        4.2320     4.7920    -0.6650 C.3   1 <1>   0.1960 
 17 C        4.7280     7.6230    -0.3070 C.3   1 <1>  -0.1600 
 18 C        5.3170     5.2700     0.3040 C.3   1 <1>  -0.1600 
 19 C        5.8920     6.6290    -0.1300 C.3   1 <1>  -0.0190 
 20 C        6.9550     7.1260     0.8610 C.2   1 <1>   0.5690 
 21 O        6.5850     7.8020     1.7920 O.2   1 <1>  -0.5700 
 22 N        8.2840     6.8100     0.7010 N.am  1 <1>  -0.6600 
 23 C        9.3290     7.4070     1.5920 C.3   1 <1>   0.1400 
 24 C        8.8610     5.8630    -0.3030 C.3   1 <1>   0.1400 
 25 C       10.2570     6.3200     2.1570 C.3   1 <1>   0.1200 
 26 C        9.8230     4.8680     0.3710 C.3   1 <1>   0.1200 
 27 O       10.7890     5.5420     1.1220 O.3   1 <1>  -0.5600 
 28 H        0.8410     2.5090    -2.1120 H     1 <1>   0.1500 
 29 H        0.0040     3.6310     2.5970 H     1 <1>   0.1500 
 30 H       -1.5420    -0.4100     1.2560 H     1 <1>   0.0800 
 31 H       -2.4790     1.0350     0.8610 H     1 <1>   0.0800 
 32 H        1.0960     5.2650     1.1220 H     1 <1>   0.1500 
 33 H       -2.1890    -0.1850     3.6320 H     1 <1>   0.0800 
 34 H       -3.6140    -0.3010     2.6300 H     1 <1>   0.0800 
 35 H       -3.1180     1.2550     3.2480 H     1 <1>   0.0800 
 36 H        2.8490     7.7840    -1.3000 H     1 <1>   0.0800 
 37 H        4.0590     6.9550    -2.2470 H     1 <1>   0.0800 
 38 H        4.6630     4.6200    -1.6390 H     1 <1>   0.0800 
 39 H        3.8320     3.8580    -0.3060 H     1 <1>   0.0800 
 40 H        4.2680     7.8270     0.6450 H     1 <1>   0.0800 
 41 H        5.1030     8.5540    -0.6930 H     1 <1>   0.0800 
 42 H        6.1010     4.5370     0.3500 H     1 <1>   0.0800 
 43 H        4.8920     5.3560     1.2890 H     1 <1>   0.0800 
 44 H        6.3500     6.5230    -1.0950 H     1 <1>   0.0800 
 45 H        8.8770     7.9400     2.4110 H     1 <1>   0.0800 
 46 H        9.9140     8.1110     1.0270 H     1 <1>   0.0800 
 47 H        9.4020     6.4240    -1.0450 H     1 <1>   0.0800 
 48 H        8.0920     5.3050    -0.8010 H     1 <1>   0.0800 
 49 H        9.7210     5.6800     2.8350 H     1 <1>   0.0800 
 50 H       11.0780     6.7720     2.6840 H     1 <1>   0.0800 
 51 H       10.3360     4.2850    -0.3730 H     1 <1>   0.0800 
 52 H        9.2840     4.2010     1.0220 H     1 <1>   0.0800 
@<TRIPOS>BOND
  1   1   2  1   
  2   2   3  ar  
  3   2   4  ar  
  4   3   5  1   
  5   3   6  ar  
  6   4   7  ar  
  7   4  28  1   
  8   5   8  1   
  9   6   9  ar  
 10   6  29  1   
 11   7   9  ar  
 12   7  10  1   
 13   8  11  1   
 14   8  30  1   
 15   8  31  1   
 16   9  32  1   
 17  10  12  2   
 18  10  13  2   
 19  10  14  am  
 20  11  33  1   
 21  11  34  1   
 22  11  35  1   
 23  14  15  1   
 24  14  16  1   
 25  15  17  1   
 26  15  36  1   
 27  15  37  1   
 28  16  18  1   
 29  16  38  1   
 30  16  39  1   
 31  17  19  1   
 32  17  40  1   
 33  17  41  1   
 34  18  19  1   
 35  18  42  1   
 36  18  43  1   
 37  19  20  1   
 38  19  44  1   
 39  20  21  2   
 40  20  22  am  
 41  22  23  1   
 42  22  24  1   
 43  23  25  1   
 44  23  45  1   
 45  23  46  1   
 46  24  26  1   
 47  24  47  1   
 48  24  48  1   
 49  25  27  1   
 50  25  49  1   
 51  25  50  1   
 52  26  27  1   
 53  26  51  1   
 54  26  52  1   
@<TRIPOS>SUBSTRUCTURE
  1 ****  16 GROUP 4 **** **** 0

# MOE 2024.06 (io_trps.svl 2023.06)
