@<TRIPOS>MOLECULE
8-(2-Ethyl-phenyl)-1,7-dimethyl-3-(2-oxo-propyl)-1H,8H-imidazo[2,1-f]purine-2,4-
50 53 1 0 0 
SMALL
USER_CHARGES


@<TRIPOS>ATOM
  1 O        0.5000     0.2890     0.9270 O.2   1 <1>  -0.5750 
  2 C        1.5370     0.7520     0.4990 C.2   1 <1>   0.6860 
  3 N        1.5010     1.8410    -0.3610 N.am  1 <1>  -0.4260 
  4 N        2.7550     0.2000     0.8790 N.am  1 <1>  -0.4420 
  5 C        2.6620     2.3740    -0.8970 C.2   1 <1>   0.6990 
  6 C        0.3070     2.7420    -0.2930 C.3   1 <1>   0.1940 
  7 C        3.9100     0.8070     0.4270 C.2   1 <1>   0.4200 
  8 C        2.8010    -0.9540     1.8240 C.3   1 <1>   0.0520 
  9 O        2.6080     3.2610    -1.7330 O.2   1 <1>  -0.5750 
 10 C        3.9050     1.8520    -0.4370 C.2   1 <1>   0.2700 
 11 C        0.4700     3.7500     0.8450 C.2   1 <1>   0.4430 
 12 N        5.2010     0.4930     0.7470 N.pl3 1 <1>  -0.7040 
 13 N        5.2490     2.1850    -0.6600 N.pl3 1 <1>  -0.6330 
 14 O        1.4920     3.8460     1.4620 O.2   1 <1>  -0.5750 
 15 C       -0.7200     4.6300     1.1570 C.3   1 <1>  -0.1860 
 16 C        5.9710     1.3540     0.0760 C.cat 1 <1>   1.0690 
 17 C        6.1360     3.0460    -1.2770 C.2   1 <1>   0.2220 
 18 N        7.2810     1.5970    -0.0320 N.pl3 1 <1>  -0.5550 
 19 C        7.3800     2.6860    -0.8890 C.2   1 <1>   0.1580 
 20 C        8.3050     0.8910     0.6210 C.ar  1 <1>   0.3050 
 21 C        8.7210     3.2960    -1.2560 C.3   1 <1>  -0.1090 
 22 C        8.7120    -0.3780     0.2010 C.ar  1 <1>  -0.1510 
 23 C        8.9070     1.4750     1.7280 C.ar  1 <1>  -0.1570 
 24 C        9.7150    -1.0290     0.9040 C.ar  1 <1>  -0.1570 
 25 C        8.1120    -1.0920    -1.0110 C.3   1 <1>  -0.0250 
 26 C        9.9020     0.8150     2.4220 C.ar  1 <1>  -0.1570 
 27 C       10.3040    -0.4410     2.0080 C.ar  1 <1>  -0.1570 
 28 C        8.7330    -0.5920    -2.3160 C.3   1 <1>  -0.2470 
 29 H       -0.5860     2.1640    -0.1340 H     1 <1>   0.0720 
 30 H        0.1920     3.2700    -1.2220 H     1 <1>   0.0720 
 31 H        1.9090    -1.5500     1.7310 H     1 <1>   0.0720 
 32 H        2.8670    -0.5910     2.8350 H     1 <1>   0.0720 
 33 H        3.6460    -1.5840     1.6110 H     1 <1>   0.0720 
 34 H        5.5490    -0.2120     1.3950 H     1 <1>   0.4450 
 35 H       -1.5590     4.0250     1.4490 H     1 <1>   0.0720 
 36 H       -0.9840     5.2140     0.2950 H     1 <1>   0.0720 
 37 H       -0.4770     5.2960     1.9650 H     1 <1>   0.0720 
 38 H        5.8120     3.8410    -1.9330 H     1 <1>   0.1430 
 39 H        9.3600     2.5550    -1.7000 H     1 <1>   0.0720 
 40 H        9.2050     3.6830    -0.3770 H     1 <1>   0.0720 
 41 H        8.5900     4.1010    -1.9570 H     1 <1>   0.0720 
 42 H        8.5990     2.4530     2.0520 H     1 <1>   0.1430 
 43 H       10.0530    -2.0050     0.5960 H     1 <1>   0.1430 
 44 H        7.0460    -0.9640    -1.0470 H     1 <1>   0.0720 
 45 H        8.2940    -2.1500    -0.9300 H     1 <1>   0.0720 
 46 H       10.3670     1.2720     3.2800 H     1 <1>   0.1430 
 47 H       11.0820    -0.9600     2.5430 H     1 <1>   0.1430 
 48 H        8.4990     0.4420    -2.4810 H     1 <1>   0.0720 
 49 H        8.3550    -1.1630    -3.1460 H     1 <1>   0.0720 
 50 H        9.8030    -0.7050    -2.2840 H     1 <1>   0.0720 
@<TRIPOS>BOND
  1   1   2  2   
  2   2   3  am  
  3   2   4  am  
  4   3   5  am  
  5   3   6  1   
  6   4   7  1   
  7   4   8  1   
  8   5   9  2   
  9   5  10  1   
 10   6  11  1   
 11   6  29  1   
 12   6  30  1   
 13   7  10  2   
 14   7  12  1   
 15   8  31  1   
 16   8  32  1   
 17   8  33  1   
 18  10  13  1   
 19  11  14  2   
 20  11  15  1   
 21  12  16  ar  
 22  12  34  1   
 23  13  16  ar  
 24  13  17  1   
 25  15  35  1   
 26  15  36  1   
 27  15  37  1   
 28  16  18  ar  
 29  17  19  2   
 30  17  38  1   
 31  18  19  1   
 32  18  20  1   
 33  19  21  1   
 34  20  22  ar  
 35  20  23  ar  
 36  21  39  1   
 37  21  40  1   
 38  21  41  1   
 39  22  24  ar  
 40  22  25  1   
 41  23  26  ar  
 42  23  42  1   
 43  24  27  ar  
 44  24  43  1   
 45  25  28  1   
 46  25  44  1   
 47  25  45  1   
 48  26  27  ar  
 49  26  46  1   
 50  27  47  1   
 51  28  48  1   
 52  28  49  1   
 53  28  50  1   
@<TRIPOS>SUBSTRUCTURE
  1 ****  16 GROUP 4 **** **** 0

# MOE 2024.06 (io_trps.svl 2023.06)
