@<TRIPOS>MOLECULE
2,3-Dihydro-benzo[1,4]dioxine-6-carboxylic acid [3-chloro-2-(4-ethyl-piperazin-1
53 56 1 0 0 
SMALL
USER_CHARGES


@<TRIPOS>ATOM
  1 CL       0.1450     0.6400    -0.4140 Cl    1 <1>  -0.1770 
  2 C        1.8670     0.5030    -0.0960 C.ar  1 <1>   0.1770 
  3 C        2.6450     1.6550     0.0380 C.ar  1 <1>   0.1000 
  4 C        2.3950    -0.7700     0.0010 C.ar  1 <1>  -0.1500 
  5 N        2.0220     2.9170    -0.0830 N.pl3 1 <1>  -0.8380 
  6 C        4.0250     1.4830     0.2860 C.ar  1 <1>   0.1170 
  7 C        3.7460    -0.9240     0.2410 C.ar  1 <1>  -0.1500 
  8 C        2.5240     3.9610    -1.0140 C.3   1 <1>   0.2090 
  9 C        1.2230     3.4140     1.0750 C.3   1 <1>   0.2090 
 10 N        4.9400     2.5460     0.4310 N.am  1 <1>  -0.5470 
 11 C        4.5450     0.1970     0.3800 C.ar  1 <1>  -0.1500 
 12 C        1.3550     4.8570    -1.4780 C.3   1 <1>   0.3430 
 13 C        0.0680     4.2990     0.5720 C.3   1 <1>   0.3430 
 14 C        4.9700     3.5360     1.3820 C.2   1 <1>   0.5440 
 15 N        0.5510     5.4190    -0.3230 N.4   1 <1>  -0.9590 
 16 O        4.1330     3.5550     2.2630 O.2   1 <1>  -0.5700 
 17 C        6.0010     4.5540     1.3270 C.ar  1 <1>   0.0860 
 18 C       -0.5870     6.2570    -0.7730 C.3   1 <1>   0.3430 
 19 C        6.5840     4.9440     0.1180 C.ar  1 <1>  -0.1500 
 20 C        6.4420     5.1940     2.4900 C.ar  1 <1>  -0.1500 
 21 C       -0.0650     7.5700    -1.3440 C.3   1 <1>  -0.2400 
 22 C        7.5620     5.9180     0.0750 C.ar  1 <1>   0.0830 
 23 C        7.4270     6.1650     2.4570 C.ar  1 <1>  -0.1500 
 24 O        8.0750     6.2710    -1.1300 O.3   1 <1>  -0.3630 
 25 C        7.9990     6.5270     1.2510 C.ar  1 <1>   0.0830 
 26 C        8.8260     7.4720    -1.1820 C.3   1 <1>   0.1200 
 27 O        8.9750     7.4630     1.2360 O.3   1 <1>  -0.3630 
 28 C        9.7360     7.5900     0.0490 C.3   1 <1>   0.1200 
 29 H        1.7540    -1.6260    -0.1100 H     1 <1>   0.1500 
 30 H        4.1730    -1.9100     0.3210 H     1 <1>   0.1500 
 31 H        2.9830     3.4900    -1.8660 H     1 <1>   0.0800 
 32 H        3.2640     4.5630    -0.5190 H     1 <1>   0.0800 
 33 H        1.8460     3.9860     1.7370 H     1 <1>   0.0800 
 34 H        0.8290     2.5810     1.6320 H     1 <1>   0.0800 
 35 H        5.8110     2.4260    -0.0840 H     1 <1>   0.3700 
 36 H        5.5950     0.0650     0.5730 H     1 <1>   0.1500 
 37 H        0.7120     4.2630    -2.1060 H     1 <1>   0.0800 
 38 H        1.7520     5.6600    -2.0760 H     1 <1>   0.0800 
 39 H       -0.4540     4.7050     1.4220 H     1 <1>   0.0800 
 40 H       -0.6180     3.6710     0.0290 H     1 <1>   0.0800 
 41 H        1.1850     5.9990     0.2420 H     1 <1>   0.4500 
 42 H       -1.2310     6.4740     0.0650 H     1 <1>   0.0800 
 43 H       -1.1670     5.7310    -1.5160 H     1 <1>   0.0800 
 44 H        6.2750     4.4990    -0.8090 H     1 <1>   0.1500 
 45 H        6.0030     4.9190     3.4350 H     1 <1>   0.1500 
 46 H        0.5340     8.0920    -0.6190 H     1 <1>   0.0800 
 47 H       -0.9000     8.1990    -1.5960 H     1 <1>   0.0800 
 48 H        0.5050     7.4120    -2.2410 H     1 <1>   0.0800 
 49 H        7.7590     6.6440     3.3620 H     1 <1>   0.1500 
 50 H        8.1360     8.2970    -1.2150 H     1 <1>   0.0800 
 51 H        9.4070     7.4620    -2.0860 H     1 <1>   0.0800 
 52 H       10.2280     8.5450     0.0720 H     1 <1>   0.0800 
 53 H       10.4780     6.8110     0.0430 H     1 <1>   0.0800 
@<TRIPOS>BOND
  1   1   2  1   
  2   2   3  ar  
  3   2   4  ar  
  4   3   5  1   
  5   3   6  ar  
  6   4   7  ar  
  7   4  29  1   
  8   5   8  1   
  9   5   9  1   
 10   6  10  1   
 11   6  11  ar  
 12   7  11  ar  
 13   7  30  1   
 14   8  12  1   
 15   8  31  1   
 16   8  32  1   
 17   9  13  1   
 18   9  33  1   
 19   9  34  1   
 20  10  14  am  
 21  10  35  1   
 22  11  36  1   
 23  12  15  1   
 24  12  37  1   
 25  12  38  1   
 26  13  15  1   
 27  13  39  1   
 28  13  40  1   
 29  14  16  2   
 30  14  17  1   
 31  15  18  1   
 32  15  41  1   
 33  17  19  ar  
 34  17  20  ar  
 35  18  21  1   
 36  18  42  1   
 37  18  43  1   
 38  19  22  ar  
 39  19  44  1   
 40  20  23  ar  
 41  20  45  1   
 42  21  46  1   
 43  21  47  1   
 44  21  48  1   
 45  22  24  1   
 46  22  25  ar  
 47  23  25  ar  
 48  23  49  1   
 49  24  26  1   
 50  25  27  1   
 51  26  28  1   
 52  26  50  1   
 53  26  51  1   
 54  27  28  1   
 55  28  52  1   
 56  28  53  1   
@<TRIPOS>SUBSTRUCTURE
  1 ****  14 GROUP 4 **** **** 0

# MOE 2024.06 (io_trps.svl 2023.06)
