@<TRIPOS>MOLECULE
4-[3-(3,4-Dimethoxy-phenyl)-[1,2,4]oxadiazol-5-yl]-N-(3,4-dimethyl-phenyl)-butyr
54 56 1 0 0 
SMALL
USER_CHARGES


@<TRIPOS>ATOM
  1 O       -0.6340    -0.9090    -1.7020 O.2   1 <1>  -0.5700 
  2 C       -1.5240    -1.6640    -1.4040 C.2   1 <1>   0.5690 
  3 N       -1.5230    -2.9390    -1.8730 N.am  1 <1>  -0.5470 
  4 C       -2.6400    -1.1730    -0.4980 C.3   1 <1>  -0.0990 
  5 C       -2.4470    -3.9590    -1.6390 C.ar  1 <1>   0.1170 
  6 C       -2.2180    -1.1680     0.9830 C.3   1 <1>  -0.1600 
  7 C       -2.3760    -4.7290    -0.4880 C.ar  1 <1>  -0.1500 
  8 C       -3.4550    -4.2140    -2.5550 C.ar  1 <1>  -0.1500 
  9 C       -3.4130    -0.9500     1.9260 C.3   1 <1>   0.0200 
 10 C       -3.2850    -5.7470    -0.2490 C.ar  1 <1>  -0.1430 
 11 C       -4.3690    -5.2250    -2.3250 C.ar  1 <1>  -0.1500 
 12 C       -4.2910    -2.1870     1.9990 C.2   1 <1>   0.2980 
 13 C       -4.2890    -6.0010    -1.1780 C.ar  1 <1>  -0.1440 
 14 C       -3.1620    -6.5660     1.0280 C.3   1 <1>  -0.0970 
 15 O       -4.0150    -3.0990     2.8940 O.3   1 <1>  -0.0190 
 16 N       -5.2810    -2.4390     1.2500 N.2   1 <1>  -0.5650 
 17 C       -5.3070    -7.1160    -0.9750 C.3   1 <1>  -0.0970 
 18 N       -4.9040    -4.0190     2.6910 N.2   1 <1>  -0.4100 
 19 C       -5.6390    -3.6420     1.7050 C.2   1 <1>   0.4620 
 20 C       -6.7220    -4.4080     1.1190 C.ar  1 <1>   0.0540 
 21 C       -7.0980    -4.2350    -0.2120 C.ar  1 <1>  -0.1500 
 22 C       -7.4190    -5.3620     1.8580 C.ar  1 <1>  -0.1500 
 23 C       -8.1110    -4.9750    -0.7930 C.ar  1 <1>   0.0830 
 24 C       -8.4320    -6.1160     1.2960 C.ar  1 <1>  -0.1500 
 25 O       -8.3600    -4.7030    -2.1030 O.3   1 <1>  -0.3630 
 26 C       -8.7890    -5.9440    -0.0390 C.ar  1 <1>   0.0830 
 27 C       -9.6930    -4.5860    -2.5490 C.3   1 <1>   0.0400 
 28 O       -9.7560    -6.7040    -0.6280 O.3   1 <1>  -0.3630 
 29 C      -10.3980    -7.7610     0.0510 C.3   1 <1>   0.0400 
 30 H       -0.7450    -3.1480    -2.4980 H     1 <1>   0.3700 
 31 H       -3.5070    -1.7890    -0.6460 H     1 <1>   0.0800 
 32 H       -2.9040    -0.1760    -0.7990 H     1 <1>   0.0800 
 33 H       -1.4940    -0.3850     1.1320 H     1 <1>   0.0800 
 34 H       -1.7440    -2.1030     1.2280 H     1 <1>   0.0800 
 35 H       -1.5970    -4.5250     0.2220 H     1 <1>   0.1500 
 36 H       -3.5260    -3.6190    -3.4470 H     1 <1>   0.1500 
 37 H       -4.0010    -0.1160     1.5880 H     1 <1>   0.0800 
 38 H       -3.0570    -0.7240     2.9150 H     1 <1>   0.0800 
 39 H       -5.1490    -5.4050    -3.0440 H     1 <1>   0.1500 
 40 H       -2.3610    -6.2010     1.6450 H     1 <1>   0.0800 
 41 H       -2.9650    -7.5950     0.7870 H     1 <1>   0.0800 
 42 H       -4.0720    -6.5070     1.5960 H     1 <1>   0.0800 
 43 H       -5.7690    -7.0310    -0.0090 H     1 <1>   0.0800 
 44 H       -4.8210    -8.0710    -1.0480 H     1 <1>   0.0800 
 45 H       -6.0830    -7.0680    -1.7170 H     1 <1>   0.0800 
 46 H       -6.5780    -3.5110    -0.8140 H     1 <1>   0.1500 
 47 H       -7.1560    -5.5150     2.8910 H     1 <1>   0.1500 
 48 H       -8.9280    -6.8360     1.9180 H     1 <1>   0.1500 
 49 H       -9.6990    -3.9740    -3.4320 H     1 <1>   0.0800 
 50 H      -10.2860    -4.1280    -1.7770 H     1 <1>   0.0800 
 51 H      -10.0680    -5.5660    -2.7850 H     1 <1>   0.0800 
 52 H      -11.0840    -8.2280    -0.6330 H     1 <1>   0.0800 
 53 H      -10.9370    -7.3610     0.8910 H     1 <1>   0.0800 
 54 H       -9.6580    -8.4740     0.3680 H     1 <1>   0.0800 
@<TRIPOS>BOND
  1   1   2  2   
  2   2   3  am  
  3   2   4  1   
  4   3   5  1   
  5   3  30  1   
  6   4   6  1   
  7   4  31  1   
  8   4  32  1   
  9   5   7  ar  
 10   5   8  ar  
 11   6   9  1   
 12   6  33  1   
 13   6  34  1   
 14   7  10  ar  
 15   7  35  1   
 16   8  11  ar  
 17   8  36  1   
 18   9  12  1   
 19   9  37  1   
 20   9  38  1   
 21  10  13  ar  
 22  10  14  1   
 23  11  13  ar  
 24  11  39  1   
 25  12  15  1   
 26  12  16  2   
 27  13  17  1   
 28  14  40  1   
 29  14  41  1   
 30  14  42  1   
 31  15  18  1   
 32  16  19  1   
 33  17  43  1   
 34  17  44  1   
 35  17  45  1   
 36  18  19  2   
 37  19  20  1   
 38  20  21  ar  
 39  20  22  ar  
 40  21  23  ar  
 41  21  46  1   
 42  22  24  ar  
 43  22  47  1   
 44  23  25  1   
 45  23  26  ar  
 46  24  26  ar  
 47  24  48  1   
 48  25  27  1   
 49  26  28  1   
 50  27  49  1   
 51  27  50  1   
 52  27  51  1   
 53  28  29  1   
 54  29  52  1   
 55  29  53  1   
 56  29  54  1   
@<TRIPOS>SUBSTRUCTURE
  1 ****  19 GROUP 4 **** **** 0

# MOE 2024.06 (io_trps.svl 2023.06)
