@<TRIPOS>MOLECULE
7-Ethyl-1,3-dimethyl-8-morpholin-4-ylmethyl-3,7-dihydro-purine-2,6-dione
44 46 1 0 0 
SMALL
USER_CHARGES


@<TRIPOS>ATOM
  1 O        0.4160     0.1360     1.2440 O.2   1 <1>  -0.5700 
  2 C        1.4340     0.7870     1.1280 C.2   1 <1>   0.6900 
  3 N        1.3610     2.1530     0.8760 N.am  1 <1>  -0.4200 
  4 N        2.6680     0.1640     1.2370 N.am  1 <1>  -0.4360 
  5 C        2.5060     2.9090     0.6620 C.2   1 <1>   0.7030 
  6 C        0.0140     2.8010     0.7920 C.3   1 <1>   0.0600 
  7 C        3.8010     0.9240     1.0200 C.2   1 <1>   0.4260 
  8 C        2.7660    -1.2940     1.5460 C.3   1 <1>   0.0600 
  9 O        2.4250     4.0980     0.4090 O.2   1 <1>  -0.5700 
 10 C        3.7790     2.2490     0.7390 C.2   1 <1>   0.2770 
 11 N        5.0920     0.5150     1.0260 N.pl3 1 <1>  -0.7000 
 12 N        5.1140     2.6450     0.5750 N.pl3 1 <1>  -0.7640 
 13 C        5.8630     1.5610     0.7530 C.cat 1 <1>   0.6560 
 14 C        5.5310     4.0310     0.2430 C.3   1 <1>   0.3540 
 15 C        7.3930     1.4380     0.6580 C.3   1 <1>   0.2540 
 16 C        5.4610     4.2190    -1.2680 C.3   1 <1>  -0.2400 
 17 N        7.8210     0.0540     0.3260 N.3   1 <1>  -0.8100 
 18 C        9.2480    -0.1590     0.6630 C.3   1 <1>   0.1100 
 19 C        7.6140    -0.2540    -1.1110 C.3   1 <1>   0.1100 
 20 C        9.7180    -1.5670     0.2540 C.3   1 <1>   0.1200 
 21 C        8.1260    -1.6630    -1.4590 C.3   1 <1>   0.1200 
 22 O        9.4700    -1.7820    -1.1050 O.3   1 <1>  -0.5600 
 23 H       -0.6560     2.3630     1.5130 H     1 <1>   0.0800 
 24 H       -0.3950     2.6570    -0.1920 H     1 <1>   0.0800 
 25 H        0.0780     3.8560     0.9940 H     1 <1>   0.0800 
 26 H        1.8750    -1.6350     2.0470 H     1 <1>   0.0800 
 27 H        3.6040    -1.4850     2.1910 H     1 <1>   0.0800 
 28 H        2.8800    -1.8510     0.6320 H     1 <1>   0.0800 
 29 H        5.4810    -0.4210     1.1690 H     1 <1>   0.4500 
 30 H        6.5360     4.2090     0.5870 H     1 <1>   0.0800 
 31 H        4.8840     4.7400     0.7340 H     1 <1>   0.0800 
 32 H        7.7980     1.7140     1.6160 H     1 <1>   0.0800 
 33 H        7.7730     2.1260    -0.0760 H     1 <1>   0.0800 
 34 H        6.1070     3.5240    -1.7720 H     1 <1>   0.0800 
 35 H        5.7740     5.2170    -1.5200 H     1 <1>   0.0800 
 36 H        4.4510     4.0910    -1.6160 H     1 <1>   0.0800 
 37 H        9.3930    -0.0420     1.7240 H     1 <1>   0.0800 
 38 H        9.8640     0.5660     0.1580 H     1 <1>   0.0800 
 39 H        8.1420     0.4570    -1.7250 H     1 <1>   0.0800 
 40 H        6.5680    -0.1980    -1.3560 H     1 <1>   0.0800 
 41 H        9.2060    -2.3240     0.8230 H     1 <1>   0.0800 
 42 H       10.7760    -1.6700     0.4140 H     1 <1>   0.0800 
 43 H        8.0500    -1.8400    -2.5170 H     1 <1>   0.0800 
 44 H        7.5630    -2.4180    -0.9380 H     1 <1>   0.0800 
@<TRIPOS>BOND
  1   1   2  2   
  2   2   3  am  
  3   2   4  am  
  4   3   5  am  
  5   3   6  1   
  6   4   7  1   
  7   4   8  1   
  8   5   9  2   
  9   5  10  1   
 10   6  23  1   
 11   6  24  1   
 12   6  25  1   
 13   7  10  2   
 14   7  11  1   
 15   8  26  1   
 16   8  27  1   
 17   8  28  1   
 18  10  12  1   
 19  11  13  ar  
 20  11  29  1   
 21  12  13  ar  
 22  12  14  1   
 23  13  15  1   
 24  14  16  1   
 25  14  30  1   
 26  14  31  1   
 27  15  17  1   
 28  15  32  1   
 29  15  33  1   
 30  16  34  1   
 31  16  35  1   
 32  16  36  1   
 33  17  18  1   
 34  17  19  1   
 35  18  20  1   
 36  18  37  1   
 37  18  38  1   
 38  19  21  1   
 39  19  39  1   
 40  19  40  1   
 41  20  22  1   
 42  20  41  1   
 43  20  42  1   
 44  21  22  1   
 45  21  43  1   
 46  21  44  1   
@<TRIPOS>SUBSTRUCTURE
  1 ****  11 GROUP 4 **** **** 0

# MOE 2024.06 (io_trps.svl 2023.06)
