@<TRIPOS>MOLECULE
7,7-Dimethyl-1-(4-o-tolyl-piperazine-1-sulfonylmethyl)-bicyclo[2.2.1]heptan-2-on
57 60 1 0 0 
SMALL
USER_CHARGES


@<TRIPOS>ATOM
  1 S       -2.4050     1.4930     0.1710 S.o2  1 <1>   1.3330 
  2 O       -3.4270     2.5150     0.1710 O.2   1 <1>  -0.6500 
  3 O       -1.9770     0.9440     1.4380 O.2   1 <1>  -0.6500 
  4 N       -2.9770     0.2040    -0.7640 N.am  1 <1>  -0.8490 
  5 C       -1.0470     2.1300    -0.8140 C.3   1 <1>  -0.0550 
  6 C       -2.1480    -1.0130    -0.5960 C.3   1 <1>   0.1960 
  7 C       -4.3750    -0.1200    -0.4220 C.3   1 <1>   0.1960 
  8 C        0.1880     2.5710    -0.0120 C.3   1 <1>   0.0610 
  9 C       -2.6340    -2.1960    -1.4580 C.3   1 <1>   0.2090 
 10 C       -4.9530    -1.2550    -1.2900 C.3   1 <1>   0.2090 
 11 C        1.0720     1.4090     0.4380 C.2   1 <1>   0.4480 
 12 C        1.2290     3.4080    -0.7890 C.3   1 <1>   0.0000 
 13 C       -0.0650     3.4320     1.2510 C.3   1 <1>  -0.1600 
 14 N       -4.0930    -2.4750    -1.2920 N.pl3 1 <1>  -0.8380 
 15 O        0.8070     0.2440     0.4010 O.2   1 <1>  -0.5700 
 16 C        2.4260     1.9970     0.7790 C.3   1 <1>  -0.0990 
 17 C        2.2000     3.4820     0.4080 C.3   1 <1>  -0.0800 
 18 C        0.7380     4.7930    -1.2850 C.3   1 <1>  -0.2400 
 19 C        1.8260     2.7080    -2.0390 C.3   1 <1>  -0.2400 
 20 C        1.3130     4.0680     1.5280 C.3   1 <1>  -0.1600 
 21 C       -4.4760    -3.5430    -0.4800 C.ar  1 <1>   0.1000 
 22 C       -5.0690    -4.6810    -1.0300 C.ar  1 <1>  -0.1440 
 23 C       -4.2770    -3.4890     0.8960 C.ar  1 <1>  -0.1500 
 24 C       -5.4470    -5.7310    -0.2080 C.ar  1 <1>  -0.1500 
 25 C       -5.3010    -4.7790    -2.5310 C.3   1 <1>  -0.0970 
 26 C       -4.6560    -4.5380     1.7110 C.ar  1 <1>  -0.1500 
 27 C       -5.2430    -5.6630     1.1590 C.ar  1 <1>  -0.1500 
 28 H       -1.4140     2.9630    -1.3800 H     1 <1>   0.0800 
 29 H       -0.7400     1.3840    -1.5190 H     1 <1>   0.0800 
 30 H       -2.1480    -1.3210     0.4360 H     1 <1>   0.0800 
 31 H       -1.1300    -0.7980    -0.8650 H     1 <1>   0.0800 
 32 H       -4.9920     0.7510    -0.5620 H     1 <1>   0.0800 
 33 H       -4.4410    -0.4020     0.6160 H     1 <1>   0.0800 
 34 H       -2.0710    -3.0760    -1.2000 H     1 <1>   0.0800 
 35 H       -2.4420    -1.9760    -2.4930 H     1 <1>   0.0800 
 36 H       -5.0560    -0.9030    -2.3010 H     1 <1>   0.0800 
 37 H       -5.9350    -1.5120    -0.9300 H     1 <1>   0.0800 
 38 H       -0.3780     2.8300     2.0870 H     1 <1>   0.0800 
 39 H       -0.8120     4.1880     1.0750 H     1 <1>   0.0800 
 40 H        3.1910     1.5450     0.1750 H     1 <1>   0.0800 
 41 H        2.6620     1.8530     1.8180 H     1 <1>   0.0800 
 42 H        3.1090     4.0330     0.2370 H     1 <1>   0.0800 
 43 H        0.2460     5.3810    -0.5350 H     1 <1>   0.0800 
 44 H        0.0470     4.6770    -2.1010 H     1 <1>   0.0800 
 45 H        1.5750     5.3670    -1.6440 H     1 <1>   0.0800 
 46 H        2.1550     1.7000    -1.8670 H     1 <1>   0.0800 
 47 H        2.6720     3.2680    -2.3980 H     1 <1>   0.0800 
 48 H        1.0970     2.6710    -2.8290 H     1 <1>   0.0800 
 49 H        1.6780     3.8160     2.5100 H     1 <1>   0.0800 
 50 H        1.2620     5.1410     1.4580 H     1 <1>   0.0800 
 51 H       -3.8240    -2.6190     1.3280 H     1 <1>   0.1500 
 52 H       -5.9040    -6.6090    -0.6280 H     1 <1>   0.1500 
 53 H       -5.9400    -3.9760    -2.8500 H     1 <1>   0.0800 
 54 H       -5.7600    -5.7130    -2.7970 H     1 <1>   0.0800 
 55 H       -4.3620    -4.6950    -3.0470 H     1 <1>   0.0800 
 56 H       -4.4950    -4.4810     2.7730 H     1 <1>   0.1500 
 57 H       -5.5390    -6.4820     1.7900 H     1 <1>   0.1500 
@<TRIPOS>BOND
  1   1   2  2   
  2   1   3  2   
  3   1   4  am  
  4   1   5  1   
  5   4   6  1   
  6   4   7  1   
  7   5   8  1   
  8   5  28  1   
  9   5  29  1   
 10   6   9  1   
 11   6  30  1   
 12   6  31  1   
 13   7  10  1   
 14   7  32  1   
 15   7  33  1   
 16   8  11  1   
 17   8  12  1   
 18   8  13  1   
 19   9  14  1   
 20   9  34  1   
 21   9  35  1   
 22  10  14  1   
 23  10  36  1   
 24  10  37  1   
 25  11  15  2   
 26  11  16  1   
 27  12  17  1   
 28  12  18  1   
 29  12  19  1   
 30  13  20  1   
 31  13  38  1   
 32  13  39  1   
 33  14  21  1   
 34  16  17  1   
 35  16  40  1   
 36  16  41  1   
 37  17  20  1   
 38  17  42  1   
 39  18  43  1   
 40  18  44  1   
 41  18  45  1   
 42  19  46  1   
 43  19  47  1   
 44  19  48  1   
 45  20  49  1   
 46  20  50  1   
 47  21  22  ar  
 48  21  23  ar  
 49  22  24  ar  
 50  22  25  1   
 51  23  26  ar  
 52  23  51  1   
 53  24  27  ar  
 54  24  52  1   
 55  25  53  1   
 56  25  54  1   
 57  25  55  1   
 58  26  27  ar  
 59  26  56  1   
 60  27  57  1   
@<TRIPOS>SUBSTRUCTURE
  1 ****   6 GROUP 4 **** **** 0

# MOE 2024.06 (io_trps.svl 2023.06)
