@<TRIPOS>MOLECULE
8-(3-Methoxy-phenyl)-1,7-dimethyl-3-(1-methyl-2-oxo-propyl)-1H,8H-imidazo[2,1-f]
51 54 1 0 0 
SMALL
USER_CHARGES


@<TRIPOS>ATOM
  1 O        0.8100    -0.0240    -0.1810 O.2   1 <1>  -0.5750 
  2 C        1.7450     0.7510    -0.1770 C.2   1 <1>   0.6860 
  3 N        1.5330     2.1130    -0.3890 N.am  1 <1>  -0.4260 
  4 N        3.0280     0.2650     0.0440 N.am  1 <1>  -0.4410 
  5 C        2.5990     2.9980    -0.4320 C.2   1 <1>   0.6990 
  6 C        0.1600     2.6800    -0.1560 C.3   1 <1>   0.2750 
  7 C        4.0670     1.1700     0.0940 C.2   1 <1>   0.4210 
  8 C        3.2510    -1.1890     0.3030 C.3   1 <1>   0.0520 
  9 O        2.4350     4.1710    -0.7240 O.2   1 <1>  -0.5750 
 10 C        3.8990     2.4950    -0.1380 C.2   1 <1>   0.2710 
 11 C       -0.3090     2.3250     1.2660 C.2   1 <1>   0.4430 
 12 C       -0.7820     2.3070    -1.3170 C.3   1 <1>  -0.2470 
 13 N        5.3820     0.9220     0.3620 N.pl3 1 <1>  -0.7040 
 14 N        5.1680     3.0810    -0.0140 N.pl3 1 <1>  -0.6330 
 15 O        0.4610     2.3850     2.1810 O.2   1 <1>  -0.5750 
 16 C       -1.7480     1.9080     1.5030 C.3   1 <1>  -0.1860 
 17 C        6.0060     2.1010     0.2870 C.cat 1 <1>   1.0690 
 18 C        5.9160     4.2410    -0.0790 C.2   1 <1>   0.2220 
 19 N        7.2620     2.5390     0.4290 N.pl3 1 <1>  -0.5550 
 20 C        7.1990     3.9080     0.1890 C.2   1 <1>   0.1580 
 21 C        8.3750     1.7260     0.6930 C.ar  1 <1>   0.3050 
 22 C        8.4340     4.7870     0.2350 C.3   1 <1>  -0.1090 
 23 C        8.7660     0.7780    -0.2360 C.ar  1 <1>  -0.1570 
 24 C        9.0650     1.8340     1.8910 C.ar  1 <1>  -0.1570 
 25 C        9.8210    -0.0740     0.0290 C.ar  1 <1>   0.0750 
 26 C       10.1310     0.9930     2.1600 C.ar  1 <1>  -0.1570 
 27 O       10.1100    -0.9840    -0.9310 O.3   1 <1>  -0.3680 
 28 C       10.5090     0.0360     1.2340 C.ar  1 <1>  -0.1570 
 29 C       11.2150    -1.8530    -0.8060 C.3   1 <1>   0.0320 
 30 H        0.2160     3.7540    -0.1640 H     1 <1>   0.0720 
 31 H        2.5190    -1.7790    -0.2240 H     1 <1>   0.0720 
 32 H        3.1570    -1.3860     1.3560 H     1 <1>   0.0720 
 33 H        4.2260    -1.4910    -0.0350 H     1 <1>   0.0720 
 34 H       -1.0020     1.2560    -1.3310 H     1 <1>   0.0720 
 35 H       -0.3380     2.5870    -2.2550 H     1 <1>   0.0720 
 36 H       -1.7100     2.8410    -1.2210 H     1 <1>   0.0720 
 37 H        5.8320     0.0370     0.5890 H     1 <1>   0.4450 
 38 H       -1.9550     0.9910     0.9820 H     1 <1>   0.0720 
 39 H       -2.4200     2.6750     1.1660 H     1 <1>   0.0720 
 40 H       -1.9090     1.7460     2.5530 H     1 <1>   0.0720 
 41 H        5.4790     5.2000    -0.3130 H     1 <1>   0.1430 
 42 H        8.8640     4.7760     1.2210 H     1 <1>   0.0720 
 43 H        8.1830     5.8030    -0.0160 H     1 <1>   0.0720 
 44 H        9.1680     4.4330    -0.4670 H     1 <1>   0.0720 
 45 H        8.2610     0.6880    -1.1790 H     1 <1>   0.1430 
 46 H        8.7720     2.5690     2.6190 H     1 <1>   0.1430 
 47 H       10.6680     1.0780     3.0910 H     1 <1>   0.1430 
 48 H       11.3360    -0.6100     1.4650 H     1 <1>   0.1430 
 49 H       11.2670    -2.4580    -1.6930 H     1 <1>   0.0720 
 50 H       11.0730    -2.4800     0.0560 H     1 <1>   0.0720 
 51 H       12.1130    -1.2670    -0.7120 H     1 <1>   0.0720 
@<TRIPOS>BOND
  1   1   2  2   
  2   2   3  am  
  3   2   4  am  
  4   3   5  am  
  5   3   6  1   
  6   4   7  1   
  7   4   8  1   
  8   5   9  2   
  9   5  10  1   
 10   6  11  1   
 11   6  12  1   
 12   6  30  1   
 13   7  10  2   
 14   7  13  1   
 15   8  31  1   
 16   8  32  1   
 17   8  33  1   
 18  10  14  1   
 19  11  15  2   
 20  11  16  1   
 21  12  34  1   
 22  12  35  1   
 23  12  36  1   
 24  13  17  ar  
 25  13  37  1   
 26  14  17  ar  
 27  14  18  1   
 28  16  38  1   
 29  16  39  1   
 30  16  40  1   
 31  17  19  ar  
 32  18  20  2   
 33  18  41  1   
 34  19  20  1   
 35  19  21  1   
 36  20  22  1   
 37  21  23  ar  
 38  21  24  ar  
 39  22  42  1   
 40  22  43  1   
 41  22  44  1   
 42  23  25  ar  
 43  23  45  1   
 44  24  26  ar  
 45  24  46  1   
 46  25  27  1   
 47  25  28  ar  
 48  26  28  ar  
 49  26  47  1   
 50  27  29  1   
 51  28  48  1   
 52  29  49  1   
 53  29  50  1   
 54  29  51  1   
@<TRIPOS>SUBSTRUCTURE
  1 ****  13 GROUP 4 **** **** 0

# MOE 2024.06 (io_trps.svl 2023.06)
