@<TRIPOS>MOLECULE
N-(2-Hydroxy-6-methoxy-quinolin-3-ylmethyl)-N-methyl-butyramide
41 42 1 0 0 
SMALL
USER_CHARGES


@<TRIPOS>ATOM
  1 O       -2.3400    -0.0660    -2.2300 O.2   1 <1>  -0.5700 
  2 C       -2.6540    -0.3010    -1.0880 C.2   1 <1>   0.5690 
  3 N       -2.9160    -1.5830    -0.6660 N.am  1 <1>  -0.6600 
  4 C       -2.7340     0.8950    -0.1460 C.3   1 <1>  -0.0990 
  5 C       -3.3550    -1.9580     0.7110 C.3   1 <1>   0.2780 
  6 C       -2.7550    -2.7470    -1.5880 C.3   1 <1>   0.0600 
  7 C       -4.1750     1.3790     0.0920 C.3   1 <1>  -0.1600 
  8 C       -4.8590    -2.1950     0.8060 C.2   1 <1>  -0.1240 
  9 C       -4.2040     2.6170     0.9940 C.3   1 <1>  -0.2400 
 10 C       -5.3100    -2.6990     2.0660 C.2   1 <1>   0.6160 
 11 C       -5.7550    -1.9540    -0.1900 C.2   1 <1>  -0.1780 
 12 O       -4.5640    -2.9270     3.0020 O.2   1 <1>  -0.5700 
 13 N       -6.6400    -2.9340     2.2330 N.am  1 <1>  -0.5470 
 14 C       -7.1520    -2.2040    -0.0020 C.ar  1 <1>   0.0280 
 15 C       -7.5840    -2.7030     1.2370 C.ar  1 <1>   0.1170 
 16 C       -8.1010    -1.9720    -0.9970 C.ar  1 <1>  -0.1500 
 17 C       -8.9370    -2.9560     1.4500 C.ar  1 <1>  -0.1500 
 18 C       -9.4410    -2.2240    -0.7830 C.ar  1 <1>   0.0820 
 19 C       -9.8610    -2.7210     0.4530 C.ar  1 <1>  -0.1500 
 20 O      -10.2860    -1.9660    -1.8160 O.3   1 <1>  -0.3630 
 21 C      -11.6730    -2.1910    -1.6980 C.3   1 <1>   0.0400 
 22 H       -2.1740     1.6970    -0.5920 H     1 <1>   0.0800 
 23 H       -2.2520     0.6630     0.7830 H     1 <1>   0.0800 
 24 H       -3.0790    -1.2010     1.4200 H     1 <1>   0.0800 
 25 H       -2.8400    -2.8580     1.0020 H     1 <1>   0.0800 
 26 H       -2.5580    -2.4190    -2.5940 H     1 <1>   0.0800 
 27 H       -3.6530    -3.3390    -1.5950 H     1 <1>   0.0800 
 28 H       -1.9320    -3.3580    -1.2610 H     1 <1>   0.0800 
 29 H       -4.7570     0.6010     0.5500 H     1 <1>   0.0800 
 30 H       -4.6280     1.6170    -0.8560 H     1 <1>   0.0800 
 31 H       -3.7740     2.3950     1.9550 H     1 <1>   0.0800 
 32 H       -5.2210     2.9390     1.1410 H     1 <1>   0.0800 
 33 H       -3.6540     3.4240     0.5440 H     1 <1>   0.0800 
 34 H       -5.4580    -1.5660    -1.1490 H     1 <1>   0.1500 
 35 H       -6.9120    -3.2920     3.1460 H     1 <1>   0.3700 
 36 H       -7.7890    -1.5890    -1.9520 H     1 <1>   0.1500 
 37 H       -9.2590    -3.3380     2.4010 H     1 <1>   0.1500 
 38 H      -10.8970    -2.9250     0.6460 H     1 <1>   0.1500 
 39 H      -12.1350    -1.9200    -2.6300 H     1 <1>   0.0800 
 40 H      -12.0610    -1.5770    -0.9060 H     1 <1>   0.0800 
 41 H      -11.8420    -3.2350    -1.4980 H     1 <1>   0.0800 
@<TRIPOS>BOND
  1   1   2  2   
  2   2   3  am  
  3   2   4  1   
  4   3   5  1   
  5   3   6  1   
  6   4   7  1   
  7   4  22  1   
  8   4  23  1   
  9   5   8  1   
 10   5  24  1   
 11   5  25  1   
 12   6  26  1   
 13   6  27  1   
 14   6  28  1   
 15   7   9  1   
 16   7  29  1   
 17   7  30  1   
 18   8  10  1   
 19   8  11  2   
 20   9  31  1   
 21   9  32  1   
 22   9  33  1   
 23  10  12  2   
 24  10  13  am  
 25  11  14  1   
 26  11  34  1   
 27  13  15  1   
 28  13  35  1   
 29  14  15  ar  
 30  14  16  ar  
 31  15  17  ar  
 32  16  18  ar  
 33  16  36  1   
 34  17  19  ar  
 35  17  37  1   
 36  18  19  ar  
 37  18  20  1   
 38  19  38  1   
 39  20  21  1   
 40  21  39  1   
 41  21  40  1   
 42  21  41  1   
@<TRIPOS>SUBSTRUCTURE
  1 ****  11 GROUP 4 **** **** 0

# MOE 2024.06 (io_trps.svl 2023.06)
