@<TRIPOS>MOLECULE
2-Adamantan-1-yl-N-[4-(morpholine-4-sulfonyl)-phenyl]-acetamide
59 63 1 0 0 
SMALL
USER_CHARGES


@<TRIPOS>ATOM
  1 S       -0.4740     0.9810     0.6090 S.o2  1 <1>   1.4470 
  2 O       -0.8960     2.2610     0.0830 O.2   1 <1>  -0.6500 
  3 O       -0.7110     0.6800     2.0040 O.2   1 <1>  -0.6500 
  4 N       -1.2420    -0.2120    -0.3240 N.am  1 <1>  -0.8490 
  5 C        1.2770     0.7320     0.2080 C.ar  1 <1>  -0.0090 
  6 C       -2.6750     0.0470    -0.5540 C.3   1 <1>   0.1960 
  7 C       -1.0490    -1.5950     0.1590 C.3   1 <1>   0.1960 
  8 C        2.1880     0.3030     1.1660 C.ar  1 <1>  -0.1500 
  9 C        1.7520     0.9490    -1.0800 C.ar  1 <1>  -0.1500 
 10 C       -3.5430    -0.3520     0.6550 C.3   1 <1>   0.1200 
 11 C       -2.0110    -1.9970     1.3010 C.3   1 <1>   0.1200 
 12 C        3.5190     0.0940     0.8490 C.ar  1 <1>  -0.1500 
 13 C        3.0820     0.7420    -1.4010 C.ar  1 <1>  -0.1500 
 14 O       -3.3360    -1.7000     0.9650 O.3   1 <1>  -0.5600 
 15 C        3.9870     0.3060    -0.4430 C.ar  1 <1>   0.1170 
 16 N        5.3260     0.1160    -0.8070 N.am  1 <1>  -0.5470 
 17 C        6.2930    -0.6800    -0.2560 C.2   1 <1>   0.5690 
 18 O        6.0890    -1.4400     0.6570 O.2   1 <1>  -0.5700 
 19 C        7.6850    -0.6270    -0.8610 C.3   1 <1>  -0.0990 
 20 C        8.6150     0.4590    -0.2740 C.3   1 <1>   0.0000 
 21 C        8.0560     1.8850    -0.5040 C.3   1 <1>  -0.1600 
 22 C        8.8220     0.2550     1.2460 C.3   1 <1>  -0.1600 
 23 C        9.9940     0.3600    -0.9690 C.3   1 <1>  -0.1600 
 24 C        9.0230     2.9470     0.0530 C.3   1 <1>  -0.0800 
 25 C        9.7910     1.3100     1.8130 C.3   1 <1>  -0.0800 
 26 C       10.9700     1.4150    -0.4140 C.3   1 <1>  -0.0800 
 27 C        9.2120     2.7150     1.5640 C.3   1 <1>  -0.1600 
 28 C       10.3850     2.8180    -0.6530 C.3   1 <1>  -0.1600 
 29 C       11.1490     1.1880     1.0980 C.3   1 <1>  -0.1600 
 30 H       -3.0000    -0.5280    -1.4040 H     1 <1>   0.0800 
 31 H       -2.8380     1.0840    -0.7930 H     1 <1>   0.0800 
 32 H       -0.0310    -1.7380     0.4790 H     1 <1>   0.0800 
 33 H       -1.2180    -2.2690    -0.6640 H     1 <1>   0.0800 
 34 H        1.8550     0.1300     2.1760 H     1 <1>   0.1500 
 35 H        1.0640     1.2840    -1.8400 H     1 <1>   0.1500 
 36 H       -4.5850    -0.2270     0.4200 H     1 <1>   0.0800 
 37 H       -3.3090     0.2470     1.5180 H     1 <1>   0.0800 
 38 H       -1.7700    -1.4930     2.2190 H     1 <1>   0.0800 
 39 H       -1.9500    -3.0560     1.4750 H     1 <1>   0.0800 
 40 H        4.1960    -0.2340     1.6170 H     1 <1>   0.1500 
 41 H        3.4150     0.9170    -2.4080 H     1 <1>   0.1500 
 42 H        5.6300     0.6530    -1.6160 H     1 <1>   0.3700 
 43 H        7.5950    -0.4890    -1.9220 H     1 <1>   0.0800 
 44 H        8.1380    -1.5910    -0.7080 H     1 <1>   0.0800 
 45 H        7.1080     1.9990    -0.0100 H     1 <1>   0.0800 
 46 H        7.9080     2.0580    -1.5560 H     1 <1>   0.0800 
 47 H        7.8820     0.3310     1.7640 H     1 <1>   0.0800 
 48 H        9.2130    -0.7300     1.4340 H     1 <1>   0.0800 
 49 H        9.8840     0.5050    -2.0290 H     1 <1>   0.0800 
 50 H       10.4110    -0.6200    -0.8160 H     1 <1>   0.0800 
 51 H        8.6190     3.9310    -0.1140 H     1 <1>   0.0800 
 52 H        9.9210     1.1520     2.8700 H     1 <1>   0.0800 
 53 H       11.9220     1.3280    -0.9090 H     1 <1>   0.0800 
 54 H        8.2670     2.8130     2.0690 H     1 <1>   0.0800 
 55 H        9.8760     3.4590     1.9670 H     1 <1>   0.0800 
 56 H       10.2670     2.9900    -1.7090 H     1 <1>   0.0800 
 57 H       11.0630     3.5640    -0.2750 H     1 <1>   0.0800 
 58 H       11.5670     0.2130     1.2750 H     1 <1>   0.0800 
 59 H       11.8360     1.9150     1.4960 H     1 <1>   0.0800 
@<TRIPOS>BOND
  1   1   2  2   
  2   1   3  2   
  3   1   4  am  
  4   1   5  1   
  5   4   6  1   
  6   4   7  1   
  7   5   8  ar  
  8   5   9  ar  
  9   6  10  1   
 10   6  30  1   
 11   6  31  1   
 12   7  11  1   
 13   7  32  1   
 14   7  33  1   
 15   8  12  ar  
 16   8  34  1   
 17   9  13  ar  
 18   9  35  1   
 19  10  14  1   
 20  10  36  1   
 21  10  37  1   
 22  11  14  1   
 23  11  38  1   
 24  11  39  1   
 25  12  15  ar  
 26  12  40  1   
 27  13  15  ar  
 28  13  41  1   
 29  15  16  1   
 30  16  17  am  
 31  16  42  1   
 32  17  18  2   
 33  17  19  1   
 34  19  20  1   
 35  19  43  1   
 36  19  44  1   
 37  20  21  1   
 38  20  22  1   
 39  20  23  1   
 40  21  24  1   
 41  21  45  1   
 42  21  46  1   
 43  22  25  1   
 44  22  47  1   
 45  22  48  1   
 46  23  26  1   
 47  23  49  1   
 48  23  50  1   
 49  24  27  1   
 50  24  28  1   
 51  24  51  1   
 52  25  27  1   
 53  25  29  1   
 54  25  52  1   
 55  26  28  1   
 56  26  29  1   
 57  26  53  1   
 58  27  54  1   
 59  27  55  1   
 60  28  56  1   
 61  28  57  1   
 62  29  58  1   
 63  29  59  1   
@<TRIPOS>SUBSTRUCTURE
  1 ****  15 GROUP 4 **** **** 0

# MOE 2024.06 (io_trps.svl 2023.06)
