@<TRIPOS>MOLECULE
1-(3-Chloro-4-methoxy-benzenesulfonyl)-piperidine-4-carboxylic acid (pyridin-4-y
50 52 1 0 0 
SMALL
USER_CHARGES


@<TRIPOS>ATOM
  1 CL       2.8210    -0.0660    -3.0850 Cl    1 <1>  -0.1770 
  2 C        2.6570     0.3080    -1.3830 C.ar  1 <1>   0.1770 
  3 C        2.0020    -0.5730    -0.5290 C.ar  1 <1>   0.0820 
  4 C        3.1960     1.4930    -0.9210 C.ar  1 <1>  -0.1500 
  5 O        1.4960    -1.7230    -1.0470 O.3   1 <1>  -0.3630 
  6 C        1.8990    -0.2310     0.8160 C.ar  1 <1>  -0.1500 
  7 C        3.1030     1.8390     0.4210 C.ar  1 <1>  -0.0090 
  8 C        0.7940    -2.6530    -0.2520 C.3   1 <1>   0.0400 
  9 C        2.4420     0.9590     1.2740 C.ar  1 <1>  -0.1500 
 10 S        3.8100     3.3930     1.0330 S.o2  1 <1>   1.4470 
 11 O        4.0330     3.3070     2.4610 O.2   1 <1>  -0.6500 
 12 O        3.0440     4.4980     0.5000 O.2   1 <1>  -0.6500 
 13 N        5.3410     3.4300     0.3040 N.am  1 <1>  -0.8490 
 14 C        6.2640     2.4660     0.9110 C.3   1 <1>   0.1960 
 15 C        5.9020     4.7840     0.3000 C.3   1 <1>   0.1960 
 16 C        7.5710     2.4140     0.1170 C.3   1 <1>  -0.1600 
 17 C        7.2050     4.8160    -0.5030 C.3   1 <1>  -0.1600 
 18 C        8.2270     3.8010     0.0380 C.3   1 <1>  -0.0190 
 19 C        9.5030     3.7540    -0.8010 C.2   1 <1>   0.5690 
 20 O        9.4300     3.7050    -2.0050 O.2   1 <1>  -0.5700 
 21 N       10.6980     3.7400    -0.1610 N.am  1 <1>  -0.7300 
 22 C       12.0000     3.5560    -0.8300 C.3   1 <1>   0.2840 
 23 C       12.5720     2.2250    -0.3820 C.ar  1 <1>  -0.1430 
 24 C       13.6370     2.1270     0.4910 C.ar  1 <1>  -0.1500 
 25 C       12.0380     1.0340    -0.8310 C.ar  1 <1>  -0.1500 
 26 C       14.1020     0.8760     0.8620 C.ar  1 <1>   0.1600 
 27 C       12.5780    -0.1650    -0.3970 C.ar  1 <1>   0.1600 
 28 N       13.5970    -0.2710     0.4410 N.ar  1 <1>  -0.6200 
 29 H        3.6940     2.1510    -1.6130 H     1 <1>   0.1500 
 30 H        1.4010    -0.8730     1.5180 H     1 <1>   0.1500 
 31 H        0.4870    -3.4660    -0.8850 H     1 <1>   0.0800 
 32 H       -0.0710    -2.1710     0.1690 H     1 <1>   0.0800 
 33 H        1.4490    -3.0180     0.5190 H     1 <1>   0.0800 
 34 H        2.3530     1.2110     2.3190 H     1 <1>   0.1500 
 35 H        5.8180     1.4860     0.9120 H     1 <1>   0.0800 
 36 H        6.4670     2.7440     1.9340 H     1 <1>   0.0800 
 37 H        6.0750     5.1120     1.3120 H     1 <1>   0.0800 
 38 H        5.2040     5.4670    -0.1590 H     1 <1>   0.0800 
 39 H        7.3620     2.0530    -0.8750 H     1 <1>   0.0800 
 40 H        8.2450     1.7180     0.5850 H     1 <1>   0.0800 
 41 H        7.6240     5.8060    -0.4680 H     1 <1>   0.0800 
 42 H        6.9780     4.5950    -1.5320 H     1 <1>   0.0800 
 43 H        8.4940     4.1040     1.0340 H     1 <1>   0.0800 
 44 H       10.7340     3.6760     0.8560 H     1 <1>   0.3700 
 45 H       12.6590     4.3630    -0.5620 H     1 <1>   0.0800 
 46 H       11.8790     3.5600    -1.9010 H     1 <1>   0.0800 
 47 H       14.1110     3.0070     0.8860 H     1 <1>   0.1500 
 48 H       11.2060     1.0340    -1.5130 H     1 <1>   0.1500 
 49 H       14.9350     0.8160     1.5430 H     1 <1>   0.1500 
 50 H       12.1480    -1.0840    -0.7580 H     1 <1>   0.1500 
@<TRIPOS>BOND
  1   1   2  1   
  2   2   3  ar  
  3   2   4  ar  
  4   3   5  1   
  5   3   6  ar  
  6   4   7  ar  
  7   4  29  1   
  8   5   8  1   
  9   6   9  ar  
 10   6  30  1   
 11   7   9  ar  
 12   7  10  1   
 13   8  31  1   
 14   8  32  1   
 15   8  33  1   
 16   9  34  1   
 17  10  11  2   
 18  10  12  2   
 19  10  13  am  
 20  13  14  1   
 21  13  15  1   
 22  14  16  1   
 23  14  35  1   
 24  14  36  1   
 25  15  17  1   
 26  15  37  1   
 27  15  38  1   
 28  16  18  1   
 29  16  39  1   
 30  16  40  1   
 31  17  18  1   
 32  17  41  1   
 33  17  42  1   
 34  18  19  1   
 35  18  43  1   
 36  19  20  2   
 37  19  21  am  
 38  21  22  1   
 39  21  44  1   
 40  22  23  1   
 41  22  45  1   
 42  22  46  1   
 43  23  24  ar  
 44  23  25  ar  
 45  24  26  ar  
 46  24  47  1   
 47  25  27  ar  
 48  25  48  1   
 49  26  28  ar  
 50  26  49  1   
 51  27  28  ar  
 52  27  50  1   
@<TRIPOS>SUBSTRUCTURE
  1 ****  16 GROUP 4 **** **** 0

# MOE 2024.06 (io_trps.svl 2023.06)
