@<TRIPOS>MOLECULE
3-(3-Fluoro-benzoylamino)-4-(4-methyl-piperazin-1-yl)-benzoic acid methyl ester
50 52 1 0 0 
SMALL
USER_CHARGES


@<TRIPOS>ATOM
  1 F       -2.3160     1.8650    -0.9380 F     1 <1>  -0.1900 
  2 C       -2.8300     1.0400    -0.0670 C.ar  1 <1>   0.1900 
  3 C       -3.2820    -0.1880    -0.5020 C.ar  1 <1>  -0.1500 
  4 C       -2.8980     1.4290     1.2560 C.ar  1 <1>  -0.1500 
  5 C       -3.8310    -1.0910     0.4080 C.ar  1 <1>   0.0860 
  6 C       -3.4410     0.5450     2.1710 C.ar  1 <1>  -0.1500 
  7 C       -4.3000    -2.3910    -0.0380 C.2   1 <1>   0.5440 
  8 C       -3.8970    -0.6950     1.7500 C.ar  1 <1>  -0.1500 
  9 O       -3.7780    -2.9280    -0.9970 O.2   1 <1>  -0.5700 
 10 N       -5.3150    -3.0180     0.6370 N.am  1 <1>  -0.5470 
 11 C       -6.0890    -4.1310     0.2470 C.ar  1 <1>   0.1170 
 12 C       -5.5870    -5.4350     0.0310 C.ar  1 <1>   0.1000 
 13 C       -7.4450    -3.8970     0.0860 C.ar  1 <1>  -0.1500 
 14 N       -4.2490    -5.8200     0.1660 N.pl3 1 <1>  -0.8380 
 15 C       -6.4880    -6.4240    -0.3420 C.ar  1 <1>  -0.1500 
 16 C       -8.3550    -4.8880    -0.2890 C.ar  1 <1>   0.0860 
 17 C       -3.4560    -5.5470     1.4070 C.3   1 <1>   0.2090 
 18 C       -3.5330    -6.3760    -1.0290 C.3   1 <1>   0.2090 
 19 C       -7.8340    -6.1640    -0.5010 C.ar  1 <1>  -0.1500 
 20 C       -9.7630    -4.5880    -0.4420 C.2   1 <1>   0.6340 
 21 C       -2.0950    -4.8560     1.1260 C.3   1 <1>   0.3430 
 22 C       -2.0310    -6.0160    -1.0590 C.3   1 <1>   0.3430 
 23 O      -10.2380    -3.4940    -0.2070 O.2   1 <1>  -0.5700 
 24 O      -10.5760    -5.5660    -0.8580 O.3   1 <1>  -0.4300 
 25 N       -1.7750    -4.7310    -0.3380 N.4   1 <1>  -0.9590 
 26 C      -11.9630    -5.3560    -1.0350 C.3   1 <1>   0.0400 
 27 C       -0.4400    -4.1350    -0.6150 C.3   1 <1>   0.2630 
 28 H       -3.2100    -0.4390    -1.5460 H     1 <1>   0.1500 
 29 H       -2.5360     2.3980     1.5550 H     1 <1>   0.1500 
 30 H       -3.5060     0.8260     3.2100 H     1 <1>   0.1500 
 31 H       -4.3050    -1.3610     2.4890 H     1 <1>   0.1500 
 32 H       -5.7960    -2.4190     1.3080 H     1 <1>   0.3700 
 33 H       -7.8270    -2.9050     0.2470 H     1 <1>   0.1500 
 34 H       -6.1280    -7.4230    -0.5030 H     1 <1>   0.1500 
 35 H       -3.2730    -6.4830     1.9050 H     1 <1>   0.0800 
 36 H       -4.0330    -4.9410     2.0830 H     1 <1>   0.0800 
 37 H       -3.9960    -5.9820    -1.9180 H     1 <1>   0.0800 
 38 H       -3.6450    -7.4460    -1.0520 H     1 <1>   0.0800 
 39 H       -8.4930    -6.9650    -0.7900 H     1 <1>   0.1500 
 40 H       -1.3190    -5.4140     1.6220 H     1 <1>   0.0800 
 41 H       -2.1170    -3.8740     1.5670 H     1 <1>   0.0800 
 42 H       -1.7120    -5.9400    -2.0850 H     1 <1>   0.0800 
 43 H       -1.4690    -6.8090    -0.5940 H     1 <1>   0.0800 
 44 H       -2.5220    -4.0950    -0.7060 H     1 <1>   0.4500 
 45 H      -12.4070    -6.2740    -1.3730 H     1 <1>   0.0800 
 46 H      -12.1060    -4.5810    -1.7680 H     1 <1>   0.0800 
 47 H      -12.3920    -5.0600    -0.0930 H     1 <1>   0.0800 
 48 H        0.3430    -4.7780    -0.2500 H     1 <1>   0.0800 
 49 H       -0.3560    -3.1740    -0.1340 H     1 <1>   0.0800 
 50 H       -0.3100    -3.9960    -1.6770 H     1 <1>   0.0800 
@<TRIPOS>BOND
  1   1   2  1   
  2   2   3  ar  
  3   2   4  ar  
  4   3   5  ar  
  5   3  28  1   
  6   4   6  ar  
  7   4  29  1   
  8   5   7  1   
  9   5   8  ar  
 10   6   8  ar  
 11   6  30  1   
 12   7   9  2   
 13   7  10  am  
 14   8  31  1   
 15  10  11  1   
 16  10  32  1   
 17  11  12  ar  
 18  11  13  ar  
 19  12  14  1   
 20  12  15  ar  
 21  13  16  ar  
 22  13  33  1   
 23  14  17  1   
 24  14  18  1   
 25  15  19  ar  
 26  15  34  1   
 27  16  19  ar  
 28  16  20  1   
 29  17  21  1   
 30  17  35  1   
 31  17  36  1   
 32  18  22  1   
 33  18  37  1   
 34  18  38  1   
 35  19  39  1   
 36  20  23  2   
 37  20  24  1   
 38  21  25  1   
 39  21  40  1   
 40  21  41  1   
 41  22  25  1   
 42  22  42  1   
 43  22  43  1   
 44  24  26  1   
 45  25  27  1   
 46  25  44  1   
 47  26  45  1   
 48  26  46  1   
 49  26  47  1   
 50  27  48  1   
 51  27  49  1   
 52  27  50  1   
@<TRIPOS>SUBSTRUCTURE
  1 ****  10 GROUP 4 **** **** 0

# MOE 2024.06 (io_trps.svl 2023.06)
