@<TRIPOS>MOLECULE
4-(3-Chloro-4,5-dimethoxy-phenyl)-6-methyl-2-oxo-1,2,3,4-tetrahydro-pyrimidine-5
40 41 1 0 0 
SMALL
USER_CHARGES


@<TRIPOS>ATOM
  1 CL       2.4830     0.6330     3.0180 Cl    1 <1>  -0.1770 
  2 C        2.8790     1.2870     1.4430 C.ar  1 <1>   0.1770 
  3 C        2.1680     2.3640     0.9320 C.ar  1 <1>   0.0820 
  4 C        3.9050     0.6960     0.7290 C.ar  1 <1>  -0.1500 
  5 O        1.1570     2.9060     1.6590 O.3   1 <1>  -0.3630 
  6 C        2.5250     2.8610    -0.3250 C.ar  1 <1>   0.0820 
  7 C        4.2460     1.1780    -0.5290 C.ar  1 <1>  -0.1440 
  8 C       -0.1480     2.6580     1.1860 C.3   1 <1>   0.0400 
  9 O        1.9050     3.9250    -0.8890 O.3   1 <1>  -0.3630 
 10 C        3.5470     2.2620    -1.0440 C.ar  1 <1>  -0.1500 
 11 C        5.3790     0.5420    -1.3310 C.3   1 <1>   0.5020 
 12 C        2.1290     5.1750    -0.2760 C.3   1 <1>   0.0400 
 13 N        5.0250    -0.8740    -1.5490 N.am  1 <1>  -0.7300 
 14 C        6.7170     0.7120    -0.6050 C.2   1 <1>  -0.1240 
 15 C        5.6730    -1.8990    -0.9750 C.2   1 <1>   0.6900 
 16 C        7.3630    -0.3890    -0.1280 C.2   1 <1>  -0.0290 
 17 C        7.1010     2.0880    -0.5260 C.2   1 <1>   0.7060 
 18 O        5.2430    -3.0260    -1.0530 O.2   1 <1>  -0.5700 
 19 N        6.8140    -1.6440    -0.2900 N.am  1 <1>  -0.5390 
 20 C        8.7030    -0.4050     0.5930 C.3   1 <1>  -0.1020 
 21 O        6.7420     2.9210    -1.3380 O.2   1 <1>  -0.5700 
 22 O        7.8680     2.4880     0.4940 O.3   1 <1>  -0.4300 
 23 C        8.2470     3.8410     0.6560 C.3   1 <1>   0.0400 
 24 H        4.4280    -0.1400     1.1600 H     1 <1>   0.1500 
 25 H       -0.2590     3.0890     0.2070 H     1 <1>   0.0800 
 26 H       -0.3070     1.5950     1.1490 H     1 <1>   0.0800 
 27 H       -0.8440     3.1110     1.8680 H     1 <1>   0.0800 
 28 H        3.7960     2.6670    -2.0110 H     1 <1>   0.1500 
 29 H        5.4460     1.0100    -2.2990 H     1 <1>   0.0800 
 30 H        1.6540     5.9330    -0.8730 H     1 <1>   0.0800 
 31 H        1.7070     5.1690     0.7120 H     1 <1>   0.0800 
 32 H        3.1890     5.3540    -0.2300 H     1 <1>   0.0800 
 33 H        4.1000    -1.0640    -1.9270 H     1 <1>   0.3700 
 34 H        7.2580    -2.4810     0.0890 H     1 <1>   0.3700 
 35 H        9.2690     0.4880     0.4120 H     1 <1>   0.0800 
 36 H        8.5460    -0.5090     1.6520 H     1 <1>   0.0800 
 37 H        9.2980    -1.2330     0.2490 H     1 <1>   0.0800 
 38 H        8.8540     3.9220     1.5400 H     1 <1>   0.0800 
 39 H        8.8060     4.1540    -0.2090 H     1 <1>   0.0800 
 40 H        7.3590     4.4410     0.7610 H     1 <1>   0.0800 
@<TRIPOS>BOND
  1   1   2  1   
  2   2   3  ar  
  3   2   4  ar  
  4   3   5  1   
  5   3   6  ar  
  6   4   7  ar  
  7   4  24  1   
  8   5   8  1   
  9   6   9  1   
 10   6  10  ar  
 11   7  10  ar  
 12   7  11  1   
 13   8  25  1   
 14   8  26  1   
 15   8  27  1   
 16   9  12  1   
 17  10  28  1   
 18  11  13  1   
 19  11  14  1   
 20  11  29  1   
 21  12  30  1   
 22  12  31  1   
 23  12  32  1   
 24  13  15  am  
 25  13  33  1   
 26  14  16  2   
 27  14  17  1   
 28  15  18  2   
 29  15  19  am  
 30  16  19  1   
 31  16  20  1   
 32  17  21  2   
 33  17  22  1   
 34  19  34  1   
 35  20  35  1   
 36  20  36  1   
 37  20  37  1   
 38  22  23  1   
 39  23  38  1   
 40  23  39  1   
 41  23  40  1   
@<TRIPOS>SUBSTRUCTURE
  1 ****   7 GROUP 4 **** **** 0

# MOE 2024.06 (io_trps.svl 2023.06)
