@<TRIPOS>MOLECULE
3-[5-(4-Methoxy-phenyl)-1-(tetrahydro-furan-2-ylmethyl)-1H-pyrrol-2-yl]-propioni
46 48 1 0 0 
SMALL
USER_CHARGES


@<TRIPOS>ATOM
  1 O       -0.4780    -1.3370     0.0410 O.co2 1 <1>  -0.9000 
  2 C       -1.0200    -0.3840     0.6060 C.2   1 <1>   0.9060 
  3 O       -0.4840     0.2490     1.5200 O.co2 1 <1>  -0.9000 
  4 C       -2.4100     0.0060     0.1780 C.3   1 <1>  -0.2660 
  5 C       -3.4270    -1.0100     0.7030 C.3   1 <1>   0.0200 
  6 C       -4.8630    -0.7030     0.2810 C.2   1 <1>  -0.3320 
  7 N       -5.9160    -1.5240     0.5690 N.pl3 1 <1>   0.0480 
  8 C       -5.3200     0.3750    -0.4120 C.2   1 <1>  -0.1500 
  9 C       -7.0520    -0.9490     0.0530 C.2   1 <1>  -0.2050 
 10 C       -5.8500    -2.8350     1.2660 C.3   1 <1>   0.0960 
 11 C       -6.6950     0.2190    -0.5570 C.2   1 <1>  -0.1500 
 12 C       -8.3720    -1.5150     0.1460 C.ar  1 <1>   0.0530 
 13 C       -6.1590    -3.9870     0.3060 C.3   1 <1>   0.2000 
 14 C       -9.0430    -1.9260    -1.0010 C.ar  1 <1>  -0.1500 
 15 C       -9.0110    -1.6740     1.3710 C.ar  1 <1>  -0.1500 
 16 O       -6.0160    -5.1970     0.9800 O.3   1 <1>  -0.5600 
 17 C       -5.2240    -4.1010    -0.8900 C.3   1 <1>  -0.1600 
 18 C      -10.3040    -2.4910    -0.9330 C.ar  1 <1>  -0.1500 
 19 C      -10.2700    -2.2380     1.4490 C.ar  1 <1>  -0.1500 
 20 C       -5.6600    -6.2250     0.1060 C.3   1 <1>   0.1200 
 21 C       -5.3220    -5.5740    -1.2320 C.3   1 <1>  -0.1600 
 22 C      -10.9260    -2.6530     0.3020 C.ar  1 <1>   0.0830 
 23 O      -12.1560    -3.2000     0.4630 O.3   1 <1>  -0.3630 
 24 C      -12.9060    -3.6540    -0.6410 C.3   1 <1>   0.0400 
 25 H       -2.4320     0.0330    -0.8940 H     1 <1>   0.0800 
 26 H       -2.6250     0.9830     0.5630 H     1 <1>   0.0800 
 27 H       -3.3660    -1.0300     1.7780 H     1 <1>   0.0800 
 28 H       -3.1440    -1.9820     0.3380 H     1 <1>   0.0800 
 29 H       -4.7480     1.2050    -0.7880 H     1 <1>   0.1500 
 30 H       -6.5650    -2.8350     2.0650 H     1 <1>   0.0800 
 31 H       -4.8710    -2.9700     1.6810 H     1 <1>   0.0800 
 32 H       -7.3460     0.9110    -1.0620 H     1 <1>   0.1500 
 33 H       -7.1820    -3.9350    -0.0260 H     1 <1>   0.0800 
 34 H       -8.5590    -1.7990    -1.9530 H     1 <1>   0.1500 
 35 H       -8.5100    -1.3450     2.2640 H     1 <1>   0.1500 
 36 H       -4.2190    -3.8560    -0.5960 H     1 <1>   0.0800 
 37 H       -5.5240    -3.4580    -1.6990 H     1 <1>   0.0800 
 38 H      -10.7830    -2.7960    -1.8430 H     1 <1>   0.1500 
 39 H      -10.7550    -2.3590     2.4010 H     1 <1>   0.1500 
 40 H       -6.4870    -6.9080     0.0220 H     1 <1>   0.0800 
 41 H       -4.8060    -6.7290     0.5240 H     1 <1>   0.0800 
 42 H       -4.4080    -5.9590    -1.6470 H     1 <1>   0.0800 
 43 H       -6.1270    -5.7460    -1.9260 H     1 <1>   0.0800 
 44 H      -13.8380    -4.0440    -0.2740 H     1 <1>   0.0800 
 45 H      -12.3560    -4.4310    -1.1410 H     1 <1>   0.0800 
 46 H      -13.0920    -2.8250    -1.3010 H     1 <1>   0.0800 
@<TRIPOS>BOND
  1   1   2  ar  
  2   2   3  ar  
  3   2   4  1   
  4   4   5  1   
  5   4  25  1   
  6   4  26  1   
  7   5   6  1   
  8   5  27  1   
  9   5  28  1   
 10   6   7  1   
 11   6   8  2   
 12   7   9  1   
 13   7  10  1   
 14   8  11  1   
 15   8  29  1   
 16   9  11  2   
 17   9  12  1   
 18  10  13  1   
 19  10  30  1   
 20  10  31  1   
 21  11  32  1   
 22  12  14  ar  
 23  12  15  ar  
 24  13  16  1   
 25  13  17  1   
 26  13  33  1   
 27  14  18  ar  
 28  14  34  1   
 29  15  19  ar  
 30  15  35  1   
 31  16  20  1   
 32  17  21  1   
 33  17  36  1   
 34  17  37  1   
 35  18  22  ar  
 36  18  38  1   
 37  19  22  ar  
 38  19  39  1   
 39  20  21  1   
 40  20  40  1   
 41  20  41  1   
 42  21  42  1   
 43  21  43  1   
 44  22  23  1   
 45  23  24  1   
 46  24  44  1   
 47  24  45  1   
 48  24  46  1   
@<TRIPOS>SUBSTRUCTURE
  1 ****   7 GROUP 4 **** **** 0

# MOE 2024.06 (io_trps.svl 2023.06)
