@<TRIPOS>MOLECULE
4-[3-(2-Chloro-phenyl)-[1,2,4]oxadiazol-5-yl]-N-(2-methoxy-ethyl)-butyramide
40 41 1 0 0 
SMALL
USER_CHARGES


@<TRIPOS>ATOM
  1 CL       0.0590     0.0520     0.8600 Cl    1 <1>  -0.1770 
  2 C        0.6050    -1.5500     0.4190 C.ar  1 <1>   0.1770 
  3 C        1.7770    -1.7280    -0.3180 C.ar  1 <1>   0.0540 
  4 C       -0.1810    -2.6160     0.8140 C.ar  1 <1>  -0.1500 
  5 C        2.6220    -0.6280    -0.7220 C.2   1 <1>   0.4620 
  6 C        2.1150    -3.0370    -0.6630 C.ar  1 <1>  -0.1500 
  7 C        0.1850    -3.9050     0.4670 C.ar  1 <1>  -0.1500 
  8 N        3.0170    -0.4000    -1.9230 N.2   1 <1>  -0.4100 
  9 N        3.1220     0.2560     0.1440 N.2   1 <1>  -0.5650 
 10 C        1.3340    -4.1120    -0.2760 C.ar  1 <1>  -0.1500 
 11 O        3.7690     0.6550    -1.8970 O.3   1 <1>  -0.0190 
 12 C        3.7940     0.9970    -0.6350 C.2   1 <1>   0.2980 
 13 C        4.6140     2.2040    -0.2180 C.3   1 <1>   0.0200 
 14 C        6.1230     1.9640    -0.3860 C.3   1 <1>  -0.1600 
 15 C        6.6370     0.8120     0.4970 C.3   1 <1>  -0.0990 
 16 C        8.1200     0.5790     0.2970 C.2   1 <1>   0.5690 
 17 O        8.9060     1.1990     0.9680 O.2   1 <1>  -0.5700 
 18 N        8.5130    -0.3190    -0.6400 N.am  1 <1>  -0.7300 
 19 C        9.9280    -0.6070    -0.9890 C.3   1 <1>   0.1400 
 20 C       10.5930    -1.4460     0.1020 C.3   1 <1>   0.1200 
 21 O       11.8340    -1.8750    -0.3660 O.3   1 <1>  -0.5600 
 22 C       12.5780    -2.5730     0.5790 C.3   1 <1>   0.0400 
 23 H       -1.0740    -2.4360     1.3850 H     1 <1>   0.1500 
 24 H        3.0060    -3.2100    -1.2430 H     1 <1>   0.1500 
 25 H       -0.4230    -4.7410     0.7700 H     1 <1>   0.1500 
 26 H        1.6190    -5.1130    -0.5530 H     1 <1>   0.1500 
 27 H        4.3970     2.4360     0.8090 H     1 <1>   0.0800 
 28 H        4.3130     3.0450    -0.8160 H     1 <1>   0.0800 
 29 H        6.6530     2.8640    -0.1240 H     1 <1>   0.0800 
 30 H        6.3380     1.7480    -1.4190 H     1 <1>   0.0800 
 31 H        6.1110    -0.0990     0.2780 H     1 <1>   0.0800 
 32 H        6.4690     1.0460     1.5330 H     1 <1>   0.0800 
 33 H        7.8100    -0.8250    -1.1810 H     1 <1>   0.3700 
 34 H       10.4640     0.3210    -1.0960 H     1 <1>   0.0800 
 35 H        9.9600    -1.1410    -1.9230 H     1 <1>   0.0800 
 36 H        9.9980    -2.3130     0.3270 H     1 <1>   0.0800 
 37 H       10.7390    -0.8490     0.9870 H     1 <1>   0.0800 
 38 H       13.5080    -2.8640     0.1240 H     1 <1>   0.0800 
 39 H       12.0330    -3.4490     0.8860 H     1 <1>   0.0800 
 40 H       12.7720    -1.9310     1.4220 H     1 <1>   0.0800 
@<TRIPOS>BOND
  1   1   2  1   
  2   2   3  ar  
  3   2   4  ar  
  4   3   5  1   
  5   3   6  ar  
  6   4   7  ar  
  7   4  23  1   
  8   5   8  2   
  9   5   9  1   
 10   6  10  ar  
 11   6  24  1   
 12   7  10  ar  
 13   7  25  1   
 14   8  11  1   
 15   9  12  2   
 16  10  26  1   
 17  11  12  1   
 18  12  13  1   
 19  13  14  1   
 20  13  27  1   
 21  13  28  1   
 22  14  15  1   
 23  14  29  1   
 24  14  30  1   
 25  15  16  1   
 26  15  31  1   
 27  15  32  1   
 28  16  17  2   
 29  16  18  am  
 30  18  19  1   
 31  18  33  1   
 32  19  20  1   
 33  19  34  1   
 34  19  35  1   
 35  20  21  1   
 36  20  36  1   
 37  20  37  1   
 38  21  22  1   
 39  22  38  1   
 40  22  39  1   
 41  22  40  1   
@<TRIPOS>SUBSTRUCTURE
  1 ****   9 GROUP 4 **** **** 0

# MOE 2024.06 (io_trps.svl 2023.06)
