@<TRIPOS>MOLECULE
7-(2-Hydroxy-3-m-tolyloxy-propyl)-1,3-dimethyl-3,7-dihydro-purine-2,6-dione
45 47 1 0 0 
SMALL
USER_CHARGES


@<TRIPOS>ATOM
  1 O        1.4240     0.6390     1.1580 O.2   1 <1>  -0.5700 
  2 C        2.3810     1.0700     0.5370 C.2   1 <1>   0.6900 
  3 N        2.3300     2.3550     0.0080 N.am  1 <1>  -0.4200 
  4 N        3.5090     0.2880     0.3650 N.am  1 <1>  -0.4230 
  5 C        3.4170     2.8870    -0.6610 C.2   1 <1>   0.7150 
  6 C        1.0950     3.1720     0.1990 C.3   1 <1>   0.0600 
  7 C        4.5940     0.8130    -0.3280 C.2   1 <1>   0.2900 
  8 C        3.6120    -1.0980     0.8930 C.3   1 <1>   0.0600 
  9 O        3.3970     4.0290    -1.0870 O.2   1 <1>  -0.5700 
 10 C        4.5600     2.0660    -0.8260 C.2   1 <1>  -0.2370 
 11 N        5.7530     0.1950    -0.5870 N.2   1 <1>  -0.5650 
 12 N        5.7600     2.2540    -1.4320 N.pl3 1 <1>   0.0480 
 13 C        6.4190     1.0880    -1.2520 C.2   1 <1>   0.0360 
 14 C        6.2610     3.4640    -2.1240 C.3   1 <1>   0.0960 
 15 C        6.6440     4.5720    -1.1340 C.3   1 <1>   0.2000 
 16 O        7.3020     5.5540    -1.8550 O.3   1 <1>  -0.6800 
 17 C        7.5460     4.0970     0.0210 C.3   1 <1>   0.1200 
 18 O        7.9900     5.2010     0.7930 O.3   1 <1>  -0.3630 
 19 C        9.2140     5.7720     0.6460 C.ar  1 <1>   0.0820 
 20 C       10.0720     5.5260    -0.4240 C.ar  1 <1>  -0.1500 
 21 C        9.6030     6.6580     1.6370 C.ar  1 <1>  -0.1500 
 22 C       11.3040     6.1570    -0.4950 C.ar  1 <1>  -0.1440 
 23 C       10.8330     7.2880     1.5720 C.ar  1 <1>  -0.1500 
 24 C       11.6820     7.0360     0.5080 C.ar  1 <1>  -0.1500 
 25 C       12.2330     5.8850    -1.6640 C.3   1 <1>  -0.0970 
 26 H        0.2220     2.5500     0.0950 H     1 <1>   0.0800 
 27 H        1.0370     3.9600    -0.5310 H     1 <1>   0.0800 
 28 H        1.1010     3.6030     1.1840 H     1 <1>   0.0800 
 29 H        2.7000    -1.3990     1.3770 H     1 <1>   0.0800 
 30 H        4.4190    -1.1500     1.6030 H     1 <1>   0.0800 
 31 H        3.8170    -1.7740     0.0820 H     1 <1>   0.0800 
 32 H        7.4130     0.9270    -1.6320 H     1 <1>   0.1500 
 33 H        5.4960     3.8250    -2.7860 H     1 <1>   0.0800 
 34 H        7.1230     3.1910    -2.7050 H     1 <1>   0.0800 
 35 H        5.7510     5.0160    -0.7280 H     1 <1>   0.0800 
 36 H        7.6740     6.2100    -1.2230 H     1 <1>   0.4000 
 37 H        8.3880     3.5270    -0.3260 H     1 <1>   0.0800 
 38 H        6.9770     3.4680     0.6830 H     1 <1>   0.0800 
 39 H        9.7950     4.8550    -1.2130 H     1 <1>   0.1500 
 40 H        8.9390     6.8490     2.4610 H     1 <1>   0.1500 
 41 H       11.1300     7.9720     2.3470 H     1 <1>   0.1500 
 42 H       12.6370     7.5280     0.4650 H     1 <1>   0.1500 
 43 H       12.8170     5.0040    -1.4670 H     1 <1>   0.0800 
 44 H       12.8990     6.7150    -1.8190 H     1 <1>   0.0800 
 45 H       11.6670     5.7330    -2.5650 H     1 <1>   0.0800 
@<TRIPOS>BOND
  1   1   2  2   
  2   2   3  am  
  3   2   4  am  
  4   3   5  am  
  5   3   6  1   
  6   4   7  1   
  7   4   8  1   
  8   5   9  2   
  9   5  10  1   
 10   6  26  1   
 11   6  27  1   
 12   6  28  1   
 13   7  10  2   
 14   7  11  1   
 15   8  29  1   
 16   8  30  1   
 17   8  31  1   
 18  10  12  1   
 19  11  13  2   
 20  12  13  1   
 21  12  14  1   
 22  13  32  1   
 23  14  15  1   
 24  14  33  1   
 25  14  34  1   
 26  15  16  1   
 27  15  17  1   
 28  15  35  1   
 29  16  36  1   
 30  17  18  1   
 31  17  37  1   
 32  17  38  1   
 33  18  19  1   
 34  19  20  ar  
 35  19  21  ar  
 36  20  22  ar  
 37  20  39  1   
 38  21  23  ar  
 39  21  40  1   
 40  22  24  ar  
 41  22  25  1   
 42  23  24  ar  
 43  23  41  1   
 44  24  42  1   
 45  25  43  1   
 46  25  44  1   
 47  25  45  1   
@<TRIPOS>SUBSTRUCTURE
  1 ****  17 GROUP 4 **** **** 0

# MOE 2024.06 (io_trps.svl 2023.06)
