@<TRIPOS>MOLECULE
4-[3-(4-Chloro-phenyl)-[1,2,4]oxadiazol-5-yl]-N-cyclohexyl-butyramide
46 48 1 0 0 
SMALL
USER_CHARGES


@<TRIPOS>ATOM
  1 CL       2.5760    -0.9780     1.6030 Cl    1 <1>  -0.1770 
  2 C        3.5240     0.3590     1.0090 C.ar  1 <1>   0.1770 
  3 C        3.7540     1.4480     1.8260 C.ar  1 <1>  -0.1500 
  4 C        4.0370     0.3130    -0.2730 C.ar  1 <1>  -0.1500 
  5 C        4.5100     2.5050     1.3490 C.ar  1 <1>  -0.1500 
  6 C        4.7900     1.3760    -0.7390 C.ar  1 <1>  -0.1500 
  7 C        5.0490     2.4960     0.0580 C.ar  1 <1>   0.0540 
  8 C        5.8570     3.5970    -0.4380 C.2   1 <1>   0.4620 
  9 N        6.3470     3.6900    -1.6240 N.2   1 <1>  -0.4100 
 10 N        6.2030     4.6420     0.3210 N.2   1 <1>  -0.5650 
 11 O        7.0280     4.7890    -1.6890 O.3   1 <1>  -0.0190 
 12 C        6.9080     5.3090    -0.4960 C.2   1 <1>   0.2980 
 13 C        7.6340     6.6090    -0.1960 C.3   1 <1>   0.0200 
 14 C        9.1460     6.3730    -0.0540 C.3   1 <1>  -0.1600 
 15 C        9.5020     5.5990     1.2310 C.3   1 <1>  -0.0990 
 16 C       10.8430     4.8990     1.1110 C.2   1 <1>   0.5690 
 17 O       11.8300     5.4570     1.5150 O.2   1 <1>  -0.5700 
 18 N       10.9410     3.6690     0.5550 N.am  1 <1>  -0.7300 
 19 C        9.8840     2.8180    -0.0210 C.3   1 <1>   0.2200 
 20 C        9.5800     1.6760     0.9520 C.3   1 <1>  -0.1600 
 21 C       10.3560     2.2840    -1.3760 C.3   1 <1>  -0.1600 
 22 C        8.5480     0.7050     0.3610 C.3   1 <1>  -0.1600 
 23 C        9.3240     1.3170    -1.9760 C.3   1 <1>  -0.1600 
 24 C        9.0030     0.1730    -1.0050 C.3   1 <1>  -0.1600 
 25 H        3.3440     1.4640     2.8200 H     1 <1>   0.1500 
 26 H        3.8460    -0.5440    -0.8940 H     1 <1>   0.1500 
 27 H        4.6870     3.3520     1.9900 H     1 <1>   0.1500 
 28 H        5.1880     1.3360    -1.7390 H     1 <1>   0.1500 
 29 H        7.2420     7.0400     0.7080 H     1 <1>   0.0800 
 30 H        7.4480     7.2970    -1.0010 H     1 <1>   0.0800 
 31 H        9.6630     7.3170    -0.0420 H     1 <1>   0.0800 
 32 H        9.4950     5.8280    -0.9150 H     1 <1>   0.0800 
 33 H        8.7560     4.8660     1.4710 H     1 <1>   0.0800 
 34 H        9.5450     6.2830     2.0590 H     1 <1>   0.0800 
 35 H       11.8800     3.2700     0.5400 H     1 <1>   0.3700 
 36 H        8.9880     3.3910    -0.1780 H     1 <1>   0.0800 
 37 H        9.1970     2.0820     1.8720 H     1 <1>   0.0800 
 38 H       10.4860     1.1370     1.1680 H     1 <1>   0.0800 
 39 H       11.2910     1.7660    -1.2550 H     1 <1>   0.0800 
 40 H       10.5050     3.1070    -2.0520 H     1 <1>   0.0800 
 41 H        7.6070     1.2130     0.2480 H     1 <1>   0.0800 
 42 H        8.3970    -0.1190     1.0370 H     1 <1>   0.0800 
 43 H        9.7030     0.9120    -2.8990 H     1 <1>   0.0800 
 44 H        8.4200     1.8560    -2.2030 H     1 <1>   0.0800 
 45 H        8.2300    -0.4480    -1.4240 H     1 <1>   0.0800 
 46 H        9.8800    -0.4380    -0.8740 H     1 <1>   0.0800 
@<TRIPOS>BOND
  1   1   2  1   
  2   2   3  ar  
  3   2   4  ar  
  4   3   5  ar  
  5   3  25  1   
  6   4   6  ar  
  7   4  26  1   
  8   5   7  ar  
  9   5  27  1   
 10   6   7  ar  
 11   6  28  1   
 12   7   8  1   
 13   8   9  2   
 14   8  10  1   
 15   9  11  1   
 16  10  12  2   
 17  11  12  1   
 18  12  13  1   
 19  13  14  1   
 20  13  29  1   
 21  13  30  1   
 22  14  15  1   
 23  14  31  1   
 24  14  32  1   
 25  15  16  1   
 26  15  33  1   
 27  15  34  1   
 28  16  17  2   
 29  16  18  am  
 30  18  19  1   
 31  18  35  1   
 32  19  20  1   
 33  19  21  1   
 34  19  36  1   
 35  20  22  1   
 36  20  37  1   
 37  20  38  1   
 38  21  23  1   
 39  21  39  1   
 40  21  40  1   
 41  22  24  1   
 42  22  41  1   
 43  22  42  1   
 44  23  24  1   
 45  23  43  1   
 46  23  44  1   
 47  24  45  1   
 48  24  46  1   
@<TRIPOS>SUBSTRUCTURE
  1 ****   8 GROUP 4 **** **** 0

# MOE 2024.06 (io_trps.svl 2023.06)
