@<TRIPOS>MOLECULE
N-[3-(4-tert-Butyl-phenyl)-[1,2,4]oxadiazol-5-ylmethyl]-acetamide
39 40 1 0 0 
SMALL
USER_CHARGES


@<TRIPOS>ATOM
  1 O       -0.6070    -1.9790    -0.8670 O.2   1 <1>  -0.5700 
  2 C       -1.5830    -1.5800    -0.2910 C.2   1 <1>   0.5690 
  3 N       -2.7990    -1.7130    -0.8600 N.am  1 <1>  -0.7300 
  4 C       -1.4240    -0.9390     1.0660 C.3   1 <1>  -0.1790 
  5 C       -4.1290    -1.3350    -0.3160 C.3   1 <1>   0.3200 
  6 C       -4.8710    -2.5390     0.2440 C.2   1 <1>   0.2980 
  7 O       -4.4180    -3.0960     1.3350 O.3   1 <1>  -0.0190 
  8 N       -5.9160    -3.0680    -0.2460 N.2   1 <1>  -0.5650 
  9 N       -5.2460    -4.0660     1.5610 N.2   1 <1>  -0.4100 
 10 C       -6.1320    -4.0590     0.6270 C.2   1 <1>   0.4620 
 11 C       -7.2410    -4.9900     0.5030 C.ar  1 <1>   0.0540 
 12 C       -7.4400    -6.0120     1.4290 C.ar  1 <1>  -0.1500 
 13 C       -8.1590    -4.9090    -0.5430 C.ar  1 <1>  -0.1500 
 14 C       -8.4920    -6.9020     1.3190 C.ar  1 <1>  -0.1500 
 15 C       -9.2120    -5.7980    -0.6550 C.ar  1 <1>  -0.1500 
 16 C       -9.4040    -6.8150     0.2720 C.ar  1 <1>  -0.1430 
 17 C      -10.5950    -7.7840     0.1050 C.3   1 <1>   0.1430 
 18 C      -11.9110    -6.9920     0.1390 C.3   1 <1>  -0.2400 
 19 C      -10.4760    -8.5180    -1.2390 C.3   1 <1>  -0.2400 
 20 C      -10.6680    -8.8510     1.2110 C.3   1 <1>  -0.2400 
 21 H       -2.8120    -2.2310    -1.7420 H     1 <1>   0.3700 
 22 H       -1.7410     0.0860     1.0260 H     1 <1>   0.0800 
 23 H       -0.3900    -0.9690     1.3580 H     1 <1>   0.0800 
 24 H       -2.0020    -1.4740     1.7950 H     1 <1>   0.0800 
 25 H       -4.7160    -0.9000    -1.1060 H     1 <1>   0.0800 
 26 H       -4.0210    -0.5990     0.4600 H     1 <1>   0.0800 
 27 H       -6.7560    -6.1140     2.2540 H     1 <1>   0.1500 
 28 H       -8.0480    -4.1370    -1.2840 H     1 <1>   0.1500 
 29 H       -8.5770    -7.6620     2.0730 H     1 <1>   0.1500 
 30 H       -9.8870    -5.6860    -1.4840 H     1 <1>   0.1500 
 31 H      -11.9610    -6.2890    -0.6720 H     1 <1>   0.0800 
 32 H      -11.9860    -6.4460     1.0620 H     1 <1>   0.0800 
 33 H      -12.7550    -7.6520     0.0600 H     1 <1>   0.0800 
 34 H      -10.5140    -7.8290    -2.0620 H     1 <1>   0.0800 
 35 H      -11.2770    -9.2250    -1.3590 H     1 <1>   0.0800 
 36 H       -9.5410    -9.0480    -1.2850 H     1 <1>   0.0800 
 37 H      -10.7800    -8.3870     2.1750 H     1 <1>   0.0800 
 38 H       -9.7780    -9.4540     1.2130 H     1 <1>   0.0800 
 39 H      -11.5100    -9.5010     1.0560 H     1 <1>   0.0800 
@<TRIPOS>BOND
  1   1   2  2   
  2   2   3  am  
  3   2   4  1   
  4   3   5  1   
  5   3  21  1   
  6   4  22  1   
  7   4  23  1   
  8   4  24  1   
  9   5   6  1   
 10   5  25  1   
 11   5  26  1   
 12   6   7  1   
 13   6   8  2   
 14   7   9  1   
 15   8  10  1   
 16   9  10  2   
 17  10  11  1   
 18  11  12  ar  
 19  11  13  ar  
 20  12  14  ar  
 21  12  27  1   
 22  13  15  ar  
 23  13  28  1   
 24  14  16  ar  
 25  14  29  1   
 26  15  16  ar  
 27  15  30  1   
 28  16  17  1   
 29  17  18  1   
 30  17  19  1   
 31  17  20  1   
 32  18  31  1   
 33  18  32  1   
 34  18  33  1   
 35  19  34  1   
 36  19  35  1   
 37  19  36  1   
 38  20  37  1   
 39  20  38  1   
 40  20  39  1   
@<TRIPOS>SUBSTRUCTURE
  1 ****  10 GROUP 4 **** **** 0

# MOE 2024.06 (io_trps.svl 2023.06)
