@<TRIPOS>MOLECULE
4-Chloro-N-(3-isopropoxy-propyl)-3-(morpholine-4-sulfonyl)-benzamide
51 52 1 0 0 
SMALL
USER_CHARGES


@<TRIPOS>ATOM
  1 CL       0.4820     0.6620     2.0950 Cl    1 <1>  -0.1770 
  2 C        1.7110    -0.4590     1.5690 C.ar  1 <1>   0.1770 
  3 C        1.4320    -1.7900     1.2830 C.ar  1 <1>  -0.0090 
  4 C        2.9860     0.0580     1.4320 C.ar  1 <1>  -0.1500 
  5 S       -0.2220    -2.5200     1.4230 S.o2  1 <1>   1.4470 
  6 C        2.4890    -2.5730     0.8340 C.ar  1 <1>  -0.1500 
  7 C        4.0160    -0.7500     0.9920 C.ar  1 <1>  -0.1500 
  8 O       -0.0580    -3.9440     1.6180 O.2   1 <1>  -0.6500 
  9 O       -1.0870    -1.8090     2.3370 O.2   1 <1>  -0.6500 
 10 N       -0.8620    -2.3210    -0.1350 N.am  1 <1>  -0.8490 
 11 C        3.7900    -2.0900     0.6800 C.ar  1 <1>   0.0860 
 12 C       -1.3520    -0.9560    -0.3900 C.3   1 <1>   0.1960 
 13 C       -1.9450    -3.2820    -0.4000 C.3   1 <1>   0.1960 
 14 C        4.8530    -2.9570     0.2050 C.2   1 <1>   0.5440 
 15 C       -1.9370    -0.8310    -1.8080 C.3   1 <1>   0.1200 
 16 C       -2.5210    -3.0970    -1.8150 C.3   1 <1>   0.1200 
 17 O        4.6120    -3.8560    -0.5760 O.2   1 <1>  -0.5700 
 18 N        6.1390    -2.7870     0.6330 N.am  1 <1>  -0.7300 
 19 O       -2.9470    -1.7780    -2.0080 O.3   1 <1>  -0.5600 
 20 C        7.2910    -3.5920     0.1790 C.3   1 <1>   0.1400 
 21 C        8.5450    -2.7220     0.1900 C.3   1 <1>  -0.1600 
 22 C        9.7520    -3.5080    -0.3120 C.3   1 <1>   0.1200 
 23 O       10.8580    -2.6700    -0.2310 O.3   1 <1>  -0.5600 
 24 C       12.0560    -3.2160    -0.6720 C.3   1 <1>   0.2000 
 25 C       13.1680    -2.4830     0.0700 C.3   1 <1>  -0.2400 
 26 C       12.1670    -3.0040    -2.1820 C.3   1 <1>  -0.2400 
 27 H        3.1660     1.0940     1.6660 H     1 <1>   0.1500 
 28 H        2.3040    -3.6070     0.5860 H     1 <1>   0.1500 
 29 H        5.0020    -0.3350     0.8750 H     1 <1>   0.1500 
 30 H       -0.5440    -0.2550    -0.2910 H     1 <1>   0.0800 
 31 H       -2.1150    -0.6910     0.3250 H     1 <1>   0.0800 
 32 H       -2.7340    -3.1580     0.3240 H     1 <1>   0.0800 
 33 H       -1.5690    -4.2870    -0.3130 H     1 <1>   0.0800 
 34 H       -1.1700    -0.9840    -2.5480 H     1 <1>   0.0800 
 35 H       -2.3690     0.1440    -1.9490 H     1 <1>   0.0800 
 36 H       -3.3710    -3.7410    -1.9590 H     1 <1>   0.0800 
 37 H       -1.7780    -3.3320    -2.5570 H     1 <1>   0.0800 
 38 H        6.3370    -2.1300     1.3890 H     1 <1>   0.3700 
 39 H        7.1040    -3.9610    -0.8170 H     1 <1>   0.0800 
 40 H        7.4130    -4.4360     0.8380 H     1 <1>   0.0800 
 41 H        8.7430    -2.3860     1.1920 H     1 <1>   0.0800 
 42 H        8.3960    -1.8720    -0.4530 H     1 <1>   0.0800 
 43 H        9.6090    -3.8080    -1.3360 H     1 <1>   0.0800 
 44 H        9.9300    -4.3720     0.3060 H     1 <1>   0.0800 
 45 H       12.0870    -4.2650    -0.4240 H     1 <1>   0.0800 
 46 H       13.1310    -1.4310    -0.1480 H     1 <1>   0.0800 
 47 H       14.1270    -2.8650    -0.2300 H     1 <1>   0.0800 
 48 H       13.0580    -2.6300     1.1290 H     1 <1>   0.0800 
 49 H       12.0730    -1.9590    -2.4170 H     1 <1>   0.0800 
 50 H       11.4060    -3.5560    -2.7020 H     1 <1>   0.0800 
 51 H       13.1240    -3.3490    -2.5290 H     1 <1>   0.0800 
@<TRIPOS>BOND
  1   1   2  1   
  2   2   3  ar  
  3   2   4  ar  
  4   3   5  1   
  5   3   6  ar  
  6   4   7  ar  
  7   4  27  1   
  8   5   8  2   
  9   5   9  2   
 10   5  10  am  
 11   6  11  ar  
 12   6  28  1   
 13   7  11  ar  
 14   7  29  1   
 15  10  12  1   
 16  10  13  1   
 17  11  14  1   
 18  12  15  1   
 19  12  30  1   
 20  12  31  1   
 21  13  16  1   
 22  13  32  1   
 23  13  33  1   
 24  14  17  2   
 25  14  18  am  
 26  15  19  1   
 27  15  34  1   
 28  15  35  1   
 29  16  19  1   
 30  16  36  1   
 31  16  37  1   
 32  18  20  1   
 33  18  38  1   
 34  20  21  1   
 35  20  39  1   
 36  20  40  1   
 37  21  22  1   
 38  21  41  1   
 39  21  42  1   
 40  22  23  1   
 41  22  43  1   
 42  22  44  1   
 43  23  24  1   
 44  24  25  1   
 45  24  26  1   
 46  24  45  1   
 47  25  46  1   
 48  25  47  1   
 49  25  48  1   
 50  26  49  1   
 51  26  50  1   
 52  26  51  1   
@<TRIPOS>SUBSTRUCTURE
  1 ****  11 GROUP 4 **** **** 0

# MOE 2024.06 (io_trps.svl 2023.06)
