@<TRIPOS>MOLECULE
N-Cyclohexyl-4-[3-(2-ethoxy-phenyl)-[1,2,4]oxadiazol-5-yl]-butyramide
53 55 1 0 0 
SMALL
USER_CHARGES


@<TRIPOS>ATOM
  1 O        0.8450    -0.3820    -1.2770 O.2   1 <1>  -0.5700 
  2 C        1.9230    -0.2530    -0.7550 C.2   1 <1>   0.5690 
  3 N        2.6300     0.8780    -0.9720 N.am  1 <1>  -0.7300 
  4 C        2.4760    -1.3520     0.1450 C.3   1 <1>  -0.0990 
  5 C        3.9300     1.2940    -0.4240 C.3   1 <1>   0.2200 
  6 C        1.6650    -2.6620     0.1190 C.3   1 <1>  -0.1600 
  7 C        3.7910     2.7010     0.1640 C.3   1 <1>  -0.1600 
  8 C        4.9740     1.2610    -1.5450 C.3   1 <1>  -0.1600 
  9 C        2.2660    -3.7280     1.0520 C.3   1 <1>   0.0200 
 10 C        5.1450     3.2290     0.6620 C.3   1 <1>  -0.1600 
 11 C        6.3320     1.7850    -1.0530 C.3   1 <1>  -0.1600 
 12 C        1.4990    -5.0410     1.0580 C.2   1 <1>   0.2980 
 13 C        6.1990     3.1920    -0.4530 C.3   1 <1>  -0.1600 
 14 O        1.8630    -5.9530     1.9210 O.3   1 <1>  -0.0190 
 15 N        0.5270    -5.3610     0.3070 N.2   1 <1>  -0.5650 
 16 N        1.0490    -6.9380     1.7040 N.2   1 <1>  -0.4100 
 17 C        0.2640    -6.5980     0.7430 C.2   1 <1>   0.4620 
 18 C       -0.8160    -7.3850     0.1790 C.ar  1 <1>   0.0540 
 19 C       -0.6810    -8.7440    -0.1420 C.ar  1 <1>   0.0820 
 20 C       -2.0500    -6.7800    -0.0610 C.ar  1 <1>  -0.1500 
 21 O        0.5300    -9.3260     0.0540 O.3   1 <1>  -0.3630 
 22 C       -1.7620    -9.4540    -0.6600 C.ar  1 <1>  -0.1500 
 23 C       -3.1190    -7.4870    -0.5790 C.ar  1 <1>  -0.1500 
 24 C        0.7460   -10.7080    -0.1020 C.3   1 <1>   0.1200 
 25 C       -2.9750    -8.8290    -0.8760 C.ar  1 <1>  -0.1500 
 26 C        2.1900   -11.0020     0.2930 C.3   1 <1>  -0.2400 
 27 H        2.1890     1.5490    -1.6030 H     1 <1>   0.3700 
 28 H        2.5020    -0.9710     1.1490 H     1 <1>   0.0800 
 29 H        3.4830    -1.5620    -0.1650 H     1 <1>   0.0800 
 30 H        4.2350     0.6210     0.3590 H     1 <1>   0.0800 
 31 H        1.6360    -3.0420    -0.8890 H     1 <1>   0.0800 
 32 H        0.6490    -2.4610     0.4180 H     1 <1>   0.0800 
 33 H        3.0940     2.6800     0.9830 H     1 <1>   0.0800 
 34 H        3.4120     3.3700    -0.5890 H     1 <1>   0.0800 
 35 H        4.6400     1.8730    -2.3640 H     1 <1>   0.0800 
 36 H        5.0890     0.2520    -1.9000 H     1 <1>   0.0800 
 37 H        2.2850    -3.3480     2.0570 H     1 <1>   0.0800 
 38 H        3.2780    -3.9360     0.7540 H     1 <1>   0.0800 
 39 H        5.4810     2.6300     1.4910 H     1 <1>   0.0800 
 40 H        5.0300     4.2400     1.0140 H     1 <1>   0.0800 
 41 H        7.0280     1.8080    -1.8740 H     1 <1>   0.0800 
 42 H        6.7250     1.1150    -0.3070 H     1 <1>   0.0800 
 43 H        7.1510     3.5070    -0.0610 H     1 <1>   0.0800 
 44 H        5.9200     3.8840    -1.2300 H     1 <1>   0.0800 
 45 H       -2.1690    -5.7340     0.1670 H     1 <1>   0.1500 
 46 H       -1.6790   -10.4940    -0.9080 H     1 <1>   0.1500 
 47 H       -4.0600    -6.9930    -0.7510 H     1 <1>   0.1500 
 48 H        0.5730   -10.9660    -1.1320 H     1 <1>   0.0800 
 49 H        0.0620   -11.2340     0.5400 H     1 <1>   0.0800 
 50 H       -3.8060    -9.3820    -1.2780 H     1 <1>   0.1500 
 51 H        2.8640   -10.4580    -0.3440 H     1 <1>   0.0800 
 52 H        2.3910   -12.0530     0.1920 H     1 <1>   0.0800 
 53 H        2.3560   -10.7150     1.3160 H     1 <1>   0.0800 
@<TRIPOS>BOND
  1   1   2  2   
  2   2   3  am  
  3   2   4  1   
  4   3   5  1   
  5   3  27  1   
  6   4   6  1   
  7   4  28  1   
  8   4  29  1   
  9   5   7  1   
 10   5   8  1   
 11   5  30  1   
 12   6   9  1   
 13   6  31  1   
 14   6  32  1   
 15   7  10  1   
 16   7  33  1   
 17   7  34  1   
 18   8  11  1   
 19   8  35  1   
 20   8  36  1   
 21   9  12  1   
 22   9  37  1   
 23   9  38  1   
 24  10  13  1   
 25  10  39  1   
 26  10  40  1   
 27  11  13  1   
 28  11  41  1   
 29  11  42  1   
 30  12  14  1   
 31  12  15  2   
 32  13  43  1   
 33  13  44  1   
 34  14  16  1   
 35  15  17  1   
 36  16  17  2   
 37  17  18  1   
 38  18  19  ar  
 39  18  20  ar  
 40  19  21  1   
 41  19  22  ar  
 42  20  23  ar  
 43  20  45  1   
 44  21  24  1   
 45  22  25  ar  
 46  22  46  1   
 47  23  25  ar  
 48  23  47  1   
 49  24  26  1   
 50  24  48  1   
 51  24  49  1   
 52  25  50  1   
 53  26  51  1   
 54  26  52  1   
 55  26  53  1   
@<TRIPOS>SUBSTRUCTURE
  1 ****   9 GROUP 4 **** **** 0

# MOE 2024.06 (io_trps.svl 2023.06)
