@<TRIPOS>MOLECULE
N-(4-Methoxy-phenyl)-2-(5,6,7,8-tetrahydro-benzo[4,5]thieno[2,3-d]pyrimidin-4-yl
48 51 1 0 0 
SMALL
USER_CHARGES


@<TRIPOS>ATOM
  1 S        0.2800     1.0560    -0.6010 S.3   1 <1>  -0.0800 
  2 C        0.7050     1.8580     0.9100 C.ar  1 <1>   0.2970 
  3 C        0.0660     2.6060    -1.4080 C.2   1 <1>  -0.1400 
  4 N        1.0290     1.1930     1.9990 N.ar  1 <1>  -0.5670 
  5 C        0.6620     3.2300     0.7690 C.ar  1 <1>   0.0000 
  6 C        0.2780     3.6330    -0.5710 C.2   1 <1>  -0.1810 
  7 C       -0.3050     2.6470    -2.8730 C.3   1 <1>   0.0200 
  8 C        1.3400     1.9770     3.0120 C.ar  1 <1>   0.4700 
  9 C        1.0210     3.9000     1.9320 C.ar  1 <1>   0.4120 
 10 C        0.1310     5.0720    -1.0560 C.3   1 <1>   0.0210 
 11 C       -0.0510     4.0660    -3.4110 C.3   1 <1>  -0.1600 
 12 N        1.3650     3.3050     3.0530 N.ar  1 <1>  -0.6200 
 13 S        1.0320     5.6840     1.9580 S.3   1 <1>  -0.3320 
 14 C       -0.5570     5.1460    -2.4340 C.3   1 <1>  -0.1600 
 15 C        2.1630     6.1950     3.3400 C.3   1 <1>   0.2110 
 16 C        1.9950     7.6870     3.6860 C.2   1 <1>   0.5690 
 17 C        3.5990     5.8200     2.9430 C.3   1 <1>  -0.2400 
 18 O        1.9590     7.9910     4.8530 O.2   1 <1>  -0.5700 
 19 N        1.9050     8.6900     2.7610 N.am  1 <1>  -0.5470 
 20 C        1.8170     8.6470     1.3660 C.ar  1 <1>   0.1170 
 21 C        0.5790     8.7650     0.7480 C.ar  1 <1>  -0.1500 
 22 C        2.9490     8.4810     0.5790 C.ar  1 <1>  -0.1500 
 23 C        0.4700     8.6800    -0.6280 C.ar  1 <1>  -0.1500 
 24 C        2.8450     8.3910    -0.7980 C.ar  1 <1>  -0.1500 
 25 C        1.5970     8.4810    -1.4100 C.ar  1 <1>   0.0820 
 26 O        1.3980     8.3800    -2.7500 O.3   1 <1>  -0.3630 
 27 C        2.4710     8.1060    -3.6230 C.3   1 <1>   0.0400 
 28 H       -1.3440     2.3890    -2.9780 H     1 <1>   0.0800 
 29 H        0.2840     1.9360    -3.4260 H     1 <1>   0.0800 
 30 H        1.6120     1.4760     3.9270 H     1 <1>   0.1500 
 31 H        1.1080     5.5200    -1.1150 H     1 <1>   0.0800 
 32 H       -0.4590     5.6390    -0.3590 H     1 <1>   0.0800 
 33 H       -0.5320     4.1800    -4.3660 H     1 <1>   0.0800 
 34 H        1.0080     4.2000    -3.5550 H     1 <1>   0.0800 
 35 H       -0.3980     6.1240    -2.8550 H     1 <1>   0.0800 
 36 H       -1.6170     5.0170    -2.2970 H     1 <1>   0.0800 
 37 H        1.8620     5.6200     4.1980 H     1 <1>   0.0800 
 38 H        3.8680     6.2810     2.0120 H     1 <1>   0.0800 
 39 H        3.6920     4.7550     2.8400 H     1 <1>   0.0800 
 40 H        4.2830     6.1470     3.7050 H     1 <1>   0.0800 
 41 H        1.7510     9.6020     3.1910 H     1 <1>   0.3700 
 42 H       -0.3010     8.9070     1.3480 H     1 <1>   0.1500 
 43 H        3.9130     8.4190     1.0500 H     1 <1>   0.1500 
 44 H       -0.4900     8.7610    -1.1050 H     1 <1>   0.1500 
 45 H        3.7400     8.2530    -1.3750 H     1 <1>   0.1500 
 46 H        2.0810     8.0450    -4.6230 H     1 <1>   0.0800 
 47 H        2.9150     7.1660    -3.3460 H     1 <1>   0.0800 
 48 H        3.1870     8.9060    -3.5590 H     1 <1>   0.0800 
@<TRIPOS>BOND
  1   1   2  1   
  2   1   3  1   
  3   2   4  ar  
  4   2   5  ar  
  5   3   6  2   
  6   3   7  1   
  7   4   8  ar  
  8   5   6  1   
  9   5   9  ar  
 10   6  10  1   
 11   7  11  1   
 12   7  28  1   
 13   7  29  1   
 14   8  12  ar  
 15   8  30  1   
 16   9  12  ar  
 17   9  13  1   
 18  10  14  1   
 19  10  31  1   
 20  10  32  1   
 21  11  14  1   
 22  11  33  1   
 23  11  34  1   
 24  13  15  1   
 25  14  35  1   
 26  14  36  1   
 27  15  16  1   
 28  15  17  1   
 29  15  37  1   
 30  16  18  2   
 31  16  19  am  
 32  17  38  1   
 33  17  39  1   
 34  17  40  1   
 35  19  20  1   
 36  19  41  1   
 37  20  21  ar  
 38  20  22  ar  
 39  21  23  ar  
 40  21  42  1   
 41  22  24  ar  
 42  22  43  1   
 43  23  25  ar  
 44  23  44  1   
 45  24  25  ar  
 46  24  45  1   
 47  25  26  1   
 48  26  27  1   
 49  27  46  1   
 50  27  47  1   
 51  27  48  1   
@<TRIPOS>SUBSTRUCTURE
  1 ****  13 GROUP 4 **** **** 0

# MOE 2024.06 (io_trps.svl 2023.06)
