@<TRIPOS>MOLECULE
7-(2-Methoxy-ethyl)-3-methyl-8-p-tolylsulfanyl-3,7-dihydro-purine-2,6-dione
42 44 1 0 0 
SMALL
USER_CHARGES


@<TRIPOS>ATOM
  1 S        0.1450     0.1990    -0.3320 S.3   1 <1>  -0.1580 
  2 C        0.7680    -1.4840    -0.1510 C.ar  1 <1>   0.1020 
  3 C       -1.6490     0.1300    -0.4590 C.2   1 <1>   0.2420 
  4 C        1.8930    -1.6690     0.6330 C.ar  1 <1>  -0.1500 
  5 C        0.1700    -2.5550    -0.7930 C.ar  1 <1>  -0.1500 
  6 N       -2.3510    -0.9190    -0.1570 N.2   1 <1>  -0.5650 
  7 N       -2.3560     1.2130    -0.8560 N.pl3 1 <1>   0.0480 
  8 C        2.4120    -2.9430     0.7910 C.ar  1 <1>  -0.1500 
  9 C        0.6950    -3.8260    -0.6300 C.ar  1 <1>  -0.1500 
 10 C       -3.6000    -0.4950    -0.3750 C.2   1 <1>   0.2900 
 11 C       -3.6480     0.7930    -0.7940 C.2   1 <1>  -0.2370 
 12 C       -1.8670     2.5520    -1.2580 C.3   1 <1>   0.0960 
 13 C        1.8140    -4.0250     0.1640 C.ar  1 <1>  -0.1430 
 14 N       -4.7670    -1.2400    -0.2060 N.am  1 <1>  -0.4230 
 15 C       -4.8900     1.4190    -1.0590 C.2   1 <1>   0.7150 
 16 C       -1.9730     3.5230    -0.0860 C.3   1 <1>   0.1200 
 17 C        2.3860    -5.4200     0.3390 C.3   1 <1>  -0.0960 
 18 C       -5.9800    -0.6380    -0.4810 C.2   1 <1>   0.6900 
 19 C       -4.6600    -2.6450     0.2660 C.3   1 <1>   0.0600 
 20 O       -5.0030     2.5760    -1.4070 O.2   1 <1>  -0.5700 
 21 N       -6.0050     0.6610    -0.8960 N.am  1 <1>  -0.4900 
 22 O       -1.3820     4.7220    -0.4700 O.3   1 <1>  -0.5600 
 23 O       -7.0380    -1.2220    -0.3650 O.2   1 <1>  -0.5700 
 24 C       -1.4660     5.7260     0.4890 C.3   1 <1>   0.0400 
 25 H        2.3540    -0.8280     1.1170 H     1 <1>   0.1500 
 26 H       -0.6910    -2.4060    -1.4170 H     1 <1>   0.1500 
 27 H        3.2850    -3.0870     1.4040 H     1 <1>   0.1500 
 28 H        0.2270    -4.6580    -1.1260 H     1 <1>   0.1500 
 29 H       -2.4610     2.9100    -2.0790 H     1 <1>   0.0800 
 30 H       -0.8440     2.4770    -1.5750 H     1 <1>   0.0800 
 31 H       -1.4430     3.1430     0.7710 H     1 <1>   0.0800 
 32 H       -3.0060     3.7080     0.1570 H     1 <1>   0.0800 
 33 H        3.1250    -5.6080    -0.4190 H     1 <1>   0.0800 
 34 H        1.6090    -6.1580     0.2580 H     1 <1>   0.0800 
 35 H        2.8470    -5.5190     1.3060 H     1 <1>   0.0800 
 36 H       -4.0750    -3.2140    -0.4350 H     1 <1>   0.0800 
 37 H       -5.6320    -3.0950     0.3610 H     1 <1>   0.0800 
 38 H       -4.1700    -2.6630     1.2240 H     1 <1>   0.0800 
 39 H       -6.9080     1.0790    -1.0830 H     1 <1>   0.3700 
 40 H       -0.9790     6.6030     0.0990 H     1 <1>   0.0800 
 41 H       -0.9670     5.4040     1.3870 H     1 <1>   0.0800 
 42 H       -2.5020     5.9440     0.6860 H     1 <1>   0.0800 
@<TRIPOS>BOND
  1   1   2  1   
  2   1   3  1   
  3   2   4  ar  
  4   2   5  ar  
  5   3   6  2   
  6   3   7  1   
  7   4   8  ar  
  8   4  25  1   
  9   5   9  ar  
 10   5  26  1   
 11   6  10  1   
 12   7  11  1   
 13   7  12  1   
 14   8  13  ar  
 15   8  27  1   
 16   9  13  ar  
 17   9  28  1   
 18  10  11  2   
 19  10  14  1   
 20  11  15  1   
 21  12  16  1   
 22  12  29  1   
 23  12  30  1   
 24  13  17  1   
 25  14  18  am  
 26  14  19  1   
 27  15  20  2   
 28  15  21  am  
 29  16  22  1   
 30  16  31  1   
 31  16  32  1   
 32  17  33  1   
 33  17  34  1   
 34  17  35  1   
 35  18  21  am  
 36  18  23  2   
 37  19  36  1   
 38  19  37  1   
 39  19  38  1   
 40  21  39  1   
 41  22  24  1   
 42  24  40  1   
 43  24  41  1   
 44  24  42  1   
@<TRIPOS>SUBSTRUCTURE
  1 ****   3 GROUP 4 **** **** 0

# MOE 2024.06 (io_trps.svl 2023.06)
