@<TRIPOS>MOLECULE
3,4,5-Trimethoxy-N-(2-piperidin-1-yl-phenyl)-benzamide
53 55 1 0 0 
SMALL
USER_CHARGES


@<TRIPOS>ATOM
  1 O        1.3440    -3.6510    -0.9560 O.2   1 <1>  -0.5700 
  2 C        1.1150    -2.5030    -0.6250 C.2   1 <1>   0.5440 
  3 N       -0.1510    -1.9920    -0.7380 N.am  1 <1>  -0.5470 
  4 C        2.1710    -1.6660    -0.0840 C.ar  1 <1>   0.0860 
  5 C       -1.3890    -2.4680    -1.1880 C.ar  1 <1>   0.1170 
  6 C        3.2970    -2.2390     0.5070 C.ar  1 <1>  -0.1500 
  7 C        2.1030    -0.2700    -0.1270 C.ar  1 <1>  -0.1500 
  8 C       -2.4650    -1.5800    -1.0480 C.ar  1 <1>   0.1000 
  9 C       -1.5980    -3.7210    -1.7460 C.ar  1 <1>  -0.1500 
 10 C        4.3130    -1.4670     1.0550 C.ar  1 <1>   0.0830 
 11 C        3.1020     0.5260     0.4180 C.ar  1 <1>   0.0830 
 12 N       -2.2490    -0.3080    -0.4810 N.pl3 1 <1>  -0.8380 
 13 C       -3.7280    -1.9790    -1.4650 C.ar  1 <1>  -0.1500 
 14 C       -2.8630    -4.1030    -2.1610 C.ar  1 <1>  -0.1500 
 15 O        5.4200    -2.0150     1.6360 O.3   1 <1>  -0.3620 
 16 C        4.2090    -0.0760     1.0140 C.ar  1 <1>   0.0830 
 17 O        3.0530     1.8900     0.3880 O.3   1 <1>  -0.3620 
 18 C       -2.7010     0.8680    -1.2680 C.3   1 <1>   0.2090 
 19 C       -2.5520    -0.1910     0.9680 C.3   1 <1>   0.2090 
 20 C       -3.9280    -3.2320    -2.0190 C.ar  1 <1>  -0.1500 
 21 C        5.5560    -3.4090     1.8010 C.3   1 <1>   0.0400 
 22 O        5.1730     0.6970     1.5740 O.3   1 <1>  -0.3630 
 23 C        1.8970     2.5860    -0.0200 C.3   1 <1>   0.0400 
 24 C       -1.9710     2.1140    -0.7570 C.3   1 <1>  -0.1600 
 25 C       -1.8160     1.0310     1.5280 C.3   1 <1>  -0.1600 
 26 C        6.2870     0.9690     0.7590 C.3   1 <1>   0.0400 
 27 C       -2.1720     2.3120     0.7550 C.3   1 <1>  -0.1600 
 28 H       -0.2960    -1.0410    -0.3870 H     1 <1>   0.3700 
 29 H        3.3510    -3.3120     0.5240 H     1 <1>   0.1500 
 30 H        1.2580     0.1850    -0.6050 H     1 <1>   0.1500 
 31 H       -0.7760    -4.4040    -1.8590 H     1 <1>   0.1500 
 32 H       -4.5590    -1.3080    -1.3520 H     1 <1>   0.1500 
 33 H       -3.0130    -5.0770    -2.5920 H     1 <1>   0.1500 
 34 H       -3.7650     0.9920    -1.1570 H     1 <1>   0.0800 
 35 H       -2.4800     0.7110    -2.3110 H     1 <1>   0.0800 
 36 H       -2.2310    -1.0830     1.4790 H     1 <1>   0.0800 
 37 H       -3.6140    -0.0820     1.1060 H     1 <1>   0.0800 
 38 H       -4.9110    -3.5290    -2.3400 H     1 <1>   0.1500 
 39 H        6.4830    -3.5950     2.3120 H     1 <1>   0.0800 
 40 H        5.5730    -3.8760     0.8320 H     1 <1>   0.0800 
 41 H        4.7340    -3.7730     2.3920 H     1 <1>   0.0800 
 42 H        2.0780     3.6370     0.1150 H     1 <1>   0.0800 
 43 H        1.0690     2.2770     0.5920 H     1 <1>   0.0800 
 44 H        1.7130     2.3800    -1.0590 H     1 <1>   0.0800 
 45 H       -2.3310     2.9780    -1.2860 H     1 <1>   0.0800 
 46 H       -0.9250     2.0080    -0.9760 H     1 <1>   0.0800 
 47 H       -0.7570     0.8500     1.4700 H     1 <1>   0.0800 
 48 H       -2.0700     1.1520     2.5650 H     1 <1>   0.0800 
 49 H        6.9650     1.5900     1.3140 H     1 <1>   0.0800 
 50 H        5.9510     1.4820    -0.1250 H     1 <1>   0.0800 
 51 H        6.7640     0.0400     0.5000 H     1 <1>   0.0800 
 52 H       -3.2030     2.5600     0.9430 H     1 <1>   0.0800 
 53 H       -1.5650     3.1300     1.1030 H     1 <1>   0.0800 
@<TRIPOS>BOND
  1   1   2  2   
  2   2   3  am  
  3   2   4  1   
  4   3   5  1   
  5   3  28  1   
  6   4   6  ar  
  7   4   7  ar  
  8   5   8  ar  
  9   5   9  ar  
 10   6  10  ar  
 11   6  29  1   
 12   7  11  ar  
 13   7  30  1   
 14   8  12  1   
 15   8  13  ar  
 16   9  14  ar  
 17   9  31  1   
 18  10  15  1   
 19  10  16  ar  
 20  11  16  ar  
 21  11  17  1   
 22  12  18  1   
 23  12  19  1   
 24  13  20  ar  
 25  13  32  1   
 26  14  20  ar  
 27  14  33  1   
 28  15  21  1   
 29  16  22  1   
 30  17  23  1   
 31  18  24  1   
 32  18  34  1   
 33  18  35  1   
 34  19  25  1   
 35  19  36  1   
 36  19  37  1   
 37  20  38  1   
 38  21  39  1   
 39  21  40  1   
 40  21  41  1   
 41  22  26  1   
 42  23  42  1   
 43  23  43  1   
 44  23  44  1   
 45  24  27  1   
 46  24  45  1   
 47  24  46  1   
 48  25  27  1   
 49  25  47  1   
 50  25  48  1   
 51  26  49  1   
 52  26  50  1   
 53  26  51  1   
 54  27  52  1   
 55  27  53  1   
@<TRIPOS>SUBSTRUCTURE
  1 ****   7 GROUP 4 **** **** 0

# MOE 2024.06 (io_trps.svl 2023.06)
