@<TRIPOS>MOLECULE
7-(2-Methoxy-phenyl)-2-(4-methoxy-phenyl)-tetrahydro-2,3b,6a-triaza-cyclopenta[a
52 56 1 0 0 
SMALL
USER_CHARGES


@<TRIPOS>ATOM
  1 O        0.0850     0.7610    -1.0230 O.2   1 <1>  -0.5700 
  2 C       -0.0700     1.8230    -0.4710 C.2   1 <1>   0.5690 
  3 N        0.8740     2.5540     0.2220 N.am  1 <1>  -0.2370 
  4 C       -1.3960     2.5460    -0.3310 C.3   1 <1>   0.2510 
  5 C        2.1890     2.1320     0.5360 C.ar  1 <1>   0.1170 
  6 C        0.3160     3.7670     0.5750 C.2   1 <1>   0.5690 
  7 N       -2.5020     2.6810    -1.2740 N.3   1 <1>  -0.5400 
  8 C       -0.9380     3.9680    -0.2210 C.3   1 <1>  -0.0190 
  9 C        2.4520     0.8170     0.9120 C.ar  1 <1>  -0.1500 
 10 C        3.2540     3.0260     0.4790 C.ar  1 <1>  -0.1500 
 11 O        0.7450     4.5550     1.3780 O.2   1 <1>  -0.5700 
 12 N       -3.1640     3.9160    -0.8300 N.3   1 <1>  -0.5400 
 13 C       -3.4780     1.5920    -1.2020 C.3   1 <1>   0.1100 
 14 C       -2.2540     4.6250     0.1180 C.3   1 <1>   0.3330 
 15 C        3.7370     0.4050     1.2200 C.ar  1 <1>  -0.1500 
 16 C        4.5390     2.6190     0.7870 C.ar  1 <1>  -0.1500 
 17 C       -4.4610     3.5610    -0.2700 C.3   1 <1>   0.1100 
 18 C       -4.8200     2.2780    -0.9930 C.3   1 <1>  -0.1600 
 19 C       -2.2310     6.1360    -0.0950 C.ar  1 <1>  -0.1430 
 20 C        4.7920     1.3100     1.1590 C.ar  1 <1>   0.0830 
 21 C       -1.9680     6.9750     0.9830 C.ar  1 <1>   0.0830 
 22 C       -2.4460     6.6930    -1.3490 C.ar  1 <1>  -0.1500 
 23 O        6.0810     0.9930     1.4440 O.3   1 <1>  -0.3630 
 24 O       -1.7530     6.4180     2.1990 O.3   1 <1>  -0.3630 
 25 C       -1.9310     8.3540     0.8020 C.ar  1 <1>  -0.1500 
 26 C       -2.4040     8.0650    -1.5270 C.ar  1 <1>  -0.1500 
 27 C        6.4430    -0.3170     1.8230 C.3   1 <1>   0.0400 
 28 C       -0.7150     6.9260     3.0080 C.3   1 <1>   0.0400 
 29 C       -2.1470     8.8960    -0.4520 C.ar  1 <1>  -0.1500 
 30 H       -1.8010     2.2350     0.6170 H     1 <1>   0.0800 
 31 H       -0.6250     4.3280    -1.1870 H     1 <1>   0.0800 
 32 H        1.6490     0.1040     0.9610 H     1 <1>   0.1500 
 33 H        3.0830     4.0490     0.1950 H     1 <1>   0.1500 
 34 H       -3.2650     0.9360    -0.3760 H     1 <1>   0.0800 
 35 H       -3.4660     1.0250    -2.1170 H     1 <1>   0.0800 
 36 H       -2.5250     4.3890     1.1320 H     1 <1>   0.0800 
 37 H        3.8950    -0.6190     1.5020 H     1 <1>   0.1500 
 38 H        5.3570     3.3160     0.7420 H     1 <1>   0.1500 
 39 H       -5.1770     4.3450    -0.4460 H     1 <1>   0.0800 
 40 H       -4.3790     3.3700     0.7860 H     1 <1>   0.0800 
 41 H       -5.5080     1.6710    -0.4350 H     1 <1>   0.0800 
 42 H       -5.2540     2.5150    -1.9480 H     1 <1>   0.0800 
 43 H       -2.6480     6.0560    -2.1940 H     1 <1>   0.1500 
 44 H       -1.7420     9.0070     1.6320 H     1 <1>   0.1500 
 45 H       -2.5740     8.4830    -2.5040 H     1 <1>   0.1500 
 46 H        7.5040    -0.3330     1.9940 H     1 <1>   0.0800 
 47 H        6.1900    -0.9930     1.0260 H     1 <1>   0.0800 
 48 H        5.9230    -0.5740     2.7290 H     1 <1>   0.0800 
 49 H       -0.5180     6.2110     3.7870 H     1 <1>   0.0800 
 50 H       -1.0260     7.8600     3.4380 H     1 <1>   0.0800 
 51 H        0.1670     7.0540     2.4040 H     1 <1>   0.0800 
 52 H       -2.1180     9.9630    -0.5910 H     1 <1>   0.1500 
@<TRIPOS>BOND
  1   1   2  2   
  2   2   3  am  
  3   2   4  1   
  4   3   5  1   
  5   3   6  am  
  6   4   7  1   
  7   4   8  1   
  8   4  30  1   
  9   5   9  ar  
 10   5  10  ar  
 11   6   8  1   
 12   6  11  2   
 13   7  12  1   
 14   7  13  1   
 15   8  14  1   
 16   8  31  1   
 17   9  15  ar  
 18   9  32  1   
 19  10  16  ar  
 20  10  33  1   
 21  12  14  1   
 22  12  17  1   
 23  13  18  1   
 24  13  34  1   
 25  13  35  1   
 26  14  19  1   
 27  14  36  1   
 28  15  20  ar  
 29  15  37  1   
 30  16  20  ar  
 31  16  38  1   
 32  17  18  1   
 33  17  39  1   
 34  17  40  1   
 35  18  41  1   
 36  18  42  1   
 37  19  21  ar  
 38  19  22  ar  
 39  20  23  1   
 40  21  24  1   
 41  21  25  ar  
 42  22  26  ar  
 43  22  43  1   
 44  23  27  1   
 45  24  28  1   
 46  25  29  ar  
 47  25  44  1   
 48  26  29  ar  
 49  26  45  1   
 50  27  46  1   
 51  27  47  1   
 52  27  48  1   
 53  28  49  1   
 54  28  50  1   
 55  28  51  1   
 56  29  52  1   
@<TRIPOS>SUBSTRUCTURE
  1 ****   6 GROUP 4 **** **** 0

# MOE 2024.06 (io_trps.svl 2023.06)
