@<TRIPOS>MOLECULE
N-(5-Methyl-isoxazol-3-yl)-2-piperidin-1-yl-acetamide
34 35 1 0 0 
SMALL
USER_CHARGES


@<TRIPOS>ATOM
  1 O       -0.1320    -0.4580     0.8350 O.2   1 <1>  -0.5700 
  2 C       -0.0770    -1.3900     0.0670 C.2   1 <1>   0.5690 
  3 N        1.0760    -1.7890    -0.5420 N.am  1 <1>  -0.4930 
  4 C       -1.3940    -2.1310    -0.2280 C.3   1 <1>   0.4040 
  5 C        2.3610    -1.2580    -0.4350 C.2   1 <1>   0.3520 
  6 N       -2.6290    -1.3170     0.0920 N.4   1 <1>  -0.9590 
  7 N        3.3240    -1.7470    -1.1310 N.2   1 <1>  -0.4100 
  8 C        2.8110    -0.2040     0.3620 C.2   1 <1>  -0.1500 
  9 C       -3.8630    -2.1510     0.1810 C.3   1 <1>   0.3430 
 10 C       -2.7850    -0.1540    -0.8330 C.3   1 <1>   0.3430 
 11 O        4.3870    -1.0500    -0.8180 O.3   1 <1>  -0.0190 
 12 C        4.1160    -0.1260     0.0670 C.2   1 <1>  -0.0400 
 13 C       -5.0290    -1.2930     0.6750 C.3   1 <1>  -0.1600 
 14 C       -3.9360     0.7320    -0.3540 C.3   1 <1>  -0.1600 
 15 C        5.2140     0.7900     0.5630 C.3   1 <1>  -0.0600 
 16 C       -5.2440    -0.0580    -0.2100 C.3   1 <1>  -0.1600 
 17 H        1.0740    -2.5840    -1.1800 H     1 <1>   0.3700 
 18 H       -1.3990    -3.0280     0.3670 H     1 <1>   0.0800 
 19 H       -1.4110    -2.4180    -1.2650 H     1 <1>   0.0800 
 20 H       -2.4520    -0.8990     1.0210 H     1 <1>   0.4500 
 21 H        2.2270     0.3850     1.0430 H     1 <1>   0.1500 
 22 H       -3.7100    -2.9710     0.8640 H     1 <1>   0.0800 
 23 H       -4.1020    -2.5540    -0.7900 H     1 <1>   0.0800 
 24 H       -2.9920    -0.5030    -1.8320 H     1 <1>   0.0800 
 25 H       -1.8760     0.4280    -0.8530 H     1 <1>   0.0800 
 26 H       -4.8430    -0.9880     1.6910 H     1 <1>   0.0800 
 27 H       -5.9270    -1.8870     0.6790 H     1 <1>   0.0800 
 28 H       -4.0790     1.5330    -1.0590 H     1 <1>   0.0800 
 29 H       -3.6710     1.1800     0.5880 H     1 <1>   0.0800 
 30 H        4.8230     1.4860     1.2820 H     1 <1>   0.0800 
 31 H        5.6330     1.3380    -0.2620 H     1 <1>   0.0800 
 32 H        5.9920     0.2090     1.0260 H     1 <1>   0.0800 
 33 H       -6.0050     0.5720     0.2210 H     1 <1>   0.0800 
 34 H       -5.5880    -0.3660    -1.1830 H     1 <1>   0.0800 
@<TRIPOS>BOND
  1   1   2  2   
  2   2   3  am  
  3   2   4  1   
  4   3   5  1   
  5   3  17  1   
  6   4   6  1   
  7   4  18  1   
  8   4  19  1   
  9   5   7  2   
 10   5   8  1   
 11   6   9  1   
 12   6  10  1   
 13   6  20  1   
 14   7  11  1   
 15   8  12  2   
 16   8  21  1   
 17   9  13  1   
 18   9  22  1   
 19   9  23  1   
 20  10  14  1   
 21  10  24  1   
 22  10  25  1   
 23  11  12  1   
 24  12  15  1   
 25  13  16  1   
 26  13  26  1   
 27  13  27  1   
 28  14  16  1   
 29  14  28  1   
 30  14  29  1   
 31  15  30  1   
 32  15  31  1   
 33  15  32  1   
 34  16  33  1   
 35  16  34  1   
@<TRIPOS>SUBSTRUCTURE
  1 ****   2 GROUP 4 **** **** 0

# MOE 2024.06 (io_trps.svl 2023.06)
