@<TRIPOS>MOLECULE
Naphthalene-2-sulfonic acid methyl-(2-oxo-2-pyrrolidin-1-yl-ethyl)-amide
43 45 1 0 0 
SMALL
USER_CHARGES


@<TRIPOS>ATOM
  1 S       -0.5320    -1.3010    -0.9450 S.o2  1 <1>   1.4470 
  2 O        0.4070    -2.1860    -1.6030 O.2   1 <1>  -0.6500 
  3 O       -1.8640    -1.1930    -1.4970 O.2   1 <1>  -0.6500 
  4 N       -0.7020    -1.8930     0.6400 N.am  1 <1>  -0.8490 
  5 C        0.1720     0.3680    -0.8130 C.ar  1 <1>  -0.0090 
  6 C        0.5870    -2.3000     1.2680 C.3   1 <1>   0.2570 
  7 C       -1.6700    -2.9910     0.7130 C.3   1 <1>   0.1160 
  8 C       -0.0700     1.1910     0.2580 C.ar  1 <1>  -0.1500 
  9 C        0.9860     0.8620    -1.8480 C.ar  1 <1>  -0.1500 
 10 C        1.5170    -1.1470     1.6820 C.2   1 <1>   0.5690 
 11 C        0.4950     2.4770     0.3680 C.ar  1 <1>   0.0000 
 12 C        1.5390     2.1110    -1.7830 C.ar  1 <1>  -0.1500 
 13 O        1.2160    -0.5190     2.6730 O.2   1 <1>  -0.5700 
 14 N        2.6490    -0.8370     0.9730 N.am  1 <1>  -0.6600 
 15 C        1.3160     2.9490    -0.6750 C.ar  1 <1>   0.0000 
 16 C        0.2820     3.3020     1.4900 C.ar  1 <1>  -0.1500 
 17 C        3.2360    -1.5730    -0.1710 C.3   1 <1>   0.1400 
 18 C        3.4650     0.3530     1.3060 C.3   1 <1>   0.1400 
 19 C        1.8830     4.2350    -0.5640 C.ar  1 <1>  -0.1500 
 20 C        0.8470     4.5450     1.5740 C.ar  1 <1>  -0.1500 
 21 C        4.6270    -0.9740    -0.3400 C.3   1 <1>  -0.1600 
 22 C        4.4930     0.4520     0.1850 C.3   1 <1>  -0.1600 
 23 C        1.6560     5.0170     0.5340 C.ar  1 <1>  -0.1500 
 24 H        1.1100    -2.9850     0.6270 H     1 <1>   0.0800 
 25 H        0.3690    -2.8310     2.1770 H     1 <1>   0.0800 
 26 H       -2.6330    -2.6570     0.3630 H     1 <1>   0.0800 
 27 H       -1.7850    -3.3210     1.7310 H     1 <1>   0.0800 
 28 H       -1.3470    -3.8180     0.1030 H     1 <1>   0.0800 
 29 H       -0.6980     0.8500     1.0640 H     1 <1>   0.1500 
 30 H        1.1670     0.2310    -2.7010 H     1 <1>   0.1500 
 31 H        2.1580     2.4750    -2.5840 H     1 <1>   0.1500 
 32 H       -0.3360     2.9290     2.2870 H     1 <1>   0.1500 
 33 H        2.6570    -1.3830    -1.0560 H     1 <1>   0.0800 
 34 H        3.2840    -2.6310     0.0190 H     1 <1>   0.0800 
 35 H        3.9490     0.1910     2.2540 H     1 <1>   0.0800 
 36 H        2.8510     1.2360     1.3630 H     1 <1>   0.0800 
 37 H        2.5040     4.5930    -1.3660 H     1 <1>   0.1500 
 38 H        0.6800     5.1700     2.4340 H     1 <1>   0.1500 
 39 H        4.9540    -1.0050    -1.3640 H     1 <1>   0.0800 
 40 H        5.3230    -1.5250     0.2690 H     1 <1>   0.0800 
 41 H        5.4270     0.8530     0.5360 H     1 <1>   0.0800 
 42 H        4.1030     1.0940    -0.5850 H     1 <1>   0.0800 
 43 H        2.0910     5.9980     0.6150 H     1 <1>   0.1500 
@<TRIPOS>BOND
  1   1   2  2   
  2   1   3  2   
  3   1   4  am  
  4   1   5  1   
  5   4   6  1   
  6   4   7  1   
  7   5   8  ar  
  8   5   9  ar  
  9   6  10  1   
 10   6  24  1   
 11   6  25  1   
 12   7  26  1   
 13   7  27  1   
 14   7  28  1   
 15   8  11  ar  
 16   8  29  1   
 17   9  12  ar  
 18   9  30  1   
 19  10  13  2   
 20  10  14  am  
 21  11  15  ar  
 22  11  16  ar  
 23  12  15  ar  
 24  12  31  1   
 25  14  17  1   
 26  14  18  1   
 27  15  19  ar  
 28  16  20  ar  
 29  16  32  1   
 30  17  21  1   
 31  17  33  1   
 32  17  34  1   
 33  18  22  1   
 34  18  35  1   
 35  18  36  1   
 36  19  23  ar  
 37  19  37  1   
 38  20  23  ar  
 39  20  38  1   
 40  21  22  1   
 41  21  39  1   
 42  21  40  1   
 43  22  41  1   
 44  22  42  1   
 45  23  43  1   
@<TRIPOS>SUBSTRUCTURE
  1 ****   5 GROUP 4 **** **** 0

# MOE 2024.06 (io_trps.svl 2023.06)
