@<TRIPOS>MOLECULE
3-tert-Butyl-6-pyridin-4-yl-[1,2,4]triazolo[3,4-b][1,3,4]thiadiazole
31 33 1 0 0 
SMALL
USER_CHARGES


@<TRIPOS>ATOM
  1 S        0.0490    -0.1690     0.6540 S.3   1 <1>  -0.1970 
  2 C        1.0840     1.2340     0.5630 C.2   1 <1>   0.2420 
  3 C       -1.3670     0.8920     0.4100 C.2   1 <1>   0.5050 
  4 N        2.3460     1.4540     0.6370 N.2   1 <1>  -0.3380 
  5 N        0.3340     2.3030     0.3710 N.pl3 1 <1>   0.5050 
  6 N       -1.0500     2.1310     0.2820 N.2   1 <1>  -0.6520 
  7 C       -2.6850     0.2940     0.3790 C.ar  1 <1>   0.0860 
  8 N        2.4590     2.7860     0.4810 N.2   1 <1>  -0.3380 
  9 C        1.2630     3.2790     0.3250 C.2   1 <1>   0.0060 
 10 C       -3.8210     1.0730     0.1910 C.ar  1 <1>  -0.1500 
 11 C       -2.9400    -1.0660     0.5270 C.ar  1 <1>  -0.1500 
 12 C        0.9160     4.7600     0.1140 C.3   1 <1>   0.1800 
 13 C       -5.0750     0.4970     0.1620 C.ar  1 <1>   0.1600 
 14 C       -4.2350    -1.5450     0.4830 C.ar  1 <1>   0.1600 
 15 C        0.2050     4.9480    -1.2340 C.3   1 <1>  -0.2400 
 16 C        0.0070     5.2550     1.2480 C.3   1 <1>  -0.2400 
 17 C        2.1890     5.6230     0.1090 C.3   1 <1>  -0.2400 
 18 N       -5.3090    -0.7960     0.3040 N.ar  1 <1>  -0.6200 
 19 H       -3.7260     2.1370     0.0660 H     1 <1>   0.1500 
 20 H       -2.1410    -1.7680     0.6780 H     1 <1>   0.1500 
 21 H       -5.9350     1.1300     0.0150 H     1 <1>   0.1500 
 22 H       -4.4010    -2.6040     0.6010 H     1 <1>   0.1500 
 23 H        0.8250     4.5810    -2.0340 H     1 <1>   0.0800 
 24 H        0.0000     5.9890    -1.4120 H     1 <1>   0.0800 
 25 H       -0.7280     4.4150    -1.2560 H     1 <1>   0.0800 
 26 H       -0.9290     4.7250     1.2510 H     1 <1>   0.0800 
 27 H       -0.2030     6.3040     1.1330 H     1 <1>   0.0800 
 28 H        0.4860     5.1050     2.1990 H     1 <1>   0.0800 
 29 H        2.8500     5.3090    -0.6800 H     1 <1>   0.0800 
 30 H        2.7120     5.5220     1.0430 H     1 <1>   0.0800 
 31 H        1.9500     6.6610    -0.0390 H     1 <1>   0.0800 
@<TRIPOS>BOND
  1   1   2  1   
  2   1   3  1   
  3   2   4  2   
  4   2   5  1   
  5   3   6  2   
  6   3   7  1   
  7   4   8  1   
  8   5   6  1   
  9   5   9  1   
 10   7  10  ar  
 11   7  11  ar  
 12   8   9  2   
 13   9  12  1   
 14  10  13  ar  
 15  10  19  1   
 16  11  14  ar  
 17  11  20  1   
 18  12  15  1   
 19  12  16  1   
 20  12  17  1   
 21  13  18  ar  
 22  13  21  1   
 23  14  18  ar  
 24  14  22  1   
 25  15  23  1   
 26  15  24  1   
 27  15  25  1   
 28  16  26  1   
 29  16  27  1   
 30  16  28  1   
 31  17  29  1   
 32  17  30  1   
 33  17  31  1   
@<TRIPOS>SUBSTRUCTURE
  1 ****   6 GROUP 4 **** **** 0

# MOE 2024.06 (io_trps.svl 2023.06)
