@<TRIPOS>MOLECULE
8-Ethylamino-3-methyl-7-(3-phenoxy-propyl)-3,7-dihydro-purine-2,6-dione
47 49 1 0 0 
SMALL
USER_CHARGES


@<TRIPOS>ATOM
  1 O        1.0500     0.9460     1.4830 O.2   1 <1>  -0.5750 
  2 C        2.0560     1.3340     0.9370 C.2   1 <1>   0.6860 
  3 N        3.1360     0.4980     0.6880 N.am  1 <1>  -0.4420 
  4 N        2.1250     2.6430     0.5560 N.am  1 <1>  -0.4960 
  5 C        4.2440     1.0480     0.0600 C.2   1 <1>   0.4200 
  6 C        3.1060    -0.9400     1.0860 C.3   1 <1>   0.0510 
  7 C        3.2040     3.1980    -0.0700 C.2   1 <1>   0.6990 
  8 N        5.4050     0.4230    -0.2800 N.pl3 1 <1>  -0.7040 
  9 C        4.3280     2.3430    -0.3210 C.2   1 <1>   0.2700 
 10 O        3.1610     4.3680    -0.3900 O.2   1 <1>  -0.5750 
 11 C        6.1990     1.3160    -0.8620 C.cat 1 <1>   1.0690 
 12 N        5.5990     2.5040    -0.9090 N.pl3 1 <1>  -0.7680 
 13 N        7.4250     1.0670    -1.3160 N.pl3 1 <1>  -0.7180 
 14 C        6.1000     3.8080    -1.4200 C.3   1 <1>   0.3470 
 15 C        8.2100    -0.1810    -1.2260 C.3   1 <1>   0.1600 
 16 C        6.6090     4.6830    -0.2730 C.3   1 <1>  -0.1680 
 17 C        9.4640     0.1060    -0.4110 C.3   1 <1>  -0.2470 
 18 C        7.7090     4.0140     0.5600 C.3   1 <1>   0.1120 
 19 O        8.2150     4.9510     1.4780 O.3   1 <1>  -0.3690 
 20 C        9.1620     5.8130     1.0440 C.ar  1 <1>   0.0740 
 21 C        8.8950     7.1710     1.0930 C.ar  1 <1>  -0.1580 
 22 C       10.3820     5.3600     0.5610 C.ar  1 <1>  -0.1580 
 23 C        9.8350     8.0770     0.6340 C.ar  1 <1>  -0.1580 
 24 C       11.3210     6.2670     0.1020 C.ar  1 <1>  -0.1580 
 25 C       11.0460     7.6240     0.1360 C.ar  1 <1>  -0.1580 
 26 H        1.3150     3.2290     0.7480 H     1 <1>   0.3640 
 27 H        2.1470    -1.2050     1.5000 H     1 <1>   0.0720 
 28 H        3.8590    -1.1290     1.8310 H     1 <1>   0.0720 
 29 H        3.2840    -1.5630     0.2270 H     1 <1>   0.0720 
 30 H        5.6410    -0.5510    -0.1200 H     1 <1>   0.4440 
 31 H        7.9320     1.8330    -1.7560 H     1 <1>   0.4440 
 32 H        5.3050     4.3240    -1.9350 H     1 <1>   0.0720 
 33 H        6.8940     3.6480    -2.1290 H     1 <1>   0.0720 
 34 H        8.4840    -0.5080    -2.2160 H     1 <1>   0.0720 
 35 H        7.6410    -0.9650    -0.7540 H     1 <1>   0.0720 
 36 H        5.7890     4.9550     0.3670 H     1 <1>   0.0720 
 37 H        6.9990     5.5890    -0.7030 H     1 <1>   0.0720 
 38 H       10.0690     0.8570    -0.8880 H     1 <1>   0.0720 
 39 H       10.0520    -0.7910    -0.3300 H     1 <1>   0.0720 
 40 H        9.2100     0.4280     0.5840 H     1 <1>   0.0720 
 41 H        8.5130     3.6560    -0.0570 H     1 <1>   0.0720 
 42 H        7.3120     3.1960     1.1350 H     1 <1>   0.0720 
 43 H        7.9550     7.5130     1.4870 H     1 <1>   0.1420 
 44 H       10.6060     4.3100     0.5540 H     1 <1>   0.1420 
 45 H        9.6280     9.1320     0.6680 H     1 <1>   0.1420 
 46 H       12.2680     5.9220    -0.2750 H     1 <1>   0.1420 
 47 H       11.7760     8.3290    -0.2210 H     1 <1>   0.1420 
@<TRIPOS>BOND
  1   1   2  2   
  2   2   3  am  
  3   2   4  am  
  4   3   5  1   
  5   3   6  1   
  6   4   7  am  
  7   4  26  1   
  8   5   8  1   
  9   5   9  2   
 10   6  27  1   
 11   6  28  1   
 12   6  29  1   
 13   7   9  1   
 14   7  10  2   
 15   8  11  ar  
 16   8  30  1   
 17   9  12  1   
 18  11  12  ar  
 19  11  13  ar  
 20  12  14  1   
 21  13  15  1   
 22  13  31  1   
 23  14  16  1   
 24  14  32  1   
 25  14  33  1   
 26  15  17  1   
 27  15  34  1   
 28  15  35  1   
 29  16  18  1   
 30  16  36  1   
 31  16  37  1   
 32  17  38  1   
 33  17  39  1   
 34  17  40  1   
 35  18  19  1   
 36  18  41  1   
 37  18  42  1   
 38  19  20  1   
 39  20  21  ar  
 40  20  22  ar  
 41  21  23  ar  
 42  21  43  1   
 43  22  24  ar  
 44  22  44  1   
 45  23  25  ar  
 46  23  45  1   
 47  24  25  ar  
 48  24  46  1   
 49  25  47  1   
@<TRIPOS>SUBSTRUCTURE
  1 ****  12 GROUP 4 **** **** 0

# MOE 2024.06 (io_trps.svl 2023.06)
