@<TRIPOS>MOLECULE
5-Methyl-7-(2-methyl-piperidin-1-yl)-[1,2,4]triazolo[1,5-a]pyrimidine
35 37 1 0 0 
SMALL
USER_CHARGES


@<TRIPOS>ATOM
  1 N       -0.0140     0.3340    -0.1240 N.2   1 <1>  -0.6120 
  2 C        1.0680    -0.0520    -0.7550 C.2   1 <1>   0.3750 
  3 C        0.1600     1.3940     0.6500 C.cat 1 <1>   0.9620 
  4 C        2.3000     0.5780    -0.6310 C.2   1 <1>  -0.1360 
  5 C        0.9260    -1.2560    -1.6620 C.3   1 <1>  -0.1790 
  6 N       -0.7680     1.9640     1.3930 N.pl3 1 <1>  -0.7000 
  7 N        1.2970     2.0800     0.8300 N.pl3 1 <1>  -0.3220 
  8 C        2.4330     1.6690     0.1930 C.2   1 <1>   0.4790 
  9 C       -0.1630     3.0010     2.0270 C.2   1 <1>   0.5030 
 10 N        1.0770     3.1080     1.7190 N.2   1 <1>  -0.2600 
 11 N        3.6020     2.3460     0.3800 N.pl3 1 <1>  -0.8380 
 12 C        4.8870     1.7680     0.8660 C.3   1 <1>   0.2890 
 13 C        3.7220     3.7750    -0.0180 C.3   1 <1>   0.2090 
 14 C        5.9120     1.8250    -0.2740 C.3   1 <1>  -0.1600 
 15 C        4.7310     0.3540     1.4280 C.3   1 <1>  -0.2400 
 16 C        4.7370     3.8870    -1.1610 C.3   1 <1>  -0.1600 
 17 C        6.0920     3.2610    -0.7920 C.3   1 <1>  -0.1600 
 18 H        3.1520     0.2260    -1.1800 H     1 <1>   0.1500 
 19 H        1.8580    -1.5030    -2.1370 H     1 <1>   0.0800 
 20 H        0.1960    -1.0530    -2.4250 H     1 <1>   0.0800 
 21 H        0.5960    -2.1060    -1.0900 H     1 <1>   0.0800 
 22 H       -1.7280     1.6330     1.4390 H     1 <1>   0.4500 
 23 H       -0.6830     3.6540     2.7130 H     1 <1>   0.1500 
 24 H        5.2430     2.3930     1.6690 H     1 <1>   0.0800 
 25 H        4.0500     4.3560     0.8280 H     1 <1>   0.0800 
 26 H        2.7690     4.1580    -0.3410 H     1 <1>   0.0800 
 27 H        5.5890     1.1870    -1.0780 H     1 <1>   0.0800 
 28 H        6.8590     1.4550     0.0770 H     1 <1>   0.0800 
 29 H        4.5070    -0.3580     0.6560 H     1 <1>   0.0800 
 30 H        3.9670     0.3350     2.1830 H     1 <1>   0.0800 
 31 H        5.6560     0.0540     1.8880 H     1 <1>   0.0800 
 32 H        4.8770     4.9240    -1.4110 H     1 <1>   0.0800 
 33 H        4.3370     3.3940    -2.0300 H     1 <1>   0.0800 
 34 H        6.7400     3.2610    -1.6510 H     1 <1>   0.0800 
 35 H        6.5590     3.8570    -0.0260 H     1 <1>   0.0800 
@<TRIPOS>BOND
  1   1   2  2   
  2   1   3  1   
  3   2   4  1   
  4   2   5  1   
  5   3   6  ar  
  6   3   7  ar  
  7   4   8  2   
  8   4  18  1   
  9   5  19  1   
 10   5  20  1   
 11   5  21  1   
 12   6   9  1   
 13   6  22  1   
 14   7   8  1   
 15   7  10  1   
 16   8  11  1   
 17   9  10  2   
 18   9  23  1   
 19  11  12  1   
 20  11  13  1   
 21  12  14  1   
 22  12  15  1   
 23  12  24  1   
 24  13  16  1   
 25  13  25  1   
 26  13  26  1   
 27  14  17  1   
 28  14  27  1   
 29  14  28  1   
 30  15  29  1   
 31  15  30  1   
 32  15  31  1   
 33  16  17  1   
 34  16  32  1   
 35  16  33  1   
 36  17  34  1   
 37  17  35  1   
@<TRIPOS>SUBSTRUCTURE
  1 ****   8 GROUP 4 **** **** 0

# MOE 2024.06 (io_trps.svl 2023.06)
