@<TRIPOS>MOLECULE
N-[2-(4-Acetyl-piperazin-1-yl)-phenyl]-2-(4-chloro-phenylsulfanyl)-acetamide
49 51 1 0 0 
SMALL
USER_CHARGES


@<TRIPOS>ATOM
  1 CL       0.1560    -0.1510     1.7060 Cl    1 <1>  -0.1770 
  2 C        1.7740     0.3560     1.2960 C.ar  1 <1>   0.1770 
  3 C        1.9880     1.6550     0.8700 C.ar  1 <1>  -0.1500 
  4 C        2.8140    -0.5500     1.4040 C.ar  1 <1>  -0.1500 
  5 C        3.2740     2.0550     0.5450 C.ar  1 <1>  -0.1500 
  6 C        4.1010    -0.1520     1.0800 C.ar  1 <1>  -0.1500 
  7 C        4.3180     1.1520     0.6530 C.ar  1 <1>   0.1020 
  8 S        5.9560     1.7550     0.2140 S.3   1 <1>  -0.3320 
  9 C        7.1420     0.3400     0.4750 C.3   1 <1>   0.1310 
 10 C        8.5740     0.7430     0.1560 C.2   1 <1>   0.5690 
 11 O        9.3660    -0.1360    -0.0820 O.2   1 <1>  -0.5700 
 12 N        8.8910     2.0680     0.1630 N.am  1 <1>  -0.5470 
 13 C       10.0500     2.8060    -0.1190 C.ar  1 <1>   0.1170 
 14 C        9.9000     4.1990    -0.1940 C.ar  1 <1>   0.1000 
 15 C       11.3010     2.2370    -0.3160 C.ar  1 <1>  -0.1500 
 16 N        8.6330     4.7780     0.0040 N.pl3 1 <1>  -0.8380 
 17 C       11.0110     4.9820    -0.4740 C.ar  1 <1>  -0.1500 
 18 C       12.4000     3.0330    -0.5900 C.ar  1 <1>  -0.1500 
 19 C        8.4480     5.7920     1.0900 C.3   1 <1>   0.2090 
 20 C        7.7590     4.9590    -1.2000 C.3   1 <1>   0.2090 
 21 C       12.2550     4.4060    -0.6700 C.ar  1 <1>  -0.1500 
 22 C        8.3790     7.2390     0.5620 C.3   1 <1>   0.1400 
 23 C        7.7580     6.4120    -1.7000 C.3   1 <1>   0.1400 
 24 N        7.4330     7.3590    -0.5890 N.am  1 <1>  -0.6600 
 25 C        6.3090     8.1400    -0.6260 C.2   1 <1>   0.5690 
 26 O        5.5330     8.1040    -1.5500 O.2   1 <1>  -0.5700 
 27 C        5.9910     9.0860     0.5080 C.3   1 <1>  -0.1790 
 28 H        1.1610     2.3380     0.7940 H     1 <1>   0.1500 
 29 H        2.6130    -1.5530     1.7380 H     1 <1>   0.1500 
 30 H        3.4660     3.0600     0.2110 H     1 <1>   0.1500 
 31 H        4.9030    -0.8590     1.1640 H     1 <1>   0.1500 
 32 H        6.8340    -0.4590    -0.1730 H     1 <1>   0.0800 
 33 H        7.0670     0.0410     1.5030 H     1 <1>   0.0800 
 34 H        8.1090     2.7140     0.3250 H     1 <1>   0.3700 
 35 H       11.4230     1.1710    -0.2560 H     1 <1>   0.1500 
 36 H       10.9030     6.0470    -0.5460 H     1 <1>   0.1500 
 37 H       13.3650     2.5800    -0.7410 H     1 <1>   0.1500 
 38 H        9.2550     5.7070     1.7980 H     1 <1>   0.0800 
 39 H        7.5340     5.5690     1.6120 H     1 <1>   0.0800 
 40 H        6.7520     4.6740    -0.9510 H     1 <1>   0.0800 
 41 H        8.0980     4.3120    -1.9910 H     1 <1>   0.0800 
 42 H       13.1080     5.0250    -0.8860 H     1 <1>   0.1500 
 43 H        9.3590     7.5400     0.2370 H     1 <1>   0.0800 
 44 H        8.0940     7.8880     1.3690 H     1 <1>   0.0800 
 45 H        7.0470     6.5070    -2.5020 H     1 <1>   0.0800 
 46 H        8.7290     6.6500    -2.0950 H     1 <1>   0.0800 
 47 H        5.8000     8.5280     1.4050 H     1 <1>   0.0800 
 48 H        5.1150     9.6580     0.2660 H     1 <1>   0.0800 
 49 H        6.8110     9.7610     0.6610 H     1 <1>   0.0800 
@<TRIPOS>BOND
  1   1   2  1   
  2   2   3  ar  
  3   2   4  ar  
  4   3   5  ar  
  5   3  28  1   
  6   4   6  ar  
  7   4  29  1   
  8   5   7  ar  
  9   5  30  1   
 10   6   7  ar  
 11   6  31  1   
 12   7   8  1   
 13   8   9  1   
 14   9  10  1   
 15   9  32  1   
 16   9  33  1   
 17  10  11  2   
 18  10  12  am  
 19  12  13  1   
 20  12  34  1   
 21  13  14  ar  
 22  13  15  ar  
 23  14  16  1   
 24  14  17  ar  
 25  15  18  ar  
 26  15  35  1   
 27  16  19  1   
 28  16  20  1   
 29  17  21  ar  
 30  17  36  1   
 31  18  21  ar  
 32  18  37  1   
 33  19  22  1   
 34  19  38  1   
 35  19  39  1   
 36  20  23  1   
 37  20  40  1   
 38  20  41  1   
 39  21  42  1   
 40  22  24  1   
 41  22  43  1   
 42  22  44  1   
 43  23  24  1   
 44  23  45  1   
 45  23  46  1   
 46  24  25  am  
 47  25  26  2   
 48  25  27  1   
 49  27  47  1   
 50  27  48  1   
 51  27  49  1   
@<TRIPOS>SUBSTRUCTURE
  1 ****   8 GROUP 4 **** **** 0

# MOE 2024.06 (io_trps.svl 2023.06)
