@<TRIPOS>MOLECULE
N-[2-(4-Isobutyryl-piperazin-1-yl)-phenyl]-3,4,5-trimethoxy-benzamide
63 65 1 0 0 
SMALL
USER_CHARGES


@<TRIPOS>ATOM
  1 O       -0.2310     0.0700     0.4770 O.2   1 <1>  -0.5700 
  2 C       -0.2410    -1.1310     0.2890 C.2   1 <1>   0.5440 
  3 N        0.9270    -1.8460     0.3280 N.am  1 <1>  -0.5470 
  4 C       -1.4860    -1.8220     0.0010 C.ar  1 <1>   0.0860 
  5 C        2.2680    -1.5600     0.6190 C.ar  1 <1>   0.1170 
  6 C       -1.6340    -3.1940     0.2090 C.ar  1 <1>  -0.1500 
  7 C       -2.5860    -1.1310    -0.5070 C.ar  1 <1>  -0.1500 
  8 C        3.1500    -2.6490     0.5600 C.ar  1 <1>   0.1000 
  9 C        2.7500    -0.3020     0.9520 C.ar  1 <1>  -0.1500 
 10 C       -2.8080    -3.8600    -0.0870 C.ar  1 <1>   0.0830 
 11 C       -3.7850    -1.7710    -0.8020 C.ar  1 <1>   0.0830 
 12 N        2.6620    -3.9280     0.2290 N.pl3 1 <1>  -0.8380 
 13 C        4.4960    -2.4430     0.8310 C.ar  1 <1>  -0.1500 
 14 C        4.0950    -0.1140     1.2220 C.ar  1 <1>  -0.1500 
 15 O       -2.7970    -5.2010     0.1460 O.3   1 <1>  -0.3620 
 16 C       -3.9060    -3.1450    -0.5810 C.ar  1 <1>   0.0830 
 17 O       -4.8630    -1.1010    -1.3060 O.3   1 <1>  -0.3620 
 18 C        2.9710    -4.4590    -1.1390 C.3   1 <1>   0.2090 
 19 C        2.6030    -4.9550     1.3170 C.3   1 <1>   0.2090 
 20 C        4.9690    -1.1850     1.1610 C.ar  1 <1>  -0.1500 
 21 C       -3.3940    -6.0760    -0.7870 C.3   1 <1>   0.0400 
 22 O       -5.0820    -3.7710    -0.8400 O.3   1 <1>  -0.3630 
 23 C       -4.7970     0.2690    -1.6370 C.3   1 <1>   0.0400 
 24 C        4.1420    -5.4540    -1.1360 C.3   1 <1>   0.1400 
 25 C        3.7710    -5.9590     1.2630 C.3   1 <1>   0.1400 
 26 C       -6.0980    -3.5990     0.1210 C.3   1 <1>   0.0400 
 27 N        3.9340    -6.5240    -0.1120 N.am  1 <1>  -0.6600 
 28 C        3.7280    -7.8310    -0.4870 C.2   1 <1>   0.5690 
 29 O        3.6470    -8.1320    -1.6560 O.2   1 <1>  -0.5700 
 30 C        3.5750    -8.9490     0.5600 C.3   1 <1>  -0.0190 
 31 C        4.0950   -10.3090     0.0600 C.3   1 <1>  -0.2400 
 32 C        2.1090    -9.0960     1.0050 C.3   1 <1>  -0.2400 
 33 H        0.8570    -2.8390     0.0900 H     1 <1>   0.3700 
 34 H       -0.8240    -3.7720     0.6150 H     1 <1>   0.1500 
 35 H       -2.4720    -0.0750    -0.6640 H     1 <1>   0.1500 
 36 H        2.0800     0.5360     1.0030 H     1 <1>   0.1500 
 37 H        5.1780    -3.2700     0.7840 H     1 <1>   0.1500 
 38 H        4.4570     0.8670     1.4790 H     1 <1>   0.1500 
 39 H        3.2030    -3.6390    -1.7980 H     1 <1>   0.0800 
 40 H        2.0980    -4.9540    -1.5280 H     1 <1>   0.0800 
 41 H        1.6760    -5.4950     1.2290 H     1 <1>   0.0800 
 42 H        2.6030    -4.4610     2.2740 H     1 <1>   0.0800 
 43 H        6.0140    -1.0370     1.3690 H     1 <1>   0.1500 
 44 H       -2.9400    -7.0440    -0.6780 H     1 <1>   0.0800 
 45 H       -3.2280    -5.7010    -1.7820 H     1 <1>   0.0800 
 46 H       -4.4460    -6.1440    -0.5800 H     1 <1>   0.0800 
 47 H       -5.7490     0.5600    -2.0440 H     1 <1>   0.0800 
 48 H       -4.0260     0.4150    -2.3730 H     1 <1>   0.0800 
 49 H       -4.5930     0.8360    -0.7460 H     1 <1>   0.0800 
 50 H        5.0540    -4.9280    -0.9180 H     1 <1>   0.0800 
 51 H        4.2440    -5.8790    -2.1190 H     1 <1>   0.0800 
 52 H        3.5900    -6.7300     1.9870 H     1 <1>   0.0800 
 53 H        4.6780    -5.4570     1.5450 H     1 <1>   0.0800 
 54 H       -6.9520    -4.1760    -0.1850 H     1 <1>   0.0800 
 55 H       -6.3600    -2.5570     0.1760 H     1 <1>   0.0800 
 56 H       -5.7360    -3.9460     1.0730 H     1 <1>   0.0800 
 57 H        4.1740    -8.6940     1.4140 H     1 <1>   0.0800 
 58 H        3.5160   -10.6470    -0.7820 H     1 <1>   0.0800 
 59 H        4.0360   -11.0480     0.8390 H     1 <1>   0.0800 
 60 H        5.1210   -10.2190    -0.2510 H     1 <1>   0.0800 
 61 H        1.4990    -9.3840     0.1660 H     1 <1>   0.0800 
 62 H        1.7340    -8.1660     1.3920 H     1 <1>   0.0800 
 63 H        2.0210    -9.8470     1.7700 H     1 <1>   0.0800 
@<TRIPOS>BOND
  1   1   2  2   
  2   2   3  am  
  3   2   4  1   
  4   3   5  1   
  5   3  33  1   
  6   4   6  ar  
  7   4   7  ar  
  8   5   8  ar  
  9   5   9  ar  
 10   6  10  ar  
 11   6  34  1   
 12   7  11  ar  
 13   7  35  1   
 14   8  12  1   
 15   8  13  ar  
 16   9  14  ar  
 17   9  36  1   
 18  10  15  1   
 19  10  16  ar  
 20  11  16  ar  
 21  11  17  1   
 22  12  18  1   
 23  12  19  1   
 24  13  20  ar  
 25  13  37  1   
 26  14  20  ar  
 27  14  38  1   
 28  15  21  1   
 29  16  22  1   
 30  17  23  1   
 31  18  24  1   
 32  18  39  1   
 33  18  40  1   
 34  19  25  1   
 35  19  41  1   
 36  19  42  1   
 37  20  43  1   
 38  21  44  1   
 39  21  45  1   
 40  21  46  1   
 41  22  26  1   
 42  23  47  1   
 43  23  48  1   
 44  23  49  1   
 45  24  27  1   
 46  24  50  1   
 47  24  51  1   
 48  25  27  1   
 49  25  52  1   
 50  25  53  1   
 51  26  54  1   
 52  26  55  1   
 53  26  56  1   
 54  27  28  am  
 55  28  29  2   
 56  28  30  1   
 57  30  31  1   
 58  30  32  1   
 59  30  57  1   
 60  31  58  1   
 61  31  59  1   
 62  31  60  1   
 63  32  61  1   
 64  32  62  1   
 65  32  63  1   
@<TRIPOS>SUBSTRUCTURE
  1 ****   3 GROUP 4 **** **** 0

# MOE 2024.06 (io_trps.svl 2023.06)
