@<TRIPOS>MOLECULE
1-(2-Fluoro-phenyl)-cyclopropanecarboxylic acid
21 22 1 0 0 
SMALL
USER_CHARGES


@<TRIPOS>ATOM
  1 F       -0.4090     0.6920     1.3070 F     1 <1>  -0.1900 
  2 C       -0.9190     1.6750     0.6110 C.ar  1 <1>   0.1900 
  3 C       -0.0950     2.6470     0.0570 C.ar  1 <1>  -0.0320 
  4 C       -2.2940     1.6910     0.4580 C.ar  1 <1>  -0.1500 
  5 C       -0.7020     3.6680    -0.6580 C.ar  1 <1>  -0.1500 
  6 C        1.4270     2.6630     0.1970 C.3   1 <1>  -0.1150 
  7 C       -2.8770     2.7150    -0.2690 C.ar  1 <1>  -0.1500 
  8 C       -2.0790     3.7030    -0.8240 C.ar  1 <1>  -0.1500 
  9 C        1.9120     3.7480     1.1700 C.2   1 <1>   0.9470 
 10 C        2.2130     2.4570    -1.0730 C.3   1 <1>  -0.2000 
 11 C        2.2360     1.4080    -0.0120 C.3   1 <1>  -0.2000 
 12 O        1.9650     4.9210     0.7700 O.co2 1 <1>  -0.9000 
 13 O        2.2660     3.4300     2.3120 O.co2 1 <1>  -0.9000 
 14 H       -2.8890     0.9170     0.9040 H     1 <1>   0.1500 
 15 H       -0.0840     4.4480    -1.0730 H     1 <1>   0.1500 
 16 H       -3.9440     2.7470    -0.3990 H     1 <1>   0.1500 
 17 H       -2.5240     4.5080    -1.3810 H     1 <1>   0.1500 
 18 H        3.0760     3.0820    -1.2200 H     1 <1>   0.1000 
 19 H        1.6730     2.2710    -1.9830 H     1 <1>   0.1000 
 20 H        1.7240     0.4790    -0.1860 H     1 <1>   0.1000 
 21 H        3.1090     1.2900     0.6070 H     1 <1>   0.1000 
@<TRIPOS>BOND
  1   1   2  1   
  2   2   3  ar  
  3   2   4  ar  
  4   3   5  ar  
  5   3   6  1   
  6   4   7  ar  
  7   4  14  1   
  8   5   8  ar  
  9   5  15  1   
 10   6   9  1   
 11   6  10  1   
 12   6  11  1   
 13   7   8  ar  
 14   7  16  1   
 15   8  17  1   
 16   9  12  ar  
 17   9  13  ar  
 18  10  11  1   
 19  10  18  1   
 20  10  19  1   
 21  11  20  1   
 22  11  21  1   
@<TRIPOS>SUBSTRUCTURE
  1 ****   3 GROUP 4 **** **** 0

# MOE 2024.06 (io_trps.svl 2023.06)
