@<TRIPOS>MOLECULE
1-[4-(2,4,6-Trimethyl-benzenesulfonyl)-piperazine-1-sulfonyl]-azepane
59 61 1 0 0 
SMALL
USER_CHARGES


@<TRIPOS>ATOM
  1 S        0.4560     0.0110    -1.5410 S.o2  1 <1>   1.5760 
  2 O       -0.3510     0.8850    -2.3640 O.2   1 <1>  -0.6500 
  3 O        0.8980    -1.2710    -2.0400 O.2   1 <1>  -0.6500 
  4 N       -0.3330    -0.2010    -0.0610 N.am  1 <1>  -0.8490 
  5 N        1.8150     0.8660    -1.0260 N.am  1 <1>  -0.8490 
  6 C       -1.3730    -1.2300    -0.1670 C.3   1 <1>   0.1960 
  7 C       -0.8460     1.0800     0.4380 C.3   1 <1>   0.1960 
  8 C        2.7210     0.0240    -0.2310 C.3   1 <1>   0.1960 
  9 C        2.5490     1.4350    -2.1640 C.3   1 <1>   0.1960 
 10 C       -1.6220    -1.8760     1.1990 C.3   1 <1>  -0.1600 
 11 C       -1.3660     1.0080     1.8800 C.3   1 <1>  -0.1600 
 12 C        3.9510     0.8240     0.2580 C.3   1 <1>   0.1960 
 13 C        3.7430     2.2830    -1.6750 C.3   1 <1>   0.1960 
 14 C       -2.6930    -1.1940     2.0670 C.3   1 <1>  -0.1600 
 15 C       -2.7420     0.3370     1.9920 C.3   1 <1>  -0.1600 
 16 N        4.6800     1.5350    -0.8140 N.am  1 <1>  -0.8490 
 17 S        5.7870     0.5810    -1.6830 S.o2  1 <1>   1.4470 
 18 O        5.0320    -0.5510    -2.1730 O.2   1 <1>  -0.6500 
 19 O        6.3700     1.4540    -2.6800 O.2   1 <1>  -0.6500 
 20 C        7.0440     0.1340    -0.4160 C.ar  1 <1>  -0.0090 
 21 C        7.2230    -1.1830     0.0430 C.ar  1 <1>  -0.1440 
 22 C        7.8590     1.1250     0.1550 C.ar  1 <1>  -0.1440 
 23 C        8.1600    -1.4720     1.0240 C.ar  1 <1>  -0.1500 
 24 C        6.4290    -2.3730    -0.4870 C.3   1 <1>  -0.0970 
 25 C        8.7890     0.8120     1.1330 C.ar  1 <1>  -0.1500 
 26 C        7.7840     2.5930    -0.2600 C.3   1 <1>  -0.0970 
 27 C        8.9440    -0.4830     1.5770 C.ar  1 <1>  -0.1440 
 28 C        9.9680    -0.8160     2.6470 C.3   1 <1>  -0.0970 
 29 H       -1.0340    -2.0160    -0.8210 H     1 <1>   0.0800 
 30 H       -2.2790    -0.8270    -0.5880 H     1 <1>   0.0800 
 31 H       -1.6210     1.4480    -0.2140 H     1 <1>   0.0800 
 32 H       -0.0480     1.8020     0.4220 H     1 <1>   0.0800 
 33 H        3.0420    -0.8280    -0.8060 H     1 <1>   0.0800 
 34 H        2.1940    -0.3520     0.6290 H     1 <1>   0.0800 
 35 H        1.8900     2.0700    -2.7310 H     1 <1>   0.0800 
 36 H        2.8920     0.6510    -2.8190 H     1 <1>   0.0800 
 37 H       -0.6900    -1.9200     1.7350 H     1 <1>   0.0800 
 38 H       -1.9340    -2.8930     1.0390 H     1 <1>   0.0800 
 39 H       -1.4720     2.0210     2.2250 H     1 <1>   0.0800 
 40 H       -0.6420     0.5300     2.5160 H     1 <1>   0.0800 
 41 H        4.6190     0.1660     0.7870 H     1 <1>   0.0800 
 42 H        3.6010     1.5530     0.9680 H     1 <1>   0.0800 
 43 H        3.3510     3.1130    -1.1140 H     1 <1>   0.0800 
 44 H        4.2630     2.6930    -2.5240 H     1 <1>   0.0800 
 45 H       -2.5240    -1.4870     3.0890 H     1 <1>   0.0800 
 46 H       -3.6620    -1.5720     1.7890 H     1 <1>   0.0800 
 47 H       -3.3520     0.6370     1.1560 H     1 <1>   0.0800 
 48 H       -3.2340     0.6970     2.8800 H     1 <1>   0.0800 
 49 H        8.2900    -2.4840     1.3670 H     1 <1>   0.1500 
 50 H        5.3800    -2.2460    -0.2900 H     1 <1>   0.0800 
 51 H        6.7380    -3.2920    -0.0250 H     1 <1>   0.0800 
 52 H        6.5810    -2.4790    -1.5470 H     1 <1>   0.0800 
 53 H        9.4060     1.5830     1.5580 H     1 <1>   0.1500 
 54 H        6.7850     2.9730    -0.1550 H     1 <1>   0.0800 
 55 H        8.0980     2.7060    -1.2830 H     1 <1>   0.0800 
 56 H        8.4270     3.2040     0.3460 H     1 <1>   0.0800 
 57 H        9.6400    -1.6540     3.2360 H     1 <1>   0.0800 
 58 H       10.1130     0.0230     3.3050 H     1 <1>   0.0800 
 59 H       10.9080    -1.0620     2.1870 H     1 <1>   0.0800 
@<TRIPOS>BOND
  1   1   2  2   
  2   1   3  2   
  3   1   4  am  
  4   1   5  am  
  5   4   6  1   
  6   4   7  1   
  7   5   8  1   
  8   5   9  1   
  9   6  10  1   
 10   6  29  1   
 11   6  30  1   
 12   7  11  1   
 13   7  31  1   
 14   7  32  1   
 15   8  12  1   
 16   8  33  1   
 17   8  34  1   
 18   9  13  1   
 19   9  35  1   
 20   9  36  1   
 21  10  14  1   
 22  10  37  1   
 23  10  38  1   
 24  11  15  1   
 25  11  39  1   
 26  11  40  1   
 27  12  16  1   
 28  12  41  1   
 29  12  42  1   
 30  13  16  1   
 31  13  43  1   
 32  13  44  1   
 33  14  15  1   
 34  14  45  1   
 35  14  46  1   
 36  15  47  1   
 37  15  48  1   
 38  16  17  am  
 39  17  18  2   
 40  17  19  2   
 41  17  20  1   
 42  20  21  ar  
 43  20  22  ar  
 44  21  23  ar  
 45  21  24  1   
 46  22  25  ar  
 47  22  26  1   
 48  23  27  ar  
 49  23  49  1   
 50  24  50  1   
 51  24  51  1   
 52  24  52  1   
 53  25  27  ar  
 54  25  53  1   
 55  26  54  1   
 56  26  55  1   
 57  26  56  1   
 58  27  28  1   
 59  28  57  1   
 60  28  58  1   
 61  28  59  1   
@<TRIPOS>SUBSTRUCTURE
  1 ****   8 GROUP 4 **** **** 0

# MOE 2024.06 (io_trps.svl 2023.06)
