@<TRIPOS>MOLECULE
N-Benzo[1,3]dioxol-5-ylmethyl-2-(methanesulfonyl-phenethyl-amino)-acetamide
49 51 1 0 0 
SMALL
USER_CHARGES


@<TRIPOS>ATOM
  1 S        0.5600    -0.8860    -0.9610 S.o2  1 <1>   1.3330 
  2 O       -0.5670    -0.6530    -1.8340 O.2   1 <1>  -0.6500 
  3 O        1.7360    -1.5410    -1.4900 O.2   1 <1>  -0.6500 
  4 N        0.0310    -1.7640     0.3930 N.am  1 <1>  -0.8490 
  5 C        1.0120     0.6850    -0.2550 C.3   1 <1>  -0.1350 
  6 C        1.0850    -2.6230     1.0050 C.3   1 <1>   0.2570 
  7 C       -1.2000    -2.5340     0.1530 C.3   1 <1>   0.1960 
  8 C        2.3140    -1.8940     1.5750 C.2   1 <1>   0.5690 
  9 C       -2.4360    -1.6860     0.4640 C.3   1 <1>  -0.0170 
 10 O        2.3180    -1.5650     2.7370 O.2   1 <1>  -0.5700 
 11 N        3.3790    -1.6430     0.7720 N.am  1 <1>  -0.7300 
 12 C       -3.6940    -2.5110     0.2490 C.ar  1 <1>  -0.1440 
 13 C        4.6620    -1.0640     1.2040 C.3   1 <1>   0.2840 
 14 C       -4.3130    -3.1490     1.3130 C.ar  1 <1>  -0.1500 
 15 C       -4.2270    -2.6370    -1.0240 C.ar  1 <1>  -0.1500 
 16 C        5.7860    -1.8840     0.6000 C.ar  1 <1>  -0.1440 
 17 C       -5.4530    -3.9060     1.1060 C.ar  1 <1>  -0.1500 
 18 C       -5.3670    -3.3940    -1.2320 C.ar  1 <1>  -0.1500 
 19 C        6.4250    -1.4530    -0.5590 C.ar  1 <1>  -0.1500 
 20 C        6.1780    -3.0760     1.2110 C.ar  1 <1>  -0.1500 
 21 C       -5.9810    -4.0290    -0.1670 C.ar  1 <1>  -0.1500 
 22 C        7.4450    -2.2310    -1.0690 C.ar  1 <1>   0.0820 
 23 C        7.2050    -3.8470     0.6810 C.ar  1 <1>  -0.1500 
 24 O        8.1920    -2.0110    -2.1560 O.3   1 <1>  -0.3630 
 25 C        7.8240    -3.3950    -0.4670 C.ar  1 <1>   0.0820 
 26 C        9.1040    -3.1030    -2.2530 C.3   1 <1>   0.4000 
 27 O        8.8250    -3.9610    -1.1480 O.3   1 <1>  -0.3620 
 28 H        1.7860     0.5670     0.4760 H     1 <1>   0.0800 
 29 H        0.1600     1.1310     0.2190 H     1 <1>   0.0800 
 30 H        1.3620     1.3450    -1.0240 H     1 <1>   0.0800 
 31 H        1.4200    -3.3490     0.2850 H     1 <1>   0.0800 
 32 H        0.6530    -3.1650     1.8280 H     1 <1>   0.0800 
 33 H       -1.2350    -3.3970     0.7960 H     1 <1>   0.0800 
 34 H       -1.2340    -2.8880    -0.8650 H     1 <1>   0.0800 
 35 H       -2.4730    -0.8210    -0.1720 H     1 <1>   0.0800 
 36 H       -2.3920    -1.3500     1.4850 H     1 <1>   0.0800 
 37 H        3.3090    -1.8550    -0.2340 H     1 <1>   0.3700 
 38 H        4.7330    -1.0750     2.2790 H     1 <1>   0.0800 
 39 H        4.7230    -0.0420     0.8710 H     1 <1>   0.0800 
 40 H       -3.9120    -3.0590     2.3080 H     1 <1>   0.1500 
 41 H       -3.7560    -2.1450    -1.8580 H     1 <1>   0.1500 
 42 H       -5.9300    -4.3980     1.9350 H     1 <1>   0.1500 
 43 H       -5.7770    -3.4870    -2.2230 H     1 <1>   0.1500 
 44 H        6.1480    -0.5430    -1.0600 H     1 <1>   0.1500 
 45 H        5.6770    -3.4080     2.1050 H     1 <1>   0.1500 
 46 H       -6.8680    -4.6160    -0.3280 H     1 <1>   0.1500 
 47 H        7.5180    -4.7670     1.1410 H     1 <1>   0.1500 
 48 H       10.1130    -2.7380    -2.1810 H     1 <1>   0.0800 
 49 H        8.9360    -3.6340    -3.1730 H     1 <1>   0.0800 
@<TRIPOS>BOND
  1   1   2  2   
  2   1   3  2   
  3   1   4  am  
  4   1   5  1   
  5   4   6  1   
  6   4   7  1   
  7   5  28  1   
  8   5  29  1   
  9   5  30  1   
 10   6   8  1   
 11   6  31  1   
 12   6  32  1   
 13   7   9  1   
 14   7  33  1   
 15   7  34  1   
 16   8  10  2   
 17   8  11  am  
 18   9  12  1   
 19   9  35  1   
 20   9  36  1   
 21  11  13  1   
 22  11  37  1   
 23  12  14  ar  
 24  12  15  ar  
 25  13  16  1   
 26  13  38  1   
 27  13  39  1   
 28  14  17  ar  
 29  14  40  1   
 30  15  18  ar  
 31  15  41  1   
 32  16  19  ar  
 33  16  20  ar  
 34  17  21  ar  
 35  17  42  1   
 36  18  21  ar  
 37  18  43  1   
 38  19  22  ar  
 39  19  44  1   
 40  20  23  ar  
 41  20  45  1   
 42  21  46  1   
 43  22  24  1   
 44  22  25  ar  
 45  23  25  ar  
 46  23  47  1   
 47  24  26  1   
 48  25  27  1   
 49  26  27  1   
 50  26  48  1   
 51  26  49  1   
@<TRIPOS>SUBSTRUCTURE
  1 ****   6 GROUP 4 **** **** 0

# MOE 2024.06 (io_trps.svl 2023.06)
