@<TRIPOS>MOLECULE
8-(3-Chloro-2-methyl-phenyl)-3-(2-ethoxy-ethyl)-1-methyl-5,6,7,8-tetrahydro-1H-1
54 57 1 0 0 
SMALL
USER_CHARGES


@<TRIPOS>ATOM
  1 CL      -2.3240    -1.6720    -2.0110 Cl    1 <1>  -0.1840 
  2 C       -3.0270    -1.1620    -0.4950 C.ar  1 <1>   0.1700 
  3 C       -3.8350    -0.0340    -0.4400 C.ar  1 <1>  -0.1500 
  4 C       -2.7560    -1.9260     0.6240 C.ar  1 <1>  -0.1570 
  5 C       -4.4060     0.3050     0.7900 C.ar  1 <1>   0.3050 
  6 C       -4.0610     0.7900    -1.7110 C.3   1 <1>  -0.1040 
  7 C       -3.3030    -1.5690     1.8410 C.ar  1 <1>  -0.1570 
  8 N       -5.2920     1.3820     0.9150 N.pl3 1 <1>  -0.5790 
  9 C       -4.1240    -0.4590     1.9170 C.ar  1 <1>  -0.1570 
 10 C       -6.5550     1.3410     0.4510 C.cat 1 <1>   1.0690 
 11 C       -4.8070     2.6060     1.6120 C.3   1 <1>   0.1610 
 12 N       -7.1580     0.3040    -0.1270 N.pl3 1 <1>  -0.7030 
 13 N       -7.3870     2.3720     0.5090 N.pl3 1 <1>  -0.7670 
 14 C       -5.5290     3.8540     1.0810 C.3   1 <1>  -0.1670 
 15 C       -8.4240     0.6860    -0.4530 C.2   1 <1>   0.4210 
 16 C       -8.6010     1.9680    -0.0660 C.2   1 <1>   0.2710 
 17 C       -7.0530     3.6930     1.0810 C.3   1 <1>   0.3490 
 18 N       -9.4050    -0.0650    -1.0690 N.am  1 <1>  -0.4410 
 19 C       -9.8660     2.5960    -0.2960 C.2   1 <1>   0.7000 
 20 C      -10.6450     0.5250    -1.2780 C.2   1 <1>   0.6870 
 21 C       -9.1560    -1.4820    -1.4710 C.3   1 <1>   0.0530 
 22 O      -10.0670     3.7430     0.0620 O.2   1 <1>  -0.5740 
 23 N      -10.8540     1.8550    -0.9290 N.am  1 <1>  -0.4250 
 24 O      -11.5490    -0.1290    -1.7530 O.2   1 <1>  -0.5740 
 25 C      -12.1710     2.4940    -1.2450 C.3   1 <1>   0.1330 
 26 C      -13.1930     2.2070    -0.1450 C.3   1 <1>   0.1130 
 27 O      -14.3650     2.8790    -0.4660 O.3   1 <1>  -0.5640 
 28 C      -15.3990     2.6690     0.4340 C.3   1 <1>   0.1130 
 29 C      -16.6020     3.4670    -0.0520 C.3   1 <1>  -0.2460 
 30 H       -2.1190    -2.7900     0.5390 H     1 <1>   0.1430 
 31 H       -4.7520     0.2860    -2.3630 H     1 <1>   0.0730 
 32 H       -3.1320     0.9160    -2.2410 H     1 <1>   0.0730 
 33 H       -4.4330     1.7750    -1.5010 H     1 <1>   0.0730 
 34 H       -3.0890    -2.1550     2.7210 H     1 <1>   0.1430 
 35 H       -4.5520    -0.1890     2.8670 H     1 <1>   0.1430 
 36 H       -3.7440     2.7130     1.4600 H     1 <1>   0.0730 
 37 H       -4.9850     2.5010     2.6700 H     1 <1>   0.0730 
 38 H       -6.7180    -0.6000    -0.2810 H     1 <1>   0.4450 
 39 H       -5.1930     4.0590     0.0790 H     1 <1>   0.0730 
 40 H       -5.2620     4.7060     1.6820 H     1 <1>   0.0730 
 41 H       -7.4350     3.7500     2.0870 H     1 <1>   0.0730 
 42 H       -7.5080     4.4780     0.4980 H     1 <1>   0.0730 
 43 H       -8.1540    -1.5970    -1.8460 H     1 <1>   0.0730 
 44 H       -9.8380    -1.7810    -2.2490 H     1 <1>   0.0730 
 45 H       -9.2990    -2.1300    -0.6230 H     1 <1>   0.0730 
 46 H      -12.5440     2.1120    -2.1800 H     1 <1>   0.0730 
 47 H      -12.0520     3.5590    -1.3470 H     1 <1>   0.0730 
 48 H      -12.8420     2.5750     0.8040 H     1 <1>   0.0730 
 49 H      -13.4040     1.1530    -0.0930 H     1 <1>   0.0730 
 50 H      -15.0880     3.0070     1.4090 H     1 <1>   0.0730 
 51 H      -15.6290     1.6160     0.4620 H     1 <1>   0.0730 
 52 H      -16.3580     4.5130    -0.0900 H     1 <1>   0.0730 
 53 H      -17.4270     3.3300     0.6230 H     1 <1>   0.0730 
 54 H      -16.8960     3.1300    -1.0290 H     1 <1>   0.0730 
@<TRIPOS>BOND
  1   1   2  1   
  2   2   3  ar  
  3   2   4  ar  
  4   3   5  ar  
  5   3   6  1   
  6   4   7  ar  
  7   4  30  1   
  8   5   8  1   
  9   5   9  ar  
 10   6  31  1   
 11   6  32  1   
 12   6  33  1   
 13   7   9  ar  
 14   7  34  1   
 15   8  10  ar  
 16   8  11  1   
 17   9  35  1   
 18  10  12  ar  
 19  10  13  ar  
 20  11  14  1   
 21  11  36  1   
 22  11  37  1   
 23  12  15  1   
 24  12  38  1   
 25  13  16  1   
 26  13  17  1   
 27  14  17  1   
 28  14  39  1   
 29  14  40  1   
 30  15  16  2   
 31  15  18  1   
 32  16  19  1   
 33  17  41  1   
 34  17  42  1   
 35  18  20  am  
 36  18  21  1   
 37  19  22  2   
 38  19  23  am  
 39  20  23  am  
 40  20  24  2   
 41  21  43  1   
 42  21  44  1   
 43  21  45  1   
 44  23  25  1   
 45  25  26  1   
 46  25  46  1   
 47  25  47  1   
 48  26  27  1   
 49  26  48  1   
 50  26  49  1   
 51  27  28  1   
 52  28  29  1   
 53  28  50  1   
 54  28  51  1   
 55  29  52  1   
 56  29  53  1   
 57  29  54  1   
@<TRIPOS>SUBSTRUCTURE
  1 ****  15 GROUP 4 **** **** 0

# MOE 2024.06 (io_trps.svl 2023.06)
