@<TRIPOS>MOLECULE
N-[1-(3-p-Tolyl-[1,2,4]oxadiazol-5-yl)-ethyl]-butyramide
39 40 1 0 0 
SMALL
USER_CHARGES


@<TRIPOS>ATOM
  1 O       -2.0010     0.0150    -2.1960 O.2   1 <1>  -0.5700 
  2 C       -2.6870    -0.0020    -1.2070 C.2   1 <1>   0.5690 
  3 N       -3.9900    -0.3320    -1.3230 N.am  1 <1>  -0.7300 
  4 C       -2.0910     0.3460     0.1530 C.3   1 <1>  -0.0990 
  5 C       -5.0210    -0.4560    -0.2720 C.3   1 <1>   0.4000 
  6 C       -0.5680     0.5690     0.1380 C.3   1 <1>  -0.1600 
  7 C       -5.2110    -1.9220     0.1330 C.2   1 <1>   0.2980 
  8 C       -6.3000     0.1890    -0.8100 C.3   1 <1>  -0.2400 
  9 C       -0.0350     0.8980     1.5360 C.3   1 <1>  -0.2400 
 10 O       -4.2740    -2.4700     0.8620 O.3   1 <1>  -0.0190 
 11 N       -6.1870    -2.6860    -0.1550 N.2   1 <1>  -0.5650 
 12 N       -4.6880    -3.6820     1.0550 N.2   1 <1>  -0.4100 
 13 C       -5.8160    -3.8180     0.4520 C.2   1 <1>   0.4620 
 14 C       -6.6160    -5.0310     0.4130 C.ar  1 <1>   0.0540 
 15 C       -7.8370    -5.0860    -0.2630 C.ar  1 <1>  -0.1500 
 16 C       -6.1950    -6.1980     1.0520 C.ar  1 <1>  -0.1500 
 17 C       -8.5960    -6.2410    -0.2970 C.ar  1 <1>  -0.1500 
 18 C       -6.9500    -7.3560     1.0210 C.ar  1 <1>  -0.1500 
 19 C       -8.1580    -7.3860     0.3460 C.ar  1 <1>  -0.1440 
 20 C       -8.9880    -8.6560     0.3080 C.3   1 <1>  -0.0970 
 21 H       -4.2870    -0.6210    -2.2570 H     1 <1>   0.3700 
 22 H       -2.3110    -0.4550     0.8340 H     1 <1>   0.0800 
 23 H       -2.5690     1.2390     0.5100 H     1 <1>   0.0800 
 24 H       -4.7130     0.0900     0.6020 H     1 <1>   0.0800 
 25 H       -0.3310     1.3760    -0.5350 H     1 <1>   0.0800 
 26 H       -0.0810    -0.3180    -0.2310 H     1 <1>   0.0800 
 27 H       -6.6450    -0.3310    -1.6860 H     1 <1>   0.0800 
 28 H       -6.1240     1.2220    -1.0510 H     1 <1>   0.0800 
 29 H       -7.0720     0.1390    -0.0630 H     1 <1>   0.0800 
 30 H       -0.4920     1.7960     1.9130 H     1 <1>   0.0800 
 31 H        1.0300     1.0480     1.4950 H     1 <1>   0.0800 
 32 H       -0.2380     0.0900     2.2170 H     1 <1>   0.0800 
 33 H       -8.1990    -4.2100    -0.7710 H     1 <1>   0.1500 
 34 H       -5.2590    -6.2000     1.5830 H     1 <1>   0.1500 
 35 H       -9.5310    -6.2460    -0.8300 H     1 <1>   0.1500 
 36 H       -6.5910    -8.2370     1.5240 H     1 <1>   0.1500 
 37 H      -10.0340    -8.4190     0.2400 H     1 <1>   0.0800 
 38 H       -8.8290    -9.2350     1.2000 H     1 <1>   0.0800 
 39 H       -8.7090    -9.2470    -0.5450 H     1 <1>   0.0800 
@<TRIPOS>BOND
  1   1   2  2   
  2   2   3  am  
  3   2   4  1   
  4   3   5  1   
  5   3  21  1   
  6   4   6  1   
  7   4  22  1   
  8   4  23  1   
  9   5   7  1   
 10   5   8  1   
 11   5  24  1   
 12   6   9  1   
 13   6  25  1   
 14   6  26  1   
 15   7  10  1   
 16   7  11  2   
 17   8  27  1   
 18   8  28  1   
 19   8  29  1   
 20   9  30  1   
 21   9  31  1   
 22   9  32  1   
 23  10  12  1   
 24  11  13  1   
 25  12  13  2   
 26  13  14  1   
 27  14  15  ar  
 28  14  16  ar  
 29  15  17  ar  
 30  15  33  1   
 31  16  18  ar  
 32  16  34  1   
 33  17  19  ar  
 34  17  35  1   
 35  18  19  ar  
 36  18  36  1   
 37  19  20  1   
 38  20  37  1   
 39  20  38  1   
 40  20  39  1   
@<TRIPOS>SUBSTRUCTURE
  1 ****   7 GROUP 4 **** **** 0

# MOE 2024.06 (io_trps.svl 2023.06)
