@<TRIPOS>MOLECULE
5-Oxo-1-p-tolyl-pyrrolidine-3-carboxylic acid (2-methoxy-ethyl)-amide
40 41 1 0 0 
SMALL
USER_CHARGES


@<TRIPOS>ATOM
  1 O        0.7750     0.4780    -0.5520 O.2   1 <1>  -0.5700 
  2 C        1.9750     0.4980    -0.4350 C.2   1 <1>   0.5690 
  3 N        2.8040    -0.5670    -0.2170 N.am  1 <1>  -0.4770 
  4 C        2.7510     1.7820    -0.5420 C.3   1 <1>  -0.0990 
  5 C        2.4730    -1.9320    -0.1040 C.ar  1 <1>   0.1170 
  6 C        4.2100    -0.1160    -0.1490 C.3   1 <1>   0.1400 
  7 C        4.1890     1.2930    -0.7540 C.3   1 <1>  -0.0190 
  8 C        1.4370    -2.4870    -0.8480 C.ar  1 <1>  -0.1500 
  9 C        3.1840    -2.7720     0.7500 C.ar  1 <1>  -0.1500 
 10 C        5.2360     2.2200    -0.1600 C.2   1 <1>   0.5690 
 11 C        1.1270    -3.8310    -0.7520 C.ar  1 <1>  -0.1500 
 12 C        2.8770    -4.1170     0.8470 C.ar  1 <1>  -0.1500 
 13 O        5.4490     2.1890     1.0260 O.2   1 <1>  -0.5700 
 14 N        5.8970     3.0720    -0.9830 N.am  1 <1>  -0.7300 
 15 C        1.8460    -4.6560     0.0970 C.ar  1 <1>  -0.1430 
 16 C        6.9860     3.9860    -0.5460 C.3   1 <1>   0.1400 
 17 C        1.5060    -6.1320     0.2010 C.3   1 <1>  -0.0970 
 18 C        6.4120     5.2210     0.1480 C.3   1 <1>   0.1200 
 19 O        7.4470     6.1330     0.3430 O.3   1 <1>  -0.5600 
 20 C        7.0690     7.2710     1.0490 C.3   1 <1>   0.0400 
 21 H        2.6500     2.3210     0.3830 H     1 <1>   0.0800 
 22 H        2.3990     2.3810    -1.3610 H     1 <1>   0.0800 
 23 H        4.8520    -0.7760    -0.7060 H     1 <1>   0.0800 
 24 H        4.5170    -0.0950     0.8840 H     1 <1>   0.0800 
 25 H        4.3670     1.1920    -1.8090 H     1 <1>   0.0800 
 26 H        0.8670    -1.8610    -1.5110 H     1 <1>   0.1500 
 27 H        3.9800    -2.3750     1.3510 H     1 <1>   0.1500 
 28 H        0.3200    -4.2310    -1.3410 H     1 <1>   0.1500 
 29 H        3.4440    -4.7440     1.5130 H     1 <1>   0.1500 
 30 H        5.6720     3.1080    -1.9790 H     1 <1>   0.3700 
 31 H        7.5600     4.2890    -1.4040 H     1 <1>   0.0800 
 32 H        7.6340     3.4670     0.1410 H     1 <1>   0.0800 
 33 H        0.4530    -6.2850     0.0460 H     1 <1>   0.0800 
 34 H        1.7640    -6.5100     1.1740 H     1 <1>   0.0800 
 35 H        2.0510    -6.6840    -0.5430 H     1 <1>   0.0800 
 36 H        6.0000     4.9480     1.1050 H     1 <1>   0.0800 
 37 H        5.6630     5.6870    -0.4670 H     1 <1>   0.0800 
 38 H        7.9310     7.9080     1.1420 H     1 <1>   0.0800 
 39 H        6.7240     6.9840     2.0270 H     1 <1>   0.0800 
 40 H        6.2940     7.7860     0.5070 H     1 <1>   0.0800 
@<TRIPOS>BOND
  1   1   2  2   
  2   2   3  am  
  3   2   4  1   
  4   3   5  1   
  5   3   6  1   
  6   4   7  1   
  7   4  21  1   
  8   4  22  1   
  9   5   8  ar  
 10   5   9  ar  
 11   6   7  1   
 12   6  23  1   
 13   6  24  1   
 14   7  10  1   
 15   7  25  1   
 16   8  11  ar  
 17   8  26  1   
 18   9  12  ar  
 19   9  27  1   
 20  10  13  2   
 21  10  14  am  
 22  11  15  ar  
 23  11  28  1   
 24  12  15  ar  
 25  12  29  1   
 26  14  16  1   
 27  14  30  1   
 28  15  17  1   
 29  16  18  1   
 30  16  31  1   
 31  16  32  1   
 32  17  33  1   
 33  17  34  1   
 34  17  35  1   
 35  18  19  1   
 36  18  36  1   
 37  18  37  1   
 38  19  20  1   
 39  20  38  1   
 40  20  39  1   
 41  20  40  1   
@<TRIPOS>SUBSTRUCTURE
  1 ****   6 GROUP 4 **** **** 0

# MOE 2024.06 (io_trps.svl 2023.06)
