@<TRIPOS>MOLECULE
(Adamantan-1-yloxy)-acetic acid
32 34 1 0 0 
SMALL
USER_CHARGES


@<TRIPOS>ATOM
  1 O        0.7820     0.1260     0.9230 O.co2 1 <1>  -0.9000 
  2 C        0.0690    -0.7470     0.4090 C.2   1 <1>   0.9060 
  3 O        0.4700    -1.9110     0.2590 O.co2 1 <1>  -0.9000 
  4 C       -1.2910    -0.3510    -0.1730 C.3   1 <1>   0.0140 
  5 O       -2.3940    -0.4960     0.7130 O.3   1 <1>  -0.5600 
  6 C       -3.6920    -0.3760     0.2110 C.3   1 <1>   0.2800 
  7 C       -4.6160    -0.3690     1.4410 C.3   1 <1>  -0.1600 
  8 C       -4.0530    -1.5850    -0.6750 C.3   1 <1>  -0.1600 
  9 C       -3.8950     0.9380    -0.5740 C.3   1 <1>  -0.1600 
 10 C       -6.0900    -0.2580     1.0080 C.3   1 <1>  -0.0800 
 11 C       -5.5230    -1.4760    -1.1300 C.3   1 <1>  -0.0800 
 12 C       -5.3650     1.0490    -1.0270 C.3   1 <1>  -0.0800 
 13 C       -6.4390    -1.4600     0.1090 C.3   1 <1>  -0.1600 
 14 C       -6.2820     1.0470     0.2110 C.3   1 <1>  -0.1600 
 15 C       -5.7140    -0.1620    -1.9160 C.3   1 <1>  -0.1600 
 16 H       -1.4490    -0.9590    -1.0400 H     1 <1>   0.0800 
 17 H       -1.2240     0.6800    -0.4620 H     1 <1>   0.0800 
 18 H       -4.4680    -1.2750     2.0010 H     1 <1>   0.0800 
 19 H       -4.3580     0.4610     2.0740 H     1 <1>   0.0800 
 20 H       -3.9040    -2.4930    -0.1190 H     1 <1>   0.0800 
 21 H       -3.4250    -1.6150    -1.5450 H     1 <1>   0.0800 
 22 H       -3.2670     0.9530    -1.4450 H     1 <1>   0.0800 
 23 H       -3.6370     1.7730     0.0510 H     1 <1>   0.0800 
 24 H       -6.7250    -0.2540     1.8760 H     1 <1>   0.0800 
 25 H       -5.7720    -2.3160    -1.7560 H     1 <1>   0.0800 
 26 H       -5.5050     1.9610    -1.5820 H     1 <1>   0.0800 
 27 H       -7.4680    -1.3980    -0.1990 H     1 <1>   0.0800 
 28 H       -6.3160    -2.3740     0.6620 H     1 <1>   0.0800 
 29 H       -6.0490     1.8910     0.8370 H     1 <1>   0.0800 
 30 H       -7.3090     1.1390    -0.0950 H     1 <1>   0.0800 
 31 H       -5.0840    -0.1670    -2.7880 H     1 <1>   0.0800 
 32 H       -6.7340    -0.0850    -2.2510 H     1 <1>   0.0800 
@<TRIPOS>BOND
  1   1   2  ar  
  2   2   3  ar  
  3   2   4  1   
  4   4   5  1   
  5   4  16  1   
  6   4  17  1   
  7   5   6  1   
  8   6   7  1   
  9   6   8  1   
 10   6   9  1   
 11   7  10  1   
 12   7  18  1   
 13   7  19  1   
 14   8  11  1   
 15   8  20  1   
 16   8  21  1   
 17   9  12  1   
 18   9  22  1   
 19   9  23  1   
 20  10  13  1   
 21  10  14  1   
 22  10  24  1   
 23  11  13  1   
 24  11  15  1   
 25  11  25  1   
 26  12  14  1   
 27  12  15  1   
 28  12  26  1   
 29  13  27  1   
 30  13  28  1   
 31  14  29  1   
 32  14  30  1   
 33  15  31  1   
 34  15  32  1   
@<TRIPOS>SUBSTRUCTURE
  1 ****   6 GROUP 4 **** **** 0

# MOE 2024.06 (io_trps.svl 2023.06)
