@<TRIPOS>MOLECULE
1-Methyl-4-thiophen-3-yl-1,4-dihydro-pyridine-3,5-dicarboxylic acid diethyl este
41 42 1 0 0 
SMALL
USER_CHARGES


@<TRIPOS>ATOM
  1 S        0.4450    -0.6370    -1.6220 S.3   1 <1>  -0.0800 
  2 C        0.3610    -2.2930    -1.0520 C.2   1 <1>  -0.1100 
  3 C        0.9830    -0.0820    -0.0480 C.2   1 <1>  -0.1100 
  4 C        0.7190    -2.3790     0.2450 C.2   1 <1>  -0.1810 
  5 C        1.0760    -1.1110     0.8140 C.2   1 <1>  -0.1500 
  6 C        0.7610    -3.6670     1.0680 C.3   1 <1>   0.3770 
  7 C        2.0110    -4.4530     0.6680 C.2   1 <1>  -0.1240 
  8 C       -0.5340    -4.4440     0.8230 C.2   1 <1>  -0.1240 
  9 C        3.2520    -3.9040     1.1110 C.2   1 <1>   0.7060 
 10 C        1.8820    -5.5840    -0.0690 C.2   1 <1>  -0.0500 
 11 C       -1.7060    -3.8750     1.4080 C.2   1 <1>   0.7060 
 12 C       -0.5070    -5.5770     0.0790 C.2   1 <1>  -0.0500 
 13 O        3.3470    -3.0100     1.9330 O.2   1 <1>  -0.5700 
 14 O        4.3750    -4.4290     0.6080 O.3   1 <1>  -0.4300 
 15 N        0.6590    -6.1140    -0.4330 N.pl3 1 <1>  -0.5690 
 16 O       -1.6900    -2.9610     2.2110 O.2   1 <1>  -0.5700 
 17 O       -2.8860    -4.4000     1.0610 O.3   1 <1>  -0.4300 
 18 C        5.6440    -3.9470     0.9860 C.3   1 <1>   0.1200 
 19 C        0.6040    -7.3350    -1.2730 C.3   1 <1>   0.1290 
 20 C       -4.0950    -3.8950     1.5820 C.3   1 <1>   0.1200 
 21 C        6.6990    -4.7490     0.2300 C.3   1 <1>  -0.2400 
 22 C       -5.2420    -4.7010     0.9820 C.3   1 <1>  -0.2400 
 23 H        0.0490    -3.0450    -1.7560 H     1 <1>   0.1500 
 24 H        1.1750     0.9690     0.0690 H     1 <1>   0.1500 
 25 H        1.3880    -1.0320     1.8420 H     1 <1>   0.1500 
 26 H        0.8210    -3.4310     2.1170 H     1 <1>   0.0800 
 27 H        2.7530    -6.1320    -0.3920 H     1 <1>   0.1500 
 28 H       -1.4150    -6.1200    -0.1330 H     1 <1>   0.1500 
 29 H        5.7530    -4.0700     2.0510 H     1 <1>   0.0800 
 30 H        5.7000    -2.9010     0.7340 H     1 <1>   0.0800 
 31 H        1.4320    -7.3460    -1.9590 H     1 <1>   0.0800 
 32 H       -0.3120    -7.3530    -1.8360 H     1 <1>   0.0800 
 33 H        0.6520    -8.2060    -0.6440 H     1 <1>   0.0800 
 34 H       -4.1720    -2.8540     1.3160 H     1 <1>   0.0800 
 35 H       -4.0720    -3.9940     2.6550 H     1 <1>   0.0800 
 36 H        6.6230    -5.7910     0.4830 H     1 <1>   0.0800 
 37 H        7.6790    -4.4010     0.4990 H     1 <1>   0.0800 
 38 H        6.5700    -4.6240    -0.8300 H     1 <1>   0.0800 
 39 H       -5.2450    -4.6000    -0.0890 H     1 <1>   0.0800 
 40 H       -6.1780    -4.3360     1.3630 H     1 <1>   0.0800 
 41 H       -5.1450    -5.7380     1.2470 H     1 <1>   0.0800 
@<TRIPOS>BOND
  1   1   2  1   
  2   1   3  1   
  3   2   4  2   
  4   2  23  1   
  5   3   5  2   
  6   3  24  1   
  7   4   5  1   
  8   4   6  1   
  9   5  25  1   
 10   6   7  1   
 11   6   8  1   
 12   6  26  1   
 13   7   9  1   
 14   7  10  2   
 15   8  11  1   
 16   8  12  2   
 17   9  13  2   
 18   9  14  1   
 19  10  15  1   
 20  10  27  1   
 21  11  16  2   
 22  11  17  1   
 23  12  15  1   
 24  12  28  1   
 25  14  18  1   
 26  15  19  1   
 27  17  20  1   
 28  18  21  1   
 29  18  29  1   
 30  18  30  1   
 31  19  31  1   
 32  19  32  1   
 33  19  33  1   
 34  20  22  1   
 35  20  34  1   
 36  20  35  1   
 37  21  36  1   
 38  21  37  1   
 39  21  38  1   
 40  22  39  1   
 41  22  40  1   
 42  22  41  1   
@<TRIPOS>SUBSTRUCTURE
  1 ****   6 GROUP 4 **** **** 0

# MOE 2024.06 (io_trps.svl 2023.06)
