@<TRIPOS>MOLECULE
4-Methyl-2-morpholin-4-yl-thiazole-5-carbaldehyde
26 27 1 0 0 
SMALL
USER_CHARGES


@<TRIPOS>ATOM
  1 S        0.0880     0.3630     0.0330 S.3   1 <1>  -0.0800 
  2 C       -1.1900    -0.8100    -0.2220 C.2   1 <1>   0.4620 
  3 C        1.2480    -0.9250     0.2710 C.2   1 <1>  -0.0450 
  4 N       -0.7750    -2.0270    -0.1350 N.2   1 <1>  -0.5650 
  5 N       -2.4700    -0.3950    -0.4860 N.pl3 1 <1>  -0.8220 
  6 C        0.5610    -2.0890     0.1360 C.2   1 <1>   0.0460 
  7 C        2.5970    -0.5570     0.5430 C.2   1 <1>   0.5950 
  8 C       -3.5600    -1.3790    -0.7590 C.3   1 <1>   0.2090 
  9 C       -2.9360     1.0240    -0.5230 C.3   1 <1>   0.2090 
 10 C        1.1400    -3.4860     0.2570 C.3   1 <1>  -0.0590 
 11 O        3.5110    -1.3240     0.7330 O.2   1 <1>  -0.5700 
 12 C       -4.8060    -1.0630     0.0860 C.3   1 <1>   0.1200 
 13 C       -4.2210     1.1970     0.3090 C.3   1 <1>   0.1200 
 14 O       -5.2020     0.2730    -0.0770 O.3   1 <1>  -0.5600 
 15 H        2.8170     0.4950     0.5810 H     1 <1>   0.0600 
 16 H       -3.2320    -2.3800    -0.5400 H     1 <1>   0.0800 
 17 H       -3.8200    -1.3380    -1.8020 H     1 <1>   0.0800 
 18 H       -3.1380     1.3020    -1.5420 H     1 <1>   0.0800 
 19 H       -2.1860     1.6900    -0.1400 H     1 <1>   0.0800 
 20 H        2.1920    -3.4630     0.4690 H     1 <1>   0.0800 
 21 H        0.9870    -4.0180    -0.6640 H     1 <1>   0.0800 
 22 H        0.6410    -4.0140     1.0480 H     1 <1>   0.0800 
 23 H       -4.6030    -1.2380     1.1280 H     1 <1>   0.0800 
 24 H       -5.6270    -1.6880    -0.2160 H     1 <1>   0.0800 
 25 H       -4.6250     2.1820     0.1650 H     1 <1>   0.0800 
 26 H       -4.0110     1.0580     1.3550 H     1 <1>   0.0800 
@<TRIPOS>BOND
  1   1   2  1   
  2   1   3  1   
  3   2   4  2   
  4   2   5  1   
  5   3   6  2   
  6   3   7  1   
  7   4   6  1   
  8   5   8  1   
  9   5   9  1   
 10   6  10  1   
 11   7  11  2   
 12   7  15  1   
 13   8  12  1   
 14   8  16  1   
 15   8  17  1   
 16   9  13  1   
 17   9  18  1   
 18   9  19  1   
 19  10  20  1   
 20  10  21  1   
 21  10  22  1   
 22  12  14  1   
 23  12  23  1   
 24  12  24  1   
 25  13  14  1   
 26  13  25  1   
 27  13  26  1   
@<TRIPOS>SUBSTRUCTURE
  1 ****   2 GROUP 4 **** **** 0

# MOE 2024.06 (io_trps.svl 2023.06)
