@<TRIPOS>MOLECULE
2-(Benzo[1,3]dioxol-5-yl-methanesulfonyl-amino)-N-(4-isopropyl-phenyl)-acetamide
49 51 1 0 0 
SMALL
USER_CHARGES


@<TRIPOS>ATOM
  1 S        0.3290    -0.0490     1.2390 S.o2  1 <1>   1.3330 
  2 O        1.4350    -0.1050     2.1700 O.2   1 <1>  -0.6500 
  3 O       -0.9480    -0.6150     1.5890 O.2   1 <1>  -0.6500 
  4 N        0.1030     1.6250     0.8530 N.am  1 <1>  -0.6930 
  5 C        0.8650    -0.7140    -0.3220 C.3   1 <1>  -0.1350 
  6 C       -0.9310     2.0640     0.0260 C.ar  1 <1>   0.1990 
  7 C        1.1550     2.5970     1.2910 C.3   1 <1>   0.2570 
  8 C       -2.2620     1.8780     0.3970 C.ar  1 <1>  -0.1500 
  9 C       -0.6430     2.7010    -1.1870 C.ar  1 <1>  -0.1500 
 10 C        2.4930     2.4420     0.5600 C.2   1 <1>   0.5690 
 11 C       -3.2520     2.3290    -0.4500 C.ar  1 <1>   0.0820 
 12 C       -1.6520     3.1500    -2.0280 C.ar  1 <1>  -0.1500 
 13 O        2.7120     3.1560    -0.3880 O.2   1 <1>  -0.5700 
 14 N        3.3650     1.4840     1.0030 N.am  1 <1>  -0.5470 
 15 O       -4.5780     2.2550    -0.2900 O.3   1 <1>  -0.3630 
 16 C       -2.9580     2.9470    -1.6290 C.ar  1 <1>   0.0820 
 17 C        4.6100     1.0510     0.5260 C.ar  1 <1>   0.1170 
 18 C       -5.1650     2.8580    -1.4410 C.3   1 <1>   0.4000 
 19 O       -4.0850     3.2890    -2.2690 O.3   1 <1>  -0.3630 
 20 C        5.0810    -0.1840     0.9520 C.ar  1 <1>  -0.1500 
 21 C        5.4010     1.7900    -0.3460 C.ar  1 <1>  -0.1500 
 22 C        6.2990    -0.6720     0.5140 C.ar  1 <1>  -0.1500 
 23 C        6.6190     1.3030    -0.7860 C.ar  1 <1>  -0.1500 
 24 C        7.0810     0.0650    -0.3620 C.ar  1 <1>  -0.1430 
 25 C        8.4260    -0.4580    -0.8620 C.3   1 <1>   0.0630 
 26 C        8.2460    -1.7580    -1.6510 C.3   1 <1>  -0.2400 
 27 C        9.4030    -0.6580     0.3020 C.3   1 <1>  -0.2400 
 28 H        1.0680    -1.7630    -0.2250 H     1 <1>   0.0800 
 29 H        1.7570    -0.2210    -0.6570 H     1 <1>   0.0800 
 30 H        0.1000    -0.5810    -1.0620 H     1 <1>   0.0800 
 31 H        1.3170     2.4870     2.3480 H     1 <1>   0.0800 
 32 H        0.7980     3.5980     1.1250 H     1 <1>   0.0800 
 33 H       -2.5200     1.3960     1.3220 H     1 <1>   0.1500 
 34 H        0.3810     2.8470    -1.4810 H     1 <1>   0.1500 
 35 H       -1.4380     3.6400    -2.9610 H     1 <1>   0.1500 
 36 H        2.9800     0.8870     1.7490 H     1 <1>   0.3700 
 37 H       -5.7520     3.7090    -1.1430 H     1 <1>   0.0800 
 38 H       -5.7550     2.1300    -1.9680 H     1 <1>   0.0800 
 39 H        4.4920    -0.7730     1.6320 H     1 <1>   0.1500 
 40 H        5.0750     2.7550    -0.6880 H     1 <1>   0.1500 
 41 H        6.6360    -1.6330     0.8610 H     1 <1>   0.1500 
 42 H        7.2060     1.8980    -1.4620 H     1 <1>   0.1500 
 43 H        8.8560     0.2720    -1.5270 H     1 <1>   0.0800 
 44 H        7.8660    -2.5410    -1.0210 H     1 <1>   0.0800 
 45 H        9.1860    -2.0760    -2.0650 H     1 <1>   0.0800 
 46 H        7.5530    -1.6010    -2.4590 H     1 <1>   0.0800 
 47 H        9.0490    -1.4190     0.9740 H     1 <1>   0.0800 
 48 H        9.5090     0.2610     0.8500 H     1 <1>   0.0800 
 49 H       10.3690    -0.9490    -0.0690 H     1 <1>   0.0800 
@<TRIPOS>BOND
  1   1   2  2   
  2   1   3  2   
  3   1   4  am  
  4   1   5  1   
  5   4   6  1   
  6   4   7  1   
  7   5  28  1   
  8   5  29  1   
  9   5  30  1   
 10   6   8  ar  
 11   6   9  ar  
 12   7  10  1   
 13   7  31  1   
 14   7  32  1   
 15   8  11  ar  
 16   8  33  1   
 17   9  12  ar  
 18   9  34  1   
 19  10  13  2   
 20  10  14  am  
 21  11  15  1   
 22  11  16  ar  
 23  12  16  ar  
 24  12  35  1   
 25  14  17  1   
 26  14  36  1   
 27  15  18  1   
 28  16  19  1   
 29  17  20  ar  
 30  17  21  ar  
 31  18  19  1   
 32  18  37  1   
 33  18  38  1   
 34  20  22  ar  
 35  20  39  1   
 36  21  23  ar  
 37  21  40  1   
 38  22  24  ar  
 39  22  41  1   
 40  23  24  ar  
 41  23  42  1   
 42  24  25  1   
 43  25  26  1   
 44  25  27  1   
 45  25  43  1   
 46  26  44  1   
 47  26  45  1   
 48  26  46  1   
 49  27  47  1   
 50  27  48  1   
 51  27  49  1   
@<TRIPOS>SUBSTRUCTURE
  1 ****  10 GROUP 4 **** **** 0

# MOE 2024.06 (io_trps.svl 2023.06)
