@<TRIPOS>MOLECULE
N-(2-Hydroxy-6-methyl-quinolin-3-ylmethyl)-N-(2-methoxy-ethyl)-isobutyramide
47 48 1 0 0 
SMALL
USER_CHARGES


@<TRIPOS>ATOM
  1 O        0.8450    -1.2600     2.1900 O.2   1 <1>  -0.5700 
  2 C        1.4750    -1.2020     1.1570 C.2   1 <1>   0.5690 
  3 N        2.0090    -0.0070     0.7310 N.am  1 <1>  -0.6600 
  4 C        1.6530    -2.5050     0.3520 C.3   1 <1>  -0.0190 
  5 C        1.7460     1.2400     1.5120 C.3   1 <1>   0.2780 
  6 C        2.8060     0.1900    -0.5270 C.3   1 <1>   0.1400 
  7 C        0.5910    -3.5710     0.6840 C.3   1 <1>  -0.2400 
  8 C        3.0520    -3.1100     0.5650 C.3   1 <1>  -0.2400 
  9 C        0.7200     2.0950     0.7910 C.2   1 <1>  -0.1240 
 10 C        4.2460     0.6060    -0.2220 C.3   1 <1>   0.1200 
 11 C        1.1890     3.2340     0.0640 C.2   1 <1>   0.6160 
 12 C       -0.6040     1.7960     0.8270 C.2   1 <1>  -0.1780 
 13 O        5.0060     0.4300    -1.3760 O.3   1 <1>  -0.5600 
 14 O        2.3620     3.5570    -0.0080 O.2   1 <1>  -0.5700 
 15 N        0.2700     3.9990    -0.5880 N.am  1 <1>  -0.5470 
 16 C       -1.5590     2.6110     0.1390 C.ar  1 <1>   0.0280 
 17 C        6.3190     0.8720    -1.2560 C.3   1 <1>   0.0400 
 18 C       -1.0940     3.7270    -0.5760 C.ar  1 <1>   0.1170 
 19 C       -2.9280     2.3410     0.1480 C.ar  1 <1>  -0.1500 
 20 C       -1.9990     4.5370    -1.2550 C.ar  1 <1>  -0.1500 
 21 C       -3.8200     3.1490    -0.5290 C.ar  1 <1>  -0.1430 
 22 C       -3.3480     4.2510    -1.2320 C.ar  1 <1>  -0.1500 
 23 C       -5.3090     2.8530    -0.5170 C.3   1 <1>  -0.0970 
 24 H        1.5270    -2.2760    -0.6890 H     1 <1>   0.0800 
 25 H        2.6620     1.7820     1.6650 H     1 <1>   0.0800 
 26 H        1.3660     1.0000     2.4900 H     1 <1>   0.0800 
 27 H        2.3420     0.9480    -1.1330 H     1 <1>   0.0800 
 28 H        2.8400    -0.7120    -1.1050 H     1 <1>   0.0800 
 29 H        0.6740    -3.8790     1.7120 H     1 <1>   0.0800 
 30 H        0.7090    -4.4340     0.0530 H     1 <1>   0.0800 
 31 H       -0.3950    -3.1670     0.5310 H     1 <1>   0.0800 
 32 H        3.1910    -3.3610     1.6020 H     1 <1>   0.0800 
 33 H        3.8170    -2.4110     0.2800 H     1 <1>   0.0800 
 34 H        3.1710    -4.0010    -0.0250 H     1 <1>   0.0800 
 35 H        4.6610    -0.0150     0.5530 H     1 <1>   0.0800 
 36 H        4.2850     1.6440     0.0630 H     1 <1>   0.0800 
 37 H       -0.9710     0.9390     1.3670 H     1 <1>   0.1500 
 38 H        0.6450     4.7960    -1.0970 H     1 <1>   0.3700 
 39 H        6.8210     0.6860    -2.1890 H     1 <1>   0.0800 
 40 H        6.8070     0.3280    -0.4660 H     1 <1>   0.0800 
 41 H        6.3210     1.9280    -1.0490 H     1 <1>   0.0800 
 42 H       -3.2800     1.4850     0.6950 H     1 <1>   0.1500 
 43 H       -1.6400     5.3900    -1.8010 H     1 <1>   0.1500 
 44 H       -4.0400     4.8840    -1.7610 H     1 <1>   0.1500 
 45 H       -5.5220     1.9750     0.0650 H     1 <1>   0.0800 
 46 H       -5.6570     2.6910    -1.5210 H     1 <1>   0.0800 
 47 H       -5.8430     3.6830    -0.0930 H     1 <1>   0.0800 
@<TRIPOS>BOND
  1   1   2  2   
  2   2   3  am  
  3   2   4  1   
  4   3   5  1   
  5   3   6  1   
  6   4   7  1   
  7   4   8  1   
  8   4  24  1   
  9   5   9  1   
 10   5  25  1   
 11   5  26  1   
 12   6  10  1   
 13   6  27  1   
 14   6  28  1   
 15   7  29  1   
 16   7  30  1   
 17   7  31  1   
 18   8  32  1   
 19   8  33  1   
 20   8  34  1   
 21   9  11  1   
 22   9  12  2   
 23  10  13  1   
 24  10  35  1   
 25  10  36  1   
 26  11  14  2   
 27  11  15  am  
 28  12  16  1   
 29  12  37  1   
 30  13  17  1   
 31  15  18  1   
 32  15  38  1   
 33  16  18  ar  
 34  16  19  ar  
 35  17  39  1   
 36  17  40  1   
 37  17  41  1   
 38  18  20  ar  
 39  19  21  ar  
 40  19  42  1   
 41  20  22  ar  
 42  20  43  1   
 43  21  22  ar  
 44  21  23  1   
 45  22  44  1   
 46  23  45  1   
 47  23  46  1   
 48  23  47  1   
@<TRIPOS>SUBSTRUCTURE
  1 ****   9 GROUP 4 **** **** 0

# MOE 2024.06 (io_trps.svl 2023.06)
