@<TRIPOS>MOLECULE
[1-(3-Chloro-4-methoxy-benzenesulfonyl)-piperidin-4-yl]-piperidin-1-yl-methanone
51 53 1 0 0 
SMALL
USER_CHARGES


@<TRIPOS>ATOM
  1 CL       2.2630    -0.1260     3.2000 Cl    1 <1>  -0.1770 
  2 C        2.3420    -0.0440     1.4530 C.ar  1 <1>   0.1770 
  3 C        1.5210    -0.8500     0.6730 C.ar  1 <1>   0.0830 
  4 C        3.2380     0.8390     0.8830 C.ar  1 <1>  -0.1500 
  5 O        0.6630    -1.6990     1.2970 O.3   1 <1>  -0.3630 
  6 C        1.6210    -0.7470    -0.7110 C.ar  1 <1>  -0.1500 
  7 C        3.3480     0.9440    -0.4990 C.ar  1 <1>  -0.0090 
  8 C       -0.2210    -2.5280     0.5770 C.3   1 <1>   0.0400 
  9 C        2.5220     0.1400    -1.2790 C.ar  1 <1>  -0.1500 
 10 S        4.5240     2.1010    -1.2530 S.o2  1 <1>   1.4470 
 11 O        4.8140     1.6940    -2.6120 O.2   1 <1>  -0.6500 
 12 O        4.0790     3.4530    -0.9970 O.2   1 <1>  -0.6500 
 13 N        5.9400     1.8460    -0.3540 N.am  1 <1>  -0.8490 
 14 C        6.8700     2.9720    -0.4820 C.3   1 <1>   0.1960 
 15 C        6.5850     0.5730    -0.6890 C.3   1 <1>   0.1960 
 16 C        8.0620     2.7830     0.4590 C.3   1 <1>  -0.1600 
 17 C        7.7610     0.3090     0.2530 C.3   1 <1>  -0.1600 
 18 C        8.7900     1.4510     0.1900 C.3   1 <1>  -0.0190 
 19 C        9.9610     1.2000     1.1510 C.2   1 <1>   0.5690 
 20 O        9.8950     1.6870     2.2570 O.2   1 <1>  -0.5700 
 21 N       11.0460     0.4430     0.7710 N.am  1 <1>  -0.6600 
 22 C       11.1930    -0.3140    -0.5040 C.3   1 <1>   0.1400 
 23 C       12.2430     0.3280     1.6550 C.3   1 <1>   0.1400 
 24 C       12.4000     0.2230    -1.2790 C.3   1 <1>  -0.1600 
 25 C       13.4750     0.8620     0.9160 C.3   1 <1>  -0.1600 
 26 C       13.6810     0.1580    -0.4340 C.3   1 <1>  -0.1600 
 27 H        3.8550     1.4500     1.5200 H     1 <1>   0.1500 
 28 H        1.0090    -1.3440    -1.3610 H     1 <1>   0.1500 
 29 H       -0.7990    -3.0930     1.2850 H     1 <1>   0.0800 
 30 H        0.3520    -3.1970    -0.0420 H     1 <1>   0.0800 
 31 H       -0.8730    -1.9130    -0.0180 H     1 <1>   0.0800 
 32 H        2.5870     0.2100    -2.3530 H     1 <1>   0.1500 
 33 H        6.3710     3.8900    -0.2170 H     1 <1>   0.0800 
 34 H        7.2070     3.0550    -1.5030 H     1 <1>   0.0800 
 35 H        6.9320     0.5930    -1.7100 H     1 <1>   0.0800 
 36 H        5.8740    -0.2310    -0.5920 H     1 <1>   0.0800 
 37 H        7.7030     2.8100     1.4730 H     1 <1>   0.0800 
 38 H        8.7500     3.6010     0.3350 H     1 <1>   0.0800 
 39 H        8.2270    -0.6220    -0.0130 H     1 <1>   0.0800 
 40 H        7.3900     0.2120     1.2590 H     1 <1>   0.0800 
 41 H        9.1820     1.5180    -0.8070 H     1 <1>   0.0800 
 42 H       10.3120    -0.2490    -1.1130 H     1 <1>   0.0800 
 43 H       11.3500    -1.3540    -0.2710 H     1 <1>   0.0800 
 44 H       12.3890    -0.7050     1.9170 H     1 <1>   0.0800 
 45 H       12.1050     0.8840     2.5670 H     1 <1>   0.0800 
 46 H       12.2060     1.2410    -1.5670 H     1 <1>   0.0800 
 47 H       12.5340    -0.3540    -2.1770 H     1 <1>   0.0800 
 48 H       14.3450     0.7240     1.5330 H     1 <1>   0.0800 
 49 H       13.3510     1.9190     0.7600 H     1 <1>   0.0800 
 50 H       14.4940     0.6210    -0.9660 H     1 <1>   0.0800 
 51 H       13.9410    -0.8720    -0.2600 H     1 <1>   0.0800 
@<TRIPOS>BOND
  1   1   2  1   
  2   2   3  ar  
  3   2   4  ar  
  4   3   5  1   
  5   3   6  ar  
  6   4   7  ar  
  7   4  27  1   
  8   5   8  1   
  9   6   9  ar  
 10   6  28  1   
 11   7   9  ar  
 12   7  10  1   
 13   8  29  1   
 14   8  30  1   
 15   8  31  1   
 16   9  32  1   
 17  10  11  2   
 18  10  12  2   
 19  10  13  am  
 20  13  14  1   
 21  13  15  1   
 22  14  16  1   
 23  14  33  1   
 24  14  34  1   
 25  15  17  1   
 26  15  35  1   
 27  15  36  1   
 28  16  18  1   
 29  16  37  1   
 30  16  38  1   
 31  17  18  1   
 32  17  39  1   
 33  17  40  1   
 34  18  19  1   
 35  18  41  1   
 36  19  20  2   
 37  19  21  am  
 38  21  22  1   
 39  21  23  1   
 40  22  24  1   
 41  22  42  1   
 42  22  43  1   
 43  23  25  1   
 44  23  44  1   
 45  23  45  1   
 46  24  26  1   
 47  24  46  1   
 48  24  47  1   
 49  25  26  1   
 50  25  48  1   
 51  25  49  1   
 52  26  50  1   
 53  26  51  1   
@<TRIPOS>SUBSTRUCTURE
  1 ****  15 GROUP 4 **** **** 0

# MOE 2024.06 (io_trps.svl 2023.06)
