@<TRIPOS>MOLECULE
1-Furan-2-ylmethyl-piperidine-2-carboxylic acid
30 31 1 0 0 
SMALL
USER_CHARGES


@<TRIPOS>ATOM
  1 O       -0.3710    -0.9160     0.6000 O.co2 1 <1>  -0.9000 
  2 C       -1.3160    -0.9130    -0.1890 C.2   1 <1>   0.9060 
  3 O       -1.4000    -1.6830    -1.1540 O.co2 1 <1>  -0.9000 
  4 C       -2.5430    -0.0250     0.1220 C.3   1 <1>   0.3170 
  5 N       -3.8780    -0.6950    -0.1640 N.4   1 <1>  -0.9590 
  6 C       -2.4790     1.3020    -0.6500 C.3   1 <1>  -0.1600 
  7 C       -5.0540     0.1410     0.1840 C.3   1 <1>   0.3430 
  8 C       -3.8940    -2.0730     0.4180 C.3   1 <1>   0.5230 
  9 C       -3.6790     2.2090    -0.3450 C.3   1 <1>  -0.1600 
 10 C       -4.9950     1.4600    -0.5890 C.3   1 <1>  -0.1600 
 11 C       -5.2650    -2.7120     0.2540 C.2   1 <1>  -0.0400 
 12 O       -5.8160    -2.7540    -0.9460 O.3   1 <1>  -0.2800 
 13 C       -6.0860    -3.2740     1.1690 C.2   1 <1>  -0.1500 
 14 C       -6.9880    -3.3440    -0.8270 C.2   1 <1>  -0.0100 
 15 C       -7.2180    -3.6900     0.4570 C.2   1 <1>  -0.1500 
 16 H       -2.4850     0.1950     1.1730 H     1 <1>   0.0800 
 17 H       -3.8650    -0.8710    -1.1790 H     1 <1>   0.4500 
 18 H       -2.4300     1.0900    -1.7050 H     1 <1>   0.0800 
 19 H       -1.5680     1.8100    -0.3850 H     1 <1>   0.0800 
 20 H       -5.0550     0.3410     1.2420 H     1 <1>   0.0800 
 21 H       -5.9650    -0.3780    -0.0680 H     1 <1>   0.0800 
 22 H       -3.6390    -2.0330     1.4640 H     1 <1>   0.0800 
 23 H       -3.1610    -2.6860    -0.0830 H     1 <1>   0.0800 
 24 H       -3.6360     3.0880    -0.9660 H     1 <1>   0.0800 
 25 H       -3.6310     2.5290     0.6830 H     1 <1>   0.0800 
 26 H       -5.8210     2.0800    -0.2880 H     1 <1>   0.0800 
 27 H       -5.1100     1.2560    -1.6400 H     1 <1>   0.0800 
 28 H       -5.9430    -3.4030     2.2280 H     1 <1>   0.1500 
 29 H       -7.5950    -3.4810    -1.7060 H     1 <1>   0.1500 
 30 H       -8.0770    -4.1860     0.8770 H     1 <1>   0.1500 
@<TRIPOS>BOND
  1   1   2  ar  
  2   2   3  ar  
  3   2   4  1   
  4   4   5  1   
  5   4   6  1   
  6   4  16  1   
  7   5   7  1   
  8   5   8  1   
  9   5  17  1   
 10   6   9  1   
 11   6  18  1   
 12   6  19  1   
 13   7  10  1   
 14   7  20  1   
 15   7  21  1   
 16   8  11  1   
 17   8  22  1   
 18   8  23  1   
 19   9  10  1   
 20   9  24  1   
 21   9  25  1   
 22  10  26  1   
 23  10  27  1   
 24  11  12  1   
 25  11  13  2   
 26  12  14  1   
 27  13  15  1   
 28  13  28  1   
 29  14  15  2   
 30  14  29  1   
 31  15  30  1   
@<TRIPOS>SUBSTRUCTURE
  1 ****   5 GROUP 4 **** **** 0

# MOE 2024.06 (io_trps.svl 2023.06)
