@<TRIPOS>MOLECULE
7-(2-Hydroxy-3-p-tolyloxy-propyl)-1,3-dimethyl-8-methylamino-3,7-dihydro-purine-
51 53 1 0 0 
SMALL
USER_CHARGES


@<TRIPOS>ATOM
  1 O        0.8780     2.2240    -1.4150 O.2   1 <1>  -0.5750 
  2 C        1.9920     2.2550    -0.9350 C.2   1 <1>   0.6860 
  3 N        2.3190     3.2300     0.0020 N.am  1 <1>  -0.4260 
  4 N        2.9360     1.3110    -1.3180 N.am  1 <1>  -0.4420 
  5 C        3.5650     3.2480     0.6140 C.2   1 <1>   0.6990 
  6 C        1.2870     4.2490     0.3720 C.3   1 <1>   0.0520 
  7 C        4.1700     1.3380    -0.6970 C.2   1 <1>   0.4210 
  8 C        2.6060     0.2730    -2.3400 C.3   1 <1>   0.0520 
  9 O        3.8410     4.1000     1.4440 O.2   1 <1>  -0.5750 
 10 C        4.5170     2.2440     0.2420 C.2   1 <1>   0.2710 
 11 N        5.2250     0.5040    -0.9060 N.pl3 1 <1>  -0.7040 
 12 N        5.8380     1.9320     0.6250 N.pl3 1 <1>  -0.7670 
 13 C        6.2210     0.8960    -0.1200 C.cat 1 <1>   1.0690 
 14 C        6.5840     2.6090     1.7360 C.3   1 <1>   0.3480 
 15 N        7.4270     0.3420    -0.1010 N.pl3 1 <1>  -0.7180 
 16 C        7.7350     3.4910     1.2220 C.3   1 <1>   0.1930 
 17 C        7.9450    -0.8450    -0.8300 C.3   1 <1>   0.0800 
 18 O        8.7130     2.6950     0.6260 O.3   1 <1>  -0.6840 
 19 C        8.3890     4.3130     2.3480 C.3   1 <1>   0.1130 
 20 O        9.6070     4.8750     1.8960 O.3   1 <1>  -0.3680 
 21 C        9.6360     5.7960     0.9000 C.ar  1 <1>   0.0750 
 22 C       10.8020     5.8820     0.1580 C.ar  1 <1>  -0.1570 
 23 C        8.5640     6.6280     0.5910 C.ar  1 <1>  -0.1570 
 24 C       10.8930     6.7690    -0.9000 C.ar  1 <1>  -0.1570 
 25 C        8.6600     7.5140    -0.4680 C.ar  1 <1>  -0.1570 
 26 C        9.8220     7.5870    -1.2200 C.ar  1 <1>  -0.1510 
 27 C        9.9250     8.5570    -2.3830 C.3   1 <1>  -0.1040 
 28 H        0.6110     3.8300     1.0970 H     1 <1>   0.0720 
 29 H        0.7240     4.5410    -0.4990 H     1 <1>   0.0720 
 30 H        1.7440     5.1310     0.7860 H     1 <1>   0.0720 
 31 H        1.7940     0.6030    -2.9660 H     1 <1>   0.0720 
 32 H        2.3110    -0.6380    -1.8490 H     1 <1>   0.0720 
 33 H        3.4550     0.0840    -2.9720 H     1 <1>   0.0720 
 34 H        5.2850    -0.2630    -1.5660 H     1 <1>   0.4450 
 35 H        6.9810     1.8660     2.4070 H     1 <1>   0.0720 
 36 H        5.9090     3.2190     2.3090 H     1 <1>   0.0720 
 37 H        8.1530     0.9450     0.3250 H     1 <1>   0.4450 
 38 H        7.3550     4.1660     0.4740 H     1 <1>   0.0720 
 39 H        7.1390    -1.4390    -1.2250 H     1 <1>   0.0720 
 40 H        8.5250    -1.4570    -0.1590 H     1 <1>   0.0720 
 41 H        8.5800    -0.5280    -1.6410 H     1 <1>   0.0720 
 42 H        9.5110     3.2680     0.5010 H     1 <1>   0.3940 
 43 H        8.6270     3.6770     3.1830 H     1 <1>   0.0720 
 44 H        7.7450     5.0990     2.7000 H     1 <1>   0.0720 
 45 H       11.6380     5.2540     0.4070 H     1 <1>   0.1430 
 46 H        7.6560     6.6110     1.1610 H     1 <1>   0.1430 
 47 H       11.8020     6.8230    -1.4720 H     1 <1>   0.1430 
 48 H        7.8270     8.1520    -0.7050 H     1 <1>   0.1430 
 49 H       10.9240     8.9500    -2.4530 H     1 <1>   0.0720 
 50 H        9.2460     9.3800    -2.2510 H     1 <1>   0.0720 
 51 H        9.6860     8.0520    -3.3010 H     1 <1>   0.0720 
@<TRIPOS>BOND
  1   1   2  2   
  2   2   3  am  
  3   2   4  am  
  4   3   5  am  
  5   3   6  1   
  6   4   7  1   
  7   4   8  1   
  8   5   9  2   
  9   5  10  1   
 10   6  28  1   
 11   6  29  1   
 12   6  30  1   
 13   7  10  2   
 14   7  11  1   
 15   8  31  1   
 16   8  32  1   
 17   8  33  1   
 18  10  12  1   
 19  11  13  ar  
 20  11  34  1   
 21  12  13  ar  
 22  12  14  1   
 23  13  15  ar  
 24  14  16  1   
 25  14  35  1   
 26  14  36  1   
 27  15  17  1   
 28  15  37  1   
 29  16  18  1   
 30  16  19  1   
 31  16  38  1   
 32  17  39  1   
 33  17  40  1   
 34  17  41  1   
 35  18  42  1   
 36  19  20  1   
 37  19  43  1   
 38  19  44  1   
 39  20  21  1   
 40  21  22  ar  
 41  21  23  ar  
 42  22  24  ar  
 43  22  45  1   
 44  23  25  ar  
 45  23  46  1   
 46  24  26  ar  
 47  24  47  1   
 48  25  26  ar  
 49  25  48  1   
 50  26  27  1   
 51  27  49  1   
 52  27  50  1   
 53  27  51  1   
@<TRIPOS>SUBSTRUCTURE
  1 ****  12 GROUP 4 **** **** 0

# MOE 2024.06 (io_trps.svl 2023.06)
