@<TRIPOS>MOLECULE
8-Cyclohexyl-1,6,7-trimethyl-3-(2-oxo-propyl)-1H,8H-imidazo[2,1-f]purine-2,4-dio
53 56 1 0 0 
SMALL
USER_CHARGES


@<TRIPOS>ATOM
  1 O        0.6870     0.0780    -0.1080 O.2   1 <1>  -0.5740 
  2 C        1.6610     0.7750    -0.3080 C.2   1 <1>   0.6870 
  3 N        1.4930     2.0940    -0.7020 N.am  1 <1>  -0.4250 
  4 N        2.9370     0.2550    -0.1340 N.am  1 <1>  -0.4410 
  5 C        2.5800     2.9090    -0.9770 C.2   1 <1>   0.7000 
  6 C        0.2120     2.7730    -0.3280 C.3   1 <1>   0.1950 
  7 C        4.0110     1.1070    -0.2980 C.2   1 <1>   0.4210 
  8 C        3.1250    -1.1580     0.3090 C.3   1 <1>   0.0530 
  9 O        2.4060     4.0270    -1.4330 O.2   1 <1>  -0.5740 
 10 C        3.8830     2.3920    -0.7110 C.2   1 <1>   0.2710 
 11 C        0.2920     3.3020     1.1040 C.2   1 <1>   0.4430 
 12 N        5.3300     0.8300    -0.0830 N.pl3 1 <1>  -0.7030 
 13 N        5.1840     2.9210    -0.7560 N.pl3 1 <1>  -0.6330 
 14 O        1.3100     3.2660     1.7350 O.2   1 <1>  -0.5740 
 15 C       -0.9760     3.8790     1.6930 C.3   1 <1>  -0.1860 
 16 C        6.0010     1.9540    -0.3620 C.cat 1 <1>   1.0690 
 17 C        5.9630     4.0310    -0.9950 C.2   1 <1>   0.2350 
 18 N        7.2760     2.3570    -0.3390 N.pl3 1 <1>  -0.5710 
 19 C        7.2490     3.6860    -0.7420 C.2   1 <1>   0.1580 
 20 C        5.3320     5.3310    -1.4530 C.3   1 <1>  -0.1090 
 21 C        8.4640     1.5600     0.0510 C.3   1 <1>   0.2410 
 22 C        8.5140     4.5230    -0.8430 C.3   1 <1>  -0.1090 
 23 C        8.6290     0.3550    -0.8880 C.3   1 <1>  -0.1670 
 24 C        8.3560     1.1320     1.5220 C.3   1 <1>  -0.1670 
 25 C        9.8260    -0.5070    -0.4680 C.3   1 <1>  -0.1670 
 26 C        9.5550     0.2650     1.9300 C.3   1 <1>  -0.1670 
 27 C        9.7090    -0.9430     0.9980 C.3   1 <1>  -0.1670 
 28 H       -0.6110     2.0860    -0.4110 H     1 <1>   0.0730 
 29 H        0.0210     3.5920    -0.9990 H     1 <1>   0.0730 
 30 H        2.2930    -1.7650    -0.0070 H     1 <1>   0.0730 
 31 H        3.1880    -1.1960     1.3820 H     1 <1>   0.0730 
 32 H        4.0200    -1.5720    -0.1200 H     1 <1>   0.0730 
 33 H        5.7540    -0.0260     0.2650 H     1 <1>   0.4450 
 34 H       -1.7430     3.1270     1.7240 H     1 <1>   0.0730 
 35 H       -1.3130     4.7110     1.1030 H     1 <1>   0.0730 
 36 H       -0.7870     4.2210     2.6950 H     1 <1>   0.0730 
 37 H        4.6210     5.6710    -0.7210 H     1 <1>   0.0730 
 38 H        4.8170     5.1820    -2.3850 H     1 <1>   0.0730 
 39 H        6.0730     6.0960    -1.5900 H     1 <1>   0.0730 
 40 H        9.3460     2.1690    -0.0460 H     1 <1>   0.0730 
 41 H        8.9970     4.5810     0.1160 H     1 <1>   0.0730 
 42 H        8.2900     5.5220    -1.1690 H     1 <1>   0.0730 
 43 H        9.1940     4.0820    -1.5500 H     1 <1>   0.0730 
 44 H        8.7870     0.7020    -1.8940 H     1 <1>   0.0730 
 45 H        7.7520    -0.2640    -0.8730 H     1 <1>   0.0730 
 46 H        7.4610     0.5630     1.6910 H     1 <1>   0.0730 
 47 H        8.3300     2.0050     2.1510 H     1 <1>   0.0730 
 48 H       10.7380     0.0530    -0.5980 H     1 <1>   0.0730 
 49 H        9.8880    -1.3780    -1.0980 H     1 <1>   0.0730 
 50 H        9.4290    -0.0770     2.9440 H     1 <1>   0.0730 
 51 H       10.4550     0.8550     1.8960 H     1 <1>   0.0730 
 52 H       10.5890    -1.4980     1.2760 H     1 <1>   0.0730 
 53 H        8.8630    -1.5990     1.1130 H     1 <1>   0.0730 
@<TRIPOS>BOND
  1   1   2  2   
  2   2   3  am  
  3   2   4  am  
  4   3   5  am  
  5   3   6  1   
  6   4   7  1   
  7   4   8  1   
  8   5   9  2   
  9   5  10  1   
 10   6  11  1   
 11   6  28  1   
 12   6  29  1   
 13   7  10  2   
 14   7  12  1   
 15   8  30  1   
 16   8  31  1   
 17   8  32  1   
 18  10  13  1   
 19  11  14  2   
 20  11  15  1   
 21  12  16  ar  
 22  12  33  1   
 23  13  16  ar  
 24  13  17  1   
 25  15  34  1   
 26  15  35  1   
 27  15  36  1   
 28  16  18  ar  
 29  17  19  2   
 30  17  20  1   
 31  18  19  1   
 32  18  21  1   
 33  19  22  1   
 34  20  37  1   
 35  20  38  1   
 36  20  39  1   
 37  21  23  1   
 38  21  24  1   
 39  21  40  1   
 40  22  41  1   
 41  22  42  1   
 42  22  43  1   
 43  23  25  1   
 44  23  44  1   
 45  23  45  1   
 46  24  26  1   
 47  24  46  1   
 48  24  47  1   
 49  25  27  1   
 50  25  48  1   
 51  25  49  1   
 52  26  27  1   
 53  26  50  1   
 54  26  51  1   
 55  27  52  1   
 56  27  53  1   
@<TRIPOS>SUBSTRUCTURE
  1 ****  10 GROUP 4 **** **** 0

# MOE 2024.06 (io_trps.svl 2023.06)
