@<TRIPOS>MOLECULE
2-(5-Benzyl-4-methyl-6-oxo-1,6-dihydro-pyrimidin-2-ylsulfanyl)-butyric acid
39 40 1 0 0 
SMALL
USER_CHARGES


@<TRIPOS>ATOM
  1 S       -0.5040    -0.1090    -0.9760 S.3   1 <1>  -0.3710 
  2 C       -1.9090     0.9770    -0.8120 C.2   1 <1>   0.6410 
  3 C       -0.7860    -1.5870     0.1420 C.3   1 <1>   0.0440 
  4 N       -2.6780     0.8560     0.2970 N.pl3 1 <1>  -0.5500 
  5 N       -2.1200     1.8140    -1.7590 N.2   1 <1>  -0.6610 
  6 C       -0.6950    -1.2130     1.6270 C.2   1 <1>   0.9060 
  7 C        0.1980    -2.6970    -0.2780 C.3   1 <1>  -0.1600 
  8 C       -3.7720     1.6410     0.5000 C.2   1 <1>  -0.0380 
  9 C       -3.2110     2.6200    -1.6190 C.2   1 <1>   0.7670 
 10 O       -1.7410    -0.8510     2.1860 O.co2 1 <1>  -0.9000 
 11 O        0.3740    -1.2850     2.2400 O.co2 1 <1>  -0.9000 
 12 C       -0.0730    -3.2480    -1.6860 C.3   1 <1>  -0.2400 
 13 C       -4.0680     2.5440    -0.4710 C.2   1 <1>  -0.1240 
 14 C       -4.4920     1.3900     1.8130 C.3   1 <1>  -0.1020 
 15 O       -3.4370     3.4080    -2.5280 O.2   1 <1>  -0.5700 
 16 C       -5.2690     3.4860    -0.3970 C.3   1 <1>   0.1220 
 17 C       -4.9630     4.7220     0.4420 C.ar  1 <1>  -0.1440 
 18 C       -5.6330     4.9550     1.6340 C.ar  1 <1>  -0.1500 
 19 C       -4.0080     5.6330     0.0150 C.ar  1 <1>  -0.1500 
 20 C       -5.3490     6.0790     2.3910 C.ar  1 <1>  -0.1500 
 21 C       -3.7220     6.7570     0.7710 C.ar  1 <1>  -0.1500 
 22 C       -4.3920     6.9810     1.9600 C.ar  1 <1>  -0.1500 
 23 H       -1.7910    -1.9120    -0.0450 H     1 <1>   0.0800 
 24 H       -2.3600     0.2130     1.0520 H     1 <1>   0.4000 
 25 H        0.1190    -3.5020     0.4320 H     1 <1>   0.0800 
 26 H        1.2020    -2.3140    -0.2150 H     1 <1>   0.0800 
 27 H       -1.0800    -3.6180    -1.7550 H     1 <1>   0.0800 
 28 H        0.6070    -4.0530    -1.8980 H     1 <1>   0.0800 
 29 H        0.0680    -2.4820    -2.4270 H     1 <1>   0.0800 
 30 H       -4.8560     0.3780     1.8390 H     1 <1>   0.0800 
 31 H       -5.3150     2.0590     1.9620 H     1 <1>   0.0800 
 32 H       -3.8000     1.5170     2.6280 H     1 <1>   0.0800 
 33 H       -6.1070     2.9600     0.0200 H     1 <1>   0.0800 
 34 H       -5.5730     3.7990    -1.3800 H     1 <1>   0.0800 
 35 H       -6.3810     4.2660     1.9840 H     1 <1>   0.1500 
 36 H       -3.4800     5.4720    -0.9100 H     1 <1>   0.1500 
 37 H       -5.8710     6.2510     3.3160 H     1 <1>   0.1500 
 38 H       -2.9780     7.4550     0.4310 H     1 <1>   0.1500 
 39 H       -4.1700     7.8540     2.5480 H     1 <1>   0.1500 
@<TRIPOS>BOND
  1   1   2  1   
  2   1   3  1   
  3   2   4  1   
  4   2   5  2   
  5   3   6  1   
  6   3   7  1   
  7   3  23  1   
  8   4   8  1   
  9   4  24  1   
 10   5   9  1   
 11   6  10  ar  
 12   6  11  ar  
 13   7  12  1   
 14   7  25  1   
 15   7  26  1   
 16   8  13  2   
 17   8  14  1   
 18   9  13  1   
 19   9  15  2   
 20  12  27  1   
 21  12  28  1   
 22  12  29  1   
 23  13  16  1   
 24  14  30  1   
 25  14  31  1   
 26  14  32  1   
 27  16  17  1   
 28  16  33  1   
 29  16  34  1   
 30  17  18  ar  
 31  17  19  ar  
 32  18  20  ar  
 33  18  35  1   
 34  19  21  ar  
 35  19  36  1   
 36  20  22  ar  
 37  20  37  1   
 38  21  22  ar  
 39  21  38  1   
 40  22  39  1   
@<TRIPOS>SUBSTRUCTURE
  1 ****   8 GROUP 4 **** **** 0

# MOE 2024.06 (io_trps.svl 2023.06)
