@<TRIPOS>MOLECULE
(3-Benzenesulfonyl-imidazolidin-1-yl)-morpholin-4-yl-methanone
41 43 1 0 0 
SMALL
USER_CHARGES


@<TRIPOS>ATOM
  1 S       -0.1450    -0.2080     1.4460 S.o2  1 <1>   1.4470 
  2 O        0.0450    -1.4980     2.0690 O.2   1 <1>  -0.6500 
  3 O       -0.3780     0.9510     2.2810 O.2   1 <1>  -0.6500 
  4 N        1.2610     0.1070     0.5740 N.am  1 <1>  -0.8490 
  5 C       -1.4080    -0.3240     0.1490 C.ar  1 <1>  -0.0090 
  6 C        2.4110    -0.0430     1.4350 C.3   1 <1>   0.4960 
  7 C        1.3510     1.4390    -0.0020 C.3   1 <1>   0.1960 
  8 C       -2.5220     0.5080     0.1470 C.ar  1 <1>  -0.1500 
  9 C       -1.2840    -1.2480    -0.8830 C.ar  1 <1>  -0.1500 
 10 N        3.4590     0.7620     0.7910 N.am  1 <1>  -0.6600 
 11 C        2.8400     1.6480    -0.2130 C.3   1 <1>   0.1400 
 12 C       -3.4780     0.4250    -0.8510 C.ar  1 <1>  -0.1500 
 13 C       -2.2340    -1.3370    -1.8850 C.ar  1 <1>  -0.1500 
 14 C        4.7220     0.2630     0.6610 C.2   1 <1>   0.6900 
 15 C       -3.3330    -0.4990    -1.8700 C.ar  1 <1>  -0.1500 
 16 O        4.9820    -0.8580     1.0600 O.2   1 <1>  -0.5700 
 17 N        5.7060     1.0130     0.0780 N.am  1 <1>  -0.6600 
 18 C        6.8840     0.3530    -0.5470 C.3   1 <1>   0.1400 
 19 C        5.9920     2.4090     0.5050 C.3   1 <1>   0.1400 
 20 C        7.4750     1.2490    -1.6490 C.3   1 <1>   0.1200 
 21 C        6.6120     3.2020    -0.6570 C.3   1 <1>   0.1200 
 22 O        7.7360     2.5370    -1.1620 O.3   1 <1>  -0.5600 
 23 H        2.6860    -1.0830     1.5150 H     1 <1>   0.0800 
 24 H        2.2150     0.3540     2.4190 H     1 <1>   0.0800 
 25 H        0.9900     2.1860     0.6840 H     1 <1>   0.0800 
 26 H        0.8020     1.5050    -0.9260 H     1 <1>   0.0800 
 27 H       -2.6450     1.2300     0.9370 H     1 <1>   0.1500 
 28 H       -0.4300    -1.9050    -0.8990 H     1 <1>   0.1500 
 29 H        3.1100     2.6760    -0.0570 H     1 <1>   0.0800 
 30 H        3.1290     1.3360    -1.2020 H     1 <1>   0.0800 
 31 H       -4.3340     1.0780    -0.8350 H     1 <1>   0.1500 
 32 H       -2.1180    -2.0600    -2.6750 H     1 <1>   0.1500 
 33 H       -4.0750    -0.5660    -2.6480 H     1 <1>   0.1500 
 34 H        6.5900    -0.5930    -0.9670 H     1 <1>   0.0800 
 35 H        7.6300     0.1680     0.2060 H     1 <1>   0.0800 
 36 H        6.6890     2.3890     1.3250 H     1 <1>   0.0800 
 37 H        5.0970     2.8940     0.8480 H     1 <1>   0.0800 
 38 H        6.7910     1.3260    -2.4770 H     1 <1>   0.0800 
 39 H        8.4020     0.8370    -2.0040 H     1 <1>   0.0800 
 40 H        6.9310     4.1720    -0.3180 H     1 <1>   0.0800 
 41 H        5.9000     3.3280    -1.4540 H     1 <1>   0.0800 
@<TRIPOS>BOND
  1   1   2  2   
  2   1   3  2   
  3   1   4  am  
  4   1   5  1   
  5   4   6  1   
  6   4   7  1   
  7   5   8  ar  
  8   5   9  ar  
  9   6  10  1   
 10   6  23  1   
 11   6  24  1   
 12   7  11  1   
 13   7  25  1   
 14   7  26  1   
 15   8  12  ar  
 16   8  27  1   
 17   9  13  ar  
 18   9  28  1   
 19  10  11  1   
 20  10  14  am  
 21  11  29  1   
 22  11  30  1   
 23  12  15  ar  
 24  12  31  1   
 25  13  15  ar  
 26  13  32  1   
 27  14  16  2   
 28  14  17  am  
 29  15  33  1   
 30  17  18  1   
 31  17  19  1   
 32  18  20  1   
 33  18  34  1   
 34  18  35  1   
 35  19  21  1   
 36  19  36  1   
 37  19  37  1   
 38  20  22  1   
 39  20  38  1   
 40  20  39  1   
 41  21  22  1   
 42  21  40  1   
 43  21  41  1   
@<TRIPOS>SUBSTRUCTURE
  1 ****   4 GROUP 4 **** **** 0

# MOE 2024.06 (io_trps.svl 2023.06)
