@<TRIPOS>MOLECULE
3,4,5-Trimethoxy-benzoic acid 4-benzoylamino-tetrahydro-thiophen-3-yl ester
52 54 1 0 0 
SMALL
USER_CHARGES


@<TRIPOS>ATOM
  1 S       -0.3180     0.4890    -0.8570 S.3   1 <1>  -0.4600 
  2 C        1.2780     1.2690    -0.4970 C.3   1 <1>   0.0700 
  3 C       -1.3530     1.9630    -0.6910 C.3   1 <1>   0.0700 
  4 C        0.9320     2.7100    -0.1020 C.3   1 <1>   0.2000 
  5 C       -0.3550     3.1130    -0.8440 C.3   1 <1>   0.2200 
  6 O        1.9800     3.5970    -0.4620 O.3   1 <1>  -0.4300 
  7 N       -0.9000     4.4330    -0.4090 N.am  1 <1>  -0.7300 
  8 C        3.1230     3.6640     0.2250 C.2   1 <1>   0.6340 
  9 C       -1.3200     4.7670     0.8500 C.2   1 <1>   0.5440 
 10 O        3.3000     2.8890     1.1420 O.2   1 <1>  -0.5700 
 11 C        4.0930     4.6690    -0.1640 C.ar  1 <1>   0.0860 
 12 O       -1.3480     3.9030     1.7030 O.2   1 <1>  -0.5700 
 13 C       -1.6990     6.1340     1.1630 C.ar  1 <1>   0.0860 
 14 C        3.9010     5.4900    -1.2750 C.ar  1 <1>  -0.1500 
 15 C        5.2680     4.8510     0.5670 C.ar  1 <1>  -0.1500 
 16 C       -1.5350     6.6440     2.4510 C.ar  1 <1>  -0.1500 
 17 C       -2.2370     6.9910     0.2000 C.ar  1 <1>  -0.1500 
 18 C        4.8210     6.4510    -1.6500 C.ar  1 <1>   0.0830 
 19 C        6.2070     5.8150     0.2210 C.ar  1 <1>   0.0830 
 20 C       -1.8770     7.9470     2.7640 C.ar  1 <1>  -0.1500 
 21 C       -2.5800     8.2960     0.5050 C.ar  1 <1>  -0.1500 
 22 O        4.5000     7.1640    -2.7650 O.3   1 <1>  -0.3630 
 23 C        5.9790     6.6360    -0.8860 C.ar  1 <1>   0.0830 
 24 O        7.3600     5.9930     0.9320 O.3   1 <1>  -0.3630 
 25 C       -2.3990     8.7770     1.7890 C.ar  1 <1>  -0.1500 
 26 C        5.5050     7.5100    -3.6950 C.3   1 <1>   0.0400 
 27 O        6.8780     7.6010    -1.2060 O.3   1 <1>  -0.3630 
 28 C        7.7520     5.1010     1.9520 C.3   1 <1>   0.0400 
 29 C        6.8480     8.7660    -0.4130 C.3   1 <1>   0.0400 
 30 H        1.8620     1.2240    -1.3990 H     1 <1>   0.0800 
 31 H        1.7460     0.7270     0.3050 H     1 <1>   0.0800 
 32 H       -1.7970     1.9250     0.2870 H     1 <1>   0.0800 
 33 H       -2.0990     1.9470    -1.4640 H     1 <1>   0.0800 
 34 H        0.7740     2.7640     0.9610 H     1 <1>   0.0800 
 35 H       -0.1170     3.1800    -1.8910 H     1 <1>   0.0800 
 36 H       -0.6820     5.2010    -1.0450 H     1 <1>   0.3700 
 37 H        3.0140     5.3830    -1.8740 H     1 <1>   0.1500 
 38 H        5.4220     4.2180     1.4210 H     1 <1>   0.1500 
 39 H       -1.1320     6.0020     3.2160 H     1 <1>   0.1500 
 40 H       -2.3990     6.6330    -0.8010 H     1 <1>   0.1500 
 41 H       -1.7390     8.3140     3.7670 H     1 <1>   0.1500 
 42 H       -2.9910     8.9400    -0.2540 H     1 <1>   0.1500 
 43 H       -2.6660     9.7920     2.0300 H     1 <1>   0.1500 
 44 H        5.0380     7.6790    -4.6480 H     1 <1>   0.0800 
 45 H        6.2140     6.7030    -3.7690 H     1 <1>   0.0800 
 46 H        5.9900     8.4110    -3.3650 H     1 <1>   0.0800 
 47 H        8.7210     5.4060     2.3060 H     1 <1>   0.0800 
 48 H        7.8100     4.1070     1.5450 H     1 <1>   0.0800 
 49 H        7.0390     5.1510     2.7550 H     1 <1>   0.0800 
 50 H        7.5730     9.4570    -0.8040 H     1 <1>   0.0800 
 51 H        7.0950     8.5100     0.6020 H     1 <1>   0.0800 
 52 H        5.8630     9.1940    -0.4640 H     1 <1>   0.0800 
@<TRIPOS>BOND
  1   1   2  1   
  2   1   3  1   
  3   2   4  1   
  4   2  30  1   
  5   2  31  1   
  6   3   5  1   
  7   3  32  1   
  8   3  33  1   
  9   4   5  1   
 10   4   6  1   
 11   4  34  1   
 12   5   7  1   
 13   5  35  1   
 14   6   8  1   
 15   7   9  am  
 16   7  36  1   
 17   8  10  2   
 18   8  11  1   
 19   9  12  2   
 20   9  13  1   
 21  11  14  ar  
 22  11  15  ar  
 23  13  16  ar  
 24  13  17  ar  
 25  14  18  ar  
 26  14  37  1   
 27  15  19  ar  
 28  15  38  1   
 29  16  20  ar  
 30  16  39  1   
 31  17  21  ar  
 32  17  40  1   
 33  18  22  1   
 34  18  23  ar  
 35  19  23  ar  
 36  19  24  1   
 37  20  25  ar  
 38  20  41  1   
 39  21  25  ar  
 40  21  42  1   
 41  22  26  1   
 42  23  27  1   
 43  24  28  1   
 44  25  43  1   
 45  26  44  1   
 46  26  45  1   
 47  26  46  1   
 48  27  29  1   
 49  28  47  1   
 50  28  48  1   
 51  28  49  1   
 52  29  50  1   
 53  29  51  1   
 54  29  52  1   
@<TRIPOS>SUBSTRUCTURE
  1 ****   6 GROUP 4 **** **** 0

# MOE 2024.06 (io_trps.svl 2023.06)
