@<TRIPOS>MOLECULE
6-(2,3-Dihydro-benzo[1,4]dioxin-6-yl)-3-isopropyl-[1,2,4]triazolo[3,4-b][1,3,4]t
35 38 1 0 0 
SMALL
USER_CHARGES


@<TRIPOS>ATOM
  1 S       -0.4360    -0.0830    -0.7890 S.3   1 <1>  -0.1970 
  2 C        0.4660     1.4010    -0.6110 C.2   1 <1>   0.2420 
  3 C       -1.9340     0.8010    -0.3640 C.2   1 <1>   0.5050 
  4 N        1.6930     1.7620    -0.7270 N.2   1 <1>  -0.3380 
  5 N       -0.3730     2.3600    -0.2720 N.pl3 1 <1>   0.5050 
  6 N       -1.7250     2.0490    -0.1270 N.2   1 <1>  -0.6520 
  7 C       -3.1880     0.0740    -0.3260 C.ar  1 <1>   0.0860 
  8 N        1.6800     3.0790    -0.4420 N.2   1 <1>  -0.3380 
  9 C        0.4510     3.4160    -0.1750 C.2   1 <1>   0.0060 
 10 C       -4.3690     0.7480    -0.0010 C.ar  1 <1>  -0.1500 
 11 C       -3.2930    -1.2960    -0.6030 C.ar  1 <1>  -0.1500 
 12 C       -0.0580     4.8050     0.1970 C.3   1 <1>   0.1000 
 13 C       -5.5860     0.0980     0.0470 C.ar  1 <1>   0.0830 
 14 C       -4.5080    -1.9580    -0.5520 C.ar  1 <1>  -0.1500 
 15 C       -0.6190     5.5080    -1.0440 C.3   1 <1>  -0.2400 
 16 C        1.0420     5.6620     0.8370 C.3   1 <1>  -0.2400 
 17 O       -6.7000     0.8110     0.3520 O.3   1 <1>  -0.3630 
 18 C       -5.6590    -1.2680    -0.2210 C.ar  1 <1>   0.0830 
 19 C       -7.9480     0.2030     0.0730 C.3   1 <1>   0.1200 
 20 O       -6.8340    -1.9370    -0.1580 O.3   1 <1>  -0.3630 
 21 C       -7.9190    -1.2800     0.4710 C.3   1 <1>   0.1200 
 22 H       -4.3430     1.8020     0.2170 H     1 <1>   0.1500 
 23 H       -2.4230    -1.8710    -0.8630 H     1 <1>   0.1500 
 24 H       -0.8520     4.6930     0.9160 H     1 <1>   0.0800 
 25 H       -4.5710    -3.0110    -0.7640 H     1 <1>   0.1500 
 26 H        0.1500     5.6180    -1.7880 H     1 <1>   0.0800 
 27 H       -0.9940     6.4830    -0.7860 H     1 <1>   0.0800 
 28 H       -1.4250     4.9330    -1.4640 H     1 <1>   0.0800 
 29 H        1.8470     5.8220     0.1400 H     1 <1>   0.0800 
 30 H        1.4380     5.1650     1.7040 H     1 <1>   0.0800 
 31 H        0.6500     6.6170     1.1370 H     1 <1>   0.0800 
 32 H       -8.1420     0.3030    -0.9800 H     1 <1>   0.0800 
 33 H       -8.7050     0.7320     0.6230 H     1 <1>   0.0800 
 34 H       -8.8250    -1.7740     0.1710 H     1 <1>   0.0800 
 35 H       -7.7980    -1.3790     1.5350 H     1 <1>   0.0800 
@<TRIPOS>BOND
  1   1   2  1   
  2   1   3  1   
  3   2   4  2   
  4   2   5  1   
  5   3   6  2   
  6   3   7  1   
  7   4   8  1   
  8   5   6  1   
  9   5   9  1   
 10   7  10  ar  
 11   7  11  ar  
 12   8   9  2   
 13   9  12  1   
 14  10  13  ar  
 15  10  22  1   
 16  11  14  ar  
 17  11  23  1   
 18  12  15  1   
 19  12  16  1   
 20  12  24  1   
 21  13  17  1   
 22  13  18  ar  
 23  14  18  ar  
 24  14  25  1   
 25  15  26  1   
 26  15  27  1   
 27  15  28  1   
 28  16  29  1   
 29  16  30  1   
 30  16  31  1   
 31  17  19  1   
 32  18  20  1   
 33  19  21  1   
 34  19  32  1   
 35  19  33  1   
 36  20  21  1   
 37  21  34  1   
 38  21  35  1   
@<TRIPOS>SUBSTRUCTURE
  1 ****   3 GROUP 4 **** **** 0

# MOE 2024.06 (io_trps.svl 2023.06)
