@<TRIPOS>MOLECULE
3-[3-(4-tert-Butyl-phenyl)-[1,2,4]oxadiazol-5-yl]-N-isopropyl-propionamide
48 49 1 0 0 
SMALL
USER_CHARGES


@<TRIPOS>ATOM
  1 O        0.4500    -0.8930    -1.4260 O.2   1 <1>  -0.5700 
  2 C        0.7890    -1.8870    -0.8370 C.2   1 <1>   0.5690 
  3 N        1.9520    -1.8880    -0.1490 N.am  1 <1>  -0.7300 
  4 C       -0.0870    -3.1260    -0.8770 C.3   1 <1>  -0.0990 
  5 C        2.5910    -2.9680     0.6110 C.3   1 <1>   0.2200 
  6 C       -1.4460    -2.8830    -1.5540 C.3   1 <1>   0.0200 
  7 C        2.5500    -2.5990     2.0890 C.3   1 <1>  -0.2400 
  8 C        4.0250    -3.1120     0.1140 C.3   1 <1>  -0.2400 
  9 C       -2.2840    -4.1450    -1.5540 C.2   1 <1>   0.2980 
 10 O       -1.9340    -5.1320    -2.3370 O.3   1 <1>  -0.0190 
 11 N       -3.3140    -4.3500    -0.8450 N.2   1 <1>  -0.5650 
 12 N       -2.8200    -6.0470    -2.1040 N.2   1 <1>  -0.4100 
 13 C       -3.6410    -5.5900    -1.2250 C.2   1 <1>   0.4620 
 14 C       -4.7880    -6.3010    -0.6840 C.ar  1 <1>   0.0540 
 15 C       -5.0960    -7.5980    -1.0880 C.ar  1 <1>  -0.1500 
 16 C       -5.6350    -5.7240     0.2610 C.ar  1 <1>  -0.1500 
 17 C       -6.1850    -8.2790    -0.5770 C.ar  1 <1>  -0.1500 
 18 C       -6.7260    -6.4030     0.7740 C.ar  1 <1>  -0.1500 
 19 C       -7.0260    -7.6990     0.3660 C.ar  1 <1>  -0.1430 
 20 C       -8.2300    -8.4990     0.9090 C.3   1 <1>   0.1430 
 21 C       -7.7300    -9.7820     1.5900 C.3   1 <1>  -0.2400 
 22 C       -9.0590    -7.7180     1.9430 C.3   1 <1>  -0.2400 
 23 C       -9.1660    -8.8690    -0.2520 C.3   1 <1>  -0.2400 
 24 H        2.4680    -1.0070    -0.1670 H     1 <1>   0.3700 
 25 H       -0.2590    -3.4580     0.1300 H     1 <1>   0.0800 
 26 H        0.4420    -3.8970    -1.4060 H     1 <1>   0.0800 
 27 H        2.0680    -3.8980     0.4570 H     1 <1>   0.0800 
 28 H       -1.3020    -2.5570    -2.5690 H     1 <1>   0.0800 
 29 H       -1.9770    -2.1090    -1.0280 H     1 <1>   0.0800 
 30 H        3.0740    -1.6770     2.2660 H     1 <1>   0.0800 
 31 H        3.0130    -3.3730     2.6730 H     1 <1>   0.0800 
 32 H        1.5300    -2.4940     2.4150 H     1 <1>   0.0800 
 33 H        4.5750    -2.2000     0.2660 H     1 <1>   0.0800 
 34 H        4.0300    -3.3590    -0.9320 H     1 <1>   0.0800 
 35 H        4.5200    -3.9020     0.6490 H     1 <1>   0.0800 
 36 H       -4.4710    -8.0850    -1.8170 H     1 <1>   0.1500 
 37 H       -5.4380    -4.7230     0.6020 H     1 <1>   0.1500 
 38 H       -6.3710    -9.2780    -0.9270 H     1 <1>   0.1500 
 39 H       -7.3300    -5.8910     1.4990 H     1 <1>   0.1500 
 40 H       -7.0460    -9.5340     2.3820 H     1 <1>   0.0800 
 41 H       -7.2190   -10.4180     0.8910 H     1 <1>   0.0800 
 42 H       -8.5510   -10.3360     2.0070 H     1 <1>   0.0800 
 43 H       -8.4540    -7.4570     2.7920 H     1 <1>   0.0800 
 44 H       -9.8850    -8.3120     2.2920 H     1 <1>   0.0800 
 45 H       -9.4570    -6.8200     1.5060 H     1 <1>   0.0800 
 46 H       -8.6680    -9.4970    -0.9670 H     1 <1>   0.0800 
 47 H       -9.4930    -7.9770    -0.7570 H     1 <1>   0.0800 
 48 H      -10.0310    -9.3950     0.1100 H     1 <1>   0.0800 
@<TRIPOS>BOND
  1   1   2  2   
  2   2   3  am  
  3   2   4  1   
  4   3   5  1   
  5   3  24  1   
  6   4   6  1   
  7   4  25  1   
  8   4  26  1   
  9   5   7  1   
 10   5   8  1   
 11   5  27  1   
 12   6   9  1   
 13   6  28  1   
 14   6  29  1   
 15   7  30  1   
 16   7  31  1   
 17   7  32  1   
 18   8  33  1   
 19   8  34  1   
 20   8  35  1   
 21   9  10  1   
 22   9  11  2   
 23  10  12  1   
 24  11  13  1   
 25  12  13  2   
 26  13  14  1   
 27  14  15  ar  
 28  14  16  ar  
 29  15  17  ar  
 30  15  36  1   
 31  16  18  ar  
 32  16  37  1   
 33  17  19  ar  
 34  17  38  1   
 35  18  19  ar  
 36  18  39  1   
 37  19  20  1   
 38  20  21  1   
 39  20  22  1   
 40  20  23  1   
 41  21  40  1   
 42  21  41  1   
 43  21  42  1   
 44  22  43  1   
 45  22  44  1   
 46  22  45  1   
 47  23  46  1   
 48  23  47  1   
 49  23  48  1   
@<TRIPOS>SUBSTRUCTURE
  1 ****  13 GROUP 4 **** **** 0

# MOE 2024.06 (io_trps.svl 2023.06)
