@<TRIPOS>MOLECULE
N-(1-Methyl-2-morpholin-4-ylmethyl-1H-benzoimidazol-5-yl)-2-phenoxy-acetamide
52 55 1 0 0 
SMALL
USER_CHARGES


@<TRIPOS>ATOM
  1 O        1.2960     3.4790     1.9890 O.2   1 <1>  -0.5700 
  2 C        0.5760     2.8730     1.2330 C.2   1 <1>   0.5690 
  3 N        0.9220     1.7030     0.6140 N.am  1 <1>  -0.5470 
  4 C       -0.8080     3.4460     0.9610 C.3   1 <1>   0.1810 
  5 C        2.0960     0.9260     0.6390 C.ar  1 <1>   0.1170 
  6 O       -1.5590     2.6020     0.0960 O.3   1 <1>  -0.3630 
  7 C        3.3000     1.3740     1.1510 C.ar  1 <1>  -0.1500 
  8 C        2.0260    -0.3700     0.0990 C.ar  1 <1>  -0.1500 
  9 C       -2.8200     2.9300    -0.2800 C.ar  1 <1>   0.0830 
 10 C        4.4170     0.5440     1.1260 C.ar  1 <1>   0.2270 
 11 C        3.1230    -1.2000     0.0700 C.ar  1 <1>  -0.1500 
 12 C       -3.4650     2.0500    -1.1350 C.ar  1 <1>  -0.1500 
 13 C       -3.4800     4.0820     0.1430 C.ar  1 <1>  -0.1500 
 14 N        5.6830     0.7890     1.5620 N.2   1 <1>  -0.5650 
 15 C        4.3280    -0.7280     0.5940 C.ar  1 <1>  -0.1520 
 16 C       -4.7540     2.3100    -1.5680 C.ar  1 <1>  -0.1500 
 17 C       -4.7690     4.3390    -0.2920 C.ar  1 <1>  -0.1500 
 18 C        6.3300    -0.2970     1.3030 C.2   1 <1>   0.0060 
 19 N        5.5710    -1.2670     0.7200 N.pl3 1 <1>   0.0480 
 20 C       -5.4060     3.4550    -1.1460 C.ar  1 <1>  -0.1500 
 21 C        7.8110    -0.4800     1.6140 C.3   1 <1>   0.2900 
 22 C        5.9920    -2.6000     0.2480 C.3   1 <1>   0.0160 
 23 N        8.5890    -0.8660     0.4170 N.3   1 <1>  -0.8100 
 24 C        8.5400     0.2060    -0.6030 C.3   1 <1>   0.1100 
 25 C        9.9950    -1.1340     0.7700 C.3   1 <1>   0.1100 
 26 C        9.4210    -0.1400    -1.8160 C.3   1 <1>   0.1200 
 27 C       10.8280    -1.4530    -0.4850 C.3   1 <1>   0.1200 
 28 O       10.7340    -0.4100    -1.4120 O.3   1 <1>  -0.5600 
 29 H        0.1660     1.3240     0.0410 H     1 <1>   0.3700 
 30 H       -0.7050     4.4080     0.4930 H     1 <1>   0.0800 
 31 H       -1.3390     3.5420     1.8900 H     1 <1>   0.0800 
 32 H        3.4150     2.3540     1.5710 H     1 <1>   0.1500 
 33 H        1.0890    -0.7170    -0.2970 H     1 <1>   0.1500 
 34 H        3.0620    -2.1910    -0.3440 H     1 <1>   0.1500 
 35 H       -2.9560     1.1620    -1.4610 H     1 <1>   0.1500 
 36 H       -3.0170     4.7880     0.8050 H     1 <1>   0.1500 
 37 H       -5.2480     1.6220    -2.2320 H     1 <1>   0.1500 
 38 H       -5.2810     5.2290     0.0340 H     1 <1>   0.1500 
 39 H       -6.4090     3.6580    -1.4820 H     1 <1>   0.1500 
 40 H        7.9090    -1.2430     2.3660 H     1 <1>   0.0800 
 41 H        8.1980     0.4390     2.0210 H     1 <1>   0.0800 
 42 H        6.7820    -2.9720     0.8730 H     1 <1>   0.0800 
 43 H        5.1600    -3.2770     0.2850 H     1 <1>   0.0800 
 44 H        6.3500    -2.5160    -0.7620 H     1 <1>   0.0800 
 45 H        8.8780     1.1370    -0.1800 H     1 <1>   0.0800 
 46 H        7.5260     0.3440    -0.9390 H     1 <1>   0.0800 
 47 H       10.0430    -1.9710     1.4450 H     1 <1>   0.0800 
 48 H       10.4250    -0.2780     1.2620 H     1 <1>   0.0800 
 49 H        9.4510     0.6870    -2.5020 H     1 <1>   0.0800 
 50 H        9.0340    -1.0040    -2.3280 H     1 <1>   0.0800 
 51 H       10.4800    -2.3590    -0.9490 H     1 <1>   0.0800 
 52 H       11.8650    -1.5690    -0.2270 H     1 <1>   0.0800 
@<TRIPOS>BOND
  1   1   2  2   
  2   2   3  am  
  3   2   4  1   
  4   3   5  1   
  5   3  29  1   
  6   4   6  1   
  7   4  30  1   
  8   4  31  1   
  9   5   7  ar  
 10   5   8  ar  
 11   6   9  1   
 12   7  10  ar  
 13   7  32  1   
 14   8  11  ar  
 15   8  33  1   
 16   9  12  ar  
 17   9  13  ar  
 18  10  14  1   
 19  10  15  ar  
 20  11  15  ar  
 21  11  34  1   
 22  12  16  ar  
 23  12  35  1   
 24  13  17  ar  
 25  13  36  1   
 26  14  18  2   
 27  15  19  1   
 28  16  20  ar  
 29  16  37  1   
 30  17  20  ar  
 31  17  38  1   
 32  18  19  1   
 33  18  21  1   
 34  19  22  1   
 35  20  39  1   
 36  21  23  1   
 37  21  40  1   
 38  21  41  1   
 39  22  42  1   
 40  22  43  1   
 41  22  44  1   
 42  23  24  1   
 43  23  25  1   
 44  24  26  1   
 45  24  45  1   
 46  24  46  1   
 47  25  27  1   
 48  25  47  1   
 49  25  48  1   
 50  26  28  1   
 51  26  49  1   
 52  26  50  1   
 53  27  28  1   
 54  27  51  1   
 55  27  52  1   
@<TRIPOS>SUBSTRUCTURE
  1 ****   5 GROUP 4 **** **** 0

# MOE 2024.06 (io_trps.svl 2023.06)
