@<TRIPOS>MOLECULE
3-Benzo[1,3]dioxol-5-yl-1-(5-hydroxy-3-methyl-5-phenyl-4,5-dihydro-pyrazol-1-yl)
46 49 1 0 0 
SMALL
USER_CHARGES


@<TRIPOS>ATOM
  1 O       -0.6300     0.7100    -0.9530 O.2   1 <1>  -0.5700 
  2 C       -1.5560     1.2170    -0.3600 C.2   1 <1>   0.5690 
  3 N       -1.6670     2.5800    -0.1930 N.am  1 <1>  -0.2980 
  4 C       -2.6420     0.3060     0.1790 C.3   1 <1>  -0.0990 
  5 N       -2.7590     3.2790     0.2930 N.2   1 <1>  -0.5120 
  6 C       -0.5940     3.5050    -0.6260 C.3   1 <1>   0.7240 
  7 C       -3.7960     0.1680    -0.8200 C.3   1 <1>  -0.0170 
  8 C       -2.5490     4.5130     0.1730 C.2   1 <1>   0.3280 
  9 O       -0.3920     3.2810    -1.9680 O.3   1 <1>  -0.6800 
 10 C        0.7160     3.3470     0.1670 C.ar  1 <1>  -0.1440 
 11 C       -1.2180     4.8840    -0.4280 C.3   1 <1>  -0.0990 
 12 C       -4.8520    -0.7890    -0.2910 C.ar  1 <1>  -0.1440 
 13 C       -3.5050     5.6110     0.5780 C.3   1 <1>  -0.1790 
 14 C        1.9540     3.5580    -0.4320 C.ar  1 <1>  -0.1500 
 15 C        0.6860     3.0110     1.5180 C.ar  1 <1>  -0.1500 
 16 C       -4.7820    -2.1420    -0.6070 C.ar  1 <1>  -0.1500 
 17 C       -5.8880    -0.3130     0.5120 C.ar  1 <1>  -0.1500 
 18 C        3.1260     3.4280     0.2930 C.ar  1 <1>  -0.1500 
 19 C        1.8560     2.8820     2.2440 C.ar  1 <1>  -0.1500 
 20 C       -5.7600    -2.9810    -0.1090 C.ar  1 <1>   0.0820 
 21 C       -6.8630    -1.1720     1.0050 C.ar  1 <1>  -0.1500 
 22 C        3.0780     3.0900     1.6320 C.ar  1 <1>  -0.1500 
 23 O       -5.8900    -4.3010    -0.2840 O.3   1 <1>  -0.3630 
 24 C       -6.7720    -2.5090     0.6750 C.ar  1 <1>   0.0820 
 25 C       -7.0590    -4.6940     0.4320 C.3   1 <1>   0.4000 
 26 O       -7.5860    -3.5110     1.0290 O.3   1 <1>  -0.3620 
 27 H       -3.0090     0.6940     1.1110 H     1 <1>   0.0800 
 28 H       -2.2170    -0.6630     0.3700 H     1 <1>   0.0800 
 29 H       -3.4170    -0.1940    -1.7600 H     1 <1>   0.0800 
 30 H       -4.2380     1.1330    -0.9980 H     1 <1>   0.0800 
 31 H       -0.1910     2.3220    -2.0330 H     1 <1>   0.4000 
 32 H       -1.3380     5.4070    -1.3580 H     1 <1>   0.0800 
 33 H       -0.6450     5.4740     0.2610 H     1 <1>   0.0800 
 34 H       -3.0500     6.2380     1.3230 H     1 <1>   0.0800 
 35 H       -4.4020     5.1820     0.9870 H     1 <1>   0.0800 
 36 H       -3.7640     6.2060    -0.2780 H     1 <1>   0.0800 
 37 H        2.0190     3.8260    -1.4730 H     1 <1>   0.1500 
 38 H       -0.2530     2.8470     2.0190 H     1 <1>   0.1500 
 39 H       -3.9960    -2.5420    -1.2210 H     1 <1>   0.1500 
 40 H       -5.9360     0.7340     0.7570 H     1 <1>   0.1500 
 41 H        4.0750     3.5910    -0.1870 H     1 <1>   0.1500 
 42 H        1.8160     2.6170     3.2870 H     1 <1>   0.1500 
 43 H       -7.6670    -0.8190     1.6240 H     1 <1>   0.1500 
 44 H        3.9890     2.9870     2.1960 H     1 <1>   0.1500 
 45 H       -6.7920    -5.3970     1.2000 H     1 <1>   0.0800 
 46 H       -7.7790    -5.1040    -0.2530 H     1 <1>   0.0800 
@<TRIPOS>BOND
  1   1   2  2   
  2   2   3  am  
  3   2   4  1   
  4   3   5  1   
  5   3   6  1   
  6   4   7  1   
  7   4  27  1   
  8   4  28  1   
  9   5   8  2   
 10   6   9  1   
 11   6  10  1   
 12   6  11  1   
 13   7  12  1   
 14   7  29  1   
 15   7  30  1   
 16   8  11  1   
 17   8  13  1   
 18   9  31  1   
 19  10  14  ar  
 20  10  15  ar  
 21  11  32  1   
 22  11  33  1   
 23  12  16  ar  
 24  12  17  ar  
 25  13  34  1   
 26  13  35  1   
 27  13  36  1   
 28  14  18  ar  
 29  14  37  1   
 30  15  19  ar  
 31  15  38  1   
 32  16  20  ar  
 33  16  39  1   
 34  17  21  ar  
 35  17  40  1   
 36  18  22  ar  
 37  18  41  1   
 38  19  22  ar  
 39  19  42  1   
 40  20  23  1   
 41  20  24  ar  
 42  21  24  ar  
 43  21  43  1   
 44  22  44  1   
 45  23  25  1   
 46  24  26  1   
 47  25  26  1   
 48  25  45  1   
 49  25  46  1   
@<TRIPOS>SUBSTRUCTURE
  1 ****   4 GROUP 4 **** **** 0

# MOE 2024.06 (io_trps.svl 2023.06)
