@<TRIPOS>MOLECULE
8-(2-Methoxy-ethyl)-1,3,7-trimethyl-1H,8H-imidazo[2,1-f]purine-2,4-dione
39 41 1 0 0 
SMALL
USER_CHARGES


@<TRIPOS>ATOM
  1 O        1.3340    -0.4630    -0.3080 O.2   1 <1>  -0.5760 
  2 C        2.1980     0.3770    -0.1550 C.2   1 <1>   0.6850 
  3 N        1.8550     1.6650     0.2480 N.am  1 <1>  -0.4270 
  4 N        3.5270     0.0500    -0.3910 N.am  1 <1>  -0.4430 
  5 C        2.8170     2.6620     0.3680 C.2   1 <1>   0.6980 
  6 C        0.4180     1.9840     0.5160 C.3   1 <1>   0.0500 
  7 C        4.4740     1.0460    -0.2720 C.2   1 <1>   0.4190 
  8 C        3.9130    -1.3270    -0.8180 C.3   1 <1>   0.0500 
  9 O        2.5110     3.7970     0.6930 O.2   1 <1>  -0.5760 
 10 C        4.1720     2.3140     0.0980 C.2   1 <1>   0.2690 
 11 N        5.8180     0.9520    -0.4770 N.pl3 1 <1>  -0.7050 
 12 N        5.3890     3.0140     0.1360 N.pl3 1 <1>  -0.6340 
 13 C        6.3340     2.1490    -0.2080 C.cat 1 <1>   1.0680 
 14 C        6.0220     4.2100     0.4060 C.2   1 <1>   0.2200 
 15 N        7.5530     2.7060    -0.1850 N.pl3 1 <1>  -0.5730 
 16 C        7.3470     4.0220     0.2080 C.2   1 <1>   0.1550 
 17 C        8.8390     2.0620    -0.5970 C.3   1 <1>   0.1580 
 18 C        8.4800     5.0200     0.3630 C.3   1 <1>  -0.1120 
 19 C        9.1800     0.8000     0.2120 C.3   1 <1>   0.1100 
 20 O        8.2010    -0.1800     0.0240 O.3   1 <1>  -0.5660 
 21 C        8.5070    -1.3880     0.6510 C.3   1 <1>   0.0300 
 22 H       -0.0700     1.1420     0.9760 H     1 <1>   0.0700 
 23 H       -0.0780     2.2100    -0.4110 H     1 <1>   0.0700 
 24 H        0.3270     2.8270     1.1790 H     1 <1>   0.0700 
 25 H        3.1980    -2.0470    -0.4560 H     1 <1>   0.0700 
 26 H        4.8790    -1.5880    -0.4240 H     1 <1>   0.0700 
 27 H        3.9390    -1.3780    -1.8920 H     1 <1>   0.0700 
 28 H        6.4470     0.1410    -0.5530 H     1 <1>   0.4430 
 29 H        5.4830     5.0930     0.7150 H     1 <1>   0.1400 
 30 H        9.6440     2.7650    -0.4780 H     1 <1>   0.0700 
 31 H        8.7900     1.8060    -1.6420 H     1 <1>   0.0700 
 32 H        9.1850     4.6710     1.0960 H     1 <1>   0.0700 
 33 H        8.0990     5.9730     0.6830 H     1 <1>   0.0700 
 34 H        8.9890     5.1540    -0.5760 H     1 <1>   0.0700 
 35 H        9.2480     1.0320     1.2620 H     1 <1>   0.0700 
 36 H       10.1250     0.4050    -0.1230 H     1 <1>   0.0700 
 37 H        7.7070    -2.0830     0.4660 H     1 <1>   0.0700 
 38 H        8.6080    -1.2260     1.7110 H     1 <1>   0.0700 
 39 H        9.4240    -1.7800     0.2430 H     1 <1>   0.0700 
@<TRIPOS>BOND
  1   1   2  2   
  2   2   3  am  
  3   2   4  am  
  4   3   5  am  
  5   3   6  1   
  6   4   7  1   
  7   4   8  1   
  8   5   9  2   
  9   5  10  1   
 10   6  22  1   
 11   6  23  1   
 12   6  24  1   
 13   7  10  2   
 14   7  11  1   
 15   8  25  1   
 16   8  26  1   
 17   8  27  1   
 18  10  12  1   
 19  11  13  ar  
 20  11  28  1   
 21  12  13  ar  
 22  12  14  1   
 23  13  15  ar  
 24  14  16  2   
 25  14  29  1   
 26  15  16  1   
 27  15  17  1   
 28  16  18  1   
 29  17  19  1   
 30  17  30  1   
 31  17  31  1   
 32  18  32  1   
 33  18  33  1   
 34  18  34  1   
 35  19  20  1   
 36  19  35  1   
 37  19  36  1   
 38  20  21  1   
 39  21  37  1   
 40  21  38  1   
 41  21  39  1   
@<TRIPOS>SUBSTRUCTURE
  1 ****   7 GROUP 4 **** **** 0

# MOE 2024.06 (io_trps.svl 2023.06)
