@<TRIPOS>MOLECULE
N-[2-(Morpholine-4-carbonyl)-phenyl]-2-thiophen-2-yl-acetamide
41 43 1 0 0 
SMALL
USER_CHARGES


@<TRIPOS>ATOM
  1 S        3.0950    -3.1920     0.8430 S.3   1 <1>  -0.0800 
  2 C        1.9730    -1.8560     0.6240 C.2   1 <1>  -0.1400 
  3 C        2.7130    -3.8320    -0.7450 C.2   1 <1>  -0.1100 
  4 C        1.3730    -1.9390    -0.5780 C.2   1 <1>  -0.1500 
  5 C        1.8370    -0.8480     1.7560 C.3   1 <1>   0.0810 
  6 C        1.7950    -3.0620    -1.3580 C.2   1 <1>  -0.1500 
  7 C        2.9490     0.1860     1.7400 C.2   1 <1>   0.5690 
  8 O        2.6530     1.3440     1.5680 O.2   1 <1>  -0.5700 
  9 N        4.2370    -0.2430     1.9130 N.am  1 <1>  -0.5470 
 10 C        5.4660     0.4340     1.8530 C.ar  1 <1>   0.1170 
 11 C        6.6220    -0.2880     1.5230 C.ar  1 <1>   0.0860 
 12 C        5.5740     1.7970     2.1150 C.ar  1 <1>  -0.1500 
 13 C        6.5420    -1.7020     1.2380 C.2   1 <1>   0.5440 
 14 C        7.8450     0.3800     1.4680 C.ar  1 <1>  -0.1500 
 15 C        6.7920     2.4440     2.0500 C.ar  1 <1>  -0.1500 
 16 O        6.1980    -2.4670     2.1210 O.2   1 <1>  -0.5700 
 17 N        6.7940    -2.2070    -0.0180 N.am  1 <1>  -0.6600 
 18 C        7.9350     1.7330     1.7260 C.ar  1 <1>  -0.1500 
 19 C        6.8070    -1.3780    -1.2600 C.3   1 <1>   0.1400 
 20 C        6.7920    -3.6750    -0.2900 C.3   1 <1>   0.1400 
 21 C        7.8880    -1.8750    -2.2330 C.3   1 <1>   0.1200 
 22 C        7.8710    -4.0390    -1.3230 C.3   1 <1>   0.1200 
 23 O        7.7480    -3.2470    -2.4710 O.3   1 <1>  -0.5600 
 24 H        3.2210    -4.7280    -1.0540 H     1 <1>   0.1500 
 25 H        0.6430    -1.2480    -0.9620 H     1 <1>   0.1500 
 26 H        1.8350    -1.3560     2.7020 H     1 <1>   0.0800 
 27 H        0.8970    -0.3370     1.6540 H     1 <1>   0.0800 
 28 H        1.3900    -3.2360    -2.3400 H     1 <1>   0.1500 
 29 H        4.3400    -1.2640     1.9880 H     1 <1>   0.3700 
 30 H        4.6980     2.3640     2.3770 H     1 <1>   0.1500 
 31 H        8.7320    -0.1780     1.2220 H     1 <1>   0.1500 
 32 H        6.8530     3.4990     2.2540 H     1 <1>   0.1500 
 33 H        8.8860     2.2360     1.6790 H     1 <1>   0.1500 
 34 H        6.9830    -0.3430    -1.0320 H     1 <1>   0.0800 
 35 H        5.8450    -1.4510    -1.7380 H     1 <1>   0.0800 
 36 H        5.8260    -3.9620    -0.6670 H     1 <1>   0.0800 
 37 H        6.9720    -4.2240     0.6180 H     1 <1>   0.0800 
 38 H        8.8710    -1.6930    -1.8340 H     1 <1>   0.0800 
 39 H        7.7990    -1.3680    -3.1770 H     1 <1>   0.0800 
 40 H        7.7670    -5.0670    -1.6190 H     1 <1>   0.0800 
 41 H        8.8530    -3.8960    -0.9070 H     1 <1>   0.0800 
@<TRIPOS>BOND
  1   1   2  1   
  2   1   3  1   
  3   2   4  2   
  4   2   5  1   
  5   3   6  2   
  6   3  24  1   
  7   4   6  1   
  8   4  25  1   
  9   5   7  1   
 10   5  26  1   
 11   5  27  1   
 12   6  28  1   
 13   7   8  2   
 14   7   9  am  
 15   9  10  1   
 16   9  29  1   
 17  10  11  ar  
 18  10  12  ar  
 19  11  13  1   
 20  11  14  ar  
 21  12  15  ar  
 22  12  30  1   
 23  13  16  2   
 24  13  17  am  
 25  14  18  ar  
 26  14  31  1   
 27  15  18  ar  
 28  15  32  1   
 29  17  19  1   
 30  17  20  1   
 31  18  33  1   
 32  19  21  1   
 33  19  34  1   
 34  19  35  1   
 35  20  22  1   
 36  20  36  1   
 37  20  37  1   
 38  21  23  1   
 39  21  38  1   
 40  21  39  1   
 41  22  23  1   
 42  22  40  1   
 43  22  41  1   
@<TRIPOS>SUBSTRUCTURE
  1 ****  13 GROUP 4 **** **** 0

# MOE 2024.06 (io_trps.svl 2023.06)
