@<TRIPOS>MOLECULE
1-(4-Methoxy-3-methyl-benzenesulfonyl)-piperidine-4-carboxylic acid (2-ethyl-phe
57 59 1 0 0 
SMALL
USER_CHARGES


@<TRIPOS>ATOM
  1 S       -0.0570     0.0340     2.3270 S.o2  1 <1>   1.4470 
  2 O        0.6470    -1.0120     3.0390 O.2   1 <1>  -0.6500 
  3 O       -0.7570     1.0500     3.0810 O.2   1 <1>  -0.6500 
  4 N        1.1050     0.8250     1.3770 N.am  1 <1>  -0.8490 
  5 C       -1.1820    -0.6900     1.1020 C.ar  1 <1>  -0.0090 
  6 C        1.9680    -0.1230     0.6640 C.3   1 <1>   0.1960 
  7 C        1.8850     1.7760     2.1710 C.3   1 <1>   0.1960 
  8 C       -1.6170     0.0470     0.0070 C.ar  1 <1>  -0.1500 
  9 C       -1.6420    -1.9950     1.2280 C.ar  1 <1>  -0.1500 
 10 C        2.8940     0.6250    -0.2970 C.3   1 <1>  -0.1600 
 11 C        2.8210     2.5830     1.2670 C.3   1 <1>  -0.1600 
 12 C       -2.4720    -0.4910    -0.9420 C.ar  1 <1>  -0.1430 
 13 C       -2.4970    -2.5500     0.2930 C.ar  1 <1>  -0.1500 
 14 C        3.7460     1.6660     0.4500 C.3   1 <1>  -0.0190 
 15 C       -2.9170    -1.8010    -0.8020 C.ar  1 <1>   0.0820 
 16 C       -2.9140     0.3570    -2.1270 C.3   1 <1>  -0.0970 
 17 C        4.6280     2.4730    -0.5030 C.2   1 <1>   0.5690 
 18 O       -3.7530    -2.2910    -1.7540 O.3   1 <1>  -0.3630 
 19 O        4.1130     3.0300    -1.4410 O.2   1 <1>  -0.5700 
 20 N        5.9710     2.5150    -0.2410 N.am  1 <1>  -0.5470 
 21 C       -4.2820    -3.5960    -1.6810 C.3   1 <1>   0.0400 
 22 C        7.0230     3.1770    -0.9000 C.ar  1 <1>   0.1170 
 23 C        8.3250     2.6640    -0.8320 C.ar  1 <1>  -0.1430 
 24 C        6.7970     4.3580    -1.6010 C.ar  1 <1>  -0.1500 
 25 C        9.3550     3.3520    -1.4650 C.ar  1 <1>  -0.1500 
 26 C        8.5840     1.3580    -0.0680 C.3   1 <1>  -0.0170 
 27 C        7.8280     5.0270    -2.2280 C.ar  1 <1>  -0.1500 
 28 C        9.1120     4.5230    -2.1580 C.ar  1 <1>  -0.1500 
 29 C       10.0020     0.7820    -0.1770 C.3   1 <1>  -0.2400 
 30 H        1.3630    -0.8110     0.0970 H     1 <1>   0.0800 
 31 H        2.5520    -0.6930     1.3690 H     1 <1>   0.0800 
 32 H        2.4500     1.2480     2.9220 H     1 <1>   0.0800 
 33 H        1.2200     2.4620     2.6720 H     1 <1>   0.0800 
 34 H       -1.2730     1.0620    -0.0980 H     1 <1>   0.1500 
 35 H       -1.3240    -2.5850     2.0720 H     1 <1>   0.1500 
 36 H        2.2930     1.1110    -1.0470 H     1 <1>   0.0800 
 37 H        3.5350    -0.0780    -0.7980 H     1 <1>   0.0800 
 38 H        3.4090     3.2520     1.8700 H     1 <1>   0.0800 
 39 H        2.2240     3.1830     0.6020 H     1 <1>   0.0800 
 40 H       -2.8230    -3.5620     0.4350 H     1 <1>   0.1500 
 41 H        4.3810     1.1380     1.1380 H     1 <1>   0.0800 
 42 H       -2.4650     1.3330    -2.0980 H     1 <1>   0.0800 
 43 H       -3.9830     0.4690    -2.1120 H     1 <1>   0.0800 
 44 H       -2.6310    -0.1250    -3.0450 H     1 <1>   0.0800 
 45 H        6.2790     1.9410     0.5380 H     1 <1>   0.3700 
 46 H       -4.9200    -3.7450    -2.5340 H     1 <1>   0.0800 
 47 H       -4.8550    -3.6900    -0.7760 H     1 <1>   0.0800 
 48 H       -3.4720    -4.3030    -1.7030 H     1 <1>   0.0800 
 49 H        5.8050     4.7680    -1.6580 H     1 <1>   0.1500 
 50 H       10.3680     2.9950    -1.4360 H     1 <1>   0.1500 
 51 H        7.9020     0.6100    -0.4350 H     1 <1>   0.0800 
 52 H        8.3690     1.5220     0.9730 H     1 <1>   0.0800 
 53 H        7.6320     5.9370    -2.7670 H     1 <1>   0.1500 
 54 H        9.9200     5.0410    -2.6440 H     1 <1>   0.1500 
 55 H       10.2540     0.6010    -1.2070 H     1 <1>   0.0800 
 56 H       10.0600    -0.1510     0.3540 H     1 <1>   0.0800 
 57 H       10.7190     1.4590     0.2520 H     1 <1>   0.0800 
@<TRIPOS>BOND
  1   1   2  2   
  2   1   3  2   
  3   1   4  am  
  4   1   5  1   
  5   4   6  1   
  6   4   7  1   
  7   5   8  ar  
  8   5   9  ar  
  9   6  10  1   
 10   6  30  1   
 11   6  31  1   
 12   7  11  1   
 13   7  32  1   
 14   7  33  1   
 15   8  12  ar  
 16   8  34  1   
 17   9  13  ar  
 18   9  35  1   
 19  10  14  1   
 20  10  36  1   
 21  10  37  1   
 22  11  14  1   
 23  11  38  1   
 24  11  39  1   
 25  12  15  ar  
 26  12  16  1   
 27  13  15  ar  
 28  13  40  1   
 29  14  17  1   
 30  14  41  1   
 31  15  18  1   
 32  16  42  1   
 33  16  43  1   
 34  16  44  1   
 35  17  19  2   
 36  17  20  am  
 37  18  21  1   
 38  20  22  1   
 39  20  45  1   
 40  21  46  1   
 41  21  47  1   
 42  21  48  1   
 43  22  23  ar  
 44  22  24  ar  
 45  23  25  ar  
 46  23  26  1   
 47  24  27  ar  
 48  24  49  1   
 49  25  28  ar  
 50  25  50  1   
 51  26  29  1   
 52  26  51  1   
 53  26  52  1   
 54  27  28  ar  
 55  27  53  1   
 56  28  54  1   
 57  29  55  1   
 58  29  56  1   
 59  29  57  1   
@<TRIPOS>SUBSTRUCTURE
  1 ****  10 GROUP 4 **** **** 0

# MOE 2024.06 (io_trps.svl 2023.06)
