@<TRIPOS>MOLECULE
N-Cyclohexyl-3-(3-phenyl-[1,2,4]oxadiazol-5-yl)-propionamide
43 45 1 0 0 
SMALL
USER_CHARGES


@<TRIPOS>ATOM
  1 O        0.2400    -0.6670    -1.7410 O.2   1 <1>  -0.5700 
  2 C        0.6250    -1.3030    -0.7920 C.2   1 <1>   0.5690 
  3 N        1.6730    -0.9140    -0.0270 N.am  1 <1>  -0.7300 
  4 C       -0.1010    -2.5790    -0.4330 C.3   1 <1>  -0.0990 
  5 C        2.4730     0.3020    -0.2460 C.3   1 <1>   0.2200 
  6 C       -1.5450    -2.2810    -0.0080 C.3   1 <1>   0.0200 
  7 C        3.9290    -0.1030    -0.4990 C.3   1 <1>  -0.1600 
  8 C        2.3510     1.2030     0.9860 C.3   1 <1>  -0.1600 
  9 C       -2.2580    -3.5440     0.4310 C.2   1 <1>   0.2980 
 10 C        4.8330     1.1310    -0.6280 C.3   1 <1>  -0.1600 
 11 C        3.2530     2.4400     0.8600 C.3   1 <1>  -0.1600 
 12 O       -1.8900    -4.1150     1.5470 O.3   1 <1>  -0.0190 
 13 N       -3.1980    -4.1200    -0.1930 N.2   1 <1>  -0.5650 
 14 C        4.7120     2.0390     0.6030 C.3   1 <1>  -0.1600 
 15 N       -2.6630    -5.1500     1.6410 N.2   1 <1>  -0.4100 
 16 C       -3.4410    -5.1580     0.6160 C.2   1 <1>   0.4620 
 17 C       -4.4650    -6.1510     0.3340 C.ar  1 <1>   0.0540 
 18 C       -4.6990    -7.2180     1.2050 C.ar  1 <1>  -0.1500 
 19 C       -5.2570    -6.0840    -0.8150 C.ar  1 <1>  -0.1500 
 20 C       -5.6700    -8.1680     0.9450 C.ar  1 <1>  -0.1500 
 21 C       -6.2300    -7.0310    -1.0810 C.ar  1 <1>  -0.1500 
 22 C       -6.4390    -8.0760    -0.2000 C.ar  1 <1>  -0.1500 
 23 H        1.9760    -1.4850     0.7610 H     1 <1>   0.3700 
 24 H        0.4200    -3.0830     0.3600 H     1 <1>   0.0800 
 25 H       -0.1070    -3.2220    -1.2940 H     1 <1>   0.0800 
 26 H        2.1010     0.8330    -1.1080 H     1 <1>   0.0800 
 27 H       -2.0790    -1.8440    -0.8340 H     1 <1>   0.0800 
 28 H       -1.5530    -1.5760     0.8030 H     1 <1>   0.0800 
 29 H        3.9840    -0.6790    -1.4070 H     1 <1>   0.0800 
 30 H        4.2830    -0.7110     0.3150 H     1 <1>   0.0800 
 31 H        2.6350     0.6540     1.8660 H     1 <1>   0.0800 
 32 H        1.3290     1.5200     1.0940 H     1 <1>   0.0800 
 33 H        4.5540     1.6860    -1.5080 H     1 <1>   0.0800 
 34 H        5.8570     0.8190    -0.7480 H     1 <1>   0.0800 
 35 H        3.1930     3.0260     1.7610 H     1 <1>   0.0800 
 36 H        2.9050     3.0530     0.0450 H     1 <1>   0.0800 
 37 H        5.3080     2.9240     0.4570 H     1 <1>   0.0800 
 38 H        5.0980     1.5230     1.4660 H     1 <1>   0.0800 
 39 H       -4.1090    -7.3050     2.1010 H     1 <1>   0.1500 
 40 H       -5.1090    -5.2780    -1.5110 H     1 <1>   0.1500 
 41 H       -5.8280    -8.9790     1.6350 H     1 <1>   0.1500 
 42 H       -6.8260    -6.9540    -1.9740 H     1 <1>   0.1500 
 43 H       -7.1950    -8.8140    -0.4050 H     1 <1>   0.1500 
@<TRIPOS>BOND
  1   1   2  2   
  2   2   3  am  
  3   2   4  1   
  4   3   5  1   
  5   3  23  1   
  6   4   6  1   
  7   4  24  1   
  8   4  25  1   
  9   5   7  1   
 10   5   8  1   
 11   5  26  1   
 12   6   9  1   
 13   6  27  1   
 14   6  28  1   
 15   7  10  1   
 16   7  29  1   
 17   7  30  1   
 18   8  11  1   
 19   8  31  1   
 20   8  32  1   
 21   9  12  1   
 22   9  13  2   
 23  10  14  1   
 24  10  33  1   
 25  10  34  1   
 26  11  14  1   
 27  11  35  1   
 28  11  36  1   
 29  12  15  1   
 30  13  16  1   
 31  14  37  1   
 32  14  38  1   
 33  15  16  2   
 34  16  17  1   
 35  17  18  ar  
 36  17  19  ar  
 37  18  20  ar  
 38  18  39  1   
 39  19  21  ar  
 40  19  40  1   
 41  20  22  ar  
 42  20  41  1   
 43  21  22  ar  
 44  21  42  1   
 45  22  43  1   
@<TRIPOS>SUBSTRUCTURE
  1 ****   6 GROUP 4 **** **** 0

# MOE 2024.06 (io_trps.svl 2023.06)
