@<TRIPOS>MOLECULE
N-(2,5-Dichloro-phenyl)-2-(4-dimethylsulfamoyl-piperazin-1-yl)-acetamide
44 45 1 0 0 
SMALL
USER_CHARGES


@<TRIPOS>ATOM
  1 CL       0.6880     1.2320     0.8780 Cl    1 <1>  -0.1770 
  2 C       -0.9770     0.6810     0.8770 C.ar  1 <1>   0.1770 
  3 C       -2.0000     1.5970     0.6280 C.ar  1 <1>   0.1170 
  4 C       -1.2260    -0.6590     1.1180 C.ar  1 <1>  -0.1500 
  5 N       -1.6840     2.9460     0.3970 N.am  1 <1>  -0.5470 
  6 C       -3.3090     1.1230     0.6290 C.ar  1 <1>  -0.1500 
  7 C       -2.5350    -1.1140     1.1150 C.ar  1 <1>  -0.1500 
  8 C       -2.3500     3.9650    -0.2200 C.2   1 <1>   0.5690 
  9 C       -3.5580    -0.2150     0.8690 C.ar  1 <1>   0.1770 
 10 O       -3.4680     3.8730    -0.6640 O.2   1 <1>  -0.5700 
 11 C       -1.5880     5.2870    -0.3500 C.3   1 <1>   0.1710 
 12 CL      -5.2050    -0.7910     0.8680 Cl    1 <1>  -0.1770 
 13 N       -0.1110     5.1370    -0.1760 N.3   1 <1>  -0.8100 
 14 C        0.5310     6.4380     0.1140 C.3   1 <1>   0.1100 
 15 C        0.5210     4.5450    -1.3810 C.3   1 <1>   0.1100 
 16 C        2.0550     6.2910     0.2930 C.3   1 <1>   0.1960 
 17 C        2.0420     4.3860    -1.2010 C.3   1 <1>   0.1960 
 18 N        2.6730     5.6730    -0.8860 N.am  1 <1>  -0.8490 
 19 S        4.3550     5.5880    -0.7850 S.o2  1 <1>   1.5760 
 20 O        4.8460     6.9030    -0.4330 O.2   1 <1>  -0.6500 
 21 O        4.8470     4.8980    -1.9580 O.2   1 <1>  -0.6500 
 22 N        4.5300     4.5640     0.5610 N.am  1 <1>  -0.8490 
 23 C        5.0780     3.2450     0.2280 C.3   1 <1>   0.1160 
 24 C        5.2860     5.1700     1.6600 C.3   1 <1>   0.1160 
 25 H       -0.4100    -1.3330     1.3060 H     1 <1>   0.1500 
 26 H       -0.7220     3.2280     0.6260 H     1 <1>   0.3700 
 27 H       -4.1350     1.7860     0.4460 H     1 <1>   0.1500 
 28 H       -2.7640    -2.1490     1.2990 H     1 <1>   0.1500 
 29 H       -1.9710     5.9440     0.4100 H     1 <1>   0.0800 
 30 H       -1.8060     5.7260    -1.3070 H     1 <1>   0.0800 
 31 H        0.1160     6.8490     1.0170 H     1 <1>   0.0800 
 32 H        0.3410     7.1300    -0.6890 H     1 <1>   0.0800 
 33 H        0.3410     5.1730    -2.2380 H     1 <1>   0.0800 
 34 H        0.0960     3.5770    -1.5830 H     1 <1>   0.0800 
 35 H        2.2470     5.6940     1.1680 H     1 <1>   0.0800 
 36 H        2.4820     7.2670     0.4510 H     1 <1>   0.0800 
 37 H        2.4630     3.9930    -2.1110 H     1 <1>   0.0800 
 38 H        2.2270     3.6790    -0.4100 H     1 <1>   0.0800 
 39 H        4.4710     2.7710    -0.5250 H     1 <1>   0.0800 
 40 H        5.0870     2.6150     1.1010 H     1 <1>   0.0800 
 41 H        6.0820     3.3410    -0.1500 H     1 <1>   0.0800 
 42 H        4.8090     6.0830     1.9760 H     1 <1>   0.0800 
 43 H        6.2900     5.3990     1.3420 H     1 <1>   0.0800 
 44 H        5.3250     4.5010     2.5010 H     1 <1>   0.0800 
@<TRIPOS>BOND
  1   1   2  1   
  2   2   3  ar  
  3   2   4  ar  
  4   3   5  1   
  5   3   6  ar  
  6   4   7  ar  
  7   4  25  1   
  8   5   8  am  
  9   5  26  1   
 10   6   9  ar  
 11   6  27  1   
 12   7   9  ar  
 13   7  28  1   
 14   8  10  2   
 15   8  11  1   
 16   9  12  1   
 17  11  13  1   
 18  11  29  1   
 19  11  30  1   
 20  13  14  1   
 21  13  15  1   
 22  14  16  1   
 23  14  31  1   
 24  14  32  1   
 25  15  17  1   
 26  15  33  1   
 27  15  34  1   
 28  16  18  1   
 29  16  35  1   
 30  16  36  1   
 31  17  18  1   
 32  17  37  1   
 33  17  38  1   
 34  18  19  am  
 35  19  20  2   
 36  19  21  2   
 37  19  22  am  
 38  22  23  1   
 39  22  24  1   
 40  23  39  1   
 41  23  40  1   
 42  23  41  1   
 43  24  42  1   
 44  24  43  1   
 45  24  44  1   
@<TRIPOS>SUBSTRUCTURE
  1 ****  13 GROUP 4 **** **** 0

# MOE 2024.06 (io_trps.svl 2023.06)
