@<TRIPOS>MOLECULE
{2-Chloro-6-methoxy-4-[2-methyl-5-oxo-oxazol-(4E)-ylidenemethyl]-phenoxy}-acetic
40 41 1 0 0 
SMALL
USER_CHARGES


@<TRIPOS>ATOM
  1 CL      -0.8330    -0.1030     0.4920 Cl    1 <1>  -0.1770 
  2 C        0.4720    -1.2590     0.6660 C.ar  1 <1>   0.1770 
  3 C        1.7780    -0.8390     0.9060 C.ar  1 <1>   0.0830 
  4 C        0.1560    -2.5990     0.5620 C.ar  1 <1>  -0.1500 
  5 O        2.1230     0.4700     1.0010 O.3   1 <1>  -0.3630 
  6 C        2.7600    -1.8150     1.0610 C.ar  1 <1>   0.0830 
  7 C        1.1340    -3.5840     0.7020 C.ar  1 <1>   0.0280 
  8 C        1.9100     1.3120    -0.1220 C.3   1 <1>   0.1810 
  9 O        4.0420    -1.4500     1.3020 O.3   1 <1>  -0.3620 
 10 C        2.4340    -3.1580     0.9760 C.ar  1 <1>  -0.1500 
 11 C        0.7770    -4.9670     0.5830 C.2   1 <1>  -0.1780 
 12 C        3.1320     2.1730    -0.4010 C.2   1 <1>   0.6590 
 13 C        4.9880    -1.7900     0.3130 C.3   1 <1>   0.0400 
 14 C        1.4720    -6.0130     0.0580 C.2   1 <1>   0.1850 
 15 O        3.1070     3.3720    -0.2670 O.2   1 <1>  -0.5700 
 16 O        4.2130     1.5380    -0.8420 O.3   1 <1>  -0.4300 
 17 N        0.9560    -7.2920     0.0700 N.2   1 <1>  -0.6210 
 18 C        2.7480    -6.1200    -0.5930 C.2   1 <1>   0.7060 
 19 C        5.3990     2.2340    -1.1410 C.3   1 <1>   0.1200 
 20 C        1.8350    -8.0130    -0.4910 C.2   1 <1>   0.5390 
 21 O        3.5860    -5.2860    -0.8720 O.2   1 <1>  -0.5700 
 22 O        2.9280    -7.3870    -0.9070 O.3   1 <1>  -0.3000 
 23 C        6.4390     1.2230    -1.6140 C.3   1 <1>  -0.2400 
 24 C        1.7570    -9.5000    -0.7290 C.3   1 <1>  -0.1790 
 25 H       -0.8630    -2.8820     0.3700 H     1 <1>   0.1500 
 26 H        1.7010     0.7060    -0.9850 H     1 <1>   0.0800 
 27 H        1.0670     1.9410     0.0920 H     1 <1>   0.0800 
 28 H        3.2070    -3.8830     1.1410 H     1 <1>   0.1500 
 29 H       -0.2030    -5.1900     0.9660 H     1 <1>   0.1500 
 30 H        5.9430    -1.4020     0.6180 H     1 <1>   0.0800 
 31 H        4.6900    -1.3420    -0.6190 H     1 <1>   0.0800 
 32 H        5.0410    -2.8600     0.2170 H     1 <1>   0.0800 
 33 H        5.1850     2.9570    -1.9100 H     1 <1>   0.0800 
 34 H        5.7300     2.7410    -0.2500 H     1 <1>   0.0800 
 35 H        6.0780     0.6960    -2.4800 H     1 <1>   0.0800 
 36 H        6.6580     0.5230    -0.8280 H     1 <1>   0.0800 
 37 H        7.3470     1.7340    -1.8770 H     1 <1>   0.0800 
 38 H        2.5710    -9.9900    -0.2280 H     1 <1>   0.0800 
 39 H        1.8150    -9.7020    -1.7820 H     1 <1>   0.0800 
 40 H        0.8280    -9.8830    -0.3480 H     1 <1>   0.0800 
@<TRIPOS>BOND
  1   1   2  1   
  2   2   3  ar  
  3   2   4  ar  
  4   3   5  1   
  5   3   6  ar  
  6   4   7  ar  
  7   4  25  1   
  8   5   8  1   
  9   6   9  1   
 10   6  10  ar  
 11   7  10  ar  
 12   7  11  1   
 13   8  12  1   
 14   8  26  1   
 15   8  27  1   
 16   9  13  1   
 17  10  28  1   
 18  11  14  2   
 19  11  29  1   
 20  12  15  2   
 21  12  16  1   
 22  13  30  1   
 23  13  31  1   
 24  13  32  1   
 25  14  17  1   
 26  14  18  1   
 27  16  19  1   
 28  17  20  2   
 29  18  21  2   
 30  18  22  1   
 31  19  23  1   
 32  19  33  1   
 33  19  34  1   
 34  20  22  1   
 35  20  24  1   
 36  23  35  1   
 37  23  36  1   
 38  23  37  1   
 39  24  38  1   
 40  24  39  1   
 41  24  40  1   
@<TRIPOS>SUBSTRUCTURE
  1 ****  10 GROUP 4 **** **** 0

# MOE 2024.06 (io_trps.svl 2023.06)
