@<TRIPOS>MOLECULE
8-(4-Ethyl-piperazin-1-yl)-7-(2-hydroxy-2-phenyl-ethyl)-3-methyl-3,7-dihydro-pur
57 60 1 0 0 
SMALL
USER_CHARGES


@<TRIPOS>ATOM
  1 O        1.4550     2.8970    -0.2540 O.2   1 <1>  -0.5740 
  2 C        2.6100     2.9600    -0.6040 C.2   1 <1>   0.6870 
  3 N        3.5960     2.1610    -0.0450 N.am  1 <1>  -0.4410 
  4 N        2.9450     3.8450    -1.5850 N.am  1 <1>  -0.4950 
  5 C        4.9010     2.3580    -0.4730 C.2   1 <1>   0.4210 
  6 C        3.2610     1.1850     1.0330 C.3   1 <1>   0.0530 
  7 C        4.2200     4.0300    -2.0370 C.2   1 <1>   0.7000 
  8 N        6.0240     1.7420    -0.0170 N.pl3 1 <1>  -0.7030 
  9 C        5.2570     3.2490    -1.4240 C.2   1 <1>   0.2710 
 10 O        4.4140     4.8270    -2.9350 O.2   1 <1>  -0.5740 
 11 C        7.0790     2.2540    -0.6550 C.cat 1 <1>   1.0690 
 12 N        6.6670     3.1920    -1.5230 N.pl3 1 <1>  -0.7670 
 13 N        8.3520     1.8360    -0.4210 N.pl3 1 <1>  -0.5960 
 14 C        7.4190     4.4100    -1.9980 C.3   1 <1>   0.3490 
 15 C        8.8130     1.3760     0.9350 C.3   1 <1>   0.1610 
 16 C        9.4630     2.0050    -1.4180 C.3   1 <1>   0.1610 
 17 C        7.7290     5.4090    -0.8520 C.3   1 <1>   0.3380 
 18 C        9.8010     0.1890     0.8680 C.3   1 <1>   0.3380 
 19 C       10.4400     0.8100    -1.4430 C.3   1 <1>   0.3380 
 20 O        8.7100     4.8800    -0.0190 O.3   1 <1>  -0.6840 
 21 C        6.4750     5.7080    -0.0280 C.ar  1 <1>  -0.1500 
 22 N       10.9380     0.4510    -0.0710 N.4   1 <1>  -0.9610 
 23 C        6.2030     5.0870     1.1880 C.ar  1 <1>  -0.1570 
 24 C        5.5450     6.6020    -0.5410 C.ar  1 <1>  -0.1570 
 25 C       11.8610    -0.7170    -0.1050 C.3   1 <1>   0.3380 
 26 C        5.0170     5.3340     1.8570 C.ar  1 <1>  -0.1570 
 27 C        4.3600     6.8490     0.1270 C.ar  1 <1>  -0.1570 
 28 C       13.1880    -0.3010    -0.7260 C.3   1 <1>  -0.2460 
 29 C        4.0920     6.2110     1.3230 C.ar  1 <1>  -0.1570 
 30 H        2.2000     4.4160    -1.9770 H     1 <1>   0.3650 
 31 H        2.2030     0.9780     1.0410 H     1 <1>   0.0730 
 32 H        3.5340     1.5930     1.9900 H     1 <1>   0.0730 
 33 H        3.7800     0.2570     0.8720 H     1 <1>   0.0730 
 34 H        6.0340     1.0090     0.6810 H     1 <1>   0.4450 
 35 H        6.8280     4.9240    -2.7350 H     1 <1>   0.0730 
 36 H        8.3330     4.1370    -2.4880 H     1 <1>   0.0730 
 37 H        7.9760     1.0940     1.5490 H     1 <1>   0.0730 
 38 H        9.3010     2.2010     1.4270 H     1 <1>   0.0730 
 39 H       10.0150     2.9010    -1.1870 H     1 <1>   0.0730 
 40 H        9.0530     2.1120    -2.4070 H     1 <1>   0.0730 
 41 H        8.1220     6.3220    -1.2680 H     1 <1>   0.0730 
 42 H        9.2680    -0.6910     0.5490 H     1 <1>   0.0730 
 43 H       10.1870    -0.0040     1.8570 H     1 <1>   0.0730 
 44 H       11.2740     1.0560    -2.0800 H     1 <1>   0.0730 
 45 H        9.9400    -0.0410    -1.8760 H     1 <1>   0.0730 
 46 H        8.8830     5.5370     0.6920 H     1 <1>   0.3950 
 47 H       11.4890     1.2430     0.2920 H     1 <1>   0.4450 
 48 H        6.9020     4.4040     1.6350 H     1 <1>   0.1430 
 49 H        5.7250     7.1130    -1.4730 H     1 <1>   0.1430 
 50 H       11.4240    -1.5270    -0.6690 H     1 <1>   0.0730 
 51 H       12.0440    -1.0650     0.8990 H     1 <1>   0.0730 
 52 H        4.8110     4.8540     2.7980 H     1 <1>   0.1430 
 53 H        3.6450     7.5440    -0.2820 H     1 <1>   0.1430 
 54 H       13.0790    -0.0410    -1.7630 H     1 <1>   0.0730 
 55 H       13.8720    -1.1290    -0.6730 H     1 <1>   0.0730 
 56 H       13.6260     0.5210    -0.1870 H     1 <1>   0.0730 
 57 H        3.1690     6.4060     1.8430 H     1 <1>   0.1430 
@<TRIPOS>BOND
  1   1   2  2   
  2   2   3  am  
  3   2   4  am  
  4   3   5  1   
  5   3   6  1   
  6   4   7  am  
  7   4  30  1   
  8   5   8  1   
  9   5   9  2   
 10   6  31  1   
 11   6  32  1   
 12   6  33  1   
 13   7   9  1   
 14   7  10  2   
 15   8  11  ar  
 16   8  34  1   
 17   9  12  1   
 18  11  12  ar  
 19  11  13  ar  
 20  12  14  1   
 21  13  15  1   
 22  13  16  1   
 23  14  17  1   
 24  14  35  1   
 25  14  36  1   
 26  15  18  1   
 27  15  37  1   
 28  15  38  1   
 29  16  19  1   
 30  16  39  1   
 31  16  40  1   
 32  17  20  1   
 33  17  21  1   
 34  17  41  1   
 35  18  22  1   
 36  18  42  1   
 37  18  43  1   
 38  19  22  1   
 39  19  44  1   
 40  19  45  1   
 41  20  46  1   
 42  21  23  ar  
 43  21  24  ar  
 44  22  25  1   
 45  22  47  1   
 46  23  26  ar  
 47  23  48  1   
 48  24  27  ar  
 49  24  49  1   
 50  25  28  1   
 51  25  50  1   
 52  25  51  1   
 53  26  29  ar  
 54  26  52  1   
 55  27  29  ar  
 56  27  53  1   
 57  28  54  1   
 58  28  55  1   
 59  28  56  1   
 60  29  57  1   
@<TRIPOS>SUBSTRUCTURE
  1 ****  11 GROUP 4 **** **** 0

# MOE 2024.06 (io_trps.svl 2023.06)
