@<TRIPOS>MOLECULE
N-(2-Hydroxy-8-methyl-quinolin-3-ylmethyl)-N-(2-methoxy-ethyl)-isobutyramide
47 48 1 0 0 
SMALL
USER_CHARGES


@<TRIPOS>ATOM
  1 O        0.6300    -1.5200    -1.4220 O.2   1 <1>  -0.5700 
  2 C        1.4440    -1.2000    -0.5850 C.2   1 <1>   0.5690 
  3 N        1.9700     0.0730    -0.5720 N.am  1 <1>  -0.6600 
  4 C        1.8630    -2.2620     0.4510 C.3   1 <1>  -0.0190 
  5 C        1.4670     1.0890    -1.5460 C.3   1 <1>   0.2780 
  6 C        2.9900     0.5830     0.4060 C.3   1 <1>   0.1400 
  7 C        3.2260    -2.8830     0.0990 C.3   1 <1>  -0.2400 
  8 C        0.8250    -3.3900     0.6140 C.3   1 <1>  -0.2400 
  9 C        0.5290     2.0540    -0.8470 C.2   1 <1>  -0.1240 
 10 C        4.3070     0.9360    -0.2890 C.3   1 <1>   0.1200 
 11 C        1.0370     3.3430    -0.4920 C.2   1 <1>   0.6160 
 12 C       -0.7540     1.7180    -0.5610 C.2   1 <1>  -0.1780 
 13 O        5.2990     1.0450     0.6820 O.3   1 <1>  -0.5600 
 14 O        2.1760     3.7100    -0.7200 O.2   1 <1>  -0.5700 
 15 N        0.1960     4.2080     0.1380 N.am  1 <1>  -0.5470 
 16 C       -1.6260     2.6410     0.1010 C.ar  1 <1>   0.0280 
 17 C        6.5290     1.4610     0.1840 C.3   1 <1>   0.0400 
 18 C       -1.1290     3.9090     0.4520 C.ar  1 <1>   0.1170 
 19 C       -2.9490     2.3260     0.4100 C.ar  1 <1>  -0.1500 
 20 C       -1.9570     4.8320     1.1000 C.ar  1 <1>  -0.1430 
 21 C       -3.7590     3.2390     1.0480 C.ar  1 <1>  -0.1500 
 22 C       -3.2630     4.4900     1.3910 C.ar  1 <1>  -0.1500 
 23 C       -1.4380     6.2100     1.4880 C.3   1 <1>  -0.0970 
 24 H        1.9340    -1.7860     1.4110 H     1 <1>   0.0800 
 25 H        0.9330     0.6090    -2.3480 H     1 <1>   0.0800 
 26 H        2.2920     1.6100    -1.9980 H     1 <1>   0.0800 
 27 H        3.2020    -0.1510     1.1580 H     1 <1>   0.0800 
 28 H        2.6080     1.4570     0.9030 H     1 <1>   0.0800 
 29 H        3.1700    -3.3810    -0.8540 H     1 <1>   0.0800 
 30 H        3.5180    -3.6000     0.8460 H     1 <1>   0.0800 
 31 H        3.9870    -2.1260     0.0410 H     1 <1>   0.0800 
 32 H        0.7200    -3.9400    -0.3050 H     1 <1>   0.0800 
 33 H       -0.1330    -2.9720     0.8700 H     1 <1>   0.0800 
 34 H        1.1220    -4.0690     1.3930 H     1 <1>   0.0800 
 35 H        4.2190     1.8790    -0.8010 H     1 <1>   0.0800 
 36 H        4.5900     0.1570    -0.9750 H     1 <1>   0.0800 
 37 H       -1.1490     0.7490    -0.8170 H     1 <1>   0.1500 
 38 H        0.5940     5.1120     0.3780 H     1 <1>   0.3700 
 39 H        7.2240     1.5040     1.0030 H     1 <1>   0.0800 
 40 H        6.4220     2.4390    -0.2530 H     1 <1>   0.0800 
 41 H        6.8740     0.7530    -0.5490 H     1 <1>   0.0800 
 42 H       -3.3340     1.3580     0.1450 H     1 <1>   0.1500 
 43 H       -4.7790     2.9880     1.2830 H     1 <1>   0.1500 
 44 H       -3.9140     5.1870     1.8890 H     1 <1>   0.1500 
 45 H       -0.6100     6.1130     2.1670 H     1 <1>   0.0800 
 46 H       -2.2040     6.7890     1.9710 H     1 <1>   0.0800 
 47 H       -1.1150     6.7420     0.6110 H     1 <1>   0.0800 
@<TRIPOS>BOND
  1   1   2  2   
  2   2   3  am  
  3   2   4  1   
  4   3   5  1   
  5   3   6  1   
  6   4   7  1   
  7   4   8  1   
  8   4  24  1   
  9   5   9  1   
 10   5  25  1   
 11   5  26  1   
 12   6  10  1   
 13   6  27  1   
 14   6  28  1   
 15   7  29  1   
 16   7  30  1   
 17   7  31  1   
 18   8  32  1   
 19   8  33  1   
 20   8  34  1   
 21   9  11  1   
 22   9  12  2   
 23  10  13  1   
 24  10  35  1   
 25  10  36  1   
 26  11  14  2   
 27  11  15  am  
 28  12  16  1   
 29  12  37  1   
 30  13  17  1   
 31  15  18  1   
 32  15  38  1   
 33  16  18  ar  
 34  16  19  ar  
 35  17  39  1   
 36  17  40  1   
 37  17  41  1   
 38  18  20  ar  
 39  19  21  ar  
 40  19  42  1   
 41  20  22  ar  
 42  20  23  1   
 43  21  22  ar  
 44  21  43  1   
 45  22  44  1   
 46  23  45  1   
 47  23  46  1   
 48  23  47  1   
@<TRIPOS>SUBSTRUCTURE
  1 ****   9 GROUP 4 **** **** 0

# MOE 2024.06 (io_trps.svl 2023.06)
