@<TRIPOS>MOLECULE
Pyridine-2-carboxylic acid [3-(4-isopropoxy-benzoylamino)-propyl]-amide
48 49 1 0 0 
SMALL
USER_CHARGES


@<TRIPOS>ATOM
  1 O       -1.1520     0.0990    -1.2580 O.2   1 <1>  -0.5700 
  2 C       -1.6580     0.6670    -0.3050 C.2   1 <1>   0.5440 
  3 N       -2.2340    -0.1030     0.6720 N.am  1 <1>  -0.7300 
  4 C       -1.6660     2.1300    -0.1970 C.ar  1 <1>   0.3960 
  5 C       -2.3230    -1.5760     0.6920 C.3   1 <1>   0.1400 
  6 N       -2.2710     2.7010     0.8630 N.ar  1 <1>  -0.6200 
  7 C       -1.0540     2.9050    -1.1850 C.ar  1 <1>  -0.1500 
  8 C       -3.7550    -1.9890     0.3640 C.3   1 <1>  -0.1600 
  9 C       -2.2570     4.0200     0.9220 C.ar  1 <1>   0.1600 
 10 C       -1.0480     4.2800    -1.1100 C.ar  1 <1>  -0.1500 
 11 C       -3.8730    -3.5090     0.2900 C.3   1 <1>   0.1400 
 12 C       -1.6700     4.8450    -0.0210 C.ar  1 <1>  -0.1500 
 13 N       -5.2780    -3.8680     0.0040 N.am  1 <1>  -0.7300 
 14 C       -6.1060    -4.5700     0.8370 C.2   1 <1>   0.5440 
 15 O       -5.6750    -4.9320     1.9160 O.2   1 <1>  -0.5700 
 16 C       -7.4760    -4.8610     0.4500 C.ar  1 <1>   0.0860 
 17 C       -8.4680    -5.0460     1.4150 C.ar  1 <1>  -0.1500 
 18 C       -7.8630    -4.9670    -0.8880 C.ar  1 <1>  -0.1500 
 19 C       -9.7820    -5.3090     1.0710 C.ar  1 <1>  -0.1500 
 20 C       -9.1740    -5.2280    -1.2400 C.ar  1 <1>  -0.1500 
 21 C      -10.1470    -5.3990    -0.2690 C.ar  1 <1>   0.0830 
 22 O      -11.4030    -5.6500    -0.7060 O.3   1 <1>  -0.3630 
 23 C      -12.5110    -5.8230     0.1500 C.3   1 <1>   0.2000 
 24 C      -13.5740    -6.5810    -0.6420 C.3   1 <1>  -0.2400 
 25 C      -13.0230    -4.4470     0.5810 C.3   1 <1>  -0.2400 
 26 H       -2.6790     0.4030     1.4440 H     1 <1>   0.3700 
 27 H       -2.0400    -1.9370     1.6660 H     1 <1>   0.0800 
 28 H       -1.6430    -1.9900    -0.0350 H     1 <1>   0.0800 
 29 H       -0.5800     2.4140    -2.0170 H     1 <1>   0.1500 
 30 H       -4.0320    -1.5650    -0.5850 H     1 <1>   0.0800 
 31 H       -4.4140    -1.6200     1.1300 H     1 <1>   0.0800 
 32 H       -2.7410     4.4760     1.7700 H     1 <1>   0.1500 
 33 H       -0.5780     4.8840    -1.8680 H     1 <1>   0.1500 
 34 H       -3.5610    -3.9480     1.2240 H     1 <1>   0.0800 
 35 H       -3.2420    -3.8940    -0.4930 H     1 <1>   0.0800 
 36 H       -1.7020     5.9130     0.1000 H     1 <1>   0.1500 
 37 H       -5.6660    -3.4660    -0.8490 H     1 <1>   0.3700 
 38 H       -8.1960    -4.9810     2.4540 H     1 <1>   0.1500 
 39 H       -7.1310    -4.8530    -1.6660 H     1 <1>   0.1500 
 40 H      -10.5010    -5.4400     1.8560 H     1 <1>   0.1500 
 41 H       -9.4580    -5.3060    -2.2750 H     1 <1>   0.1500 
 42 H      -12.2100    -6.4180     0.9950 H     1 <1>   0.0800 
 43 H      -13.8650    -6.0200    -1.5120 H     1 <1>   0.0800 
 44 H      -14.4420    -6.7450    -0.0310 H     1 <1>   0.0800 
 45 H      -13.1880    -7.5370    -0.9480 H     1 <1>   0.0800 
 46 H      -13.3050    -3.8690    -0.2810 H     1 <1>   0.0800 
 47 H      -12.2680    -3.9150     1.1290 H     1 <1>   0.0800 
 48 H      -13.8830    -4.5590     1.2150 H     1 <1>   0.0800 
@<TRIPOS>BOND
  1   1   2  2   
  2   2   3  am  
  3   2   4  1   
  4   3   5  1   
  5   3  26  1   
  6   4   6  ar  
  7   4   7  ar  
  8   5   8  1   
  9   5  27  1   
 10   5  28  1   
 11   6   9  ar  
 12   7  10  ar  
 13   7  29  1   
 14   8  11  1   
 15   8  30  1   
 16   8  31  1   
 17   9  12  ar  
 18   9  32  1   
 19  10  12  ar  
 20  10  33  1   
 21  11  13  1   
 22  11  34  1   
 23  11  35  1   
 24  12  36  1   
 25  13  14  am  
 26  13  37  1   
 27  14  15  2   
 28  14  16  1   
 29  16  17  ar  
 30  16  18  ar  
 31  17  19  ar  
 32  17  38  1   
 33  18  20  ar  
 34  18  39  1   
 35  19  21  ar  
 36  19  40  1   
 37  20  21  ar  
 38  20  41  1   
 39  21  22  1   
 40  22  23  1   
 41  23  24  1   
 42  23  25  1   
 43  23  42  1   
 44  24  43  1   
 45  24  44  1   
 46  24  45  1   
 47  25  46  1   
 48  25  47  1   
 49  25  48  1   
@<TRIPOS>SUBSTRUCTURE
  1 ****  13 GROUP 4 **** **** 0

# MOE 2024.06 (io_trps.svl 2023.06)
