@<TRIPOS>MOLECULE
N-(2-Ethyl-6-methyl-phenyl)-2-imidazol-1-yl-N-(2-methoxy-1-methyl-ethyl)-acetami
48 49 1 0 0 
SMALL
USER_CHARGES


@<TRIPOS>ATOM
  1 O        1.5980     0.2160    -2.1180 O.2   1 <1>  -0.5700 
  2 C        2.1650     0.2890    -1.0510 C.2   1 <1>   0.5690 
  3 N        2.2880    -0.8080    -0.2120 N.am  1 <1>  -0.4770 
  4 C        2.6980     1.6660    -0.6910 C.3   1 <1>   0.1570 
  5 C        1.5820    -1.9990    -0.5170 C.ar  1 <1>   0.1170 
  6 C        3.1330    -0.7630     1.0410 C.3   1 <1>   0.2200 
  7 N        1.8560     2.2970     0.3440 N.pl3 1 <1>   0.0480 
  8 C        0.2550    -2.1710    -0.0870 C.ar  1 <1>  -0.1440 
  9 C        2.1860    -3.0120    -1.2760 C.ar  1 <1>  -0.1440 
 10 C        4.6120    -1.0980     0.7720 C.3   1 <1>   0.1200 
 11 C        2.6060    -1.6830     2.1510 C.3   1 <1>  -0.2400 
 12 C        2.2540     2.8040     1.5330 C.2   1 <1>   0.0360 
 13 C        0.5230     2.4810     0.3260 C.2   1 <1>  -0.3020 
 14 C       -0.4030    -3.3600    -0.3630 C.ar  1 <1>  -0.1500 
 15 C       -0.5260    -1.0670     0.6400 C.3   1 <1>  -0.0160 
 16 C        1.5100    -4.1930    -1.5210 C.ar  1 <1>  -0.1500 
 17 C        3.5680    -2.8760    -1.9060 C.3   1 <1>  -0.0970 
 18 O        5.1510    -0.2440    -0.1940 O.3   1 <1>  -0.5600 
 19 N        1.2890     3.2720     2.2560 N.2   1 <1>  -0.5650 
 20 C        0.1970     3.0720     1.4950 C.2   1 <1>   0.0770 
 21 C        0.2220    -4.3740    -1.0600 C.ar  1 <1>  -0.1500 
 22 C       -1.2700    -1.5580     1.8900 C.3   1 <1>  -0.2400 
 23 C        6.4580    -0.5570    -0.5550 C.3   1 <1>   0.0400 
 24 H        2.6750     2.2860    -1.5670 H     1 <1>   0.0800 
 25 H        3.7090     1.6160    -0.3470 H     1 <1>   0.0800 
 26 H        3.1040     0.2290     1.4480 H     1 <1>   0.0800 
 27 H        4.7040    -2.1150     0.4410 H     1 <1>   0.0800 
 28 H        5.1810    -0.9760     1.6770 H     1 <1>   0.0800 
 29 H        2.5930    -2.7110     1.8350 H     1 <1>   0.0800 
 30 H        3.2340    -1.6070     3.0200 H     1 <1>   0.0800 
 31 H        1.6190    -1.3830     2.4430 H     1 <1>   0.0800 
 32 H        3.2860     2.8080     1.8360 H     1 <1>   0.1500 
 33 H       -0.1030     2.1840    -0.4970 H     1 <1>   0.1500 
 34 H       -1.4190    -3.5100    -0.0480 H     1 <1>   0.1500 
 35 H       -1.2330    -0.6410    -0.0500 H     1 <1>   0.0800 
 36 H        0.1250    -0.2700     0.9440 H     1 <1>   0.0800 
 37 H        1.9780    -4.9790    -2.0860 H     1 <1>   0.1500 
 38 H        3.5580    -3.2970    -2.8950 H     1 <1>   0.0800 
 39 H        3.8610    -1.8480    -2.0020 H     1 <1>   0.0800 
 40 H        4.2950    -3.4040    -1.3200 H     1 <1>   0.0800 
 41 H       -0.7820     3.3690     1.8340 H     1 <1>   0.1500 
 42 H       -0.2990    -5.2940    -1.2590 H     1 <1>   0.1500 
 43 H       -2.0980    -2.1880     1.6220 H     1 <1>   0.0800 
 44 H       -1.6530    -0.7160     2.4370 H     1 <1>   0.0800 
 45 H       -0.6060    -2.1120     2.5290 H     1 <1>   0.0800 
 46 H        6.7810     0.1550    -1.2940 H     1 <1>   0.0800 
 47 H        6.4840    -1.5480    -0.9740 H     1 <1>   0.0800 
 48 H        7.0930    -0.4940     0.3120 H     1 <1>   0.0800 
@<TRIPOS>BOND
  1   1   2  2   
  2   2   3  am  
  3   2   4  1   
  4   3   5  1   
  5   3   6  1   
  6   4   7  1   
  7   4  24  1   
  8   4  25  1   
  9   5   8  ar  
 10   5   9  ar  
 11   6  10  1   
 12   6  11  1   
 13   6  26  1   
 14   7  12  1   
 15   7  13  1   
 16   8  14  ar  
 17   8  15  1   
 18   9  16  ar  
 19   9  17  1   
 20  10  18  1   
 21  10  27  1   
 22  10  28  1   
 23  11  29  1   
 24  11  30  1   
 25  11  31  1   
 26  12  19  2   
 27  12  32  1   
 28  13  20  2   
 29  13  33  1   
 30  14  21  ar  
 31  14  34  1   
 32  15  22  1   
 33  15  35  1   
 34  15  36  1   
 35  16  21  ar  
 36  16  37  1   
 37  17  38  1   
 38  17  39  1   
 39  17  40  1   
 40  18  23  1   
 41  19  20  1   
 42  20  41  1   
 43  21  42  1   
 44  22  43  1   
 45  22  44  1   
 46  22  45  1   
 47  23  46  1   
 48  23  47  1   
 49  23  48  1   
@<TRIPOS>SUBSTRUCTURE
  1 ****   3 GROUP 4 **** **** 0

# MOE 2024.06 (io_trps.svl 2023.06)
