@<TRIPOS>MOLECULE
N-Cyclopentyl-3-(3-o-tolyl-[1,2,4]oxadiazol-5-yl)-propionamide
43 45 1 0 0 
SMALL
USER_CHARGES


@<TRIPOS>ATOM
  1 O        0.5130    -0.9570     0.8100 O.2   1 <1>  -0.5700 
  2 C        0.9220    -2.0310     0.4480 C.2   1 <1>   0.5690 
  3 N        2.2420    -2.3010     0.5280 N.am  1 <1>  -0.7300 
  4 C       -0.0450    -3.0650    -0.0990 C.3   1 <1>  -0.0990 
  5 C        2.9860    -3.5130     0.1430 C.3   1 <1>   0.2200 
  6 C       -1.5120    -2.6080    -0.0440 C.3   1 <1>   0.0200 
  7 C        3.7510    -4.0240     1.3580 C.3   1 <1>  -0.1600 
  8 C        4.0920    -3.1190    -0.8280 C.3   1 <1>  -0.1600 
  9 C       -2.4350    -3.6710    -0.6030 C.2   1 <1>   0.2980 
 10 C        5.0190    -3.1670     1.4430 C.3   1 <1>  -0.1600 
 11 C        5.2390    -2.5870     0.0390 C.3   1 <1>  -0.1600 
 12 O       -2.4190    -3.9040    -1.8890 O.3   1 <1>  -0.0190 
 13 N       -3.2390    -4.3820     0.0710 N.2   1 <1>  -0.5650 
 14 N       -3.2870    -4.8520    -2.0480 N.2   1 <1>  -0.4100 
 15 C       -3.7800    -5.1340    -0.8940 C.2   1 <1>   0.4620 
 16 C       -4.7770    -6.1600    -0.6410 C.ar  1 <1>   0.0540 
 17 C       -5.9180    -5.9650     0.1530 C.ar  1 <1>  -0.1440 
 18 C       -4.6010    -7.4170    -1.2220 C.ar  1 <1>  -0.1500 
 19 C       -6.8150    -7.0020     0.3550 C.ar  1 <1>  -0.1500 
 20 C       -6.2140    -4.6210     0.8070 C.3   1 <1>  -0.0970 
 21 C       -5.5000    -8.4460    -1.0210 C.ar  1 <1>  -0.1500 
 22 C       -6.6110    -8.2400    -0.2260 C.ar  1 <1>  -0.1500 
 23 H        2.8260    -1.5550     0.9100 H     1 <1>   0.3700 
 24 H        0.0580    -3.9680     0.4750 H     1 <1>   0.0800 
 25 H        0.2240    -3.2740    -1.1170 H     1 <1>   0.0800 
 26 H        2.3320    -4.2620    -0.2700 H     1 <1>   0.0800 
 27 H       -1.6390    -1.7020    -0.6090 H     1 <1>   0.0800 
 28 H       -1.7880    -2.4050     0.9760 H     1 <1>   0.0800 
 29 H        4.0350    -5.0460     1.1780 H     1 <1>   0.0800 
 30 H        3.1630    -3.9830     2.2580 H     1 <1>   0.0800 
 31 H        3.7590    -2.4030    -1.5590 H     1 <1>   0.0800 
 32 H        4.4270    -4.0030    -1.3420 H     1 <1>   0.0800 
 33 H        5.8620    -3.7560     1.7620 H     1 <1>   0.0800 
 34 H        4.8720    -2.3640     2.1460 H     1 <1>   0.0800 
 35 H        5.1990    -1.5120     0.0810 H     1 <1>   0.0800 
 36 H        6.1940    -2.8820    -0.3630 H     1 <1>   0.0800 
 37 H       -3.7390    -7.5870    -1.8430 H     1 <1>   0.1500 
 38 H       -7.6860    -6.8540     0.9690 H     1 <1>   0.1500 
 39 H       -6.0790    -3.8230     0.0990 H     1 <1>   0.0800 
 40 H       -5.5480    -4.4640     1.6370 H     1 <1>   0.0800 
 41 H       -7.2250    -4.5790     1.1690 H     1 <1>   0.0800 
 42 H       -5.3370    -9.4060    -1.4800 H     1 <1>   0.1500 
 43 H       -7.3150    -9.0370    -0.0630 H     1 <1>   0.1500 
@<TRIPOS>BOND
  1   1   2  2   
  2   2   3  am  
  3   2   4  1   
  4   3   5  1   
  5   3  23  1   
  6   4   6  1   
  7   4  24  1   
  8   4  25  1   
  9   5   7  1   
 10   5   8  1   
 11   5  26  1   
 12   6   9  1   
 13   6  27  1   
 14   6  28  1   
 15   7  10  1   
 16   7  29  1   
 17   7  30  1   
 18   8  11  1   
 19   8  31  1   
 20   8  32  1   
 21   9  12  1   
 22   9  13  2   
 23  10  11  1   
 24  10  33  1   
 25  10  34  1   
 26  11  35  1   
 27  11  36  1   
 28  12  14  1   
 29  13  15  1   
 30  14  15  2   
 31  15  16  1   
 32  16  17  ar  
 33  16  18  ar  
 34  17  19  ar  
 35  17  20  1   
 36  18  21  ar  
 37  18  37  1   
 38  19  22  ar  
 39  19  38  1   
 40  20  39  1   
 41  20  40  1   
 42  20  41  1   
 43  21  22  ar  
 44  21  42  1   
 45  22  43  1   
@<TRIPOS>SUBSTRUCTURE
  1 ****   9 GROUP 4 **** **** 0

# MOE 2024.06 (io_trps.svl 2023.06)
