@<TRIPOS>MOLECULE
N-Butyl-3-[3-(3-methoxy-phenyl)-[1,2,4]oxadiazol-5-yl]-propionamide
43 44 1 0 0 
SMALL
USER_CHARGES


@<TRIPOS>ATOM
  1 O        0.1440    -0.3210    -2.0940 O.2   1 <1>  -0.5700 
  2 C        0.6230    -1.4010    -1.8690 C.2   1 <1>   0.5690 
  3 N        1.9480    -1.5060    -1.6110 N.am  1 <1>  -0.7300 
  4 C       -0.2870    -2.6100    -1.8580 C.3   1 <1>  -0.0990 
  5 C        2.7640    -2.6910    -1.2690 C.3   1 <1>   0.1400 
  6 C       -0.7340    -2.9390    -0.4290 C.3   1 <1>   0.0200 
  7 C        3.3250    -2.5180     0.1420 C.3   1 <1>  -0.1600 
  8 C       -1.5310    -4.2260    -0.3850 C.2   1 <1>   0.2980 
  9 C        4.1370    -3.7460     0.5700 C.3   1 <1>  -0.1600 
 10 O       -0.9120    -5.3540    -0.6150 O.3   1 <1>  -0.0190 
 11 N       -2.7700    -4.3240    -0.1410 N.2   1 <1>  -0.5650 
 12 C        4.6890    -3.5730     1.9870 C.3   1 <1>  -0.2400 
 13 N       -1.8410    -6.2500    -0.5100 N.2   1 <1>  -0.4100 
 14 C       -2.9430    -5.6470    -0.2290 C.2   1 <1>   0.4620 
 15 C       -4.2330    -6.2870    -0.0270 C.ar  1 <1>   0.0540 
 16 C       -5.3830    -5.5510     0.2590 C.ar  1 <1>  -0.1500 
 17 C       -4.3730    -7.6740    -0.1110 C.ar  1 <1>  -0.1500 
 18 C       -6.6120    -6.1550     0.4520 C.ar  1 <1>   0.0820 
 19 C       -5.5950    -8.2930     0.0800 C.ar  1 <1>  -0.1500 
 20 O       -7.6590    -5.3360     0.7240 O.3   1 <1>  -0.3630 
 21 C       -6.7190    -7.5390     0.3620 C.ar  1 <1>  -0.1500 
 22 C       -8.9560    -5.8470     0.9380 C.3   1 <1>   0.0400 
 23 H        2.4570    -0.6190    -1.6410 H     1 <1>   0.3700 
 24 H        0.2140    -3.4460    -2.3070 H     1 <1>   0.0800 
 25 H       -1.1540    -2.3940    -2.4570 H     1 <1>   0.0800 
 26 H        3.5710    -2.7810    -1.9780 H     1 <1>   0.0800 
 27 H        2.1730    -3.5890    -1.3160 H     1 <1>   0.0800 
 28 H       -1.3390    -2.1340    -0.0500 H     1 <1>   0.0800 
 29 H        0.1200    -3.0440     0.2150 H     1 <1>   0.0800 
 30 H        2.5120    -2.3730     0.8320 H     1 <1>   0.0800 
 31 H        3.9560    -1.6460     0.1690 H     1 <1>   0.0800 
 32 H        4.9580    -3.8960    -0.1120 H     1 <1>   0.0800 
 33 H        3.5140    -4.6240     0.5410 H     1 <1>   0.0800 
 34 H        5.3340    -2.7130     2.0380 H     1 <1>   0.0800 
 35 H        5.2570    -4.4410     2.2700 H     1 <1>   0.0800 
 36 H        3.8870    -3.4460     2.6920 H     1 <1>   0.0800 
 37 H       -5.3250    -4.4800     0.3340 H     1 <1>   0.1500 
 38 H       -3.5090    -8.2790    -0.3290 H     1 <1>   0.1500 
 39 H       -5.6710    -9.3650     0.0090 H     1 <1>   0.1500 
 40 H       -7.6560    -8.0400     0.5060 H     1 <1>   0.1500 
 41 H       -9.6130    -5.0190     1.1330 H     1 <1>   0.0800 
 42 H       -8.9350    -6.5060     1.7870 H     1 <1>   0.0800 
 43 H       -9.2760    -6.3670     0.0520 H     1 <1>   0.0800 
@<TRIPOS>BOND
  1   1   2  2   
  2   2   3  am  
  3   2   4  1   
  4   3   5  1   
  5   3  23  1   
  6   4   6  1   
  7   4  24  1   
  8   4  25  1   
  9   5   7  1   
 10   5  26  1   
 11   5  27  1   
 12   6   8  1   
 13   6  28  1   
 14   6  29  1   
 15   7   9  1   
 16   7  30  1   
 17   7  31  1   
 18   8  10  1   
 19   8  11  2   
 20   9  12  1   
 21   9  32  1   
 22   9  33  1   
 23  10  13  1   
 24  11  14  1   
 25  12  34  1   
 26  12  35  1   
 27  12  36  1   
 28  13  14  2   
 29  14  15  1   
 30  15  16  ar  
 31  15  17  ar  
 32  16  18  ar  
 33  16  37  1   
 34  17  19  ar  
 35  17  38  1   
 36  18  20  1   
 37  18  21  ar  
 38  19  21  ar  
 39  19  39  1   
 40  20  22  1   
 41  21  40  1   
 42  22  41  1   
 43  22  42  1   
 44  22  43  1   
@<TRIPOS>SUBSTRUCTURE
  1 ****   8 GROUP 4 **** **** 0

# MOE 2024.06 (io_trps.svl 2023.06)
