@<TRIPOS>MOLECULE
5-Isopropyl-2-methoxy-N-pyridin-2-ylmethyl-benzenesulfonamide
42 43 1 0 0 
SMALL
USER_CHARGES


@<TRIPOS>ATOM
  1 S        0.0910     0.1730    -1.7590 S.o2  1 <1>   1.4470 
  2 O        0.1410    -1.0110    -2.5880 O.2   1 <1>  -0.6500 
  3 O        0.2640     1.4600    -2.3900 O.2   1 <1>  -0.6500 
  4 N       -1.4560     0.1880    -1.1220 N.am  1 <1>  -0.9140 
  5 C        1.2030    -0.0210    -0.3440 C.ar  1 <1>  -0.0090 
  6 C       -1.8800    -1.1100    -0.6090 C.3   1 <1>   0.3390 
  7 C        1.1660     0.8500     0.7400 C.ar  1 <1>   0.0830 
  8 C        2.1320    -1.0550    -0.3100 C.ar  1 <1>  -0.1500 
  9 C       -3.2630    -1.0200     0.0260 C.ar  1 <1>   0.1670 
 10 O        0.2800     1.8640     0.7740 O.3   1 <1>  -0.3620 
 11 C        2.0180     0.6840     1.8200 C.ar  1 <1>  -0.1500 
 12 C        2.9970    -1.2340     0.7610 C.ar  1 <1>  -0.1440 
 13 N       -4.1740    -1.8890    -0.3930 N.ar  1 <1>  -0.6200 
 14 C       -3.5020    -0.0580     0.9980 C.ar  1 <1>  -0.1500 
 15 C        0.7700     3.1420     0.4350 C.3   1 <1>   0.0400 
 16 C        2.9310    -0.3530     1.8290 C.ar  1 <1>  -0.1500 
 17 C        4.0090    -2.3780     0.7780 C.3   1 <1>   0.0630 
 18 C       -5.3650    -1.7920     0.1780 C.ar  1 <1>   0.1600 
 19 C       -4.7460     0.0300     1.5850 C.ar  1 <1>  -0.1500 
 20 C        4.9960    -2.2530    -0.3870 C.3   1 <1>  -0.2400 
 21 C        3.2990    -3.7350     0.7460 C.3   1 <1>  -0.2400 
 22 C       -5.6980    -0.8680     1.1540 C.ar  1 <1>  -0.1500 
 23 H       -2.0570     0.4080    -1.9120 H     1 <1>   0.4200 
 24 H       -1.1850    -1.4560     0.1370 H     1 <1>   0.0800 
 25 H       -1.9070    -1.8330    -1.4090 H     1 <1>   0.0800 
 26 H        2.1780    -1.7350    -1.1440 H     1 <1>   0.1500 
 27 H        1.9600     1.3640     2.6500 H     1 <1>   0.1500 
 28 H       -2.7160     0.6190     1.2880 H     1 <1>   0.1500 
 29 H       -0.0530     3.8330     0.4560 H     1 <1>   0.0800 
 30 H        1.1910     3.1050    -0.5540 H     1 <1>   0.0800 
 31 H        1.5170     3.4330     1.1520 H     1 <1>   0.0800 
 32 H        3.5880    -0.4700     2.6740 H     1 <1>   0.1500 
 33 H        4.5750    -2.3260     1.6930 H     1 <1>   0.0800 
 34 H       -6.1180    -2.4870    -0.1500 H     1 <1>   0.1500 
 35 H       -4.9610     0.7660     2.3400 H     1 <1>   0.1500 
 36 H        4.4920    -2.3510    -1.3320 H     1 <1>   0.0800 
 37 H        5.7490    -3.0170    -0.3200 H     1 <1>   0.0800 
 38 H        5.4800    -1.2930    -0.3550 H     1 <1>   0.0800 
 39 H        2.7570    -3.8640    -0.1740 H     1 <1>   0.0800 
 40 H        2.6050    -3.8040     1.5650 H     1 <1>   0.0800 
 41 H        4.0150    -4.5320     0.8360 H     1 <1>   0.0800 
 42 H       -6.6890    -0.8540     1.5690 H     1 <1>   0.1500 
@<TRIPOS>BOND
  1   1   2  2   
  2   1   3  2   
  3   1   4  am  
  4   1   5  1   
  5   4   6  1   
  6   4  23  1   
  7   5   7  ar  
  8   5   8  ar  
  9   6   9  1   
 10   6  24  1   
 11   6  25  1   
 12   7  10  1   
 13   7  11  ar  
 14   8  12  ar  
 15   8  26  1   
 16   9  13  ar  
 17   9  14  ar  
 18  10  15  1   
 19  11  16  ar  
 20  11  27  1   
 21  12  16  ar  
 22  12  17  1   
 23  13  18  ar  
 24  14  19  ar  
 25  14  28  1   
 26  15  29  1   
 27  15  30  1   
 28  15  31  1   
 29  16  32  1   
 30  17  20  1   
 31  17  21  1   
 32  17  33  1   
 33  18  22  ar  
 34  18  34  1   
 35  19  22  ar  
 36  19  35  1   
 37  20  36  1   
 38  20  37  1   
 39  20  38  1   
 40  21  39  1   
 41  21  40  1   
 42  21  41  1   
 43  22  42  1   
@<TRIPOS>SUBSTRUCTURE
  1 ****   5 GROUP 4 **** **** 0

# MOE 2024.06 (io_trps.svl 2023.06)
