@<TRIPOS>MOLECULE
[4-(6-Benzyloxy-pyridazin-3-yloxy)-6-pyrrolidin-1-yl-[1,3,5]triazin-2-yl]-dimeth
52 55 1 0 0 
SMALL
USER_CHARGES


@<TRIPOS>ATOM
  1 O        0.5650    -0.2440     0.4090 O.3   1 <1>  -0.1650 
  2 C        0.3860    -1.5630     0.2360 C.ar  1 <1>   0.7020 
  3 C        1.7270     0.3810     0.1260 C.ar  1 <1>   0.3920 
  4 N        1.4380    -2.3320     0.1510 N.ar  1 <1>  -0.6200 
  5 N       -0.8570    -1.9400     0.1640 N.ar  1 <1>  -0.6200 
  6 N        2.2010     1.1890     1.0760 N.ar  1 <1>  -0.3100 
  7 C        2.3530     0.2020    -1.0960 C.ar  1 <1>  -0.1500 
  8 C        1.1560    -3.5980    -0.0240 C.ar  1 <1>   0.7200 
  9 C       -1.0140    -3.2290    -0.0170 C.ar  1 <1>   0.7200 
 10 N        3.3260     1.8390     0.8760 N.ar  1 <1>  -0.3100 
 11 C        3.5290     0.8840    -1.3040 C.ar  1 <1>  -0.1500 
 12 N       -0.0450    -4.1000    -0.1210 N.ar  1 <1>  -0.6200 
 13 N        2.2170    -4.4610    -0.1260 N.pl3 1 <1>  -0.8380 
 14 N       -2.3080    -3.6980    -0.1090 N.pl3 1 <1>  -0.8380 
 15 C        3.9800     1.6910    -0.2820 C.ar  1 <1>   0.3930 
 16 C        3.6130    -4.0930     0.2020 C.3   1 <1>   0.2090 
 17 C        2.0600    -5.9260    -0.2370 C.3   1 <1>   0.2090 
 18 C       -2.6240    -5.0680    -0.6050 C.3   1 <1>   0.1290 
 19 C       -3.4860    -2.8810     0.3000 C.3   1 <1>   0.1290 
 20 O        5.1380     2.3540    -0.4820 O.3   1 <1>  -0.3630 
 21 C        4.2970    -5.4180     0.5160 C.3   1 <1>  -0.1600 
 22 C        3.4850    -6.4650    -0.2420 C.3   1 <1>  -0.1600 
 23 C        5.6660     3.1860     0.5310 C.3   1 <1>   0.2630 
 24 C        6.9750     3.7770     0.0360 C.ar  1 <1>  -0.1430 
 25 C        6.9730     4.9270    -0.7380 C.ar  1 <1>  -0.1500 
 26 C        8.1830     3.1730     0.3540 C.ar  1 <1>  -0.1500 
 27 C        8.1650     5.4710    -1.1860 C.ar  1 <1>  -0.1500 
 28 C        9.3750     3.7160    -0.0940 C.ar  1 <1>  -0.1500 
 29 C        9.3660     4.8660    -0.8630 C.ar  1 <1>  -0.1500 
 30 H        1.9390    -0.4450    -1.8480 H     1 <1>   0.1500 
 31 H        4.0850     0.7990    -2.2190 H     1 <1>   0.1500 
 32 H        3.6550    -3.4210     1.0440 H     1 <1>   0.0800 
 33 H        4.0630    -3.6270    -0.6570 H     1 <1>   0.0800 
 34 H        1.5310    -6.1880    -1.1380 H     1 <1>   0.0800 
 35 H        1.5190    -6.2900     0.6210 H     1 <1>   0.0800 
 36 H       -1.8560    -5.4170    -1.2740 H     1 <1>   0.0800 
 37 H       -3.5570    -5.0610    -1.1390 H     1 <1>   0.0800 
 38 H       -2.6950    -5.7440     0.2290 H     1 <1>   0.0800 
 39 H       -3.8830    -2.3670    -0.5580 H     1 <1>   0.0800 
 40 H       -3.2070    -2.1550     1.0440 H     1 <1>   0.0800 
 41 H       -4.2490    -3.5140     0.7180 H     1 <1>   0.0800 
 42 H        4.2290    -5.6000     1.5740 H     1 <1>   0.0800 
 43 H        5.3330    -5.4110     0.2270 H     1 <1>   0.0800 
 44 H        3.8280    -6.5270    -1.2600 H     1 <1>   0.0800 
 45 H        3.5440    -7.4400     0.2090 H     1 <1>   0.0800 
 46 H        5.8240     2.5920     1.4150 H     1 <1>   0.0800 
 47 H        4.9520     3.9630     0.7420 H     1 <1>   0.0800 
 48 H        6.0430     5.4010    -0.9980 H     1 <1>   0.1500 
 49 H        8.2000     2.2770     0.9490 H     1 <1>   0.1500 
 50 H        8.1560     6.3630    -1.7870 H     1 <1>   0.1500 
 51 H       10.3080     3.2430     0.1560 H     1 <1>   0.1500 
 52 H       10.2930     5.2880    -1.2120 H     1 <1>   0.1500 
@<TRIPOS>BOND
  1   1   2  1   
  2   1   3  1   
  3   2   4  ar  
  4   2   5  ar  
  5   3   6  ar  
  6   3   7  ar  
  7   4   8  ar  
  8   5   9  ar  
  9   6  10  ar  
 10   7  11  ar  
 11   7  30  1   
 12   8  12  ar  
 13   8  13  1   
 14   9  12  ar  
 15   9  14  1   
 16  10  15  ar  
 17  11  15  ar  
 18  11  31  1   
 19  13  16  1   
 20  13  17  1   
 21  14  18  1   
 22  14  19  1   
 23  15  20  1   
 24  16  21  1   
 25  16  32  1   
 26  16  33  1   
 27  17  22  1   
 28  17  34  1   
 29  17  35  1   
 30  18  36  1   
 31  18  37  1   
 32  18  38  1   
 33  19  39  1   
 34  19  40  1   
 35  19  41  1   
 36  20  23  1   
 37  21  22  1   
 38  21  42  1   
 39  21  43  1   
 40  22  44  1   
 41  22  45  1   
 42  23  24  1   
 43  23  46  1   
 44  23  47  1   
 45  24  25  ar  
 46  24  26  ar  
 47  25  27  ar  
 48  25  48  1   
 49  26  28  ar  
 50  26  49  1   
 51  27  29  ar  
 52  27  50  1   
 53  28  29  ar  
 54  28  51  1   
 55  29  52  1   
@<TRIPOS>SUBSTRUCTURE
  1 ****   7 GROUP 4 **** **** 0

# MOE 2024.06 (io_trps.svl 2023.06)
