@<TRIPOS>MOLECULE
8-(3-Methoxy-propyl)-1,7-dimethyl-3-(2-oxo-propyl)-1H,8H-imidazo[2,1-f]purine-2,
47 49 1 0 0 
SMALL
USER_CHARGES


@<TRIPOS>ATOM
  1 O        0.8130    -0.1870     0.5580 O.2   1 <1>  -0.5750 
  2 C        1.7350     0.6000     0.6360 C.2   1 <1>   0.6860 
  3 N        1.4720     1.9460     0.8520 N.am  1 <1>  -0.4260 
  4 N        3.0450     0.1560     0.4990 N.am  1 <1>  -0.4420 
  5 C        2.4990     2.8660     0.9880 C.2   1 <1>   0.6990 
  6 C        0.1450     2.4740     0.4070 C.3   1 <1>   0.1940 
  7 C        4.0540     1.0990     0.5240 C.2   1 <1>   0.4200 
  8 C        3.3370    -1.2840     0.2390 C.3   1 <1>   0.0520 
  9 O        2.2580     4.0250     1.2870 O.2   1 <1>  -0.5750 
 10 C        3.8300     2.4120     0.7660 C.2   1 <1>   0.2700 
 11 C        0.1790     2.7980    -1.0870 C.2   1 <1>   0.4420 
 12 N        5.3890     0.9020     0.3180 N.pl3 1 <1>  -0.7040 
 13 N        5.0830     3.0410     0.7120 N.pl3 1 <1>  -0.6330 
 14 O        1.1940     2.7480    -1.7220 O.2   1 <1>  -0.5750 
 15 C       -1.1310     3.1920    -1.7330 C.3   1 <1>  -0.1870 
 16 C        5.9760     2.1020     0.4300 C.cat 1 <1>   1.0690 
 17 C        5.7600     4.2390     0.7920 C.2   1 <1>   0.2220 
 18 N        7.2160     2.6170     0.3280 N.pl3 1 <1>  -0.5720 
 19 C        7.0660     3.9790     0.5590 C.2   1 <1>   0.1570 
 20 C        8.5170     1.9520     0.0250 C.3   1 <1>   0.1600 
 21 C        8.2360     4.9450     0.5310 C.3   1 <1>  -0.1100 
 22 C        8.3620     0.4480    -0.1970 C.3   1 <1>  -0.1680 
 23 C        9.6920    -0.2270    -0.5030 C.3   1 <1>   0.1120 
 24 O        9.4020    -1.5690    -0.6780 O.3   1 <1>  -0.5650 
 25 C       10.5140    -2.3530    -0.9700 C.3   1 <1>   0.0310 
 26 H       -0.1000     3.3650     0.9580 H     1 <1>   0.0720 
 27 H       -0.6260     1.7500     0.5980 H     1 <1>   0.0720 
 28 H        2.5580    -1.9050     0.6490 H     1 <1>   0.0720 
 29 H        4.2670    -1.5700     0.6980 H     1 <1>   0.0720 
 30 H        3.3900    -1.4570    -0.8220 H     1 <1>   0.0720 
 31 H        5.8730     0.0380     0.0790 H     1 <1>   0.4440 
 32 H       -1.8410     2.3900    -1.6460 H     1 <1>   0.0720 
 33 H       -0.9730     3.4010    -2.7760 H     1 <1>   0.0720 
 34 H       -1.5260     4.0720    -1.2600 H     1 <1>   0.0720 
 35 H        5.2620     5.1730     1.0050 H     1 <1>   0.1420 
 36 H        9.1950     2.1220     0.8460 H     1 <1>   0.0720 
 37 H        8.9410     2.4000    -0.8580 H     1 <1>   0.0720 
 38 H        8.9630     4.6720     1.2750 H     1 <1>   0.0720 
 39 H        7.9000     5.9460     0.7340 H     1 <1>   0.0720 
 40 H        8.7060     4.9340    -0.4370 H     1 <1>   0.0720 
 41 H        7.7120     0.2730    -1.0360 H     1 <1>   0.0720 
 42 H        7.9680    -0.0090     0.6940 H     1 <1>   0.0720 
 43 H       10.3840    -0.1250     0.3170 H     1 <1>   0.0720 
 44 H       10.1280     0.1560    -1.4110 H     1 <1>   0.0720 
 45 H       10.1850    -3.3710    -1.0860 H     1 <1>   0.0720 
 46 H       11.2170    -2.2910    -0.1570 H     1 <1>   0.0720 
 47 H       10.9610    -2.0100    -1.8860 H     1 <1>   0.0720 
@<TRIPOS>BOND
  1   1   2  2   
  2   2   3  am  
  3   2   4  am  
  4   3   5  am  
  5   3   6  1   
  6   4   7  1   
  7   4   8  1   
  8   5   9  2   
  9   5  10  1   
 10   6  11  1   
 11   6  26  1   
 12   6  27  1   
 13   7  10  2   
 14   7  12  1   
 15   8  28  1   
 16   8  29  1   
 17   8  30  1   
 18  10  13  1   
 19  11  14  2   
 20  11  15  1   
 21  12  16  ar  
 22  12  31  1   
 23  13  16  ar  
 24  13  17  1   
 25  15  32  1   
 26  15  33  1   
 27  15  34  1   
 28  16  18  ar  
 29  17  19  2   
 30  17  35  1   
 31  18  19  1   
 32  18  20  1   
 33  19  21  1   
 34  20  22  1   
 35  20  36  1   
 36  20  37  1   
 37  21  38  1   
 38  21  39  1   
 39  21  40  1   
 40  22  23  1   
 41  22  41  1   
 42  22  42  1   
 43  23  24  1   
 44  23  43  1   
 45  23  44  1   
 46  24  25  1   
 47  25  45  1   
 48  25  46  1   
 49  25  47  1   
@<TRIPOS>SUBSTRUCTURE
  1 ****   7 GROUP 4 **** **** 0

# MOE 2024.06 (io_trps.svl 2023.06)
