@<TRIPOS>MOLECULE
4-(3,4-Dimethoxy-phenyl)-3,6-dihydroxy-6-methyl-4,5,6,7-tetrahydro-1H-indazole-5
52 54 1 0 0 
SMALL
USER_CHARGES


@<TRIPOS>ATOM
  1 O       -2.0160     1.4880     2.0280 O.2   1 <1>  -0.5700 
  2 C       -2.1270     1.9380     0.9170 C.2   1 <1>   0.6590 
  3 O       -2.6970     1.2420    -0.0610 O.3   1 <1>  -0.4300 
  4 C       -1.5780     3.3050     0.5540 C.3   1 <1>  -0.0190 
  5 C       -3.1620    -0.0730     0.1340 C.3   1 <1>   0.2580 
  6 C       -2.6690     4.4000     0.3880 C.3   1 <1>   0.2800 
  7 C       -0.6400     3.2000    -0.6710 C.3   1 <1>   0.2440 
  8 C       -1.9920    -1.0270    -0.0290 C.2   1 <1>  -0.2880 
  9 O       -3.4490     4.4160     1.5240 O.3   1 <1>  -0.6800 
 10 C       -2.0090     5.7950     0.2650 C.3   1 <1>   0.0200 
 11 C       -3.6410     4.1550    -0.7770 C.3   1 <1>  -0.2400 
 12 C        0.6030     2.3810    -0.3220 C.ar  1 <1>  -0.1440 
 13 C       -0.2840     4.5970    -1.1590 C.2   1 <1>  -0.1810 
 14 C       -1.8730    -1.9570    -0.9820 C.2   1 <1>  -0.3000 
 15 C       -0.8780     5.7340    -0.7460 C.2   1 <1>  -0.3320 
 16 C        1.6260     2.9260     0.4390 C.ar  1 <1>  -0.1500 
 17 C        0.7210     1.0700    -0.7620 C.ar  1 <1>  -0.1500 
 18 C        0.6480     5.0320    -2.0900 C.2   1 <1>   0.3510 
 19 N       -0.2800     6.7560    -1.4010 N.pl3 1 <1>   0.3000 
 20 C        2.7500     2.1830     0.7530 C.ar  1 <1>   0.0830 
 21 C        1.8360     0.3130    -0.4410 C.ar  1 <1>  -0.1500 
 22 O        1.4710     4.2720    -2.8090 O.3   1 <1>  -0.5120 
 23 N        0.6760     6.3110    -2.2500 N.2   1 <1>  -0.7070 
 24 O        3.7100     2.7890     1.4930 O.3   1 <1>  -0.3630 
 25 C        2.8620     0.8570     0.3250 C.ar  1 <1>   0.0830 
 26 C        4.9110     3.0900     0.8210 C.3   1 <1>   0.0400 
 27 O        3.9700     0.1410     0.6790 O.3   1 <1>  -0.3630 
 28 C        4.0200    -1.2570     0.5140 C.3   1 <1>   0.0400 
 29 H       -0.9690     3.6130     1.3840 H     1 <1>   0.0800 
 30 H       -3.9150    -0.2670    -0.6090 H     1 <1>   0.0800 
 31 H       -3.6050    -0.1570     1.1130 H     1 <1>   0.0800 
 32 H       -1.1540     2.7160    -1.4820 H     1 <1>   0.0800 
 33 H       -1.2410    -0.8720     0.7290 H     1 <1>   0.1500 
 34 H       -4.2290     4.9860     1.3930 H     1 <1>   0.4000 
 35 H       -1.5970     6.0870     1.2160 H     1 <1>   0.0800 
 36 H       -2.7350     6.5280    -0.0380 H     1 <1>   0.0800 
 37 H       -4.1770     3.2330    -0.6470 H     1 <1>   0.0800 
 38 H       -3.1110     4.1090    -1.7100 H     1 <1>   0.0800 
 39 H       -4.3560     4.9550    -0.8510 H     1 <1>   0.0800 
 40 H       -1.0290    -2.6200    -1.0690 H     1 <1>   0.1500 
 41 H       -2.6030    -2.1360    -1.7530 H     1 <1>   0.1500 
 42 H        1.5660     3.9400     0.7920 H     1 <1>   0.1500 
 43 H       -0.0580     0.6260    -1.3570 H     1 <1>   0.1500 
 44 H       -0.4980     7.7560    -1.3030 H     1 <1>   0.2700 
 45 H        1.8820    -0.6960    -0.8020 H     1 <1>   0.1500 
 46 H        2.0010     4.8910    -3.3380 H     1 <1>   0.4500 
 47 H        5.5300     3.6680     1.4830 H     1 <1>   0.0800 
 48 H        4.6800     3.6580    -0.0630 H     1 <1>   0.0800 
 49 H        5.4090     2.1750     0.5590 H     1 <1>   0.0800 
 50 H        4.9300    -1.6140     0.9620 H     1 <1>   0.0800 
 51 H        4.0150    -1.4850    -0.5370 H     1 <1>   0.0800 
 52 H        3.1720    -1.6970     1.0100 H     1 <1>   0.0800 
@<TRIPOS>BOND
  1   1   2  2   
  2   2   3  1   
  3   2   4  1   
  4   3   5  1   
  5   4   6  1   
  6   4   7  1   
  7   4  29  1   
  8   5   8  1   
  9   5  30  1   
 10   5  31  1   
 11   6   9  1   
 12   6  10  1   
 13   6  11  1   
 14   7  12  1   
 15   7  13  1   
 16   7  32  1   
 17   8  14  2   
 18   8  33  1   
 19   9  34  1   
 20  10  15  1   
 21  10  35  1   
 22  10  36  1   
 23  11  37  1   
 24  11  38  1   
 25  11  39  1   
 26  12  16  ar  
 27  12  17  ar  
 28  13  15  2   
 29  13  18  1   
 30  14  40  1   
 31  14  41  1   
 32  15  19  1   
 33  16  20  ar  
 34  16  42  1   
 35  17  21  ar  
 36  17  43  1   
 37  18  22  1   
 38  18  23  2   
 39  19  23  1   
 40  19  44  1   
 41  20  24  1   
 42  20  25  ar  
 43  21  25  ar  
 44  21  45  1   
 45  22  46  1   
 46  24  26  1   
 47  25  27  1   
 48  26  47  1   
 49  26  48  1   
 50  26  49  1   
 51  27  28  1   
 52  28  50  1   
 53  28  51  1   
 54  28  52  1   
@<TRIPOS>SUBSTRUCTURE
  1 ****  12 GROUP 4 **** **** 0

# MOE 2024.06 (io_trps.svl 2023.06)
