@<TRIPOS>MOLECULE
N-(3,4-Dimethyl-phenyl)-N-(1-methyl-2-oxo-2-piperidin-1-yl-ethyl)-methanesulfona
49 50 1 0 0 
SMALL
USER_CHARGES


@<TRIPOS>ATOM
  1 S        0.9820     0.1260     0.3860 S.o2  1 <1>   1.3330 
  2 O        1.5140     0.5470     1.6580 O.2   1 <1>  -0.6500 
  3 O        1.8380    -0.4760    -0.6080 O.2   1 <1>  -0.6500 
  4 N        0.2270     1.4820    -0.3670 N.am  1 <1>  -0.6930 
  5 C       -0.3920    -0.9740     0.6550 C.3   1 <1>  -0.1350 
  6 C       -0.8740     2.0700     0.2490 C.ar  1 <1>   0.1990 
  7 C        1.1540     2.3300    -1.1860 C.3   1 <1>   0.3370 
  8 C       -2.1310     1.9500    -0.3300 C.ar  1 <1>  -0.1500 
  9 C       -0.7620     2.7550     1.4500 C.ar  1 <1>  -0.1500 
 10 C        2.1300     3.2030    -0.3440 C.2   1 <1>   0.5690 
 11 C        0.3400     3.1730    -2.1820 C.3   1 <1>  -0.2400 
 12 C       -3.2570     2.4930     0.2670 C.ar  1 <1>  -0.1440 
 13 C       -1.8770     3.3010     2.0550 C.ar  1 <1>  -0.1500 
 14 O        1.6800     4.2240     0.1340 O.2   1 <1>  -0.5700 
 15 N        3.4630     2.8840    -0.1600 N.am  1 <1>  -0.6600 
 16 C       -3.1300     3.1750     1.4730 C.ar  1 <1>  -0.1430 
 17 C       -4.6080     2.3320    -0.4160 C.3   1 <1>  -0.0970 
 18 C        4.2100     1.7450    -0.7770 C.3   1 <1>   0.1400 
 19 C        4.3190     3.7210     0.7340 C.3   1 <1>   0.1400 
 20 C       -4.3330     3.7930     2.1710 C.3   1 <1>  -0.0970 
 21 C        4.8400     0.8650     0.3090 C.3   1 <1>  -0.1600 
 22 C        4.9180     2.8520     1.8440 C.3   1 <1>  -0.1600 
 23 C        5.7180     1.6790     1.2670 C.3   1 <1>  -0.1600 
 24 H       -0.0480    -1.8910     1.0880 H     1 <1>   0.0800 
 25 H       -0.8790    -1.1910    -0.2750 H     1 <1>   0.0800 
 26 H       -1.1010    -0.5240     1.3220 H     1 <1>   0.0800 
 27 H        1.7320     1.6710    -1.7980 H     1 <1>   0.0800 
 28 H       -2.2120     1.4230    -1.2610 H     1 <1>   0.1500 
 29 H        0.2060     2.8630     1.9090 H     1 <1>   0.1500 
 30 H       -0.2630     3.8980    -1.6630 H     1 <1>   0.0800 
 31 H       -0.2890     2.5410    -2.7790 H     1 <1>   0.0800 
 32 H        1.0100     3.7050    -2.8320 H     1 <1>   0.0800 
 33 H       -1.7580     3.8300     2.9840 H     1 <1>   0.1500 
 34 H       -4.5150     1.7800    -1.3330 H     1 <1>   0.0800 
 35 H       -5.0210     3.2980    -0.6440 H     1 <1>   0.0800 
 36 H       -5.2870     1.8040     0.2290 H     1 <1>   0.0800 
 37 H        4.9890     2.1470    -1.4020 H     1 <1>   0.0800 
 38 H        3.5840     1.1350    -1.3970 H     1 <1>   0.0800 
 39 H        3.7520     4.5180     1.1820 H     1 <1>   0.0800 
 40 H        5.1070     4.1640     0.1500 H     1 <1>   0.0800 
 41 H       -5.0560     3.0330     2.4030 H     1 <1>   0.0800 
 42 H       -4.7870     4.5310     1.5340 H     1 <1>   0.0800 
 43 H       -4.0410     4.2730     3.0870 H     1 <1>   0.0800 
 44 H        5.4280     0.0940    -0.1560 H     1 <1>   0.0800 
 45 H        4.0580     0.3820     0.8650 H     1 <1>   0.0800 
 46 H        4.1160     2.4790     2.4590 H     1 <1>   0.0800 
 47 H        5.5560     3.4560     2.4640 H     1 <1>   0.0800 
 48 H        6.5770     2.0540     0.7370 H     1 <1>   0.0800 
 49 H        6.0660     1.0470     2.0660 H     1 <1>   0.0800 
@<TRIPOS>BOND
  1   1   2  2   
  2   1   3  2   
  3   1   4  am  
  4   1   5  1   
  5   4   6  1   
  6   4   7  1   
  7   5  24  1   
  8   5  25  1   
  9   5  26  1   
 10   6   8  ar  
 11   6   9  ar  
 12   7  10  1   
 13   7  11  1   
 14   7  27  1   
 15   8  12  ar  
 16   8  28  1   
 17   9  13  ar  
 18   9  29  1   
 19  10  14  2   
 20  10  15  am  
 21  11  30  1   
 22  11  31  1   
 23  11  32  1   
 24  12  16  ar  
 25  12  17  1   
 26  13  16  ar  
 27  13  33  1   
 28  15  18  1   
 29  15  19  1   
 30  16  20  1   
 31  17  34  1   
 32  17  35  1   
 33  17  36  1   
 34  18  21  1   
 35  18  37  1   
 36  18  38  1   
 37  19  22  1   
 38  19  39  1   
 39  19  40  1   
 40  20  41  1   
 41  20  42  1   
 42  20  43  1   
 43  21  23  1   
 44  21  44  1   
 45  21  45  1   
 46  22  23  1   
 47  22  46  1   
 48  22  47  1   
 49  23  48  1   
 50  23  49  1   
@<TRIPOS>SUBSTRUCTURE
  1 ****   4 GROUP 4 **** **** 0

# MOE 2024.06 (io_trps.svl 2023.06)
