@<TRIPOS>MOLECULE
5-Oxo-1-pyridin-4-ylmethyl-pyrrolidine-3-carboxylic acid
27 28 1 0 0 
SMALL
USER_CHARGES


@<TRIPOS>ATOM
  1 O       -0.7640    -0.5370    -0.6420 O.2   1 <1>  -0.5700 
  2 C       -0.6170    -1.6870    -0.2980 C.2   1 <1>   0.5690 
  3 N       -1.4240    -2.3590     0.5490 N.am  1 <1>  -0.6600 
  4 C        0.5030    -2.5680    -0.7770 C.3   1 <1>  -0.0990 
  5 C       -1.0020    -3.7590     0.7450 C.3   1 <1>   0.1400 
  6 C       -2.5980    -1.8020     1.2420 C.3   1 <1>   0.2840 
  7 C        0.0500    -3.9820    -0.3470 C.3   1 <1>  -0.1860 
  8 C       -3.8690    -2.3540     0.6180 C.ar  1 <1>  -0.1440 
  9 C        1.1620    -4.8990     0.1170 C.2   1 <1>   0.9060 
 10 C       -4.2580    -1.9820    -0.6530 C.ar  1 <1>  -0.1500 
 11 C       -4.6910    -3.2490     1.2710 C.ar  1 <1>  -0.1500 
 12 O        2.2830    -4.7800    -0.3850 O.co2 1 <1>  -0.9000 
 13 O        0.9060    -5.7490     0.9760 O.co2 1 <1>  -0.9000 
 14 C       -5.4240    -2.5010    -1.1910 C.ar  1 <1>   0.1600 
 15 C       -5.8370    -3.7080     0.6420 C.ar  1 <1>   0.1600 
 16 N       -6.2270    -3.3520    -0.5720 N.ar  1 <1>  -0.6200 
 17 H        1.4100    -2.2840    -0.2750 H     1 <1>   0.0800 
 18 H        0.6350    -2.5000    -1.8390 H     1 <1>   0.0800 
 19 H       -1.8270    -4.4410     0.6310 H     1 <1>   0.0800 
 20 H       -0.5710    -3.8690     1.7270 H     1 <1>   0.0800 
 21 H       -2.5910    -0.7290     1.1530 H     1 <1>   0.0800 
 22 H       -2.5460    -2.0540     2.2860 H     1 <1>   0.0800 
 23 H       -0.4280    -4.4630    -1.1780 H     1 <1>   0.0800 
 24 H       -3.6550    -1.2970    -1.2230 H     1 <1>   0.1500 
 25 H       -4.4510    -3.5950     2.2600 H     1 <1>   0.1500 
 26 H       -5.7090    -2.1980    -2.1840 H     1 <1>   0.1500 
 27 H       -6.4670    -4.4060     1.1670 H     1 <1>   0.1500 
@<TRIPOS>BOND
  1   1   2  2   
  2   2   3  am  
  3   2   4  1   
  4   3   5  1   
  5   3   6  1   
  6   4   7  1   
  7   4  17  1   
  8   4  18  1   
  9   5   7  1   
 10   5  19  1   
 11   5  20  1   
 12   6   8  1   
 13   6  21  1   
 14   6  22  1   
 15   7   9  1   
 16   7  23  1   
 17   8  10  ar  
 18   8  11  ar  
 19   9  12  ar  
 20   9  13  ar  
 21  10  14  ar  
 22  10  24  1   
 23  11  15  ar  
 24  11  25  1   
 25  14  16  ar  
 26  14  26  1   
 27  15  16  ar  
 28  15  27  1   
@<TRIPOS>SUBSTRUCTURE
  1 ****   3 GROUP 4 **** **** 0

# MOE 2024.06 (io_trps.svl 2023.06)
