@<TRIPOS>MOLECULE
1-Cyclopropyl-4-hydroxy-2-oxo-1,2,5,6,7,8-hexahydro-quinoline-3-carboxylic acid
38 41 1 0 0 
SMALL
USER_CHARGES


@<TRIPOS>ATOM
  1 S       -0.4440    -0.4530     0.3590 S.3   1 <1>  -0.0800 
  2 C       -1.6300     0.7800     0.0760 C.2   1 <1>   0.4420 
  3 C        0.7630     0.7630     0.1400 C.2   1 <1>   0.2280 
  4 N       -1.0890     1.9270    -0.1490 N.2   1 <1>  -0.3380 
  5 N       -2.9400     0.3800     0.1180 N.am  1 <1>  -0.4940 
  6 N        0.2800     1.9100    -0.1100 N.2   1 <1>  -0.3380 
  7 C       -4.1440     1.0400     0.0900 C.2   1 <1>   0.6160 
  8 O       -4.1000     2.2670     0.1540 O.2   1 <1>  -0.5700 
  9 C       -5.3450     0.2770     0.0320 C.2   1 <1>   0.0290 
 10 C       -5.3550    -1.1190     0.3300 C.2   1 <1>  -0.0500 
 11 C       -6.5770     0.8730    -0.3230 C.2   1 <1>   0.5410 
 12 O       -4.3440    -1.7200     0.7140 O.3   1 <1>  -0.8500 
 13 N       -6.5330    -1.8570     0.2150 N.pl3 1 <1>  -0.3690 
 14 O       -6.6730     2.0260    -0.7730 O.2   1 <1>  -0.5700 
 15 C       -7.7930     0.1230    -0.1800 C.2   1 <1>  -0.1240 
 16 C       -7.7570    -1.2030     0.1060 C.2   1 <1>  -0.0380 
 17 C       -6.4450    -3.3470     0.2850 C.3   1 <1>   0.0690 
 18 C       -9.1120     0.8890    -0.3410 C.3   1 <1>  -0.0220 
 19 C       -9.0330    -2.0160     0.3390 C.3   1 <1>  -0.0220 
 20 C       -5.5370    -4.0700    -0.6650 C.3   1 <1>  -0.2000 
 21 C       -7.0140    -4.1880    -0.8220 C.3   1 <1>  -0.2000 
 22 C      -10.3430    -0.0200    -0.4250 C.3   1 <1>  -0.1600 
 23 C      -10.2550    -1.1350     0.6170 C.3   1 <1>  -0.1600 
 24 H        1.7920     0.4700     0.2280 H     1 <1>   0.1500 
 25 H       -3.1360    -0.6210     0.3130 H     1 <1>   0.3700 
 26 H       -6.4400    -3.6940     1.3030 H     1 <1>   0.1000 
 27 H       -9.0780     1.4940    -1.2310 H     1 <1>   0.0800 
 28 H       -9.2140     1.5530     0.4990 H     1 <1>   0.0800 
 29 H       -8.8930    -2.6730     1.1780 H     1 <1>   0.0800 
 30 H       -9.2270    -2.6140    -0.5310 H     1 <1>   0.0800 
 31 H       -4.9700    -4.8910    -0.2690 H     1 <1>   0.1000 
 32 H       -4.9570    -3.4480    -1.3230 H     1 <1>   0.1000 
 33 H       -7.4580    -3.7060    -1.6740 H     1 <1>   0.1000 
 34 H       -7.4810    -5.1230    -0.5730 H     1 <1>   0.1000 
 35 H      -10.3940    -0.4560    -1.4080 H     1 <1>   0.0800 
 36 H      -11.2340     0.5640    -0.2710 H     1 <1>   0.0800 
 37 H      -10.1650    -0.7020     1.5990 H     1 <1>   0.0800 
 38 H      -11.1470    -1.7360     0.5940 H     1 <1>   0.0800 
@<TRIPOS>BOND
  1   1   2  1   
  2   1   3  1   
  3   2   4  2   
  4   2   5  1   
  5   3   6  2   
  6   3  24  1   
  7   4   6  1   
  8   5   7  am  
  9   5  25  1   
 10   7   8  2   
 11   7   9  1   
 12   9  10  2   
 13   9  11  1   
 14  10  12  1   
 15  10  13  1   
 16  11  14  2   
 17  11  15  1   
 18  13  16  1   
 19  13  17  1   
 20  15  16  2   
 21  15  18  1   
 22  16  19  1   
 23  17  20  1   
 24  17  21  1   
 25  17  26  1   
 26  18  22  1   
 27  18  27  1   
 28  18  28  1   
 29  19  23  1   
 30  19  29  1   
 31  19  30  1   
 32  20  21  1   
 33  20  31  1   
 34  20  32  1   
 35  21  33  1   
 36  21  34  1   
 37  22  23  1   
 38  22  35  1   
 39  22  36  1   
 40  23  37  1   
 41  23  38  1   
@<TRIPOS>SUBSTRUCTURE
  1 ****   9 GROUP 4 **** **** 0

# MOE 2024.06 (io_trps.svl 2023.06)
