@<TRIPOS>MOLECULE
1-(2-Cyano-ethyl)-3-(2,3-dihydro-benzo[1,4]dioxin-6-yl)-1H-pyrazole-4-carboxylic
44 46 1 0 0 
SMALL
USER_CHARGES


@<TRIPOS>ATOM
  1 O        0.7850    -0.0010    -0.1680 O.2   1 <1>  -0.5700 
  2 C        1.2690    -1.0940     0.0390 C.2   1 <1>   0.8060 
  3 O        2.5920    -1.2490    -0.0830 O.3   1 <1>  -0.4300 
  4 C        0.5170    -2.2630     0.4080 C.2   1 <1>  -0.0860 
  5 C        3.4590    -0.1930    -0.4230 C.3   1 <1>   0.2000 
  6 C       -0.8670    -2.3720     0.6510 C.2   1 <1>   0.2350 
  7 C        0.9740    -3.5350     0.5850 C.2   1 <1>  -0.3020 
  8 C        4.6930    -0.8140    -1.0700 C.3   1 <1>  -0.2400 
  9 C        3.8220     0.5670     0.8540 C.3   1 <1>  -0.2400 
 10 N       -1.2010    -3.6050     0.9320 N.2   1 <1>  -0.7070 
 11 C       -1.8540    -1.3150     0.6050 C.ar  1 <1>   0.0540 
 12 N       -0.0680    -4.3100     0.8950 N.pl3 1 <1>   0.3140 
 13 C       -2.9610    -1.4310    -0.2340 C.ar  1 <1>  -0.1500 
 14 C       -1.7530    -0.1710     1.3970 C.ar  1 <1>  -0.1500 
 15 C       -0.0550    -5.7610     1.1550 C.3   1 <1>   0.0960 
 16 C       -3.9240    -0.4420    -0.2900 C.ar  1 <1>   0.0830 
 17 C       -2.7150     0.8240     1.3550 C.ar  1 <1>  -0.1500 
 18 C       -1.1120    -6.4670     0.3020 C.3   1 <1>   0.0400 
 19 O       -4.9730    -0.5940    -1.1390 O.3   1 <1>  -0.3630 
 20 C       -3.8070     0.6920     0.5160 C.ar  1 <1>   0.0830 
 21 C       -1.0260    -7.9340     0.5060 C.1   1 <1>   0.3570 
 22 C       -5.7440     0.5610    -1.4100 C.3   1 <1>   0.1200 
 23 O       -4.7490     1.6680     0.5000 O.3   1 <1>  -0.3630 
 24 N       -0.9280    -9.0530     0.6770 N.1   1 <1>  -0.5570 
 25 C       -5.9830     1.3550    -0.1190 C.3   1 <1>   0.1200 
 26 H        2.9670     0.4570    -1.1300 H     1 <1>   0.0800 
 27 H        1.9820    -3.8990     0.4970 H     1 <1>   0.1500 
 28 H        5.1820    -1.4830    -0.3860 H     1 <1>   0.0800 
 29 H        5.3870    -0.0420    -1.3500 H     1 <1>   0.0800 
 30 H        4.4120    -1.3510    -1.9580 H     1 <1>   0.0800 
 31 H        4.2790    -0.0930     1.5690 H     1 <1>   0.0800 
 32 H        2.9420     1.0100     1.2850 H     1 <1>   0.0800 
 33 H        4.5130     1.3570     0.6240 H     1 <1>   0.0800 
 34 H       -3.0690    -2.3060    -0.8470 H     1 <1>   0.1500 
 35 H       -0.9090    -0.0610     2.0530 H     1 <1>   0.1500 
 36 H       -0.2570    -5.9160     2.1990 H     1 <1>   0.0800 
 37 H        0.9240    -6.1430     0.9290 H     1 <1>   0.0800 
 38 H       -2.6240     1.7020     1.9680 H     1 <1>   0.1500 
 39 H       -0.9530    -6.2530    -0.7390 H     1 <1>   0.0800 
 40 H       -2.0970    -6.1390     0.5810 H     1 <1>   0.0800 
 41 H       -6.6750     0.2430    -1.8430 H     1 <1>   0.0800 
 42 H       -5.2070     1.1610    -2.1240 H     1 <1>   0.0800 
 43 H       -6.5660     0.7740     0.5740 H     1 <1>   0.0800 
 44 H       -6.4940     2.2780    -0.3250 H     1 <1>   0.0800 
@<TRIPOS>BOND
  1   1   2  2   
  2   2   3  1   
  3   2   4  1   
  4   3   5  1   
  5   4   6  1   
  6   4   7  2   
  7   5   8  1   
  8   5   9  1   
  9   5  26  1   
 10   6  10  2   
 11   6  11  1   
 12   7  12  1   
 13   7  27  1   
 14   8  28  1   
 15   8  29  1   
 16   8  30  1   
 17   9  31  1   
 18   9  32  1   
 19   9  33  1   
 20  10  12  1   
 21  11  13  ar  
 22  11  14  ar  
 23  12  15  1   
 24  13  16  ar  
 25  13  34  1   
 26  14  17  ar  
 27  14  35  1   
 28  15  18  1   
 29  15  36  1   
 30  15  37  1   
 31  16  19  1   
 32  16  20  ar  
 33  17  20  ar  
 34  17  38  1   
 35  18  21  1   
 36  18  39  1   
 37  18  40  1   
 38  19  22  1   
 39  20  23  1   
 40  21  24  3   
 41  22  25  1   
 42  22  41  1   
 43  22  42  1   
 44  23  25  1   
 45  25  43  1   
 46  25  44  1   
@<TRIPOS>SUBSTRUCTURE
  1 ****   6 GROUP 4 **** **** 0

# MOE 2024.06 (io_trps.svl 2023.06)
