@<TRIPOS>MOLECULE
3-(2-Hydroxy-phenyl)-4,5-dihydro-isoxazole-5-carboxylic acid (2-morpholin-4-yl-e
45 47 1 0 0 
SMALL
USER_CHARGES


@<TRIPOS>ATOM
  1 O        0.9750    -0.9510     2.0920 O.2   1 <1>  -0.5700 
  2 C        0.8090    -2.1400     2.2530 C.2   1 <1>   0.5690 
  3 N        1.8920    -2.9640     2.3300 N.am  1 <1>  -0.7300 
  4 C       -0.5930    -2.7640     2.2450 C.3   1 <1>   0.2610 
  5 C        3.3140    -2.5340     2.1950 C.3   1 <1>   0.1400 
  6 O       -0.5440    -3.8270     1.3120 O.3   1 <1>  -0.2170 
  7 C       -1.7120    -1.8910     1.6790 C.3   1 <1>  -0.0990 
  8 C        3.7360    -2.3390     0.7200 C.3   1 <1>   0.3430 
  9 N       -1.1390    -3.5320     0.1790 N.2   1 <1>  -0.5130 
 10 C       -1.8210    -2.4660     0.2880 C.2   1 <1>   0.3030 
 11 N        2.7350    -1.5280    -0.0400 N.4   1 <1>  -0.9590 
 12 C       -2.6460    -1.8820    -0.7460 C.ar  1 <1>   0.0860 
 13 C        1.8560    -2.3760    -0.9220 C.3   1 <1>   0.3430 
 14 C        3.3410    -0.3930    -0.8080 C.3   1 <1>   0.3430 
 15 C       -2.7040    -0.5110    -1.0410 C.ar  1 <1>   0.0820 
 16 C       -3.4340    -2.7290    -1.5270 C.ar  1 <1>  -0.1500 
 17 C        0.8690    -1.5070    -1.7230 C.3   1 <1>   0.1200 
 18 C        2.2700     0.3740    -1.6080 C.3   1 <1>   0.1200 
 19 O       -1.9390     0.3760    -0.3820 O.3   1 <1>  -0.5320 
 20 C       -3.5310    -0.0220    -2.0400 C.ar  1 <1>  -0.1500 
 21 C       -4.2550    -2.2460    -2.5290 C.ar  1 <1>  -0.1500 
 22 O        1.5540    -0.5070    -2.4240 O.3   1 <1>  -0.5600 
 23 C       -4.3080    -0.8880    -2.7850 C.ar  1 <1>  -0.1500 
 24 H        1.7230    -3.9760     2.3960 H     1 <1>   0.3700 
 25 H       -0.8400    -3.1630     3.2110 H     1 <1>   0.0800 
 26 H        3.9540    -3.2630     2.6600 H     1 <1>   0.0800 
 27 H        3.4490    -1.6040     2.7220 H     1 <1>   0.0800 
 28 H       -1.4710    -0.8480     1.7120 H     1 <1>   0.0800 
 29 H       -2.6270    -2.0600     2.2150 H     1 <1>   0.0800 
 30 H        3.8540    -3.3030     0.2540 H     1 <1>   0.0800 
 31 H        4.6950    -1.8480     0.7020 H     1 <1>   0.0800 
 32 H        2.0980    -1.1130     0.6740 H     1 <1>   0.4500 
 33 H        1.3000    -3.0810    -0.3250 H     1 <1>   0.0800 
 34 H        2.4600    -2.9330    -1.6180 H     1 <1>   0.0800 
 35 H        4.0760    -0.7700    -1.5000 H     1 <1>   0.0800 
 36 H        3.8330     0.2870    -0.1330 H     1 <1>   0.0800 
 37 H       -3.4030    -3.7890    -1.3410 H     1 <1>   0.1500 
 38 H        0.1570    -1.0410    -1.0660 H     1 <1>   0.0800 
 39 H        0.3340    -2.1100    -2.4360 H     1 <1>   0.0800 
 40 H        2.7350     1.1060    -2.2450 H     1 <1>   0.0800 
 41 H        1.5820     0.8760    -0.9500 H     1 <1>   0.0800 
 42 H       -2.0920     1.2990    -0.6610 H     1 <1>   0.4500 
 43 H       -3.5720     1.0320    -2.2520 H     1 <1>   0.1500 
 44 H       -4.8530    -2.9260    -3.1110 H     1 <1>   0.1500 
 45 H       -4.9490    -0.5110    -3.5640 H     1 <1>   0.1500 
@<TRIPOS>BOND
  1   1   2  2   
  2   2   3  am  
  3   2   4  1   
  4   3   5  1   
  5   3  24  1   
  6   4   6  1   
  7   4   7  1   
  8   4  25  1   
  9   5   8  1   
 10   5  26  1   
 11   5  27  1   
 12   6   9  1   
 13   7  10  1   
 14   7  28  1   
 15   7  29  1   
 16   8  11  1   
 17   8  30  1   
 18   8  31  1   
 19   9  10  2   
 20  10  12  1   
 21  11  13  1   
 22  11  14  1   
 23  11  32  1   
 24  12  15  ar  
 25  12  16  ar  
 26  13  17  1   
 27  13  33  1   
 28  13  34  1   
 29  14  18  1   
 30  14  35  1   
 31  14  36  1   
 32  15  19  1   
 33  15  20  ar  
 34  16  21  ar  
 35  16  37  1   
 36  17  22  1   
 37  17  38  1   
 38  17  39  1   
 39  18  22  1   
 40  18  40  1   
 41  18  41  1   
 42  19  42  1   
 43  20  23  ar  
 44  20  43  1   
 45  21  23  ar  
 46  21  44  1   
 47  23  45  1   
@<TRIPOS>SUBSTRUCTURE
  1 ****  10 GROUP 4 **** **** 0

# MOE 2024.06 (io_trps.svl 2023.06)
