@<TRIPOS>MOLECULE
N-Cyclopentyl-4-(3-phenyl-[1,2,4]oxadiazol-5-yl)-butyramide
43 45 1 0 0 
SMALL
USER_CHARGES


@<TRIPOS>ATOM
  1 O       -0.3890    -1.2420    -1.4180 O.2   1 <1>  -0.5700 
  2 C       -1.3860    -1.7900    -1.0220 C.2   1 <1>   0.5690 
  3 N       -1.3450    -3.0940    -0.6660 N.am  1 <1>  -0.7300 
  4 C       -2.6700    -0.9880    -0.9170 C.3   1 <1>  -0.0990 
  5 C       -2.4140    -3.9640    -0.1360 C.3   1 <1>   0.2200 
  6 C       -2.9040    -0.4670     0.5170 C.3   1 <1>  -0.1600 
  7 C       -2.0290    -4.4230     1.2640 C.3   1 <1>  -0.1600 
  8 C       -2.4400    -5.2580    -0.9370 C.3   1 <1>  -0.1600 
  9 C       -4.3940    -0.2500     0.8300 C.3   1 <1>   0.0200 
 10 C       -1.0670    -5.5990     1.0660 C.3   1 <1>  -0.1600 
 11 C       -1.3340    -6.1380    -0.3460 C.3   1 <1>  -0.1600 
 12 C       -5.1240    -1.5780     0.9210 C.2   1 <1>   0.2980 
 13 O       -4.9080    -2.3410     1.9610 O.3   1 <1>  -0.0190 
 14 N       -5.9150    -2.0530     0.0520 N.2   1 <1>  -0.5650 
 15 N       -5.6120    -3.4020     1.7250 N.2   1 <1>  -0.4100 
 16 C       -6.2120    -3.2370     0.5980 C.2   1 <1>   0.4620 
 17 C       -7.0830    -4.2060    -0.0470 C.ar  1 <1>   0.0540 
 18 C       -7.3140    -5.4600     0.5210 C.ar  1 <1>  -0.1500 
 19 C       -7.7160    -3.9310    -1.2610 C.ar  1 <1>  -0.1500 
 20 C       -8.1310    -6.3940    -0.0910 C.ar  1 <1>  -0.1500 
 21 C       -8.5340    -4.8590    -1.8790 C.ar  1 <1>  -0.1500 
 22 C       -8.7420    -6.0950    -1.2950 C.ar  1 <1>  -0.1500 
 23 H       -0.4370    -3.5510    -0.7540 H     1 <1>   0.3700 
 24 H       -3.4820    -1.6030    -1.2560 H     1 <1>   0.0800 
 25 H       -2.6110    -0.1540    -1.5920 H     1 <1>   0.0800 
 26 H       -3.3690    -3.4710    -0.1480 H     1 <1>   0.0800 
 27 H       -2.3670     0.4570     0.6400 H     1 <1>   0.0800 
 28 H       -2.5010    -1.1670     1.2290 H     1 <1>   0.0800 
 29 H       -2.9160    -4.7780     1.7600 H     1 <1>   0.0800 
 30 H       -1.6020    -3.6300     1.8510 H     1 <1>   0.0800 
 31 H       -2.3180    -5.0870    -1.9930 H     1 <1>   0.0800 
 32 H       -3.3900    -5.7370    -0.7750 H     1 <1>   0.0800 
 33 H       -4.8460     0.3580     0.0670 H     1 <1>   0.0800 
 34 H       -4.4960     0.2620     1.7700 H     1 <1>   0.0800 
 35 H       -1.2270    -6.3560     1.8140 H     1 <1>   0.0800 
 36 H       -0.0490    -5.2530     1.1350 H     1 <1>   0.0800 
 37 H       -0.4400    -6.0530    -0.9410 H     1 <1>   0.0800 
 38 H       -1.6370    -7.1710    -0.3220 H     1 <1>   0.0800 
 39 H       -6.8480    -5.7110     1.4580 H     1 <1>   0.1500 
 40 H       -7.5650    -2.9740    -1.7310 H     1 <1>   0.1500 
 41 H       -8.2920    -7.3540     0.3690 H     1 <1>   0.1500 
 42 H       -9.0090    -4.6210    -2.8150 H     1 <1>   0.1500 
 43 H       -9.3780    -6.8190    -1.7740 H     1 <1>   0.1500 
@<TRIPOS>BOND
  1   1   2  2   
  2   2   3  am  
  3   2   4  1   
  4   3   5  1   
  5   3  23  1   
  6   4   6  1   
  7   4  24  1   
  8   4  25  1   
  9   5   7  1   
 10   5   8  1   
 11   5  26  1   
 12   6   9  1   
 13   6  27  1   
 14   6  28  1   
 15   7  10  1   
 16   7  29  1   
 17   7  30  1   
 18   8  11  1   
 19   8  31  1   
 20   8  32  1   
 21   9  12  1   
 22   9  33  1   
 23   9  34  1   
 24  10  11  1   
 25  10  35  1   
 26  10  36  1   
 27  11  37  1   
 28  11  38  1   
 29  12  13  1   
 30  12  14  2   
 31  13  15  1   
 32  14  16  1   
 33  15  16  2   
 34  16  17  1   
 35  17  18  ar  
 36  17  19  ar  
 37  18  20  ar  
 38  18  39  1   
 39  19  21  ar  
 40  19  40  1   
 41  20  22  ar  
 42  20  41  1   
 43  21  22  ar  
 44  21  42  1   
 45  22  43  1   
@<TRIPOS>SUBSTRUCTURE
  1 ****  16 GROUP 4 **** **** 0

# MOE 2024.06 (io_trps.svl 2023.06)
