@<TRIPOS>MOLECULE
8-(3,4-Dimethyl-phenyl)-3-(2-ethoxy-ethyl)-1,6,7-trimethyl-1H,8H-imidazo[2,1-f]p
58 61 1 0 0 
SMALL
USER_CHARGES


@<TRIPOS>ATOM
  1 O        1.0630    -0.1740    -1.5360 O.2   1 <1>  -0.5740 
  2 C        1.9630     0.5720    -1.2130 C.2   1 <1>   0.6870 
  3 N        1.7000     1.9130    -0.9550 N.am  1 <1>  -0.4250 
  4 N        3.2540     0.0770    -1.0830 N.am  1 <1>  -0.4410 
  5 C        2.6890     2.7630    -0.4780 C.2   1 <1>   0.7000 
  6 C        0.3200     2.4460    -1.1960 C.3   1 <1>   0.1340 
  7 C        4.2370     0.9310    -0.6240 C.2   1 <1>   0.4210 
  8 C        3.5540    -1.3530    -1.3960 C.3   1 <1>   0.0530 
  9 O        2.4330     3.9200    -0.1930 O.2   1 <1>  -0.5740 
 10 C        4.0050     2.2330    -0.3210 C.2   1 <1>   0.2720 
 11 C       -0.5660     2.2310     0.0310 C.3   1 <1>   0.1140 
 12 N        5.5500     0.6390    -0.3930 N.pl3 1 <1>  -0.7030 
 13 N        5.2340     2.7600     0.1120 N.pl3 1 <1>  -0.6320 
 14 O       -1.8040     2.8010    -0.2330 O.3   1 <1>  -0.5640 
 15 C        6.1100     1.7690     0.0480 C.cat 1 <1>   1.0690 
 16 C        5.9210     3.8650     0.5750 C.2   1 <1>   0.2350 
 17 C       -2.7250     2.6490     0.7930 C.3   1 <1>   0.1140 
 18 N        7.3300     2.1460     0.4380 N.pl3 1 <1>  -0.5550 
 19 C        7.2060     3.4880     0.7740 C.2   1 <1>   0.1590 
 20 C        5.2120     5.1910     0.7690 C.3   1 <1>  -0.1080 
 21 C       -4.0180     3.3230     0.3540 C.3   1 <1>  -0.2460 
 22 C        8.4680     1.3280     0.4700 C.ar  1 <1>   0.3060 
 23 C        8.4060     4.2770     1.2680 C.3   1 <1>  -0.1080 
 24 C        9.2360     1.1590    -0.6700 C.ar  1 <1>  -0.1560 
 25 C        8.8160     0.6610     1.6330 C.ar  1 <1>  -0.1560 
 26 C       10.3370     0.3190    -0.6650 C.ar  1 <1>  -0.1500 
 27 C        9.9140    -0.1770     1.6460 C.ar  1 <1>  -0.1560 
 28 C       10.6770    -0.3570     0.5020 C.ar  1 <1>  -0.1500 
 29 C       11.1570     0.1600    -1.9390 C.3   1 <1>  -0.1030 
 30 C       11.8780    -1.2900     0.5580 C.3   1 <1>  -0.1030 
 31 H       -0.1210     1.9450    -2.0410 H     1 <1>   0.0730 
 32 H        0.3640     3.4980    -1.4210 H     1 <1>   0.0730 
 33 H        2.8370    -1.7430    -2.0990 H     1 <1>   0.0730 
 34 H        3.5040    -1.9400    -0.4960 H     1 <1>   0.0730 
 35 H        4.5320    -1.4470    -1.8340 H     1 <1>   0.0730 
 36 H       -0.1460     2.7200     0.8930 H     1 <1>   0.0730 
 37 H       -0.7040     1.1800     0.2160 H     1 <1>   0.0730 
 38 H        6.0450    -0.2430    -0.5110 H     1 <1>   0.4460 
 39 H       -2.3370     3.1160     1.6830 H     1 <1>   0.0730 
 40 H       -2.8850     1.5980     0.9660 H     1 <1>   0.0730 
 41 H        4.4130     5.0810     1.4790 H     1 <1>   0.0730 
 42 H        4.7970     5.5270    -0.1640 H     1 <1>   0.0730 
 43 H        5.8910     5.9410     1.1310 H     1 <1>   0.0730 
 44 H       -3.8450     4.3680     0.1700 H     1 <1>   0.0730 
 45 H       -4.7590     3.2270     1.1260 H     1 <1>   0.0730 
 46 H       -4.3910     2.8570    -0.5400 H     1 <1>   0.0730 
 47 H        8.7930     3.8360     2.1690 H     1 <1>   0.0730 
 48 H        8.1380     5.2970     1.4760 H     1 <1>   0.0730 
 49 H        9.1820     4.2740     0.5230 H     1 <1>   0.0730 
 50 H        8.9730     1.6900    -1.5670 H     1 <1>   0.1440 
 51 H        8.2360     0.7940     2.5280 H     1 <1>   0.1440 
 52 H       10.1770    -0.6920     2.5550 H     1 <1>   0.1440 
 53 H       10.7640     0.7650    -2.7360 H     1 <1>   0.0730 
 54 H       11.1470    -0.8670    -2.2600 H     1 <1>   0.0730 
 55 H       12.1740     0.4580    -1.7630 H     1 <1>   0.0730 
 56 H       12.7790    -0.7450     0.3430 H     1 <1>   0.0730 
 57 H       11.7680    -2.0810    -0.1610 H     1 <1>   0.0730 
 58 H       11.9800    -1.7340     1.5320 H     1 <1>   0.0730 
@<TRIPOS>BOND
  1   1   2  2   
  2   2   3  am  
  3   2   4  am  
  4   3   5  am  
  5   3   6  1   
  6   4   7  1   
  7   4   8  1   
  8   5   9  2   
  9   5  10  1   
 10   6  11  1   
 11   6  31  1   
 12   6  32  1   
 13   7  10  2   
 14   7  12  1   
 15   8  33  1   
 16   8  34  1   
 17   8  35  1   
 18  10  13  1   
 19  11  14  1   
 20  11  36  1   
 21  11  37  1   
 22  12  15  ar  
 23  12  38  1   
 24  13  15  ar  
 25  13  16  1   
 26  14  17  1   
 27  15  18  ar  
 28  16  19  2   
 29  16  20  1   
 30  17  21  1   
 31  17  39  1   
 32  17  40  1   
 33  18  19  1   
 34  18  22  1   
 35  19  23  1   
 36  20  41  1   
 37  20  42  1   
 38  20  43  1   
 39  21  44  1   
 40  21  45  1   
 41  21  46  1   
 42  22  24  ar  
 43  22  25  ar  
 44  23  47  1   
 45  23  48  1   
 46  23  49  1   
 47  24  26  ar  
 48  24  50  1   
 49  25  27  ar  
 50  25  51  1   
 51  26  28  ar  
 52  26  29  1   
 53  27  28  ar  
 54  27  52  1   
 55  28  30  1   
 56  29  53  1   
 57  29  54  1   
 58  29  55  1   
 59  30  56  1   
 60  30  57  1   
 61  30  58  1   
@<TRIPOS>SUBSTRUCTURE
  1 ****  10 GROUP 4 **** **** 0

# MOE 2024.06 (io_trps.svl 2023.06)
