@<TRIPOS>MOLECULE
4-(5-Chloro-2-methoxycarbonylmethoxy-phenyl)-6-methyl-2-oxo-1,2,3,4-tetrahydro-p
42 43 1 0 0 
SMALL
USER_CHARGES


@<TRIPOS>ATOM
  1 CL       0.3600     0.4010     1.9560 Cl    1 <1>  -0.1770 
  2 C        0.9290    -1.1850     1.4990 C.ar  1 <1>   0.1770 
  3 C        0.1010    -2.2770     1.6830 C.ar  1 <1>  -0.1500 
  4 C        2.1930    -1.3210     0.9600 C.ar  1 <1>  -0.1500 
  5 C        0.5300    -3.5460     1.3170 C.ar  1 <1>  -0.1440 
  6 C        2.6350    -2.5810     0.5980 C.ar  1 <1>  -0.1500 
  7 C        1.8080    -3.6850     0.7710 C.ar  1 <1>   0.0830 
  8 C       -0.4200    -4.7340     1.4990 C.3   1 <1>   0.5020 
  9 O        2.2690    -4.9060     0.4380 O.3   1 <1>  -0.3630 
 10 N        0.1980    -5.7230     2.4040 N.am  1 <1>  -0.7300 
 11 C       -0.8440    -5.3310     0.1540 C.2   1 <1>  -0.1240 
 12 C        2.5180    -5.1870    -0.9290 C.3   1 <1>   0.1810 
 13 C        0.5080    -6.9750     2.0260 C.2   1 <1>   0.6900 
 14 C       -0.5840    -6.6410    -0.1070 C.2   1 <1>  -0.0290 
 15 C       -1.4750    -4.3790    -0.7050 C.2   1 <1>   0.7060 
 16 C        3.0890    -6.5890    -1.0820 C.2   1 <1>   0.6590 
 17 O        1.1630    -7.6930     2.7460 O.2   1 <1>  -0.5700 
 18 N        0.0830    -7.4170     0.8160 N.am  1 <1>  -0.5390 
 19 C       -0.9700    -7.3940    -1.3720 C.3   1 <1>  -0.1020 
 20 O       -1.3820    -4.3980    -1.9170 O.2   1 <1>  -0.5700 
 21 O       -2.1950    -3.4010    -0.1400 O.3   1 <1>  -0.4300 
 22 O        2.4790    -7.4720    -1.6310 O.2   1 <1>  -0.5700 
 23 O        4.3090    -6.7800    -0.5900 O.3   1 <1>  -0.4300 
 24 C       -2.8160    -2.3930    -0.9150 C.3   1 <1>   0.0400 
 25 C        4.9300    -8.0490    -0.6150 C.3   1 <1>   0.0400 
 26 H       -0.8760    -2.1170     2.1050 H     1 <1>   0.1500 
 27 H        2.8180    -0.4560     0.8320 H     1 <1>   0.1500 
 28 H        3.6230    -2.7090     0.1950 H     1 <1>   0.1500 
 29 H       -1.3110    -4.3870     1.9950 H     1 <1>   0.0800 
 30 H        0.7380    -5.3490     3.1800 H     1 <1>   0.3700 
 31 H        3.2200    -4.4710    -1.3110 H     1 <1>   0.0800 
 32 H        1.5900    -5.1110    -1.4650 H     1 <1>   0.0800 
 33 H        0.3910    -8.3630     0.5900 H     1 <1>   0.3700 
 34 H       -0.0960    -7.5930    -1.9650 H     1 <1>   0.0800 
 35 H       -1.6690    -6.8460    -1.9740 H     1 <1>   0.0800 
 36 H       -1.4290    -8.3320    -1.1150 H     1 <1>   0.0800 
 37 H       -3.3350    -1.7220    -0.2530 H     1 <1>   0.0800 
 38 H       -3.5110    -2.8540    -1.5960 H     1 <1>   0.0800 
 39 H       -2.0580    -1.8590    -1.4630 H     1 <1>   0.0800 
 40 H        5.9030    -7.9610    -0.1670 H     1 <1>   0.0800 
 41 H        5.0170    -8.3750    -1.6370 H     1 <1>   0.0800 
 42 H        4.3250    -8.7400    -0.0540 H     1 <1>   0.0800 
@<TRIPOS>BOND
  1   1   2  1   
  2   2   3  ar  
  3   2   4  ar  
  4   3   5  ar  
  5   3  26  1   
  6   4   6  ar  
  7   4  27  1   
  8   5   7  ar  
  9   5   8  1   
 10   6   7  ar  
 11   6  28  1   
 12   7   9  1   
 13   8  10  1   
 14   8  11  1   
 15   8  29  1   
 16   9  12  1   
 17  10  13  am  
 18  10  30  1   
 19  11  14  2   
 20  11  15  1   
 21  12  16  1   
 22  12  31  1   
 23  12  32  1   
 24  13  17  2   
 25  13  18  am  
 26  14  18  1   
 27  14  19  1   
 28  15  20  2   
 29  15  21  1   
 30  16  22  2   
 31  16  23  1   
 32  18  33  1   
 33  19  34  1   
 34  19  35  1   
 35  19  36  1   
 36  21  24  1   
 37  23  25  1   
 38  24  37  1   
 39  24  38  1   
 40  24  39  1   
 41  25  40  1   
 42  25  41  1   
 43  25  42  1   
@<TRIPOS>SUBSTRUCTURE
  1 ****   9 GROUP 4 **** **** 0

# MOE 2024.06 (io_trps.svl 2023.06)
