@<TRIPOS>MOLECULE
4-Methyl-2-(1-methyl-piperidin-4-yl)-2H-pyrazol-3-ylamine
33 34 1 0 0 
SMALL
USER_CHARGES


@<TRIPOS>ATOM
  1 N       -0.4740     0.0590     1.1950 N.2   1 <1>  -0.7070 
  2 N       -0.9260    -0.7760     0.2250 N.pl3 1 <1>   0.3140 
  3 C       -1.3330     1.0310     1.2070 C.2   1 <1>   0.1390 
  4 C       -2.0640    -0.3060    -0.3510 C.2   1 <1>  -0.0680 
  5 C       -0.2250    -2.0350    -0.1210 C.3   1 <1>   0.1760 
  6 C       -2.3470     0.8640     0.2680 C.2   1 <1>  -0.1810 
  7 N       -2.7740    -0.9360    -1.3810 N.pl3 1 <1>  -0.8840 
  8 C       -0.1930    -2.9720     1.0970 C.3   1 <1>  -0.1600 
  9 C        1.1950    -1.7270    -0.6220 C.3   1 <1>  -0.1600 
 10 C       -3.4990     1.8220     0.0320 C.3   1 <1>  -0.0590 
 11 C        0.6360    -4.2190     0.8150 C.3   1 <1>   0.3430 
 12 C        1.9890    -3.0050    -0.8600 C.3   1 <1>   0.3430 
 13 N        2.0080    -3.8180     0.3900 N.4   1 <1>  -0.9590 
 14 C        2.8940    -5.0120     0.2400 C.3   1 <1>   0.2630 
 15 H       -1.2600     1.8730     1.8750 H     1 <1>   0.1500 
 16 H       -0.7770    -2.5120    -0.9120 H     1 <1>   0.0800 
 17 H       -2.8500    -0.3310    -2.2080 H     1 <1>   0.4000 
 18 H       -3.7430    -1.1310    -1.1010 H     1 <1>   0.4000 
 19 H       -1.1990    -3.2660     1.3430 H     1 <1>   0.0800 
 20 H        0.2190    -2.4610     1.9500 H     1 <1>   0.0800 
 21 H        1.7180    -1.1160     0.0930 H     1 <1>   0.0800 
 22 H        1.1320    -1.1740    -1.5430 H     1 <1>   0.0800 
 23 H       -3.1190     2.7860    -0.2540 H     1 <1>   0.0800 
 24 H       -4.0760     1.9270     0.9330 H     1 <1>   0.0800 
 25 H       -4.1410     1.4580    -0.7490 H     1 <1>   0.0800 
 26 H        0.1660    -4.8010     0.0380 H     1 <1>   0.0800 
 27 H        0.6870    -4.8230     1.7080 H     1 <1>   0.0800 
 28 H        2.9950    -2.7510    -1.1520 H     1 <1>   0.0800 
 29 H        1.5360    -3.5710    -1.6590 H     1 <1>   0.0800 
 30 H        2.3930    -3.2170     1.1360 H     1 <1>   0.4500 
 31 H        2.5190    -5.6630    -0.5340 H     1 <1>   0.0800 
 32 H        2.9370    -5.5650     1.1650 H     1 <1>   0.0800 
 33 H        3.8940    -4.7060    -0.0210 H     1 <1>   0.0800 
@<TRIPOS>BOND
  1   1   2  1   
  2   1   3  2   
  3   2   4  1   
  4   2   5  1   
  5   3   6  1   
  6   3  15  1   
  7   4   6  2   
  8   4   7  1   
  9   5   8  1   
 10   5   9  1   
 11   5  16  1   
 12   6  10  1   
 13   7  17  1   
 14   7  18  1   
 15   8  11  1   
 16   8  19  1   
 17   8  20  1   
 18   9  12  1   
 19   9  21  1   
 20   9  22  1   
 21  10  23  1   
 22  10  24  1   
 23  10  25  1   
 24  11  13  1   
 25  11  26  1   
 26  11  27  1   
 27  12  13  1   
 28  12  28  1   
 29  12  29  1   
 30  13  14  1   
 31  13  30  1   
 32  14  31  1   
 33  14  32  1   
 34  14  33  1   
@<TRIPOS>SUBSTRUCTURE
  1 ****   5 GROUP 4 **** **** 0

# MOE 2024.06 (io_trps.svl 2023.06)
