@<TRIPOS>MOLECULE
1,3-Dimethyl-7-(1-methyl-2-oxo-propyl)-8-(3-methyl-piperidin-1-ylmethyl)-3,7-dih
54 56 1 0 0 
SMALL
USER_CHARGES


@<TRIPOS>ATOM
  1 O        0.7950    -0.1460    -0.2770 O.2   1 <1>  -0.5700 
  2 C        1.7930     0.5450    -0.3060 C.2   1 <1>   0.6900 
  3 N        1.7090     1.9000    -0.0050 N.am  1 <1>  -0.4200 
  4 N        3.0160    -0.0200    -0.6300 N.am  1 <1>  -0.4360 
  5 C        2.8450     2.6980     0.0410 C.2   1 <1>   0.7030 
  6 C        0.3680     2.4830     0.3160 C.3   1 <1>   0.0600 
  7 C        4.1370     0.7870    -0.5860 C.2   1 <1>   0.4260 
  8 C        3.1290    -1.4650    -0.9860 C.3   1 <1>   0.0600 
  9 O        2.7580     3.8760     0.3470 O.2   1 <1>  -0.5700 
 10 C        4.1160     2.1040    -0.2690 C.2   1 <1>   0.2770 
 11 N        5.4180     0.4340    -0.8230 N.pl3 1 <1>  -0.7000 
 12 N        5.4470     2.5540    -0.3230 N.pl3 1 <1>  -0.7640 
 13 C        6.1930     1.4980    -0.6660 C.cat 1 <1>   0.6560 
 14 C        5.8590     3.9740    -0.0250 C.3   1 <1>   0.4950 
 15 C        7.7140     1.3460    -0.8590 C.3   1 <1>   0.2540 
 16 C        6.7170     4.6440    -1.1190 C.2   1 <1>   0.4480 
 17 C        6.5430     3.9950     1.3450 C.3   1 <1>  -0.2400 
 18 N        8.1640    -0.0440    -0.5680 N.3   1 <1>  -0.8100 
 19 O        7.4670     4.0300    -1.8180 O.2   1 <1>  -0.5700 
 20 C        6.5790     6.1450    -1.2850 C.3   1 <1>  -0.1790 
 21 C        9.4520    -0.3270    -1.2300 C.3   1 <1>   0.1100 
 22 C        8.2620    -0.2890     0.8830 C.3   1 <1>   0.1100 
 23 C        9.8350    -1.8040    -1.0490 C.3   1 <1>  -0.0800 
 24 C        8.5840    -1.7630     1.1380 C.3   1 <1>  -0.1600 
 25 C        9.8870    -2.1740     0.4410 C.3   1 <1>  -0.1600 
 26 C       11.1810    -2.1030    -1.7200 C.3   1 <1>  -0.2400 
 27 H       -0.3880     2.0470    -0.3140 H     1 <1>   0.0800 
 28 H        0.3600     3.5480     0.1590 H     1 <1>   0.0800 
 29 H        0.1230     2.2790     1.3440 H     1 <1>   0.0800 
 30 H        2.1730    -1.8600    -1.2890 H     1 <1>   0.0800 
 31 H        3.4760    -2.0230    -0.1340 H     1 <1>   0.0800 
 32 H        3.8170    -1.5950    -1.8040 H     1 <1>   0.0800 
 33 H        5.8280    -0.4820    -1.0400 H     1 <1>   0.4500 
 34 H        4.9740     4.5760     0.0560 H     1 <1>   0.0800 
 35 H        8.2530     2.0450    -0.2460 H     1 <1>   0.0800 
 36 H        7.9280     1.5750    -1.8880 H     1 <1>   0.0800 
 37 H        7.4780     3.4690     1.3210 H     1 <1>   0.0800 
 38 H        5.9010     3.5560     2.0880 H     1 <1>   0.0800 
 39 H        6.7400     5.0110     1.6370 H     1 <1>   0.0800 
 40 H        5.5670     6.4010    -1.5410 H     1 <1>   0.0800 
 41 H        7.2270     6.4830    -2.0750 H     1 <1>   0.0800 
 42 H        6.8560     6.6500    -0.3780 H     1 <1>   0.0800 
 43 H       10.2240     0.3030    -0.8180 H     1 <1>   0.0800 
 44 H        9.3720    -0.1180    -2.2840 H     1 <1>   0.0800 
 45 H        7.3300    -0.0490     1.3660 H     1 <1>   0.0800 
 46 H        9.0360     0.3280     1.3100 H     1 <1>   0.0800 
 47 H        9.0800    -2.4040    -1.5290 H     1 <1>   0.0800 
 48 H        7.7720    -2.3700     0.7780 H     1 <1>   0.0800 
 49 H        8.6760    -1.9320     2.1970 H     1 <1>   0.0800 
 50 H       10.7130    -1.6660     0.9100 H     1 <1>   0.0800 
 51 H       10.0410    -3.2330     0.5530 H     1 <1>   0.0800 
 52 H       11.9670    -1.5180    -1.2760 H     1 <1>   0.0800 
 53 H       11.1330    -1.8750    -2.7700 H     1 <1>   0.0800 
 54 H       11.4260    -3.1450    -1.6120 H     1 <1>   0.0800 
@<TRIPOS>BOND
  1   1   2  2   
  2   2   3  am  
  3   2   4  am  
  4   3   5  am  
  5   3   6  1   
  6   4   7  1   
  7   4   8  1   
  8   5   9  2   
  9   5  10  1   
 10   6  27  1   
 11   6  28  1   
 12   6  29  1   
 13   7  10  2   
 14   7  11  1   
 15   8  30  1   
 16   8  31  1   
 17   8  32  1   
 18  10  12  1   
 19  11  13  ar  
 20  11  33  1   
 21  12  13  ar  
 22  12  14  1   
 23  13  15  1   
 24  14  16  1   
 25  14  17  1   
 26  14  34  1   
 27  15  18  1   
 28  15  35  1   
 29  15  36  1   
 30  16  19  2   
 31  16  20  1   
 32  17  37  1   
 33  17  38  1   
 34  17  39  1   
 35  18  21  1   
 36  18  22  1   
 37  20  40  1   
 38  20  41  1   
 39  20  42  1   
 40  21  23  1   
 41  21  43  1   
 42  21  44  1   
 43  22  24  1   
 44  22  45  1   
 45  22  46  1   
 46  23  25  1   
 47  23  26  1   
 48  23  47  1   
 49  24  25  1   
 50  24  48  1   
 51  24  49  1   
 52  25  50  1   
 53  25  51  1   
 54  26  52  1   
 55  26  53  1   
 56  26  54  1   
@<TRIPOS>SUBSTRUCTURE
  1 ****  13 GROUP 4 **** **** 0

# MOE 2024.06 (io_trps.svl 2023.06)
