@<TRIPOS>MOLECULE
1-(4-Chloro-benzyl)-piperidine-4-carboxylic acid
33 34 1 0 0 
SMALL
USER_CHARGES


@<TRIPOS>ATOM
  1 CL      -0.2500    -0.1900     1.4330 Cl    1 <1>  -0.1770 
  2 C       -1.6350    -1.0420     0.8040 C.ar  1 <1>   0.1770 
  3 C       -2.7080    -1.3000     1.6350 C.ar  1 <1>  -0.1500 
  4 C       -1.6400    -1.4470    -0.5170 C.ar  1 <1>  -0.1500 
  5 C       -3.8070    -1.9790     1.1350 C.ar  1 <1>  -0.1500 
  6 C       -2.7400    -2.1260    -1.0150 C.ar  1 <1>  -0.1500 
  7 C       -3.8260    -2.3980    -0.1910 C.ar  1 <1>  -0.1430 
  8 C       -5.0270    -3.1490    -0.7390 C.3   1 <1>   0.4870 
  9 N       -5.0630    -4.5120    -0.1550 N.4   1 <1>  -0.9590 
 10 C       -3.8700    -5.3290    -0.5200 C.3   1 <1>   0.3430 
 11 C       -6.3250    -5.2290    -0.4810 C.3   1 <1>   0.3430 
 12 C       -3.8670    -6.5990     0.3200 C.3   1 <1>  -0.1600 
 13 C       -6.4080    -6.4920     0.3630 C.3   1 <1>  -0.1600 
 14 C       -5.1760    -7.3990     0.1700 C.3   1 <1>  -0.1860 
 15 C       -5.2130    -8.5560     1.1540 C.2   1 <1>   0.9060 
 16 O       -5.1750    -8.2850     2.3580 O.co2 1 <1>  -0.9000 
 17 O       -5.2840    -9.7000     0.7070 O.co2 1 <1>  -0.9000 
 18 H       -2.6770    -0.9690     2.6590 H     1 <1>   0.1500 
 19 H       -0.7920    -1.2270    -1.1420 H     1 <1>   0.1500 
 20 H       -4.6400    -2.1700     1.7910 H     1 <1>   0.1500 
 21 H       -2.7350    -2.4350    -2.0470 H     1 <1>   0.1500 
 22 H       -4.9650    -3.2090    -1.8130 H     1 <1>   0.0800 
 23 H       -5.9250    -2.6140    -0.4780 H     1 <1>   0.0800 
 24 H       -5.0270    -4.4260     0.8690 H     1 <1>   0.4500 
 25 H       -2.9630    -4.7770    -0.3260 H     1 <1>   0.0800 
 26 H       -3.9010    -5.5860    -1.5660 H     1 <1>   0.0800 
 27 H       -6.3420    -5.4920    -1.5260 H     1 <1>   0.0800 
 28 H       -7.1770    -4.6040    -0.2670 H     1 <1>   0.0800 
 29 H       -3.7160    -6.3410     1.3550 H     1 <1>   0.0800 
 30 H       -3.0410    -7.2230     0.0280 H     1 <1>   0.0800 
 31 H       -7.2920    -7.0460     0.1000 H     1 <1>   0.0800 
 32 H       -6.5000    -6.2240     1.4020 H     1 <1>   0.0800 
 33 H       -5.2110    -7.8240    -0.8170 H     1 <1>   0.0800 
@<TRIPOS>BOND
  1   1   2  1   
  2   2   3  ar  
  3   2   4  ar  
  4   3   5  ar  
  5   3  18  1   
  6   4   6  ar  
  7   4  19  1   
  8   5   7  ar  
  9   5  20  1   
 10   6   7  ar  
 11   6  21  1   
 12   7   8  1   
 13   8   9  1   
 14   8  22  1   
 15   8  23  1   
 16   9  10  1   
 17   9  11  1   
 18   9  24  1   
 19  10  12  1   
 20  10  25  1   
 21  10  26  1   
 22  11  13  1   
 23  11  27  1   
 24  11  28  1   
 25  12  14  1   
 26  12  29  1   
 27  12  30  1   
 28  13  14  1   
 29  13  31  1   
 30  13  32  1   
 31  14  15  1   
 32  14  33  1   
 33  15  16  ar  
 34  15  17  ar  
@<TRIPOS>SUBSTRUCTURE
  1 ****   9 GROUP 4 **** **** 0

# MOE 2024.06 (io_trps.svl 2023.06)
