@<TRIPOS>MOLECULE
N-(4-Azepan-1-yl-4-oxo-butyl)-4-methyl-benzenesulfonamide
49 50 1 0 0 
SMALL
USER_CHARGES


@<TRIPOS>ATOM
  1 S        0.5860     0.9830     1.4220 S.o2  1 <1>   1.4470 
  2 O        1.1180     0.2400     2.5410 O.2   1 <1>  -0.6500 
  3 O        0.2650     2.3780     1.6190 O.2   1 <1>  -0.6500 
  4 N        1.7850     0.9880     0.2420 N.am  1 <1>  -0.9140 
  5 C       -0.8190     0.1200     0.6600 C.ar  1 <1>  -0.0090 
  6 C        2.2070    -0.2990    -0.2940 C.3   1 <1>   0.1960 
  7 C       -0.9900    -1.2520     0.8110 C.ar  1 <1>  -0.1500 
  8 C       -1.7420     0.8040    -0.1220 C.ar  1 <1>  -0.1500 
  9 C        3.2460    -0.9800     0.6080 C.3   1 <1>  -0.1600 
 10 C       -2.0430    -1.9160     0.2080 C.ar  1 <1>  -0.1500 
 11 C       -2.8000     0.1460    -0.7260 C.ar  1 <1>  -0.1500 
 12 C        3.8220    -2.2620    -0.0300 C.3   1 <1>  -0.0990 
 13 C       -2.9550    -1.2190    -0.5660 C.ar  1 <1>  -0.1430 
 14 C        2.8440    -3.4290    -0.1830 C.2   1 <1>   0.5690 
 15 C       -4.1120    -1.9440    -1.2280 C.3   1 <1>  -0.0970 
 16 O        1.7000    -3.2650     0.1730 O.2   1 <1>  -0.5700 
 17 N        3.2720    -4.6250    -0.7070 N.am  1 <1>  -0.6600 
 18 C        2.3310    -5.7730    -0.8400 C.3   1 <1>   0.1400 
 19 C        4.6720    -4.9050    -1.1350 C.3   1 <1>   0.1400 
 20 C        2.7020    -6.9220     0.1050 C.3   1 <1>  -0.1600 
 21 C        5.4420    -5.5510     0.0210 C.3   1 <1>  -0.1600 
 22 C        3.9600    -7.6890    -0.3330 C.3   1 <1>  -0.1600 
 23 C        5.2900    -7.0790     0.1410 C.3   1 <1>  -0.1600 
 24 H        2.5770     1.4310     0.6990 H     1 <1>   0.4200 
 25 H        2.6590    -0.1210    -1.2550 H     1 <1>   0.0800 
 26 H        1.3550    -0.9340    -0.4610 H     1 <1>   0.0800 
 27 H       -0.2850    -1.8130     1.4040 H     1 <1>   0.1500 
 28 H       -1.6290     1.8660    -0.2580 H     1 <1>   0.1500 
 29 H        2.8080    -1.2480     1.5530 H     1 <1>   0.0800 
 30 H        4.0560    -0.2960     0.7910 H     1 <1>   0.0800 
 31 H       -2.1420    -2.9790     0.3440 H     1 <1>   0.1500 
 32 H       -3.5000     0.7040    -1.3230 H     1 <1>   0.1500 
 33 H        4.6350    -2.6010     0.5850 H     1 <1>   0.0800 
 34 H        4.2160    -2.0180    -0.9980 H     1 <1>   0.0800 
 35 H       -3.8580    -2.9720    -1.4110 H     1 <1>   0.0800 
 36 H       -4.3540    -1.4830    -2.1690 H     1 <1>   0.0800 
 37 H       -4.9770    -1.9080    -0.5900 H     1 <1>   0.0800 
 38 H        2.3320    -6.1160    -1.8600 H     1 <1>   0.0800 
 39 H        1.3280    -5.4550    -0.6140 H     1 <1>   0.0800 
 40 H        5.1600    -3.9910    -1.4200 H     1 <1>   0.0800 
 41 H        4.6760    -5.5470    -1.9990 H     1 <1>   0.0800 
 42 H        1.8780    -7.6130     0.0980 H     1 <1>   0.0800 
 43 H        2.8000    -6.5570     1.1130 H     1 <1>   0.0800 
 44 H        5.1360    -5.0890     0.9440 H     1 <1>   0.0800 
 45 H        6.4880    -5.3350    -0.1030 H     1 <1>   0.0800 
 46 H        3.9660    -7.7800    -1.4060 H     1 <1>   0.0800 
 47 H        3.9030    -8.6900     0.0600 H     1 <1>   0.0800 
 48 H        5.4420    -7.3450     1.1740 H     1 <1>   0.0800 
 49 H        6.0800    -7.5480    -0.4190 H     1 <1>   0.0800 
@<TRIPOS>BOND
  1   1   2  2   
  2   1   3  2   
  3   1   4  am  
  4   1   5  1   
  5   4   6  1   
  6   4  24  1   
  7   5   7  ar  
  8   5   8  ar  
  9   6   9  1   
 10   6  25  1   
 11   6  26  1   
 12   7  10  ar  
 13   7  27  1   
 14   8  11  ar  
 15   8  28  1   
 16   9  12  1   
 17   9  29  1   
 18   9  30  1   
 19  10  13  ar  
 20  10  31  1   
 21  11  13  ar  
 22  11  32  1   
 23  12  14  1   
 24  12  33  1   
 25  12  34  1   
 26  13  15  1   
 27  14  16  2   
 28  14  17  am  
 29  15  35  1   
 30  15  36  1   
 31  15  37  1   
 32  17  18  1   
 33  17  19  1   
 34  18  20  1   
 35  18  38  1   
 36  18  39  1   
 37  19  21  1   
 38  19  40  1   
 39  19  41  1   
 40  20  22  1   
 41  20  42  1   
 42  20  43  1   
 43  21  23  1   
 44  21  44  1   
 45  21  45  1   
 46  22  23  1   
 47  22  46  1   
 48  22  47  1   
 49  23  48  1   
 50  23  49  1   
@<TRIPOS>SUBSTRUCTURE
  1 ****  16 GROUP 4 **** **** 0

# MOE 2024.06 (io_trps.svl 2023.06)
