@<TRIPOS>MOLECULE
2,2-Dimethyl-10-methylsulfanyl-5-morpholin-4-yl-1,4-dihydro-2H,9H-3-oxa-7-thia-6
50 54 1 0 0 
SMALL
USER_CHARGES


@<TRIPOS>ATOM
  1 S       -0.3640    -0.0810    -1.3790 S.3   1 <1>  -0.0800 
  2 C       -1.8520     0.6640    -0.7740 C.ar  1 <1>   0.2970 
  3 C        0.5670     1.3980    -1.0720 C.2   1 <1>  -0.0450 
  4 N       -2.9770    -0.0180    -0.7400 N.ar  1 <1>  -0.5670 
  5 C       -1.6180     1.9800    -0.3810 C.ar  1 <1>   0.0000 
  6 C        1.9500     1.6060    -1.3060 C.2   1 <1>   0.8660 
  7 C       -0.2380     2.3520    -0.5510 C.2   1 <1>   0.0830 
  8 C       -4.0020     0.6710    -0.2590 C.ar  1 <1>   0.4100 
  9 C       -2.7200     2.6890     0.0950 C.ar  1 <1>  -0.1430 
 10 O        2.6720     0.7420    -1.7830 O.2   1 <1>  -0.5700 
 11 N        2.5100     2.8150    -0.9890 N.2   1 <1>  -0.6610 
 12 N        0.3880     3.5370    -0.2460 N.pl3 1 <1>  -0.5330 
 13 N       -5.2020    -0.0010    -0.1880 N.pl3 1 <1>  -0.8380 
 14 C       -3.9160     2.0060     0.1650 C.ar  1 <1>  -0.1430 
 15 C       -2.6560     4.1450     0.5380 C.3   1 <1>  -0.0170 
 16 C        1.7160     3.6910    -0.4870 C.2   1 <1>   0.6410 
 17 C       -5.3600    -0.9420     0.9570 C.3   1 <1>   0.2090 
 18 C       -5.7190    -0.6080    -1.4490 C.3   1 <1>   0.2090 
 19 C       -5.1790     2.6870     0.6850 C.3   1 <1>   0.2640 
 20 C       -4.0500     4.7970     0.6150 C.3   1 <1>   0.2800 
 21 S        2.3420     5.2870    -0.0360 S.3   1 <1>  -0.3710 
 22 C       -6.8110    -1.4480     1.0490 C.3   1 <1>   0.1200 
 23 C       -7.1550    -1.1270    -1.2520 C.3   1 <1>   0.1200 
 24 O       -4.9130     3.9300     1.2810 O.3   1 <1>  -0.5600 
 25 C       -4.0010     6.0640     1.4690 C.3   1 <1>  -0.2400 
 26 C       -4.6200     5.1440    -0.7700 C.3   1 <1>  -0.2400 
 27 C        4.1410     5.2150    -0.4640 C.3   1 <1>  -0.0100 
 28 O       -7.2300    -2.0100    -0.1650 O.3   1 <1>  -0.5600 
 29 H       -0.1050     4.3200     0.1830 H     1 <1>   0.4000 
 30 H       -2.0580     4.7150    -0.1470 H     1 <1>   0.0800 
 31 H       -2.1920     4.1840     1.5070 H     1 <1>   0.0800 
 32 H       -5.0910    -0.4450     1.8720 H     1 <1>   0.0800 
 33 H       -4.6970    -1.7810     0.8250 H     1 <1>   0.0800 
 34 H       -5.0840    -1.4250    -1.7440 H     1 <1>   0.0800 
 35 H       -5.7030     0.1280    -2.2330 H     1 <1>   0.0800 
 36 H       -5.6460     2.0730     1.4340 H     1 <1>   0.0800 
 37 H       -5.8810     2.8330    -0.1160 H     1 <1>   0.0800 
 38 H       -7.4740    -0.6390     1.2990 H     1 <1>   0.0800 
 39 H       -6.8900    -2.2080     1.8060 H     1 <1>   0.0800 
 40 H       -7.4790    -1.6590    -2.1290 H     1 <1>   0.0800 
 41 H       -7.8280    -0.3070    -1.0750 H     1 <1>   0.0800 
 42 H       -3.6630     5.8330     2.4630 H     1 <1>   0.0800 
 43 H       -4.9800     6.5050     1.5320 H     1 <1>   0.0800 
 44 H       -3.3310     6.7850     1.0360 H     1 <1>   0.0800 
 45 H       -4.5890     4.2990    -1.4330 H     1 <1>   0.0800 
 46 H       -4.0390     5.9280    -1.2190 H     1 <1>   0.0800 
 47 H       -5.6350     5.4880    -0.6770 H     1 <1>   0.0800 
 48 H        4.5800     6.1630    -0.2110 H     1 <1>   0.0800 
 49 H        4.2230     5.0210    -1.5190 H     1 <1>   0.0800 
 50 H        4.5860     4.4190     0.1060 H     1 <1>   0.0800 
@<TRIPOS>BOND
  1   1   2  1   
  2   1   3  1   
  3   2   4  ar  
  4   2   5  ar  
  5   3   6  1   
  6   3   7  2   
  7   4   8  ar  
  8   5   7  1   
  9   5   9  ar  
 10   6  10  2   
 11   6  11  1   
 12   7  12  1   
 13   8  13  1   
 14   8  14  ar  
 15   9  14  ar  
 16   9  15  1   
 17  11  16  2   
 18  12  16  1   
 19  12  29  1   
 20  13  17  1   
 21  13  18  1   
 22  14  19  1   
 23  15  20  1   
 24  15  30  1   
 25  15  31  1   
 26  16  21  1   
 27  17  22  1   
 28  17  32  1   
 29  17  33  1   
 30  18  23  1   
 31  18  34  1   
 32  18  35  1   
 33  19  24  1   
 34  19  36  1   
 35  19  37  1   
 36  20  24  1   
 37  20  25  1   
 38  20  26  1   
 39  21  27  1   
 40  22  28  1   
 41  22  38  1   
 42  22  39  1   
 43  23  28  1   
 44  23  40  1   
 45  23  41  1   
 46  25  42  1   
 47  25  43  1   
 48  25  44  1   
 49  26  45  1   
 50  26  46  1   
 51  26  47  1   
 52  27  48  1   
 53  27  49  1   
 54  27  50  1   
@<TRIPOS>SUBSTRUCTURE
  1 ****   5 GROUP 4 **** **** 0

# MOE 2024.06 (io_trps.svl 2023.06)
