@<TRIPOS>MOLECULE
N-(3-Chloro-4-fluoro-phenyl)-N-(2-morpholin-4-yl-2-oxo-ethyl)-methanesulfonamide
38 39 1 0 0 
SMALL
USER_CHARGES


@<TRIPOS>ATOM
  1 CL       1.6810     3.1820     0.2210 Cl    1 <1>  -0.1770 
  2 C        2.7990     1.9470     0.7540 C.ar  1 <1>   0.1770 
  3 C        2.9760     1.6800     2.1010 C.ar  1 <1>   0.1900 
  4 C        3.5080     1.2270    -0.1870 C.ar  1 <1>  -0.1500 
  5 F        2.3040     2.3570     2.9990 F     1 <1>  -0.1900 
  6 C        3.8560     0.7040     2.5280 C.ar  1 <1>  -0.1500 
  7 C        4.3980     0.2320     0.2120 C.ar  1 <1>   0.1990 
  8 C        4.5640    -0.0130     1.5780 C.ar  1 <1>  -0.1500 
  9 N        5.1040    -0.4810    -0.7580 N.am  1 <1>  -0.6930 
 10 S        5.3000    -2.2010    -0.7400 S.o2  1 <1>   1.3330 
 11 C        6.0060     0.2730    -1.6940 C.3   1 <1>   0.2570 
 12 O        6.0690    -2.5280     0.4360 O.2   1 <1>  -0.6500 
 13 O        5.7840    -2.5680    -2.0470 O.2   1 <1>  -0.6500 
 14 C        3.6260    -2.7840    -0.5760 C.3   1 <1>  -0.1350 
 15 C        6.7020     1.4840    -1.0590 C.2   1 <1>   0.5690 
 16 O        6.3680     2.5780    -1.4540 O.2   1 <1>  -0.5700 
 17 N        7.6550     1.3360    -0.0790 N.am  1 <1>  -0.6600 
 18 C        8.2360     2.5180     0.6260 C.3   1 <1>   0.1400 
 19 C        8.1430     0.0270     0.4610 C.3   1 <1>   0.1400 
 20 C        9.7580     2.3750     0.7800 C.3   1 <1>   0.1200 
 21 C        9.6700     0.0360     0.6440 C.3   1 <1>   0.1200 
 22 O       10.0790     1.1530     1.3810 O.3   1 <1>  -0.5600 
 23 H        3.3700     1.4440    -1.2300 H     1 <1>   0.1500 
 24 H        3.9840     0.5160     3.5800 H     1 <1>   0.1500 
 25 H        5.2600    -0.7610     1.9100 H     1 <1>   0.1500 
 26 H        5.4230     0.6150    -2.5300 H     1 <1>   0.0800 
 27 H        6.7710    -0.3720    -2.0840 H     1 <1>   0.0800 
 28 H        3.1990    -2.4420     0.3460 H     1 <1>   0.0800 
 29 H        3.6100    -3.8560    -0.5850 H     1 <1>   0.0800 
 30 H        3.0280    -2.4250    -1.3910 H     1 <1>   0.0800 
 31 H        7.7890     2.6010     1.6010 H     1 <1>   0.0800 
 32 H        8.0210     3.4240     0.0870 H     1 <1>   0.0800 
 33 H        7.8890    -0.7820    -0.1970 H     1 <1>   0.0800 
 34 H        7.6770    -0.1610     1.4120 H     1 <1>   0.0800 
 35 H       10.1420     3.1600     1.4060 H     1 <1>   0.0800 
 36 H       10.2420     2.4280    -0.1790 H     1 <1>   0.0800 
 37 H       10.1670     0.0540    -0.3110 H     1 <1>   0.0800 
 38 H        9.9830    -0.8430     1.1790 H     1 <1>   0.0800 
@<TRIPOS>BOND
  1   1   2  1   
  2   2   3  ar  
  3   2   4  ar  
  4   3   5  1   
  5   3   6  ar  
  6   4   7  ar  
  7   4  23  1   
  8   6   8  ar  
  9   6  24  1   
 10   7   8  ar  
 11   7   9  1   
 12   8  25  1   
 13   9  10  am  
 14   9  11  1   
 15  10  12  2   
 16  10  13  2   
 17  10  14  1   
 18  11  15  1   
 19  11  26  1   
 20  11  27  1   
 21  14  28  1   
 22  14  29  1   
 23  14  30  1   
 24  15  16  2   
 25  15  17  am  
 26  17  18  1   
 27  17  19  1   
 28  18  20  1   
 29  18  31  1   
 30  18  32  1   
 31  19  21  1   
 32  19  33  1   
 33  19  34  1   
 34  20  22  1   
 35  20  35  1   
 36  20  36  1   
 37  21  22  1   
 38  21  37  1   
 39  21  38  1   
@<TRIPOS>SUBSTRUCTURE
  1 ****   7 GROUP 4 **** **** 0

# MOE 2024.06 (io_trps.svl 2023.06)
