@<TRIPOS>MOLECULE
Thiophene-2-sulfonic acid [4-(azepane-1-sulfonyl)-phenyl]-amide
45 47 1 0 0 
SMALL
USER_CHARGES


@<TRIPOS>ATOM
  1 S       -0.6790     0.7470     1.7960 S.o2  1 <1>   1.4470 
  2 O       -1.2000    -0.5960     1.9280 O.2   1 <1>  -0.6500 
  3 O        0.0210     1.3470     2.9130 O.2   1 <1>  -0.6500 
  4 N        0.3940     0.7650     0.4800 N.am  1 <1>  -0.8490 
  5 C       -2.0230     1.8370     1.2540 C.ar  1 <1>  -0.0090 
  6 C        1.0870     2.0550     0.3730 C.3   1 <1>   0.1960 
  7 C        1.3100    -0.3790     0.5430 C.3   1 <1>   0.1960 
  8 C       -2.5790     2.7810     2.1090 C.ar  1 <1>  -0.1500 
  9 C       -2.5410     1.7520    -0.0330 C.ar  1 <1>  -0.1500 
 10 C        1.4950     2.3230    -1.0780 C.3   1 <1>  -0.1600 
 11 C        2.1640    -0.5540    -0.7200 C.3   1 <1>  -0.1600 
 12 C       -3.6100     3.6060     1.6960 C.ar  1 <1>  -0.1500 
 13 C       -3.5690     2.5770    -0.4520 C.ar  1 <1>  -0.1500 
 14 C        2.8870     1.8020    -1.4690 C.3   1 <1>  -0.1600 
 15 C        3.3040     0.4680    -0.8350 C.3   1 <1>  -0.1600 
 16 C       -4.1280     3.5140     0.4100 C.ar  1 <1>   0.1990 
 17 N       -5.1680     4.3530     0.0440 N.am  1 <1>  -0.7570 
 18 S       -6.4060     4.0950    -1.1190 S.o2  1 <1>   1.5000 
 19 O       -7.2260     5.2720    -0.9700 O.2   1 <1>  -0.6500 
 20 O       -5.7710     3.7920    -2.3790 O.2   1 <1>  -0.6500 
 21 C       -7.2970     2.6720    -0.4440 C.2   1 <1>  -0.0220 
 22 S       -6.7010     1.0560    -0.8230 S.3   1 <1>  -0.0800 
 23 C       -8.3740     2.5690     0.3630 C.2   1 <1>  -0.1500 
 24 C       -7.9550     0.2970     0.1390 C.2   1 <1>  -0.1100 
 25 C       -8.7500     1.2280     0.6930 C.2   1 <1>  -0.1500 
 26 H        1.9330     2.0980     1.0390 H     1 <1>   0.0800 
 27 H        0.4120     2.8430     0.6600 H     1 <1>   0.0800 
 28 H        0.7300    -1.2810     0.6540 H     1 <1>   0.0800 
 29 H        1.9410    -0.2950     1.4130 H     1 <1>   0.0800 
 30 H       -2.1970     2.8690     3.1140 H     1 <1>   0.1500 
 31 H       -2.1280     1.0280    -0.7170 H     1 <1>   0.1500 
 32 H        1.4880     3.3860    -1.2420 H     1 <1>   0.0800 
 33 H        0.7500     1.9030    -1.7320 H     1 <1>   0.0800 
 34 H        1.5390    -0.5440    -1.5960 H     1 <1>   0.0800 
 35 H        2.6100    -1.5310    -0.6620 H     1 <1>   0.0800 
 36 H       -4.0170     4.3260     2.3820 H     1 <1>   0.1500 
 37 H       -3.9250     2.4830    -1.4610 H     1 <1>   0.1500 
 38 H        3.6250     2.5400    -1.2050 H     1 <1>   0.0800 
 39 H        2.9140     1.7010    -2.5410 H     1 <1>   0.0800 
 40 H        4.0900     0.0460    -1.4370 H     1 <1>   0.0800 
 41 H        3.7220     0.6460     0.1420 H     1 <1>   0.0800 
 42 H       -5.4530     5.0910     0.6780 H     1 <1>   0.4200 
 43 H       -8.9340     3.4050     0.7490 H     1 <1>   0.1500 
 44 H       -7.9610    -0.7780     0.1870 H     1 <1>   0.1500 
 45 H       -9.5960     1.0290     1.3290 H     1 <1>   0.1500 
@<TRIPOS>BOND
  1   1   2  2   
  2   1   3  2   
  3   1   4  am  
  4   1   5  1   
  5   4   6  1   
  6   4   7  1   
  7   5   8  ar  
  8   5   9  ar  
  9   6  10  1   
 10   6  26  1   
 11   6  27  1   
 12   7  11  1   
 13   7  28  1   
 14   7  29  1   
 15   8  12  ar  
 16   8  30  1   
 17   9  13  ar  
 18   9  31  1   
 19  10  14  1   
 20  10  32  1   
 21  10  33  1   
 22  11  15  1   
 23  11  34  1   
 24  11  35  1   
 25  12  16  ar  
 26  12  36  1   
 27  13  16  ar  
 28  13  37  1   
 29  14  15  1   
 30  14  38  1   
 31  14  39  1   
 32  15  40  1   
 33  15  41  1   
 34  16  17  1   
 35  17  18  am  
 36  17  42  1   
 37  18  19  2   
 38  18  20  2   
 39  18  21  1   
 40  21  22  1   
 41  21  23  2   
 42  22  24  1   
 43  23  25  1   
 44  23  43  1   
 45  24  25  2   
 46  24  44  1   
 47  25  45  1   
@<TRIPOS>SUBSTRUCTURE
  1 ****   9 GROUP 4 **** **** 0

# MOE 2024.06 (io_trps.svl 2023.06)
