@<TRIPOS>MOLECULE
N-(5-Ethoxymethyl-[1,3,4]thiadiazol-2-yl)-3-phenylsulfanyl-propionamide
38 39 1 0 0 
SMALL
USER_CHARGES


@<TRIPOS>ATOM
  1 S       -0.2290     0.2890     0.1180 S.3   1 <1>  -0.0800 
  2 C       -1.5390    -0.2710    -0.8680 C.2   1 <1>   0.4420 
  3 C        0.1600     1.3960    -1.1550 C.2   1 <1>   0.1980 
  4 N       -1.5950     0.3410    -1.9950 N.2   1 <1>  -0.3380 
  5 N       -2.3290    -1.2650    -0.3310 N.am  1 <1>  -0.4940 
  6 N       -0.6240     1.2910    -2.1520 N.2   1 <1>  -0.3380 
  7 C        1.3470     2.3260    -0.9750 C.3   1 <1>   0.3000 
  8 C       -3.3770    -1.9340    -0.8940 C.2   1 <1>   0.5690 
  9 O        1.2910     2.9470     0.2770 O.3   1 <1>  -0.5600 
 10 O       -3.7340    -1.7830    -2.0330 O.2   1 <1>  -0.5700 
 11 C       -4.1210    -2.9290    -0.0290 C.3   1 <1>  -0.0990 
 12 C        2.3090     3.8630     0.5030 C.3   1 <1>   0.1200 
 13 C       -5.6310    -2.8300    -0.2530 C.3   1 <1>   0.0700 
 14 C        2.1100     4.4280     1.9040 C.3   1 <1>  -0.2400 
 15 S       -6.4550    -3.9750     0.9380 S.3   1 <1>  -0.3310 
 16 C       -8.2280    -3.8200     0.6500 C.ar  1 <1>   0.1010 
 17 C       -9.0620    -4.5680     1.4620 C.ar  1 <1>  -0.1500 
 18 C       -8.7480    -2.9950    -0.3350 C.ar  1 <1>  -0.1500 
 19 C      -10.4340    -4.4900     1.2900 C.ar  1 <1>  -0.1500 
 20 C      -10.1210    -2.9210    -0.5020 C.ar  1 <1>  -0.1500 
 21 C      -10.9610    -3.6660     0.3090 C.ar  1 <1>  -0.1500 
 22 H       -2.0940    -1.5200     0.6230 H     1 <1>   0.3700 
 23 H        1.3280     3.0840    -1.7390 H     1 <1>   0.0800 
 24 H        2.2610     1.7640    -1.0400 H     1 <1>   0.0800 
 25 H       -3.9080    -2.7470     1.0080 H     1 <1>   0.0800 
 26 H       -3.7900    -3.9200    -0.2820 H     1 <1>   0.0800 
 27 H        2.2450     4.6470    -0.2330 H     1 <1>   0.0800 
 28 H        3.2580     3.3590     0.4300 H     1 <1>   0.0800 
 29 H       -5.9020    -3.1380    -1.2480 H     1 <1>   0.0800 
 30 H       -5.9960    -1.8370    -0.0530 H     1 <1>   0.0800 
 31 H        1.1540     4.9160     1.9730 H     1 <1>   0.0800 
 32 H        2.8790     5.1460     2.1200 H     1 <1>   0.0800 
 33 H        2.1620     3.6380     2.6320 H     1 <1>   0.0800 
 34 H       -8.6400    -5.2030     2.2200 H     1 <1>   0.1500 
 35 H       -8.1120    -2.4120    -0.9730 H     1 <1>   0.1500 
 36 H      -11.0890    -5.0680     1.9190 H     1 <1>   0.1500 
 37 H      -10.5360    -2.2840    -1.2640 H     1 <1>   0.1500 
 38 H      -12.0280    -3.6060     0.1760 H     1 <1>   0.1500 
@<TRIPOS>BOND
  1   1   2  1   
  2   1   3  1   
  3   2   4  2   
  4   2   5  1   
  5   3   6  2   
  6   3   7  1   
  7   4   6  1   
  8   5   8  am  
  9   5  22  1   
 10   7   9  1   
 11   7  23  1   
 12   7  24  1   
 13   8  10  2   
 14   8  11  1   
 15   9  12  1   
 16  11  13  1   
 17  11  25  1   
 18  11  26  1   
 19  12  14  1   
 20  12  27  1   
 21  12  28  1   
 22  13  15  1   
 23  13  29  1   
 24  13  30  1   
 25  14  31  1   
 26  14  32  1   
 27  14  33  1   
 28  15  16  1   
 29  16  17  ar  
 30  16  18  ar  
 31  17  19  ar  
 32  17  34  1   
 33  18  20  ar  
 34  18  35  1   
 35  19  21  ar  
 36  19  36  1   
 37  20  21  ar  
 38  20  37  1   
 39  21  38  1   
@<TRIPOS>SUBSTRUCTURE
  1 ****   8 GROUP 4 **** **** 0

# MOE 2024.06 (io_trps.svl 2023.06)
