@<TRIPOS>MOLECULE
8-(2,4-Dimethoxy-phenyl)-1,6-dimethyl-3-(2-methyl-allyl)-5,6,7,8-tetrahydro-1H-1
59 62 1 0 0 
SMALL
USER_CHARGES


@<TRIPOS>ATOM
  1 O        1.4930     0.4430     2.0480 O.2   1 <1>  -0.5740 
  2 C        2.3200     1.1450     1.5040 C.2   1 <1>   0.6870 
  3 N        2.0380     2.4750     1.2220 N.am  1 <1>  -0.4250 
  4 N        3.5640     0.6180     1.1810 N.am  1 <1>  -0.4410 
  5 C        3.0100     3.3370     0.7420 C.2   1 <1>   0.7000 
  6 C        0.6370     2.9600     1.3220 C.3   1 <1>   0.2730 
  7 C        4.5140     1.4710     0.6540 C.2   1 <1>   0.4210 
  8 C        3.8730    -0.8220     1.4230 C.3   1 <1>   0.0530 
  9 O        2.7930     4.5300     0.6070 O.2   1 <1>  -0.5740 
 10 C        4.2920     2.7850     0.4300 C.2   1 <1>   0.2720 
 11 C       -0.0910     2.8500    -0.0200 C.2   1 <1>  -0.2820 
 12 N        5.7960     1.1820     0.2970 N.pl3 1 <1>  -0.7030 
 13 N        5.4920     3.3010    -0.0810 N.pl3 1 <1>  -0.7670 
 14 C        0.3600     2.2480    -1.1290 C.2   1 <1>  -0.3050 
 15 C       -1.4590     3.5140     0.0130 C.3   1 <1>  -0.1080 
 16 C        6.3680     2.3040    -0.1340 C.cat 1 <1>   1.0690 
 17 C        5.7740     4.7000    -0.4610 C.3   1 <1>   0.3490 
 18 N        7.6330     2.4580    -0.5730 N.pl3 1 <1>  -0.5790 
 19 C        7.0070     4.7390    -1.3810 C.3   1 <1>  -0.0870 
 20 C        8.5620     1.3990    -0.6600 C.ar  1 <1>   0.3060 
 21 C        8.1350     3.8350    -0.8460 C.3   1 <1>   0.1620 
 22 C        7.5110     6.1790    -1.5630 C.3   1 <1>  -0.2460 
 23 C        8.9380     0.6420     0.4600 C.ar  1 <1>   0.0760 
 24 C        9.1200     1.0930    -1.8940 C.ar  1 <1>  -0.1560 
 25 O        8.3650     0.9500     1.6610 O.3   1 <1>  -0.3670 
 26 C        9.8600    -0.3910     0.3280 C.ar  1 <1>  -0.1560 
 27 C       10.0350     0.0650    -2.0200 C.ar  1 <1>  -0.1560 
 28 C        8.9870     0.5750     2.8760 C.3   1 <1>   0.0330 
 29 C       10.4110    -0.6790    -0.9160 C.ar  1 <1>   0.0760 
 30 O       11.3150    -1.6680    -1.1340 O.3   1 <1>  -0.3670 
 31 C       11.8270    -2.4470    -0.0760 C.3   1 <1>   0.0330 
 32 H        0.6390     3.9880     1.6420 H     1 <1>   0.0730 
 33 H        0.0990     2.3990     2.0670 H     1 <1>   0.0730 
 34 H        2.9660    -1.4030     1.4500 H     1 <1>   0.0730 
 35 H        4.3780    -0.9310     2.3670 H     1 <1>   0.0730 
 36 H        4.4930    -1.2110     0.6360 H     1 <1>   0.0730 
 37 H        6.3190     0.3220     0.4420 H     1 <1>   0.4460 
 38 H       -0.2010     2.2020    -2.0470 H     1 <1>   0.1440 
 39 H        1.3040     1.7480    -1.2320 H     1 <1>   0.1440 
 40 H       -2.0790     3.0560     0.7640 H     1 <1>   0.0730 
 41 H       -1.9550     3.4150    -0.9370 H     1 <1>   0.0730 
 42 H       -1.3610     4.5620     0.2340 H     1 <1>   0.0730 
 43 H        5.9570     5.2750     0.4320 H     1 <1>   0.0730 
 44 H        4.9230     5.1250    -0.9690 H     1 <1>   0.0730 
 45 H        6.7150     4.3750    -2.3520 H     1 <1>   0.0730 
 46 H        8.9350     3.7990    -1.5670 H     1 <1>   0.0730 
 47 H        8.5310     4.2450     0.0680 H     1 <1>   0.0730 
 48 H        7.8260     6.6010    -0.6240 H     1 <1>   0.0730 
 49 H        6.7330     6.8020    -1.9720 H     1 <1>   0.0730 
 50 H        8.3450     6.2020    -2.2430 H     1 <1>   0.0730 
 51 H        8.8410     1.6560    -2.7670 H     1 <1>   0.1440 
 52 H       10.1460    -0.9750     1.1800 H     1 <1>   0.1440 
 53 H       10.4680    -0.1710    -2.9780 H     1 <1>   0.1440 
 54 H        8.4760     1.0700     3.6830 H     1 <1>   0.0730 
 55 H       10.0170     0.8860     2.8560 H     1 <1>   0.0730 
 56 H        8.9110    -0.4900     3.0000 H     1 <1>   0.0730 
 57 H       12.5430    -3.1370    -0.4870 H     1 <1>   0.0730 
 58 H       11.0200    -2.9900     0.3830 H     1 <1>   0.0730 
 59 H       12.3120    -1.8000     0.6330 H     1 <1>   0.0730 
@<TRIPOS>BOND
  1   1   2  2   
  2   2   3  am  
  3   2   4  am  
  4   3   5  am  
  5   3   6  1   
  6   4   7  1   
  7   4   8  1   
  8   5   9  2   
  9   5  10  1   
 10   6  11  1   
 11   6  32  1   
 12   6  33  1   
 13   7  10  2   
 14   7  12  1   
 15   8  34  1   
 16   8  35  1   
 17   8  36  1   
 18  10  13  1   
 19  11  14  2   
 20  11  15  1   
 21  12  16  ar  
 22  12  37  1   
 23  13  16  ar  
 24  13  17  1   
 25  14  38  1   
 26  14  39  1   
 27  15  40  1   
 28  15  41  1   
 29  15  42  1   
 30  16  18  ar  
 31  17  19  1   
 32  17  43  1   
 33  17  44  1   
 34  18  20  1   
 35  18  21  1   
 36  19  21  1   
 37  19  22  1   
 38  19  45  1   
 39  20  23  ar  
 40  20  24  ar  
 41  21  46  1   
 42  21  47  1   
 43  22  48  1   
 44  22  49  1   
 45  22  50  1   
 46  23  25  1   
 47  23  26  ar  
 48  24  27  ar  
 49  24  51  1   
 50  25  28  1   
 51  26  29  ar  
 52  26  52  1   
 53  27  29  ar  
 54  27  53  1   
 55  28  54  1   
 56  28  55  1   
 57  28  56  1   
 58  29  30  1   
 59  30  31  1   
 60  31  57  1   
 61  31  58  1   
 62  31  59  1   
@<TRIPOS>SUBSTRUCTURE
  1 ****  12 GROUP 4 **** **** 0

# MOE 2024.06 (io_trps.svl 2023.06)
