@<TRIPOS>MOLECULE
4-Pyridin-3-ylmethyl-4-aza-tricyclo[5.2.1.0*2,6*]dec-8-ene-3,5-dione
33 36 1 0 0 
SMALL
USER_CHARGES


@<TRIPOS>ATOM
  1 O       -0.2360     0.4840     1.4170 O.2   1 <1>  -0.5700 
  2 C       -0.1990     1.3470     0.5770 C.2   1 <1>   0.5690 
  3 N        0.8690     2.1420     0.3110 N.am  1 <1>  -0.4200 
  4 C       -1.3640     1.6950    -0.3260 C.3   1 <1>  -0.0190 
  5 C        0.6010     3.0440    -0.6670 C.2   1 <1>   0.5690 
  6 C        2.1870     1.9930     0.9480 C.3   1 <1>   0.2840 
  7 C       -0.8110     2.8680    -1.1870 C.3   1 <1>  -0.0190 
  8 C       -2.5650     2.3310     0.4050 C.3   1 <1>   0.0580 
  9 O        1.3670     3.8800    -1.0710 O.2   1 <1>  -0.5700 
 10 C        3.0140     1.0020     0.1520 C.ar  1 <1>  -0.1440 
 11 C       -1.7630     4.0340    -0.8440 C.3   1 <1>   0.0580 
 12 C       -3.5840     2.6310    -0.6800 C.2   1 <1>  -0.2880 
 13 C       -2.0670     3.7600     0.6300 C.3   1 <1>  -0.1600 
 14 C        3.8150     1.4360    -0.8950 C.ar  1 <1>   0.1600 
 15 C        2.9770    -0.3460     0.4500 C.ar  1 <1>  -0.1500 
 16 C       -3.1110     3.6340    -1.4160 C.2   1 <1>  -0.2880 
 17 N        4.5750     0.6490    -1.6410 N.ar  1 <1>  -0.6200 
 18 C        3.7600    -1.1780    -0.3200 C.ar  1 <1>  -0.1500 
 19 C        4.5300    -0.6370    -1.3360 C.ar  1 <1>   0.1600 
 20 H       -1.6510     0.8450    -0.9190 H     1 <1>   0.0800 
 21 H        2.0600     1.6420     1.9580 H     1 <1>   0.0800 
 22 H        2.6820     2.9480     0.9840 H     1 <1>   0.0800 
 23 H       -0.8030     2.6440    -2.2380 H     1 <1>   0.0800 
 24 H       -2.9380     1.8220     1.2770 H     1 <1>   0.0800 
 25 H       -1.4260     5.0300    -1.0760 H     1 <1>   0.0800 
 26 H       -4.4920     2.0570    -0.7600 H     1 <1>   0.1500 
 27 H       -1.2090     3.8280     1.2750 H     1 <1>   0.0800 
 28 H       -2.8480     4.4020     1.0040 H     1 <1>   0.0800 
 29 H        3.8310     2.4870    -1.1350 H     1 <1>   0.1500 
 30 H        2.3610    -0.7350     1.2440 H     1 <1>   0.1500 
 31 H       -3.5140     4.1320    -2.2820 H     1 <1>   0.1500 
 32 H        3.7750    -2.2370    -0.1370 H     1 <1>   0.1500 
 33 H        5.1390    -1.2980    -1.9300 H     1 <1>   0.1500 
@<TRIPOS>BOND
  1   1   2  2   
  2   2   3  am  
  3   2   4  1   
  4   3   5  am  
  5   3   6  1   
  6   4   7  1   
  7   4   8  1   
  8   4  20  1   
  9   5   7  1   
 10   5   9  2   
 11   6  10  1   
 12   6  21  1   
 13   6  22  1   
 14   7  11  1   
 15   7  23  1   
 16   8  12  1   
 17   8  13  1   
 18   8  24  1   
 19  10  14  ar  
 20  10  15  ar  
 21  11  13  1   
 22  11  16  1   
 23  11  25  1   
 24  12  16  2   
 25  12  26  1   
 26  13  27  1   
 27  13  28  1   
 28  14  17  ar  
 29  14  29  1   
 30  15  18  ar  
 31  15  30  1   
 32  16  31  1   
 33  17  19  ar  
 34  18  19  ar  
 35  18  32  1   
 36  19  33  1   
@<TRIPOS>SUBSTRUCTURE
  1 ****   3 GROUP 4 **** **** 0

# MOE 2024.06 (io_trps.svl 2023.06)
