@<TRIPOS>MOLECULE
2-(3,5-Dimethyl-pyrazol-1-yl)-6-methyl-4-trifluoromethyl-5,6,7,8-tetrahydro-quin
39 41 1 0 0 
SMALL
USER_CHARGES


@<TRIPOS>ATOM
  1 F       -0.8540    -0.3020    -2.6790 F     1 <1>  -0.3400 
  2 C       -1.8870    -0.5700    -1.8840 C.3   1 <1>   1.1640 
  3 F       -2.0380     0.5050    -1.1150 F     1 <1>  -0.3400 
  4 F       -2.9500    -0.5960    -2.6860 F     1 <1>  -0.3400 
  5 C       -1.7350    -1.8810    -1.0520 C.ar  1 <1>   0.1660 
  6 N       -0.5640    -2.5050    -1.0740 N.ar  1 <1>  -0.6200 
  7 C       -2.7860    -2.3990    -0.3030 C.ar  1 <1>  -0.1440 
  8 C       -0.4250    -3.6240    -0.3600 C.ar  1 <1>   0.5970 
  9 C       -2.5570    -3.5780     0.3820 C.ar  1 <1>   0.1660 
 10 C       -4.1640    -1.7220    -0.2340 C.3   1 <1>  -0.0170 
 11 N       -1.3990    -4.1870     0.3550 N.ar  1 <1>  -0.6200 
 12 N        0.8550    -4.2870    -0.3850 N.pl3 1 <1>   0.5930 
 13 C       -3.6190    -4.2580     1.2350 C.3   1 <1>  -0.0170 
 14 C       -5.0270    -2.2010     0.9410 C.3   1 <1>  -0.0800 
 15 N        2.0010    -3.8030     0.1990 N.2   1 <1>  -0.7070 
 16 C        1.1410    -5.4850    -0.9880 C.2   1 <1>  -0.3320 
 17 C       -5.0350    -3.7310     0.9850 C.3   1 <1>  -0.1600 
 18 C       -6.4570    -1.6550     0.8270 C.3   1 <1>  -0.2400 
 19 C        2.9210    -4.6740    -0.0460 C.2   1 <1>   0.1080 
 20 C        2.4470    -5.7500    -0.7850 C.2   1 <1>  -0.1500 
 21 C        0.1200    -6.3250    -1.7400 C.3   1 <1>  -0.0600 
 22 C        4.3440    -4.5050     0.4330 C.3   1 <1>  -0.0590 
 23 H       -4.6850    -1.9250    -1.1540 H     1 <1>   0.0800 
 24 H       -4.0570    -0.6560    -0.1430 H     1 <1>   0.0800 
 25 H       -3.3590    -4.1030     2.2670 H     1 <1>   0.0800 
 26 H       -3.5990    -5.3170     1.0510 H     1 <1>   0.0800 
 27 H       -4.5960    -1.8320     1.8580 H     1 <1>   0.0800 
 28 H       -5.6860    -4.0810     1.7680 H     1 <1>   0.0800 
 29 H       -5.4010    -4.1190     0.0490 H     1 <1>   0.0800 
 30 H       -6.9330    -2.0120    -0.0700 H     1 <1>   0.0800 
 31 H       -6.4460    -0.5800     0.8050 H     1 <1>   0.0800 
 32 H       -7.0440    -1.9680     1.6720 H     1 <1>   0.0800 
 33 H        3.0250    -6.5970    -1.1100 H     1 <1>   0.1500 
 34 H       -0.2990    -5.7590    -2.5540 H     1 <1>   0.0800 
 35 H       -0.6740    -6.6250    -1.0790 H     1 <1>   0.0800 
 36 H        0.5860    -7.2080    -2.1400 H     1 <1>   0.0800 
 37 H        4.3520    -4.4150     1.5040 H     1 <1>   0.0800 
 38 H        4.7610    -3.6120     0.0060 H     1 <1>   0.0800 
 39 H        4.9420    -5.3480     0.1450 H     1 <1>   0.0800 
@<TRIPOS>BOND
  1   1   2  1   
  2   2   3  1   
  3   2   4  1   
  4   2   5  1   
  5   5   6  ar  
  6   5   7  ar  
  7   6   8  ar  
  8   7   9  ar  
  9   7  10  1   
 10   8  11  ar  
 11   8  12  1   
 12   9  11  ar  
 13   9  13  1   
 14  10  14  1   
 15  10  23  1   
 16  10  24  1   
 17  12  15  1   
 18  12  16  1   
 19  13  17  1   
 20  13  25  1   
 21  13  26  1   
 22  14  17  1   
 23  14  18  1   
 24  14  27  1   
 25  15  19  2   
 26  16  20  2   
 27  16  21  1   
 28  17  28  1   
 29  17  29  1   
 30  18  30  1   
 31  18  31  1   
 32  18  32  1   
 33  19  20  1   
 34  19  22  1   
 35  20  33  1   
 36  21  34  1   
 37  21  35  1   
 38  21  36  1   
 39  22  37  1   
 40  22  38  1   
 41  22  39  1   
@<TRIPOS>SUBSTRUCTURE
  1 ****   8 GROUP 4 **** **** 0

# MOE 2024.06 (io_trps.svl 2023.06)
