@<TRIPOS>MOLECULE
5-Oxo-1-o-tolyl-pyrrolidine-3-carboxylic acid (2,4-dimethoxy-phenyl)-amide
48 50 1 0 0 
SMALL
USER_CHARGES


@<TRIPOS>ATOM
  1 O        0.8090     0.5410     0.0110 O.2   1 <1>  -0.5700 
  2 C        1.8110     0.0130     0.4270 C.2   1 <1>   0.5690 
  3 N        1.9750    -1.3060     0.7240 N.am  1 <1>  -0.4770 
  4 C        3.0790     0.7800     0.6710 C.3   1 <1>  -0.0990 
  5 C        1.0440    -2.3490     0.6070 C.ar  1 <1>   0.1170 
  6 C        3.3500    -1.5860     1.1650 C.3   1 <1>   0.1400 
  7 C        4.1410    -0.3310     0.7770 C.3   1 <1>  -0.0190 
  8 C        0.6500    -2.8530    -0.6350 C.ar  1 <1>  -0.1440 
  9 C        0.5150    -2.9110     1.7620 C.ar  1 <1>  -0.1500 
 10 C        5.3030    -0.0530     1.7290 C.2   1 <1>   0.5690 
 11 C       -0.2530    -3.9020    -0.6940 C.ar  1 <1>  -0.1500 
 12 C        1.1940    -2.2690    -1.9320 C.3   1 <1>  -0.0970 
 13 C       -0.3850    -3.9580     1.6970 C.ar  1 <1>  -0.1500 
 14 O        5.3620     0.9960     2.3190 O.2   1 <1>  -0.5700 
 15 N        6.2700    -0.9830     1.9400 N.am  1 <1>  -0.5470 
 16 C       -0.7700    -4.4560     0.4650 C.ar  1 <1>  -0.1500 
 17 C        6.4400    -2.2480     1.3510 C.ar  1 <1>   0.1170 
 18 C        6.7450    -2.4080    -0.0070 C.ar  1 <1>   0.0820 
 19 C        6.2890    -3.3750     2.1470 C.ar  1 <1>  -0.1500 
 20 O        6.9120    -1.2810    -0.7590 O.3   1 <1>  -0.3620 
 21 C        6.8660    -3.6860    -0.5390 C.ar  1 <1>  -0.1500 
 22 C        6.4140    -4.6450     1.6140 C.ar  1 <1>  -0.1500 
 23 C        7.3820    -1.3490    -2.0880 C.3   1 <1>   0.0400 
 24 C        6.7000    -4.8030     0.2620 C.ar  1 <1>   0.0820 
 25 O        6.8310    -6.0110    -0.3470 O.3   1 <1>  -0.3620 
 26 C        6.6640    -7.2130     0.3720 C.3   1 <1>   0.0400 
 27 H        2.9690     1.3260     1.5900 H     1 <1>   0.0800 
 28 H        3.2860     1.4580    -0.1360 H     1 <1>   0.0800 
 29 H        3.7330    -2.4640     0.6720 H     1 <1>   0.0800 
 30 H        3.3540    -1.7340     2.2310 H     1 <1>   0.0800 
 31 H        4.5430    -0.4890    -0.2050 H     1 <1>   0.0800 
 32 H        0.8090    -2.5170     2.7180 H     1 <1>   0.1500 
 33 H       -0.5650    -4.2960    -1.6450 H     1 <1>   0.1500 
 34 H        2.2680    -2.2240    -1.8980 H     1 <1>   0.0800 
 35 H        0.8080    -1.2740    -2.0690 H     1 <1>   0.0800 
 36 H        0.9060    -2.8660    -2.7770 H     1 <1>   0.0800 
 37 H       -0.7880    -4.3820     2.5990 H     1 <1>   0.1500 
 38 H        7.0020    -0.6690     2.5780 H     1 <1>   0.3700 
 39 H       -1.4710    -5.2700     0.4070 H     1 <1>   0.1500 
 40 H        6.0670    -3.2560     3.1930 H     1 <1>   0.1500 
 41 H        7.0900    -3.8510    -1.5750 H     1 <1>   0.1500 
 42 H        6.2870    -5.4920     2.2610 H     1 <1>   0.1500 
 43 H        7.5020    -0.3450    -2.4520 H     1 <1>   0.0800 
 44 H        6.6600    -1.8720    -2.6890 H     1 <1>   0.0800 
 45 H        8.3320    -1.8560    -2.0980 H     1 <1>   0.0800 
 46 H        6.8060    -8.0320    -0.3100 H     1 <1>   0.0800 
 47 H        5.6670    -7.2430     0.7760 H     1 <1>   0.0800 
 48 H        7.4000    -7.2570     1.1540 H     1 <1>   0.0800 
@<TRIPOS>BOND
  1   1   2  2   
  2   2   3  am  
  3   2   4  1   
  4   3   5  1   
  5   3   6  1   
  6   4   7  1   
  7   4  27  1   
  8   4  28  1   
  9   5   8  ar  
 10   5   9  ar  
 11   6   7  1   
 12   6  29  1   
 13   6  30  1   
 14   7  10  1   
 15   7  31  1   
 16   8  11  ar  
 17   8  12  1   
 18   9  13  ar  
 19   9  32  1   
 20  10  14  2   
 21  10  15  am  
 22  11  16  ar  
 23  11  33  1   
 24  12  34  1   
 25  12  35  1   
 26  12  36  1   
 27  13  16  ar  
 28  13  37  1   
 29  15  17  1   
 30  15  38  1   
 31  16  39  1   
 32  17  18  ar  
 33  17  19  ar  
 34  18  20  1   
 35  18  21  ar  
 36  19  22  ar  
 37  19  40  1   
 38  20  23  1   
 39  21  24  ar  
 40  21  41  1   
 41  22  24  ar  
 42  22  42  1   
 43  23  43  1   
 44  23  44  1   
 45  23  45  1   
 46  24  25  1   
 47  25  26  1   
 48  26  46  1   
 49  26  47  1   
 50  26  48  1   
@<TRIPOS>SUBSTRUCTURE
  1 ****   6 GROUP 4 **** **** 0

# MOE 2024.06 (io_trps.svl 2023.06)
