@<TRIPOS>MOLECULE
Cyclohexanecarboxylic acid [2-(2-acetylamino-ethyl)-1-methyl-1H-benzoimidazol-5-
51 53 1 0 0 
SMALL
USER_CHARGES


@<TRIPOS>ATOM
  1 O       -0.0240     0.5230    -1.0850 O.2   1 <1>  -0.5700 
  2 C        0.2410     1.4310    -0.3340 C.2   1 <1>   0.5690 
  3 N        1.5040     1.6900     0.1230 N.am  1 <1>  -0.5470 
  4 C       -0.8810     2.3620     0.1300 C.3   1 <1>  -0.0190 
  5 C        2.7310     1.0380    -0.1020 C.ar  1 <1>   0.1170 
  6 C       -2.0070     1.5830     0.8380 C.3   1 <1>  -0.1600 
  7 C       -1.4460     3.1820    -1.0450 C.3   1 <1>  -0.1600 
  8 C        3.9010     1.7380     0.1200 C.ar  1 <1>  -0.1500 
  9 C        2.8100    -0.3020    -0.5240 C.ar  1 <1>  -0.1500 
 10 C       -3.1370     2.5170     1.2950 C.3   1 <1>  -0.1600 
 11 C       -2.5770     4.1160    -0.5900 C.3   1 <1>  -0.1600 
 12 C        5.1310     1.1190    -0.0810 C.ar  1 <1>   0.2270 
 13 C        4.0220    -0.9220    -0.7300 C.ar  1 <1>  -0.1500 
 14 C       -3.6900     3.3330     0.1190 C.3   1 <1>  -0.1600 
 15 N        6.3830     1.6270     0.0860 N.2   1 <1>  -0.5650 
 16 C        5.1910    -0.1930    -0.5050 C.ar  1 <1>  -0.1520 
 17 C        7.1650     0.6550    -0.2330 C.2   1 <1>   0.0060 
 18 N        6.5160    -0.4850    -0.6080 N.pl3 1 <1>   0.0480 
 19 C        8.6770     0.7600    -0.1830 C.3   1 <1>   0.0200 
 20 C        7.0940    -1.7850    -1.0130 C.3   1 <1>   0.0160 
 21 C        9.2040     0.0820     1.0830 C.3   1 <1>   0.1400 
 22 N       10.6220    -0.3130     0.9040 N.am  1 <1>  -0.7300 
 23 C       11.0100    -1.4550     0.2870 C.2   1 <1>   0.5690 
 24 O       10.2190    -2.2160    -0.2140 O.2   1 <1>  -0.5700 
 25 C       12.4820    -1.7650     0.2190 C.3   1 <1>  -0.1790 
 26 H        1.5860     2.5320     0.6890 H     1 <1>   0.3700 
 27 H       -0.4690     3.0530     0.8430 H     1 <1>   0.0800 
 28 H       -1.6060     1.0590     1.6880 H     1 <1>   0.0800 
 29 H       -2.4090     0.8470     0.1610 H     1 <1>   0.0800 
 30 H       -1.8240     2.5080    -1.7970 H     1 <1>   0.0800 
 31 H       -0.6590     3.7620    -1.4950 H     1 <1>   0.0800 
 32 H        3.9010     2.7590     0.4440 H     1 <1>   0.1500 
 33 H        1.9050    -0.8570    -0.6880 H     1 <1>   0.1500 
 34 H       -2.7670     3.1870     2.0520 H     1 <1>   0.0800 
 35 H       -3.9310     1.9340     1.7300 H     1 <1>   0.0800 
 36 H       -2.9870     4.6270    -1.4450 H     1 <1>   0.0800 
 37 H       -2.1810     4.8600     0.0800 H     1 <1>   0.0800 
 38 H        4.0700    -1.9460    -1.0550 H     1 <1>   0.1500 
 39 H       -4.4410     4.0160     0.4750 H     1 <1>   0.0800 
 40 H       -4.1580     2.6670    -0.5860 H     1 <1>   0.0800 
 41 H        8.9630     1.7960    -0.1800 H     1 <1>   0.0800 
 42 H        9.0890     0.2990    -1.0610 H     1 <1>   0.0800 
 43 H        6.3690    -2.3460    -1.5710 H     1 <1>   0.0800 
 44 H        7.3800    -2.3370    -0.1370 H     1 <1>   0.0800 
 45 H        7.9600    -1.6240    -1.6280 H     1 <1>   0.0800 
 46 H        8.6260    -0.8040     1.2860 H     1 <1>   0.0800 
 47 H        9.1030     0.7430     1.9260 H     1 <1>   0.0800 
 48 H       11.3220     0.3220     1.2920 H     1 <1>   0.3700 
 49 H       12.9890    -1.0020    -0.3400 H     1 <1>   0.0800 
 50 H       12.6310    -2.7110    -0.2680 H     1 <1>   0.0800 
 51 H       12.8890    -1.8170     1.2110 H     1 <1>   0.0800 
@<TRIPOS>BOND
  1   1   2  2   
  2   2   3  am  
  3   2   4  1   
  4   3   5  1   
  5   3  26  1   
  6   4   6  1   
  7   4   7  1   
  8   4  27  1   
  9   5   8  ar  
 10   5   9  ar  
 11   6  10  1   
 12   6  28  1   
 13   6  29  1   
 14   7  11  1   
 15   7  30  1   
 16   7  31  1   
 17   8  12  ar  
 18   8  32  1   
 19   9  13  ar  
 20   9  33  1   
 21  10  14  1   
 22  10  34  1   
 23  10  35  1   
 24  11  14  1   
 25  11  36  1   
 26  11  37  1   
 27  12  15  1   
 28  12  16  ar  
 29  13  16  ar  
 30  13  38  1   
 31  14  39  1   
 32  14  40  1   
 33  15  17  2   
 34  16  18  1   
 35  17  18  1   
 36  17  19  1   
 37  18  20  1   
 38  19  21  1   
 39  19  41  1   
 40  19  42  1   
 41  20  43  1   
 42  20  44  1   
 43  20  45  1   
 44  21  22  1   
 45  21  46  1   
 46  21  47  1   
 47  22  23  am  
 48  22  48  1   
 49  23  24  2   
 50  23  25  1   
 51  25  49  1   
 52  25  50  1   
 53  25  51  1   
@<TRIPOS>SUBSTRUCTURE
  1 ****   8 GROUP 4 **** **** 0

# MOE 2024.06 (io_trps.svl 2023.06)
