@<TRIPOS>MOLECULE
N-[3-(3,4-Dimethoxy-phenyl)-[1,2,4]oxadiazol-5-ylmethyl]-butyramide
41 42 1 0 0 
SMALL
USER_CHARGES


@<TRIPOS>ATOM
  1 O       -1.2130    -0.6190    -0.2610 O.2   1 <1>  -0.5700 
  2 C       -2.2580    -0.8500     0.2900 C.2   1 <1>   0.5690 
  3 N       -2.2330    -1.2680     1.5760 N.am  1 <1>  -0.7300 
  4 C       -3.5730    -0.6880    -0.4660 C.3   1 <1>  -0.0990 
  5 C       -3.3660    -1.7030     2.4350 C.3   1 <1>   0.3200 
  6 C       -3.5110     0.3470    -1.6030 C.3   1 <1>  -0.1600 
  7 C       -4.0840    -2.9260     1.8790 C.2   1 <1>   0.2980 
  8 C       -4.8660     0.4880    -2.3050 C.3   1 <1>  -0.2400 
  9 O       -3.4260    -4.0510     1.7890 O.3   1 <1>  -0.0190 
 10 N       -5.2900    -2.9640     1.4830 N.2   1 <1>  -0.5650 
 11 N       -4.2880    -4.8790     1.2880 N.2   1 <1>  -0.4100 
 12 C       -5.3900    -4.2430     1.1020 C.2   1 <1>   0.4620 
 13 C       -6.6130    -4.8020     0.5490 C.ar  1 <1>   0.0540 
 14 C       -6.6750    -6.1280     0.1220 C.ar  1 <1>  -0.1500 
 15 C       -7.7760    -4.0430     0.4160 C.ar  1 <1>  -0.1500 
 16 C       -7.8240    -6.6830    -0.4130 C.ar  1 <1>   0.0820 
 17 C       -8.9390    -4.5780    -0.1050 C.ar  1 <1>  -0.1500 
 18 O       -7.7120    -7.9860    -0.7930 O.3   1 <1>  -0.3630 
 19 C       -8.9880    -5.9060    -0.5200 C.ar  1 <1>   0.0820 
 20 C       -8.3770    -8.4610    -1.9420 C.3   1 <1>   0.0400 
 21 O      -10.1370    -6.4590    -1.0040 O.3   1 <1>  -0.3620 
 22 C      -11.3760    -5.7870    -0.9500 C.3   1 <1>   0.0400 
 23 H       -1.2960    -1.3880     1.9660 H     1 <1>   0.3700 
 24 H       -4.3430    -0.3910     0.2200 H     1 <1>   0.0800 
 25 H       -3.8390    -1.6460    -0.8730 H     1 <1>   0.0800 
 26 H       -4.0690    -0.8950     2.5290 H     1 <1>   0.0800 
 27 H       -2.9950    -1.9360     3.4170 H     1 <1>   0.0800 
 28 H       -2.7680     0.0440    -2.3230 H     1 <1>   0.0800 
 29 H       -3.2110     1.3010    -1.2040 H     1 <1>   0.0800 
 30 H       -5.1690    -0.4530    -2.7300 H     1 <1>   0.0800 
 31 H       -4.7940     1.2120    -3.0970 H     1 <1>   0.0800 
 32 H       -5.6190     0.8150    -1.6100 H     1 <1>   0.0800 
 33 H       -5.8030    -6.7520     0.2040 H     1 <1>   0.1500 
 34 H       -7.7710    -3.0130     0.7290 H     1 <1>   0.1500 
 35 H       -9.7990    -3.9400    -0.1770 H     1 <1>   0.1500 
 36 H       -7.8680    -9.3440    -2.2830 H     1 <1>   0.0800 
 37 H       -8.3520    -7.7020    -2.7040 H     1 <1>   0.0800 
 38 H       -9.3910    -8.7060    -1.6800 H     1 <1>   0.0800 
 39 H      -12.1340    -6.4560    -1.3140 H     1 <1>   0.0800 
 40 H      -11.3290    -4.9140    -1.5760 H     1 <1>   0.0800 
 41 H      -11.5840    -5.5210     0.0720 H     1 <1>   0.0800 
@<TRIPOS>BOND
  1   1   2  2   
  2   2   3  am  
  3   2   4  1   
  4   3   5  1   
  5   3  23  1   
  6   4   6  1   
  7   4  24  1   
  8   4  25  1   
  9   5   7  1   
 10   5  26  1   
 11   5  27  1   
 12   6   8  1   
 13   6  28  1   
 14   6  29  1   
 15   7   9  1   
 16   7  10  2   
 17   8  30  1   
 18   8  31  1   
 19   8  32  1   
 20   9  11  1   
 21  10  12  1   
 22  11  12  2   
 23  12  13  1   
 24  13  14  ar  
 25  13  15  ar  
 26  14  16  ar  
 27  14  33  1   
 28  15  17  ar  
 29  15  34  1   
 30  16  18  1   
 31  16  19  ar  
 32  17  19  ar  
 33  17  35  1   
 34  18  20  1   
 35  19  21  1   
 36  20  36  1   
 37  20  37  1   
 38  20  38  1   
 39  21  22  1   
 40  22  39  1   
 41  22  40  1   
 42  22  41  1   
@<TRIPOS>SUBSTRUCTURE
  1 ****  12 GROUP 4 **** **** 0

# MOE 2024.06 (io_trps.svl 2023.06)
