@<TRIPOS>MOLECULE
tert-Butyl-(3-p-tolyl-[1,2,4]oxadiazol-5-ylmethyl)-amine
38 39 1 0 0 
SMALL
USER_CHARGES


@<TRIPOS>ATOM
  1 O       -0.2960    -2.1930     2.9430 O.3   1 <1>  -0.0190 
  2 N       -1.5630    -1.9630     2.8240 N.2   1 <1>  -0.4100 
  3 C        0.1580    -2.0770     1.7280 C.2   1 <1>   0.2980 
  4 C       -1.8180    -1.7260     1.5850 C.2   1 <1>   0.4620 
  5 N       -0.7050    -1.7940     0.8390 N.2   1 <1>  -0.5650 
  6 C        1.6470    -2.2880     1.4870 C.3   1 <1>   0.5230 
  7 C       -3.1270    -1.4200     1.0300 C.ar  1 <1>   0.0540 
  8 N        1.9710    -2.1140     0.0330 N.4   1 <1>  -0.9060 
  9 C       -3.3130    -1.1750    -0.3320 C.ar  1 <1>  -0.1500 
 10 C       -4.2600    -1.3590     1.8440 C.ar  1 <1>  -0.1500 
 11 C        3.3590    -2.2780    -0.3850 C.3   1 <1>   0.5030 
 12 C       -4.5610    -0.8850    -0.8530 C.ar  1 <1>  -0.1500 
 13 C       -5.5090    -1.0690     1.3270 C.ar  1 <1>  -0.1500 
 14 C        3.3830    -2.0470    -1.8920 C.3   1 <1>  -0.2400 
 15 C        3.8270    -3.6970    -0.0660 C.3   1 <1>  -0.2400 
 16 C        4.2320    -1.2390     0.3160 C.3   1 <1>  -0.2400 
 17 C       -5.6680    -0.8280    -0.0260 C.ar  1 <1>  -0.1430 
 18 C       -7.0400    -0.5110    -0.5940 C.3   1 <1>  -0.0970 
 19 H        1.9130    -3.2800     1.8110 H     1 <1>   0.0800 
 20 H        2.1960    -1.5740     2.0780 H     1 <1>   0.0800 
 21 H        1.6410    -1.1850    -0.2490 H     1 <1>   0.4500 
 22 H        1.3810    -2.7650    -0.4960 H     1 <1>   0.4500 
 23 H       -2.4720    -1.2110    -1.0000 H     1 <1>   0.1500 
 24 H       -4.1650    -1.5420     2.9000 H     1 <1>   0.1500 
 25 H       -4.6700    -0.7020    -1.9080 H     1 <1>   0.1500 
 26 H       -6.3600    -1.0330     1.9850 H     1 <1>   0.1500 
 27 H        2.7680    -2.7650    -2.4070 H     1 <1>   0.0800 
 28 H        4.3880    -2.1550    -2.2630 H     1 <1>   0.0800 
 29 H        3.0510    -1.0550    -2.1400 H     1 <1>   0.0800 
 30 H        3.1840    -4.4300    -0.5210 H     1 <1>   0.0800 
 31 H        3.8790    -3.8740     0.9930 H     1 <1>   0.0800 
 32 H        4.8180    -3.8460    -0.4600 H     1 <1>   0.0800 
 33 H        3.8750    -0.2420     0.1320 H     1 <1>   0.0800 
 34 H        5.2380    -1.2990    -0.0630 H     1 <1>   0.0800 
 35 H        4.2850    -1.4100     1.3760 H     1 <1>   0.0800 
 36 H       -7.5350    -1.4220    -0.8780 H     1 <1>   0.0800 
 37 H       -6.9520     0.1210    -1.4600 H     1 <1>   0.0800 
 38 H       -7.6410    -0.0020     0.1370 H     1 <1>   0.0800 
@<TRIPOS>BOND
  1   1   2  1   
  2   1   3  1   
  3   2   4  2   
  4   3   5  2   
  5   3   6  1   
  6   4   5  1   
  7   4   7  1   
  8   6   8  1   
  9   6  19  1   
 10   6  20  1   
 11   7   9  ar  
 12   7  10  ar  
 13   8  11  1   
 14   8  21  1   
 15   8  22  1   
 16   9  12  ar  
 17   9  23  1   
 18  10  13  ar  
 19  10  24  1   
 20  11  14  1   
 21  11  15  1   
 22  11  16  1   
 23  12  17  ar  
 24  12  25  1   
 25  13  17  ar  
 26  13  26  1   
 27  14  27  1   
 28  14  28  1   
 29  14  29  1   
 30  15  30  1   
 31  15  31  1   
 32  15  32  1   
 33  16  33  1   
 34  16  34  1   
 35  16  35  1   
 36  17  18  1   
 37  18  36  1   
 38  18  37  1   
 39  18  38  1   
@<TRIPOS>SUBSTRUCTURE
  1 ****   5 GROUP 4 **** **** 0

# MOE 2024.06 (io_trps.svl 2023.06)
