@<TRIPOS>MOLECULE
Adamantan-1-yl-[4-(2-ethoxy-phenyl)-piperazin-1-yl]-methanone
59 63 1 0 0 
SMALL
USER_CHARGES


@<TRIPOS>ATOM
  1 O       -0.6310     0.8960     1.2830 O.2   1 <1>  -0.5700 
  2 C       -0.5150     2.1010     1.2020 C.2   1 <1>   0.5690 
  3 N       -1.4730     2.9000     1.8010 N.am  1 <1>  -0.6600 
  4 C        0.7160     2.6390     0.4110 C.3   1 <1>   0.0610 
  5 C       -1.6790     4.3790     1.6830 C.3   1 <1>   0.1400 
  6 C       -2.6670     2.2790     2.4630 C.3   1 <1>   0.1400 
  7 C        1.6190     3.5450     1.2940 C.3   1 <1>  -0.1600 
  8 C        0.2860     3.3950    -0.8780 C.3   1 <1>  -0.1600 
  9 C        1.6220     1.4610    -0.0630 C.3   1 <1>  -0.1600 
 10 C       -2.9400     4.6900     0.8570 C.3   1 <1>   0.2090 
 11 C       -3.9330     2.5410     1.6330 C.3   1 <1>   0.2090 
 12 C        2.8280     4.0730     0.5000 C.3   1 <1>  -0.0800 
 13 C        1.5090     3.9220    -1.6520 C.3   1 <1>  -0.0800 
 14 C        2.8510     1.9520    -0.8510 C.3   1 <1>  -0.0800 
 15 N       -4.1520     4.0040     1.4050 N.pl3 1 <1>  -0.8380 
 16 C        2.3320     4.8470    -0.7360 C.3   1 <1>  -0.1600 
 17 C        3.6870     2.8810     0.0440 C.3   1 <1>  -0.1600 
 18 C        2.3780     2.7310    -2.0890 C.3   1 <1>  -0.1600 
 19 C       -5.3520     4.3090     0.7450 C.ar  1 <1>   0.1000 
 20 C       -5.6000     4.0460    -0.6140 C.ar  1 <1>   0.0820 
 21 C       -6.3640     4.8970     1.4910 C.ar  1 <1>  -0.1500 
 22 O       -4.6390     3.4730    -1.3890 O.3   1 <1>  -0.3630 
 23 C       -6.8180     4.3800    -1.1850 C.ar  1 <1>  -0.1500 
 24 C       -7.5830     5.2230     0.9210 C.ar  1 <1>  -0.1500 
 25 C       -4.9380     2.2240    -1.9630 C.3   1 <1>   0.1200 
 26 C       -7.8120     4.9660    -0.4190 C.ar  1 <1>  -0.1500 
 27 C       -3.6250     1.5970    -2.4220 C.3   1 <1>  -0.2400 
 28 H       -0.8440     4.8720     1.2350 H     1 <1>   0.0800 
 29 H       -1.8040     4.7940     2.6680 H     1 <1>   0.0800 
 30 H       -2.7930     2.7050     3.4420 H     1 <1>   0.0800 
 31 H       -2.5400     1.2180     2.5860 H     1 <1>   0.0800 
 32 H        1.9660     2.9780     2.1410 H     1 <1>   0.0800 
 33 H        1.0810     4.3820     1.6860 H     1 <1>   0.0800 
 34 H       -0.3500     4.2250    -0.6580 H     1 <1>   0.0800 
 35 H       -0.2790     2.7290    -1.5070 H     1 <1>   0.0800 
 36 H        1.0510     0.7930    -0.6850 H     1 <1>   0.0800 
 37 H        1.9530     0.8940     0.7900 H     1 <1>   0.0800 
 38 H       -2.7680     4.3790    -0.1580 H     1 <1>   0.0800 
 39 H       -3.1130     5.7520     0.8520 H     1 <1>   0.0800 
 40 H       -4.7860     2.1330     2.1450 H     1 <1>   0.0800 
 41 H       -3.8370     2.0370     0.6880 H     1 <1>   0.0800 
 42 H        3.4170     4.7230     1.1250 H     1 <1>   0.0800 
 43 H        1.1810     4.4670    -2.5210 H     1 <1>   0.0800 
 44 H        3.4470     1.1090    -1.1580 H     1 <1>   0.0800 
 45 H        3.1750     5.2360    -1.2800 H     1 <1>   0.0800 
 46 H        1.7310     5.6840    -0.4260 H     1 <1>   0.0800 
 47 H        4.0430     2.3370     0.9020 H     1 <1>   0.0800 
 48 H        4.5470     3.2350    -0.4980 H     1 <1>   0.0800 
 49 H        3.2290     3.0840    -2.6460 H     1 <1>   0.0800 
 50 H        1.8120     2.0820    -2.7340 H     1 <1>   0.0800 
 51 H       -6.1820     5.0980     2.5300 H     1 <1>   0.1500 
 52 H       -6.9910     4.1920    -2.2280 H     1 <1>   0.1500 
 53 H       -8.3500     5.6790     1.5220 H     1 <1>   0.1500 
 54 H       -5.6050     2.3790    -2.7930 H     1 <1>   0.0800 
 55 H       -5.4150     1.6100    -1.2180 H     1 <1>   0.0800 
 56 H       -8.7570     5.2230    -0.8640 H     1 <1>   0.1500 
 57 H       -3.1530     2.2240    -3.1570 H     1 <1>   0.0800 
 58 H       -3.8150     0.6350    -2.8620 H     1 <1>   0.0800 
 59 H       -2.9640     1.4660    -1.5840 H     1 <1>   0.0800 
@<TRIPOS>BOND
  1   1   2  2   
  2   2   3  am  
  3   2   4  1   
  4   3   5  1   
  5   3   6  1   
  6   4   7  1   
  7   4   8  1   
  8   4   9  1   
  9   5  10  1   
 10   5  28  1   
 11   5  29  1   
 12   6  11  1   
 13   6  30  1   
 14   6  31  1   
 15   7  12  1   
 16   7  32  1   
 17   7  33  1   
 18   8  13  1   
 19   8  34  1   
 20   8  35  1   
 21   9  14  1   
 22   9  36  1   
 23   9  37  1   
 24  10  15  1   
 25  10  38  1   
 26  10  39  1   
 27  11  15  1   
 28  11  40  1   
 29  11  41  1   
 30  12  16  1   
 31  12  17  1   
 32  12  42  1   
 33  13  16  1   
 34  13  18  1   
 35  13  43  1   
 36  14  17  1   
 37  14  18  1   
 38  14  44  1   
 39  15  19  1   
 40  16  45  1   
 41  16  46  1   
 42  17  47  1   
 43  17  48  1   
 44  18  49  1   
 45  18  50  1   
 46  19  20  ar  
 47  19  21  ar  
 48  20  22  1   
 49  20  23  ar  
 50  21  24  ar  
 51  21  51  1   
 52  22  25  1   
 53  23  26  ar  
 54  23  52  1   
 55  24  26  ar  
 56  24  53  1   
 57  25  27  1   
 58  25  54  1   
 59  25  55  1   
 60  26  56  1   
 61  27  57  1   
 62  27  58  1   
 63  27  59  1   
@<TRIPOS>SUBSTRUCTURE
  1 ****   3 GROUP 4 **** **** 0

# MOE 2024.06 (io_trps.svl 2023.06)
