@<TRIPOS>MOLECULE
1-[2-(4-tert-Butyl-phenoxy)-ethyl]-1H-benzoimidazole-2-sulfonic acid
47 49 1 0 0 
SMALL
USER_CHARGES


@<TRIPOS>ATOM
  1 S        0.2110     1.1770     0.3200 S.o2  1 <1>   1.5120 
  2 O        0.2810     0.9270     1.7830 O.co2 1 <1>  -0.8170 
  3 O        0.2460     2.6200    -0.0140 O.co2 1 <1>  -0.8170 
  4 O        1.2330     0.3760    -0.3980 O.co2 1 <1>  -0.8170 
  5 C       -1.4270     0.4550    -0.2130 C.2   1 <1>   0.1240 
  6 N       -2.2940     0.9460    -1.0590 N.2   1 <1>  -0.5650 
  7 N       -1.8250    -0.7670     0.2670 N.pl3 1 <1>   0.0480 
  8 C       -3.2880     0.0300    -1.1390 C.ar  1 <1>   0.2270 
  9 C       -3.0180    -1.0490    -0.3270 C.ar  1 <1>  -0.1520 
 10 C       -1.1530    -1.6500     1.2550 C.3   1 <1>   0.0960 
 11 C       -4.4560     0.0660    -1.8980 C.ar  1 <1>  -0.1500 
 12 C       -3.9050    -2.1300    -0.2560 C.ar  1 <1>  -0.1500 
 13 C        0.1590    -2.2100     0.7050 C.3   1 <1>   0.1200 
 14 C       -5.3360    -0.9920    -1.8310 C.ar  1 <1>  -0.1500 
 15 C       -5.0580    -2.0910    -1.0090 C.ar  1 <1>  -0.1500 
 16 O        0.2780    -3.5630     1.0970 O.3   1 <1>  -0.3620 
 17 C        1.3710    -4.2850     0.7420 C.ar  1 <1>   0.0820 
 18 C        1.3880    -5.6180     1.1080 C.ar  1 <1>  -0.1500 
 19 C        2.4530    -3.7630     0.0430 C.ar  1 <1>  -0.1500 
 20 C        2.4640    -6.4260     0.7850 C.ar  1 <1>  -0.1500 
 21 C        3.5260    -4.5770    -0.2780 C.ar  1 <1>  -0.1500 
 22 C        3.5580    -5.9210     0.0830 C.ar  1 <1>  -0.1440 
 23 C        4.7820    -6.7820    -0.3000 C.3   1 <1>   0.1430 
 24 C        6.0470    -6.1910     0.3400 C.3   1 <1>  -0.2400 
 25 C        4.6660    -8.2430     0.1680 C.3   1 <1>  -0.2400 
 26 C        4.9420    -6.7980    -1.8280 C.3   1 <1>  -0.2400 
 27 H       -1.8130    -2.4620     1.4920 H     1 <1>   0.0800 
 28 H       -0.9690    -1.0970     2.1580 H     1 <1>   0.0800 
 29 H       -4.6360     0.9230    -2.5180 H     1 <1>   0.1500 
 30 H       -3.6870    -2.9740     0.3730 H     1 <1>   0.1500 
 31 H        0.9930    -1.6630     1.1120 H     1 <1>   0.0800 
 32 H        0.1760    -2.1710    -0.3710 H     1 <1>   0.0800 
 33 H       -6.2430    -0.9820    -2.4100 H     1 <1>   0.1500 
 34 H       -5.7570    -2.9080    -0.9730 H     1 <1>   0.1500 
 35 H        0.5520    -6.0200     1.6500 H     1 <1>   0.1500 
 36 H        2.4810    -2.7310    -0.2580 H     1 <1>   0.1500 
 37 H        2.4220    -7.4520     1.0950 H     1 <1>   0.1500 
 38 H        4.3450    -4.1400    -0.8190 H     1 <1>   0.1500 
 39 H        5.9270    -6.1390     1.4080 H     1 <1>   0.0800 
 40 H        6.2370    -5.1980    -0.0240 H     1 <1>   0.0800 
 41 H        6.9060    -6.7980     0.1190 H     1 <1>   0.0800 
 42 H        4.5790    -8.2900     1.2390 H     1 <1>   0.0800 
 43 H        5.5370    -8.8040    -0.1200 H     1 <1>   0.0800 
 44 H        3.8060    -8.7140    -0.2750 H     1 <1>   0.0800 
 45 H        5.1250    -5.8100    -2.2080 H     1 <1>   0.0800 
 46 H        4.0450    -7.1740    -2.2860 H     1 <1>   0.0800 
 47 H        5.7660    -7.4250    -2.1180 H     1 <1>   0.0800 
@<TRIPOS>BOND
  1   1   2  ar  
  2   1   3  ar  
  3   1   4  ar  
  4   1   5  1   
  5   5   6  2   
  6   5   7  1   
  7   6   8  1   
  8   7   9  1   
  9   7  10  1   
 10   8   9  ar  
 11   8  11  ar  
 12   9  12  ar  
 13  10  13  1   
 14  10  27  1   
 15  10  28  1   
 16  11  14  ar  
 17  11  29  1   
 18  12  15  ar  
 19  12  30  1   
 20  13  16  1   
 21  13  31  1   
 22  13  32  1   
 23  14  15  ar  
 24  14  33  1   
 25  15  34  1   
 26  16  17  1   
 27  17  18  ar  
 28  17  19  ar  
 29  18  20  ar  
 30  18  35  1   
 31  19  21  ar  
 32  19  36  1   
 33  20  22  ar  
 34  20  37  1   
 35  21  22  ar  
 36  21  38  1   
 37  22  23  1   
 38  23  24  1   
 39  23  25  1   
 40  23  26  1   
 41  24  39  1   
 42  24  40  1   
 43  24  41  1   
 44  25  42  1   
 45  25  43  1   
 46  25  44  1   
 47  26  45  1   
 48  26  46  1   
 49  26  47  1   
@<TRIPOS>SUBSTRUCTURE
  1 ****  13 GROUP 4 **** **** 0

# MOE 2024.06 (io_trps.svl 2023.06)
