@<TRIPOS>MOLECULE
N-Cyclopropyl-2-[2-methyl-4-(pyrrolidine-1-sulfonyl)-phenoxy]-acetamide
45 47 1 0 0 
SMALL
USER_CHARGES


@<TRIPOS>ATOM
  1 S       -0.6440     0.8920    -0.9200 S.o2  1 <1>   1.4470 
  2 O       -0.9810     0.6420    -2.3050 O.2   1 <1>  -0.6500 
  3 O       -1.3760     1.8970    -0.1790 O.2   1 <1>  -0.6500 
  4 N       -0.8450    -0.5760    -0.1000 N.am  1 <1>  -0.8490 
  5 C        1.1400     1.1780    -0.7820 C.ar  1 <1>  -0.0090 
  6 C       -0.7080    -0.4910     1.3440 C.3   1 <1>   0.1960 
  7 C       -2.1460    -1.1770    -0.3310 C.3   1 <1>   0.1960 
  8 C        1.6460     2.3230    -0.1790 C.ar  1 <1>  -0.1500 
  9 C        2.0450     0.2470    -1.2750 C.ar  1 <1>  -0.1500 
 10 C       -1.2990    -1.8000     1.8510 C.3   1 <1>  -0.1600 
 11 C       -2.2830    -2.2310     0.7620 C.3   1 <1>  -0.1600 
 12 C        3.0100     2.5410    -0.0620 C.ar  1 <1>  -0.1430 
 13 C        3.4090     0.4450    -1.1690 C.ar  1 <1>  -0.1500 
 14 C        3.9000     1.5960    -0.5610 C.ar  1 <1>   0.0830 
 15 C        3.5140     3.8110     0.6080 C.3   1 <1>  -0.0970 
 16 O        5.2250     1.8490    -0.4270 O.3   1 <1>  -0.3630 
 17 C        6.2130     0.9620    -0.9380 C.3   1 <1>   0.1810 
 18 C        7.6130     1.4990    -0.6790 C.2   1 <1>   0.5690 
 19 O        8.5590     0.8380    -1.0400 O.2   1 <1>  -0.5700 
 20 N        7.7500     2.6990    -0.0540 N.am  1 <1>  -0.5790 
 21 C        9.0110     3.3730     0.2780 C.3   1 <1>   0.0490 
 22 C        9.0700     4.1670     1.5400 C.3   1 <1>  -0.2000 
 23 C        9.0470     4.8630     0.2120 C.3   1 <1>  -0.2000 
 24 H       -1.2860     0.3340     1.7290 H     1 <1>   0.0800 
 25 H        0.3230    -0.3760     1.6320 H     1 <1>   0.0800 
 26 H       -2.2020    -1.6060    -1.3180 H     1 <1>   0.0800 
 27 H       -2.9180    -0.4310    -0.2210 H     1 <1>   0.0800 
 28 H        0.9540     3.0540     0.2050 H     1 <1>   0.1500 
 29 H        1.6680    -0.6460    -1.7460 H     1 <1>   0.1500 
 30 H       -1.7800    -1.6620     2.8030 H     1 <1>   0.0800 
 31 H       -0.5170    -2.5310     1.9540 H     1 <1>   0.0800 
 32 H       -2.0110    -3.1960     0.3720 H     1 <1>   0.0800 
 33 H       -3.2950    -2.2700     1.1240 H     1 <1>   0.0800 
 34 H        4.0620    -0.3080    -1.5670 H     1 <1>   0.1500 
 35 H        2.6980     4.4290     0.9370 H     1 <1>   0.0800 
 36 H        4.1110     4.3760    -0.0850 H     1 <1>   0.0800 
 37 H        4.1170     3.5590     1.4620 H     1 <1>   0.0800 
 38 H        6.0650     0.8580    -1.9960 H     1 <1>   0.0800 
 39 H        6.1030     0.0110    -0.4510 H     1 <1>   0.0800 
 40 H        6.8920     3.1850     0.2180 H     1 <1>   0.3700 
 41 H        9.8850     2.8170    -0.0270 H     1 <1>   0.1000 
 42 H        9.9870     4.1720     2.1020 H     1 <1>   0.1000 
 43 H        8.1980     4.2070     2.1690 H     1 <1>   0.1000 
 44 H        8.1600     5.3910    -0.0900 H     1 <1>   0.1000 
 45 H        9.9500     5.3400    -0.1280 H     1 <1>   0.1000 
@<TRIPOS>BOND
  1   1   2  2   
  2   1   3  2   
  3   1   4  am  
  4   1   5  1   
  5   4   6  1   
  6   4   7  1   
  7   5   8  ar  
  8   5   9  ar  
  9   6  10  1   
 10   6  24  1   
 11   6  25  1   
 12   7  11  1   
 13   7  26  1   
 14   7  27  1   
 15   8  12  ar  
 16   8  28  1   
 17   9  13  ar  
 18   9  29  1   
 19  10  11  1   
 20  10  30  1   
 21  10  31  1   
 22  11  32  1   
 23  11  33  1   
 24  12  14  ar  
 25  12  15  1   
 26  13  14  ar  
 27  13  34  1   
 28  14  16  1   
 29  15  35  1   
 30  15  36  1   
 31  15  37  1   
 32  16  17  1   
 33  17  18  1   
 34  17  38  1   
 35  17  39  1   
 36  18  19  2   
 37  18  20  am  
 38  20  21  1   
 39  20  40  1   
 40  21  22  1   
 41  21  23  1   
 42  21  41  1   
 43  22  23  1   
 44  22  42  1   
 45  22  43  1   
 46  23  44  1   
 47  23  45  1   
@<TRIPOS>SUBSTRUCTURE
  1 ****  14 GROUP 4 **** **** 0

# MOE 2024.06 (io_trps.svl 2023.06)
