@<TRIPOS>MOLECULE
1-Methyl-4-thiophen-2-yl-1,4-dihydro-pyridine-3,5-dicarboxylic acid diethyl este
41 42 1 0 0 
SMALL
USER_CHARGES


@<TRIPOS>ATOM
  1 S        1.1480    -1.1340    -1.9940 S.3   1 <1>  -0.0800 
  2 C        1.1970    -0.9210    -0.2480 C.2   1 <1>  -0.1400 
  3 C        1.1400     0.6010    -2.2530 C.2   1 <1>  -0.1100 
  4 C        1.2040     0.3900     0.0610 C.2   1 <1>  -0.1500 
  5 C        1.2220    -2.1690     0.6300 C.3   1 <1>   0.3760 
  6 C        1.1720     1.2560    -1.0780 C.2   1 <1>  -0.1500 
  7 C        2.4920    -2.9680     0.3310 C.2   1 <1>  -0.1240 
  8 C       -0.0610    -2.9700     0.4020 C.2   1 <1>  -0.1240 
  9 C        3.7130    -2.3420     0.7220 C.2   1 <1>   0.7060 
 10 C        2.3970    -4.1790    -0.2730 C.2   1 <1>  -0.0500 
 11 C       -1.2600    -2.3460     0.8600 C.2   1 <1>   0.7060 
 12 C        0.0020    -4.1810    -0.2060 C.2   1 <1>  -0.0500 
 13 O        3.7750    -1.3510     1.4260 O.2   1 <1>  -0.5700 
 14 O        4.8560    -2.9000     0.3070 O.3   1 <1>  -0.4300 
 15 N        1.1900    -4.7690    -0.5970 N.pl3 1 <1>  -0.5690 
 16 O       -1.2830    -1.3550     1.5670 O.2   1 <1>  -0.5700 
 17 O       -2.4230    -2.9060     0.5090 O.3   1 <1>  -0.4300 
 18 C        6.1080    -2.3440     0.6390 C.3   1 <1>   0.1200 
 19 C        1.1710    -6.0700    -1.3070 C.3   1 <1>   0.1290 
 20 C       -3.6550    -2.3520     0.9100 C.3   1 <1>   0.1200 
 21 C        7.1920    -3.2100     0.0060 C.3   1 <1>  -0.2400 
 22 C       -4.7720    -3.2200     0.3380 C.3   1 <1>  -0.2400 
 23 H        1.1110     0.9500    -3.2690 H     1 <1>   0.1500 
 24 H        1.2320     0.7920     1.0600 H     1 <1>   0.1500 
 25 H        1.2510    -1.8680     1.6640 H     1 <1>   0.0800 
 26 H        1.1740     2.3250    -0.9560 H     1 <1>   0.1500 
 27 H        3.2830    -4.7420    -0.5190 H     1 <1>   0.1500 
 28 H       -0.8960    -4.7450    -0.4030 H     1 <1>   0.1500 
 29 H        6.2010    -2.3290     1.7120 H     1 <1>   0.0800 
 30 H        6.1450    -1.3370     0.2580 H     1 <1>   0.0800 
 31 H        2.0280    -6.1490    -1.9520 H     1 <1>   0.0800 
 32 H        0.2810    -6.1500    -1.9050 H     1 <1>   0.0800 
 33 H        1.1910    -6.8710    -0.5890 H     1 <1>   0.0800 
 34 H       -3.7150    -1.3450     0.5320 H     1 <1>   0.0800 
 35 H       -3.6890    -2.3370     1.9870 H     1 <1>   0.0800 
 36 H        7.1360    -4.2140     0.3880 H     1 <1>   0.0800 
 37 H        8.1600    -2.8080     0.2420 H     1 <1>   0.0800 
 38 H        7.0780    -3.2230    -1.0640 H     1 <1>   0.0800 
 39 H       -4.7170    -3.2320    -0.7350 H     1 <1>   0.0800 
 40 H       -5.7260    -2.8190     0.6280 H     1 <1>   0.0800 
 41 H       -4.6920    -4.2230     0.7160 H     1 <1>   0.0800 
@<TRIPOS>BOND
  1   1   2  1   
  2   1   3  1   
  3   2   4  2   
  4   2   5  1   
  5   3   6  2   
  6   3  23  1   
  7   4   6  1   
  8   4  24  1   
  9   5   7  1   
 10   5   8  1   
 11   5  25  1   
 12   6  26  1   
 13   7   9  1   
 14   7  10  2   
 15   8  11  1   
 16   8  12  2   
 17   9  13  2   
 18   9  14  1   
 19  10  15  1   
 20  10  27  1   
 21  11  16  2   
 22  11  17  1   
 23  12  15  1   
 24  12  28  1   
 25  14  18  1   
 26  15  19  1   
 27  17  20  1   
 28  18  21  1   
 29  18  29  1   
 30  18  30  1   
 31  19  31  1   
 32  19  32  1   
 33  19  33  1   
 34  20  22  1   
 35  20  34  1   
 36  20  35  1   
 37  21  36  1   
 38  21  37  1   
 39  21  38  1   
 40  22  39  1   
 41  22  40  1   
 42  22  41  1   
@<TRIPOS>SUBSTRUCTURE
  1 ****   5 GROUP 4 **** **** 0

# MOE 2024.06 (io_trps.svl 2023.06)
