@<TRIPOS>MOLECULE
8-(4-Methoxy-phenyl)-1,7-dimethyl-3-(1-methyl-2-oxo-propyl)-1H,8H-imidazo[2,1-f]
51 54 1 0 0 
SMALL
USER_CHARGES


@<TRIPOS>ATOM
  1 O        0.6130    -0.0190    -0.1170 O.2   1 <1>  -0.5750 
  2 C        1.5830     0.7050    -0.2030 C.2   1 <1>   0.6860 
  3 N        1.4240     2.0760    -0.4080 N.am  1 <1>  -0.4260 
  4 N        2.8540     0.1530    -0.0920 N.am  1 <1>  -0.4410 
  5 C        2.5270     2.9030    -0.5510 C.2   1 <1>   0.6990 
  6 C        0.1050     2.7140    -0.0680 C.3   1 <1>   0.2750 
  7 C        3.9400     1.0020    -0.1440 C.2   1 <1>   0.4210 
  8 C        3.0230    -1.3090     0.1610 C.3   1 <1>   0.0520 
  9 O        2.3990     4.0830    -0.8320 O.2   1 <1>  -0.5750 
 10 C        3.8210     2.3330    -0.3710 C.2   1 <1>   0.2710 
 11 C       -0.2630     2.3900     1.3910 C.2   1 <1>   0.4430 
 12 C       -0.9460     2.3850    -1.1440 C.3   1 <1>  -0.2470 
 13 N        5.2610     0.6870     0.0120 N.pl3 1 <1>  -0.7040 
 14 N        5.1240     2.8510    -0.3620 N.pl3 1 <1>  -0.6330 
 15 O        0.5800     2.4190     2.2400 O.2   1 <1>  -0.5750 
 16 C       -1.6960     2.0420     1.7470 C.3   1 <1>  -0.1860 
 17 C        5.9370     1.8320    -0.1230 C.cat 1 <1>   1.0690 
 18 C        5.9160     3.9790    -0.4730 C.2   1 <1>   0.2220 
 19 N        7.2180     2.2150    -0.0770 N.pl3 1 <1>  -0.5550 
 20 C        7.1970     3.5870    -0.2990 C.2   1 <1>   0.1580 
 21 C        8.3260     1.3850     0.1550 C.ar  1 <1>   0.3050 
 22 C        8.4730     4.4090    -0.3180 C.3   1 <1>  -0.1090 
 23 C        9.0140     0.8210    -0.9100 C.ar  1 <1>  -0.1570 
 24 C        8.7310     1.1080     1.4530 C.ar  1 <1>  -0.1570 
 25 C       10.0890    -0.0210    -0.6850 C.ar  1 <1>  -0.1570 
 26 C        9.8050     0.2660     1.6810 C.ar  1 <1>  -0.1570 
 27 C       10.4870    -0.3040     0.6180 C.ar  1 <1>   0.0750 
 28 O       11.5240    -1.1190     0.9310 O.3   1 <1>  -0.3680 
 29 C       12.3240    -1.7090    -0.0700 C.3   1 <1>   0.0320 
 30 H        0.2160     3.7830    -0.0900 H     1 <1>   0.0720 
 31 H        2.2120    -1.8620    -0.2830 H     1 <1>   0.0720 
 32 H        3.0220    -1.4940     1.2220 H     1 <1>   0.0720 
 33 H        3.9420    -1.6660    -0.2660 H     1 <1>   0.0720 
 34 H       -1.2190     1.3460    -1.1320 H     1 <1>   0.0720 
 35 H       -0.5670     2.6380    -2.1180 H     1 <1>   0.0720 
 36 H       -1.8350     2.9660    -0.9770 H     1 <1>   0.0720 
 37 H        5.6800    -0.2180     0.2170 H     1 <1>   0.4450 
 38 H       -1.9870     1.1340     1.2520 H     1 <1>   0.0720 
 39 H       -2.3560     2.8390     1.4590 H     1 <1>   0.0720 
 40 H       -1.7790     1.8940     2.8080 H     1 <1>   0.0720 
 41 H        5.5050     4.9590    -0.6640 H     1 <1>   0.1430 
 42 H        8.9810     4.3270     0.6260 H     1 <1>   0.0720 
 43 H        8.2510     5.4450    -0.5000 H     1 <1>   0.0720 
 44 H        9.1300     4.0580    -1.0950 H     1 <1>   0.0720 
 45 H        8.7140     1.0390    -1.9190 H     1 <1>   0.1430 
 46 H        8.2170     1.5480     2.2880 H     1 <1>   0.1430 
 47 H       10.6060    -0.4450    -1.5270 H     1 <1>   0.1430 
 48 H       10.1280     0.0450     2.6840 H     1 <1>   0.1430 
 49 H       13.0890    -2.2900     0.4140 H     1 <1>   0.0720 
 50 H       12.7760    -0.9320    -0.6610 H     1 <1>   0.0720 
 51 H       11.7100    -2.3500    -0.6770 H     1 <1>   0.0720 
@<TRIPOS>BOND
  1   1   2  2   
  2   2   3  am  
  3   2   4  am  
  4   3   5  am  
  5   3   6  1   
  6   4   7  1   
  7   4   8  1   
  8   5   9  2   
  9   5  10  1   
 10   6  11  1   
 11   6  12  1   
 12   6  30  1   
 13   7  10  2   
 14   7  13  1   
 15   8  31  1   
 16   8  32  1   
 17   8  33  1   
 18  10  14  1   
 19  11  15  2   
 20  11  16  1   
 21  12  34  1   
 22  12  35  1   
 23  12  36  1   
 24  13  17  ar  
 25  13  37  1   
 26  14  17  ar  
 27  14  18  1   
 28  16  38  1   
 29  16  39  1   
 30  16  40  1   
 31  17  19  ar  
 32  18  20  2   
 33  18  41  1   
 34  19  20  1   
 35  19  21  1   
 36  20  22  1   
 37  21  23  ar  
 38  21  24  ar  
 39  22  42  1   
 40  22  43  1   
 41  22  44  1   
 42  23  25  ar  
 43  23  45  1   
 44  24  26  ar  
 45  24  46  1   
 46  25  27  ar  
 47  25  47  1   
 48  26  27  ar  
 49  26  48  1   
 50  27  28  1   
 51  28  29  1   
 52  29  49  1   
 53  29  50  1   
 54  29  51  1   
@<TRIPOS>SUBSTRUCTURE
  1 ****  13 GROUP 4 **** **** 0

# MOE 2024.06 (io_trps.svl 2023.06)
