@<TRIPOS>MOLECULE
1-(4-Ethoxy-benzenesulfonyl)-piperidine-4-carboxylic acid (pyridin-2-ylmethyl)-a
53 55 1 0 0 
SMALL
USER_CHARGES


@<TRIPOS>ATOM
  1 S       -0.0990     0.3770    -1.7710 S.o2  1 <1>   1.4470 
  2 O       -0.5130     1.7350    -2.0490 O.2   1 <1>  -0.6500 
  3 O        0.3210    -0.4700    -2.8680 O.2   1 <1>  -0.6500 
  4 N        1.2150     0.4610    -0.7010 N.am  1 <1>  -0.8490 
  5 C       -1.3850    -0.4540    -0.7960 C.ar  1 <1>  -0.0090 
  6 C        2.2160     1.4260    -1.1610 C.3   1 <1>   0.1960 
  7 C        1.8100    -0.8580    -0.4570 C.3   1 <1>   0.1960 
  8 C       -1.6650    -0.0550     0.5060 C.ar  1 <1>  -0.1500 
  9 C       -2.1260    -1.5050    -1.3260 C.ar  1 <1>  -0.1500 
 10 C        3.3170     1.5950    -0.1100 C.3   1 <1>  -0.1600 
 11 C        2.8840    -0.7610     0.6280 C.3   1 <1>  -0.1600 
 12 C       -2.6430    -0.6870     1.2550 C.ar  1 <1>  -0.1500 
 13 C       -3.1070    -2.1440    -0.5860 C.ar  1 <1>  -0.1500 
 14 C        3.9750     0.2510     0.2390 C.3   1 <1>  -0.0190 
 15 C       -3.3700    -1.7350     0.7170 C.ar  1 <1>   0.0830 
 16 C        5.0300     0.4200     1.3300 C.2   1 <1>   0.5690 
 17 O       -4.3080    -2.3010     1.5140 O.3   1 <1>  -0.3630 
 18 O        4.6940     0.5400     2.4840 O.2   1 <1>  -0.5700 
 19 N        6.3340     0.4450     0.9690 N.am  1 <1>  -0.7300 
 20 C       -5.1220    -3.3560     1.0590 C.3   1 <1>   0.1200 
 21 C        7.4690     0.7120     1.8790 C.3   1 <1>   0.2840 
 22 C       -6.0680    -3.7460     2.1900 C.3   1 <1>  -0.2400 
 23 C        8.4200     1.7070     1.2220 C.ar  1 <1>   0.1670 
 24 N        8.9210     1.3650     0.0390 N.ar  1 <1>  -0.6200 
 25 C        8.7090     2.9010     1.8680 C.ar  1 <1>  -0.1500 
 26 C        9.7450     2.2440    -0.5100 C.ar  1 <1>   0.1600 
 27 C        9.5680     3.8050     1.2810 C.ar  1 <1>  -0.1500 
 28 C       10.0960     3.4560     0.0580 C.ar  1 <1>  -0.1500 
 29 H        1.7510     2.3840    -1.3250 H     1 <1>   0.0800 
 30 H        2.6400     1.0950    -2.0960 H     1 <1>   0.0800 
 31 H        2.2430    -1.2420    -1.3680 H     1 <1>   0.0800 
 32 H        1.0490    -1.5470    -0.1310 H     1 <1>   0.0800 
 33 H       -1.1090     0.7600     0.9380 H     1 <1>   0.1500 
 34 H       -1.9300    -1.8290    -2.3350 H     1 <1>   0.1500 
 35 H        2.8850     2.0280     0.7760 H     1 <1>   0.0800 
 36 H        4.0600     2.2790    -0.4790 H     1 <1>   0.0800 
 37 H        3.3270    -1.7280     0.7820 H     1 <1>   0.0800 
 38 H        2.4170    -0.4630     1.5510 H     1 <1>   0.0800 
 39 H       -2.8490    -0.3690     2.2610 H     1 <1>   0.1500 
 40 H       -3.6510    -2.9510    -1.0380 H     1 <1>   0.1500 
 41 H        4.4670    -0.1190    -0.6430 H     1 <1>   0.0800 
 42 H        6.6250     0.4270    -0.0120 H     1 <1>   0.3700 
 43 H       -4.4890    -4.1840     0.7900 H     1 <1>   0.0800 
 44 H       -5.6750    -3.0140     0.2010 H     1 <1>   0.0800 
 45 H        7.9950    -0.2070     2.0630 H     1 <1>   0.0800 
 46 H        7.1090     1.0950     2.8180 H     1 <1>   0.0800 
 47 H       -5.5050    -4.0710     3.0470 H     1 <1>   0.0800 
 48 H       -6.7050    -4.5510     1.8720 H     1 <1>   0.0800 
 49 H       -6.6840    -2.9080     2.4620 H     1 <1>   0.0800 
 50 H        8.2660     3.1250     2.8220 H     1 <1>   0.1500 
 51 H       10.1660     1.9830    -1.4660 H     1 <1>   0.1500 
 52 H        9.8140     4.7400     1.7560 H     1 <1>   0.1500 
 53 H       10.7740     4.1160    -0.4540 H     1 <1>   0.1500 
@<TRIPOS>BOND
  1   1   2  2   
  2   1   3  2   
  3   1   4  am  
  4   1   5  1   
  5   4   6  1   
  6   4   7  1   
  7   5   8  ar  
  8   5   9  ar  
  9   6  10  1   
 10   6  29  1   
 11   6  30  1   
 12   7  11  1   
 13   7  31  1   
 14   7  32  1   
 15   8  12  ar  
 16   8  33  1   
 17   9  13  ar  
 18   9  34  1   
 19  10  14  1   
 20  10  35  1   
 21  10  36  1   
 22  11  14  1   
 23  11  37  1   
 24  11  38  1   
 25  12  15  ar  
 26  12  39  1   
 27  13  15  ar  
 28  13  40  1   
 29  14  16  1   
 30  14  41  1   
 31  15  17  1   
 32  16  18  2   
 33  16  19  am  
 34  17  20  1   
 35  19  21  1   
 36  19  42  1   
 37  20  22  1   
 38  20  43  1   
 39  20  44  1   
 40  21  23  1   
 41  21  45  1   
 42  21  46  1   
 43  22  47  1   
 44  22  48  1   
 45  22  49  1   
 46  23  24  ar  
 47  23  25  ar  
 48  24  26  ar  
 49  25  27  ar  
 50  25  50  1   
 51  26  28  ar  
 52  26  51  1   
 53  27  28  ar  
 54  27  52  1   
 55  28  53  1   
@<TRIPOS>SUBSTRUCTURE
  1 ****  11 GROUP 4 **** **** 0

# MOE 2024.06 (io_trps.svl 2023.06)
