@<TRIPOS>MOLECULE
(4-Isopropylsulfanyl-6-morpholin-4-yl-[1,3,5]triazin-2-yl)-dimethyl-amine
40 41 1 0 0 
SMALL
USER_CHARGES


@<TRIPOS>ATOM
  1 S       -0.0960    -0.0530     0.1010 S.3   1 <1>  -0.3320 
  2 C       -0.0480    -1.8350    -0.0340 C.ar  1 <1>   0.7220 
  3 C        1.6480     0.5170    -0.1100 C.3   1 <1>   0.1500 
  4 N        1.1120    -2.3720    -0.2600 N.ar  1 <1>  -0.6200 
  5 N       -1.1950    -2.4200     0.1070 N.ar  1 <1>  -0.6200 
  6 C        2.3530     0.3890     1.2410 C.3   1 <1>  -0.2400 
  7 C        1.5890     1.9660    -0.5920 C.3   1 <1>  -0.2400 
  8 C        1.0630    -3.6800    -0.3450 C.ar  1 <1>   0.7200 
  9 C       -1.1200    -3.7240     0.0020 C.ar  1 <1>   0.7200 
 10 N       -0.0220    -4.4010    -0.2220 N.ar  1 <1>  -0.6200 
 11 N        2.2490    -4.3390    -0.5810 N.pl3 1 <1>  -0.8380 
 12 N       -2.2940    -4.4370     0.1400 N.pl3 1 <1>  -0.8380 
 13 C        2.3300    -5.7970    -0.9110 C.3   1 <1>   0.2090 
 14 C        3.5830    -3.6610    -0.6160 C.3   1 <1>   0.2090 
 15 C       -2.3140    -5.9130     0.3380 C.3   1 <1>   0.1290 
 16 C       -3.6310    -3.7770     0.1270 C.3   1 <1>   0.1290 
 17 C        3.4510    -6.4780    -0.1070 C.3   1 <1>   0.1200 
 18 C        4.6300    -4.4730     0.1680 C.3   1 <1>   0.1200 
 19 O        4.6690    -5.8040    -0.2670 O.3   1 <1>  -0.5600 
 20 H        2.1090    -0.1060    -0.8570 H     1 <1>   0.0800 
 21 H        1.8480     0.9810     1.9830 H     1 <1>   0.0800 
 22 H        3.3690     0.7280     1.1600 H     1 <1>   0.0800 
 23 H        2.3600    -0.6370     1.5600 H     1 <1>   0.0800 
 24 H        1.0800     2.5800     0.1300 H     1 <1>   0.0800 
 25 H        1.0620     2.0190    -1.5270 H     1 <1>   0.0800 
 26 H        2.5830     2.3480    -0.7360 H     1 <1>   0.0800 
 27 H        2.5340    -5.9080    -1.9620 H     1 <1>   0.0800 
 28 H        1.4030    -6.3010    -0.7030 H     1 <1>   0.0800 
 29 H        3.5300    -2.6740    -0.1910 H     1 <1>   0.0800 
 30 H        3.9030    -3.5640    -1.6380 H     1 <1>   0.0800 
 31 H       -1.3930    -6.2510     0.7820 H     1 <1>   0.0800 
 32 H       -2.4450    -6.4020    -0.6110 H     1 <1>   0.0800 
 33 H       -3.1230    -6.1860     0.9930 H     1 <1>   0.0800 
 34 H       -3.6050    -2.8770    -0.4640 H     1 <1>   0.0800 
 35 H       -3.9170    -3.5240     1.1330 H     1 <1>   0.0800 
 36 H       -4.3660    -4.4370    -0.2980 H     1 <1>   0.0800 
 37 H        3.5880    -7.4890    -0.4460 H     1 <1>   0.0800 
 38 H        3.2010    -6.4950     0.9400 H     1 <1>   0.0800 
 39 H        4.4010    -4.4600     1.2190 H     1 <1>   0.0800 
 40 H        5.6090    -4.0520     0.0220 H     1 <1>   0.0800 
@<TRIPOS>BOND
  1   1   2  1   
  2   1   3  1   
  3   2   4  ar  
  4   2   5  ar  
  5   3   6  1   
  6   3   7  1   
  7   3  20  1   
  8   4   8  ar  
  9   5   9  ar  
 10   6  21  1   
 11   6  22  1   
 12   6  23  1   
 13   7  24  1   
 14   7  25  1   
 15   7  26  1   
 16   8  10  ar  
 17   8  11  1   
 18   9  10  ar  
 19   9  12  1   
 20  11  13  1   
 21  11  14  1   
 22  12  15  1   
 23  12  16  1   
 24  13  17  1   
 25  13  27  1   
 26  13  28  1   
 27  14  18  1   
 28  14  29  1   
 29  14  30  1   
 30  15  31  1   
 31  15  32  1   
 32  15  33  1   
 33  16  34  1   
 34  16  35  1   
 35  16  36  1   
 36  17  19  1   
 37  17  37  1   
 38  17  38  1   
 39  18  19  1   
 40  18  39  1   
 41  18  40  1   
@<TRIPOS>SUBSTRUCTURE
  1 ****   8 GROUP 4 **** **** 0

# MOE 2024.06 (io_trps.svl 2023.06)
