@<TRIPOS>MOLECULE
N-{1-[3-(4-tert-Butyl-phenyl)-[1,2,4]oxadiazol-5-yl]-ethyl}-nicotinamide
48 50 1 0 0 
SMALL
USER_CHARGES


@<TRIPOS>ATOM
  1 O       -3.0570     0.1270    -2.6150 O.2   1 <1>  -0.5700 
  2 C       -3.5250     0.3860    -1.5300 C.2   1 <1>   0.5440 
  3 N       -4.8750     0.5070    -1.4670 N.am  1 <1>  -0.7300 
  4 C       -2.6800     0.5270    -0.3670 C.ar  1 <1>   0.0860 
  5 C       -5.7140     0.3290    -0.2600 C.3   1 <1>   0.4000 
  6 C       -2.6660     1.7120     0.3630 C.ar  1 <1>   0.1600 
  7 C       -1.8660    -0.5040     0.0780 C.ar  1 <1>  -0.1500 
  8 C       -5.8840    -1.1580     0.0750 C.2   1 <1>   0.2980 
  9 C       -7.0420     1.0420    -0.5190 C.3   1 <1>  -0.2400 
 10 N       -1.9690     1.9340     1.4660 N.ar  1 <1>  -0.6200 
 11 C       -1.1220    -0.2930     1.2180 C.ar  1 <1>  -0.1500 
 12 O       -4.8730    -1.7660     0.6390 O.3   1 <1>  -0.0190 
 13 N       -6.9060    -1.8870    -0.1310 N.2   1 <1>  -0.5650 
 14 C       -1.2100     0.9260     1.8680 C.ar  1 <1>   0.1600 
 15 N       -5.2840    -2.9820     0.8050 N.2   1 <1>  -0.4100 
 16 C       -6.4840    -3.0620     0.3500 C.2   1 <1>   0.4620 
 17 C       -7.3120    -4.2570     0.3430 C.ar  1 <1>   0.0540 
 18 C       -6.8480    -5.4650     0.8600 C.ar  1 <1>  -0.1500 
 19 C       -8.6050    -4.2570    -0.1780 C.ar  1 <1>  -0.1500 
 20 C       -7.6300    -6.6040     0.8570 C.ar  1 <1>  -0.1500 
 21 C       -9.3900    -5.3960    -0.1820 C.ar  1 <1>  -0.1500 
 22 C       -8.9190    -6.5980     0.3360 C.ar  1 <1>  -0.1430 
 23 C       -9.7550    -7.8960     0.3550 C.3   1 <1>   0.1430 
 24 C       -9.0310    -8.9860    -0.4490 C.3   1 <1>  -0.2400 
 25 C      -11.1560    -7.7230    -0.2560 C.3   1 <1>  -0.2400 
 26 C       -9.9380    -8.3690     1.8050 C.3   1 <1>  -0.2400 
 27 H       -5.3550     0.2980    -2.3450 H     1 <1>   0.3700 
 28 H       -5.2380     0.8030     0.5800 H     1 <1>   0.0800 
 29 H       -3.2760     2.5250     0.0080 H     1 <1>   0.1500 
 30 H       -1.8270    -1.4380    -0.4580 H     1 <1>   0.1500 
 31 H       -7.5530     0.5970    -1.3540 H     1 <1>   0.0800 
 32 H       -6.8740     2.0850    -0.7140 H     1 <1>   0.0800 
 33 H       -7.6730     0.9550     0.3470 H     1 <1>   0.0800 
 34 H       -0.4790    -1.0640     1.6030 H     1 <1>   0.1500 
 35 H       -0.6270     1.0810     2.7610 H     1 <1>   0.1500 
 36 H       -5.8550    -5.5150     1.2720 H     1 <1>   0.1500 
 37 H       -9.0070    -3.3480    -0.5890 H     1 <1>   0.1500 
 38 H       -7.2180    -7.5070     1.2700 H     1 <1>   0.1500 
 39 H      -10.3750    -5.3150    -0.6010 H     1 <1>   0.1500 
 40 H       -8.8670    -8.6490    -1.4580 H     1 <1>   0.0800 
 41 H       -9.6140    -9.8880    -0.4800 H     1 <1>   0.0800 
 42 H       -8.0770    -9.2200    -0.0140 H     1 <1>   0.0800 
 43 H      -11.7010    -8.6490    -0.2220 H     1 <1>   0.0800 
 44 H      -11.0840    -7.4180    -1.2850 H     1 <1>   0.0800 
 45 H      -11.7180    -6.9860     0.2900 H     1 <1>   0.0800 
 46 H      -10.5490    -9.2520     1.8430 H     1 <1>   0.0800 
 47 H      -10.4140    -7.5970     2.3850 H     1 <1>   0.0800 
 48 H       -8.9930    -8.5970     2.2610 H     1 <1>   0.0800 
@<TRIPOS>BOND
  1   1   2  2   
  2   2   3  am  
  3   2   4  1   
  4   3   5  1   
  5   3  27  1   
  6   4   6  ar  
  7   4   7  ar  
  8   5   8  1   
  9   5   9  1   
 10   5  28  1   
 11   6  10  ar  
 12   6  29  1   
 13   7  11  ar  
 14   7  30  1   
 15   8  12  1   
 16   8  13  2   
 17   9  31  1   
 18   9  32  1   
 19   9  33  1   
 20  10  14  ar  
 21  11  14  ar  
 22  11  34  1   
 23  12  15  1   
 24  13  16  1   
 25  14  35  1   
 26  15  16  2   
 27  16  17  1   
 28  17  18  ar  
 29  17  19  ar  
 30  18  20  ar  
 31  18  36  1   
 32  19  21  ar  
 33  19  37  1   
 34  20  22  ar  
 35  20  38  1   
 36  21  22  ar  
 37  21  39  1   
 38  22  23  1   
 39  23  24  1   
 40  23  25  1   
 41  23  26  1   
 42  24  40  1   
 43  24  41  1   
 44  24  42  1   
 45  25  43  1   
 46  25  44  1   
 47  25  45  1   
 48  26  46  1   
 49  26  47  1   
 50  26  48  1   
@<TRIPOS>SUBSTRUCTURE
  1 ****  16 GROUP 4 **** **** 0

# MOE 2024.06 (io_trps.svl 2023.06)
