@<TRIPOS>MOLECULE
(2,6-Dimethyl-morpholin-4-yl)-[5-(2,2,2-trifluoro-ethoxymethyl)-furan-2-yl]-meth
40 41 1 0 0 
SMALL
USER_CHARGES


@<TRIPOS>ATOM
  1 F        1.2870     1.3450    -1.6200 F     1 <1>  -0.3400 
  2 C        1.3360     1.4130    -0.2950 C.3   1 <1>   1.0200 
  3 F        2.2870     0.5700     0.0940 F     1 <1>  -0.3400 
  4 F        0.1900     0.9090     0.1450 F     1 <1>  -0.3400 
  5 C        1.5530     2.8500     0.2300 C.3   1 <1>   0.1200 
  6 O        2.7650     3.4270    -0.1930 O.3   1 <1>  -0.5600 
  7 C        3.0230     4.6970     0.3270 C.3   1 <1>   0.3000 
  8 C        4.4050     5.1390    -0.1190 C.2   1 <1>  -0.0400 
  9 O        5.4530     4.4450     0.2660 O.3   1 <1>  -0.2800 
 10 C        4.7960     6.1820    -0.8820 C.2   1 <1>  -0.1500 
 11 C        6.5550     4.9900    -0.2440 C.2   1 <1>   0.0550 
 12 C        6.1860     6.0900    -0.9590 C.2   1 <1>  -0.1500 
 13 C        7.8760     4.4390    -0.0120 C.2   1 <1>   0.7150 
 14 O        8.8440     5.1730    -0.1300 O.2   1 <1>  -0.5700 
 15 N        8.0970     3.1150     0.3250 N.am  1 <1>  -0.6600 
 16 C        9.4630     2.5840     0.6180 C.3   1 <1>   0.1400 
 17 C        7.0580     2.0540     0.1260 C.3   1 <1>   0.1400 
 18 C        9.8570     1.4460    -0.3550 C.3   1 <1>   0.2000 
 19 C        7.6560     0.6320     0.0960 C.3   1 <1>   0.2000 
 20 O        8.7910     0.6060    -0.7180 O.3   1 <1>  -0.5600 
 21 C       10.9570     0.5550     0.2200 C.3   1 <1>  -0.2400 
 22 C        6.6740    -0.3910    -0.4700 C.3   1 <1>  -0.2400 
 23 H        1.5480     2.8200     1.3040 H     1 <1>   0.0800 
 24 H        0.7450     3.4680    -0.1170 H     1 <1>   0.0800 
 25 H        2.9890     4.6500     1.4010 H     1 <1>   0.0800 
 26 H        2.2760     5.3790    -0.0390 H     1 <1>   0.0800 
 27 H        4.1940     6.9400    -1.3520 H     1 <1>   0.1500 
 28 H        6.8360     6.7640    -1.4880 H     1 <1>   0.1500 
 29 H        9.4730     2.2110     1.6270 H     1 <1>   0.0800 
 30 H       10.2040     3.3630     0.5640 H     1 <1>   0.0800 
 31 H        6.5460     2.2350    -0.8030 H     1 <1>   0.0800 
 32 H        6.3330     2.1110     0.9180 H     1 <1>   0.0800 
 33 H       10.2120     1.8920    -1.2680 H     1 <1>   0.0800 
 34 H        7.9480     0.3330     1.0880 H     1 <1>   0.0800 
 35 H       10.6180     0.0700     1.1170 H     1 <1>   0.0800 
 36 H       11.8250     1.1450     0.4510 H     1 <1>   0.0800 
 37 H       11.2350    -0.1900    -0.5040 H     1 <1>   0.0800 
 38 H        6.4060    -0.1320    -1.4780 H     1 <1>   0.0800 
 39 H        5.7810    -0.4170     0.1280 H     1 <1>   0.0800 
 40 H        7.1210    -1.3690    -0.4610 H     1 <1>   0.0800 
@<TRIPOS>BOND
  1   1   2  1   
  2   2   3  1   
  3   2   4  1   
  4   2   5  1   
  5   5   6  1   
  6   5  23  1   
  7   5  24  1   
  8   6   7  1   
  9   7   8  1   
 10   7  25  1   
 11   7  26  1   
 12   8   9  1   
 13   8  10  2   
 14   9  11  1   
 15  10  12  1   
 16  10  27  1   
 17  11  12  2   
 18  11  13  1   
 19  12  28  1   
 20  13  14  2   
 21  13  15  am  
 22  15  16  1   
 23  15  17  1   
 24  16  18  1   
 25  16  29  1   
 26  16  30  1   
 27  17  19  1   
 28  17  31  1   
 29  17  32  1   
 30  18  20  1   
 31  18  21  1   
 32  18  33  1   
 33  19  20  1   
 34  19  22  1   
 35  19  34  1   
 36  21  35  1   
 37  21  36  1   
 38  21  37  1   
 39  22  38  1   
 40  22  39  1   
 41  22  40  1   
@<TRIPOS>SUBSTRUCTURE
  1 ****  17 GROUP 4 **** **** 0

# MOE 2024.06 (io_trps.svl 2023.06)
