@<TRIPOS>MOLECULE
N-(3-Acetyl-phenyl)-N-[2-(4-methyl-piperidin-1-yl)-2-oxo-ethyl]-methanesulfonami
48 49 1 0 0 
SMALL
USER_CHARGES


@<TRIPOS>ATOM
  1 S        0.5070    -0.4900     0.2370 S.o2  1 <1>   1.3330 
  2 O       -0.2240    -1.1540    -0.8140 O.2   1 <1>  -0.6500 
  3 O        1.8920    -0.7870     0.5000 O.2   1 <1>  -0.6500 
  4 N        0.3810     1.2080    -0.0770 N.am  1 <1>  -0.6930 
  5 C       -0.3780    -0.6860     1.7700 C.3   1 <1>  -0.1350 
  6 C       -0.8340     1.8500     0.1200 C.ar  1 <1>   0.1990 
  7 C        1.1580     1.6500    -1.2840 C.3   1 <1>   0.2570 
  8 C       -1.8770     1.7200    -0.7850 C.ar  1 <1>  -0.1500 
  9 C       -1.0180     2.6400     1.2460 C.ar  1 <1>  -0.1500 
 10 C        2.6890     1.5470    -1.1940 C.2   1 <1>   0.5690 
 11 C       -3.1030     2.3620    -0.6100 C.ar  1 <1>   0.0860 
 12 C       -2.2200     3.2860     1.4540 C.ar  1 <1>  -0.1500 
 13 O        3.2410     0.9520    -2.0930 O.2   1 <1>  -0.5700 
 14 N        3.4080     2.1380    -0.1780 N.am  1 <1>  -0.6600 
 15 C       -4.1570     2.2050    -1.5950 C.2   1 <1>   0.4230 
 16 C       -3.2470     3.1500     0.5380 C.ar  1 <1>  -0.1500 
 17 C        4.8530     1.8270     0.0110 C.3   1 <1>   0.1400 
 18 C        2.8280     3.0060     0.8820 C.3   1 <1>   0.1400 
 19 O       -3.9750     1.7020    -2.6720 O.2   1 <1>  -0.5700 
 20 C       -5.5660     2.6800    -1.2970 C.3   1 <1>  -0.1790 
 21 C        5.6610     3.1240     0.1070 C.3   1 <1>  -0.1600 
 22 C        3.6280     4.3080     0.9920 C.3   1 <1>  -0.1600 
 23 C        5.1240     4.0410     1.2160 C.3   1 <1>  -0.0800 
 24 C        5.9090     5.3570     1.2570 C.3   1 <1>  -0.2400 
 25 H       -0.3400    -1.7120     2.0820 H     1 <1>   0.0800 
 26 H       -1.4050    -0.4050     1.6490 H     1 <1>   0.0800 
 27 H        0.0660    -0.0790     2.5340 H     1 <1>   0.0800 
 28 H        0.9180     2.6740    -1.5050 H     1 <1>   0.0800 
 29 H        0.8410     1.0600    -2.1260 H     1 <1>   0.0800 
 30 H       -1.7360     1.0960    -1.6520 H     1 <1>   0.1500 
 31 H       -0.2170     2.7450     1.9540 H     1 <1>   0.1500 
 32 H       -2.3570     3.9000     2.3300 H     1 <1>   0.1500 
 33 H       -4.1680     3.6720     0.7250 H     1 <1>   0.1500 
 34 H        5.2260     1.2320    -0.8060 H     1 <1>   0.0800 
 35 H        4.9680     1.2530     0.9140 H     1 <1>   0.0800 
 36 H        2.8580     2.4750     1.8190 H     1 <1>   0.0800 
 37 H        1.8060     3.2500     0.6630 H     1 <1>   0.0800 
 38 H       -6.2360     2.3310    -2.0630 H     1 <1>   0.0800 
 39 H       -5.5960     3.7530    -1.2820 H     1 <1>   0.0800 
 40 H       -5.8990     2.2920    -0.3530 H     1 <1>   0.0800 
 41 H        5.6170     3.6260    -0.8440 H     1 <1>   0.0800 
 42 H        6.6900     2.8800     0.3020 H     1 <1>   0.0800 
 43 H        3.2390     4.8910     1.8070 H     1 <1>   0.0800 
 44 H        3.4890     4.8730     0.0870 H     1 <1>   0.0800 
 45 H        5.2460     3.5410     2.1630 H     1 <1>   0.0800 
 46 H        5.8130     5.8860     0.3250 H     1 <1>   0.0800 
 47 H        6.9520     5.1640     1.4350 H     1 <1>   0.0800 
 48 H        5.5430     5.9870     2.0480 H     1 <1>   0.0800 
@<TRIPOS>BOND
  1   1   2  2   
  2   1   3  2   
  3   1   4  am  
  4   1   5  1   
  5   4   6  1   
  6   4   7  1   
  7   5  25  1   
  8   5  26  1   
  9   5  27  1   
 10   6   8  ar  
 11   6   9  ar  
 12   7  10  1   
 13   7  28  1   
 14   7  29  1   
 15   8  11  ar  
 16   8  30  1   
 17   9  12  ar  
 18   9  31  1   
 19  10  13  2   
 20  10  14  am  
 21  11  15  1   
 22  11  16  ar  
 23  12  16  ar  
 24  12  32  1   
 25  14  17  1   
 26  14  18  1   
 27  15  19  2   
 28  15  20  1   
 29  16  33  1   
 30  17  21  1   
 31  17  34  1   
 32  17  35  1   
 33  18  22  1   
 34  18  36  1   
 35  18  37  1   
 36  20  38  1   
 37  20  39  1   
 38  20  40  1   
 39  21  23  1   
 40  21  41  1   
 41  21  42  1   
 42  22  23  1   
 43  22  43  1   
 44  22  44  1   
 45  23  24  1   
 46  23  45  1   
 47  24  46  1   
 48  24  47  1   
 49  24  48  1   
@<TRIPOS>SUBSTRUCTURE
  1 ****   4 GROUP 4 **** **** 0

# MOE 2024.06 (io_trps.svl 2023.06)
