@<TRIPOS>MOLECULE
8-(2-Methoxy-ethyl)-1,7-dimethyl-3-(1-methyl-2-oxo-propyl)-1H,8H-imidazo[2,1-f]p
47 49 1 0 0 
SMALL
USER_CHARGES


@<TRIPOS>ATOM
  1 O        0.8430     0.0850     0.8210 O.2   1 <1>  -0.5750 
  2 C        1.7560     0.8080     0.4750 C.2   1 <1>   0.6860 
  3 N        1.4960     1.9940    -0.2090 N.am  1 <1>  -0.4260 
  4 N        3.0640     0.4380     0.7650 N.am  1 <1>  -0.4420 
  5 C        2.5330     2.7970    -0.6600 C.2   1 <1>   0.6990 
  6 C        0.1120     2.5780    -0.1650 C.3   1 <1>   0.2740 
  7 C        4.0800     1.2890     0.3870 C.2   1 <1>   0.4200 
  8 C        3.3470    -0.8000     1.5490 C.3   1 <1>   0.0520 
  9 O        2.3170     3.7790    -1.3520 O.2   1 <1>  -0.5750 
 10 C        3.8650     2.4290    -0.3120 C.2   1 <1>   0.2700 
 11 C       -0.3420     2.7380     1.2970 C.2   1 <1>   0.4420 
 12 C       -0.8240     1.8000    -1.1070 C.3   1 <1>  -0.2470 
 13 N        5.4180     1.1490     0.6050 N.pl3 1 <1>  -0.7040 
 14 N        5.1290     2.9940    -0.5450 N.pl3 1 <1>  -0.6340 
 15 O        0.3860     3.2540     2.0940 O.2   1 <1>  -0.5750 
 16 C       -1.7100     2.2400     1.7230 C.3   1 <1>  -0.1870 
 17 C        6.0150     2.1860     0.0220 C.cat 1 <1>   1.0690 
 18 C        5.8420     4.0240    -1.1260 C.2   1 <1>   0.2220 
 19 N        7.2710     2.6230    -0.1500 N.pl3 1 <1>  -0.5720 
 20 C        7.1530     3.7970    -0.8830 C.2   1 <1>   0.1570 
 21 C        8.5130     2.0210     0.4260 C.3   1 <1>   0.1600 
 22 C        8.3520     4.6290    -1.2990 C.3   1 <1>  -0.1100 
 23 C        8.7520     0.5670    -0.0140 C.3   1 <1>   0.1120 
 24 O        7.7050    -0.2520     0.4230 O.3   1 <1>  -0.5650 
 25 C        7.9160    -1.6040     0.1450 C.3   1 <1>   0.0310 
 26 H        0.1420     3.5820    -0.5480 H     1 <1>   0.0720 
 27 H        2.6100    -1.5550     1.3340 H     1 <1>   0.0720 
 28 H        3.3140    -0.5750     2.6010 H     1 <1>   0.0720 
 29 H        4.3150    -1.1960     1.2990 H     1 <1>   0.0720 
 30 H       -0.9930     0.7960    -0.7610 H     1 <1>   0.0720 
 31 H       -0.4030     1.7640    -2.0960 H     1 <1>   0.0720 
 32 H       -1.7750     2.2970    -1.1720 H     1 <1>   0.0720 
 33 H        5.9860     0.3450     0.9030 H     1 <1>   0.4440 
 34 H       -1.7770     1.1780     1.5760 H     1 <1>   0.0720 
 35 H       -2.4800     2.7330     1.1590 H     1 <1>   0.0720 
 36 H       -1.8620     2.4490     2.7660 H     1 <1>   0.0720 
 37 H        5.3620     4.8290    -1.6610 H     1 <1>   0.1420 
 38 H        8.4610     2.0590     1.5010 H     1 <1>   0.0720 
 39 H        9.3650     2.6060     0.1270 H     1 <1>   0.0720 
 40 H        9.0160     4.0450    -1.9100 H     1 <1>   0.0720 
 41 H        8.8860     4.9730    -0.4310 H     1 <1>   0.0720 
 42 H        8.0340     5.4870    -1.8650 H     1 <1>   0.0720 
 43 H        9.6690     0.2080     0.4230 H     1 <1>   0.0720 
 44 H        8.8230     0.5040    -1.0860 H     1 <1>   0.0720 
 45 H        7.0690    -2.1630     0.5020 H     1 <1>   0.0720 
 46 H        8.8050    -1.9380     0.6520 H     1 <1>   0.0720 
 47 H        8.0170    -1.7400    -0.9180 H     1 <1>   0.0720 
@<TRIPOS>BOND
  1   1   2  2   
  2   2   3  am  
  3   2   4  am  
  4   3   5  am  
  5   3   6  1   
  6   4   7  1   
  7   4   8  1   
  8   5   9  2   
  9   5  10  1   
 10   6  11  1   
 11   6  12  1   
 12   6  26  1   
 13   7  10  2   
 14   7  13  1   
 15   8  27  1   
 16   8  28  1   
 17   8  29  1   
 18  10  14  1   
 19  11  15  2   
 20  11  16  1   
 21  12  30  1   
 22  12  31  1   
 23  12  32  1   
 24  13  17  ar  
 25  13  33  1   
 26  14  17  ar  
 27  14  18  1   
 28  16  34  1   
 29  16  35  1   
 30  16  36  1   
 31  17  19  ar  
 32  18  20  2   
 33  18  37  1   
 34  19  20  1   
 35  19  21  1   
 36  20  22  1   
 37  21  23  1   
 38  21  38  1   
 39  21  39  1   
 40  22  40  1   
 41  22  41  1   
 42  22  42  1   
 43  23  24  1   
 44  23  43  1   
 45  23  44  1   
 46  24  25  1   
 47  25  45  1   
 48  25  46  1   
 49  25  47  1   
@<TRIPOS>SUBSTRUCTURE
  1 ****   7 GROUP 4 **** **** 0

# MOE 2024.06 (io_trps.svl 2023.06)
