@<TRIPOS>MOLECULE
1-(4-Methoxy-3-methyl-benzenesulfonyl)-piperidine-4-carboxylic acid cyclohexylam
57 59 1 0 0 
SMALL
USER_CHARGES


@<TRIPOS>ATOM
  1 S        0.0860    -0.4060    -2.4830 S.o2  1 <1>   1.4470 
  2 O        0.4640    -1.6280    -3.1590 O.2   1 <1>  -0.6500 
  3 O       -0.3990     0.7130    -3.2640 O.2   1 <1>  -0.6500 
  4 N        1.4570     0.1520    -1.6530 N.am  1 <1>  -0.8490 
  5 C       -1.0730    -0.7970    -1.1440 C.ar  1 <1>  -0.0090 
  6 C        1.2250     1.4590    -1.0290 C.3   1 <1>   0.1960 
  7 C        2.6360     0.1690    -2.5230 C.3   1 <1>   0.1960 
  8 C       -2.3650    -0.2830    -1.1320 C.ar  1 <1>  -0.1500 
  9 C       -0.6930    -1.6200    -0.0920 C.ar  1 <1>  -0.1500 
 10 C        2.4260     1.8550    -0.1680 C.3   1 <1>  -0.1600 
 11 C        3.8860     0.5350    -1.7180 C.3   1 <1>  -0.1600 
 12 C       -3.2530    -0.5690    -0.1080 C.ar  1 <1>  -0.1430 
 13 C       -1.5650    -1.9180     0.9400 C.ar  1 <1>  -0.1500 
 14 C        3.7190     1.8830    -0.9980 C.3   1 <1>  -0.0190 
 15 C       -2.8540    -1.3920     0.9400 C.ar  1 <1>   0.0830 
 16 C       -4.6570     0.0180    -0.1390 C.3   1 <1>  -0.0970 
 17 C        4.9390     2.2150    -0.1410 C.2   1 <1>   0.5690 
 18 O       -3.7540    -1.6460     1.9250 O.3   1 <1>  -0.3630 
 19 O        5.1790     1.5320     0.8250 O.2   1 <1>  -0.5700 
 20 N        5.7110     3.2750    -0.5080 N.am  1 <1>  -0.7300 
 21 C       -3.4480    -2.4860     3.0150 C.3   1 <1>   0.0400 
 22 C        6.9330     3.7870     0.1520 C.3   1 <1>   0.2200 
 23 C        8.0510     2.7370     0.1350 C.3   1 <1>  -0.1600 
 24 C        6.6300     4.2700     1.5760 C.3   1 <1>  -0.1600 
 25 C        9.3200     3.2770     0.8120 C.3   1 <1>  -0.1600 
 26 C        7.8990     4.8110     2.2530 C.3   1 <1>  -0.1600 
 27 C        9.0220     3.7640     2.2380 C.3   1 <1>  -0.1600 
 28 H        0.3490     1.4140    -0.4030 H     1 <1>   0.0800 
 29 H        1.0570     2.2060    -1.7890 H     1 <1>   0.0800 
 30 H        2.4870     0.8740    -3.3250 H     1 <1>   0.0800 
 31 H        2.7830    -0.8060    -2.9560 H     1 <1>   0.0800 
 32 H       -2.6750     0.3530    -1.9440 H     1 <1>   0.1500 
 33 H        0.3030    -2.0310    -0.0830 H     1 <1>   0.1500 
 34 H        2.5220     1.1480     0.6390 H     1 <1>   0.0800 
 35 H        2.2520     2.8240     0.2660 H     1 <1>   0.0800 
 36 H        4.7350     0.5780    -2.3770 H     1 <1>   0.0800 
 37 H        4.0720    -0.2420    -0.9960 H     1 <1>   0.0800 
 38 H       -1.2230    -2.5590     1.7300 H     1 <1>   0.1500 
 39 H        3.6150     2.6490    -1.7460 H     1 <1>   0.0800 
 40 H       -4.8070     0.6290    -1.0100 H     1 <1>   0.0800 
 41 H       -4.8180     0.6220     0.7370 H     1 <1>   0.0800 
 42 H       -5.3820    -0.7760    -0.1470 H     1 <1>   0.0800 
 43 H        5.4470     3.8010    -1.3400 H     1 <1>   0.3700 
 44 H       -4.3140    -2.5360     3.6500 H     1 <1>   0.0800 
 45 H       -2.6200    -2.0660     3.5580 H     1 <1>   0.0800 
 46 H       -3.2100    -3.4670     2.6430 H     1 <1>   0.0800 
 47 H        7.2760     4.6370    -0.4140 H     1 <1>   0.0800 
 48 H        8.2750     2.4620    -0.8800 H     1 <1>   0.0800 
 49 H        7.7290     1.8570     0.6630 H     1 <1>   0.0800 
 50 H        6.2500     3.4530     2.1630 H     1 <1>   0.0800 
 51 H        5.8830     5.0430     1.5450 H     1 <1>   0.0800 
 52 H        9.7180     4.0920     0.2320 H     1 <1>   0.0800 
 53 H       10.0660     2.5010     0.8460 H     1 <1>   0.0800 
 54 H        7.6750     5.0820     3.2710 H     1 <1>   0.0800 
 55 H        8.2300     5.6980     1.7400 H     1 <1>   0.0800 
 56 H        9.9140     4.1840     2.6700 H     1 <1>   0.0800 
 57 H        8.7280     2.9230     2.8430 H     1 <1>   0.0800 
@<TRIPOS>BOND
  1   1   2  2   
  2   1   3  2   
  3   1   4  am  
  4   1   5  1   
  5   4   6  1   
  6   4   7  1   
  7   5   8  ar  
  8   5   9  ar  
  9   6  10  1   
 10   6  28  1   
 11   6  29  1   
 12   7  11  1   
 13   7  30  1   
 14   7  31  1   
 15   8  12  ar  
 16   8  32  1   
 17   9  13  ar  
 18   9  33  1   
 19  10  14  1   
 20  10  34  1   
 21  10  35  1   
 22  11  14  1   
 23  11  36  1   
 24  11  37  1   
 25  12  15  ar  
 26  12  16  1   
 27  13  15  ar  
 28  13  38  1   
 29  14  17  1   
 30  14  39  1   
 31  15  18  1   
 32  16  40  1   
 33  16  41  1   
 34  16  42  1   
 35  17  19  2   
 36  17  20  am  
 37  18  21  1   
 38  20  22  1   
 39  20  43  1   
 40  21  44  1   
 41  21  45  1   
 42  21  46  1   
 43  22  23  1   
 44  22  24  1   
 45  22  47  1   
 46  23  25  1   
 47  23  48  1   
 48  23  49  1   
 49  24  26  1   
 50  24  50  1   
 51  24  51  1   
 52  25  27  1   
 53  25  52  1   
 54  25  53  1   
 55  26  27  1   
 56  26  54  1   
 57  26  55  1   
 58  27  56  1   
 59  27  57  1   
@<TRIPOS>SUBSTRUCTURE
  1 ****  10 GROUP 4 **** **** 0

# MOE 2024.06 (io_trps.svl 2023.06)
