@<TRIPOS>MOLECULE
N-(5-Ethoxymethyl-[1,3,4]thiadiazol-2-yl)-3,4,5-trimethoxy-benzamide
43 44 1 0 0 
SMALL
USER_CHARGES


@<TRIPOS>ATOM
  1 S       -0.6480     0.3050     0.8380 S.3   1 <1>  -0.0800 
  2 C       -2.3620     0.5150     0.7020 C.2   1 <1>   0.4420 
  3 C       -0.4850     1.3620    -0.5250 C.2   1 <1>   0.1980 
  4 N       -2.6820     1.2790    -0.2790 N.2   1 <1>  -0.3380 
  5 N       -3.1510    -0.1410     1.6190 N.am  1 <1>  -0.4940 
  6 N       -1.6080     1.7620    -0.9720 N.2   1 <1>  -0.3380 
  7 C        0.9110     1.6780    -1.0330 C.3   1 <1>   0.3000 
  8 C       -4.5040    -0.1510     1.8020 C.2   1 <1>   0.5440 
  9 O        1.7080     2.1470     0.0140 O.3   1 <1>  -0.5600 
 10 O       -4.9220    -1.0270     2.5280 O.2   1 <1>  -0.5700 
 11 C       -5.4090     0.8030     1.1940 C.ar  1 <1>   0.0860 
 12 C        2.9920     2.5110    -0.3650 C.3   1 <1>   0.1200 
 13 C       -5.1700     2.1750     1.2400 C.ar  1 <1>  -0.1500 
 14 C       -6.5630     0.3750     0.5410 C.ar  1 <1>  -0.1500 
 15 C        3.7210     2.9830     0.8860 C.3   1 <1>  -0.2400 
 16 C       -6.0250     3.0760     0.6350 C.ar  1 <1>   0.0830 
 17 C       -7.4370     1.2600    -0.0670 C.ar  1 <1>   0.0830 
 18 O       -5.6960     4.3870     0.6920 O.3   1 <1>  -0.3630 
 19 C       -7.1820     2.6350    -0.0110 C.ar  1 <1>   0.0830 
 20 O       -8.5150     0.7030    -0.6830 O.3   1 <1>  -0.3630 
 21 C       -5.1060     4.9030    -0.4790 C.3   1 <1>   0.0400 
 22 O       -8.0390     3.5330    -0.5620 O.3   1 <1>  -0.3630 
 23 C       -8.8980     1.1690    -1.9590 C.3   1 <1>   0.0400 
 24 C       -8.8300     4.2640     0.3460 C.3   1 <1>   0.0400 
 25 H       -2.6790    -0.8110     2.2220 H     1 <1>   0.3700 
 26 H        0.8540     2.4380    -1.7920 H     1 <1>   0.0800 
 27 H        1.3620     0.7890    -1.4380 H     1 <1>   0.0800 
 28 H        2.9320     3.3060    -1.0900 H     1 <1>   0.0800 
 29 H        3.4890     1.6560    -0.7930 H     1 <1>   0.0800 
 30 H       -4.2980     2.5510     1.7420 H     1 <1>   0.1500 
 31 H       -6.7830    -0.6780     0.5050 H     1 <1>   0.1500 
 32 H        3.2110     3.8280     1.3140 H     1 <1>   0.0800 
 33 H        4.7230     3.2780     0.6360 H     1 <1>   0.0800 
 34 H        3.7660     2.1880     1.6090 H     1 <1>   0.0800 
 35 H       -4.8500     5.9320    -0.3040 H     1 <1>   0.0800 
 36 H       -5.8120     4.8300    -1.2880 H     1 <1>   0.0800 
 37 H       -4.2200     4.3330    -0.7030 H     1 <1>   0.0800 
 38 H       -9.4490     0.3880    -2.4490 H     1 <1>   0.0800 
 39 H       -8.0160     1.4110    -2.5260 H     1 <1>   0.0800 
 40 H       -9.5230     2.0360    -1.8420 H     1 <1>   0.0800 
 41 H       -9.4970     4.8920    -0.2180 H     1 <1>   0.0800 
 42 H       -8.1920     4.8690     0.9660 H     1 <1>   0.0800 
 43 H       -9.3930     3.5730     0.9480 H     1 <1>   0.0800 
@<TRIPOS>BOND
  1   1   2  1   
  2   1   3  1   
  3   2   4  2   
  4   2   5  1   
  5   3   6  2   
  6   3   7  1   
  7   4   6  1   
  8   5   8  am  
  9   5  25  1   
 10   7   9  1   
 11   7  26  1   
 12   7  27  1   
 13   8  10  2   
 14   8  11  1   
 15   9  12  1   
 16  11  13  ar  
 17  11  14  ar  
 18  12  15  1   
 19  12  28  1   
 20  12  29  1   
 21  13  16  ar  
 22  13  30  1   
 23  14  17  ar  
 24  14  31  1   
 25  15  32  1   
 26  15  33  1   
 27  15  34  1   
 28  16  18  1   
 29  16  19  ar  
 30  17  19  ar  
 31  17  20  1   
 32  18  21  1   
 33  19  22  1   
 34  20  23  1   
 35  21  35  1   
 36  21  36  1   
 37  21  37  1   
 38  22  24  1   
 39  23  38  1   
 40  23  39  1   
 41  23  40  1   
 42  24  41  1   
 43  24  42  1   
 44  24  43  1   
@<TRIPOS>SUBSTRUCTURE
  1 ****   4 GROUP 4 **** **** 0

# MOE 2024.06 (io_trps.svl 2023.06)
