@<TRIPOS>MOLECULE
8-(3,5-Dimethyl-pyrazol-1-yl)-7-[2-(4-methoxy-phenyl)-ethyl]-3-methyl-3,7-dihydr
51 54 1 0 0 
SMALL
USER_CHARGES


@<TRIPOS>ATOM
  1 O        0.6890     0.5150     0.3330 O.2   1 <1>  -0.5700 
  2 C        1.7810     1.0460     0.3540 C.2   1 <1>   0.6900 
  3 N        2.9570     0.3230     0.3940 N.am  1 <1>  -0.4230 
  4 N        1.8340     2.4070     0.3320 N.am  1 <1>  -0.4900 
  5 C        4.1660     1.0190     0.4160 C.2   1 <1>   0.2900 
  6 C        2.9790    -1.1620     0.4350 C.3   1 <1>   0.0600 
  7 C        2.9930     3.1150     0.3450 C.2   1 <1>   0.7150 
  8 N        5.3850     0.4790     0.4390 N.2   1 <1>  -0.5650 
  9 C        4.1980     2.3700     0.4070 C.2   1 <1>  -0.2370 
 10 O        2.9390     4.3270     0.2870 O.2   1 <1>  -0.5700 
 11 C        6.1890     1.5200     0.4540 C.2   1 <1>   0.1100 
 12 N        5.5160     2.7090     0.4510 N.pl3 1 <1>   0.0480 
 13 N        7.6190     1.4330     0.4490 N.pl3 1 <1>   0.6460 
 14 C        6.0510     4.0960     0.4500 C.3   1 <1>   0.0960 
 15 N        8.4260     2.2870     1.1430 N.2   1 <1>  -0.7070 
 16 C        8.4000     0.5700    -0.2690 C.2   1 <1>  -0.3320 
 17 C        6.5550     4.4770    -0.9430 C.3   1 <1>  -0.0170 
 18 C        9.6380     1.9410     0.8650 C.2   1 <1>   0.1080 
 19 C        9.6900     0.8730    -0.0180 C.2   1 <1>  -0.1500 
 20 C        7.8690    -0.5270    -1.1810 C.3   1 <1>  -0.0600 
 21 C        7.2240     5.8380    -0.8900 C.ar  1 <1>  -0.1430 
 22 C       10.8390     2.6430     1.4550 C.3   1 <1>  -0.0590 
 23 C        6.5040     6.9890    -1.1710 C.ar  1 <1>  -0.1500 
 24 C        8.5640     5.9380    -0.5490 C.ar  1 <1>  -0.1500 
 25 C        7.1210     8.2250    -1.1150 C.ar  1 <1>  -0.1500 
 26 C        9.1840     7.1740    -0.4930 C.ar  1 <1>  -0.1500 
 27 C        8.4610     8.3290    -0.7780 C.ar  1 <1>   0.0830 
 28 O        8.9890     9.5780    -0.7470 O.3   1 <1>  -0.3630 
 29 C       10.3440     9.7930    -0.4230 C.3   1 <1>   0.0400 
 30 H        0.9580     2.9140     0.2930 H     1 <1>   0.3700 
 31 H        1.9800    -1.5620     0.4340 H     1 <1>   0.0800 
 32 H        3.4850    -1.4860     1.3270 H     1 <1>   0.0800 
 33 H        3.5080    -1.5350    -0.4230 H     1 <1>   0.0800 
 34 H        6.8460     4.1750     1.1670 H     1 <1>   0.0800 
 35 H        5.2840     4.7830     0.7560 H     1 <1>   0.0800 
 36 H        5.7310     4.5010    -1.6340 H     1 <1>   0.0800 
 37 H        7.2690     3.7510    -1.2900 H     1 <1>   0.0800 
 38 H       10.5810     0.4080    -0.4000 H     1 <1>   0.1500 
 39 H        7.2140    -0.1100    -1.9250 H     1 <1>   0.0800 
 40 H        7.3210    -1.2520    -0.6050 H     1 <1>   0.0800 
 41 H        8.6810    -1.0280    -1.6770 H     1 <1>   0.0800 
 42 H       10.7890     3.6930     1.2350 H     1 <1>   0.0800 
 43 H       11.7480     2.2400     1.0490 H     1 <1>   0.0800 
 44 H       10.8410     2.5110     2.5220 H     1 <1>   0.0800 
 45 H        5.4610     6.9290    -1.4330 H     1 <1>   0.1500 
 46 H        9.1280     5.0490    -0.3240 H     1 <1>   0.1500 
 47 H        6.5670     9.1200    -1.3330 H     1 <1>   0.1500 
 48 H       10.2220     7.2180    -0.2270 H     1 <1>   0.1500 
 49 H       10.5330    10.8510    -0.4640 H     1 <1>   0.0800 
 50 H       10.9600     9.2830    -1.1410 H     1 <1>   0.0800 
 51 H       10.5270     9.4280     0.5730 H     1 <1>   0.0800 
@<TRIPOS>BOND
  1   1   2  2   
  2   2   3  am  
  3   2   4  am  
  4   3   5  1   
  5   3   6  1   
  6   4   7  am  
  7   4  30  1   
  8   5   8  1   
  9   5   9  2   
 10   6  31  1   
 11   6  32  1   
 12   6  33  1   
 13   7   9  1   
 14   7  10  2   
 15   8  11  2   
 16   9  12  1   
 17  11  12  1   
 18  11  13  1   
 19  12  14  1   
 20  13  15  1   
 21  13  16  1   
 22  14  17  1   
 23  14  34  1   
 24  14  35  1   
 25  15  18  2   
 26  16  19  2   
 27  16  20  1   
 28  17  21  1   
 29  17  36  1   
 30  17  37  1   
 31  18  19  1   
 32  18  22  1   
 33  19  38  1   
 34  20  39  1   
 35  20  40  1   
 36  20  41  1   
 37  21  23  ar  
 38  21  24  ar  
 39  22  42  1   
 40  22  43  1   
 41  22  44  1   
 42  23  25  ar  
 43  23  45  1   
 44  24  26  ar  
 45  24  46  1   
 46  25  27  ar  
 47  25  47  1   
 48  26  27  ar  
 49  26  48  1   
 50  27  28  1   
 51  28  29  1   
 52  29  49  1   
 53  29  50  1   
 54  29  51  1   
@<TRIPOS>SUBSTRUCTURE
  1 ****  14 GROUP 4 **** **** 0

# MOE 2024.06 (io_trps.svl 2023.06)
