@<TRIPOS>MOLECULE
3-[3-(3,4-Dimethoxy-phenyl)-[1,2,4]oxadiazol-5-yl]-N-isopropyl-propionamide
44 45 1 0 0 
SMALL
USER_CHARGES


@<TRIPOS>ATOM
  1 O        0.1120    -0.9940    -2.2390 O.2   1 <1>  -0.5700 
  2 C        0.5170    -1.8610    -1.5100 C.2   1 <1>   0.5690 
  3 N        1.6810    -1.6870    -0.8440 N.am  1 <1>  -0.7300 
  4 C       -0.3100    -3.1180    -1.3520 C.3   1 <1>  -0.0990 
  5 C        2.3660    -2.5600     0.1170 C.3   1 <1>   0.2200 
  6 C       -1.2520    -2.9960    -0.1490 C.3   1 <1>   0.0200 
  7 C        2.6590    -1.7450     1.3700 C.3   1 <1>  -0.2400 
  8 C        3.6500    -3.0640    -0.5300 C.3   1 <1>  -0.2400 
  9 C       -2.0100    -4.2860     0.0890 C.2   1 <1>   0.2980 
 10 O       -1.3490    -5.3320     0.5110 O.3   1 <1>  -0.0190 
 11 N       -3.2530    -4.4590    -0.0840 N.2   1 <1>  -0.5650 
 12 N       -2.2540    -6.2540     0.6130 N.2   1 <1>  -0.4100 
 13 C       -3.3820    -5.7440     0.2620 C.2   1 <1>   0.4620 
 14 C       -4.6560    -6.4430     0.2330 C.ar  1 <1>   0.0540 
 15 C       -5.8280    -5.8210    -0.1940 C.ar  1 <1>  -0.1500 
 16 C       -4.7610    -7.7750     0.6350 C.ar  1 <1>  -0.1500 
 17 C       -7.0470    -6.4740    -0.2230 C.ar  1 <1>   0.0820 
 18 C       -5.9660    -8.4520     0.6050 C.ar  1 <1>  -0.1500 
 19 O       -8.0980    -5.7220    -0.6540 O.3   1 <1>  -0.3630 
 20 C       -7.1270    -7.8190     0.1690 C.ar  1 <1>   0.0820 
 21 C       -9.3680    -5.8560    -0.0540 C.3   1 <1>   0.0400 
 22 O       -8.3180    -8.4810     0.1010 O.3   1 <1>  -0.3630 
 23 C       -8.4150    -9.8740     0.3030 C.3   1 <1>   0.0400 
 24 H        2.1630    -0.8090    -1.0440 H     1 <1>   0.3700 
 25 H        0.3360    -3.9700    -1.2500 H     1 <1>   0.0800 
 26 H       -0.8930    -3.2600    -2.2450 H     1 <1>   0.0800 
 27 H        1.7420    -3.3990     0.3790 H     1 <1>   0.0800 
 28 H       -1.9550    -2.2000    -0.3270 H     1 <1>   0.0800 
 29 H       -0.6940    -2.7540     0.7380 H     1 <1>   0.0800 
 30 H        3.2950    -0.9080     1.1420 H     1 <1>   0.0800 
 31 H        3.1560    -2.3600     2.0990 H     1 <1>   0.0800 
 32 H        1.7420    -1.3860     1.8020 H     1 <1>   0.0800 
 33 H        4.2950    -2.2440    -0.7900 H     1 <1>   0.0800 
 34 H        3.4200    -3.6280    -1.4170 H     1 <1>   0.0800 
 35 H        4.1760    -3.7090     0.1510 H     1 <1>   0.0800 
 36 H       -5.7970    -4.7940    -0.5130 H     1 <1>   0.1500 
 37 H       -3.8800    -8.2910     0.9760 H     1 <1>   0.1500 
 38 H       -5.9750    -9.4760     0.9260 H     1 <1>   0.1500 
 39 H       -9.9160    -4.9480    -0.2260 H     1 <1>   0.0800 
 40 H       -9.2440    -6.0200     1.0020 H     1 <1>   0.0800 
 41 H       -9.8820    -6.6810    -0.5110 H     1 <1>   0.0800 
 42 H       -9.4330   -10.1670     0.1200 H     1 <1>   0.0800 
 43 H       -8.1490   -10.1000     1.3200 H     1 <1>   0.0800 
 44 H       -7.7620   -10.3740    -0.3900 H     1 <1>   0.0800 
@<TRIPOS>BOND
  1   1   2  2   
  2   2   3  am  
  3   2   4  1   
  4   3   5  1   
  5   3  24  1   
  6   4   6  1   
  7   4  25  1   
  8   4  26  1   
  9   5   7  1   
 10   5   8  1   
 11   5  27  1   
 12   6   9  1   
 13   6  28  1   
 14   6  29  1   
 15   7  30  1   
 16   7  31  1   
 17   7  32  1   
 18   8  33  1   
 19   8  34  1   
 20   8  35  1   
 21   9  10  1   
 22   9  11  2   
 23  10  12  1   
 24  11  13  1   
 25  12  13  2   
 26  13  14  1   
 27  14  15  ar  
 28  14  16  ar  
 29  15  17  ar  
 30  15  36  1   
 31  16  18  ar  
 32  16  37  1   
 33  17  19  1   
 34  17  20  ar  
 35  18  20  ar  
 36  18  38  1   
 37  19  21  1   
 38  20  22  1   
 39  21  39  1   
 40  21  40  1   
 41  21  41  1   
 42  22  23  1   
 43  23  42  1   
 44  23  43  1   
 45  23  44  1   
@<TRIPOS>SUBSTRUCTURE
  1 ****  11 GROUP 4 **** **** 0

# MOE 2024.06 (io_trps.svl 2023.06)
