@<TRIPOS>MOLECULE
5,5-Dimethyl-2-(4-oxo-4-pyrrolidin-1-yl-butyrylamino)-4,7-dihydro-5H-thieno[2,3-
56 58 1 0 0 
SMALL
USER_CHARGES


@<TRIPOS>ATOM
  1 S       -0.0670    -0.3640    -1.4230 S.3   1 <1>  -0.0800 
  2 C        0.8560     0.4970    -0.1960 C.2   1 <1>   0.1040 
  3 C       -1.4750     0.6260    -1.1200 C.2   1 <1>  -0.1400 
  4 N        2.1710     0.1330     0.0570 N.am  1 <1>  -0.4940 
  5 C        0.1010     1.4840     0.3910 C.2   1 <1>  -0.0860 
  6 C       -1.2400     1.5170    -0.1530 C.2   1 <1>  -0.1810 
  7 C       -2.7590     0.4280    -1.8960 C.3   1 <1>   0.3000 
  8 C        3.0250    -0.7800    -0.5010 C.2   1 <1>   0.5690 
  9 C        0.5810     2.3850     1.4100 C.2   1 <1>   0.8060 
 10 C       -2.3780     2.4480     0.2400 C.3   1 <1>   0.0210 
 11 O       -3.6400     1.4900    -1.6160 O.3   1 <1>  -0.5600 
 12 O        2.7600    -1.5020    -1.4270 O.2   1 <1>  -0.5700 
 13 C        4.4130    -0.8560     0.0960 C.3   1 <1>  -0.0990 
 14 O       -0.0810     3.2700     1.9170 O.2   1 <1>  -0.5700 
 15 O        1.8490     2.2370     1.8220 O.3   1 <1>  -0.4300 
 16 C       -3.7490     1.9360    -0.2870 C.3   1 <1>   0.2800 
 17 C        5.3090     0.2740    -0.4330 C.3   1 <1>  -0.0990 
 18 C        2.4300     3.0780     2.7920 C.3   1 <1>   0.1200 
 19 C       -4.3130     0.7970     0.5770 C.3   1 <1>  -0.2400 
 20 C       -4.7620     3.0810    -0.3240 C.3   1 <1>  -0.2400 
 21 C        6.6340     0.3000     0.3010 C.2   1 <1>   0.5690 
 22 C        3.8780     2.6380     2.9850 C.3   1 <1>  -0.2400 
 23 O        6.6830     0.9390     1.3250 O.2   1 <1>  -0.5700 
 24 N        7.7130    -0.3890    -0.1760 N.am  1 <1>  -0.6600 
 25 C        9.0180    -0.3830     0.5200 C.3   1 <1>   0.1400 
 26 C        7.7620    -1.2380    -1.3880 C.3   1 <1>   0.1400 
 27 C        9.9760    -1.0820    -0.4380 C.3   1 <1>  -0.1600 
 28 C        9.0840    -1.9900    -1.2810 C.3   1 <1>  -0.1600 
 29 H        2.5990     0.6800     0.8090 H     1 <1>   0.3700 
 30 H       -3.2330    -0.4990    -1.6260 H     1 <1>   0.0800 
 31 H       -2.5660     0.4340    -2.9540 H     1 <1>   0.0800 
 32 H       -2.1750     3.4250    -0.1590 H     1 <1>   0.0800 
 33 H       -2.4360     2.5380     1.3090 H     1 <1>   0.0800 
 34 H        4.8470    -1.8090    -0.1460 H     1 <1>   0.0800 
 35 H        4.3400    -0.7930     1.1670 H     1 <1>   0.0800 
 36 H        4.8280     1.2230    -0.2770 H     1 <1>   0.0800 
 37 H        5.4630     0.1630    -1.4900 H     1 <1>   0.0800 
 38 H        1.8700     2.9830     3.7080 H     1 <1>   0.0800 
 39 H        2.3780     4.0960     2.4410 H     1 <1>   0.0800 
 40 H       -4.5480     1.1650     1.5590 H     1 <1>   0.0800 
 41 H       -5.2130     0.4070     0.1380 H     1 <1>   0.0800 
 42 H       -3.5980     0.0030     0.6910 H     1 <1>   0.0800 
 43 H       -4.4140     3.8650    -0.9720 H     1 <1>   0.0800 
 44 H       -4.9030     3.4890     0.6610 H     1 <1>   0.0800 
 45 H       -5.7100     2.7270    -0.6860 H     1 <1>   0.0800 
 46 H        3.9220     1.6190     3.3250 H     1 <1>   0.0800 
 47 H        4.3510     3.2610     3.7230 H     1 <1>   0.0800 
 48 H        4.4280     2.7330     2.0650 H     1 <1>   0.0800 
 49 H        8.9270    -0.9370     1.4390 H     1 <1>   0.0800 
 50 H        9.3320     0.6240     0.7370 H     1 <1>   0.0800 
 51 H        7.7630    -0.6070    -2.2610 H     1 <1>   0.0800 
 52 H        6.9280    -1.9170    -1.4270 H     1 <1>   0.0800 
 53 H       10.7390    -1.6280     0.0880 H     1 <1>   0.0800 
 54 H       10.4430    -0.3420    -1.0650 H     1 <1>   0.0800 
 55 H        9.5070    -2.1980    -2.2480 H     1 <1>   0.0800 
 56 H        8.9170    -2.9190    -0.7640 H     1 <1>   0.0800 
@<TRIPOS>BOND
  1   1   2  1   
  2   1   3  1   
  3   2   4  1   
  4   2   5  2   
  5   3   6  2   
  6   3   7  1   
  7   4   8  am  
  8   4  29  1   
  9   5   6  1   
 10   5   9  1   
 11   6  10  1   
 12   7  11  1   
 13   7  30  1   
 14   7  31  1   
 15   8  12  2   
 16   8  13  1   
 17   9  14  2   
 18   9  15  1   
 19  10  16  1   
 20  10  32  1   
 21  10  33  1   
 22  11  16  1   
 23  13  17  1   
 24  13  34  1   
 25  13  35  1   
 26  15  18  1   
 27  16  19  1   
 28  16  20  1   
 29  17  21  1   
 30  17  36  1   
 31  17  37  1   
 32  18  22  1   
 33  18  38  1   
 34  18  39  1   
 35  19  40  1   
 36  19  41  1   
 37  19  42  1   
 38  20  43  1   
 39  20  44  1   
 40  20  45  1   
 41  21  23  2   
 42  21  24  am  
 43  22  46  1   
 44  22  47  1   
 45  22  48  1   
 46  24  25  1   
 47  24  26  1   
 48  25  27  1   
 49  25  49  1   
 50  25  50  1   
 51  26  28  1   
 52  26  51  1   
 53  26  52  1   
 54  27  28  1   
 55  27  53  1   
 56  27  54  1   
 57  28  55  1   
 58  28  56  1   
@<TRIPOS>SUBSTRUCTURE
  1 ****   4 GROUP 4 **** **** 0

# MOE 2024.06 (io_trps.svl 2023.06)
