@<TRIPOS>MOLECULE
2-(4-Isopropyl-benzylamino)-5-methyl-4H-[1,2,4]triazolo[1,5-a]pyrimidin-7-one
41 43 1 0 0 
SMALL
USER_CHARGES


@<TRIPOS>ATOM
  1 O       -0.1000    -0.4610    -0.6050 O.2   1 <1>  -0.5700 
  2 C       -0.4750    -1.6060    -0.3910 C.2   1 <1>   0.5650 
  3 N       -1.7880    -2.0470    -0.6780 N.pl3 1 <1>   0.5610 
  4 C        0.4140    -2.5670     0.1780 C.2   1 <1>  -0.1360 
  5 N       -2.8750    -1.4280    -1.2030 N.2   1 <1>  -0.7070 
  6 C       -2.1560    -3.3230    -0.4020 C.2   1 <1>   0.2700 
  7 C        0.0260    -3.8430     0.4420 C.2   1 <1>  -0.0380 
  8 C       -3.7450    -2.3740    -1.1990 C.2   1 <1>   0.5990 
  9 N       -3.3750    -3.5600    -0.7090 N.2   1 <1>  -0.5650 
 10 N       -1.2620    -4.2260     0.1560 N.pl3 1 <1>  -0.5840 
 11 C        0.9350    -4.8950     1.0440 C.3   1 <1>  -0.1020 
 12 N       -5.0190    -2.2320    -1.6650 N.pl3 1 <1>  -0.8520 
 13 C       -5.7030    -0.9770    -1.3160 C.3   1 <1>   0.3530 
 14 C       -7.0850    -1.3310    -0.7970 C.ar  1 <1>  -0.1430 
 15 C       -8.1400    -1.5090    -1.6780 C.ar  1 <1>  -0.1500 
 16 C       -7.3060    -1.4880     0.5620 C.ar  1 <1>  -0.1500 
 17 C       -9.3990    -1.8320    -1.2050 C.ar  1 <1>  -0.1500 
 18 C       -8.5670    -1.8110     1.0330 C.ar  1 <1>  -0.1500 
 19 C       -9.6270    -1.9850     0.1560 C.ar  1 <1>  -0.1430 
 20 C      -11.0110    -2.3410     0.6940 C.3   1 <1>   0.0630 
 21 C      -11.4730    -3.7010     0.1620 C.3   1 <1>  -0.2400 
 22 C      -12.0280    -1.2480     0.3500 C.3   1 <1>  -0.2400 
 23 H        1.4090    -2.2190     0.3840 H     1 <1>   0.1500 
 24 H       -1.6140    -5.1760     0.3270 H     1 <1>   0.4000 
 25 H        1.0310    -5.7290     0.3710 H     1 <1>   0.0800 
 26 H        0.5280    -5.2450     1.9760 H     1 <1>   0.0800 
 27 H        1.9150    -4.4920     1.2290 H     1 <1>   0.0800 
 28 H       -5.5710    -3.0190    -1.3210 H     1 <1>   0.4000 
 29 H       -5.7780    -0.3580    -2.1930 H     1 <1>   0.0800 
 30 H       -5.1580    -0.4330    -0.5630 H     1 <1>   0.0800 
 31 H       -7.9810    -1.4000    -2.7370 H     1 <1>   0.1500 
 32 H       -6.4970    -1.3610     1.2600 H     1 <1>   0.1500 
 33 H      -10.2040    -1.9640    -1.9050 H     1 <1>   0.1500 
 34 H       -8.7160    -1.9270     2.0920 H     1 <1>   0.1500 
 35 H      -10.9560    -2.4110     1.7670 H     1 <1>   0.0800 
 36 H      -11.5920    -3.6750    -0.9060 H     1 <1>   0.0800 
 37 H      -12.4120    -3.9760     0.6070 H     1 <1>   0.0800 
 38 H      -10.7440    -4.4540     0.4070 H     1 <1>   0.0800 
 39 H      -12.1610    -1.1690    -0.7140 H     1 <1>   0.0800 
 40 H      -11.6850    -0.3000     0.7240 H     1 <1>   0.0800 
 41 H      -12.9790    -1.4690     0.8000 H     1 <1>   0.0800 
@<TRIPOS>BOND
  1   1   2  2   
  2   2   3  1   
  3   2   4  1   
  4   3   5  1   
  5   3   6  1   
  6   4   7  2   
  7   4  23  1   
  8   5   8  2   
  9   6   9  2   
 10   6  10  1   
 11   7  10  1   
 12   7  11  1   
 13   8   9  1   
 14   8  12  1   
 15  10  24  1   
 16  11  25  1   
 17  11  26  1   
 18  11  27  1   
 19  12  13  1   
 20  12  28  1   
 21  13  14  1   
 22  13  29  1   
 23  13  30  1   
 24  14  15  ar  
 25  14  16  ar  
 26  15  17  ar  
 27  15  31  1   
 28  16  18  ar  
 29  16  32  1   
 30  17  19  ar  
 31  17  33  1   
 32  18  19  ar  
 33  18  34  1   
 34  19  20  1   
 35  20  21  1   
 36  20  22  1   
 37  20  35  1   
 38  21  36  1   
 39  21  37  1   
 40  21  38  1   
 41  22  39  1   
 42  22  40  1   
 43  22  41  1   
@<TRIPOS>SUBSTRUCTURE
  1 ****  12 GROUP 4 **** **** 0

# MOE 2024.06 (io_trps.svl 2023.06)
