@<TRIPOS>MOLECULE
[8-(4-Fluoro-phenyl)-1-methyl-2,4-dioxo-1,2,4,6,7,8-hexahydro-imidazo[2,1-f]puri
47 50 1 0 0 
SMALL
USER_CHARGES


@<TRIPOS>ATOM
  1 F       -1.3600     0.0710     0.4330 F     1 <1>  -0.1980 
  2 C       -2.4050     0.8530     0.4910 C.ar  1 <1>   0.1820 
  3 C       -3.5810     0.3560     1.0220 C.ar  1 <1>  -0.1580 
  4 C       -2.2980     2.1480     0.0220 C.ar  1 <1>  -0.1580 
  5 C       -4.6860     1.1890     1.0800 C.ar  1 <1>  -0.1580 
  6 C       -3.4100     2.9700     0.0850 C.ar  1 <1>  -0.1580 
  7 C       -4.6120     2.4990     0.6090 C.ar  1 <1>   0.3040 
  8 N       -5.7330     3.3320     0.6550 N.pl3 1 <1>  -0.5800 
  9 C       -6.9230     3.1580     0.0760 C.cat 1 <1>   1.0680 
 10 C       -5.7730     4.6130     1.4310 C.3   1 <1>   0.1600 
 11 N       -7.4580     2.2470    -0.7280 N.pl3 1 <1>  -0.7040 
 12 N       -7.7810     4.1120     0.3380 N.pl3 1 <1>  -0.7680 
 13 C       -7.2100     5.1500     1.2150 C.3   1 <1>   0.3470 
 14 C       -8.7390     2.6570    -0.9910 C.2   1 <1>   0.4200 
 15 C       -8.9690     3.8230    -0.3400 C.2   1 <1>   0.2700 
 16 N       -9.6860     2.0390    -1.7850 N.am  1 <1>  -0.4420 
 17 C      -10.2420     4.4610    -0.4710 C.2   1 <1>   0.6990 
 18 C      -10.9240     2.6540    -1.9270 C.2   1 <1>   0.6860 
 19 C       -9.3910     0.7460    -2.4730 C.3   1 <1>   0.0510 
 20 O      -10.4840     5.5130     0.0960 O.2   1 <1>  -0.5750 
 21 N      -11.1910     3.8480    -1.2710 N.am  1 <1>  -0.4260 
 22 O      -11.7750     2.1500    -2.6290 O.2   1 <1>  -0.5750 
 23 C      -12.6150     4.3300    -1.2150 C.3   1 <1>   0.1930 
 24 C      -13.4360     3.5880    -0.1650 C.2   1 <1>   0.6550 
 25 O      -14.6340     3.5060    -0.2540 O.2   1 <1>  -0.5750 
 26 O      -12.7520     3.0410     0.8390 O.3   1 <1>  -0.4360 
 27 C      -13.3650     2.2610     1.8430 C.3   1 <1>   0.1120 
 28 C      -13.3700     0.8050     1.3840 C.3   1 <1>  -0.2470 
 29 H       -3.6160    -0.6580     1.3830 H     1 <1>   0.1420 
 30 H       -1.3620     2.4960    -0.3820 H     1 <1>   0.1420 
 31 H       -5.6010     0.8160     1.5040 H     1 <1>   0.1420 
 32 H       -3.3390     3.9790    -0.2790 H     1 <1>   0.1420 
 33 H       -5.0440     5.3100     1.0540 H     1 <1>   0.0710 
 34 H       -5.5860     4.4280     2.4760 H     1 <1>   0.0710 
 35 H       -6.9760     1.4270    -1.0900 H     1 <1>   0.4440 
 36 H       -7.2060     6.1100     0.7250 H     1 <1>   0.0710 
 37 H       -7.7550     5.2110     2.1430 H     1 <1>   0.0710 
 38 H       -8.8030     0.1080    -1.8380 H     1 <1>   0.0710 
 39 H       -8.8580     0.9350    -3.3880 H     1 <1>   0.0710 
 40 H      -10.3050     0.2260    -2.7100 H     1 <1>   0.0710 
 41 H      -13.0840     4.1940    -2.1730 H     1 <1>   0.0710 
 42 H      -12.6460     5.3800    -0.9910 H     1 <1>   0.0710 
 43 H      -14.3640     2.6210     2.0210 H     1 <1>   0.0710 
 44 H      -12.7870     2.3710     2.7440 H     1 <1>   0.0710 
 45 H      -13.9530     0.7000     0.4860 H     1 <1>   0.0710 
 46 H      -13.8120     0.1890     2.1470 H     1 <1>   0.0710 
 47 H      -12.3660     0.4630     1.2070 H     1 <1>   0.0710 
@<TRIPOS>BOND
  1   1   2  1   
  2   2   3  ar  
  3   2   4  ar  
  4   3   5  ar  
  5   3  29  1   
  6   4   6  ar  
  7   4  30  1   
  8   5   7  ar  
  9   5  31  1   
 10   6   7  ar  
 11   6  32  1   
 12   7   8  1   
 13   8   9  ar  
 14   8  10  1   
 15   9  11  ar  
 16   9  12  ar  
 17  10  13  1   
 18  10  33  1   
 19  10  34  1   
 20  11  14  1   
 21  11  35  1   
 22  12  13  1   
 23  12  15  1   
 24  13  36  1   
 25  13  37  1   
 26  14  15  2   
 27  14  16  1   
 28  15  17  1   
 29  16  18  am  
 30  16  19  1   
 31  17  20  2   
 32  17  21  am  
 33  18  21  am  
 34  18  22  2   
 35  19  38  1   
 36  19  39  1   
 37  19  40  1   
 38  21  23  1   
 39  23  24  1   
 40  23  41  1   
 41  23  42  1   
 42  24  25  2   
 43  24  26  1   
 44  26  27  1   
 45  27  28  1   
 46  27  43  1   
 47  27  44  1   
 48  28  45  1   
 49  28  46  1   
 50  28  47  1   
@<TRIPOS>SUBSTRUCTURE
  1 ****  14 GROUP 4 **** **** 0

# MOE 2024.06 (io_trps.svl 2023.06)
