@<TRIPOS>MOLECULE
6-(1H-Benzoimidazol-2-ylmethylsulfanyl)-3,3-dimethyl-8-morpholin-4-yl-3,4-dihydr
56 60 1 0 0 
SMALL
USER_CHARGES


@<TRIPOS>ATOM
  1 S       -0.1380    -0.3110    -0.5790 S.3   1 <1>  -0.3320 
  2 C       -1.7500    -1.0760    -0.3810 C.ar  1 <1>   0.4120 
  3 C        1.0610    -1.6950    -0.2740 C.3   1 <1>   0.2500 
  4 N       -1.7030    -2.3580    -0.0760 N.ar  1 <1>  -0.6200 
  5 C       -2.8940    -0.3040    -0.5530 C.ar  1 <1>   0.0730 
  6 C        2.4870    -1.1950    -0.4390 C.2   1 <1>   0.0060 
  7 C       -2.8780    -2.9470     0.0770 C.ar  1 <1>   0.4100 
  8 C       -2.7990     1.0870    -0.8750 C.1   1 <1>   0.4840 
  9 C       -4.1190    -0.9440    -0.3940 C.ar  1 <1>  -0.1430 
 10 N        3.5100    -1.9720    -0.5340 N.2   1 <1>  -0.5650 
 11 N        2.7980     0.1260    -0.4960 N.pl3 1 <1>   0.0330 
 12 N       -2.8420    -4.2830     0.4010 N.pl3 1 <1>  -0.8380 
 13 C       -4.0980    -2.2840    -0.0680 C.ar  1 <1>  -0.1440 
 14 N       -2.7610     2.1970    -1.1330 N.1   1 <1>  -0.5570 
 15 C       -5.4600    -0.2290    -0.5460 C.3   1 <1>  -0.0170 
 16 C        4.5700    -1.1240    -0.6630 C.ar  1 <1>   0.2270 
 17 C        4.1440     0.1900    -0.6420 C.ar  1 <1>  -0.1520 
 18 C       -2.0910    -5.1870    -0.5200 C.3   1 <1>   0.2090 
 19 C       -2.5410    -4.6000     1.8280 C.3   1 <1>   0.2090 
 20 C       -5.3930    -3.0710     0.1190 C.3   1 <1>   0.2630 
 21 C       -6.6260    -1.2120    -0.7580 C.3   1 <1>   0.2800 
 22 C        5.9270    -1.4110    -0.8040 C.ar  1 <1>  -0.1500 
 23 C        5.0460     1.2500    -0.7600 C.ar  1 <1>  -0.1500 
 24 C       -2.3010    -6.6620    -0.1320 C.3   1 <1>   0.1200 
 25 C       -2.7280    -6.1020     2.1070 C.3   1 <1>   0.1200 
 26 O       -6.5200    -2.2380     0.1790 O.3   1 <1>  -0.5600 
 27 C       -6.6560    -1.7990    -2.1790 C.3   1 <1>  -0.2400 
 28 C       -7.9630    -0.5280    -0.4700 C.3   1 <1>  -0.2400 
 29 C        6.8260    -0.3730    -0.9200 C.ar  1 <1>  -0.1500 
 30 C        6.3850     0.9560    -0.8990 C.ar  1 <1>  -0.1500 
 31 O       -1.9760    -6.8780     1.2150 O.3   1 <1>  -0.5600 
 32 H        0.8460    -2.4740    -0.9840 H     1 <1>   0.0800 
 33 H        0.8940    -2.0540     0.7250 H     1 <1>   0.0800 
 34 H        2.1360     0.9070    -0.4620 H     1 <1>   0.2700 
 35 H       -5.4350     0.4590    -1.3720 H     1 <1>   0.0800 
 36 H       -5.6410     0.3440     0.3470 H     1 <1>   0.0800 
 37 H       -1.0390    -4.9580    -0.4750 H     1 <1>   0.0800 
 38 H       -2.4250    -5.0280    -1.5300 H     1 <1>   0.0800 
 39 H       -3.1900    -4.0310     2.4690 H     1 <1>   0.0800 
 40 H       -1.5240    -4.3230     2.0500 H     1 <1>   0.0800 
 41 H       -5.3600    -3.6240     1.0400 H     1 <1>   0.0800 
 42 H       -5.5260    -3.7700    -0.6880 H     1 <1>   0.0800 
 43 H        6.2360    -2.4390    -0.8180 H     1 <1>   0.1500 
 44 H        4.6960     2.2670    -0.7420 H     1 <1>   0.1500 
 45 H       -1.6680    -7.2960    -0.7270 H     1 <1>   0.0800 
 46 H       -3.3260    -6.9480    -0.2880 H     1 <1>   0.0800 
 47 H       -3.7640    -6.3750     2.0110 H     1 <1>   0.0800 
 48 H       -2.3990    -6.3380     3.1030 H     1 <1>   0.0800 
 49 H       -5.7050    -2.2180    -2.4550 H     1 <1>   0.0800 
 50 H       -6.8860    -1.0260    -2.8880 H     1 <1>   0.0800 
 51 H       -7.4140    -2.5580    -2.2500 H     1 <1>   0.0800 
 52 H       -7.9860    -0.1620     0.5400 H     1 <1>   0.0800 
 53 H       -8.7710    -1.2240    -0.6050 H     1 <1>   0.0800 
 54 H       -8.1120     0.3010    -1.1380 H     1 <1>   0.0800 
 55 H        7.8770    -0.5770    -1.0300 H     1 <1>   0.1500 
 56 H        7.1070     1.7490    -0.9920 H     1 <1>   0.1500 
@<TRIPOS>BOND
  1   1   2  1   
  2   1   3  1   
  3   2   4  ar  
  4   2   5  ar  
  5   3   6  1   
  6   3  32  1   
  7   3  33  1   
  8   4   7  ar  
  9   5   8  1   
 10   5   9  ar  
 11   6  10  2   
 12   6  11  1   
 13   7  12  1   
 14   7  13  ar  
 15   8  14  3   
 16   9  13  ar  
 17   9  15  1   
 18  10  16  1   
 19  11  17  1   
 20  11  34  1   
 21  12  18  1   
 22  12  19  1   
 23  13  20  1   
 24  15  21  1   
 25  15  35  1   
 26  15  36  1   
 27  16  17  ar  
 28  16  22  ar  
 29  17  23  ar  
 30  18  24  1   
 31  18  37  1   
 32  18  38  1   
 33  19  25  1   
 34  19  39  1   
 35  19  40  1   
 36  20  26  1   
 37  20  41  1   
 38  20  42  1   
 39  21  26  1   
 40  21  27  1   
 41  21  28  1   
 42  22  29  ar  
 43  22  43  1   
 44  23  30  ar  
 45  23  44  1   
 46  24  31  1   
 47  24  45  1   
 48  24  46  1   
 49  25  31  1   
 50  25  47  1   
 51  25  48  1   
 52  27  49  1   
 53  27  50  1   
 54  27  51  1   
 55  28  52  1   
 56  28  53  1   
 57  28  54  1   
 58  29  30  ar  
 59  29  55  1   
 60  30  56  1   
@<TRIPOS>SUBSTRUCTURE
  1 ****   4 GROUP 4 **** **** 0

# MOE 2024.06 (io_trps.svl 2023.06)
