@<TRIPOS>MOLECULE
1-Methyl-2-thiophen-2-yl-ethylamine
21 21 1 0 0 
SMALL
USER_CHARGES


@<TRIPOS>ATOM
  1 S       -0.1780     0.2930    -1.2600 S.3   1 <1>  -0.0800 
  2 C        1.1500     0.9610    -0.3210 C.2   1 <1>  -0.1400 
  3 C       -1.3270     1.3650    -0.4830 C.2   1 <1>  -0.1100 
  4 C        0.7030     1.9310     0.5000 C.2   1 <1>  -0.1500 
  5 C        2.5370     0.4020    -0.5670 C.3   1 <1>   0.0200 
  6 C       -0.7080     2.1570     0.4100 C.2   1 <1>  -0.1500 
  7 C        2.8460    -0.7920     0.3540 C.3   1 <1>   0.4230 
  8 N        4.2490    -1.2140     0.1840 N.4   1 <1>  -0.8530 
  9 C        1.9800    -2.0200     0.0820 C.3   1 <1>  -0.2400 
 10 H       -2.3580     1.2890    -0.7820 H     1 <1>   0.1500 
 11 H        1.2990     2.5190     1.1770 H     1 <1>   0.1500 
 12 H        3.2400     1.1910    -0.3700 H     1 <1>   0.0800 
 13 H        2.6230     0.1230    -1.6030 H     1 <1>   0.0800 
 14 H       -1.1890     2.9040     1.0180 H     1 <1>   0.1500 
 15 H        2.6900    -0.4800     1.3750 H     1 <1>   0.0800 
 16 H        4.4130    -1.5350    -0.7760 H     1 <1>   0.4500 
 17 H        4.4600    -1.9940     0.8160 H     1 <1>   0.4500 
 18 H        4.8990    -0.4480     0.3920 H     1 <1>   0.4500 
 19 H        2.0200    -2.3080    -0.9550 H     1 <1>   0.0800 
 20 H        0.9550    -1.8000     0.3230 H     1 <1>   0.0800 
 21 H        2.2770    -2.8490     0.6990 H     1 <1>   0.0800 
@<TRIPOS>BOND
  1   1   2  1   
  2   1   3  1   
  3   2   4  2   
  4   2   5  1   
  5   3   6  2   
  6   3  10  1   
  7   4   6  1   
  8   4  11  1   
  9   5   7  1   
 10   5  12  1   
 11   5  13  1   
 12   6  14  1   
 13   7   8  1   
 14   7   9  1   
 15   7  15  1   
 16   8  16  1   
 17   8  17  1   
 18   8  18  1   
 19   9  19  1   
 20   9  20  1   
 21   9  21  1   
@<TRIPOS>SUBSTRUCTURE
  1 ****   2 GROUP 4 **** **** 0

# MOE 2024.06 (io_trps.svl 2023.06)
