@<TRIPOS>MOLECULE
1-(2,5-Dimethoxy-benzenesulfonyl)-piperidine-3-carboxylic acid
40 41 1 0 0 
SMALL
USER_CHARGES


@<TRIPOS>ATOM
  1 S        0.3040     0.0330     0.9130 S.o2  1 <1>   1.4470 
  2 O       -0.0670    -1.1690     1.6370 O.2   1 <1>  -0.6500 
  3 O        1.0400     1.0510     1.6340 O.2   1 <1>  -0.6500 
  4 N        1.1750    -0.3930    -0.4840 N.am  1 <1>  -0.8490 
  5 C       -1.1900     0.8090     0.2390 C.ar  1 <1>  -0.0090 
  6 C        2.4270     0.3420    -0.7430 C.3   1 <1>   0.1960 
  7 C        1.2910    -1.8240    -0.7630 C.3   1 <1>   0.1960 
  8 C       -2.1680     0.0710    -0.4240 C.ar  1 <1>   0.0820 
  9 C       -1.3960     2.1790     0.3630 C.ar  1 <1>  -0.1500 
 10 C        3.6150    -0.2400     0.0340 C.3   1 <1>  -0.1860 
 11 C        2.4180    -2.4640     0.0580 C.3   1 <1>  -0.1600 
 12 O       -2.0300    -1.2610    -0.5970 O.3   1 <1>  -0.3620 
 13 C       -3.3020     0.6810    -0.9430 C.ar  1 <1>  -0.1500 
 14 C       -2.5270     2.8000    -0.1410 C.ar  1 <1>   0.0820 
 15 C        4.8790     0.4940    -0.3750 C.2   1 <1>   0.9060 
 16 C        3.7530    -1.7570    -0.1970 C.3   1 <1>  -0.1600 
 17 C       -2.7970    -2.0830     0.2540 C.3   1 <1>   0.0400 
 18 C       -3.4880     2.0420    -0.8010 C.ar  1 <1>  -0.1500 
 19 O       -2.6230     4.1410     0.0480 O.3   1 <1>  -0.3630 
 20 O        5.0900     0.7000    -1.5770 O.co2 1 <1>  -0.9000 
 21 O        5.6730     0.8500     0.5010 O.co2 1 <1>  -0.9000 
 22 C       -3.7330     4.8700    -0.4300 C.3   1 <1>   0.0400 
 23 H        2.3100     1.3860    -0.5050 H     1 <1>   0.0800 
 24 H        2.6430     0.2800    -1.7970 H     1 <1>   0.0800 
 25 H        1.5070    -1.9500    -1.8100 H     1 <1>   0.0800 
 26 H        0.3560    -2.3190    -0.5610 H     1 <1>   0.0800 
 27 H       -0.6610     2.7850     0.8650 H     1 <1>   0.1500 
 28 H        3.4670    -0.0500     1.0800 H     1 <1>   0.0800 
 29 H        2.5060    -3.5010    -0.2090 H     1 <1>   0.0800 
 30 H        2.1760    -2.4160     1.1050 H     1 <1>   0.0800 
 31 H       -4.0320     0.0850    -1.4610 H     1 <1>   0.1500 
 32 H        4.5170    -2.1500     0.4530 H     1 <1>   0.0800 
 33 H        4.0630    -1.9260    -1.2140 H     1 <1>   0.0800 
 34 H       -2.5640    -1.8410     1.2770 H     1 <1>   0.0800 
 35 H       -2.5380    -3.1070     0.0550 H     1 <1>   0.0800 
 36 H       -3.8410    -1.9200     0.0570 H     1 <1>   0.0800 
 37 H       -4.3740     2.4900    -1.2090 H     1 <1>   0.1500 
 38 H       -3.5910     5.9030    -0.1670 H     1 <1>   0.0800 
 39 H       -4.6250     4.4930     0.0380 H     1 <1>   0.0800 
 40 H       -3.7830     4.7690    -1.4990 H     1 <1>   0.0800 
@<TRIPOS>BOND
  1   1   2  2   
  2   1   3  2   
  3   1   4  am  
  4   1   5  1   
  5   4   6  1   
  6   4   7  1   
  7   5   8  ar  
  8   5   9  ar  
  9   6  10  1   
 10   6  23  1   
 11   6  24  1   
 12   7  11  1   
 13   7  25  1   
 14   7  26  1   
 15   8  12  1   
 16   8  13  ar  
 17   9  14  ar  
 18   9  27  1   
 19  10  15  1   
 20  10  16  1   
 21  10  28  1   
 22  11  16  1   
 23  11  29  1   
 24  11  30  1   
 25  12  17  1   
 26  13  18  ar  
 27  13  31  1   
 28  14  18  ar  
 29  14  19  1   
 30  15  20  ar  
 31  15  21  ar  
 32  16  32  1   
 33  16  33  1   
 34  17  34  1   
 35  17  35  1   
 36  17  36  1   
 37  18  37  1   
 38  19  22  1   
 39  22  38  1   
 40  22  39  1   
 41  22  40  1   
@<TRIPOS>SUBSTRUCTURE
  1 ****   1 GROUP 4 **** **** 0

# MOE 2024.06 (io_trps.svl 2023.06)
