@<TRIPOS>MOLECULE
5,7-Diisopropyl-2-pyridin-2-yl-1,3-diaza-tricyclo[3.3.1.1*3,7*]decan-6-one
51 54 1 0 0 
SMALL
USER_CHARGES


@<TRIPOS>ATOM
  1 O        0.1590     0.6810    -1.1620 O.2   1 <1>  -0.5700 
  2 C        1.1880     0.4650    -0.5950 C.2   1 <1>   0.4480 
  3 C        2.0870    -0.7300    -0.9430 C.3   1 <1>   0.0610 
  4 C        1.7390     1.3950     0.4970 C.3   1 <1>   0.0610 
  5 C        1.4840    -1.6730    -2.0340 C.3   1 <1>  -0.0800 
  6 C        2.3470    -1.4930     0.3600 C.3   1 <1>   0.3430 
  7 C        3.4360    -0.1270    -1.3740 C.3   1 <1>   0.1100 
  8 C        0.7880     2.5880     0.8390 C.3   1 <1>  -0.0800 
  9 C        1.9980     0.5250     1.7370 C.3   1 <1>   0.3430 
 10 C        3.1120     1.8730    -0.0210 C.3   1 <1>   0.1100 
 11 C        0.2270    -2.4280    -1.5570 C.3   1 <1>  -0.2400 
 12 C        2.4780    -2.7180    -2.5780 C.3   1 <1>  -0.2400 
 13 N        2.9370    -0.5820     1.3930 N.4   1 <1>  -0.9590 
 14 N        3.9840     0.7090    -0.2820 N.3   1 <1>  -0.8100 
 15 C        1.4340     3.6720     1.7240 C.3   1 <1>  -0.2400 
 16 C       -0.5220     2.1460     1.5220 C.3   1 <1>  -0.2400 
 17 C        4.2530    -0.0470     0.9570 C.3   1 <1>   0.8360 
 18 C        5.3080    -1.1750     0.8380 C.ar  1 <1>   0.1670 
 19 N        5.1210    -2.2540     1.6030 N.ar  1 <1>  -0.6200 
 20 C        6.3910    -1.0260    -0.0210 C.ar  1 <1>  -0.1500 
 21 C        6.0410    -3.2040     1.5000 C.ar  1 <1>   0.1600 
 22 C        7.3340    -2.0260    -0.1180 C.ar  1 <1>  -0.1500 
 23 C        7.1440    -3.1400     0.6680 C.ar  1 <1>  -0.1500 
 24 H        1.1870    -1.0570    -2.8690 H     1 <1>   0.0800 
 25 H        3.0230    -2.3100     0.1660 H     1 <1>   0.0800 
 26 H        1.4220    -1.9050     0.7260 H     1 <1>   0.0800 
 27 H        4.1450    -0.9010    -1.6120 H     1 <1>   0.0800 
 28 H        3.3040     0.4740    -2.2590 H     1 <1>   0.0800 
 29 H        0.5160     3.0630    -0.0920 H     1 <1>   0.0800 
 30 H        2.4170     1.1340     2.5210 H     1 <1>   0.0800 
 31 H        1.0650     0.1160     2.0890 H     1 <1>   0.0800 
 32 H        3.5970     2.5110     0.6970 H     1 <1>   0.0800 
 33 H        2.9850     2.4410    -0.9300 H     1 <1>   0.0800 
 34 H        0.4610    -3.1630    -0.8070 H     1 <1>   0.0800 
 35 H       -0.2220    -2.9440    -2.3890 H     1 <1>   0.0800 
 36 H       -0.5160    -1.7560    -1.1670 H     1 <1>   0.0800 
 37 H        2.8820    -3.3320    -1.7930 H     1 <1>   0.0800 
 38 H        3.2880    -2.2520    -3.1100 H     1 <1>   0.0800 
 39 H        1.9810    -3.3660    -3.2800 H     1 <1>   0.0800 
 40 H        3.1880    -1.1650     2.2060 H     1 <1>   0.4500 
 41 H        1.7920     3.2690     2.6530 H     1 <1>   0.0800 
 42 H        0.7080     4.4340     1.9550 H     1 <1>   0.0800 
 43 H        2.2440     4.1650     1.2160 H     1 <1>   0.0800 
 44 H       -0.3510     1.7750     2.5170 H     1 <1>   0.0800 
 45 H       -1.0310     1.3900     0.9520 H     1 <1>   0.0800 
 46 H       -1.1910     2.9860     1.5980 H     1 <1>   0.0800 
 47 H        4.6180     0.6410     1.7030 H     1 <1>   0.0800 
 48 H        6.5040    -0.1340    -0.6130 H     1 <1>   0.1500 
 49 H        5.9140    -4.0830     2.1120 H     1 <1>   0.1500 
 50 H        8.1830    -1.9400    -0.7760 H     1 <1>   0.1500 
 51 H        7.8480    -3.9540     0.6400 H     1 <1>   0.1500 
@<TRIPOS>BOND
  1   1   2  2   
  2   2   3  1   
  3   2   4  1   
  4   3   5  1   
  5   3   6  1   
  6   3   7  1   
  7   4   8  1   
  8   4   9  1   
  9   4  10  1   
 10   5  11  1   
 11   5  12  1   
 12   5  24  1   
 13   6  13  1   
 14   6  25  1   
 15   6  26  1   
 16   7  14  1   
 17   7  27  1   
 18   7  28  1   
 19   8  15  1   
 20   8  16  1   
 21   8  29  1   
 22   9  13  1   
 23   9  30  1   
 24   9  31  1   
 25  10  14  1   
 26  10  32  1   
 27  10  33  1   
 28  11  34  1   
 29  11  35  1   
 30  11  36  1   
 31  12  37  1   
 32  12  38  1   
 33  12  39  1   
 34  13  17  1   
 35  13  40  1   
 36  14  17  1   
 37  15  41  1   
 38  15  42  1   
 39  15  43  1   
 40  16  44  1   
 41  16  45  1   
 42  16  46  1   
 43  17  18  1   
 44  17  47  1   
 45  18  19  ar  
 46  18  20  ar  
 47  19  21  ar  
 48  20  22  ar  
 49  20  48  1   
 50  21  23  ar  
 51  21  49  1   
 52  22  23  ar  
 53  22  50  1   
 54  23  51  1   
@<TRIPOS>SUBSTRUCTURE
  1 ****  13 GROUP 4 **** **** 0

# MOE 2024.06 (io_trps.svl 2023.06)
