@<TRIPOS>MOLECULE
2-[2-(4-Methyl-furazan-3-yloxy)-ethyl]-2H-tetrazol-5-ylamine
24 25 1 0 0 
SMALL
USER_CHARGES


@<TRIPOS>ATOM
  1 O        0.0860     0.5720     1.2950 O.3   1 <1>   0.2420 
  2 N        1.1960     1.2440     1.0750 N.2   1 <1>  -0.4100 
  3 N       -0.9360     1.2460     0.8180 N.2   1 <1>  -0.4100 
  4 C        0.8650     2.3140     0.4720 C.2   1 <1>   0.3510 
  5 C       -0.4910     2.3210     0.3050 C.2   1 <1>   0.1080 
  6 O        1.7120     3.2990     0.0560 O.3   1 <1>  -0.3420 
  7 C       -1.3380     3.3880    -0.3570 C.3   1 <1>  -0.0590 
  8 C        3.0900     3.1120     0.3070 C.3   1 <1>   0.1200 
  9 C        3.8470     4.3170    -0.2400 C.3   1 <1>   0.0960 
 10 N        5.2810     4.1480     0.0180 N.pl3 1 <1>   0.5800 
 11 N        5.9300     4.7810     0.9810 N.2   1 <1>  -0.4180 
 12 N        6.0370     3.3150    -0.6760 N.2   1 <1>  -0.7070 
 13 N        7.1370     4.3730     0.9050 N.2   1 <1>  -0.2270 
 14 C        7.1530     3.5080    -0.1010 C.2   1 <1>   0.5990 
 15 N        8.2670     2.8260    -0.4920 N.pl3 1 <1>  -0.8830 
 16 H       -2.1920     2.9350    -0.8300 H     1 <1>   0.0800 
 17 H       -0.7650     3.9100    -1.1010 H     1 <1>   0.0800 
 18 H       -1.6800     4.0890     0.3820 H     1 <1>   0.0800 
 19 H        3.4050     2.2080    -0.1870 H     1 <1>   0.0800 
 20 H        3.2320     3.0240     1.3720 H     1 <1>   0.0800 
 21 H        3.5170     5.2170     0.2440 H     1 <1>   0.0800 
 22 H        3.7030     4.3980    -1.3010 H     1 <1>   0.0800 
 23 H        8.8070     2.5640     0.3310 H     1 <1>   0.4000 
 24 H        7.9580     1.9980    -0.9990 H     1 <1>   0.4000 
@<TRIPOS>BOND
  1   1   2  1   
  2   1   3  1   
  3   2   4  2   
  4   3   5  2   
  5   4   5  1   
  6   4   6  1   
  7   5   7  1   
  8   6   8  1   
  9   7  16  1   
 10   7  17  1   
 11   7  18  1   
 12   8   9  1   
 13   8  19  1   
 14   8  20  1   
 15   9  10  1   
 16   9  21  1   
 17   9  22  1   
 18  10  11  1   
 19  10  12  1   
 20  11  13  2   
 21  12  14  2   
 22  13  14  1   
 23  14  15  1   
 24  15  23  1   
 25  15  24  1   
@<TRIPOS>SUBSTRUCTURE
  1 ****   8 GROUP 4 **** **** 0

# MOE 2024.06 (io_trps.svl 2023.06)
