@<TRIPOS>MOLECULE
6-(4-tert-Butylamino-6-isopropylamino-[1,3,5]triazin-2-yloxy)-2-methyl-2H-pyrida
47 48 1 0 0 
SMALL
USER_CHARGES


@<TRIPOS>ATOM
  1 O       -0.6510    -0.2670     1.0560 O.2   1 <1>  -0.5700 
  2 C       -1.7050    -0.8760     0.9110 C.2   1 <1>   0.6160 
  3 N       -2.4880    -0.7180    -0.2300 N.am  1 <1>  -0.2980 
  4 C       -2.1840    -1.7750     1.8950 C.2   1 <1>  -0.1360 
  5 N       -3.6750    -1.3860    -0.4550 N.2   1 <1>  -0.5120 
  6 C       -2.0480     0.2160    -1.2900 C.3   1 <1>   0.0600 
  7 C       -3.3510    -2.4350     1.6770 C.2   1 <1>  -0.1360 
  8 C       -4.0630    -2.2170     0.4640 C.2   1 <1>   0.5860 
  9 O       -5.2220    -2.8760     0.2670 O.3   1 <1>  -0.2320 
 10 C       -5.2580    -4.2120     0.2000 C.ar  1 <1>   0.7020 
 11 N       -6.4520    -4.7290     0.2480 N.ar  1 <1>  -0.6200 
 12 N       -4.1310    -4.8700     0.1100 N.ar  1 <1>  -0.6200 
 13 C       -6.4600    -6.0350     0.1910 C.ar  1 <1>   0.7200 
 14 C       -4.2890    -6.1660     0.0610 C.ar  1 <1>   0.7200 
 15 N       -5.4180    -6.8100     0.1000 N.ar  1 <1>  -0.6200 
 16 N       -7.6360    -6.7000     0.2390 N.pl3 1 <1>  -0.8690 
 17 N       -3.1900    -6.9430    -0.0270 N.pl3 1 <1>  -0.8690 
 18 C       -8.9990    -6.2520    -0.0390 C.3   1 <1>   0.3690 
 19 C       -1.8440    -6.5150    -0.4160 C.3   1 <1>   0.2890 
 20 C       -9.4810    -5.3290     1.0800 C.3   1 <1>  -0.2400 
 21 C       -9.8580    -7.5140    -0.0600 C.3   1 <1>  -0.2400 
 22 C       -9.0660    -5.5700    -1.4060 C.3   1 <1>  -0.2400 
 23 C       -1.3620    -7.4420    -1.5240 C.3   1 <1>  -0.2400 
 24 C       -0.9490    -6.6030     0.8120 C.3   1 <1>  -0.2400 
 25 H       -1.5920    -1.8930     2.7820 H     1 <1>   0.1500 
 26 H       -1.0890    -0.0940    -1.6650 H     1 <1>   0.0800 
 27 H       -1.9650     1.2080    -0.8820 H     1 <1>   0.0800 
 28 H       -2.7600     0.2210    -2.0960 H     1 <1>   0.0800 
 29 H       -3.7600    -3.1270     2.3890 H     1 <1>   0.1500 
 30 H       -7.5120    -7.7050     0.1520 H     1 <1>   0.4000 
 31 H       -3.3830    -7.9390    -0.0970 H     1 <1>   0.4000 
 32 H       -1.8610    -5.5000    -0.7810 H     1 <1>   0.0800 
 33 H       -9.3680    -5.8100     2.0340 H     1 <1>   0.0800 
 34 H      -10.5170    -5.0850     0.9380 H     1 <1>   0.0800 
 35 H       -8.9230    -4.4110     1.0840 H     1 <1>   0.0800 
 36 H       -9.5300    -8.1820    -0.8350 H     1 <1>   0.0800 
 37 H      -10.8850    -7.2590    -0.2490 H     1 <1>   0.0800 
 38 H       -9.8070    -8.0180     0.8890 H     1 <1>   0.0800 
 39 H       -8.6620    -6.2130    -2.1660 H     1 <1>   0.0800 
 40 H       -8.5180    -4.6470    -1.4000 H     1 <1>   0.0800 
 41 H      -10.0860    -5.3440    -1.6550 H     1 <1>   0.0800 
 42 H       -1.3260    -8.4610    -1.1820 H     1 <1>   0.0800 
 43 H       -0.3770    -7.1510    -1.8390 H     1 <1>   0.0800 
 44 H       -2.0210    -7.3720    -2.3720 H     1 <1>   0.0800 
 45 H       -0.9210    -7.6090     1.1910 H     1 <1>   0.0800 
 46 H       -1.3200    -5.9460     1.5780 H     1 <1>   0.0800 
 47 H        0.0510    -6.3000     0.5600 H     1 <1>   0.0800 
@<TRIPOS>BOND
  1   1   2  2   
  2   2   3  am  
  3   2   4  1   
  4   3   5  1   
  5   3   6  1   
  6   4   7  2   
  7   4  25  1   
  8   5   8  2   
  9   6  26  1   
 10   6  27  1   
 11   6  28  1   
 12   7   8  1   
 13   7  29  1   
 14   8   9  1   
 15   9  10  1   
 16  10  11  ar  
 17  10  12  ar  
 18  11  13  ar  
 19  12  14  ar  
 20  13  15  ar  
 21  13  16  1   
 22  14  15  ar  
 23  14  17  1   
 24  16  18  1   
 25  16  30  1   
 26  17  19  1   
 27  17  31  1   
 28  18  20  1   
 29  18  21  1   
 30  18  22  1   
 31  19  23  1   
 32  19  24  1   
 33  19  32  1   
 34  20  33  1   
 35  20  34  1   
 36  20  35  1   
 37  21  36  1   
 38  21  37  1   
 39  21  38  1   
 40  22  39  1   
 41  22  40  1   
 42  22  41  1   
 43  23  42  1   
 44  23  43  1   
 45  23  44  1   
 46  24  45  1   
 47  24  46  1   
 48  24  47  1   
@<TRIPOS>SUBSTRUCTURE
  1 ****  10 GROUP 4 **** **** 0

# MOE 2024.06 (io_trps.svl 2023.06)
