@<TRIPOS>MOLECULE
2-(2-o-Tolyloxy-propionylamino)-4,5,6,7-tetrahydro-benzo[b]thiophene-3-carboxyli
47 49 1 0 0 
SMALL
USER_CHARGES


@<TRIPOS>ATOM
  1 S       -0.5020    -0.1540    -1.9900 S.3   1 <1>  -0.0800 
  2 C       -1.6550    -0.8640    -0.8650 C.2   1 <1>   0.1040 
  3 C        0.8290    -0.4650    -0.8960 C.2   1 <1>  -0.1400 
  4 N       -3.0110    -0.8610    -1.1650 N.am  1 <1>  -0.4940 
  5 C       -1.0180    -1.3270     0.2550 C.2   1 <1>  -0.0860 
  6 C        0.4040    -1.0800     0.2160 C.2   1 <1>  -0.1810 
  7 C        2.2350    -0.0470    -1.2620 C.3   1 <1>   0.0200 
  8 C       -3.7360    -0.5050    -2.2750 C.2   1 <1>   0.5690 
  9 C       -1.6760    -1.9920     1.3450 C.2   1 <1>   0.7160 
 10 C        1.3800    -1.4620     1.3200 C.3   1 <1>   0.0210 
 11 C        3.1260    -0.1340    -0.0090 C.3   1 <1>  -0.1600 
 12 O       -3.2460    -0.1770    -3.3280 O.2   1 <1>  -0.5700 
 13 C       -5.2650    -0.5500    -2.1560 C.3   1 <1>   0.2610 
 14 O       -1.4000    -1.7950     2.5100 O.2   1 <1>  -0.5700 
 15 N       -2.6550    -2.8940     1.1120 N.am  1 <1>  -0.8000 
 16 C        2.8380    -1.4050     0.8180 C.3   1 <1>  -0.1600 
 17 O       -5.6360    -0.7630    -0.7960 O.3   1 <1>  -0.3630 
 18 C       -5.8840    -1.6860    -2.9800 C.3   1 <1>  -0.2400 
 19 C       -6.4130     0.1540    -0.1690 C.ar  1 <1>   0.0820 
 20 C       -6.0390     0.6050     1.0940 C.ar  1 <1>  -0.1440 
 21 C       -7.5730     0.6320    -0.7660 C.ar  1 <1>  -0.1500 
 22 C       -6.8280     1.5460     1.7360 C.ar  1 <1>  -0.1500 
 23 C       -4.7810     0.0900     1.7800 C.3   1 <1>  -0.0970 
 24 C       -8.3530     1.5720    -0.1160 C.ar  1 <1>  -0.1500 
 25 C       -7.9780     2.0300     1.1350 C.ar  1 <1>  -0.1500 
 26 H       -3.6280    -1.1150    -0.3870 H     1 <1>   0.3700 
 27 H        2.2350     0.9580    -1.6440 H     1 <1>   0.0800 
 28 H        2.6040    -0.7060    -2.0280 H     1 <1>   0.0800 
 29 H        1.1690    -2.4560     1.6750 H     1 <1>   0.0800 
 30 H        1.2510    -0.7800     2.1430 H     1 <1>   0.0800 
 31 H        2.9390     0.7270     0.6090 H     1 <1>   0.0800 
 32 H        4.1610    -0.1110    -0.3030 H     1 <1>   0.0800 
 33 H       -5.6480     0.4000    -2.4850 H     1 <1>   0.0800 
 34 H       -3.0020    -3.4290     1.9090 H     1 <1>   0.3700 
 35 H       -2.7490    -3.3340     0.1970 H     1 <1>   0.3700 
 36 H        3.0260    -2.2680     0.2020 H     1 <1>   0.0800 
 37 H        3.5060    -1.4510     1.6610 H     1 <1>   0.0800 
 38 H       -5.4920    -2.6350    -2.6620 H     1 <1>   0.0800 
 39 H       -5.6420    -1.5500    -4.0190 H     1 <1>   0.0800 
 40 H       -6.9540    -1.6860    -2.8760 H     1 <1>   0.0800 
 41 H       -7.8790     0.2730    -1.7300 H     1 <1>   0.1500 
 42 H       -6.5530     1.9110     2.7100 H     1 <1>   0.1500 
 43 H       -3.9080     0.4740     1.2830 H     1 <1>   0.0800 
 44 H       -4.7600    -0.9840     1.7570 H     1 <1>   0.0800 
 45 H       -4.7480     0.4020     2.8090 H     1 <1>   0.0800 
 46 H       -9.2500     1.9440    -0.5780 H     1 <1>   0.1500 
 47 H       -8.5830     2.7610     1.6430 H     1 <1>   0.1500 
@<TRIPOS>BOND
  1   1   2  1   
  2   1   3  1   
  3   2   4  1   
  4   2   5  2   
  5   3   6  2   
  6   3   7  1   
  7   4   8  am  
  8   4  26  1   
  9   5   6  1   
 10   5   9  1   
 11   6  10  1   
 12   7  11  1   
 13   7  27  1   
 14   7  28  1   
 15   8  12  2   
 16   8  13  1   
 17   9  14  2   
 18   9  15  am  
 19  10  16  1   
 20  10  29  1   
 21  10  30  1   
 22  11  16  1   
 23  11  31  1   
 24  11  32  1   
 25  13  17  1   
 26  13  18  1   
 27  13  33  1   
 28  15  34  1   
 29  15  35  1   
 30  16  36  1   
 31  16  37  1   
 32  17  19  1   
 33  18  38  1   
 34  18  39  1   
 35  18  40  1   
 36  19  20  ar  
 37  19  21  ar  
 38  20  22  ar  
 39  20  23  1   
 40  21  24  ar  
 41  21  41  1   
 42  22  25  ar  
 43  22  42  1   
 44  23  43  1   
 45  23  44  1   
 46  23  45  1   
 47  24  25  ar  
 48  24  46  1   
 49  25  47  1   
@<TRIPOS>SUBSTRUCTURE
  1 ****   4 GROUP 4 **** **** 0

# MOE 2024.06 (io_trps.svl 2023.06)
