@<TRIPOS>MOLECULE
2-(6-Methyl-thieno[2,3-d]pyrimidin-4-ylsulfanyl)-N-(tetrahydro-furan-2-ylmethyl)
38 40 1 0 0 
SMALL
USER_CHARGES


@<TRIPOS>ATOM
  1 S        0.9580    -0.0840    -1.0930 S.3   1 <1>  -0.0800 
  2 C        2.0280     1.2990    -1.3120 C.ar  1 <1>   0.2970 
  3 C        0.1030     0.7160     0.2300 C.2   1 <1>  -0.1400 
  4 N        2.9810     1.3520    -2.2180 N.ar  1 <1>  -0.5670 
  5 C        1.7170     2.2860    -0.4080 C.ar  1 <1>   0.0000 
  6 C        0.6200     1.9360     0.4580 C.2   1 <1>  -0.1500 
  7 C       -1.0290    -0.0540     0.8780 C.3   1 <1>  -0.0600 
  8 C        3.6570     2.4850    -2.1950 C.ar  1 <1>   0.4700 
  9 C        2.5170     3.4100    -0.5130 C.ar  1 <1>   0.4120 
 10 N        3.4940     3.5320    -1.3860 N.ar  1 <1>  -0.6200 
 11 S        2.2200     4.7810     0.5980 S.3   1 <1>  -0.3320 
 12 C        3.4610     6.0940     0.1450 C.3   1 <1>   0.1310 
 13 C        4.8080     5.8310     0.8000 C.2   1 <1>   0.5690 
 14 O        5.3070     6.6980     1.4760 O.2   1 <1>  -0.5700 
 15 N        5.4280     4.6420     0.5860 N.am  1 <1>  -0.7300 
 16 C        6.7280     4.2190     1.1690 C.3   1 <1>   0.1400 
 17 C        7.8510     4.2860     0.1250 C.3   1 <1>   0.2000 
 18 O        9.0330     3.7980     0.6840 O.3   1 <1>  -0.5600 
 19 C        8.1680     5.6940    -0.3690 C.3   1 <1>  -0.1600 
 20 C       10.1290     4.6040     0.3780 C.3   1 <1>   0.1200 
 21 C        9.6520     5.6120    -0.6570 C.3   1 <1>  -0.1600 
 22 H        0.2800     2.6280     1.2100 H     1 <1>   0.1500 
 23 H       -0.6570    -0.9740     1.2920 H     1 <1>   0.0800 
 24 H       -1.7840    -0.2820     0.1460 H     1 <1>   0.0800 
 25 H       -1.4730     0.5270     1.6650 H     1 <1>   0.0800 
 26 H        4.4450     2.5740    -2.9260 H     1 <1>   0.1500 
 27 H        3.0620     7.0290     0.4930 H     1 <1>   0.0800 
 28 H        3.5500     6.1150    -0.9240 H     1 <1>   0.0800 
 29 H        4.9570     3.9640    -0.0250 H     1 <1>   0.3700 
 30 H        6.6380     3.2100     1.5300 H     1 <1>   0.0800 
 31 H        6.9770     4.8580     1.9990 H     1 <1>   0.0800 
 32 H        7.6180     3.6440    -0.7070 H     1 <1>   0.0800 
 33 H        7.9790     6.4080     0.4140 H     1 <1>   0.0800 
 34 H        7.5860     5.9570    -1.2340 H     1 <1>   0.0800 
 35 H       10.9310     3.9860     0.0120 H     1 <1>   0.0800 
 36 H       10.4300     5.0990     1.2850 H     1 <1>   0.0800 
 37 H       10.1480     6.5610    -0.5580 H     1 <1>   0.0800 
 38 H        9.8240     5.2180    -1.6440 H     1 <1>   0.0800 
@<TRIPOS>BOND
  1   1   2  1   
  2   1   3  1   
  3   2   4  ar  
  4   2   5  ar  
  5   3   6  2   
  6   3   7  1   
  7   4   8  ar  
  8   5   6  1   
  9   5   9  ar  
 10   6  22  1   
 11   7  23  1   
 12   7  24  1   
 13   7  25  1   
 14   8  10  ar  
 15   8  26  1   
 16   9  10  ar  
 17   9  11  1   
 18  11  12  1   
 19  12  13  1   
 20  12  27  1   
 21  12  28  1   
 22  13  14  2   
 23  13  15  am  
 24  15  16  1   
 25  15  29  1   
 26  16  17  1   
 27  16  30  1   
 28  16  31  1   
 29  17  18  1   
 30  17  19  1   
 31  17  32  1   
 32  18  20  1   
 33  19  21  1   
 34  19  33  1   
 35  19  34  1   
 36  20  21  1   
 37  20  35  1   
 38  20  36  1   
 39  21  37  1   
 40  21  38  1   
@<TRIPOS>SUBSTRUCTURE
  1 ****  10 GROUP 4 **** **** 0

# MOE 2024.06 (io_trps.svl 2023.06)
