@<TRIPOS>MOLECULE
N-(5-Trifluoromethyl-[1,3,4]thiadiazol-2-yl)-butyramide
23 23 1 0 0 
SMALL
USER_CHARGES


@<TRIPOS>ATOM
  1 S       -0.0850    -0.3340     0.1290 S.3   1 <1>  -0.0800 
  2 C        1.1970     0.6280    -0.5410 C.2   1 <1>   0.4420 
  3 C       -1.1710     0.9630    -0.2520 C.2   1 <1>   0.1980 
  4 N        0.7740     1.7590    -0.9710 N.2   1 <1>  -0.3380 
  5 N        2.5030     0.1920    -0.5870 N.am  1 <1>  -0.4940 
  6 N       -0.5690     1.9450    -0.8060 N.2   1 <1>  -0.3380 
  7 C       -2.6480     0.7680     0.1100 C.3   1 <1>   1.2000 
  8 C        3.0900    -0.9640    -0.1620 C.2   1 <1>   0.5690 
  9 F       -3.1830    -0.2860    -0.4980 F     1 <1>  -0.3400 
 10 F       -2.8280     0.5730     1.4120 F     1 <1>  -0.3400 
 11 F       -3.4130     1.8060    -0.2150 F     1 <1>  -0.3400 
 12 O        2.4900    -1.8640     0.3650 O.2   1 <1>  -0.5700 
 13 C        4.5850    -1.1110    -0.3760 C.3   1 <1>  -0.0990 
 14 C        5.4000    -0.2260     0.5820 C.3   1 <1>  -0.1600 
 15 C        6.9050    -0.3970     0.3510 C.3   1 <1>  -0.2400 
 16 H        3.1300     0.8720    -1.0070 H     1 <1>   0.3700 
 17 H        4.8180    -0.8660    -1.3960 H     1 <1>   0.0800 
 18 H        4.8500    -2.1420    -0.2190 H     1 <1>   0.0800 
 19 H        5.1650    -0.4940     1.5990 H     1 <1>   0.0800 
 20 H        5.1380     0.8090     0.4440 H     1 <1>   0.0800 
 21 H        7.1970    -1.4210     0.5130 H     1 <1>   0.0800 
 22 H        7.4550     0.2250     1.0350 H     1 <1>   0.0800 
 23 H        7.1700    -0.1160    -0.6540 H     1 <1>   0.0800 
@<TRIPOS>BOND
  1   1   2  1   
  2   1   3  1   
  3   2   4  2   
  4   2   5  1   
  5   3   6  2   
  6   3   7  1   
  7   4   6  1   
  8   5   8  am  
  9   5  16  1   
 10   7   9  1   
 11   7  10  1   
 12   7  11  1   
 13   8  12  2   
 14   8  13  1   
 15  13  14  1   
 16  13  17  1   
 17  13  18  1   
 18  14  15  1   
 19  14  19  1   
 20  14  20  1   
 21  15  21  1   
 22  15  22  1   
 23  15  23  1   
@<TRIPOS>SUBSTRUCTURE
  1 ****   2 GROUP 4 **** **** 0

# MOE 2024.06 (io_trps.svl 2023.06)
