@<TRIPOS>MOLECULE
N,N-Diethyl-3-[3-(3-methoxy-phenyl)-[1,2,4]oxadiazol-5-yl]-propionamide
43 44 1 0 0 
SMALL
USER_CHARGES


@<TRIPOS>ATOM
  1 O       -0.0300    -0.1550    -0.4390 O.2   1 <1>  -0.5700 
  2 C        0.5410    -1.1930    -0.2040 C.2   1 <1>   0.5690 
  3 N        1.8330    -1.2260     0.2660 N.am  1 <1>  -0.6600 
  4 C       -0.2510    -2.4640    -0.4380 C.3   1 <1>  -0.0990 
  5 C        2.5240    -2.4500     0.7620 C.3   1 <1>   0.1400 
  6 C        2.5860     0.0490     0.4380 C.3   1 <1>   0.1400 
  7 C       -1.1260    -2.7850     0.7790 C.3   1 <1>   0.0200 
  8 C        3.3980    -3.0460    -0.3380 C.3   1 <1>  -0.2400 
  9 C        3.1630     0.5060    -0.9010 C.3   1 <1>  -0.2400 
 10 C       -1.8300    -4.1150     0.6130 C.2   1 <1>   0.2980 
 11 O       -1.1160    -5.2100     0.6450 O.3   1 <1>  -0.0190 
 12 N       -3.0740    -4.2810     0.4390 N.2   1 <1>  -0.5650 
 13 N       -1.9840    -6.1570     0.4750 N.2   1 <1>  -0.4100 
 14 C       -3.1440    -5.6130     0.3530 C.2   1 <1>   0.4620 
 15 C       -4.3960    -6.3230     0.1440 C.ar  1 <1>   0.0540 
 16 C       -5.6090    -5.6480     0.0060 C.ar  1 <1>  -0.1500 
 17 C       -4.4330    -7.7180     0.0730 C.ar  1 <1>  -0.1500 
 18 C       -6.8030    -6.3190    -0.1930 C.ar  1 <1>   0.0820 
 19 C       -5.6190    -8.4020    -0.1250 C.ar  1 <1>  -0.1500 
 20 O       -7.9180    -5.5560    -0.3140 O.3   1 <1>  -0.3630 
 21 C       -6.8070    -7.7080    -0.2590 C.ar  1 <1>  -0.1500 
 22 C       -9.1870    -6.1370    -0.5190 C.3   1 <1>   0.0400 
 23 H        0.4040    -3.2820    -0.6670 H     1 <1>   0.0800 
 24 H       -0.8850    -2.3150    -1.2940 H     1 <1>   0.0800 
 25 H        1.8030    -3.1790     1.0850 H     1 <1>   0.0800 
 26 H        3.1300    -2.2050     1.6170 H     1 <1>   0.0800 
 27 H        3.3800    -0.0780     1.1540 H     1 <1>   0.0800 
 28 H        1.9210     0.8070     0.8170 H     1 <1>   0.0800 
 29 H       -1.8610    -2.0080     0.9030 H     1 <1>   0.0800 
 30 H       -0.5270    -2.8190     1.6710 H     1 <1>   0.0800 
 31 H        2.8200    -3.2290    -1.2260 H     1 <1>   0.0800 
 32 H        3.8130    -3.9790    -0.0020 H     1 <1>   0.0800 
 33 H        4.2110    -2.3850    -0.5710 H     1 <1>   0.0800 
 34 H        3.8460    -0.2220    -1.2940 H     1 <1>   0.0800 
 35 H        3.6900     1.4330    -0.7680 H     1 <1>   0.0800 
 36 H        2.3680     0.6690    -1.6080 H     1 <1>   0.0800 
 37 H       -5.6300    -4.5750     0.0530 H     1 <1>   0.1500 
 38 H       -3.5180    -8.2750     0.1750 H     1 <1>   0.1500 
 39 H       -5.6150    -9.4770    -0.1760 H     1 <1>   0.1500 
 40 H       -7.7150    -8.2600    -0.4130 H     1 <1>   0.1500 
 41 H       -9.9100    -5.3450    -0.5830 H     1 <1>   0.0800 
 42 H       -9.4170    -6.7760     0.3160 H     1 <1>   0.0800 
 43 H       -9.1710    -6.6940    -1.4390 H     1 <1>   0.0800 
@<TRIPOS>BOND
  1   1   2  2   
  2   2   3  am  
  3   2   4  1   
  4   3   5  1   
  5   3   6  1   
  6   4   7  1   
  7   4  23  1   
  8   4  24  1   
  9   5   8  1   
 10   5  25  1   
 11   5  26  1   
 12   6   9  1   
 13   6  27  1   
 14   6  28  1   
 15   7  10  1   
 16   7  29  1   
 17   7  30  1   
 18   8  31  1   
 19   8  32  1   
 20   8  33  1   
 21   9  34  1   
 22   9  35  1   
 23   9  36  1   
 24  10  11  1   
 25  10  12  2   
 26  11  13  1   
 27  12  14  1   
 28  13  14  2   
 29  14  15  1   
 30  15  16  ar  
 31  15  17  ar  
 32  16  18  ar  
 33  16  37  1   
 34  17  19  ar  
 35  17  38  1   
 36  18  20  1   
 37  18  21  ar  
 38  19  21  ar  
 39  19  39  1   
 40  20  22  1   
 41  21  40  1   
 42  22  41  1   
 43  22  42  1   
 44  22  43  1   
@<TRIPOS>SUBSTRUCTURE
  1 ****  10 GROUP 4 **** **** 0

# MOE 2024.06 (io_trps.svl 2023.06)
