@<TRIPOS>MOLECULE
1-Methanesulfonyl-piperidine-3-carboxylic acid (3,4-dimethoxy-phenyl)-amide
45 46 1 0 0 
SMALL
USER_CHARGES


@<TRIPOS>ATOM
  1 S        0.2770    -0.0730     1.2280 S.o2  1 <1>   1.3330 
  2 O        0.7630     0.8990     2.1790 O.2   1 <1>  -0.6500 
  3 O       -0.7630    -1.0050     1.5950 O.2   1 <1>  -0.6500 
  4 N        1.6080    -0.9660     0.6780 N.am  1 <1>  -0.8490 
  5 C       -0.2840     0.8170    -0.2120 C.3   1 <1>  -0.1350 
  6 C        2.7490    -0.1490     0.2500 C.3   1 <1>   0.1960 
  7 C        1.2750    -2.0430    -0.2580 C.3   1 <1>   0.1960 
  8 C        3.9990    -1.0220     0.0890 C.3   1 <1>  -0.0190 
  9 C        2.4850    -2.9640    -0.4480 C.3   1 <1>  -0.1600 
 10 C        5.1620    -0.1600    -0.3750 C.2   1 <1>   0.5690 
 11 C        3.7330    -2.1850    -0.8850 C.3   1 <1>  -0.1600 
 12 O        4.9910     0.5780    -1.3150 O.2   1 <1>  -0.5700 
 13 N        6.3480    -0.2760     0.2970 N.am  1 <1>  -0.5470 
 14 C        7.5760     0.3860     0.1300 C.ar  1 <1>   0.1170 
 15 C        8.7160    -0.1890     0.6710 C.ar  1 <1>  -0.1500 
 16 C        7.7070     1.5980    -0.5370 C.ar  1 <1>  -0.1500 
 17 C        9.9590     0.4070     0.5560 C.ar  1 <1>   0.0820 
 18 C        8.9390     2.2150    -0.6570 C.ar  1 <1>  -0.1500 
 19 O       10.9820    -0.2890     1.1300 O.3   1 <1>  -0.3620 
 20 C       10.0810     1.6380    -0.1070 C.ar  1 <1>   0.0820 
 21 C       12.2710    -0.2820     0.5580 C.3   1 <1>   0.0400 
 22 O       11.3000     2.2550    -0.1870 O.3   1 <1>  -0.3630 
 23 C       11.4290     3.5830    -0.6440 C.3   1 <1>   0.0400 
 24 H        0.4850     1.4690    -0.5760 H     1 <1>   0.0800 
 25 H       -1.1380     1.4120     0.0440 H     1 <1>   0.0800 
 26 H       -0.5660     0.1360    -0.9890 H     1 <1>   0.0800 
 27 H        2.9510     0.6100     0.9890 H     1 <1>   0.0800 
 28 H        2.5210     0.3390    -0.6830 H     1 <1>   0.0800 
 29 H        0.9790    -1.6280    -1.2070 H     1 <1>   0.0800 
 30 H        0.4550    -2.6240     0.1320 H     1 <1>   0.0800 
 31 H        4.2330    -1.4260     1.0570 H     1 <1>   0.0800 
 32 H        2.2490    -3.7130    -1.1840 H     1 <1>   0.0800 
 33 H        2.6780    -3.4710     0.4820 H     1 <1>   0.0800 
 34 H        4.5840    -2.8420    -0.9170 H     1 <1>   0.0800 
 35 H        3.5800    -1.7920    -1.8770 H     1 <1>   0.0800 
 36 H        6.3610    -0.9850     1.0270 H     1 <1>   0.3700 
 37 H        8.6500    -1.1260     1.1920 H     1 <1>   0.1500 
 38 H        6.8450     2.0740    -0.9660 H     1 <1>   0.1500 
 39 H        8.9790     3.1480    -1.1840 H     1 <1>   0.1500 
 40 H       12.7980    -1.1510     0.9070 H     1 <1>   0.0800 
 41 H       12.7870     0.6060     0.8760 H     1 <1>   0.0800 
 42 H       12.1820    -0.3090    -0.5140 H     1 <1>   0.0800 
 43 H       12.4570     3.8770    -0.5300 H     1 <1>   0.0800 
 44 H       10.7990     4.2210    -0.0480 H     1 <1>   0.0800 
 45 H       11.1510     3.6250    -1.6820 H     1 <1>   0.0800 
@<TRIPOS>BOND
  1   1   2  2   
  2   1   3  2   
  3   1   4  am  
  4   1   5  1   
  5   4   6  1   
  6   4   7  1   
  7   5  24  1   
  8   5  25  1   
  9   5  26  1   
 10   6   8  1   
 11   6  27  1   
 12   6  28  1   
 13   7   9  1   
 14   7  29  1   
 15   7  30  1   
 16   8  10  1   
 17   8  11  1   
 18   8  31  1   
 19   9  11  1   
 20   9  32  1   
 21   9  33  1   
 22  10  12  2   
 23  10  13  am  
 24  11  34  1   
 25  11  35  1   
 26  13  14  1   
 27  13  36  1   
 28  14  15  ar  
 29  14  16  ar  
 30  15  17  ar  
 31  15  37  1   
 32  16  18  ar  
 33  16  38  1   
 34  17  19  1   
 35  17  20  ar  
 36  18  20  ar  
 37  18  39  1   
 38  19  21  1   
 39  20  22  1   
 40  21  40  1   
 41  21  41  1   
 42  21  42  1   
 43  22  23  1   
 44  23  43  1   
 45  23  44  1   
 46  23  45  1   
@<TRIPOS>SUBSTRUCTURE
  1 ****  13 GROUP 4 **** **** 0

# MOE 2024.06 (io_trps.svl 2023.06)
