@<TRIPOS>MOLECULE
N-(2,4-Dichloro-phenyl)-N-(2-morpholin-4-yl-2-oxo-ethyl)-methanesulfonamide
38 39 1 0 0 
SMALL
USER_CHARGES


@<TRIPOS>ATOM
  1 CL      -2.6910    -0.6990     0.3280 Cl    1 <1>  -0.1770 
  2 C       -2.1460    -1.7190    -0.9870 C.ar  1 <1>   0.1770 
  3 C       -0.9580    -2.4450    -0.8560 C.ar  1 <1>   0.1990 
  4 C       -2.9230    -1.7870    -2.1270 C.ar  1 <1>  -0.1500 
  5 N       -0.1670    -2.3590     0.2920 N.am  1 <1>  -0.6930 
  6 C       -0.5720    -3.2610    -1.9160 C.ar  1 <1>  -0.1500 
  7 C       -2.5060    -2.6040    -3.1600 C.ar  1 <1>   0.1770 
  8 S       -0.0270    -3.6770     1.4020 S.o2  1 <1>   1.3330 
  9 C        0.8290    -1.2380     0.3740 C.3   1 <1>   0.2570 
 10 C       -1.3400    -3.3430    -3.0660 C.ar  1 <1>  -0.1500 
 11 CL      -3.4730    -2.7100    -4.6100 Cl    1 <1>  -0.1770 
 12 O        0.2810    -4.8500     0.6220 O.2   1 <1>  -0.6500 
 13 O        0.8650    -3.2550     2.4530 O.2   1 <1>  -0.6500 
 14 C       -1.6740    -3.7890     2.0660 C.3   1 <1>  -0.1350 
 15 C        1.7320    -1.1230    -0.8620 C.2   1 <1>   0.5690 
 16 O        1.5290    -0.1850    -1.5990 O.2   1 <1>  -0.5700 
 17 N        2.7170    -2.0440    -1.1370 N.am  1 <1>  -0.6600 
 18 C        3.0850    -3.2100    -0.2720 C.3   1 <1>   0.1400 
 19 C        3.4830    -1.9990    -2.4200 C.3   1 <1>   0.1400 
 20 C        4.6110    -3.3760    -0.1750 C.3   1 <1>   0.1200 
 21 C        4.9840    -2.2140    -2.1750 C.3   1 <1>   0.1200 
 22 O        5.1980    -3.3880    -1.4450 O.3   1 <1>  -0.5600 
 23 H       -3.8310    -1.2190    -2.2110 H     1 <1>   0.1500 
 24 H        0.3380    -3.8310    -1.8380 H     1 <1>   0.1500 
 25 H        1.4510    -1.3270     1.2440 H     1 <1>   0.0800 
 26 H        0.2870    -0.3150     0.4720 H     1 <1>   0.0800 
 27 H       -1.0390    -3.9730    -3.8850 H     1 <1>   0.1500 
 28 H       -1.9480    -2.8620     2.5310 H     1 <1>   0.0800 
 29 H       -1.7220    -4.5700     2.7980 H     1 <1>   0.0800 
 30 H       -2.3760    -4.0050     1.2850 H     1 <1>   0.0800 
 31 H        2.6580    -4.1080    -0.6840 H     1 <1>   0.0800 
 32 H        2.7020    -3.0860     0.7220 H     1 <1>   0.0800 
 33 H        3.3410    -1.0540    -2.9150 H     1 <1>   0.0800 
 34 H        3.1190    -2.7720    -3.0750 H     1 <1>   0.0800 
 35 H        4.8500    -4.3070     0.3070 H     1 <1>   0.0800 
 36 H        5.0420    -2.5720     0.3960 H     1 <1>   0.0800 
 37 H        5.4020    -1.3850    -1.6320 H     1 <1>   0.0800 
 38 H        5.5020    -2.3120    -3.1120 H     1 <1>   0.0800 
@<TRIPOS>BOND
  1   1   2  1   
  2   2   3  ar  
  3   2   4  ar  
  4   3   5  1   
  5   3   6  ar  
  6   4   7  ar  
  7   4  23  1   
  8   5   8  am  
  9   5   9  1   
 10   6  10  ar  
 11   6  24  1   
 12   7  10  ar  
 13   7  11  1   
 14   8  12  2   
 15   8  13  2   
 16   8  14  1   
 17   9  15  1   
 18   9  25  1   
 19   9  26  1   
 20  10  27  1   
 21  14  28  1   
 22  14  29  1   
 23  14  30  1   
 24  15  16  2   
 25  15  17  am  
 26  17  18  1   
 27  17  19  1   
 28  18  20  1   
 29  18  31  1   
 30  18  32  1   
 31  19  21  1   
 32  19  33  1   
 33  19  34  1   
 34  20  22  1   
 35  20  35  1   
 36  20  36  1   
 37  21  22  1   
 38  21  37  1   
 39  21  38  1   
@<TRIPOS>SUBSTRUCTURE
  1 ****   5 GROUP 4 **** **** 0

# MOE 2024.06 (io_trps.svl 2023.06)
