@<TRIPOS>MOLECULE
1-(Thiophene-2-sulfonyl)-piperidine-4-carboxylic acid amide
31 32 1 0 0 
SMALL
USER_CHARGES


@<TRIPOS>ATOM
  1 S       -0.0500    -0.2150    -0.3660 S.o2  1 <1>   1.5000 
  2 O       -0.0810    -1.4390     0.4050 O.2   1 <1>  -0.6500 
  3 O        0.0750    -0.3040    -1.8060 O.2   1 <1>  -0.6500 
  4 N        1.2760     0.6980     0.1700 N.am  1 <1>  -0.8490 
  5 C       -1.4930     0.7960     0.0500 C.2   1 <1>  -0.0220 
  6 C        1.4990     1.8860    -0.6600 C.3   1 <1>   0.1960 
  7 C        2.4830    -0.1250     0.2810 C.3   1 <1>   0.1960 
  8 S       -1.5250     1.6060     1.6160 S.3   1 <1>  -0.0800 
  9 C       -2.6370     1.0680    -0.6130 C.2   1 <1>  -0.1500 
 10 C        2.5980     2.7580    -0.0510 C.3   1 <1>  -0.1600 
 11 C        3.6230     0.6820     0.9070 C.3   1 <1>  -0.1600 
 12 C       -3.1040     2.2990     1.2990 C.2   1 <1>  -0.1100 
 13 C       -3.5480     1.9210     0.0880 C.2   1 <1>  -0.1500 
 14 C        3.9070     1.9670     0.1120 C.3   1 <1>  -0.0190 
 15 C        4.9990     2.8040     0.7720 C.2   1 <1>   0.5690 
 16 O        4.8150     3.3180     1.8450 O.2   1 <1>  -0.5700 
 17 N        6.1810     2.9670     0.1500 N.am  1 <1>  -0.8000 
 18 H        0.5920     2.4630    -0.7200 H     1 <1>   0.0800 
 19 H        1.7770     1.5910    -1.6590 H     1 <1>   0.0800 
 20 H        2.7700    -0.4860    -0.6940 H     1 <1>   0.0800 
 21 H        2.2850    -0.9780     0.9100 H     1 <1>   0.0800 
 22 H       -2.8810     0.6920    -1.5930 H     1 <1>   0.1500 
 23 H        2.2650     3.1170     0.9090 H     1 <1>   0.0800 
 24 H        2.7670     3.6140    -0.6800 H     1 <1>   0.0800 
 25 H        4.5100     0.0750     0.9470 H     1 <1>   0.0800 
 26 H        3.3530     0.9330     1.9190 H     1 <1>   0.0800 
 27 H       -3.5350     2.9220     2.0630 H     1 <1>   0.1500 
 28 H       -4.4900     2.2050    -0.3490 H     1 <1>   0.1500 
 29 H        4.2480     1.6850    -0.8680 H     1 <1>   0.0800 
 30 H        6.9020     3.5270     0.6070 H     1 <1>   0.3700 
 31 H        6.4210     2.5650    -0.7540 H     1 <1>   0.3700 
@<TRIPOS>BOND
  1   1   2  2   
  2   1   3  2   
  3   1   4  am  
  4   1   5  1   
  5   4   6  1   
  6   4   7  1   
  7   5   8  1   
  8   5   9  2   
  9   6  10  1   
 10   6  18  1   
 11   6  19  1   
 12   7  11  1   
 13   7  20  1   
 14   7  21  1   
 15   8  12  1   
 16   9  13  1   
 17   9  22  1   
 18  10  14  1   
 19  10  23  1   
 20  10  24  1   
 21  11  14  1   
 22  11  25  1   
 23  11  26  1   
 24  12  13  2   
 25  12  27  1   
 26  13  28  1   
 27  14  15  1   
 28  14  29  1   
 29  15  16  2   
 30  15  17  am  
 31  17  30  1   
 32  17  31  1   
@<TRIPOS>SUBSTRUCTURE
  1 ****   4 GROUP 4 **** **** 0

# MOE 2024.06 (io_trps.svl 2023.06)
