@<TRIPOS>MOLECULE
[1-(2,5-Dimethoxy-benzenesulfonyl)-piperidin-3-yl]-morpholin-4-yl-methanone
53 55 1 0 0 
SMALL
USER_CHARGES


@<TRIPOS>ATOM
  1 S        0.8390     0.9000     0.5120 S.o2  1 <1>   1.4470 
  2 O        1.1540    -0.2080     1.3910 O.2   1 <1>  -0.6500 
  3 O        1.2300     2.2240     0.9460 O.2   1 <1>  -0.6500 
  4 N        1.6450     0.6120    -0.9550 N.am  1 <1>  -0.8490 
  5 C       -0.9190     0.9600     0.0610 C.ar  1 <1>  -0.0090 
  6 C        3.0960     0.9070    -0.8830 C.3   1 <1>   0.1960 
  7 C        1.3110    -0.7010    -1.5380 C.3   1 <1>   0.1960 
  8 C       -1.7060    -0.1850    -0.0460 C.ar  1 <1>   0.0820 
  9 C       -1.5250     2.1800    -0.2170 C.ar  1 <1>  -0.1500 
 10 C        3.9260    -0.3640    -0.6540 C.3   1 <1>  -0.0190 
 11 C        2.3790    -1.1710    -2.5300 C.3   1 <1>  -0.1600 
 12 O       -1.1810    -1.4080     0.1760 O.3   1 <1>  -0.3630 
 13 C       -3.0430    -0.1090    -0.4120 C.ar  1 <1>  -0.1500 
 14 C       -2.8590     2.2730    -0.5780 C.ar  1 <1>   0.0820 
 15 C        5.3990    -0.0270    -0.4280 C.2   1 <1>   0.5690 
 16 C        3.7470    -1.3410    -1.8410 C.3   1 <1>  -0.1600 
 17 C       -1.4870    -2.0020     1.4180 C.3   1 <1>   0.0400 
 18 C       -3.6240     1.1160    -0.6750 C.ar  1 <1>  -0.1500 
 19 O       -3.3400     3.5190    -0.8190 O.3   1 <1>  -0.3630 
 20 O        5.8540     0.9210    -1.0280 O.2   1 <1>  -0.5700 
 21 N        6.1840    -0.7780     0.4130 N.am  1 <1>  -0.6600 
 22 C       -4.6830     3.7250    -1.1970 C.3   1 <1>   0.0400 
 23 C        7.5960    -0.3830     0.7110 C.3   1 <1>   0.1400 
 24 C        5.7830    -2.0390     1.1100 C.3   1 <1>   0.1400 
 25 C        8.5480    -1.5740     0.5250 C.3   1 <1>   0.1200 
 26 C        6.8420    -3.1360     0.9070 C.3   1 <1>   0.1200 
 27 O        8.1120    -2.6760     1.2700 O.3   1 <1>  -0.5600 
 28 H        3.3080     1.6250    -0.1090 H     1 <1>   0.0800 
 29 H        3.4000     1.3560    -1.8140 H     1 <1>   0.0800 
 30 H        0.3570    -0.6360    -2.0340 H     1 <1>   0.0800 
 31 H        1.2310    -1.4440    -0.7610 H     1 <1>   0.0800 
 32 H       -0.9490     3.0870    -0.1530 H     1 <1>   0.1500 
 33 H        3.5390    -0.8060     0.2430 H     1 <1>   0.0800 
 34 H        2.4520    -0.4450    -3.3220 H     1 <1>   0.0800 
 35 H        2.0780    -2.1040    -2.9730 H     1 <1>   0.0800 
 36 H       -3.6210    -1.0110    -0.4960 H     1 <1>   0.1500 
 37 H        3.8520    -2.3490    -1.4810 H     1 <1>   0.0800 
 38 H        4.5190    -1.1730    -2.5730 H     1 <1>   0.0800 
 39 H       -1.1590    -1.3480     2.2080 H     1 <1>   0.0800 
 40 H       -0.9640    -2.9390     1.4810 H     1 <1>   0.0800 
 41 H       -2.5480    -2.1650     1.4820 H     1 <1>   0.0800 
 42 H       -4.6600     1.1500    -0.9550 H     1 <1>   0.1500 
 43 H       -4.8330     4.7810    -1.3330 H     1 <1>   0.0800 
 44 H       -5.3260     3.3630    -0.4140 H     1 <1>   0.0800 
 45 H       -4.8690     3.2070    -2.1210 H     1 <1>   0.0800 
 46 H        7.6570    -0.0370     1.7280 H     1 <1>   0.0800 
 47 H        7.9120     0.4220     0.0710 H     1 <1>   0.0800 
 48 H        4.8430    -2.4070     0.7450 H     1 <1>   0.0800 
 49 H        5.6770    -1.8420     2.1630 H     1 <1>   0.0800 
 50 H        9.5350    -1.3160     0.8670 H     1 <1>   0.0800 
 51 H        8.6030    -1.8550    -0.5120 H     1 <1>   0.0800 
 52 H        6.8710    -3.4500    -0.1220 H     1 <1>   0.0800 
 53 H        6.6150    -3.9890     1.5220 H     1 <1>   0.0800 
@<TRIPOS>BOND
  1   1   2  2   
  2   1   3  2   
  3   1   4  am  
  4   1   5  1   
  5   4   6  1   
  6   4   7  1   
  7   5   8  ar  
  8   5   9  ar  
  9   6  10  1   
 10   6  28  1   
 11   6  29  1   
 12   7  11  1   
 13   7  30  1   
 14   7  31  1   
 15   8  12  1   
 16   8  13  ar  
 17   9  14  ar  
 18   9  32  1   
 19  10  15  1   
 20  10  16  1   
 21  10  33  1   
 22  11  16  1   
 23  11  34  1   
 24  11  35  1   
 25  12  17  1   
 26  13  18  ar  
 27  13  36  1   
 28  14  18  ar  
 29  14  19  1   
 30  15  20  2   
 31  15  21  am  
 32  16  37  1   
 33  16  38  1   
 34  17  39  1   
 35  17  40  1   
 36  17  41  1   
 37  18  42  1   
 38  19  22  1   
 39  21  23  1   
 40  21  24  1   
 41  22  43  1   
 42  22  44  1   
 43  22  45  1   
 44  23  25  1   
 45  23  46  1   
 46  23  47  1   
 47  24  26  1   
 48  24  48  1   
 49  24  49  1   
 50  25  27  1   
 51  25  50  1   
 52  25  51  1   
 53  26  27  1   
 54  26  52  1   
 55  26  53  1   
@<TRIPOS>SUBSTRUCTURE
  1 ****   4 GROUP 4 **** **** 0

# MOE 2024.06 (io_trps.svl 2023.06)
