@<TRIPOS>MOLECULE
N-Allyl-3-[3-(3,4-dimethoxy-phenyl)-[1,2,4]oxadiazol-5-yl]-propionamide
42 43 1 0 0 
SMALL
USER_CHARGES


@<TRIPOS>ATOM
  1 O       -0.4160    -0.0860     0.6020 O.2   1 <1>  -0.5700 
  2 C        0.2460    -1.0640     0.3620 C.2   1 <1>   0.5690 
  3 N        1.5750    -0.9890     0.1130 N.am  1 <1>  -0.7300 
  4 C       -0.4300    -2.4160     0.3290 C.3   1 <1>  -0.0990 
  5 C        2.3590     0.2510     0.1470 C.3   1 <1>   0.2780 
  6 C       -1.5850    -2.4330    -0.6810 C.3   1 <1>   0.0200 
  7 C        3.7220    -0.0980     0.7040 C.2   1 <1>  -0.2880 
  8 C       -2.2240    -3.8050    -0.7610 C.2   1 <1>   0.2980 
  9 C        4.8780    -0.0170     0.0380 C.2   1 <1>  -0.3000 
 10 O       -1.5450    -4.7840    -1.2990 O.3   1 <1>  -0.0190 
 11 N       -3.3810    -4.1090    -0.3440 N.2   1 <1>  -0.5650 
 12 N       -2.3420    -5.8030    -1.2150 N.2   1 <1>  -0.4100 
 13 C       -3.4300    -5.4100    -0.6520 C.2   1 <1>   0.4620 
 14 C       -4.5870    -6.2420    -0.3690 C.ar  1 <1>   0.0540 
 15 C       -5.7180    -5.7380     0.2730 C.ar  1 <1>  -0.1500 
 16 C       -4.6170    -7.5890    -0.7300 C.ar  1 <1>  -0.1500 
 17 C       -6.8270    -6.5190     0.5450 C.ar  1 <1>   0.0830 
 18 C       -5.7090    -8.3920    -0.4600 C.ar  1 <1>  -0.1500 
 19 O       -7.8520    -5.8730     1.1660 O.3   1 <1>  -0.3620 
 20 C       -6.8280    -7.8770     0.1880 C.ar  1 <1>   0.0830 
 21 C       -9.1910    -6.1620     0.8260 C.3   1 <1>   0.0400 
 22 O       -7.9010    -8.6620     0.4940 O.3   1 <1>  -0.3630 
 23 C       -7.8780   -10.0620     0.3280 C.3   1 <1>   0.0400 
 24 H        2.1270    -1.8250    -0.0810 H     1 <1>   0.3700 
 25 H       -0.8120    -2.6280     1.3110 H     1 <1>   0.0800 
 26 H        0.2880    -3.1750     0.0770 H     1 <1>   0.0800 
 27 H        1.8750     0.9870     0.7690 H     1 <1>   0.0800 
 28 H        2.4480     0.6450    -0.8510 H     1 <1>   0.0800 
 29 H       -1.2260    -2.1570    -1.6570 H     1 <1>   0.0800 
 30 H       -2.3320    -1.7170    -0.3860 H     1 <1>   0.0800 
 31 H        3.6650    -0.4290     1.7280 H     1 <1>   0.1500 
 32 H        5.8340    -0.2710     0.4630 H     1 <1>   0.1500 
 33 H        4.9710     0.3110    -0.9840 H     1 <1>   0.1500 
 34 H       -5.7410    -4.7050     0.5710 H     1 <1>   0.1500 
 35 H       -3.7660    -8.0170    -1.2320 H     1 <1>   0.1500 
 36 H       -5.6650    -9.4200    -0.7640 H     1 <1>   0.1500 
 37 H       -9.7940    -5.3140     1.0930 H     1 <1>   0.0800 
 38 H       -9.5110    -7.0250     1.3810 H     1 <1>   0.0800 
 39 H       -9.2540    -6.3440    -0.2330 H     1 <1>   0.0800 
 40 H       -8.8020   -10.4580     0.7090 H     1 <1>   0.0800 
 41 H       -7.0510   -10.4660     0.8850 H     1 <1>   0.0800 
 42 H       -7.7890   -10.2900    -0.7200 H     1 <1>   0.0800 
@<TRIPOS>BOND
  1   1   2  2   
  2   2   3  am  
  3   2   4  1   
  4   3   5  1   
  5   3  24  1   
  6   4   6  1   
  7   4  25  1   
  8   4  26  1   
  9   5   7  1   
 10   5  27  1   
 11   5  28  1   
 12   6   8  1   
 13   6  29  1   
 14   6  30  1   
 15   7   9  2   
 16   7  31  1   
 17   8  10  1   
 18   8  11  2   
 19   9  32  1   
 20   9  33  1   
 21  10  12  1   
 22  11  13  1   
 23  12  13  2   
 24  13  14  1   
 25  14  15  ar  
 26  14  16  ar  
 27  15  17  ar  
 28  15  34  1   
 29  16  18  ar  
 30  16  35  1   
 31  17  19  1   
 32  17  20  ar  
 33  18  20  ar  
 34  18  36  1   
 35  19  21  1   
 36  20  22  1   
 37  21  37  1   
 38  21  38  1   
 39  21  39  1   
 40  22  23  1   
 41  23  40  1   
 42  23  41  1   
 43  23  42  1   
@<TRIPOS>SUBSTRUCTURE
  1 ****  11 GROUP 4 **** **** 0

# MOE 2024.06 (io_trps.svl 2023.06)
