@<TRIPOS>MOLECULE
4-Ethoxy-N-(2-hydroxy-8-methyl-quinolin-3-ylmethyl)-N-(2-methoxy-ethyl)-benzamid
55 57 1 0 0 
SMALL
USER_CHARGES


@<TRIPOS>ATOM
  1 O        1.2670    -0.8340    -2.9330 O.2   1 <1>  -0.5700 
  2 C        1.7270    -0.9550    -1.8120 C.2   1 <1>   0.5440 
  3 N        2.2890     0.1470    -1.2030 N.am  1 <1>  -0.6600 
  4 C        1.6710    -2.2500    -1.1650 C.ar  1 <1>   0.0860 
  5 C        2.0740     1.5150    -1.7520 C.3   1 <1>   0.2780 
  6 C        3.1510     0.0740     0.0180 C.3   1 <1>   0.1400 
  7 C        2.3010    -3.3610    -1.7260 C.ar  1 <1>  -0.1500 
  8 C        0.9770    -2.4360     0.0310 C.ar  1 <1>  -0.1500 
  9 C        0.8750     2.1460    -1.0690 C.2   1 <1>  -0.1240 
 10 C        4.6240    -0.0150    -0.3780 C.3   1 <1>   0.1200 
 11 C        2.2610    -4.6010    -1.1150 C.ar  1 <1>  -0.1500 
 12 C        0.9320    -3.6720     0.6480 C.ar  1 <1>  -0.1500 
 13 C        1.1180     3.1000    -0.0320 C.2   1 <1>   0.6160 
 14 C       -0.3960     1.8210    -1.4180 C.2   1 <1>  -0.1780 
 15 O        5.3810    -0.1850     0.7780 O.3   1 <1>  -0.5600 
 16 C        1.5730    -4.7630     0.0850 C.ar  1 <1>   0.0830 
 17 O        2.2290     3.4490     0.3260 O.2   1 <1>  -0.5700 
 18 N        0.0410     3.6550     0.5890 N.am  1 <1>  -0.5470 
 19 C       -1.5180     2.4170    -0.7570 C.ar  1 <1>   0.0280 
 20 C        6.7510    -0.2550     0.5490 C.3   1 <1>   0.0400 
 21 O        1.4840    -5.9360     0.7520 O.3   1 <1>  -0.3630 
 22 C       -1.2800     3.3510     0.2670 C.ar  1 <1>   0.1170 
 23 C       -2.8340     2.1010    -1.0900 C.ar  1 <1>  -0.1500 
 24 C        2.0810    -7.1150     0.2660 C.3   1 <1>   0.1200 
 25 C       -2.3560     3.9490     0.9330 C.ar  1 <1>  -0.1430 
 26 C       -3.8880     2.6930    -0.4310 C.ar  1 <1>  -0.1500 
 27 C        1.7770    -8.2390     1.2520 C.3   1 <1>  -0.2400 
 28 C       -3.6480     3.6160     0.5790 C.ar  1 <1>  -0.1500 
 29 C       -2.1200     4.9640     2.0440 C.3   1 <1>  -0.0970 
 30 H        1.8890     1.4630    -2.8110 H     1 <1>   0.0800 
 31 H        2.9580     2.1120    -1.6140 H     1 <1>   0.0800 
 32 H        2.9010    -0.7890     0.6070 H     1 <1>   0.0800 
 33 H        2.9970     0.9480     0.6260 H     1 <1>   0.0800 
 34 H        2.8260    -3.2380    -2.6580 H     1 <1>   0.1500 
 35 H        0.4690    -1.5970     0.4740 H     1 <1>   0.1500 
 36 H        4.9370     0.8920    -0.8650 H     1 <1>   0.0800 
 37 H        4.7860    -0.8630    -1.0200 H     1 <1>   0.0800 
 38 H        2.7630    -5.4250    -1.5830 H     1 <1>   0.1500 
 39 H        0.3970    -3.8020     1.5720 H     1 <1>   0.1500 
 40 H       -0.5970     1.1010    -2.1940 H     1 <1>   0.1500 
 41 H        0.2550     4.3300     1.3190 H     1 <1>   0.3700 
 42 H        7.2420    -0.3880     1.4970 H     1 <1>   0.0800 
 43 H        7.0830     0.6630     0.0960 H     1 <1>   0.0800 
 44 H        6.9640    -1.0940    -0.0900 H     1 <1>   0.0800 
 45 H       -3.0210     1.3870    -1.8720 H     1 <1>   0.1500 
 46 H        3.1420    -6.9520     0.1890 H     1 <1>   0.0800 
 47 H        1.6650    -7.3340    -0.7020 H     1 <1>   0.0800 
 48 H       -4.9020     2.4450    -0.6950 H     1 <1>   0.1500 
 49 H        2.1830    -8.0010     2.2190 H     1 <1>   0.0800 
 50 H        2.2220    -9.1560     0.9090 H     1 <1>   0.0800 
 51 H        0.7150    -8.3810     1.3330 H     1 <1>   0.0800 
 52 H       -4.4870     4.0660     1.0800 H     1 <1>   0.1500 
 53 H       -1.5780     5.8100     1.6610 H     1 <1>   0.0800 
 54 H       -1.5530     4.5130     2.8400 H     1 <1>   0.0800 
 55 H       -3.0510     5.3140     2.4500 H     1 <1>   0.0800 
@<TRIPOS>BOND
  1   1   2  2   
  2   2   3  am  
  3   2   4  1   
  4   3   5  1   
  5   3   6  1   
  6   4   7  ar  
  7   4   8  ar  
  8   5   9  1   
  9   5  30  1   
 10   5  31  1   
 11   6  10  1   
 12   6  32  1   
 13   6  33  1   
 14   7  11  ar  
 15   7  34  1   
 16   8  12  ar  
 17   8  35  1   
 18   9  13  1   
 19   9  14  2   
 20  10  15  1   
 21  10  36  1   
 22  10  37  1   
 23  11  16  ar  
 24  11  38  1   
 25  12  16  ar  
 26  12  39  1   
 27  13  17  2   
 28  13  18  am  
 29  14  19  1   
 30  14  40  1   
 31  15  20  1   
 32  16  21  1   
 33  18  22  1   
 34  18  41  1   
 35  19  22  ar  
 36  19  23  ar  
 37  20  42  1   
 38  20  43  1   
 39  20  44  1   
 40  21  24  1   
 41  22  25  ar  
 42  23  26  ar  
 43  23  45  1   
 44  24  27  1   
 45  24  46  1   
 46  24  47  1   
 47  25  28  ar  
 48  25  29  1   
 49  26  28  ar  
 50  26  48  1   
 51  27  49  1   
 52  27  50  1   
 53  27  51  1   
 54  28  52  1   
 55  29  53  1   
 56  29  54  1   
 57  29  55  1   
@<TRIPOS>SUBSTRUCTURE
  1 ****   3 GROUP 4 **** **** 0

# MOE 2024.06 (io_trps.svl 2023.06)
