@<TRIPOS>MOLECULE
1-(4-Fluoro-benzenesulfonyl)-piperidine-3-carboxylic acid ethylamide
40 41 1 0 0 
SMALL
USER_CHARGES


@<TRIPOS>ATOM
  1 S        0.0320    -0.4760     1.4200 S.o2  1 <1>   1.4470 
  2 O       -0.9290    -1.3850     2.0050 O.2   1 <1>  -0.6500 
  3 O        1.1110     0.0370     2.2380 O.2   1 <1>  -0.6500 
  4 N        0.7550    -1.2920     0.1220 N.am  1 <1>  -0.8490 
  5 C       -0.8530     0.8890     0.6130 C.ar  1 <1>  -0.0090 
  6 C        1.8700    -0.5400    -0.4990 C.3   1 <1>   0.1960 
  7 C        1.0650    -2.6890     0.4710 C.3   1 <1>   0.1960 
  8 C       -1.7160     0.6420    -0.4540 C.ar  1 <1>  -0.1500 
  9 C       -0.6930     2.2050     1.0430 C.ar  1 <1>  -0.1500 
 10 C        3.2410    -1.0460    -0.0320 C.3   1 <1>  -0.0190 
 11 C        2.1010    -3.2920    -0.4840 C.3   1 <1>  -0.1600 
 12 C       -2.3970     1.6720    -1.0820 C.ar  1 <1>  -0.1500 
 13 C       -1.3650     3.2490     0.4300 C.ar  1 <1>  -0.1500 
 14 C        4.3450    -0.1560    -0.5810 C.2   1 <1>   0.5690 
 15 C        3.4360    -2.5240    -0.4380 C.3   1 <1>  -0.1600 
 16 C       -2.2080     2.9610    -0.6260 C.ar  1 <1>   0.1900 
 17 O        4.3070     0.1860    -1.7380 O.2   1 <1>  -0.5700 
 18 N        5.3450     0.2290     0.2530 N.am  1 <1>  -0.7300 
 19 F       -2.8450     3.9390    -1.2100 F     1 <1>  -0.1900 
 20 C        6.4950     1.0680    -0.1320 C.3   1 <1>   0.1400 
 21 C        7.7710     0.4030     0.3700 C.3   1 <1>  -0.2400 
 22 H        1.7790     0.5150    -0.2950 H     1 <1>   0.0800 
 23 H        1.8080    -0.6600    -1.5690 H     1 <1>   0.0800 
 24 H        0.1570    -3.2680     0.4440 H     1 <1>   0.0800 
 25 H        1.4540    -2.7350     1.4760 H     1 <1>   0.0800 
 26 H       -1.8510    -0.3710    -0.7950 H     1 <1>   0.1500 
 27 H       -0.0320     2.4140     1.8700 H     1 <1>   0.1500 
 28 H        3.2640    -0.9710     1.0400 H     1 <1>   0.0800 
 29 H        1.6970    -3.2650    -1.4820 H     1 <1>   0.0800 
 30 H        2.2680    -4.3250    -0.2330 H     1 <1>   0.0800 
 31 H       -3.0610     1.4830    -1.9060 H     1 <1>   0.1500 
 32 H       -1.2420     4.2650     0.7600 H     1 <1>   0.1500 
 33 H        4.1040    -2.9900     0.2660 H     1 <1>   0.0800 
 34 H        3.8960    -2.5810    -1.4100 H     1 <1>   0.0800 
 35 H        5.3260    -0.0610     1.2320 H     1 <1>   0.3700 
 36 H        6.3870     2.0460     0.3060 H     1 <1>   0.0800 
 37 H        6.5330     1.1760    -1.2040 H     1 <1>   0.0800 
 38 H        7.7570     0.3160     1.4410 H     1 <1>   0.0800 
 39 H        8.6210     0.9970     0.0880 H     1 <1>   0.0800 
 40 H        7.8780    -0.5720    -0.0720 H     1 <1>   0.0800 
@<TRIPOS>BOND
  1   1   2  2   
  2   1   3  2   
  3   1   4  am  
  4   1   5  1   
  5   4   6  1   
  6   4   7  1   
  7   5   8  ar  
  8   5   9  ar  
  9   6  10  1   
 10   6  22  1   
 11   6  23  1   
 12   7  11  1   
 13   7  24  1   
 14   7  25  1   
 15   8  12  ar  
 16   8  26  1   
 17   9  13  ar  
 18   9  27  1   
 19  10  14  1   
 20  10  15  1   
 21  10  28  1   
 22  11  15  1   
 23  11  29  1   
 24  11  30  1   
 25  12  16  ar  
 26  12  31  1   
 27  13  16  ar  
 28  13  32  1   
 29  14  17  2   
 30  14  18  am  
 31  15  33  1   
 32  15  34  1   
 33  16  19  1   
 34  18  20  1   
 35  18  35  1   
 36  20  21  1   
 37  20  36  1   
 38  20  37  1   
 39  21  38  1   
 40  21  39  1   
 41  21  40  1   
@<TRIPOS>SUBSTRUCTURE
  1 ****   6 GROUP 4 **** **** 0

# MOE 2024.06 (io_trps.svl 2023.06)
