@<TRIPOS>MOLECULE
8-(3-Hydroxy-propylamino)-7-[2-(4-methoxy-phenyl)-ethyl]-3-methyl-3,7-dihydro-pu
51 53 1 0 0 
SMALL
USER_CHARGES


@<TRIPOS>ATOM
  1 O        0.8960     0.3560    -1.3690 O.2   1 <1>  -0.5750 
  2 C        1.8800     0.9460    -0.9910 C.2   1 <1>   0.6860 
  3 N        3.0150     0.2830    -0.5400 N.am  1 <1>  -0.4420 
  4 N        1.8690     2.3100    -1.0120 N.am  1 <1>  -0.4950 
  5 C        4.0940     1.0560    -0.1370 C.2   1 <1>   0.4200 
  6 C        3.0690    -1.2080    -0.4960 C.3   1 <1>   0.0520 
  7 C        2.9200     3.0860    -0.6170 C.2   1 <1>   0.6990 
  8 N        5.3010     0.6300     0.3290 N.pl3 1 <1>  -0.7040 
  9 C        4.0960     2.4090    -0.1530 C.2   1 <1>   0.2710 
 10 O        2.8210     4.2950    -0.6770 O.2   1 <1>  -0.5750 
 11 C        6.0420     1.7010     0.6000 C.cat 1 <1>   1.0690 
 12 N        5.3580     2.8100     0.3270 N.pl3 1 <1>  -0.7670 
 13 N        7.2870     1.6760     1.0680 N.pl3 1 <1>  -0.7180 
 14 C        5.7700     4.2320     0.4730 C.3   1 <1>   0.3480 
 15 C        8.1530     0.5130     1.3720 C.3   1 <1>   0.1600 
 16 C        6.3090     4.7750    -0.8510 C.3   1 <1>  -0.0250 
 17 C        9.4970     0.7110     0.6740 C.3   1 <1>  -0.1670 
 18 C        7.0590     6.0640    -0.5830 C.ar  1 <1>  -0.1510 
 19 C       10.4710    -0.4090     1.0380 C.3   1 <1>   0.1120 
 20 C        6.3570     7.2360    -0.3480 C.ar  1 <1>  -0.1570 
 21 C        8.4460     6.0810    -0.5540 C.ar  1 <1>  -0.1570 
 22 O       11.6900    -0.1080     0.4710 O.3   1 <1>  -0.6840 
 23 C        7.0360     8.4090    -0.0730 C.ar  1 <1>  -0.1570 
 24 C        9.1260     7.2550    -0.2790 C.ar  1 <1>  -0.1570 
 25 C        8.4200     8.4290    -0.0330 C.ar  1 <1>   0.0750 
 26 O        9.0070     9.6180     0.2480 O.3   1 <1>  -0.3680 
 27 C       10.4100     9.7560     0.2690 C.3   1 <1>   0.0320 
 28 H        1.0210     2.7660    -1.3480 H     1 <1>   0.3640 
 29 H        2.1140    -1.6350    -0.7540 H     1 <1>   0.0720 
 30 H        3.3270    -1.5380     0.4950 H     1 <1>   0.0720 
 31 H        3.8010    -1.5680    -1.1980 H     1 <1>   0.0720 
 32 H        5.5980    -0.3330     0.4550 H     1 <1>   0.4450 
 33 H        7.7410     2.5740     1.2400 H     1 <1>   0.4450 
 34 H        6.5350     4.3130     1.2270 H     1 <1>   0.0720 
 35 H        4.9350     4.8310     0.7970 H     1 <1>   0.0720 
 36 H        7.6980    -0.4040     1.0390 H     1 <1>   0.0720 
 37 H        8.3030     0.4530     2.4390 H     1 <1>   0.0720 
 38 H        5.4950     4.9660    -1.5290 H     1 <1>   0.0720 
 39 H        6.9740     4.0640    -1.3070 H     1 <1>   0.0720 
 40 H        9.9280     1.6460     0.9890 H     1 <1>   0.0720 
 41 H        9.3540     0.7220    -0.3920 H     1 <1>   0.0720 
 42 H       10.1490    -1.3670     0.6670 H     1 <1>   0.0720 
 43 H       10.6170    -0.4650     2.1040 H     1 <1>   0.0720 
 44 H        5.2810     7.2500    -0.3780 H     1 <1>   0.1430 
 45 H        9.0130     5.1880    -0.7470 H     1 <1>   0.1430 
 46 H       11.6720    -0.2180    -0.5000 H     1 <1>   0.3940 
 47 H        6.4960     9.3200     0.1110 H     1 <1>   0.1430 
 48 H       10.1990     7.2400    -0.2630 H     1 <1>   0.1430 
 49 H       10.6410    10.7820     0.4930 H     1 <1>   0.0720 
 50 H       10.8000     9.4960    -0.6990 H     1 <1>   0.0720 
 51 H       10.8120     9.1150     1.0330 H     1 <1>   0.0720 
@<TRIPOS>BOND
  1   1   2  2   
  2   2   3  am  
  3   2   4  am  
  4   3   5  1   
  5   3   6  1   
  6   4   7  am  
  7   4  28  1   
  8   5   8  1   
  9   5   9  2   
 10   6  29  1   
 11   6  30  1   
 12   6  31  1   
 13   7   9  1   
 14   7  10  2   
 15   8  11  ar  
 16   8  32  1   
 17   9  12  1   
 18  11  12  ar  
 19  11  13  ar  
 20  12  14  1   
 21  13  15  1   
 22  13  33  1   
 23  14  16  1   
 24  14  34  1   
 25  14  35  1   
 26  15  17  1   
 27  15  36  1   
 28  15  37  1   
 29  16  18  1   
 30  16  38  1   
 31  16  39  1   
 32  17  19  1   
 33  17  40  1   
 34  17  41  1   
 35  18  20  ar  
 36  18  21  ar  
 37  19  22  1   
 38  19  42  1   
 39  19  43  1   
 40  20  23  ar  
 41  20  44  1   
 42  21  24  ar  
 43  21  45  1   
 44  22  46  1   
 45  23  25  ar  
 46  23  47  1   
 47  24  25  ar  
 48  24  48  1   
 49  25  26  1   
 50  26  27  1   
 51  27  49  1   
 52  27  50  1   
 53  27  51  1   
@<TRIPOS>SUBSTRUCTURE
  1 ****  14 GROUP 4 **** **** 0

# MOE 2024.06 (io_trps.svl 2023.06)
