@<TRIPOS>MOLECULE
3-tert-Butyl-6-(2-fluoro-phenyl)-[1,2,4]triazolo[3,4-b][1,3,4]thiadiazole
32 34 1 0 0 
SMALL
USER_CHARGES


@<TRIPOS>ATOM
  1 S       -0.0430    -0.0090    -1.0480 S.3   1 <1>  -0.1970 
  2 C        0.7350     1.5400    -0.8390 C.2   1 <1>   0.2420 
  3 C       -1.5740     0.7120    -0.4770 C.2   1 <1>   0.5050 
  4 N        1.9170     2.0080    -1.0120 N.2   1 <1>  -0.3380 
  5 N       -0.1560     2.4050    -0.3910 N.pl3 1 <1>   0.5050 
  6 N       -1.4610     1.9550    -0.1750 N.2   1 <1>  -0.6520 
  7 C       -2.7260    -0.1560    -0.4140 C.ar  1 <1>   0.0860 
  8 N        1.8170     3.3010    -0.6510 N.2   1 <1>  -0.3380 
  9 C        0.5850     3.5250    -0.2860 C.2   1 <1>   0.0060 
 10 C       -4.0070     0.2800    -0.7600 C.ar  1 <1>   0.1900 
 11 C       -2.6240    -1.4880     0.0020 C.ar  1 <1>  -0.1500 
 12 C        0.0160     4.8650     0.2020 C.3   1 <1>   0.1800 
 13 F       -4.1790     1.5030    -1.1810 F     1 <1>  -0.1900 
 14 C       -5.1270    -0.5270    -0.7000 C.ar  1 <1>  -0.1500 
 15 C       -3.7340    -2.3140     0.0670 C.ar  1 <1>  -0.1500 
 16 C        1.1030     5.9520     0.2050 C.3   1 <1>  -0.2400 
 17 C       -0.5190     4.7200     1.6350 C.3   1 <1>  -0.2400 
 18 C       -1.1190     5.3250    -0.7240 C.3   1 <1>  -0.2400 
 19 C       -4.9870    -1.8380    -0.2810 C.ar  1 <1>  -0.1500 
 20 H       -1.6660    -1.8880     0.2860 H     1 <1>   0.1500 
 21 H       -6.0890    -0.1360    -0.9780 H     1 <1>   0.1500 
 22 H       -3.6250    -3.3360     0.3930 H     1 <1>   0.1500 
 23 H        1.9140     5.6680     0.8520 H     1 <1>   0.0800 
 24 H        0.7080     6.8920     0.5460 H     1 <1>   0.0800 
 25 H        1.4980     6.0870    -0.7870 H     1 <1>   0.0800 
 26 H        0.2620     4.3740     2.2880 H     1 <1>   0.0800 
 27 H       -1.3310     4.0160     1.6720 H     1 <1>   0.0800 
 28 H       -0.8780     5.6650     2.0020 H     1 <1>   0.0800 
 29 H       -0.7620     5.4040    -1.7360 H     1 <1>   0.0800 
 30 H       -1.4930     6.2850    -0.4180 H     1 <1>   0.0800 
 31 H       -1.9370     4.6270    -0.7070 H     1 <1>   0.0800 
 32 H       -5.8480    -2.4850    -0.2270 H     1 <1>   0.1500 
@<TRIPOS>BOND
  1   1   2  1   
  2   1   3  1   
  3   2   4  2   
  4   2   5  1   
  5   3   6  2   
  6   3   7  1   
  7   4   8  1   
  8   5   6  1   
  9   5   9  1   
 10   7  10  ar  
 11   7  11  ar  
 12   8   9  2   
 13   9  12  1   
 14  10  13  1   
 15  10  14  ar  
 16  11  15  ar  
 17  11  20  1   
 18  12  16  1   
 19  12  17  1   
 20  12  18  1   
 21  14  19  ar  
 22  14  21  1   
 23  15  19  ar  
 24  15  22  1   
 25  16  23  1   
 26  16  24  1   
 27  16  25  1   
 28  17  26  1   
 29  17  27  1   
 30  17  28  1   
 31  18  29  1   
 32  18  30  1   
 33  18  31  1   
 34  19  32  1   
@<TRIPOS>SUBSTRUCTURE
  1 ****   6 GROUP 4 **** **** 0

# MOE 2024.06 (io_trps.svl 2023.06)
