@<TRIPOS>MOLECULE
1-Allyl-2-morpholin-4-yl-1H-benzoimidazole
36 38 1 0 0 
SMALL
USER_CHARGES


@<TRIPOS>ATOM
  1 O       -0.3710     0.3760    -0.0230 O.3   1 <1>  -0.5660 
  2 C       -0.8940    -0.8100    -0.5390 C.3   1 <1>   0.1100 
  3 C       -1.2620     1.4480    -0.0310 C.3   1 <1>   0.1100 
  4 C       -2.0970    -1.2760     0.2970 C.3   1 <1>   0.1580 
  5 C       -2.4720     1.1230     0.8590 C.3   1 <1>   0.1580 
  6 N       -3.1040    -0.1800     0.4680 N.pl3 1 <1>  -0.5980 
  7 C       -4.4160    -0.3150     0.1930 C.cat 1 <1>   1.0680 
  8 N       -5.1640     0.6940    -0.2460 N.pl3 1 <1>  -0.7050 
  9 N       -5.1770    -1.4160     0.3040 N.pl3 1 <1>  -0.7680 
 10 C       -6.4490     0.2460    -0.4650 C.ar  1 <1>   0.3000 
 11 C       -6.4620    -1.0910    -0.1200 C.ar  1 <1>   0.3000 
 12 C       -4.8780    -2.6820     1.0000 C.3   1 <1>   0.4850 
 13 C       -7.5920     0.8840    -0.9290 C.ar  1 <1>  -0.1200 
 14 C       -7.6340    -1.8330    -0.2300 C.ar  1 <1>  -0.1200 
 15 C       -4.5970    -3.7550    -0.0330 C.2   1 <1>  -0.2970 
 16 C       -8.7560     0.1470    -1.0380 C.ar  1 <1>  -0.1600 
 17 C       -8.7760    -1.2040    -0.6900 C.ar  1 <1>  -0.1600 
 18 C       -3.5280    -4.5600    -0.0600 C.2   1 <1>  -0.3090 
 19 H       -0.1130    -1.5500    -0.5130 H     1 <1>   0.0690 
 20 H       -1.1750    -0.6460    -1.5650 H     1 <1>   0.0690 
 21 H       -1.5600     1.6450    -1.0460 H     1 <1>   0.0690 
 22 H       -0.7390     2.3080     0.3490 H     1 <1>   0.0690 
 23 H       -1.7490    -1.6010     1.2630 H     1 <1>   0.0690 
 24 H       -2.5360    -2.1130    -0.2100 H     1 <1>   0.0690 
 25 H       -3.1770     1.9330     0.8110 H     1 <1>   0.0690 
 26 H       -2.1320     1.0530     1.8780 H     1 <1>   0.0690 
 27 H       -4.8180     1.6240    -0.4590 H     1 <1>   0.4430 
 28 H       -5.7260    -2.9720     1.5970 H     1 <1>   0.0690 
 29 H       -4.0380    -2.5640     1.6630 H     1 <1>   0.0690 
 30 H       -7.5690     1.9260    -1.1960 H     1 <1>   0.1400 
 31 H       -7.6530    -2.8750     0.0350 H     1 <1>   0.1400 
 32 H       -5.3740    -3.8240    -0.7750 H     1 <1>   0.1400 
 33 H       -9.6610     0.6130    -1.3950 H     1 <1>   0.1400 
 34 H       -9.6970    -1.7580    -0.7850 H     1 <1>   0.1400 
 35 H       -2.7240    -4.5490     0.6570 H     1 <1>   0.1400 
 36 H       -3.3700    -5.3150    -0.8140 H     1 <1>   0.1400 
@<TRIPOS>BOND
  1   1   2  1   
  2   1   3  1   
  3   2   4  1   
  4   2  19  1   
  5   2  20  1   
  6   3   5  1   
  7   3  21  1   
  8   3  22  1   
  9   4   6  1   
 10   4  23  1   
 11   4  24  1   
 12   5   6  1   
 13   5  25  1   
 14   5  26  1   
 15   6   7  ar  
 16   7   8  ar  
 17   7   9  ar  
 18   8  10  1   
 19   8  27  1   
 20   9  11  1   
 21   9  12  1   
 22  10  11  ar  
 23  10  13  ar  
 24  11  14  ar  
 25  12  15  1   
 26  12  28  1   
 27  12  29  1   
 28  13  16  ar  
 29  13  30  1   
 30  14  17  ar  
 31  14  31  1   
 32  15  18  2   
 33  15  32  1   
 34  16  17  ar  
 35  16  33  1   
 36  17  34  1   
 37  18  35  1   
 38  18  36  1   
@<TRIPOS>SUBSTRUCTURE
  1 ****   7 GROUP 4 **** **** 0

# MOE 2024.06 (io_trps.svl 2023.06)
