@<TRIPOS>MOLECULE
7-(2-Hydroxy-3-m-tolyloxy-propyl)-1,3-dimethyl-8-vinylamino-3,7-dihydro-purine-2
52 54 1 0 0 
SMALL
USER_CHARGES


@<TRIPOS>ATOM
  1 O        0.4680     1.1000    -0.1570 O.2   1 <1>  -0.5740 
  2 C        1.5940     1.5330    -0.0250 C.2   1 <1>   0.6860 
  3 N        1.7940     2.8520     0.3680 N.am  1 <1>  -0.4260 
  4 N        2.6840     0.7120    -0.2760 N.am  1 <1>  -0.4410 
  5 C        3.0700     3.3930     0.4530 C.2   1 <1>   0.6990 
  6 C        0.6010     3.7060     0.6650 C.3   1 <1>   0.0520 
  7 C        3.9470     1.2650    -0.1920 C.2   1 <1>   0.4210 
  8 C        2.4880    -0.7160    -0.6670 C.3   1 <1>   0.0520 
  9 O        3.2310     4.5530     0.7920 O.2   1 <1>  -0.5740 
 10 C        4.1900     2.5500     0.1400 C.2   1 <1>   0.2710 
 11 N        5.1350     0.6530    -0.4200 N.pl3 1 <1>  -0.7040 
 12 N        5.5920     2.7270     0.0920 N.pl3 1 <1>  -0.7670 
 13 C        6.1080     1.5320    -0.2240 C.cat 1 <1>   1.0690 
 14 C        6.1820     4.0960     0.3360 C.3   1 <1>   0.3480 
 15 N        7.3970     1.2170    -0.3530 N.pl3 1 <1>  -0.6930 
 16 C        7.5890     4.3710    -0.2540 C.3   1 <1>   0.1930 
 17 C        8.0630    -0.0030    -0.5590 C.2   1 <1>   0.1460 
 18 O        8.5570     3.5930     0.3880 O.3   1 <1>  -0.6840 
 19 C        7.9940     5.8450    -0.1390 C.3   1 <1>   0.1130 
 20 C        7.6080    -1.2240    -0.2490 C.2   1 <1>  -0.3060 
 21 O        6.9810     6.6250    -0.7280 O.3   1 <1>  -0.3680 
 22 C        6.9850     7.9750    -0.6090 C.ar  1 <1>   0.0750 
 23 C        8.0800     8.7070    -0.1550 C.ar  1 <1>  -0.1570 
 24 C        5.8190     8.6350    -0.9600 C.ar  1 <1>  -0.1570 
 25 C        8.0010    10.0860    -0.0450 C.ar  1 <1>  -0.1510 
 26 C        5.7390    10.0110    -0.8540 C.ar  1 <1>  -0.1570 
 27 C        6.8280    10.7330    -0.3970 C.ar  1 <1>  -0.1570 
 28 C        9.1910    10.8880     0.4490 C.3   1 <1>  -0.1040 
 29 H       -0.1650     3.1220     1.1460 H     1 <1>   0.0720 
 30 H        0.2070     4.1060    -0.2530 H     1 <1>   0.0720 
 31 H        0.8600     4.5200     1.3200 H     1 <1>   0.0720 
 32 H        1.5350    -1.0760    -0.3180 H     1 <1>   0.0720 
 33 H        3.2540    -1.3340    -0.2340 H     1 <1>   0.0720 
 34 H        2.5160    -0.8050    -1.7390 H     1 <1>   0.0720 
 35 H        5.3040    -0.3020    -0.7180 H     1 <1>   0.4450 
 36 H        6.1950     4.2960     1.3940 H     1 <1>   0.0720 
 37 H        5.5130     4.8150    -0.1040 H     1 <1>   0.0720 
 38 H        8.0140     2.0300    -0.2100 H     1 <1>   0.4450 
 39 H        7.5940     4.1020    -1.2960 H     1 <1>   0.0720 
 40 H        9.0450     0.1050    -0.9990 H     1 <1>   0.1430 
 41 H        8.9540     4.0800     1.1450 H     1 <1>   0.3940 
 42 H        8.9110     6.0320    -0.6720 H     1 <1>   0.0720 
 43 H        8.0830     6.1420     0.8910 H     1 <1>   0.0720 
 44 H        8.1770    -2.1190    -0.4370 H     1 <1>   0.1430 
 45 H        6.6720    -1.4510     0.2240 H     1 <1>   0.1430 
 46 H        8.9990     8.2230     0.1110 H     1 <1>   0.1430 
 47 H        4.9760     8.0720    -1.3140 H     1 <1>   0.1430 
 48 H        4.8320    10.5210    -1.1270 H     1 <1>   0.1430 
 49 H        6.7570    11.8040    -0.3180 H     1 <1>   0.1430 
 50 H        9.8180    10.2870     1.0820 H     1 <1>   0.0720 
 51 H        8.8580    11.7410     1.0130 H     1 <1>   0.0720 
 52 H        9.7710    11.2310    -0.3890 H     1 <1>   0.0720 
@<TRIPOS>BOND
  1   1   2  2   
  2   2   3  am  
  3   2   4  am  
  4   3   5  am  
  5   3   6  1   
  6   4   7  1   
  7   4   8  1   
  8   5   9  2   
  9   5  10  1   
 10   6  29  1   
 11   6  30  1   
 12   6  31  1   
 13   7  10  2   
 14   7  11  1   
 15   8  32  1   
 16   8  33  1   
 17   8  34  1   
 18  10  12  1   
 19  11  13  ar  
 20  11  35  1   
 21  12  13  ar  
 22  12  14  1   
 23  13  15  ar  
 24  14  16  1   
 25  14  36  1   
 26  14  37  1   
 27  15  17  1   
 28  15  38  1   
 29  16  18  1   
 30  16  19  1   
 31  16  39  1   
 32  17  20  2   
 33  17  40  1   
 34  18  41  1   
 35  19  21  1   
 36  19  42  1   
 37  19  43  1   
 38  20  44  1   
 39  20  45  1   
 40  21  22  1   
 41  22  23  ar  
 42  22  24  ar  
 43  23  25  ar  
 44  23  46  1   
 45  24  26  ar  
 46  24  47  1   
 47  25  27  ar  
 48  25  28  1   
 49  26  27  ar  
 50  26  48  1   
 51  27  49  1   
 52  28  50  1   
 53  28  51  1   
 54  28  52  1   
@<TRIPOS>SUBSTRUCTURE
  1 ****  14 GROUP 4 **** **** 0

# MOE 2024.06 (io_trps.svl 2023.06)
