@<TRIPOS>MOLECULE
2-(1-Phenyl-1H-tetrazol-5-ylsulfanyl)-N-propyl-acetamide
34 35 1 0 0 
SMALL
USER_CHARGES


@<TRIPOS>ATOM
  1 S       -0.5230    -0.0700     0.6830 S.3   1 <1>  -0.2860 
  2 C        0.8520     1.0820     0.8280 C.2   1 <1>   0.2420 
  3 C       -1.9830     0.9310     1.2630 C.3   1 <1>   0.1310 
  4 N        0.7210     2.2820     1.2350 N.2   1 <1>  -0.3380 
  5 N        2.1110     0.7900     0.5130 N.pl3 1 <1>   0.5930 
  6 C       -3.2780     0.1360     1.1870 C.2   1 <1>   0.5690 
  7 N        1.9510     2.7860     1.1730 N.2   1 <1>   0.0000 
  8 N        2.7890     1.9100     0.7400 N.2   1 <1>  -0.4180 
  9 C        2.6840    -0.4140     0.0120 C.ar  1 <1>  -0.0230 
 10 O       -4.2220     0.5220     1.8320 O.2   1 <1>  -0.5700 
 11 N       -3.3510    -0.9710     0.3990 N.am  1 <1>  -0.7300 
 12 C        2.4730    -1.6320     0.6520 C.ar  1 <1>  -0.1500 
 13 C        3.4750    -0.3900    -1.1340 C.ar  1 <1>  -0.1500 
 14 C       -4.5450    -1.8200     0.2180 C.3   1 <1>   0.1400 
 15 C        3.0280    -2.7970     0.1530 C.ar  1 <1>  -0.1500 
 16 C        4.0310    -1.5550    -1.6320 C.ar  1 <1>  -0.1500 
 17 C       -4.8040    -2.0030    -1.2770 C.3   1 <1>  -0.1600 
 18 C        3.8060    -2.7590    -0.9900 C.ar  1 <1>  -0.1500 
 19 C       -6.0340    -2.8810    -1.5260 C.3   1 <1>  -0.2400 
 20 H       -2.0450     1.8020     0.6380 H     1 <1>   0.0800 
 21 H       -1.7870     1.2240     2.2780 H     1 <1>   0.0800 
 22 H       -2.5080    -1.2790    -0.0910 H     1 <1>   0.3700 
 23 H        1.8740    -1.6800     1.5460 H     1 <1>   0.1500 
 24 H        3.6610     0.5430    -1.6390 H     1 <1>   0.1500 
 25 H       -5.4000    -1.3570     0.6850 H     1 <1>   0.0800 
 26 H       -4.3760    -2.7750     0.6870 H     1 <1>   0.0800 
 27 H        2.8580    -3.7350     0.6540 H     1 <1>   0.1500 
 28 H        4.6400    -1.5250    -2.5200 H     1 <1>   0.1500 
 29 H       -3.9460    -2.4610    -1.7380 H     1 <1>   0.0800 
 30 H       -4.9640    -1.0380    -1.7280 H     1 <1>   0.0800 
 31 H        4.2390    -3.6660    -1.3790 H     1 <1>   0.1500 
 32 H       -5.8940    -3.8590    -1.0980 H     1 <1>   0.0800 
 33 H       -6.1990    -2.9920    -2.5840 H     1 <1>   0.0800 
 34 H       -6.9100    -2.4340    -1.0900 H     1 <1>   0.0800 
@<TRIPOS>BOND
  1   1   2  1   
  2   1   3  1   
  3   2   4  2   
  4   2   5  1   
  5   3   6  1   
  6   3  20  1   
  7   3  21  1   
  8   4   7  1   
  9   5   8  1   
 10   5   9  1   
 11   6  10  2   
 12   6  11  am  
 13   7   8  2   
 14   9  12  ar  
 15   9  13  ar  
 16  11  14  1   
 17  11  22  1   
 18  12  15  ar  
 19  12  23  1   
 20  13  16  ar  
 21  13  24  1   
 22  14  17  1   
 23  14  25  1   
 24  14  26  1   
 25  15  18  ar  
 26  15  27  1   
 27  16  18  ar  
 28  16  28  1   
 29  17  19  1   
 30  17  29  1   
 31  17  30  1   
 32  18  31  1   
 33  19  32  1   
 34  19  33  1   
 35  19  34  1   
@<TRIPOS>SUBSTRUCTURE
  1 ****   1 GROUP 4 **** **** 0

# MOE 2024.06 (io_trps.svl 2023.06)
