@<TRIPOS>MOLECULE
[4-(8,8-Dimethyl-2,4,6-trioxo-1,2,3,4,5,6,7,8,9,10-decahydro-pyrimido[4,5-b]quin
50 53 1 0 0 
SMALL
USER_CHARGES


@<TRIPOS>ATOM
  1 O       -0.8080    -0.4920     0.5100 O.2   1 <1>  -0.5700 
  2 C       -1.8270    -1.0510     0.1760 C.2   1 <1>   0.6900 
  3 N       -3.0190    -0.7210     0.7490 N.am  1 <1>  -0.5390 
  4 N       -1.8150    -2.0120    -0.7800 N.am  1 <1>  -0.4900 
  5 C       -4.1890    -1.3460     0.3950 C.2   1 <1>   0.2090 
  6 C       -2.9470    -2.6580    -1.1860 C.2   1 <1>   0.6160 
  7 N       -5.3550    -0.9390     0.9920 N.pl3 1 <1>  -0.6000 
  8 C       -4.1640    -2.3300    -0.5440 C.2   1 <1>  -0.1240 
  9 O       -2.8430    -3.4580    -2.0990 O.2   1 <1>  -0.5700 
 10 C       -6.5790    -1.4100     0.5660 C.2   1 <1>  -0.0380 
 11 C       -5.4330    -3.0980    -0.8960 C.3   1 <1>   0.3400 
 12 C       -6.6880    -2.4090    -0.3490 C.2   1 <1>  -0.1240 
 13 C       -7.8090    -0.7470     1.1740 C.3   1 <1>  -0.0220 
 14 C       -5.3360    -4.5040    -0.2990 C.ar  1 <1>  -0.1430 
 15 C       -7.9360    -2.8880    -0.8390 C.2   1 <1>   0.4950 
 16 C       -9.0690    -0.9090     0.2910 C.3   1 <1>   0.0000 
 17 C       -5.3740    -5.6210    -1.1210 C.ar  1 <1>  -0.1500 
 18 C       -5.2100    -4.6820     1.0730 C.ar  1 <1>  -0.1500 
 19 O       -8.0560    -3.6640    -1.7570 O.2   1 <1>  -0.5700 
 20 C       -9.2020    -2.3750    -0.1760 C.3   1 <1>  -0.0990 
 21 C       -8.9750     0.0230    -0.9330 C.3   1 <1>  -0.2400 
 22 C      -10.3170    -0.5160     1.0970 C.3   1 <1>  -0.2400 
 23 C       -5.2870    -6.8950    -0.5860 C.ar  1 <1>  -0.1500 
 24 C       -5.1210    -5.9530     1.6100 C.ar  1 <1>  -0.1500 
 25 C       -5.1590    -7.0670     0.7890 C.ar  1 <1>   0.0820 
 26 O       -5.0680    -8.2770     1.3950 O.3   1 <1>  -0.3620 
 27 C       -5.1250    -9.4880     0.6390 C.3   1 <1>   0.0140 
 28 C       -5.0260   -10.7480     1.4890 C.2   1 <1>   0.9060 
 29 O       -6.0650   -11.2760     1.9050 O.co2 1 <1>  -0.9000 
 30 O       -3.9140   -11.2640     1.6700 O.co2 1 <1>  -0.9000 
 31 H       -2.9770     0.0100     1.4540 H     1 <1>   0.3700 
 32 H       -0.9360    -2.2530    -1.2210 H     1 <1>   0.3700 
 33 H       -5.3160    -0.2020     1.7010 H     1 <1>   0.4000 
 34 H       -5.5090    -3.1540    -1.9690 H     1 <1>   0.0800 
 35 H       -7.6200     0.3010     1.3290 H     1 <1>   0.0800 
 36 H       -7.9810    -1.1930     2.1380 H     1 <1>   0.0800 
 37 H       -5.4750    -5.5060    -2.1860 H     1 <1>   0.1500 
 38 H       -5.1800    -3.8320     1.7320 H     1 <1>   0.1500 
 39 H       -9.4090    -3.0120     0.6640 H     1 <1>   0.0800 
 40 H      -10.0210    -2.4690    -0.8670 H     1 <1>   0.0800 
 41 H       -8.1020    -0.1910    -1.5240 H     1 <1>   0.0800 
 42 H       -8.9210     1.0510    -0.6230 H     1 <1>   0.0800 
 43 H       -9.8400    -0.0920    -1.5620 H     1 <1>   0.0800 
 44 H      -10.4310    -1.1480     1.9600 H     1 <1>   0.0800 
 45 H      -11.2030    -0.6110     0.4920 H     1 <1>   0.0800 
 46 H      -10.2480     0.5050     1.4320 H     1 <1>   0.0800 
 47 H       -5.3190    -7.7390    -1.2470 H     1 <1>   0.1500 
 48 H       -5.0230    -6.0990     2.6700 H     1 <1>   0.1500 
 49 H       -4.3080    -9.4880    -0.0550 H     1 <1>   0.0800 
 50 H       -6.0600    -9.5120     0.1150 H     1 <1>   0.0800 
@<TRIPOS>BOND
  1   1   2  2   
  2   2   3  am  
  3   2   4  am  
  4   3   5  1   
  5   3  31  1   
  6   4   6  am  
  7   4  32  1   
  8   5   7  1   
  9   5   8  2   
 10   6   8  1   
 11   6   9  2   
 12   7  10  1   
 13   7  33  1   
 14   8  11  1   
 15  10  12  2   
 16  10  13  1   
 17  11  12  1   
 18  11  14  1   
 19  11  34  1   
 20  12  15  1   
 21  13  16  1   
 22  13  35  1   
 23  13  36  1   
 24  14  17  ar  
 25  14  18  ar  
 26  15  19  2   
 27  15  20  1   
 28  16  20  1   
 29  16  21  1   
 30  16  22  1   
 31  17  23  ar  
 32  17  37  1   
 33  18  24  ar  
 34  18  38  1   
 35  20  39  1   
 36  20  40  1   
 37  21  41  1   
 38  21  42  1   
 39  21  43  1   
 40  22  44  1   
 41  22  45  1   
 42  22  46  1   
 43  23  25  ar  
 44  23  47  1   
 45  24  25  ar  
 46  24  48  1   
 47  25  26  1   
 48  26  27  1   
 49  27  28  1   
 50  27  49  1   
 51  27  50  1   
 52  28  29  ar  
 53  28  30  ar  
@<TRIPOS>SUBSTRUCTURE
  1 ****  14 GROUP 4 **** **** 0

# MOE 2024.06 (io_trps.svl 2023.06)
