@<TRIPOS>MOLECULE
2-(4-Cyclohexyl-5-methyl-4H-[1,2,4]triazol-3-ylsulfanyl)-N-(4-methoxy-phenyl)-ac
49 51 1 0 0 
SMALL
USER_CHARGES


@<TRIPOS>ATOM
  1 S       -0.6680    -1.5270    -0.5490 S.3   1 <1>  -0.2860 
  2 C        1.0920    -1.1530    -0.5450 C.2   1 <1>   0.2420 
  3 C       -1.4320     0.0920    -1.0650 C.3   1 <1>   0.1310 
  4 N        1.5350     0.0180    -0.8320 N.2   1 <1>  -0.3380 
  5 N        2.0560    -2.0350    -0.2500 N.pl3 1 <1>   0.0480 
  6 C       -2.9520     0.0200    -1.0900 C.2   1 <1>   0.5690 
  7 N        2.8630    -0.0590    -0.7310 N.2   1 <1>  -0.3380 
  8 C        3.1530    -1.2700    -0.3890 C.2   1 <1>   0.0060 
  9 C        2.0010    -3.4740     0.1320 C.3   1 <1>   0.1760 
 10 O       -3.5460     0.9040    -1.6570 O.2   1 <1>  -0.5700 
 11 N       -3.5720    -1.0340    -0.4720 N.am  1 <1>  -0.5470 
 12 C        4.5780    -1.7460    -0.1750 C.3   1 <1>  -0.0600 
 13 C        1.4060    -4.3400    -0.9910 C.3   1 <1>  -0.1600 
 14 C        1.2640    -3.6810     1.4660 C.3   1 <1>  -0.1600 
 15 C       -4.9280    -1.3650    -0.3120 C.ar  1 <1>   0.1170 
 16 C        1.3920    -5.8230    -0.5890 C.3   1 <1>  -0.1600 
 17 C        1.2500    -5.1660     1.8590 C.3   1 <1>  -0.1600 
 18 C       -5.2550    -2.6730     0.0240 C.ar  1 <1>  -0.1500 
 19 C       -5.9610    -0.4440    -0.4600 C.ar  1 <1>  -0.1500 
 20 C        0.6530    -6.0310     0.7400 C.3   1 <1>  -0.1600 
 21 C       -6.5730    -3.0520     0.2040 C.ar  1 <1>  -0.1500 
 22 C       -7.2820    -0.8180    -0.2830 C.ar  1 <1>  -0.1500 
 23 C       -7.5960    -2.1320     0.0520 C.ar  1 <1>   0.0830 
 24 O       -8.8620    -2.5850     0.2440 O.3   1 <1>  -0.3630 
 25 C       -9.9700    -1.7270     0.0870 C.3   1 <1>   0.0400 
 26 H       -1.0530     0.3250    -2.0420 H     1 <1>   0.0800 
 27 H       -1.1060     0.8370    -0.3630 H     1 <1>   0.0800 
 28 H        3.0120    -3.8060     0.2800 H     1 <1>   0.0800 
 29 H       -2.9220    -1.7300    -0.1060 H     1 <1>   0.3700 
 30 H        4.8100    -2.5420    -0.8580 H     1 <1>   0.0800 
 31 H        4.7080    -2.0890     0.8350 H     1 <1>   0.0800 
 32 H        5.2630    -0.9360    -0.3500 H     1 <1>   0.0800 
 33 H        1.9900    -4.2220    -1.8880 H     1 <1>   0.0800 
 34 H        0.3980    -4.0360    -1.2020 H     1 <1>   0.0800 
 35 H        0.2480    -3.3410     1.3870 H     1 <1>   0.0800 
 36 H        1.7510    -3.1140     2.2410 H     1 <1>   0.0800 
 37 H        2.4030    -6.1800    -0.4940 H     1 <1>   0.0800 
 38 H        0.9120    -6.4000    -1.3610 H     1 <1>   0.0800 
 39 H        0.6740    -5.2950     2.7590 H     1 <1>   0.0800 
 40 H        2.2550    -5.4940     2.0650 H     1 <1>   0.0800 
 41 H       -4.4770    -3.4040     0.1450 H     1 <1>   0.1500 
 42 H       -5.7400     0.5770    -0.7130 H     1 <1>   0.1500 
 43 H        0.7070    -7.0690     1.0220 H     1 <1>   0.0800 
 44 H       -0.3870    -5.7800     0.6130 H     1 <1>   0.0800 
 45 H       -6.8200    -4.0660     0.4630 H     1 <1>   0.1500 
 46 H       -8.0460    -0.0750    -0.4090 H     1 <1>   0.1500 
 47 H      -10.8620    -2.2960     0.2760 H     1 <1>   0.0800 
 48 H       -9.9820    -1.3540    -0.9220 H     1 <1>   0.0800 
 49 H       -9.8920    -0.9220     0.7970 H     1 <1>   0.0800 
@<TRIPOS>BOND
  1   1   2  1   
  2   1   3  1   
  3   2   4  2   
  4   2   5  1   
  5   3   6  1   
  6   3  26  1   
  7   3  27  1   
  8   4   7  1   
  9   5   8  1   
 10   5   9  1   
 11   6  10  2   
 12   6  11  am  
 13   7   8  2   
 14   8  12  1   
 15   9  13  1   
 16   9  14  1   
 17   9  28  1   
 18  11  15  1   
 19  11  29  1   
 20  12  30  1   
 21  12  31  1   
 22  12  32  1   
 23  13  16  1   
 24  13  33  1   
 25  13  34  1   
 26  14  17  1   
 27  14  35  1   
 28  14  36  1   
 29  15  18  ar  
 30  15  19  ar  
 31  16  20  1   
 32  16  37  1   
 33  16  38  1   
 34  17  20  1   
 35  17  39  1   
 36  17  40  1   
 37  18  21  ar  
 38  18  41  1   
 39  19  22  ar  
 40  19  42  1   
 41  20  43  1   
 42  20  44  1   
 43  21  23  ar  
 44  21  45  1   
 45  22  23  ar  
 46  22  46  1   
 47  23  24  1   
 48  24  25  1   
 49  25  47  1   
 50  25  48  1   
 51  25  49  1   
@<TRIPOS>SUBSTRUCTURE
  1 ****   1 GROUP 4 **** **** 0

# MOE 2024.06 (io_trps.svl 2023.06)
