@<TRIPOS>MOLECULE
2-(2-Methoxy-ethyl)-8,8-dimethyl-3-propyl-8,9-dihydro-2H,6H-7-oxa-11-thia-2,4,10
52 55 1 0 0 
SMALL
USER_CHARGES


@<TRIPOS>ATOM
  1 S        0.1280    -0.2410    -0.9240 S.3   1 <1>  -0.0800 
  2 C       -0.7860     1.1960    -0.4460 C.ar  1 <1>   0.2970 
  3 C        1.6080     0.3920    -0.1870 C.2   1 <1>  -0.0450 
  4 N       -2.0670     1.3400    -0.7350 N.ar  1 <1>  -0.5670 
  5 C        0.0390     2.0800     0.2380 C.ar  1 <1>   0.0000 
  6 C        2.8750    -0.2200    -0.1550 C.2   1 <1>   0.7150 
  7 C        1.3870     1.6020     0.3700 C.2   1 <1>   0.1250 
  8 C       -2.5790     2.4800    -0.2990 C.ar  1 <1>   0.1660 
  9 C       -0.5300     3.2620     0.6790 C.ar  1 <1>  -0.1500 
 10 O        3.1010    -1.3120    -0.6600 O.2   1 <1>  -0.5700 
 11 N        3.8770     0.4960     0.4770 N.am  1 <1>  -0.4200 
 12 N        2.4000     2.2760     0.9950 N.2   1 <1>  -0.5750 
 13 C       -1.8680     3.4590     0.4000 C.ar  1 <1>  -0.1430 
 14 C       -4.0510     2.6980    -0.5840 C.3   1 <1>  -0.0170 
 15 C        3.5730     1.7380     1.0340 C.2   1 <1>   0.4490 
 16 C        5.2420    -0.1200     0.5140 C.3   1 <1>   0.1400 
 17 C       -2.5430     4.7500     0.8420 C.3   1 <1>   0.2640 
 18 C       -4.4510     4.1790    -0.4880 C.3   1 <1>   0.2800 
 19 C        4.6490     2.5520     1.7560 C.3   1 <1>  -0.0990 
 20 C        5.9180    -0.0240    -0.8560 C.3   1 <1>   0.1200 
 21 O       -3.9350     4.7030     0.6960 O.3   1 <1>  -0.5600 
 22 C       -5.9690     4.3150    -0.3700 C.3   1 <1>  -0.2400 
 23 C       -3.9620     5.0060    -1.6880 C.3   1 <1>  -0.2400 
 24 C        5.6950     3.2200     0.8400 C.3   1 <1>  -0.1600 
 25 O        7.2830    -0.2230    -0.6760 O.3   1 <1>  -0.5600 
 26 C        5.0540     4.0790    -0.2570 C.3   1 <1>  -0.2400 
 27 C        8.0150    -0.2130    -1.8590 C.3   1 <1>   0.0400 
 28 H        0.0670     3.9810     1.2130 H     1 <1>   0.1500 
 29 H       -4.6150     2.1230     0.1260 H     1 <1>   0.0800 
 30 H       -4.2870     2.3260    -1.5650 H     1 <1>   0.0800 
 31 H        5.1570    -1.1570     0.7900 H     1 <1>   0.0800 
 32 H        5.8610     0.3570     1.2470 H     1 <1>   0.0800 
 33 H       -2.1720     5.5820     0.2700 H     1 <1>   0.0800 
 34 H       -2.3390     4.9350     1.8820 H     1 <1>   0.0800 
 35 H        5.1380     1.9400     2.4910 H     1 <1>   0.0800 
 36 H        4.1580     3.3350     2.3080 H     1 <1>   0.0800 
 37 H        5.7740     0.9510    -1.2870 H     1 <1>   0.0800 
 38 H        5.5390    -0.7850    -1.5180 H     1 <1>   0.0800 
 39 H       -6.3250     3.7900     0.4980 H     1 <1>   0.0800 
 40 H       -6.4510     3.9060    -1.2390 H     1 <1>   0.0800 
 41 H       -6.2430     5.3520    -0.2840 H     1 <1>   0.0800 
 42 H       -2.9100     4.8690    -1.8630 H     1 <1>   0.0800 
 43 H       -4.1650     6.0490    -1.5280 H     1 <1>   0.0800 
 44 H       -4.4770     4.6950    -2.5780 H     1 <1>   0.0800 
 45 H        6.3300     2.4820     0.3870 H     1 <1>   0.0800 
 46 H        6.3260     3.8490     1.4450 H     1 <1>   0.0800 
 47 H        4.4740     3.4730    -0.9310 H     1 <1>   0.0800 
 48 H        5.8190     4.5790    -0.8250 H     1 <1>   0.0800 
 49 H        4.4090     4.8230     0.1770 H     1 <1>   0.0800 
 50 H        9.0500    -0.3710    -1.6140 H     1 <1>   0.0800 
 51 H        7.8980     0.7410    -2.3430 H     1 <1>   0.0800 
 52 H        7.6690    -1.0080    -2.4980 H     1 <1>   0.0800 
@<TRIPOS>BOND
  1   1   2  1   
  2   1   3  1   
  3   2   4  ar  
  4   2   5  ar  
  5   3   6  1   
  6   3   7  2   
  7   4   8  ar  
  8   5   7  1   
  9   5   9  ar  
 10   6  10  2   
 11   6  11  am  
 12   7  12  1   
 13   8  13  ar  
 14   8  14  1   
 15   9  13  ar  
 16   9  28  1   
 17  11  15  1   
 18  11  16  1   
 19  12  15  2   
 20  13  17  1   
 21  14  18  1   
 22  14  29  1   
 23  14  30  1   
 24  15  19  1   
 25  16  20  1   
 26  16  31  1   
 27  16  32  1   
 28  17  21  1   
 29  17  33  1   
 30  17  34  1   
 31  18  21  1   
 32  18  22  1   
 33  18  23  1   
 34  19  24  1   
 35  19  35  1   
 36  19  36  1   
 37  20  25  1   
 38  20  37  1   
 39  20  38  1   
 40  22  39  1   
 41  22  40  1   
 42  22  41  1   
 43  23  42  1   
 44  23  43  1   
 45  23  44  1   
 46  24  26  1   
 47  24  45  1   
 48  24  46  1   
 49  25  27  1   
 50  26  47  1   
 51  26  48  1   
 52  26  49  1   
 53  27  50  1   
 54  27  51  1   
 55  27  52  1   
@<TRIPOS>SUBSTRUCTURE
  1 ****   7 GROUP 4 **** **** 0

# MOE 2024.06 (io_trps.svl 2023.06)
