@<TRIPOS>MOLECULE
[1-(3-Chloro-4-methoxy-benzenesulfonyl)-piperidin-4-yl]-(3,4-dihydro-1H-isoquino
55 58 1 0 0 
SMALL
USER_CHARGES


@<TRIPOS>ATOM
  1 CL       2.9950    -0.4440     2.2750 Cl    1 <1>  -0.1770 
  2 C        2.9000     0.6180     0.8870 C.ar  1 <1>   0.1770 
  3 C        2.6550     0.1030    -0.3800 C.ar  1 <1>   0.0820 
  4 C        3.0840     1.9710     1.0940 C.ar  1 <1>  -0.1500 
  5 O        2.4910    -1.2390    -0.5130 O.3   1 <1>  -0.3630 
  6 C        2.5930     0.9900    -1.4490 C.ar  1 <1>  -0.1500 
  7 C        3.0410     2.8640     0.0290 C.ar  1 <1>  -0.0090 
  8 C        2.1400    -1.8290    -1.7450 C.3   1 <1>   0.0400 
  9 C        2.7850     2.3470    -1.2380 C.ar  1 <1>  -0.1500 
 10 S        3.3560     4.6350     0.2810 S.o2  1 <1>   1.4470 
 11 O        2.8110     5.3630    -0.8440 O.2   1 <1>  -0.6500 
 12 O        2.9710     4.9810     1.6330 O.2   1 <1>  -0.6500 
 13 N        5.0490     4.7480     0.1910 N.am  1 <1>  -0.8490 
 14 C        5.5920     4.4150    -1.1290 C.3   1 <1>   0.1960 
 15 C        5.7480     4.1060     1.3060 C.3   1 <1>   0.1960 
 16 C        7.0810     4.7540    -1.1970 C.3   1 <1>  -0.1600 
 17 C        7.2390     4.4440     1.2720 C.3   1 <1>  -0.1600 
 18 C        7.8710     4.0530    -0.0750 C.3   1 <1>  -0.0190 
 19 C        9.3740     4.3640    -0.1060 C.2   1 <1>   0.5690 
 20 O        9.7310     5.3770    -0.6610 O.2   1 <1>  -0.5700 
 21 N       10.2900     3.5180     0.4710 N.am  1 <1>  -0.6600 
 22 C        9.9940     2.2650     1.2220 C.3   1 <1>   0.2840 
 23 C       11.7510     3.7170     0.2750 C.3   1 <1>   0.1400 
 24 C       10.7310     1.0710     0.6220 C.ar  1 <1>  -0.1430 
 25 C       12.2770     2.6260    -0.6600 C.3   1 <1>  -0.0170 
 26 C       11.8070     1.2360    -0.2460 C.ar  1 <1>  -0.1430 
 27 C       10.3210    -0.2100     0.9640 C.ar  1 <1>  -0.1500 
 28 C       12.4550     0.1220    -0.7580 C.ar  1 <1>  -0.1500 
 29 C       10.9730    -1.3170     0.4510 C.ar  1 <1>  -0.1500 
 30 C       12.0410    -1.1510    -0.4110 C.ar  1 <1>  -0.1500 
 31 H        3.2600     2.3290     2.0930 H     1 <1>   0.1500 
 32 H        2.3970     0.6460    -2.4480 H     1 <1>   0.1500 
 33 H        2.0280    -2.8860    -1.5880 H     1 <1>   0.0800 
 34 H        2.9260    -1.6480    -2.4570 H     1 <1>   0.0800 
 35 H        1.2080    -1.4100    -2.0820 H     1 <1>   0.0800 
 36 H        2.7320     3.0210    -2.0780 H     1 <1>   0.1500 
 37 H        5.0760     4.9830    -1.8870 H     1 <1>   0.0800 
 38 H        5.4500     3.3670    -1.3330 H     1 <1>   0.0800 
 39 H        5.6200     3.0380     1.2550 H     1 <1>   0.0800 
 40 H        5.3370     4.4550     2.2400 H     1 <1>   0.0800 
 41 H        7.1950     5.8220    -1.1160 H     1 <1>   0.0800 
 42 H        7.4730     4.4580    -2.1540 H     1 <1>   0.0800 
 43 H        7.7340     3.9360     2.0790 H     1 <1>   0.0800 
 44 H        7.3600     5.5020     1.4330 H     1 <1>   0.0800 
 45 H        7.7490     2.9980    -0.2320 H     1 <1>   0.0800 
 46 H        8.9430     2.0560     1.2400 H     1 <1>   0.0800 
 47 H       10.3190     2.3920     2.2400 H     1 <1>   0.0800 
 48 H       12.2480     3.6500     1.2270 H     1 <1>   0.0800 
 49 H       11.9600     4.6880    -0.1420 H     1 <1>   0.0800 
 50 H       13.3510     2.6630    -0.6700 H     1 <1>   0.0800 
 51 H       11.9300     2.8300    -1.6580 H     1 <1>   0.0800 
 52 H        9.4940    -0.3560     1.6360 H     1 <1>   0.1500 
 53 H       13.2850     0.2420    -1.4320 H     1 <1>   0.1500 
 54 H       10.6490    -2.3070     0.7210 H     1 <1>   0.1500 
 55 H       12.5490    -2.0100    -0.8120 H     1 <1>   0.1500 
@<TRIPOS>BOND
  1   1   2  1   
  2   2   3  ar  
  3   2   4  ar  
  4   3   5  1   
  5   3   6  ar  
  6   4   7  ar  
  7   4  31  1   
  8   5   8  1   
  9   6   9  ar  
 10   6  32  1   
 11   7   9  ar  
 12   7  10  1   
 13   8  33  1   
 14   8  34  1   
 15   8  35  1   
 16   9  36  1   
 17  10  11  2   
 18  10  12  2   
 19  10  13  am  
 20  13  14  1   
 21  13  15  1   
 22  14  16  1   
 23  14  37  1   
 24  14  38  1   
 25  15  17  1   
 26  15  39  1   
 27  15  40  1   
 28  16  18  1   
 29  16  41  1   
 30  16  42  1   
 31  17  18  1   
 32  17  43  1   
 33  17  44  1   
 34  18  19  1   
 35  18  45  1   
 36  19  20  2   
 37  19  21  am  
 38  21  22  1   
 39  21  23  1   
 40  22  24  1   
 41  22  46  1   
 42  22  47  1   
 43  23  25  1   
 44  23  48  1   
 45  23  49  1   
 46  24  26  ar  
 47  24  27  ar  
 48  25  26  1   
 49  25  50  1   
 50  25  51  1   
 51  26  28  ar  
 52  27  29  ar  
 53  27  52  1   
 54  28  30  ar  
 55  28  53  1   
 56  29  30  ar  
 57  29  54  1   
 58  30  55  1   
@<TRIPOS>SUBSTRUCTURE
  1 ****  18 GROUP 4 **** **** 0

# MOE 2024.06 (io_trps.svl 2023.06)
