@<TRIPOS>MOLECULE
N-[4-(2-Ethyl-piperidine-1-sulfonyl)-phenyl]-2-thiophen-2-yl-acetamide
50 52 1 0 0 
SMALL
USER_CHARGES


@<TRIPOS>ATOM
  1 S       -0.6990     0.7740    -0.6210 S.o2  1 <1>   1.4470 
  2 O       -1.1660     2.1090    -0.3100 O.2   1 <1>  -0.6500 
  3 O       -0.2240     0.5100    -1.9630 O.2   1 <1>  -0.6500 
  4 N        0.5150     0.3770     0.5090 N.am  1 <1>  -0.8490 
  5 C       -2.0520    -0.3690    -0.2210 C.ar  1 <1>  -0.0090 
  6 C        1.4250    -0.7490     0.2260 C.3   1 <1>   0.2760 
  7 C        1.2580     1.5350     1.0180 C.3   1 <1>   0.1960 
  8 C       -2.6830    -1.1180    -1.2080 C.ar  1 <1>  -0.1500 
  9 C       -2.4970    -0.5230     1.0860 C.ar  1 <1>  -0.1500 
 10 C        2.5220    -0.3640    -0.7890 C.3   1 <1>  -0.1600 
 11 C        0.6680    -2.0380    -0.1460 C.3   1 <1>  -0.1600 
 12 C        2.2830     2.0250    -0.0120 C.3   1 <1>  -0.1600 
 13 C       -3.7060    -1.9960    -0.8980 C.ar  1 <1>  -0.1500 
 14 C       -3.5200    -1.3990     1.4000 C.ar  1 <1>  -0.1500 
 15 C        3.2700     0.9110    -0.3760 C.3   1 <1>  -0.1600 
 16 C        1.5480    -3.2970    -0.1070 C.3   1 <1>  -0.2400 
 17 C       -4.1390    -2.1550     0.4110 C.ar  1 <1>   0.1170 
 18 N       -5.1810    -3.0550     0.6690 N.am  1 <1>  -0.5470 
 19 C       -5.5810    -3.6880     1.8150 C.2   1 <1>   0.5690 
 20 O       -5.0320    -3.5490     2.8810 O.2   1 <1>  -0.5700 
 21 C       -6.7830    -4.6190     1.7530 C.3   1 <1>   0.0810 
 22 C       -7.3460    -4.7970     0.3470 C.2   1 <1>  -0.1400 
 23 S       -6.4150    -5.7660    -0.7860 S.3   1 <1>  -0.0800 
 24 C       -8.4680    -4.3380    -0.2380 C.2   1 <1>  -0.1500 
 25 C       -7.6020    -5.5070    -2.0510 C.2   1 <1>  -0.1100 
 26 C       -8.6130    -4.7410    -1.6030 C.2   1 <1>  -0.1500 
 27 H        1.9320    -0.9630     1.1530 H     1 <1>   0.0800 
 28 H        1.7750     1.2480     1.9190 H     1 <1>   0.0800 
 29 H        0.5860     2.3340     1.2840 H     1 <1>   0.0800 
 30 H       -2.3630    -1.0140    -2.2320 H     1 <1>   0.1500 
 31 H       -2.0310     0.0510     1.8690 H     1 <1>   0.1500 
 32 H        2.0960    -0.2350    -1.7670 H     1 <1>   0.0800 
 33 H        3.2370    -1.1620    -0.8650 H     1 <1>   0.0800 
 34 H        0.2480    -1.9520    -1.1310 H     1 <1>   0.0800 
 35 H       -0.1300    -2.1830     0.5610 H     1 <1>   0.0800 
 36 H        2.8210     2.8620     0.3950 H     1 <1>   0.0800 
 37 H        1.7710     2.3690    -0.8950 H     1 <1>   0.0800 
 38 H       -4.1690    -2.5640    -1.6850 H     1 <1>   0.1500 
 39 H       -3.8370    -1.4890     2.4240 H     1 <1>   0.1500 
 40 H        3.9110     1.2350    -1.1780 H     1 <1>   0.0800 
 41 H        3.8890     0.6960     0.4780 H     1 <1>   0.0800 
 42 H        2.3050    -3.2640    -0.8700 H     1 <1>   0.0800 
 43 H        0.9400    -4.1680    -0.2800 H     1 <1>   0.0800 
 44 H        2.0210    -3.3990     0.8540 H     1 <1>   0.0800 
 45 H       -5.7070    -3.3480    -0.1570 H     1 <1>   0.3700 
 46 H       -7.5460    -4.2140     2.3910 H     1 <1>   0.0800 
 47 H       -6.4990    -5.5760     2.1480 H     1 <1>   0.0800 
 48 H       -9.2160    -3.7220     0.2330 H     1 <1>   0.1500 
 49 H       -7.4160    -5.9650    -3.0070 H     1 <1>   0.1500 
 50 H       -9.4690    -4.4370    -2.1810 H     1 <1>   0.1500 
@<TRIPOS>BOND
  1   1   2  2   
  2   1   3  2   
  3   1   4  am  
  4   1   5  1   
  5   4   6  1   
  6   4   7  1   
  7   5   8  ar  
  8   5   9  ar  
  9   6  10  1   
 10   6  11  1   
 11   6  27  1   
 12   7  12  1   
 13   7  28  1   
 14   7  29  1   
 15   8  13  ar  
 16   8  30  1   
 17   9  14  ar  
 18   9  31  1   
 19  10  15  1   
 20  10  32  1   
 21  10  33  1   
 22  11  16  1   
 23  11  34  1   
 24  11  35  1   
 25  12  15  1   
 26  12  36  1   
 27  12  37  1   
 28  13  17  ar  
 29  13  38  1   
 30  14  17  ar  
 31  14  39  1   
 32  15  40  1   
 33  15  41  1   
 34  16  42  1   
 35  16  43  1   
 36  16  44  1   
 37  17  18  1   
 38  18  19  am  
 39  18  45  1   
 40  19  20  2   
 41  19  21  1   
 42  21  22  1   
 43  21  46  1   
 44  21  47  1   
 45  22  23  1   
 46  22  24  2   
 47  23  25  1   
 48  24  26  1   
 49  24  48  1   
 50  25  26  2   
 51  25  49  1   
 52  26  50  1   
@<TRIPOS>SUBSTRUCTURE
  1 ****   8 GROUP 4 **** **** 0

# MOE 2024.06 (io_trps.svl 2023.06)
