@<TRIPOS>MOLECULE
2-Morpholin-4-yl-N-(4-trifluoromethoxy-phenyl)-acetamide
36 37 1 0 0 
SMALL
USER_CHARGES


@<TRIPOS>ATOM
  1 F        0.3890     0.2230    -0.2800 F     1 <1>  -0.3400 
  2 C        1.6720     0.5530    -0.2970 C.3   1 <1>   1.3000 
  3 F        2.0130     0.7820    -1.5600 F     1 <1>  -0.3400 
  4 F        1.8080     1.6840     0.3840 F     1 <1>  -0.3400 
  5 O        2.4450    -0.4870     0.2660 O.3   1 <1>  -0.3630 
  6 C        3.7860    -0.3130     0.2920 C.ar  1 <1>   0.0830 
  7 C        4.5620    -0.7820    -0.7560 C.ar  1 <1>  -0.1500 
  8 C        4.3840     0.3140     1.3730 C.ar  1 <1>  -0.1500 
  9 C        5.9340    -0.6100    -0.7240 C.ar  1 <1>  -0.1500 
 10 C        5.7570     0.4820     1.3960 C.ar  1 <1>  -0.1500 
 11 C        6.5530     0.0220     0.3500 C.ar  1 <1>   0.1170 
 12 N        7.9480     0.1800     0.3260 N.am  1 <1>  -0.5470 
 13 C        8.8520     0.3560     1.3430 C.2   1 <1>   0.5690 
 14 O        8.5410     0.3570     2.5100 O.2   1 <1>  -0.5700 
 15 C       10.3390     0.4860     0.9780 C.3   1 <1>   0.1710 
 16 N       10.7910     1.8230     0.4950 N.3   1 <1>  -0.8100 
 17 C       10.1510     2.2600    -0.7640 C.3   1 <1>   0.1100 
 18 C       12.2600     1.8580     0.3540 C.3   1 <1>   0.1100 
 19 C       10.7130     3.6140    -1.2350 C.3   1 <1>   0.1200 
 20 C       12.7430     3.2260    -0.1580 C.3   1 <1>   0.1200 
 21 O       12.1040     3.5500    -1.3590 O.3   1 <1>  -0.5600 
 22 H        4.0940    -1.2790    -1.5870 H     1 <1>   0.1500 
 23 H        3.7840     0.6670     2.1930 H     1 <1>   0.1500 
 24 H        6.5280    -0.9780    -1.5400 H     1 <1>   0.1500 
 25 H        6.2080     0.9780     2.2370 H     1 <1>   0.1500 
 26 H        8.3620     0.1360    -0.6020 H     1 <1>   0.3700 
 27 H       10.5770    -0.2590     0.2400 H     1 <1>   0.0800 
 28 H       10.8950     0.2450     1.8660 H     1 <1>   0.0800 
 29 H        9.0920     2.3740    -0.6100 H     1 <1>   0.0800 
 30 H       10.3140     1.5300    -1.5370 H     1 <1>   0.0800 
 31 H       12.5840     1.0970    -0.3350 H     1 <1>   0.0800 
 32 H       12.7150     1.6640     1.3100 H     1 <1>   0.0800 
 33 H       10.4630     4.3900    -0.5320 H     1 <1>   0.0800 
 34 H       10.3080     3.8730    -2.1970 H     1 <1>   0.0800 
 35 H       13.8020     3.2040    -0.3450 H     1 <1>   0.0800 
 36 H       12.5330     3.9950     0.5650 H     1 <1>   0.0800 
@<TRIPOS>BOND
  1   1   2  1   
  2   2   3  1   
  3   2   4  1   
  4   2   5  1   
  5   5   6  1   
  6   6   7  ar  
  7   6   8  ar  
  8   7   9  ar  
  9   7  22  1   
 10   8  10  ar  
 11   8  23  1   
 12   9  11  ar  
 13   9  24  1   
 14  10  11  ar  
 15  10  25  1   
 16  11  12  1   
 17  12  13  am  
 18  12  26  1   
 19  13  14  2   
 20  13  15  1   
 21  15  16  1   
 22  15  27  1   
 23  15  28  1   
 24  16  17  1   
 25  16  18  1   
 26  17  19  1   
 27  17  29  1   
 28  17  30  1   
 29  18  20  1   
 30  18  31  1   
 31  18  32  1   
 32  19  21  1   
 33  19  33  1   
 34  19  34  1   
 35  20  21  1   
 36  20  35  1   
 37  20  36  1   
@<TRIPOS>SUBSTRUCTURE
  1 ****  11 GROUP 4 **** **** 0

# MOE 2024.06 (io_trps.svl 2023.06)
