@<TRIPOS>MOLECULE
(2-Chloro-phenyl)-[4-(piperidine-1-sulfonyl)-piperazin-1-yl]-methanone
46 48 1 0 0 
SMALL
USER_CHARGES


@<TRIPOS>ATOM
  1 CL      -1.0500    -0.9520    -2.1140 Cl    1 <1>  -0.1770 
  2 C       -2.0880    -0.1860    -0.9350 C.ar  1 <1>   0.1770 
  3 C       -1.9020     1.1520    -0.5940 C.ar  1 <1>   0.0860 
  4 C       -3.0850    -0.9560    -0.3650 C.ar  1 <1>  -0.1500 
  5 C       -0.8540     1.9620    -1.1740 C.2   1 <1>   0.5440 
  6 C       -2.7800     1.6980     0.3420 C.ar  1 <1>  -0.1500 
  7 C       -3.9350    -0.3930     0.5700 C.ar  1 <1>  -0.1500 
  8 O       -1.1640     2.9080    -1.8720 O.2   1 <1>  -0.5700 
  9 N        0.4810     1.7210    -0.9280 N.am  1 <1>  -0.6600 
 10 C       -3.7820     0.9380     0.9200 C.ar  1 <1>  -0.1500 
 11 C        0.9970     0.7300     0.0660 C.3   1 <1>   0.1400 
 12 C        1.5680     2.4850    -1.6160 C.3   1 <1>   0.1400 
 13 C        2.0100     1.3810     1.0250 C.3   1 <1>   0.1960 
 14 C        2.5500     3.0830    -0.5960 C.3   1 <1>   0.1960 
 15 N        3.0990     2.0480     0.2990 N.am  1 <1>  -0.8490 
 16 S        4.2210     2.6960     1.3770 S.o2  1 <1>   1.5760 
 17 O        4.6980     1.6370     2.2370 O.2   1 <1>  -0.6500 
 18 O        3.6510     3.8990     1.9420 O.2   1 <1>  -0.6500 
 19 N        5.4570     3.1140     0.3090 N.am  1 <1>  -0.8490 
 20 C        6.4240     4.0010     0.9560 C.3   1 <1>   0.1960 
 21 C        6.1180     1.9240    -0.2370 C.3   1 <1>   0.1960 
 22 C        7.4640     4.4840    -0.0600 C.3   1 <1>  -0.1600 
 23 C        7.1400     2.3310    -1.3040 C.3   1 <1>  -0.1600 
 24 C        8.1770     3.3070    -0.7370 C.3   1 <1>  -0.1600 
 25 H       -3.1950    -1.9870    -0.6540 H     1 <1>   0.1500 
 26 H       -2.6710     2.7360     0.6100 H     1 <1>   0.1500 
 27 H       -4.7150    -0.9840     1.0190 H     1 <1>   0.1500 
 28 H       -4.4480     1.3830     1.6410 H     1 <1>   0.1500 
 29 H        1.4790    -0.0740    -0.4610 H     1 <1>   0.0800 
 30 H        0.1920     0.3140     0.6440 H     1 <1>   0.0800 
 31 H        1.1570     3.2790    -2.2150 H     1 <1>   0.0800 
 32 H        2.1020     1.8210    -2.2730 H     1 <1>   0.0800 
 33 H        2.4200     0.6150     1.6600 H     1 <1>   0.0800 
 34 H        1.4980     2.0930     1.6520 H     1 <1>   0.0800 
 35 H        2.0400     3.8410    -0.0250 H     1 <1>   0.0800 
 36 H        3.3520     3.5600    -1.1330 H     1 <1>   0.0800 
 37 H        6.9100     3.4830     1.7670 H     1 <1>   0.0800 
 38 H        5.9130     4.8590     1.3620 H     1 <1>   0.0800 
 39 H        5.3850     1.2740    -0.6850 H     1 <1>   0.0800 
 40 H        6.6110     1.3800     0.5520 H     1 <1>   0.0800 
 41 H        8.1860     5.1070     0.4370 H     1 <1>   0.0800 
 42 H        6.9670     5.0830    -0.8030 H     1 <1>   0.0800 
 43 H        6.6170     2.7890    -2.1260 H     1 <1>   0.0800 
 44 H        7.6350     1.4520    -1.6770 H     1 <1>   0.0800 
 45 H        8.7900     2.7960    -0.0140 H     1 <1>   0.0800 
 46 H        8.8160     3.6660    -1.5250 H     1 <1>   0.0800 
@<TRIPOS>BOND
  1   1   2  1   
  2   2   3  ar  
  3   2   4  ar  
  4   3   5  1   
  5   3   6  ar  
  6   4   7  ar  
  7   4  25  1   
  8   5   8  2   
  9   5   9  am  
 10   6  10  ar  
 11   6  26  1   
 12   7  10  ar  
 13   7  27  1   
 14   9  11  1   
 15   9  12  1   
 16  10  28  1   
 17  11  13  1   
 18  11  29  1   
 19  11  30  1   
 20  12  14  1   
 21  12  31  1   
 22  12  32  1   
 23  13  15  1   
 24  13  33  1   
 25  13  34  1   
 26  14  15  1   
 27  14  35  1   
 28  14  36  1   
 29  15  16  am  
 30  16  17  2   
 31  16  18  2   
 32  16  19  am  
 33  19  20  1   
 34  19  21  1   
 35  20  22  1   
 36  20  37  1   
 37  20  38  1   
 38  21  23  1   
 39  21  39  1   
 40  21  40  1   
 41  22  24  1   
 42  22  41  1   
 43  22  42  1   
 44  23  24  1   
 45  23  43  1   
 46  23  44  1   
 47  24  45  1   
 48  24  46  1   
@<TRIPOS>SUBSTRUCTURE
  1 ****  13 GROUP 4 **** **** 0

# MOE 2024.06 (io_trps.svl 2023.06)
