@<TRIPOS>MOLECULE
[5-(2,4-Dichloro-phenyl)-isoxazol-3-yl]-(4-ethyl-piperazin-1-yl)-methanone
41 43 1 0 0 
SMALL
USER_CHARGES


@<TRIPOS>ATOM
  1 CL       0.6340     0.0270     0.1740 Cl    1 <1>  -0.1770 
  2 C       -0.1280     1.6000     0.2120 C.ar  1 <1>   0.1770 
  3 C        0.6370     2.7610     0.0610 C.ar  1 <1>   0.0530 
  4 C       -1.4940     1.6380     0.4140 C.ar  1 <1>  -0.1500 
  5 C        2.0610     2.7370    -0.1610 C.2   1 <1>   0.0870 
  6 C       -0.0340     3.9830     0.1350 C.ar  1 <1>  -0.1500 
  7 C       -2.1200     2.8670     0.4760 C.ar  1 <1>   0.1770 
  8 O        2.5750     1.9890    -1.1230 O.3   1 <1>  -0.0190 
  9 C        3.0420     3.4050     0.4680 C.2   1 <1>  -0.1500 
 10 C       -1.4020     4.0410     0.3400 C.ar  1 <1>  -0.1500 
 11 CL      -3.8430     2.9410     0.7320 Cl    1 <1>  -0.1770 
 12 N        3.8720     2.1710    -1.1130 N.2   1 <1>  -0.4100 
 13 C        4.2020     3.0070    -0.1720 C.2   1 <1>   0.2030 
 14 C        5.5390     3.4790     0.1710 C.2   1 <1>   0.7160 
 15 O        5.6620     4.4060     0.9510 O.2   1 <1>  -0.5700 
 16 N        6.7090     2.9250    -0.3310 N.am  1 <1>  -0.6600 
 17 C        7.9810     3.7130    -0.3720 C.3   1 <1>   0.1400 
 18 C        6.8350     1.5010    -0.7760 C.3   1 <1>   0.1400 
 19 C        9.1140     2.9740     0.3610 C.3   1 <1>   0.3430 
 20 C        8.0140     0.7940    -0.0750 C.3   1 <1>   0.3430 
 21 N        9.3000     1.5720    -0.1660 N.4   1 <1>  -0.9590 
 22 C       10.3970     0.8510     0.5330 C.3   1 <1>   0.3430 
 23 C       11.7430     1.4260     0.1090 C.3   1 <1>  -0.2400 
 24 H       -2.0590     0.7310     0.5250 H     1 <1>   0.1500 
 25 H        0.5230     4.8990     0.0250 H     1 <1>   0.1500 
 26 H        2.9800     4.0990     1.2870 H     1 <1>   0.1500 
 27 H       -1.9140     4.9860     0.3940 H     1 <1>   0.1500 
 28 H        7.8470     4.6810     0.0800 H     1 <1>   0.0800 
 29 H        8.2610     3.8770    -1.3970 H     1 <1>   0.0800 
 30 H        6.9670     1.4710    -1.8440 H     1 <1>   0.0800 
 31 H        5.9420     0.9490    -0.5410 H     1 <1>   0.0800 
 32 H        8.8750     2.9400     1.4120 H     1 <1>   0.0800 
 33 H       10.0250     3.5360     0.2470 H     1 <1>   0.0800 
 34 H        8.1440    -0.1820    -0.5130 H     1 <1>   0.0800 
 35 H        7.7530     0.6550     0.9610 H     1 <1>   0.0800 
 36 H        9.5530     1.6420    -1.1610 H     1 <1>   0.4500 
 37 H       10.3690    -0.1950     0.2690 H     1 <1>   0.0800 
 38 H       10.2770     0.9320     1.6020 H     1 <1>   0.0800 
 39 H       11.8680     1.3690    -0.9570 H     1 <1>   0.0800 
 40 H       12.5290     0.8480     0.5640 H     1 <1>   0.0800 
 41 H       11.8600     2.4430     0.4370 H     1 <1>   0.0800 
@<TRIPOS>BOND
  1   1   2  1   
  2   2   3  ar  
  3   2   4  ar  
  4   3   5  1   
  5   3   6  ar  
  6   4   7  ar  
  7   4  24  1   
  8   5   8  1   
  9   5   9  2   
 10   6  10  ar  
 11   6  25  1   
 12   7  10  ar  
 13   7  11  1   
 14   8  12  1   
 15   9  13  1   
 16   9  26  1   
 17  10  27  1   
 18  12  13  2   
 19  13  14  1   
 20  14  15  2   
 21  14  16  am  
 22  16  17  1   
 23  16  18  1   
 24  17  19  1   
 25  17  28  1   
 26  17  29  1   
 27  18  20  1   
 28  18  30  1   
 29  18  31  1   
 30  19  21  1   
 31  19  32  1   
 32  19  33  1   
 33  20  21  1   
 34  20  34  1   
 35  20  35  1   
 36  21  22  1   
 37  21  36  1   
 38  22  23  1   
 39  22  37  1   
 40  22  38  1   
 41  23  39  1   
 42  23  40  1   
 43  23  41  1   
@<TRIPOS>SUBSTRUCTURE
  1 ****  13 GROUP 4 **** **** 0

# MOE 2024.06 (io_trps.svl 2023.06)
