@<TRIPOS>MOLECULE
N-Ethyl-4-[3-(3-methoxy-phenyl)-[1,2,4]oxadiazol-5-yl]-butyramide
40 41 1 0 0 
SMALL
USER_CHARGES


@<TRIPOS>ATOM
  1 O       -1.3380    -0.6270     1.6250 O.2   1 <1>  -0.5700 
  2 C       -1.4490    -1.6600     1.0140 C.2   1 <1>   0.5690 
  3 N       -0.6150    -2.6870     1.2960 N.am  1 <1>  -0.7300 
  4 C       -2.5100    -1.7980    -0.0700 C.3   1 <1>  -0.0990 
  5 C       -0.5230    -4.0230     0.6750 C.3   1 <1>   0.1400 
  6 C       -3.5620    -0.6690    -0.0710 C.3   1 <1>  -0.1600 
  7 C        0.9330    -4.2850     0.3110 C.3   1 <1>  -0.2400 
  8 C       -4.5570    -0.7560    -1.2420 C.3   1 <1>   0.0200 
  9 C       -5.3510    -2.0500    -1.2590 C.2   1 <1>   0.2980 
 10 O       -4.8250    -3.1060    -1.8240 O.3   1 <1>  -0.0190 
 11 N       -6.5080    -2.2140    -0.7700 N.2   1 <1>  -0.5650 
 12 N       -5.7240    -4.0260    -1.6710 N.2   1 <1>  -0.4100 
 13 C       -6.7240    -3.5040    -1.0510 C.2   1 <1>   0.4620 
 14 C       -7.9490    -4.1960    -0.6840 C.ar  1 <1>   0.0540 
 15 C       -8.9790    -3.5520     0.0020 C.ar  1 <1>  -0.1500 
 16 C       -8.1440    -5.5410    -1.0060 C.ar  1 <1>  -0.1500 
 17 C      -10.1470    -4.2060     0.3540 C.ar  1 <1>   0.0820 
 18 C       -9.3050    -6.2080    -0.6610 C.ar  1 <1>  -0.1500 
 19 O      -11.0790    -3.4780     1.0190 O.3   1 <1>  -0.3630 
 20 C      -10.3110    -5.5460     0.0190 C.ar  1 <1>  -0.1500 
 21 C      -12.3040    -4.0460     1.4230 C.3   1 <1>   0.0400 
 22 H        0.0570    -2.5000     2.0420 H     1 <1>   0.3700 
 23 H       -3.0080    -2.7380     0.0790 H     1 <1>   0.0800 
 24 H       -2.0090    -1.8240    -1.0200 H     1 <1>   0.0800 
 25 H       -1.1330    -4.0760    -0.2100 H     1 <1>   0.0800 
 26 H       -0.8690    -4.7650     1.3760 H     1 <1>   0.0800 
 27 H       -3.0590     0.2820    -0.1220 H     1 <1>   0.0800 
 28 H       -4.1060    -0.6960     0.8590 H     1 <1>   0.0800 
 29 H        1.2820    -3.5430    -0.3850 H     1 <1>   0.0800 
 30 H        1.0220    -5.2530    -0.1490 H     1 <1>   0.0800 
 31 H        1.5500    -4.2700     1.1920 H     1 <1>   0.0800 
 32 H       -4.0350    -0.6530    -2.1760 H     1 <1>   0.0800 
 33 H       -5.2500     0.0630    -1.1650 H     1 <1>   0.0800 
 34 H       -8.8750    -2.5170     0.2720 H     1 <1>   0.1500 
 35 H       -7.3730    -6.0730    -1.5350 H     1 <1>   0.1500 
 36 H       -9.4260    -7.2450    -0.9230 H     1 <1>   0.1500 
 37 H      -11.2030    -6.0840     0.2760 H     1 <1>   0.1500 
 38 H      -12.8740    -3.2860     1.9260 H     1 <1>   0.0800 
 39 H      -12.1070    -4.8600     2.0960 H     1 <1>   0.0800 
 40 H      -12.8360    -4.3840     0.5510 H     1 <1>   0.0800 
@<TRIPOS>BOND
  1   1   2  2   
  2   2   3  am  
  3   2   4  1   
  4   3   5  1   
  5   3  22  1   
  6   4   6  1   
  7   4  23  1   
  8   4  24  1   
  9   5   7  1   
 10   5  25  1   
 11   5  26  1   
 12   6   8  1   
 13   6  27  1   
 14   6  28  1   
 15   7  29  1   
 16   7  30  1   
 17   7  31  1   
 18   8   9  1   
 19   8  32  1   
 20   8  33  1   
 21   9  10  1   
 22   9  11  2   
 23  10  12  1   
 24  11  13  1   
 25  12  13  2   
 26  13  14  1   
 27  14  15  ar  
 28  14  16  ar  
 29  15  17  ar  
 30  15  34  1   
 31  16  18  ar  
 32  16  35  1   
 33  17  19  1   
 34  17  20  ar  
 35  18  20  ar  
 36  18  36  1   
 37  19  21  1   
 38  20  37  1   
 39  21  38  1   
 40  21  39  1   
 41  21  40  1   
@<TRIPOS>SUBSTRUCTURE
  1 ****  13 GROUP 4 **** **** 0

# MOE 2024.06 (io_trps.svl 2023.06)
