@<TRIPOS>MOLECULE
1,3-Dimethyl-8-(2-methyl-piperidin-1-ylmethyl)-7-(2-morpholin-4-yl-ethyl)-3,7-di
62 65 1 0 0 
SMALL
USER_CHARGES


@<TRIPOS>ATOM
  1 O        0.7780     0.2760     0.2380 O.2   1 <1>  -0.5700 
  2 C        1.7740     0.9640     0.3260 C.2   1 <1>   0.6900 
  3 N        1.6640     2.3510     0.2930 N.am  1 <1>  -0.4200 
  4 N        3.0190     0.3660     0.4580 N.am  1 <1>  -0.4360 
  5 C        2.7870     3.1640     0.3740 C.2   1 <1>   0.7030 
  6 C        0.3050     2.9590     0.1400 C.3   1 <1>   0.0600 
  7 C        4.1250     1.1860     0.5720 C.2   1 <1>   0.4260 
  8 C        3.1640    -1.1190     0.5040 C.3   1 <1>   0.0600 
  9 O        2.6870     4.3780     0.3010 O.2   1 <1>  -0.5700 
 10 C        4.0690     2.5390     0.5370 C.2   1 <1>   0.2770 
 11 N        5.4210     0.8240     0.7290 N.pl3 1 <1>  -0.7000 
 12 N        5.3840     2.9990     0.6770 N.pl3 1 <1>  -0.7640 
 13 C        6.1600     1.9240     0.7890 C.cat 1 <1>   0.6560 
 14 C        5.7700     4.4410     0.7030 C.3   1 <1>   0.3540 
 15 C        7.6860     1.8580     0.9600 C.3   1 <1>   0.2540 
 16 C        5.8490     5.0160    -0.7190 C.3   1 <1>   0.1100 
 17 N        8.2070     0.5040     0.6010 N.3   1 <1>  -0.8100 
 18 N        6.5050     6.3330    -0.7200 N.3   1 <1>  -0.8100 
 19 C        9.4900     0.1380     1.2510 C.3   1 <1>   0.1900 
 20 C        8.3190     0.4020    -0.8720 C.3   1 <1>   0.1100 
 21 C        5.6000     7.4050    -0.2360 C.3   1 <1>   0.1100 
 22 C        6.9750     6.6880    -2.0780 C.3   1 <1>   0.1100 
 23 C        9.8710    -1.3010     0.8610 C.3   1 <1>  -0.1600 
 24 C        9.3860     0.2000     2.7800 C.3   1 <1>  -0.2400 
 25 C        8.6360    -1.0320    -1.2930 C.3   1 <1>  -0.1600 
 26 C        6.2740     8.7870    -0.3190 C.3   1 <1>   0.1200 
 27 C        7.6100     8.0910    -2.1040 C.3   1 <1>   0.1200 
 28 C        9.9440    -1.4990    -0.6550 C.3   1 <1>  -0.1600 
 29 O        6.7070     9.0430    -1.6230 O.3   1 <1>  -0.5600 
 30 H       -0.4040     2.4370     0.7600 H     1 <1>   0.0800 
 31 H       -0.0110     2.8820    -0.8860 H     1 <1>   0.0800 
 32 H        0.3050     3.9960     0.4290 H     1 <1>   0.0800 
 33 H        2.2820    -1.6030     0.1190 H     1 <1>   0.0800 
 34 H        3.3130    -1.4380     1.5210 H     1 <1>   0.0800 
 35 H        4.0020    -1.4300    -0.0940 H     1 <1>   0.0800 
 36 H        5.8530    -0.1050     0.7820 H     1 <1>   0.4500 
 37 H        6.7330     4.5490     1.1730 H     1 <1>   0.0800 
 38 H        5.0500     4.9960     1.2800 H     1 <1>   0.0800 
 39 H        7.8820     2.0890     1.9880 H     1 <1>   0.0800 
 40 H        8.1610     2.6110     0.3570 H     1 <1>   0.0800 
 41 H        4.8640     5.0940    -1.1480 H     1 <1>   0.0800 
 42 H        6.4320     4.3410    -1.3210 H     1 <1>   0.0800 
 43 H       10.2700     0.8070     0.9200 H     1 <1>   0.0800 
 44 H        9.0990     1.0580    -1.2260 H     1 <1>   0.0800 
 45 H        7.3950     0.6960    -1.3400 H     1 <1>   0.0800 
 46 H        5.3240     7.2210     0.7870 H     1 <1>   0.0800 
 47 H        4.7000     7.4260    -0.8280 H     1 <1>   0.0800 
 48 H        6.1520     6.6700    -2.7720 H     1 <1>   0.0800 
 49 H        7.7080     5.9720    -2.4050 H     1 <1>   0.0800 
 50 H        9.1470    -1.9820     1.2740 H     1 <1>   0.0800 
 51 H       10.8270    -1.5480     1.2880 H     1 <1>   0.0800 
 52 H        8.5040    -0.3120     3.1210 H     1 <1>   0.0800 
 53 H        9.3880     1.2110     3.1390 H     1 <1>   0.0800 
 54 H       10.2420    -0.2790     3.2220 H     1 <1>   0.0800 
 55 H        8.7220    -1.0820    -2.3640 H     1 <1>   0.0800 
 56 H        7.8300    -1.6790    -0.9950 H     1 <1>   0.0800 
 57 H        7.1220     8.8370     0.3420 H     1 <1>   0.0800 
 58 H        5.5760     9.5600    -0.0480 H     1 <1>   0.0800 
 59 H        7.8700     8.3650    -3.1100 H     1 <1>   0.0800 
 60 H        8.4970     8.1170    -1.4950 H     1 <1>   0.0800 
 61 H       10.1160    -2.5380    -0.8830 H     1 <1>   0.0800 
 62 H       10.7650    -0.9280    -1.0530 H     1 <1>   0.0800 
@<TRIPOS>BOND
  1   1   2  2   
  2   2   3  am  
  3   2   4  am  
  4   3   5  am  
  5   3   6  1   
  6   4   7  1   
  7   4   8  1   
  8   5   9  2   
  9   5  10  1   
 10   6  30  1   
 11   6  31  1   
 12   6  32  1   
 13   7  10  2   
 14   7  11  1   
 15   8  33  1   
 16   8  34  1   
 17   8  35  1   
 18  10  12  1   
 19  11  13  ar  
 20  11  36  1   
 21  12  13  ar  
 22  12  14  1   
 23  13  15  1   
 24  14  16  1   
 25  14  37  1   
 26  14  38  1   
 27  15  17  1   
 28  15  39  1   
 29  15  40  1   
 30  16  18  1   
 31  16  41  1   
 32  16  42  1   
 33  17  19  1   
 34  17  20  1   
 35  18  21  1   
 36  18  22  1   
 37  19  23  1   
 38  19  24  1   
 39  19  43  1   
 40  20  25  1   
 41  20  44  1   
 42  20  45  1   
 43  21  26  1   
 44  21  46  1   
 45  21  47  1   
 46  22  27  1   
 47  22  48  1   
 48  22  49  1   
 49  23  28  1   
 50  23  50  1   
 51  23  51  1   
 52  24  52  1   
 53  24  53  1   
 54  24  54  1   
 55  25  28  1   
 56  25  55  1   
 57  25  56  1   
 58  26  29  1   
 59  26  57  1   
 60  26  58  1   
 61  27  29  1   
 62  27  59  1   
 63  27  60  1   
 64  28  61  1   
 65  28  62  1   
@<TRIPOS>SUBSTRUCTURE
  1 ****  12 GROUP 4 **** **** 0

# MOE 2024.06 (io_trps.svl 2023.06)
