@<TRIPOS>MOLECULE
1-[2-(4-tert-Butyl-phenoxy)-ethyl]-1H-pyridin-2-one
41 42 1 0 0 
SMALL
USER_CHARGES


@<TRIPOS>ATOM
  1 O       -1.8240     0.3270    -2.1730 O.2   1 <1>  -0.5700 
  2 C       -2.1250     0.7810    -1.0750 C.2   1 <1>   0.6160 
  3 N       -2.3960    -0.0680    -0.0120 N.am  1 <1>  -0.4690 
  4 C       -2.1930     2.1830    -0.8510 C.2   1 <1>  -0.1360 
  5 C       -2.7100     0.4540     1.2310 C.2   1 <1>  -0.0410 
  6 C       -2.3600    -1.5430    -0.2090 C.3   1 <1>   0.1400 
  7 C       -2.5060     2.6910     0.3710 C.2   1 <1>  -0.1500 
  8 C       -2.7680     1.7970     1.4360 C.2   1 <1>  -0.1500 
  9 C       -0.9160    -2.0400    -0.2480 C.3   1 <1>   0.1200 
 10 O       -0.9290    -3.4510    -0.2110 O.3   1 <1>  -0.3620 
 11 C        0.2280    -4.1600    -0.2270 C.ar  1 <1>   0.0830 
 12 C        0.1220    -5.5350    -0.1350 C.ar  1 <1>  -0.1500 
 13 C        1.4900    -3.5860    -0.3280 C.ar  1 <1>  -0.1500 
 14 C        1.2550    -6.3280    -0.1420 C.ar  1 <1>  -0.1500 
 15 C        2.6200    -4.3860    -0.3340 C.ar  1 <1>  -0.1500 
 16 C        2.5280    -5.7730    -0.2400 C.ar  1 <1>  -0.1430 
 17 C        3.7620    -6.7020    -0.2440 C.3   1 <1>   0.1430 
 18 C        5.0940    -5.9400    -0.3580 C.3   1 <1>  -0.2400 
 19 C        3.8020    -7.5090     1.0620 C.3   1 <1>  -0.2400 
 20 C        3.6770    -7.6650    -1.4370 C.3   1 <1>  -0.2400 
 21 H       -1.9850     2.8090    -1.6970 H     1 <1>   0.1500 
 22 H       -2.9080    -0.2430     2.0290 H     1 <1>   0.1500 
 23 H       -2.8510    -1.7910    -1.1340 H     1 <1>   0.0800 
 24 H       -2.8830    -2.0240     0.5980 H     1 <1>   0.0800 
 25 H       -2.5600     3.7510     0.5540 H     1 <1>   0.1500 
 26 H       -3.0130     2.2070     2.4010 H     1 <1>   0.1500 
 27 H       -0.3740    -1.6880     0.6110 H     1 <1>   0.0800 
 28 H       -0.4370    -1.7270    -1.1590 H     1 <1>   0.0800 
 29 H       -0.8520    -5.9810    -0.0590 H     1 <1>   0.1500 
 30 H        1.6160    -2.5230    -0.4050 H     1 <1>   0.1500 
 31 H        1.1310    -7.3930    -0.0690 H     1 <1>   0.1500 
 32 H        3.5700    -3.8940    -0.4140 H     1 <1>   0.1500 
 33 H        5.1290    -5.3770    -1.2740 H     1 <1>   0.0800 
 34 H        5.9230    -6.6240    -0.3570 H     1 <1>   0.0800 
 35 H        5.2170    -5.2680     0.4720 H     1 <1>   0.0800 
 36 H        3.8270    -6.8420     1.9050 H     1 <1>   0.0800 
 37 H        4.6750    -8.1360     1.0950 H     1 <1>   0.0800 
 38 H        2.9370    -8.1380     1.1560 H     1 <1>   0.0800 
 39 H        3.6120    -7.1080    -2.3550 H     1 <1>   0.0800 
 40 H        2.8110    -8.2960    -1.3650 H     1 <1>   0.0800 
 41 H        4.5460    -8.2960    -1.4800 H     1 <1>   0.0800 
@<TRIPOS>BOND
  1   1   2  2   
  2   2   3  am  
  3   2   4  1   
  4   3   5  1   
  5   3   6  1   
  6   4   7  2   
  7   4  21  1   
  8   5   8  2   
  9   5  22  1   
 10   6   9  1   
 11   6  23  1   
 12   6  24  1   
 13   7   8  1   
 14   7  25  1   
 15   8  26  1   
 16   9  10  1   
 17   9  27  1   
 18   9  28  1   
 19  10  11  1   
 20  11  12  ar  
 21  11  13  ar  
 22  12  14  ar  
 23  12  29  1   
 24  13  15  ar  
 25  13  30  1   
 26  14  16  ar  
 27  14  31  1   
 28  15  16  ar  
 29  15  32  1   
 30  16  17  1   
 31  17  18  1   
 32  17  19  1   
 33  17  20  1   
 34  18  33  1   
 35  18  34  1   
 36  18  35  1   
 37  19  36  1   
 38  19  37  1   
 39  19  38  1   
 40  20  39  1   
 41  20  40  1   
 42  20  41  1   
@<TRIPOS>SUBSTRUCTURE
  1 ****  10 GROUP 4 **** **** 0

# MOE 2024.06 (io_trps.svl 2023.06)
