@<TRIPOS>MOLECULE
8-sec-Butylamino-7-(2-hydroxy-3-phenoxy-propyl)-1,3-dimethyl-3,7-dihydro-purine-
57 59 1 0 0 
SMALL
USER_CHARGES


@<TRIPOS>ATOM
  1 O        0.7710     0.5610    -1.1880 O.2   1 <1>  -0.5740 
  2 C        1.7950     1.1030    -0.8280 C.2   1 <1>   0.6870 
  3 N        1.8130     2.4760    -0.6000 N.am  1 <1>  -0.4250 
  4 N        2.9490     0.3520    -0.6440 N.am  1 <1>  -0.4410 
  5 C        2.9750     3.1240    -0.2050 C.2   1 <1>   0.7000 
  6 C        0.5560     3.2590    -0.8210 C.3   1 <1>   0.0530 
  7 C        4.0880     1.0050    -0.2160 C.2   1 <1>   0.4210 
  8 C        2.9490    -1.1230    -0.8840 C.3   1 <1>   0.0530 
  9 O        2.9960     4.3350    -0.0540 O.2   1 <1>  -0.5740 
 10 C        4.1510     2.3340     0.0120 C.2   1 <1>   0.2710 
 11 N        5.3090     0.4650     0.0400 N.pl3 1 <1>  -0.7030 
 12 N        5.4710     2.6030     0.4310 N.pl3 1 <1>  -0.7670 
 13 C        6.1290     1.4420     0.4070 C.cat 1 <1>   1.0690 
 14 C        5.9540     3.9390     0.9110 C.3   1 <1>   0.3490 
 15 N        7.4140     1.2920     0.6930 N.pl3 1 <1>  -0.7170 
 16 C        6.9500     4.6030    -0.0600 C.3   1 <1>   0.1940 
 17 C        8.2690     0.0940     0.7370 C.3   1 <1>   0.2420 
 18 O        8.1200     3.8470    -0.1340 O.3   1 <1>  -0.6830 
 19 C        7.3200     6.0270     0.3730 C.3   1 <1>   0.1130 
 20 C        8.4530    -0.4620    -0.6830 C.3   1 <1>  -0.1660 
 21 C        7.6960    -0.9210     1.7290 C.3   1 <1>  -0.2460 
 22 O        8.4030     6.4710    -0.4190 O.3   1 <1>  -0.3680 
 23 C        9.4940    -1.5880    -0.7540 C.3   1 <1>  -0.2460 
 24 C        8.9420     7.7040    -0.2430 C.ar  1 <1>   0.0760 
 25 C       10.0120     8.0400    -1.0570 C.ar  1 <1>  -0.1560 
 26 C        8.4810     8.6240     0.6960 C.ar  1 <1>  -0.1560 
 27 C       10.6220     9.2770    -0.9410 C.ar  1 <1>  -0.1560 
 28 C        9.0920     9.8610     0.8100 C.ar  1 <1>  -0.1560 
 29 C       10.1620    10.1880    -0.0060 C.ar  1 <1>  -0.1560 
 30 H       -0.2950     2.7020    -0.4660 H     1 <1>   0.0730 
 31 H        0.4310     3.4500    -1.8720 H     1 <1>   0.0730 
 32 H        0.5840     4.1970    -0.2950 H     1 <1>   0.0730 
 33 H        2.1330    -1.4040    -1.5280 H     1 <1>   0.0730 
 34 H        2.8390    -1.6420     0.0520 H     1 <1>   0.0730 
 35 H        3.8650    -1.4250    -1.3580 H     1 <1>   0.0730 
 36 H        5.5980    -0.5050    -0.0410 H     1 <1>   0.4450 
 37 H        6.4250     3.8250     1.8730 H     1 <1>   0.0730 
 38 H        5.1170     4.5990     1.0510 H     1 <1>   0.0730 
 39 H        7.9490     2.1740     0.6430 H     1 <1>   0.4450 
 40 H        6.5170     4.6470    -1.0450 H     1 <1>   0.0730 
 41 H        9.2360     0.4010     1.1050 H     1 <1>   0.0730 
 42 H        8.8120     4.4260    -0.5400 H     1 <1>   0.3950 
 43 H        7.6260     6.0470     1.4050 H     1 <1>   0.0730 
 44 H        6.4900     6.6970     0.2230 H     1 <1>   0.0730 
 45 H        8.7870     0.3340    -1.3270 H     1 <1>   0.0730 
 46 H        7.5230    -0.8380    -1.0690 H     1 <1>   0.0730 
 47 H        6.8070    -1.3940     1.3580 H     1 <1>   0.0730 
 48 H        7.4860    -0.4470     2.6720 H     1 <1>   0.0730 
 49 H        8.4220    -1.6930     1.9140 H     1 <1>   0.0730 
 50 H       10.4390    -1.2570    -0.3570 H     1 <1>   0.0730 
 51 H        9.6460    -1.8830    -1.7780 H     1 <1>   0.0730 
 52 H        9.1710    -2.4540    -0.2030 H     1 <1>   0.0730 
 53 H       10.3660     7.3310    -1.7830 H     1 <1>   0.1440 
 54 H        7.6550     8.4050     1.3430 H     1 <1>   0.1440 
 55 H       11.4520     9.5310    -1.5760 H     1 <1>   0.1440 
 56 H        8.7370    10.5720     1.5350 H     1 <1>   0.1440 
 57 H       10.6350    11.1500     0.0860 H     1 <1>   0.1440 
@<TRIPOS>BOND
  1   1   2  2   
  2   2   3  am  
  3   2   4  am  
  4   3   5  am  
  5   3   6  1   
  6   4   7  1   
  7   4   8  1   
  8   5   9  2   
  9   5  10  1   
 10   6  30  1   
 11   6  31  1   
 12   6  32  1   
 13   7  10  2   
 14   7  11  1   
 15   8  33  1   
 16   8  34  1   
 17   8  35  1   
 18  10  12  1   
 19  11  13  ar  
 20  11  36  1   
 21  12  13  ar  
 22  12  14  1   
 23  13  15  ar  
 24  14  16  1   
 25  14  37  1   
 26  14  38  1   
 27  15  17  1   
 28  15  39  1   
 29  16  18  1   
 30  16  19  1   
 31  16  40  1   
 32  17  20  1   
 33  17  21  1   
 34  17  41  1   
 35  18  42  1   
 36  19  22  1   
 37  19  43  1   
 38  19  44  1   
 39  20  23  1   
 40  20  45  1   
 41  20  46  1   
 42  21  47  1   
 43  21  48  1   
 44  21  49  1   
 45  22  24  1   
 46  23  50  1   
 47  23  51  1   
 48  23  52  1   
 49  24  25  ar  
 50  24  26  ar  
 51  25  27  ar  
 52  25  53  1   
 53  26  28  ar  
 54  26  54  1   
 55  27  29  ar  
 56  27  55  1   
 57  28  29  ar  
 58  28  56  1   
 59  29  57  1   
@<TRIPOS>SUBSTRUCTURE
  1 ****  14 GROUP 4 **** **** 0

# MOE 2024.06 (io_trps.svl 2023.06)
