@<TRIPOS>MOLECULE
4-[3-(2-Chloro-phenyl)-[1,2,4]oxadiazol-5-yl]-1-morpholin-4-yl-butan-1-one
41 43 1 0 0 
SMALL
USER_CHARGES


@<TRIPOS>ATOM
  1 CL       0.1980    -0.1580     0.0080 Cl    1 <1>  -0.1770 
  2 C        0.8690    -1.7550     0.2450 C.ar  1 <1>   0.1770 
  3 C        2.1940    -2.0320    -0.0960 C.ar  1 <1>   0.0540 
  4 C        0.0270    -2.7230     0.7610 C.ar  1 <1>  -0.1500 
  5 C        3.0910    -1.0290    -0.6200 C.2   1 <1>   0.4620 
  6 C        2.6330    -3.3440     0.0860 C.ar  1 <1>  -0.1500 
  7 C        0.4930    -4.0140     0.9410 C.ar  1 <1>  -0.1500 
  8 N        3.7810    -1.1420    -1.6980 N.2   1 <1>  -0.4100 
  9 N        3.3280     0.1270     0.0030 N.2   1 <1>  -0.5650 
 10 C        1.7980    -4.3220     0.5980 C.ar  1 <1>  -0.1500 
 11 O        4.4640    -0.0510    -1.8460 O.3   1 <1>  -0.0190 
 12 C        4.1550     0.6630    -0.7940 C.2   1 <1>   0.2980 
 13 C        4.8160     2.0180    -0.6080 C.3   1 <1>   0.0200 
 14 C        6.3350     1.8830    -0.4210 C.3   1 <1>  -0.1600 
 15 C        6.7050     1.1230     0.8690 C.3   1 <1>  -0.0990 
 16 C        8.1580     0.6780     0.8690 C.2   1 <1>   0.5690 
 17 O        8.9340     1.3390     1.5160 O.2   1 <1>  -0.5700 
 18 N        8.5600    -0.4250     0.1580 N.am  1 <1>  -0.6600 
 19 C        9.9810    -0.8860     0.1830 C.3   1 <1>   0.1400 
 20 C        7.6880    -1.3060    -0.6820 C.3   1 <1>   0.1400 
 21 C       10.0570    -2.3870     0.5060 C.3   1 <1>   0.1200 
 22 C        7.8910    -2.7830    -0.3080 C.3   1 <1>   0.1200 
 23 O        9.2460    -3.1260    -0.3650 O.3   1 <1>  -0.5600 
 24 H       -0.9860    -2.4670     1.0150 H     1 <1>   0.1500 
 25 H        3.6450    -3.5980    -0.1790 H     1 <1>   0.1500 
 26 H       -0.1570    -4.7730     1.3420 H     1 <1>   0.1500 
 27 H        2.1620    -5.3270     0.7310 H     1 <1>   0.1500 
 28 H        4.3840     2.5080     0.2470 H     1 <1>   0.0800 
 29 H        4.6100     2.6200    -1.4740 H     1 <1>   0.0800 
 30 H        6.7820     2.8620    -0.3860 H     1 <1>   0.0800 
 31 H        6.7480     1.3750    -1.2760 H     1 <1>   0.0800 
 32 H        6.0830     0.2630     1.0210 H     1 <1>   0.0800 
 33 H        6.5460     1.7700     1.7140 H     1 <1>   0.0800 
 34 H       10.5460    -0.3390     0.9170 H     1 <1>   0.0800 
 35 H       10.4280    -0.7070    -0.7790 H     1 <1>   0.0800 
 36 H        7.9470    -1.1700    -1.7180 H     1 <1>   0.0800 
 37 H        6.6500    -1.0600    -0.5700 H     1 <1>   0.0800 
 38 H        9.7370    -2.5710     1.5170 H     1 <1>   0.0800 
 39 H       11.0670    -2.7390     0.3940 H     1 <1>   0.0800 
 40 H        7.3630    -3.4160    -1.0000 H     1 <1>   0.0800 
 41 H        7.5270    -2.9760     0.6860 H     1 <1>   0.0800 
@<TRIPOS>BOND
  1   1   2  1   
  2   2   3  ar  
  3   2   4  ar  
  4   3   5  1   
  5   3   6  ar  
  6   4   7  ar  
  7   4  24  1   
  8   5   8  2   
  9   5   9  1   
 10   6  10  ar  
 11   6  25  1   
 12   7  10  ar  
 13   7  26  1   
 14   8  11  1   
 15   9  12  2   
 16  10  27  1   
 17  11  12  1   
 18  12  13  1   
 19  13  14  1   
 20  13  28  1   
 21  13  29  1   
 22  14  15  1   
 23  14  30  1   
 24  14  31  1   
 25  15  16  1   
 26  15  32  1   
 27  15  33  1   
 28  16  17  2   
 29  16  18  am  
 30  18  19  1   
 31  18  20  1   
 32  19  21  1   
 33  19  34  1   
 34  19  35  1   
 35  20  22  1   
 36  20  36  1   
 37  20  37  1   
 38  21  23  1   
 39  21  38  1   
 40  21  39  1   
 41  22  23  1   
 42  22  40  1   
 43  22  41  1   
@<TRIPOS>SUBSTRUCTURE
  1 ****   5 GROUP 4 **** **** 0

# MOE 2024.06 (io_trps.svl 2023.06)
