@<TRIPOS>MOLECULE
4-(Tetrahydro-furan-2-ylmethoxy)-benzoic acid
29 30 1 0 0 
SMALL
USER_CHARGES


@<TRIPOS>ATOM
  1 O       -0.5090    -0.1380    -0.1600 O.co2 1 <1>  -0.9000 
  2 C       -1.5360     0.5050    -0.4490 C.2   1 <1>   0.9790 
  3 O       -1.4090     1.6590    -0.8970 O.co2 1 <1>  -0.9000 
  4 C       -2.8580    -0.0800    -0.2650 C.ar  1 <1>  -0.1790 
  5 C       -4.0190     0.6290    -0.5850 C.ar  1 <1>  -0.1500 
  6 C       -3.0240    -1.3720     0.2380 C.ar  1 <1>  -0.1500 
  7 C       -5.2780     0.0840    -0.4140 C.ar  1 <1>  -0.1500 
  8 C       -4.2780    -1.9260     0.4130 C.ar  1 <1>  -0.1500 
  9 C       -5.4160    -1.2060     0.0910 C.ar  1 <1>   0.0820 
 10 O       -6.6090    -1.8140     0.2950 O.3   1 <1>  -0.3630 
 11 C       -7.8250    -1.1530     0.0090 C.3   1 <1>   0.1200 
 12 C       -9.0100    -2.0680     0.3400 C.3   1 <1>   0.2000 
 13 O       -9.0820    -3.1290    -0.5550 O.3   1 <1>  -0.5600 
 14 C      -10.3660    -1.3890     0.2080 C.3   1 <1>  -0.1600 
 15 C      -10.3640    -3.6680    -0.5590 C.3   1 <1>   0.1200 
 16 C      -11.2990    -2.5480    -0.1040 C.3   1 <1>  -0.1600 
 17 H       -3.9120     1.6270    -0.9770 H     1 <1>   0.1500 
 18 H       -2.1430    -1.9390     0.4910 H     1 <1>   0.1500 
 19 H       -6.1290     0.6770    -0.6810 H     1 <1>   0.1500 
 20 H       -4.3810    -2.9220     0.8000 H     1 <1>   0.1500 
 21 H       -7.8380    -0.8910    -1.0340 H     1 <1>   0.0800 
 22 H       -7.8660    -0.2660     0.6150 H     1 <1>   0.0800 
 23 H       -8.8960    -2.4770     1.3290 H     1 <1>   0.0800 
 24 H      -10.3500    -0.6980    -0.6170 H     1 <1>   0.0800 
 25 H      -10.6410    -0.8660     1.1070 H     1 <1>   0.0800 
 26 H      -10.3800    -4.4970     0.1270 H     1 <1>   0.0800 
 27 H      -10.5870    -4.0070    -1.5550 H     1 <1>   0.0800 
 28 H      -12.0040    -2.2940    -0.8750 H     1 <1>   0.0800 
 29 H      -11.8360    -2.8620     0.7740 H     1 <1>   0.0800 
@<TRIPOS>BOND
  1   1   2  ar  
  2   2   3  ar  
  3   2   4  1   
  4   4   5  ar  
  5   4   6  ar  
  6   5   7  ar  
  7   5  17  1   
  8   6   8  ar  
  9   6  18  1   
 10   7   9  ar  
 11   7  19  1   
 12   8   9  ar  
 13   8  20  1   
 14   9  10  1   
 15  10  11  1   
 16  11  12  1   
 17  11  21  1   
 18  11  22  1   
 19  12  13  1   
 20  12  14  1   
 21  12  23  1   
 22  13  15  1   
 23  14  16  1   
 24  14  24  1   
 25  14  25  1   
 26  15  16  1   
 27  15  26  1   
 28  15  27  1   
 29  16  28  1   
 30  16  29  1   
@<TRIPOS>SUBSTRUCTURE
  1 ****   9 GROUP 4 **** **** 0

# MOE 2024.06 (io_trps.svl 2023.06)
