@<TRIPOS>MOLECULE
3-[5-(5-Methyl-isoxazol-3-yl)-[1,3,4]oxadiazol-2-ylsulfanyl]-dihydro-furan-2-one
27 29 1 0 0 
SMALL
USER_CHARGES


@<TRIPOS>ATOM
  1 S       -0.2120    -0.0010    -0.0390 S.3   1 <1>  -0.2860 
  2 C       -1.4970    -1.0800     0.5630 C.2   1 <1>   0.5340 
  3 C        1.3060    -0.6660     0.7940 C.3   1 <1>   0.2110 
  4 O       -2.7110    -0.8680     0.1990 O.3   1 <1>  -0.2800 
  5 N       -1.3440    -2.0800     1.3370 N.2   1 <1>  -0.3380 
  6 C        2.4410     0.3200     0.6460 C.2   1 <1>   0.6590 
  7 C        1.8130    -1.8730     0.0070 C.3   1 <1>  -0.1600 
  8 C       -3.3740    -1.8180     0.8020 C.2   1 <1>   0.4790 
  9 N       -2.5740    -2.5690     1.4970 N.2   1 <1>  -0.3380 
 10 O        2.5970     1.3130     1.3060 O.2   1 <1>  -0.5700 
 11 O        3.2840    -0.0800    -0.2890 O.3   1 <1>  -0.4300 
 12 C        2.8890    -1.2820    -0.9100 C.3   1 <1>   0.1200 
 13 C       -4.8070    -1.9170     0.6380 C.2   1 <1>   0.2880 
 14 N       -5.5830    -2.8150     1.1710 N.2   1 <1>  -0.4100 
 15 C       -5.5860    -1.0420    -0.1340 C.2   1 <1>  -0.1500 
 16 O       -6.7910    -2.5490     0.7750 O.3   1 <1>  -0.0190 
 17 C       -6.8350    -1.5030    -0.0010 C.2   1 <1>  -0.0400 
 18 C       -8.1600    -1.0350    -0.5650 C.3   1 <1>  -0.0600 
 19 H        1.0750    -0.8760     1.8230 H     1 <1>   0.0800 
 20 H        1.0410    -2.3800    -0.5440 H     1 <1>   0.0800 
 21 H        2.2750    -2.5730     0.6810 H     1 <1>   0.0800 
 22 H        2.4880    -1.0350    -1.8790 H     1 <1>   0.0800 
 23 H        3.7460    -1.9250    -1.0140 H     1 <1>   0.0800 
 24 H       -5.2220    -0.2000    -0.6930 H     1 <1>   0.1500 
 25 H       -8.0180    -0.1650    -1.1810 H     1 <1>   0.0800 
 26 H       -8.8310    -0.7880     0.2390 H     1 <1>   0.0800 
 27 H       -8.6000    -1.8160    -1.1580 H     1 <1>   0.0800 
@<TRIPOS>BOND
  1   1   2  1   
  2   1   3  1   
  3   2   4  1   
  4   2   5  2   
  5   3   6  1   
  6   3   7  1   
  7   3  19  1   
  8   4   8  1   
  9   5   9  1   
 10   6  10  2   
 11   6  11  1   
 12   7  12  1   
 13   7  20  1   
 14   7  21  1   
 15   8   9  2   
 16   8  13  1   
 17  11  12  1   
 18  12  22  1   
 19  12  23  1   
 20  13  14  2   
 21  13  15  1   
 22  14  16  1   
 23  15  17  2   
 24  15  24  1   
 25  16  17  1   
 26  17  18  1   
 27  18  25  1   
 28  18  26  1   
 29  18  27  1   
@<TRIPOS>SUBSTRUCTURE
  1 ****   2 GROUP 4 **** **** 0

# MOE 2024.06 (io_trps.svl 2023.06)
