@<TRIPOS>MOLECULE
N-Benzo[1,3]dioxol-5-ylmethyl-2-[(2,5-dimethyl-phenyl)-methanesulfonyl-amino]-ac
49 51 1 0 0 
SMALL
USER_CHARGES


@<TRIPOS>ATOM
  1 S        1.5390     1.4510    -1.3750 S.o2  1 <1>   1.3330 
  2 O        2.8090     2.0460    -1.7210 O.2   1 <1>  -0.6500 
  3 O        1.5040     0.2920    -0.5190 O.2   1 <1>  -0.6500 
  4 N        0.6140     2.7070    -0.6310 N.am  1 <1>  -0.6930 
  5 C        0.6330     1.1310    -2.8720 C.3   1 <1>  -0.1350 
  6 C       -0.7080     2.4950    -0.2490 C.ar  1 <1>   0.1990 
  7 C        1.3870     3.7200     0.1540 C.3   1 <1>   0.2570 
  8 C       -1.7570     3.1670    -0.8810 C.ar  1 <1>  -0.1440 
  9 C       -0.9980     1.6060     0.7800 C.ar  1 <1>  -0.1500 
 10 C        2.1980     3.1430     1.3210 C.2   1 <1>   0.5690 
 11 C       -3.0620     2.9230    -0.4850 C.ar  1 <1>  -0.1500 
 12 C       -1.4950     4.1710    -1.9960 C.3   1 <1>  -0.0970 
 13 C       -2.3020     1.3630     1.1720 C.ar  1 <1>  -0.1440 
 14 O        1.7860     3.2830     2.4490 O.2   1 <1>  -0.5700 
 15 N        3.3700     2.5060     1.0710 N.am  1 <1>  -0.7300 
 16 C       -3.3350     2.0270     0.5330 C.ar  1 <1>  -0.1500 
 17 C       -2.5980     0.3880     2.2970 C.3   1 <1>  -0.0970 
 18 C        4.1980     1.8270     2.0790 C.3   1 <1>   0.2840 
 19 C        5.6580     2.0960     1.7650 C.ar  1 <1>  -0.1430 
 20 C        6.4200     1.1390     1.1000 C.ar  1 <1>  -0.1500 
 21 C        6.2350     3.3080     2.1430 C.ar  1 <1>  -0.1500 
 22 C        7.7450     1.4270     0.8400 C.ar  1 <1>   0.0820 
 23 C        7.5700     3.5810     1.8710 C.ar  1 <1>  -0.1500 
 24 O        8.6550     0.6640     0.2250 O.3   1 <1>  -0.3620 
 25 C        8.3040     2.6140     1.2140 C.ar  1 <1>   0.0820 
 26 C        9.8690     1.4110     0.2050 C.3   1 <1>   0.4000 
 27 O        9.5910     2.6520     0.8510 O.3   1 <1>  -0.3620 
 28 H        1.1150     0.3540    -3.4330 H     1 <1>   0.0800 
 29 H        0.5910     2.0150    -3.4760 H     1 <1>   0.0800 
 30 H       -0.3660     0.8190    -2.6400 H     1 <1>   0.0800 
 31 H        0.7040     4.4470     0.5540 H     1 <1>   0.0800 
 32 H        2.0600     4.2350    -0.5070 H     1 <1>   0.0800 
 33 H       -0.1870     1.1040     1.2760 H     1 <1>   0.1500 
 34 H       -3.8800     3.4310    -0.9640 H     1 <1>   0.1500 
 35 H       -1.0630     3.6760    -2.8460 H     1 <1>   0.0800 
 36 H       -0.8170     4.9320    -1.6550 H     1 <1>   0.0800 
 37 H       -2.4060     4.6490    -2.3080 H     1 <1>   0.0800 
 38 H        3.6630     2.3460     0.0970 H     1 <1>   0.3700 
 39 H       -4.3540     1.8500     0.8290 H     1 <1>   0.1500 
 40 H       -1.7760    -0.2920     2.4340 H     1 <1>   0.0800 
 41 H       -3.4780    -0.1860     2.0710 H     1 <1>   0.0800 
 42 H       -2.7570     0.9270     3.2130 H     1 <1>   0.0800 
 43 H        3.9950     0.7700     2.0480 H     1 <1>   0.0800 
 44 H        3.9580     2.1900     3.0640 H     1 <1>   0.0800 
 45 H        6.0050     0.1980     0.7880 H     1 <1>   0.1500 
 46 H        5.6380     4.0460     2.6510 H     1 <1>   0.1500 
 47 H        8.0270     4.5100     2.1560 H     1 <1>   0.1500 
 48 H       10.1640     1.5930    -0.8130 H     1 <1>   0.0800 
 49 H       10.6280     0.8820     0.7520 H     1 <1>   0.0800 
@<TRIPOS>BOND
  1   1   2  2   
  2   1   3  2   
  3   1   4  am  
  4   1   5  1   
  5   4   6  1   
  6   4   7  1   
  7   5  28  1   
  8   5  29  1   
  9   5  30  1   
 10   6   8  ar  
 11   6   9  ar  
 12   7  10  1   
 13   7  31  1   
 14   7  32  1   
 15   8  11  ar  
 16   8  12  1   
 17   9  13  ar  
 18   9  33  1   
 19  10  14  2   
 20  10  15  am  
 21  11  16  ar  
 22  11  34  1   
 23  12  35  1   
 24  12  36  1   
 25  12  37  1   
 26  13  16  ar  
 27  13  17  1   
 28  15  18  1   
 29  15  38  1   
 30  16  39  1   
 31  17  40  1   
 32  17  41  1   
 33  17  42  1   
 34  18  19  1   
 35  18  43  1   
 36  18  44  1   
 37  19  20  ar  
 38  19  21  ar  
 39  20  22  ar  
 40  20  45  1   
 41  21  23  ar  
 42  21  46  1   
 43  22  24  1   
 44  22  25  ar  
 45  23  25  ar  
 46  23  47  1   
 47  24  26  1   
 48  25  27  1   
 49  26  27  1   
 50  26  48  1   
 51  26  49  1   
@<TRIPOS>SUBSTRUCTURE
  1 ****  15 GROUP 4 **** **** 0

# MOE 2024.06 (io_trps.svl 2023.06)
