@<TRIPOS>MOLECULE
5-Acetylamino-3-methyl-thiophene-2,4-dicarboxylic acid 4-ethyl ester 2-isopropyl
40 40 1 0 0 
SMALL
USER_CHARGES


@<TRIPOS>ATOM
  1 S       -0.3160    -0.2830     0.4570 S.3   1 <1>  -0.0800 
  2 C        0.0790     1.3640     0.0320 C.2   1 <1>   0.1040 
  3 C        1.3580    -0.8270     0.3610 C.2   1 <1>  -0.0450 
  4 N       -0.9280     2.3110    -0.0440 N.am  1 <1>  -0.4940 
  5 C        1.4300     1.4940    -0.1770 C.2   1 <1>  -0.0860 
  6 C        2.1350     0.2500     0.0400 C.2   1 <1>  -0.1810 
  7 C        1.5810    -2.2280     0.6180 C.2   1 <1>   0.8050 
  8 C       -2.2940     2.2410     0.0600 C.2   1 <1>   0.5690 
  9 C        2.0480     2.7390    -0.5810 C.2   1 <1>   0.8060 
 10 C        3.6580     0.1820    -0.0700 C.3   1 <1>  -0.0590 
 11 O        0.7670    -2.9530     1.1590 O.2   1 <1>  -0.5700 
 12 O        2.7440    -2.7620     0.2280 O.3   1 <1>  -0.4300 
 13 O       -2.9230     1.2280     0.2090 O.2   1 <1>  -0.5700 
 14 C       -3.0470     3.5440    -0.0320 C.3   1 <1>  -0.1790 
 15 O        3.1830     2.8380    -1.0060 O.2   1 <1>  -0.5700 
 16 O        1.3180     3.8650    -0.4900 O.3   1 <1>  -0.4300 
 17 C        3.0570    -4.1260     0.3840 C.3   1 <1>   0.2000 
 18 C        1.8290     5.1450    -0.8110 C.3   1 <1>   0.1200 
 19 C        4.5790    -4.2360     0.4250 C.3   1 <1>  -0.2400 
 20 C        2.4750    -4.8950    -0.8030 C.3   1 <1>  -0.2400 
 21 C        2.5410     5.7130     0.4150 C.3   1 <1>  -0.2400 
 22 H       -0.5850     3.2590    -0.2100 H     1 <1>   0.3700 
 23 H        4.0570    -0.7380     0.3070 H     1 <1>   0.0800 
 24 H        4.1070     0.9730     0.5040 H     1 <1>   0.0800 
 25 H        3.9590     0.2860    -1.0970 H     1 <1>   0.0800 
 26 H       -2.8820     3.9940    -0.9920 H     1 <1>   0.0800 
 27 H       -2.7210     4.2110     0.7440 H     1 <1>   0.0800 
 28 H       -4.1000     3.3620     0.0890 H     1 <1>   0.0800 
 29 H        2.6420    -4.4820     1.3130 H     1 <1>   0.0800 
 30 H        0.9960     5.7710    -1.0810 H     1 <1>   0.0800 
 31 H        2.4930     5.0690    -1.6560 H     1 <1>   0.0800 
 32 H        5.0080    -3.8600    -0.4860 H     1 <1>   0.0800 
 33 H        4.8690    -5.2650     0.5430 H     1 <1>   0.0800 
 34 H        4.9640    -3.6790     1.2600 H     1 <1>   0.0800 
 35 H        2.8640    -4.5120    -1.7290 H     1 <1>   0.0800 
 36 H        1.4020    -4.8160    -0.8050 H     1 <1>   0.0800 
 37 H        2.7320    -5.9360    -0.7260 H     1 <1>   0.0800 
 38 H        1.8660     5.7680     1.2500 H     1 <1>   0.0800 
 39 H        2.8970     6.7040     0.1980 H     1 <1>   0.0800 
 40 H        3.3880     5.1020     0.6730 H     1 <1>   0.0800 
@<TRIPOS>BOND
  1   1   2  1   
  2   1   3  1   
  3   2   4  1   
  4   2   5  2   
  5   3   6  2   
  6   3   7  1   
  7   4   8  am  
  8   4  22  1   
  9   5   6  1   
 10   5   9  1   
 11   6  10  1   
 12   7  11  2   
 13   7  12  1   
 14   8  13  2   
 15   8  14  1   
 16   9  15  2   
 17   9  16  1   
 18  10  23  1   
 19  10  24  1   
 20  10  25  1   
 21  12  17  1   
 22  14  26  1   
 23  14  27  1   
 24  14  28  1   
 25  16  18  1   
 26  17  19  1   
 27  17  20  1   
 28  17  29  1   
 29  18  21  1   
 30  18  30  1   
 31  18  31  1   
 32  19  32  1   
 33  19  33  1   
 34  19  34  1   
 35  20  35  1   
 36  20  36  1   
 37  20  37  1   
 38  21  38  1   
 39  21  39  1   
 40  21  40  1   
@<TRIPOS>SUBSTRUCTURE
  1 ****   6 GROUP 4 **** **** 0

# MOE 2024.06 (io_trps.svl 2023.06)
