@<TRIPOS>MOLECULE
4-[3-Hydroxy-2-oxo-3-(1-oxo-1,2,3,4-tetrahydro-naphthalen-2-yl)-2,3-dihydro-indo
47 50 1 0 0 
SMALL
USER_CHARGES


@<TRIPOS>ATOM
  1 O       -0.1800     0.7340     0.2980 O.2   1 <1>  -0.5700 
  2 C       -0.3330     1.9280     0.3510 C.2   1 <1>   0.4230 
  3 C        0.4420     2.8450    -0.4550 C.ar  1 <1>   0.0860 
  4 C       -1.3680     2.4780     1.3350 C.3   1 <1>  -0.0190 
  5 C        0.6140     4.1770    -0.0680 C.ar  1 <1>  -0.1440 
  6 C        1.0470     2.4280    -1.6410 C.ar  1 <1>  -0.1500 
  7 C       -2.7500     1.8200     1.0860 C.3   1 <1>   0.4850 
  8 C       -1.4110     4.0310     1.3630 C.3   1 <1>  -0.1600 
  9 C        1.3540     5.0510    -0.8460 C.ar  1 <1>  -0.1500 
 10 C       -0.0200     4.6510     1.2280 C.3   1 <1>  -0.0160 
 11 C        1.7850     3.3000    -2.4180 C.ar  1 <1>  -0.1500 
 12 O       -3.7620     2.5700     1.6980 O.3   1 <1>  -0.6800 
 13 C       -2.7990     0.3380     1.5310 C.2   1 <1>   0.5690 
 14 C       -3.1450     1.6670    -0.3830 C.ar  1 <1>  -0.1430 
 15 C        1.9380     4.6160    -2.0220 C.ar  1 <1>  -0.1500 
 16 O       -2.5970    -0.0620     2.6580 O.2   1 <1>  -0.5700 
 17 N       -3.1390    -0.4550     0.4710 N.am  1 <1>  -0.4770 
 18 C       -3.3380     0.3250    -0.6660 C.ar  1 <1>   0.1170 
 19 C       -3.3190     2.6220    -1.3710 C.ar  1 <1>  -0.1500 
 20 C       -3.0300    -1.9260     0.4850 C.3   1 <1>   0.1400 
 21 C       -3.6910    -0.0820    -1.9440 C.ar  1 <1>  -0.1500 
 22 C       -3.6730     2.2170    -2.6490 C.ar  1 <1>  -0.1500 
 23 C       -4.3900    -2.5280     0.8570 C.3   1 <1>  -0.1600 
 24 C       -3.8560     0.8710    -2.9340 C.ar  1 <1>  -0.1500 
 25 C       -4.3600    -4.0650     0.8920 C.3   1 <1>   0.0400 
 26 C       -4.0690    -4.6530    -0.4470 C.1   1 <1>   0.3570 
 27 N       -3.8400    -5.0750    -1.4760 N.1   1 <1>  -0.5570 
 28 H       -1.0400     2.1580     2.3080 H     1 <1>   0.0800 
 29 H        0.9320     1.4040    -1.9510 H     1 <1>   0.1500 
 30 H       -1.8640     4.3610     2.2830 H     1 <1>   0.0800 
 31 H       -2.0180     4.3980     0.5580 H     1 <1>   0.0800 
 32 H        1.4820     6.0760    -0.5430 H     1 <1>   0.1500 
 33 H       -0.1040     5.7240     1.2350 H     1 <1>   0.0800 
 34 H        0.5990     4.3580     2.0590 H     1 <1>   0.0800 
 35 H        2.2420     2.9560    -3.3310 H     1 <1>   0.1500 
 36 H       -4.6160     2.1320     1.5210 H     1 <1>   0.4000 
 37 H        2.5130     5.2980    -2.6250 H     1 <1>   0.1500 
 38 H       -3.1880     3.6680    -1.1620 H     1 <1>   0.1500 
 39 H       -2.2860    -2.2150     1.2090 H     1 <1>   0.0800 
 40 H       -2.7020    -2.2660    -0.4820 H     1 <1>   0.0800 
 41 H       -3.8360    -1.1240    -2.1650 H     1 <1>   0.1500 
 42 H       -3.8060     2.9510    -3.4250 H     1 <1>   0.1500 
 43 H       -5.1310    -2.2030     0.1460 H     1 <1>   0.0800 
 44 H       -4.6720    -2.1660     1.8300 H     1 <1>   0.0800 
 45 H       -4.1280     0.5680    -3.9310 H     1 <1>   0.1500 
 46 H       -5.3150    -4.4330     1.2210 H     1 <1>   0.0800 
 47 H       -3.6140    -4.4020     1.5890 H     1 <1>   0.0800 
@<TRIPOS>BOND
  1   1   2  2   
  2   2   3  1   
  3   2   4  1   
  4   3   5  ar  
  5   3   6  ar  
  6   4   7  1   
  7   4   8  1   
  8   4  28  1   
  9   5   9  ar  
 10   5  10  1   
 11   6  11  ar  
 12   6  29  1   
 13   7  12  1   
 14   7  13  1   
 15   7  14  1   
 16   8  10  1   
 17   8  30  1   
 18   8  31  1   
 19   9  15  ar  
 20   9  32  1   
 21  10  33  1   
 22  10  34  1   
 23  11  15  ar  
 24  11  35  1   
 25  12  36  1   
 26  13  16  2   
 27  13  17  am  
 28  14  18  ar  
 29  14  19  ar  
 30  15  37  1   
 31  17  18  1   
 32  17  20  1   
 33  18  21  ar  
 34  19  22  ar  
 35  19  38  1   
 36  20  23  1   
 37  20  39  1   
 38  20  40  1   
 39  21  24  ar  
 40  21  41  1   
 41  22  24  ar  
 42  22  42  1   
 43  23  25  1   
 44  23  43  1   
 45  23  44  1   
 46  24  45  1   
 47  25  26  1   
 48  25  46  1   
 49  25  47  1   
 50  26  27  3   
@<TRIPOS>SUBSTRUCTURE
  1 ****  14 GROUP 4 **** **** 0

# MOE 2024.06 (io_trps.svl 2023.06)
