@<TRIPOS>MOLECULE
2-Oxo-1-oxa-spiro[4.4]nonane-4-carboxylic acid 2,4-dimethyl-benzylamide
45 47 1 0 0 
SMALL
USER_CHARGES


@<TRIPOS>ATOM
  1 O       -0.8770     0.3850     2.5710 O.2   1 <1>  -0.5700 
  2 C       -1.9310     0.6870     2.0870 C.2   1 <1>   0.6590 
  3 O       -2.1190     0.9120     0.8110 O.3   1 <1>  -0.4300 
  4 C       -3.1780     0.9280     2.8130 C.3   1 <1>  -0.0990 
  5 C       -3.4220     1.1750     0.2780 C.3   1 <1>   0.2800 
  6 C       -3.9590     1.6290     1.7080 C.3   1 <1>  -0.0190 
  7 C       -2.8710     0.6290    -1.0950 C.3   1 <1>  -0.1600 
  8 C       -4.8200     1.5450    -0.3860 C.3   1 <1>  -0.1600 
  9 C       -3.9440     3.1460     1.9480 C.2   1 <1>   0.5690 
 10 C       -3.8800     0.5090    -2.2240 C.3   1 <1>  -0.1600 
 11 C       -4.7920     1.6350    -1.9010 C.3   1 <1>  -0.1600 
 12 O       -4.9360     3.6190     2.4400 O.2   1 <1>  -0.5700 
 13 N       -2.9160     3.9830     1.6740 N.am  1 <1>  -0.7300 
 14 C       -1.6300     3.8130     0.9730 C.3   1 <1>   0.2840 
 15 C       -1.0990     5.1980     0.6420 C.ar  1 <1>  -0.1440 
 16 C       -1.5310     5.9040    -0.4780 C.ar  1 <1>  -0.1440 
 17 C       -0.1620     5.7690     1.4890 C.ar  1 <1>  -0.1500 
 18 C       -1.0120     7.1660    -0.7280 C.ar  1 <1>  -0.1500 
 19 C       -2.5620     5.3300    -1.4400 C.3   1 <1>  -0.0970 
 20 C        0.3470     7.0280     1.2310 C.ar  1 <1>  -0.1500 
 21 C       -0.0760     7.7340     0.1200 C.ar  1 <1>  -0.1440 
 22 C        0.4800     9.1160    -0.1710 C.3   1 <1>  -0.0970 
 23 H       -3.0200     1.5390     3.6840 H     1 <1>   0.0800 
 24 H       -3.6190    -0.0150     3.0800 H     1 <1>   0.0800 
 25 H       -4.9740     1.3110     1.8900 H     1 <1>   0.0800 
 26 H       -2.4290    -0.3500    -0.9840 H     1 <1>   0.0800 
 27 H       -2.1030     1.3010    -1.4470 H     1 <1>   0.0800 
 28 H       -5.2530     2.4800    -0.0680 H     1 <1>   0.0800 
 29 H       -5.5260     0.7670    -0.1420 H     1 <1>   0.0800 
 30 H       -4.4050    -0.4300    -2.1600 H     1 <1>   0.0800 
 31 H       -3.4280     0.6080    -3.1960 H     1 <1>   0.0800 
 32 H       -4.3620     2.5720    -2.2150 H     1 <1>   0.0800 
 33 H       -5.7680     1.5140    -2.3420 H     1 <1>   0.0800 
 34 H       -3.0860     4.9630     1.9140 H     1 <1>   0.3700 
 35 H       -1.7600     3.2530     0.0670 H     1 <1>   0.0800 
 36 H       -0.9350     3.2900     1.6080 H     1 <1>   0.0800 
 37 H        0.1780     5.2360     2.3600 H     1 <1>   0.1500 
 38 H       -1.3380     7.7160    -1.5920 H     1 <1>   0.1500 
 39 H       -2.1610     4.4660    -1.9380 H     1 <1>   0.0800 
 40 H       -2.8360     6.0530    -2.1870 H     1 <1>   0.0800 
 41 H       -3.4530     5.0480    -0.9070 H     1 <1>   0.0800 
 42 H        1.0750     7.4540     1.8990 H     1 <1>   0.1500 
 43 H        0.8000     9.5930     0.7380 H     1 <1>   0.0800 
 44 H       -0.2710     9.7330    -0.6300 H     1 <1>   0.0800 
 45 H        1.3200     9.0370    -0.8370 H     1 <1>   0.0800 
@<TRIPOS>BOND
  1   1   2  2   
  2   2   3  1   
  3   2   4  1   
  4   3   5  1   
  5   4   6  1   
  6   4  23  1   
  7   4  24  1   
  8   5   6  1   
  9   5   7  1   
 10   5   8  1   
 11   6   9  1   
 12   6  25  1   
 13   7  10  1   
 14   7  26  1   
 15   7  27  1   
 16   8  11  1   
 17   8  28  1   
 18   8  29  1   
 19   9  12  2   
 20   9  13  am  
 21  10  11  1   
 22  10  30  1   
 23  10  31  1   
 24  11  32  1   
 25  11  33  1   
 26  13  14  1   
 27  13  34  1   
 28  14  15  1   
 29  14  35  1   
 30  14  36  1   
 31  15  16  ar  
 32  15  17  ar  
 33  16  18  ar  
 34  16  19  1   
 35  17  20  ar  
 36  17  37  1   
 37  18  21  ar  
 38  18  38  1   
 39  19  39  1   
 40  19  40  1   
 41  19  41  1   
 42  20  21  ar  
 43  20  42  1   
 44  21  22  1   
 45  22  43  1   
 46  22  44  1   
 47  22  45  1   
@<TRIPOS>SUBSTRUCTURE
  1 ****  14 GROUP 4 **** **** 0

# MOE 2024.06 (io_trps.svl 2023.06)
