@<TRIPOS>MOLECULE
1-(4-Fluoro-phenyl)-propylamine
24 24 1 0 0 
SMALL
USER_CHARGES


@<TRIPOS>ATOM
  1 F        0.2970     0.2790     0.0300 F     1 <1>  -0.1900 
  2 C        1.4410     0.9060     0.0120 C.ar  1 <1>   0.1900 
  3 C        2.3960     0.5270    -0.9090 C.ar  1 <1>  -0.1500 
  4 C        1.6560     1.9270     0.9160 C.ar  1 <1>  -0.1500 
  5 C        3.6090     1.1930    -0.9210 C.ar  1 <1>  -0.1500 
  6 C        2.8720     2.5880     0.8970 C.ar  1 <1>  -0.1500 
  7 C        3.8590     2.2250    -0.0200 C.ar  1 <1>  -0.1430 
  8 C        5.2130     2.9160    -0.0620 C.3   1 <1>   0.5670 
  9 N        5.9140     2.5660     1.1730 N.4   1 <1>  -0.8530 
 10 C        5.1090     4.4410    -0.1940 C.3   1 <1>  -0.1600 
 11 C        6.4720     5.1500    -0.2780 C.3   1 <1>  -0.2400 
 12 H        2.1850    -0.2730    -1.5990 H     1 <1>   0.1500 
 13 H        0.8800     2.1930     1.6130 H     1 <1>   0.1500 
 14 H        4.3480     0.8940    -1.6470 H     1 <1>   0.1500 
 15 H        3.0200     3.3870     1.6040 H     1 <1>   0.1500 
 16 H        5.7670     2.5370    -0.9070 H     1 <1>   0.0800 
 17 H        5.3850     2.9220     1.9720 H     1 <1>   0.4500 
 18 H        6.8550     2.9670     1.1790 H     1 <1>   0.4500 
 19 H        5.9640     1.5460     1.2560 H     1 <1>   0.4500 
 20 H        4.5410     4.8570     0.6190 H     1 <1>   0.0800 
 21 H        4.5630     4.6550    -1.0970 H     1 <1>   0.0800 
 22 H        7.0260     5.0690     0.6410 H     1 <1>   0.0800 
 23 H        6.3190     6.1990    -0.4730 H     1 <1>   0.0800 
 24 H        7.0650     4.7520    -1.0850 H     1 <1>   0.0800 
@<TRIPOS>BOND
  1   1   2  1   
  2   2   3  ar  
  3   2   4  ar  
  4   3   5  ar  
  5   3  12  1   
  6   4   6  ar  
  7   4  13  1   
  8   5   7  ar  
  9   5  14  1   
 10   6   7  ar  
 11   6  15  1   
 12   7   8  1   
 13   8   9  1   
 14   8  10  1   
 15   8  16  1   
 16   9  17  1   
 17   9  18  1   
 18   9  19  1   
 19  10  11  1   
 20  10  20  1   
 21  10  21  1   
 22  11  22  1   
 23  11  23  1   
 24  11  24  1   
@<TRIPOS>SUBSTRUCTURE
  1 ****   7 GROUP 4 **** **** 0

# MOE 2024.06 (io_trps.svl 2023.06)
