@<TRIPOS>MOLECULE
8-Furan-2-ylmethyl-1,7-dimethyl-3-(2-oxo-propyl)-1H,8H-imidazo[2,1-f]purine-2,4-
44 47 1 0 0 
SMALL
USER_CHARGES


@<TRIPOS>ATOM
  1 O        0.9880    -0.2970    -0.2860 O.2   1 <1>  -0.5750 
  2 C        1.9120     0.4760    -0.4380 C.2   1 <1>   0.6860 
  3 N        1.6560     1.7990    -0.7740 N.am  1 <1>  -0.4270 
  4 N        3.2200     0.0390    -0.2690 N.am  1 <1>  -0.4420 
  5 C        2.6860     2.7020    -0.9820 C.2   1 <1>   0.6990 
  6 C        0.3110     2.3610    -0.4330 C.3   1 <1>   0.1930 
  7 C        4.2340     0.9680    -0.3850 C.2   1 <1>   0.4200 
  8 C        3.5100    -1.3730     0.1140 C.3   1 <1>   0.0510 
  9 O        2.4500     3.8340    -1.3730 O.2   1 <1>  -0.5750 
 10 C        4.0170     2.2600    -0.7300 C.2   1 <1>   0.2690 
 11 C        0.2840     2.8370     1.0190 C.2   1 <1>   0.4420 
 12 N        5.5690     0.7810    -0.1830 N.pl3 1 <1>  -0.7040 
 13 N        5.2760     2.8830    -0.7380 N.pl3 1 <1>  -0.6340 
 14 O        1.2730     2.8670     1.6950 O.2   1 <1>  -0.5750 
 15 C       -1.0540     3.2770     1.5700 C.3   1 <1>  -0.1870 
 16 C        6.1630     1.9580    -0.3930 C.cat 1 <1>   1.0680 
 17 C        5.9650     4.0650    -0.9070 C.2   1 <1>   0.2210 
 18 N        7.4030     2.4640    -0.3440 N.pl3 1 <1>  -0.5730 
 19 C        7.2700     3.8070    -0.6660 C.2   1 <1>   0.1560 
 20 C        8.6710     1.7590    -0.0090 C.3   1 <1>   0.3410 
 21 C        8.4550     4.7550    -0.7120 C.3   1 <1>  -0.1110 
 22 C        8.4810     0.2540     0.0930 C.2   1 <1>  -0.0490 
 23 O        7.8390    -0.2460     1.1350 O.3   1 <1>  -0.2880 
 24 C        8.8710    -0.7380    -0.7370 C.2   1 <1>  -0.1590 
 25 C        7.8220    -1.5580     1.0030 C.2   1 <1>  -0.0200 
 26 C        8.4360    -1.9270    -0.1400 C.2   1 <1>  -0.1590 
 27 H       -0.4500     1.6150    -0.5780 H     1 <1>   0.0710 
 28 H        0.0850     3.1880    -1.0810 H     1 <1>   0.0710 
 29 H        2.7360    -2.0270    -0.2520 H     1 <1>   0.0710 
 30 H        3.5520    -1.4550     1.1860 H     1 <1>   0.0710 
 31 H        4.4460    -1.6940    -0.3080 H     1 <1>   0.0710 
 32 H        6.0890    -0.0300     0.1680 H     1 <1>   0.4440 
 33 H       -1.7510     2.4600     1.5400 H     1 <1>   0.0710 
 34 H       -1.4390     4.0980     0.9940 H     1 <1>   0.0710 
 35 H       -0.9400     3.5950     2.5910 H     1 <1>   0.0710 
 36 H        5.4740     4.9870    -1.1810 H     1 <1>   0.1410 
 37 H        9.0540     2.1320     0.9260 H     1 <1>   0.0710 
 38 H        9.3980     1.9650    -0.7760 H     1 <1>   0.0710 
 39 H        8.9380     4.7950     0.2480 H     1 <1>   0.0710 
 40 H        8.1300     5.7480    -0.9700 H     1 <1>   0.0710 
 41 H        9.1670     4.4290    -1.4490 H     1 <1>   0.0710 
 42 H        9.4120    -0.6790    -1.6670 H     1 <1>   0.1410 
 43 H        7.3600    -2.1580     1.7700 H     1 <1>   0.1410 
 44 H        8.5920    -2.9180    -0.5330 H     1 <1>   0.1410 
@<TRIPOS>BOND
  1   1   2  2   
  2   2   3  am  
  3   2   4  am  
  4   3   5  am  
  5   3   6  1   
  6   4   7  1   
  7   4   8  1   
  8   5   9  2   
  9   5  10  1   
 10   6  11  1   
 11   6  27  1   
 12   6  28  1   
 13   7  10  2   
 14   7  12  1   
 15   8  29  1   
 16   8  30  1   
 17   8  31  1   
 18  10  13  1   
 19  11  14  2   
 20  11  15  1   
 21  12  16  ar  
 22  12  32  1   
 23  13  16  ar  
 24  13  17  1   
 25  15  33  1   
 26  15  34  1   
 27  15  35  1   
 28  16  18  ar  
 29  17  19  2   
 30  17  36  1   
 31  18  19  1   
 32  18  20  1   
 33  19  21  1   
 34  20  22  1   
 35  20  37  1   
 36  20  38  1   
 37  21  39  1   
 38  21  40  1   
 39  21  41  1   
 40  22  23  1   
 41  22  24  2   
 42  23  25  1   
 43  24  26  1   
 44  24  42  1   
 45  25  26  2   
 46  25  43  1   
 47  26  44  1   
@<TRIPOS>SUBSTRUCTURE
  1 ****   7 GROUP 4 **** **** 0

# MOE 2024.06 (io_trps.svl 2023.06)
