@<TRIPOS>MOLECULE
tert-Butyl-[3-(4-methoxy-phenyl)-[1,2,4]oxadiazol-5-ylmethyl]-amine
39 40 1 0 0 
SMALL
USER_CHARGES


@<TRIPOS>ATOM
  1 O       -0.0640    -1.0660     2.7770 O.3   1 <1>  -0.0190 
  2 N       -1.3530    -0.9680     2.7050 N.2   1 <1>  -0.4100 
  3 C        0.2890    -1.4150     1.5720 C.2   1 <1>   0.2980 
  4 C       -1.7160    -1.2510     1.5030 C.2   1 <1>   0.4620 
  5 N       -0.6570    -1.5500     0.7340 N.2   1 <1>  -0.5650 
  6 C        1.7700    -1.6250     1.2860 C.3   1 <1>   0.5230 
  7 C       -3.0830    -1.2570     1.0080 C.ar  1 <1>   0.0540 
  8 N        1.9760    -2.0220    -0.1460 N.4   1 <1>  -0.9060 
  9 C       -4.1550    -0.9390     1.8460 C.ar  1 <1>  -0.1500 
 10 C       -3.3880    -1.5780    -0.3170 C.ar  1 <1>  -0.1500 
 11 C        3.3420    -2.2650    -0.6000 C.3   1 <1>   0.5030 
 12 C       -5.4580    -0.9410     1.3860 C.ar  1 <1>  -0.1500 
 13 C       -4.6900    -1.5830    -0.7860 C.ar  1 <1>  -0.1500 
 14 C        3.2420    -2.6440    -2.0730 C.3   1 <1>  -0.2400 
 15 C        3.9500    -3.4170     0.1970 C.3   1 <1>  -0.2400 
 16 C        4.1690    -0.9900    -0.4440 C.3   1 <1>  -0.2400 
 17 C       -5.7390    -1.2620     0.0690 C.ar  1 <1>   0.0830 
 18 O       -7.0410    -1.2420    -0.3040 O.3   1 <1>  -0.3630 
 19 C       -7.4360    -1.5530    -1.6210 C.3   1 <1>   0.0400 
 20 H        2.1430    -2.3940     1.9410 H     1 <1>   0.0800 
 21 H        2.2960    -0.7100     1.4970 H     1 <1>   0.0800 
 22 H        1.5510    -1.2970    -0.7330 H     1 <1>   0.4500 
 23 H        1.4100    -2.8580    -0.3210 H     1 <1>   0.4500 
 24 H       -3.9690    -0.6850     2.8750 H     1 <1>   0.1500 
 25 H       -2.5950    -1.8290    -0.9980 H     1 <1>   0.1500 
 26 H       -6.2700    -0.6940     2.0460 H     1 <1>   0.1500 
 27 H       -4.8710    -1.8370    -1.8130 H     1 <1>   0.1500 
 28 H        2.6580    -3.5380    -2.2080 H     1 <1>   0.0800 
 29 H        4.2250    -2.8370    -2.4690 H     1 <1>   0.0800 
 30 H        2.8100    -1.8480    -2.6540 H     1 <1>   0.0800 
 31 H        3.3430    -4.3020     0.1260 H     1 <1>   0.0800 
 32 H        4.0900    -3.1600     1.2310 H     1 <1>   0.0800 
 33 H        4.9210    -3.6580    -0.2030 H     1 <1>   0.0800 
 34 H        3.7150    -0.1650    -0.9650 H     1 <1>   0.0800 
 35 H        5.1470    -1.1420    -0.8670 H     1 <1>   0.0800 
 36 H        4.3090    -0.7270     0.5890 H     1 <1>   0.0800 
 37 H       -8.5060    -1.4700    -1.6760 H     1 <1>   0.0800 
 38 H       -7.1350    -2.5610    -1.8470 H     1 <1>   0.0800 
 39 H       -6.9800    -0.8520    -2.2970 H     1 <1>   0.0800 
@<TRIPOS>BOND
  1   1   2  1   
  2   1   3  1   
  3   2   4  2   
  4   3   5  2   
  5   3   6  1   
  6   4   5  1   
  7   4   7  1   
  8   6   8  1   
  9   6  20  1   
 10   6  21  1   
 11   7   9  ar  
 12   7  10  ar  
 13   8  11  1   
 14   8  22  1   
 15   8  23  1   
 16   9  12  ar  
 17   9  24  1   
 18  10  13  ar  
 19  10  25  1   
 20  11  14  1   
 21  11  15  1   
 22  11  16  1   
 23  12  17  ar  
 24  12  26  1   
 25  13  17  ar  
 26  13  27  1   
 27  14  28  1   
 28  14  29  1   
 29  14  30  1   
 30  15  31  1   
 31  15  32  1   
 32  15  33  1   
 33  16  34  1   
 34  16  35  1   
 35  16  36  1   
 36  17  18  1   
 37  18  19  1   
 38  19  37  1   
 39  19  38  1   
 40  19  39  1   
@<TRIPOS>SUBSTRUCTURE
  1 ****   5 GROUP 4 **** **** 0

# MOE 2024.06 (io_trps.svl 2023.06)
