@<TRIPOS>MOLECULE
1-(2,5-Dimethoxy-benzenesulfonyl)-piperidine-4-carboxylic acid sec-butylamide
54 55 1 0 0 
SMALL
USER_CHARGES


@<TRIPOS>ATOM
  1 S       -0.2610    -0.2790    -1.4440 S.o2  1 <1>   1.4470 
  2 O        0.0250    -1.5420    -2.0910 O.2   1 <1>  -0.6500 
  3 O       -0.6650     0.8240    -2.2910 O.2   1 <1>  -0.6500 
  4 N        1.1760     0.1970    -0.6750 N.am  1 <1>  -0.8490 
  5 C       -1.4260    -0.6050    -0.0910 C.ar  1 <1>  -0.0090 
  6 C        1.0490     1.5120    -0.0370 C.3   1 <1>   0.1960 
  7 C        2.2990     0.1580    -1.6160 C.3   1 <1>   0.1960 
  8 C       -2.2500     0.3820     0.4460 C.ar  1 <1>   0.0830 
  9 C       -1.5040    -1.8810     0.4590 C.ar  1 <1>  -0.1500 
 10 C        2.3270     1.8700     0.7240 C.3   1 <1>  -0.1600 
 11 C        3.6160     0.4760    -0.9040 C.3   1 <1>  -0.1600 
 12 O       -2.1970     1.6500    -0.0130 O.3   1 <1>  -0.3620 
 13 C       -3.1230     0.1030     1.4880 C.ar  1 <1>  -0.1500 
 14 C       -2.3810    -2.1740     1.4990 C.ar  1 <1>   0.0830 
 15 C        3.5530     1.8410    -0.2020 C.3   1 <1>  -0.0190 
 16 C       -3.2480     2.0510    -0.8650 C.3   1 <1>   0.0400 
 17 C       -3.1900    -1.1740     2.0090 C.ar  1 <1>  -0.1500 
 18 O       -2.5000    -3.4020     2.0640 O.3   1 <1>  -0.3630 
 19 C        4.8500     2.1410     0.5460 C.2   1 <1>   0.5690 
 20 C       -1.7190    -4.4900     1.6190 C.3   1 <1>   0.0400 
 21 O        5.1270     1.4950     1.5280 O.2   1 <1>  -0.5700 
 22 N        5.6520     3.1290     0.0590 N.am  1 <1>  -0.7300 
 23 C        6.9770     3.5520     0.5610 C.3   1 <1>   0.2200 
 24 C        7.9940     2.4010     0.5010 C.3   1 <1>  -0.1600 
 25 C        6.8370     4.1210     1.9720 C.3   1 <1>  -0.2400 
 26 C        8.1870     1.8310    -0.9120 C.3   1 <1>  -0.2400 
 27 H        0.2350     1.4980     0.6660 H     1 <1>   0.0800 
 28 H        0.8380     2.2650    -0.7800 H     1 <1>   0.0800 
 29 H        2.1290     0.8620    -2.4150 H     1 <1>   0.0800 
 30 H        2.3770    -0.8260    -2.0490 H     1 <1>   0.0800 
 31 H       -0.8640    -2.6420     0.0550 H     1 <1>   0.1500 
 32 H        2.4590     1.1660     1.5290 H     1 <1>   0.0800 
 33 H        2.2240     2.8470     1.1590 H     1 <1>   0.0800 
 34 H        4.4190     0.4710    -1.6190 H     1 <1>   0.0800 
 35 H        3.8160    -0.2960    -0.1810 H     1 <1>   0.0800 
 36 H       -3.7410     0.8850     1.8910 H     1 <1>   0.1500 
 37 H        3.4160     2.5970    -0.9540 H     1 <1>   0.0800 
 38 H       -3.0520     3.0570    -1.1890 H     1 <1>   0.0800 
 39 H       -4.1770     2.0100    -0.3260 H     1 <1>   0.0800 
 40 H       -3.2770     1.3930    -1.7170 H     1 <1>   0.0800 
 41 H       -3.8640    -1.4030     2.8150 H     1 <1>   0.1500 
 42 H       -1.9830    -5.3520     2.2040 H     1 <1>   0.0800 
 43 H       -0.6790    -4.2560     1.7630 H     1 <1>   0.0800 
 44 H       -1.9330    -4.6740     0.5810 H     1 <1>   0.0800 
 45 H        5.3600     3.6170    -0.7850 H     1 <1>   0.3700 
 46 H        7.3330     4.3420    -0.0790 H     1 <1>   0.0800 
 47 H        7.6920     1.6140     1.1700 H     1 <1>   0.0800 
 48 H        8.9420     2.7670     0.8530 H     1 <1>   0.0800 
 49 H        6.5350     3.3550     2.6640 H     1 <1>   0.0800 
 50 H        6.1110     4.9140     1.9830 H     1 <1>   0.0800 
 51 H        7.7790     4.5180     2.3010 H     1 <1>   0.0800 
 52 H        7.2750     1.3820    -1.2660 H     1 <1>   0.0800 
 53 H        8.9510     1.0740    -0.8990 H     1 <1>   0.0800 
 54 H        8.4830     2.6070    -1.5960 H     1 <1>   0.0800 
@<TRIPOS>BOND
  1   1   2  2   
  2   1   3  2   
  3   1   4  am  
  4   1   5  1   
  5   4   6  1   
  6   4   7  1   
  7   5   8  ar  
  8   5   9  ar  
  9   6  10  1   
 10   6  27  1   
 11   6  28  1   
 12   7  11  1   
 13   7  29  1   
 14   7  30  1   
 15   8  12  1   
 16   8  13  ar  
 17   9  14  ar  
 18   9  31  1   
 19  10  15  1   
 20  10  32  1   
 21  10  33  1   
 22  11  15  1   
 23  11  34  1   
 24  11  35  1   
 25  12  16  1   
 26  13  17  ar  
 27  13  36  1   
 28  14  17  ar  
 29  14  18  1   
 30  15  19  1   
 31  15  37  1   
 32  16  38  1   
 33  16  39  1   
 34  16  40  1   
 35  17  41  1   
 36  18  20  1   
 37  19  21  2   
 38  19  22  am  
 39  20  42  1   
 40  20  43  1   
 41  20  44  1   
 42  22  23  1   
 43  22  45  1   
 44  23  24  1   
 45  23  25  1   
 46  23  46  1   
 47  24  26  1   
 48  24  47  1   
 49  24  48  1   
 50  25  49  1   
 51  25  50  1   
 52  25  51  1   
 53  26  52  1   
 54  26  53  1   
 55  26  54  1   
@<TRIPOS>SUBSTRUCTURE
  1 ****   4 GROUP 4 **** **** 0

# MOE 2024.06 (io_trps.svl 2023.06)
