@<TRIPOS>MOLECULE
Isopropyl-(3-m-tolyl-[1,2,4]oxadiazol-5-ylmethyl)-amine
35 36 1 0 0 
SMALL
USER_CHARGES


@<TRIPOS>ATOM
  1 O       -0.7870    -0.9020     2.4420 O.3   1 <1>  -0.0190 
  2 N       -2.0340    -0.7030     2.1590 N.2   1 <1>  -0.4100 
  3 C       -0.2540    -1.2160     1.2950 C.2   1 <1>   0.2980 
  4 C       -2.2020    -0.8960     0.8980 C.2   1 <1>   0.4620 
  5 N       -1.0480    -1.2350     0.3020 N.2   1 <1>  -0.5650 
  6 C        1.2370    -1.5230     1.2490 C.3   1 <1>   0.5230 
  7 C       -3.4590    -0.7740     0.1780 C.ar  1 <1>   0.0540 
  8 N        1.6450    -1.9340    -0.1330 N.4   1 <1>  -0.9060 
  9 C       -4.6370    -0.4200     0.8410 C.ar  1 <1>  -0.1500 
 10 C       -3.5470    -1.0030    -1.1960 C.ar  1 <1>  -0.1500 
 11 C        3.0820    -2.1310    -0.3420 C.3   1 <1>   0.4230 
 12 C       -5.8440    -0.2970     0.1740 C.ar  1 <1>  -0.1430 
 13 C       -4.7470    -0.8840    -1.8730 C.ar  1 <1>  -0.1500 
 14 C        3.3050    -2.2870    -1.8400 C.3   1 <1>  -0.2400 
 15 C        3.5360    -3.3810     0.4060 C.3   1 <1>  -0.2400 
 16 C       -5.8950    -0.5320    -1.1890 C.ar  1 <1>  -0.1500 
 17 C       -7.1080     0.0880     0.9210 C.3   1 <1>  -0.0970 
 18 H        1.4520    -2.3120     1.9490 H     1 <1>   0.0800 
 19 H        1.7790    -0.6410     1.5470 H     1 <1>   0.0800 
 20 H        1.2870    -1.2200    -0.7810 H     1 <1>   0.4500 
 21 H        1.1320    -2.7870    -0.3830 H     1 <1>   0.4500 
 22 H       -4.6050    -0.2380     1.9010 H     1 <1>   0.1500 
 23 H       -2.6680    -1.2770    -1.7500 H     1 <1>   0.1500 
 24 H        3.6330    -1.2720     0.0100 H     1 <1>   0.0800 
 25 H       -4.7920    -1.0660    -2.9330 H     1 <1>   0.1500 
 26 H        2.7750    -3.1390    -2.2300 H     1 <1>   0.0800 
 27 H        4.3530    -2.4330    -2.0360 H     1 <1>   0.0800 
 28 H        2.9970    -1.4020    -2.3670 H     1 <1>   0.0800 
 29 H        2.9840    -4.2490     0.0900 H     1 <1>   0.0800 
 30 H        3.4390    -3.2600     1.4700 H     1 <1>   0.0800 
 31 H        4.5770    -3.5620     0.2010 H     1 <1>   0.0800 
 32 H       -6.8270    -0.4420    -1.7200 H     1 <1>   0.1500 
 33 H       -6.8760     0.4630     1.9010 H     1 <1>   0.0800 
 34 H       -7.7470    -0.7710     1.0220 H     1 <1>   0.0800 
 35 H       -7.6370     0.8530     0.3810 H     1 <1>   0.0800 
@<TRIPOS>BOND
  1   1   2  1   
  2   1   3  1   
  3   2   4  2   
  4   3   5  2   
  5   3   6  1   
  6   4   5  1   
  7   4   7  1   
  8   6   8  1   
  9   6  18  1   
 10   6  19  1   
 11   7   9  ar  
 12   7  10  ar  
 13   8  11  1   
 14   8  20  1   
 15   8  21  1   
 16   9  12  ar  
 17   9  22  1   
 18  10  13  ar  
 19  10  23  1   
 20  11  14  1   
 21  11  15  1   
 22  11  24  1   
 23  12  16  ar  
 24  12  17  1   
 25  13  16  ar  
 26  13  25  1   
 27  14  26  1   
 28  14  27  1   
 29  14  28  1   
 30  15  29  1   
 31  15  30  1   
 32  15  31  1   
 33  16  32  1   
 34  17  33  1   
 35  17  34  1   
 36  17  35  1   
@<TRIPOS>SUBSTRUCTURE
  1 ****   5 GROUP 4 **** **** 0

# MOE 2024.06 (io_trps.svl 2023.06)
