@<TRIPOS>MOLECULE
1-(5-Chloro-2-ethoxy-benzenesulfonyl)-piperidine-4-carboxylic acid (pyridin-4-yl
53 55 1 0 0 
SMALL
USER_CHARGES


@<TRIPOS>ATOM
  1 CL       0.2920     0.5790     2.1680 Cl    1 <1>  -0.1770 
  2 C        0.3650     2.2200     1.5780 C.ar  1 <1>   0.1770 
  3 C        1.2770     2.5450     0.5930 C.ar  1 <1>  -0.1500 
  4 C       -0.4890     3.1660     2.1080 C.ar  1 <1>  -0.1500 
  5 C        1.3570     3.8430     0.0960 C.ar  1 <1>  -0.0090 
  6 C       -0.4190     4.4630     1.6360 C.ar  1 <1>  -0.1500 
  7 S        2.5680     4.2430    -1.1950 S.o2  1 <1>   1.4470 
  8 C        0.4930     4.7940     0.6420 C.ar  1 <1>   0.0830 
  9 O        2.9110     3.0080    -1.8670 O.2   1 <1>  -0.6500 
 10 O        2.1670     5.3610    -2.0230 O.2   1 <1>  -0.6500 
 11 N        3.9610     4.7290    -0.3540 N.am  1 <1>  -0.8490 
 12 O        0.5480     6.0770     0.2360 O.3   1 <1>  -0.3630 
 13 C        3.7860     6.0340     0.2960 C.3   1 <1>   0.1960 
 14 C        5.1260     4.7240    -1.2420 C.3   1 <1>   0.1960 
 15 C       -0.4760     6.5180    -0.6250 C.3   1 <1>   0.1200 
 16 C        5.0200     6.3910     1.1260 C.3   1 <1>  -0.1600 
 17 C        6.4030     5.0410    -0.4610 C.3   1 <1>  -0.1600 
 18 C       -0.1430     7.9420    -1.0580 C.3   1 <1>  -0.2400 
 19 C        6.2950     6.3900     0.2650 C.3   1 <1>  -0.0190 
 20 C        7.5620     6.6810     1.0680 C.2   1 <1>   0.5690 
 21 O        7.6510     6.3230     2.2170 O.2   1 <1>  -0.5700 
 22 N        8.5800     7.3230     0.4450 N.am  1 <1>  -0.7300 
 23 C        9.9140     7.5460     1.0330 C.3   1 <1>   0.2840 
 24 C       10.9390     6.9130     0.1130 C.ar  1 <1>  -0.1430 
 25 C       11.7940     7.6590    -0.6740 C.ar  1 <1>  -0.1500 
 26 C       11.0600     5.5410     0.0150 C.ar  1 <1>  -0.1500 
 27 C       12.7020     7.0140    -1.4970 C.ar  1 <1>   0.1600 
 28 C       12.0020     4.9960    -0.8410 C.ar  1 <1>   0.1600 
 29 N       12.8240     5.7000    -1.6010 N.ar  1 <1>  -0.6200 
 30 H        1.9290     1.7790     0.2090 H     1 <1>   0.1500 
 31 H       -1.1890     2.8890     2.8760 H     1 <1>   0.1500 
 32 H       -1.0640     5.2230     2.0420 H     1 <1>   0.1500 
 33 H        2.9390     6.0000     0.9580 H     1 <1>   0.0800 
 34 H        3.6040     6.7970    -0.4450 H     1 <1>   0.0800 
 35 H        4.9840     5.4430    -2.0330 H     1 <1>   0.0800 
 36 H        5.2370     3.7510    -1.6920 H     1 <1>   0.0800 
 37 H       -1.4130     6.4840    -0.0960 H     1 <1>   0.0800 
 38 H       -0.5120     5.8620    -1.4790 H     1 <1>   0.0800 
 39 H        5.1150     5.6750     1.9250 H     1 <1>   0.0800 
 40 H        4.8850     7.3600     1.5720 H     1 <1>   0.0800 
 41 H        7.2380     5.0560    -1.1390 H     1 <1>   0.0800 
 42 H        6.5760     4.2560     0.2550 H     1 <1>   0.0800 
 43 H       -0.0830     8.5880    -0.2000 H     1 <1>   0.0800 
 44 H       -0.9090     8.3110    -1.7150 H     1 <1>   0.0800 
 45 H        0.7940     7.9530    -1.5850 H     1 <1>   0.0800 
 46 H        6.1900     7.1650    -0.4740 H     1 <1>   0.0800 
 47 H        8.5170     7.5410    -0.5490 H     1 <1>   0.3700 
 48 H        9.9750     7.1010     2.0130 H     1 <1>   0.0800 
 49 H       10.0910     8.6030     1.1300 H     1 <1>   0.0800 
 50 H       11.7660     8.7330    -0.6560 H     1 <1>   0.1500 
 51 H       10.4270     4.8960     0.5990 H     1 <1>   0.1500 
 52 H       13.3640     7.6090    -2.1040 H     1 <1>   0.1500 
 53 H       12.0810     3.9240    -0.9030 H     1 <1>   0.1500 
@<TRIPOS>BOND
  1   1   2  1   
  2   2   3  ar  
  3   2   4  ar  
  4   3   5  ar  
  5   3  30  1   
  6   4   6  ar  
  7   4  31  1   
  8   5   7  1   
  9   5   8  ar  
 10   6   8  ar  
 11   6  32  1   
 12   7   9  2   
 13   7  10  2   
 14   7  11  am  
 15   8  12  1   
 16  11  13  1   
 17  11  14  1   
 18  12  15  1   
 19  13  16  1   
 20  13  33  1   
 21  13  34  1   
 22  14  17  1   
 23  14  35  1   
 24  14  36  1   
 25  15  18  1   
 26  15  37  1   
 27  15  38  1   
 28  16  19  1   
 29  16  39  1   
 30  16  40  1   
 31  17  19  1   
 32  17  41  1   
 33  17  42  1   
 34  18  43  1   
 35  18  44  1   
 36  18  45  1   
 37  19  20  1   
 38  19  46  1   
 39  20  21  2   
 40  20  22  am  
 41  22  23  1   
 42  22  47  1   
 43  23  24  1   
 44  23  48  1   
 45  23  49  1   
 46  24  25  ar  
 47  24  26  ar  
 48  25  27  ar  
 49  25  50  1   
 50  26  28  ar  
 51  26  51  1   
 52  27  29  ar  
 53  27  52  1   
 54  28  29  ar  
 55  28  53  1   
@<TRIPOS>SUBSTRUCTURE
  1 ****  11 GROUP 4 **** **** 0

# MOE 2024.06 (io_trps.svl 2023.06)
