@<TRIPOS>MOLECULE
2-(1,1-Dioxo-1H-1lambda*6*-naphtho[1,8-cd]isothiazol-2-yl)-N,N-diethyl-propionam
43 45 1 0 0 
SMALL
USER_CHARGES


@<TRIPOS>ATOM
  1 S        1.2840     0.8540    -0.1290 S.o2  1 <1>   1.4470 
  2 O        1.9200     1.6540    -1.1500 O.2   1 <1>  -0.6500 
  3 O        0.3670     1.4290     0.8260 O.2   1 <1>  -0.6500 
  4 N        2.5420     0.0700     0.7620 N.am  1 <1>  -0.6930 
  5 C        0.7030    -0.7110    -0.7790 C.ar  1 <1>  -0.0090 
  6 C        2.5100    -1.3180     0.6290 C.ar  1 <1>   0.1990 
  7 C        3.6240     0.9220     1.3320 C.3   1 <1>   0.3370 
  8 C        1.4880    -1.7350    -0.2470 C.ar  1 <1>   0.0000 
  9 C       -0.3140    -1.0160    -1.6480 C.ar  1 <1>  -0.1500 
 10 C        3.3000    -2.2740     1.2230 C.ar  1 <1>  -0.1500 
 11 C        5.0690     0.3680     1.1680 C.2   1 <1>   0.5690 
 12 C        3.2430     1.2100     2.7910 C.3   1 <1>  -0.2400 
 13 C        1.2690    -3.0800    -0.5610 C.ar  1 <1>   0.0000 
 14 C       -0.5520    -2.3580    -1.9890 C.ar  1 <1>  -0.1500 
 15 C        3.1000    -3.6290     0.9270 C.ar  1 <1>  -0.1500 
 16 O        5.6310    -0.0490     2.1590 O.2   1 <1>  -0.5700 
 17 N        5.7210     0.3600    -0.0500 N.am  1 <1>  -0.6600 
 18 C        0.2190    -3.3620    -1.4590 C.ar  1 <1>  -0.1500 
 19 C        2.1130    -4.0240     0.0550 C.ar  1 <1>  -0.1500 
 20 C        7.1140    -0.1610    -0.1470 C.3   1 <1>   0.1400 
 21 C        5.0760     0.6940    -1.3500 C.3   1 <1>   0.1400 
 22 C        8.1110     0.9470     0.1840 C.3   1 <1>  -0.2400 
 23 C        5.2220     2.1830    -1.6540 C.3   1 <1>  -0.2400 
 24 H        3.6080     1.8660     0.8180 H     1 <1>   0.0800 
 25 H       -0.9320    -0.2420    -2.0710 H     1 <1>   0.1500 
 26 H        4.0710    -2.0060     1.9200 H     1 <1>   0.1500 
 27 H        3.9710     1.8650     3.2340 H     1 <1>   0.0800 
 28 H        3.2220     0.2950     3.3560 H     1 <1>   0.0800 
 29 H        2.2800     1.6840     2.8440 H     1 <1>   0.0800 
 30 H       -1.3520    -2.5850    -2.6740 H     1 <1>   0.1500 
 31 H        3.7350    -4.3600     1.3980 H     1 <1>   0.1500 
 32 H        0.0330    -4.3890    -1.7210 H     1 <1>   0.1500 
 33 H        1.9680    -5.0660    -0.1680 H     1 <1>   0.1500 
 34 H        7.3050    -0.5440    -1.1350 H     1 <1>   0.0800 
 35 H        7.2420    -0.9750     0.5470 H     1 <1>   0.0800 
 36 H        4.0390     0.4210    -1.3270 H     1 <1>   0.0800 
 37 H        5.5270     0.1210    -2.1420 H     1 <1>   0.0800 
 38 H        8.0390     1.7510    -0.5230 H     1 <1>   0.0800 
 39 H        9.1110     0.5530     0.1500 H     1 <1>   0.0800 
 40 H        7.9290     1.3220     1.1750 H     1 <1>   0.0800 
 41 H        4.8170     2.7800    -0.8590 H     1 <1>   0.0800 
 42 H        4.6800     2.4150    -2.5540 H     1 <1>   0.0800 
 43 H        6.2530     2.4400    -1.8070 H     1 <1>   0.0800 
@<TRIPOS>BOND
  1   1   2  2   
  2   1   3  2   
  3   1   4  am  
  4   1   5  1   
  5   4   6  1   
  6   4   7  1   
  7   5   8  ar  
  8   5   9  ar  
  9   6   8  ar  
 10   6  10  ar  
 11   7  11  1   
 12   7  12  1   
 13   7  24  1   
 14   8  13  ar  
 15   9  14  ar  
 16   9  25  1   
 17  10  15  ar  
 18  10  26  1   
 19  11  16  2   
 20  11  17  am  
 21  12  27  1   
 22  12  28  1   
 23  12  29  1   
 24  13  18  ar  
 25  13  19  ar  
 26  14  18  ar  
 27  14  30  1   
 28  15  19  ar  
 29  15  31  1   
 30  17  20  1   
 31  17  21  1   
 32  18  32  1   
 33  19  33  1   
 34  20  22  1   
 35  20  34  1   
 36  20  35  1   
 37  21  23  1   
 38  21  36  1   
 39  21  37  1   
 40  22  38  1   
 41  22  39  1   
 42  22  40  1   
 43  23  41  1   
 44  23  42  1   
 45  23  43  1   
@<TRIPOS>SUBSTRUCTURE
  1 ****   4 GROUP 4 **** **** 0

# MOE 2024.06 (io_trps.svl 2023.06)
