@<TRIPOS>MOLECULE
Benzo[1,3]dioxole-5-carboxylic acid [4-(3-ethoxy-propylsulfamoyl)-phenyl]-amide
50 52 1 0 0 
SMALL
USER_CHARGES


@<TRIPOS>ATOM
  1 S       -0.2110    -0.1210    -1.7460 S.o2  1 <1>   1.4470 
  2 O        1.0860    -0.7570    -1.7550 O.2   1 <1>  -0.6500 
  3 O       -0.6770     0.5890    -2.9150 O.2   1 <1>  -0.6500 
  4 N       -0.0930     0.9990    -0.5040 N.am  1 <1>  -0.9140 
  5 C       -1.4790    -1.2770    -1.1600 C.ar  1 <1>  -0.0090 
  6 C        0.5200     2.2420    -0.9280 C.3   1 <1>   0.1960 
  7 C       -1.2720    -2.6510    -1.1850 C.ar  1 <1>  -0.1500 
  8 C       -2.7000    -0.8200    -0.6790 C.ar  1 <1>  -0.1500 
  9 C        0.7400     3.1250     0.2960 C.3   1 <1>  -0.1600 
 10 C       -2.2410    -3.5320    -0.7400 C.ar  1 <1>  -0.1500 
 11 C       -3.6720    -1.6980    -0.2330 C.ar  1 <1>  -0.1500 
 12 C        1.3510     4.4650    -0.1070 C.3   1 <1>   0.1200 
 13 C       -3.4570    -3.0720    -0.2510 C.ar  1 <1>   0.1170 
 14 O        1.5610     5.1940     1.0540 O.3   1 <1>  -0.5600 
 15 N       -4.4090    -4.0060     0.1790 N.am  1 <1>  -0.5470 
 16 C        2.1040     6.4530     0.8430 C.3   1 <1>   0.1200 
 17 C       -5.4420    -3.9020     1.0860 C.2   1 <1>   0.5440 
 18 C        2.2720     7.1140     2.2050 C.3   1 <1>  -0.2400 
 19 O       -5.6470    -2.8530     1.6610 O.2   1 <1>  -0.5700 
 20 C       -6.2870    -5.0530     1.3450 C.ar  1 <1>   0.0860 
 21 C       -5.7930    -6.3620     1.2640 C.ar  1 <1>  -0.1500 
 22 C       -7.6390    -4.8810     1.6880 C.ar  1 <1>  -0.1500 
 23 C       -6.6460    -7.4180     1.5020 C.ar  1 <1>   0.0830 
 24 C       -8.4850    -5.9550     1.9290 C.ar  1 <1>  -0.1500 
 25 O       -6.3710    -8.7260     1.4670 O.3   1 <1>  -0.3630 
 26 C       -7.9570    -7.2250     1.8240 C.ar  1 <1>   0.0830 
 27 C       -7.5810    -9.4090     1.7940 C.3   1 <1>   0.4000 
 28 O       -8.5640    -8.3980     2.0060 O.3   1 <1>  -0.3620 
 29 H        0.5490     0.5600     0.1540 H     1 <1>   0.4200 
 30 H       -0.1300     2.7430    -1.6290 H     1 <1>   0.0800 
 31 H        1.4630     2.0420    -1.4140 H     1 <1>   0.0800 
 32 H       -0.3360    -3.0360    -1.5570 H     1 <1>   0.1500 
 33 H       -2.8920     0.2400    -0.6530 H     1 <1>   0.1500 
 34 H        1.4050     2.6320     0.9820 H     1 <1>   0.0800 
 35 H       -0.2050     3.3050     0.7800 H     1 <1>   0.0800 
 36 H       -2.0450    -4.5890    -0.7690 H     1 <1>   0.1500 
 37 H       -4.6050    -1.3050     0.1270 H     1 <1>   0.1500 
 38 H        0.6790     5.0140    -0.7450 H     1 <1>   0.0800 
 39 H        2.2980     4.3220    -0.5990 H     1 <1>   0.0800 
 40 H       -4.3160    -4.9260    -0.2450 H     1 <1>   0.3700 
 41 H        1.4320     7.0240     0.2240 H     1 <1>   0.0800 
 42 H        3.0580     6.3450     0.3530 H     1 <1>   0.0800 
 43 H        1.3170     7.2050     2.6900 H     1 <1>   0.0800 
 44 H        2.6930     8.0960     2.0850 H     1 <1>   0.0800 
 45 H        2.9320     6.5290     2.8190 H     1 <1>   0.0800 
 46 H       -4.7650    -6.5660     1.0320 H     1 <1>   0.1500 
 47 H       -8.0270    -3.8790     1.7670 H     1 <1>   0.1500 
 48 H       -9.5190    -5.8150     2.1900 H     1 <1>   0.1500 
 49 H       -7.4450    -9.9750     2.6980 H     1 <1>   0.0800 
 50 H       -7.8780   -10.0350     0.9710 H     1 <1>   0.0800 
@<TRIPOS>BOND
  1   1   2  2   
  2   1   3  2   
  3   1   4  am  
  4   1   5  1   
  5   4   6  1   
  6   4  29  1   
  7   5   7  ar  
  8   5   8  ar  
  9   6   9  1   
 10   6  30  1   
 11   6  31  1   
 12   7  10  ar  
 13   7  32  1   
 14   8  11  ar  
 15   8  33  1   
 16   9  12  1   
 17   9  34  1   
 18   9  35  1   
 19  10  13  ar  
 20  10  36  1   
 21  11  13  ar  
 22  11  37  1   
 23  12  14  1   
 24  12  38  1   
 25  12  39  1   
 26  13  15  1   
 27  14  16  1   
 28  15  17  am  
 29  15  40  1   
 30  16  18  1   
 31  16  41  1   
 32  16  42  1   
 33  17  19  2   
 34  17  20  1   
 35  18  43  1   
 36  18  44  1   
 37  18  45  1   
 38  20  21  ar  
 39  20  22  ar  
 40  21  23  ar  
 41  21  46  1   
 42  22  24  ar  
 43  22  47  1   
 44  23  25  1   
 45  23  26  ar  
 46  24  26  ar  
 47  24  48  1   
 48  25  27  1   
 49  26  28  1   
 50  27  28  1   
 51  27  49  1   
 52  27  50  1   
@<TRIPOS>SUBSTRUCTURE
  1 ****  11 GROUP 4 **** **** 0

# MOE 2024.06 (io_trps.svl 2023.06)
