@<TRIPOS>MOLECULE
5-Ethoxy-4-methoxy-2-methyl-benzaldehyde
28 28 1 0 0 
SMALL
USER_CHARGES


@<TRIPOS>ATOM
  1 O       -0.2890    -0.0960    -0.0010 O.2   1 <1>  -0.5700 
  2 C       -1.2780    -0.7860    -0.0160 C.2   1 <1>   0.4240 
  3 C       -1.2870    -2.2310    -0.0280 C.ar  1 <1>   0.0860 
  4 C       -2.4710    -2.9840    -0.0450 C.ar  1 <1>  -0.1440 
  5 C       -0.0760    -2.9250    -0.0210 C.ar  1 <1>  -0.1500 
  6 C       -2.4200    -4.3690    -0.0550 C.ar  1 <1>  -0.1500 
  7 C       -3.8410    -2.3140    -0.0540 C.3   1 <1>  -0.0960 
  8 C       -0.0190    -4.3110    -0.0310 C.ar  1 <1>   0.0830 
  9 C       -1.2050    -5.0460    -0.0480 C.ar  1 <1>   0.0830 
 10 O        1.1600    -4.9990    -0.0240 O.3   1 <1>  -0.3630 
 11 O       -1.1230    -6.4030    -0.0580 O.3   1 <1>  -0.3630 
 12 C        2.4050    -4.3420    -0.0060 C.3   1 <1>   0.1200 
 13 C       -2.2610    -7.2340    -0.0760 C.3   1 <1>   0.0400 
 14 C        3.4980    -5.4060    -0.0040 C.3   1 <1>  -0.2400 
 15 H       -2.2250    -0.2800    -0.0220 H     1 <1>   0.0600 
 16 H        0.8250    -2.3420    -0.0070 H     1 <1>   0.1500 
 17 H       -3.3400    -4.9210    -0.0690 H     1 <1>   0.1500 
 18 H       -3.9470    -1.6940    -0.9270 H     1 <1>   0.0800 
 19 H       -3.9650    -1.7080     0.8260 H     1 <1>   0.0800 
 20 H       -4.6320    -3.0430    -0.0680 H     1 <1>   0.0800 
 21 H        2.4600    -3.7380     0.8830 H     1 <1>   0.0800 
 22 H        2.4780    -3.7240    -0.8850 H     1 <1>   0.0800 
 23 H       -1.9250    -8.2560    -0.0800 H     1 <1>   0.0800 
 24 H       -2.8270    -7.0320    -0.9670 H     1 <1>   0.0800 
 25 H       -2.8440    -7.0450     0.8080 H     1 <1>   0.0800 
 26 H        3.4040    -6.0270     0.8690 H     1 <1>   0.0800 
 27 H        4.4640    -4.9360     0.0100 H     1 <1>   0.0800 
 28 H        3.4210    -6.0140    -0.8870 H     1 <1>   0.0800 
@<TRIPOS>BOND
  1   1   2  2   
  2   2   3  1   
  3   2  15  1   
  4   3   4  ar  
  5   3   5  ar  
  6   4   6  ar  
  7   4   7  1   
  8   5   8  ar  
  9   5  16  1   
 10   6   9  ar  
 11   6  17  1   
 12   7  18  1   
 13   7  19  1   
 14   7  20  1   
 15   8   9  ar  
 16   8  10  1   
 17   9  11  1   
 18  10  12  1   
 19  11  13  1   
 20  12  14  1   
 21  12  21  1   
 22  12  22  1   
 23  13  23  1   
 24  13  24  1   
 25  13  25  1   
 26  14  26  1   
 27  14  27  1   
 28  14  28  1   
@<TRIPOS>SUBSTRUCTURE
  1 ****   8 GROUP 4 **** **** 0

# MOE 2024.06 (io_trps.svl 2023.06)
