@<TRIPOS>MOLECULE
1-(4-Bromo-3,5-dimethyl-pyrazol-1-yl)-3-(indan-5-yloxy)-propan-2-ol
43 45 1 0 0 
SMALL
USER_CHARGES


@<TRIPOS>ATOM
  1 BR       1.2270     0.7060     0.6410 Br    1 <1>  -0.0570 
  2 C        1.7810    -1.0890     0.1540 C.2   1 <1>   0.0570 
  3 C        1.1020    -1.9240    -0.7180 C.2   1 <1>   0.1080 
  4 C        2.8750    -1.7460     0.5820 C.2   1 <1>  -0.3320 
  5 N        1.7280    -3.0540    -0.8440 N.2   1 <1>  -0.7070 
  6 C       -0.1850    -1.6070    -1.4460 C.3   1 <1>  -0.0590 
  7 N        2.8200    -2.9520    -0.0390 N.pl3 1 <1>   0.3140 
  8 C        3.9640    -1.2880     1.5400 C.3   1 <1>  -0.0600 
  9 C        3.7970    -4.0570     0.0620 C.3   1 <1>   0.0960 
 10 C        4.5210    -4.2620    -1.2750 C.3   1 <1>   0.2000 
 11 O        3.5980    -4.6440    -2.2370 O.3   1 <1>  -0.6800 
 12 C        5.6000    -5.3430    -1.1980 C.3   1 <1>   0.1200 
 13 O        6.5100    -5.0130    -0.1660 O.3   1 <1>  -0.3630 
 14 C        7.5560    -5.8230     0.1310 C.ar  1 <1>   0.0830 
 15 C        7.8260    -7.0150    -0.5420 C.ar  1 <1>  -0.1500 
 16 C        8.3860    -5.4150     1.1680 C.ar  1 <1>  -0.1500 
 17 C        8.9190    -7.7690    -0.1570 C.ar  1 <1>  -0.1430 
 18 C        9.4790    -6.1790     1.5440 C.ar  1 <1>  -0.1500 
 19 C        9.7320    -7.3590     0.8690 C.ar  1 <1>  -0.1430 
 20 C        9.3930    -9.0770    -0.7400 C.3   1 <1>  -0.0170 
 21 C       10.8540    -8.3380     1.1070 C.3   1 <1>  -0.0170 
 22 C       10.4370    -9.5660     0.2790 C.3   1 <1>  -0.1600 
 23 H        0.0360    -1.0690    -2.3490 H     1 <1>   0.0800 
 24 H       -0.8260    -1.0100    -0.8240 H     1 <1>   0.0800 
 25 H       -0.6940    -2.5190    -1.6970 H     1 <1>   0.0800 
 26 H        3.7700    -0.2840     1.8740 H     1 <1>   0.0800 
 27 H        4.9220    -1.3040     1.0520 H     1 <1>   0.0800 
 28 H        3.9970    -1.9310     2.4020 H     1 <1>   0.0800 
 29 H        3.2790    -4.9540     0.3420 H     1 <1>   0.0800 
 30 H        4.5080    -3.8230     0.8310 H     1 <1>   0.0800 
 31 H        4.9660    -3.3370    -1.5990 H     1 <1>   0.0800 
 32 H        2.7670    -4.1180    -2.0930 H     1 <1>   0.4000 
 33 H        6.1420    -5.3930    -2.1250 H     1 <1>   0.0800 
 34 H        5.1570    -6.2950    -0.9640 H     1 <1>   0.0800 
 35 H        7.2120    -7.3640    -1.3490 H     1 <1>   0.1500 
 36 H        8.1710    -4.4950     1.6780 H     1 <1>   0.1500 
 37 H       10.1200    -5.8610     2.3470 H     1 <1>   0.1500 
 38 H        9.8520    -8.8970    -1.6960 H     1 <1>   0.0800 
 39 H        8.5860    -9.7800    -0.8470 H     1 <1>   0.0800 
 40 H       10.9550    -8.5800     2.1500 H     1 <1>   0.0800 
 41 H       11.7750    -7.9240     0.7360 H     1 <1>   0.0800 
 42 H       11.2800   -10.0290    -0.2020 H     1 <1>   0.0800 
 43 H        9.9710   -10.2810     0.9350 H     1 <1>   0.0800 
@<TRIPOS>BOND
  1   1   2  1   
  2   2   3  1   
  3   2   4  2   
  4   3   5  2   
  5   3   6  1   
  6   4   7  1   
  7   4   8  1   
  8   5   7  1   
  9   6  23  1   
 10   6  24  1   
 11   6  25  1   
 12   7   9  1   
 13   8  26  1   
 14   8  27  1   
 15   8  28  1   
 16   9  10  1   
 17   9  29  1   
 18   9  30  1   
 19  10  11  1   
 20  10  12  1   
 21  10  31  1   
 22  11  32  1   
 23  12  13  1   
 24  12  33  1   
 25  12  34  1   
 26  13  14  1   
 27  14  15  ar  
 28  14  16  ar  
 29  15  17  ar  
 30  15  35  1   
 31  16  18  ar  
 32  16  36  1   
 33  17  19  ar  
 34  17  20  1   
 35  18  19  ar  
 36  18  37  1   
 37  19  21  1   
 38  20  22  1   
 39  20  38  1   
 40  20  39  1   
 41  21  22  1   
 42  21  40  1   
 43  21  41  1   
 44  22  42  1   
 45  22  43  1   
@<TRIPOS>SUBSTRUCTURE
  1 ****  13 GROUP 4 **** **** 0

# MOE 2024.06 (io_trps.svl 2023.06)
