@<TRIPOS>MOLECULE
3-(2,5-Dimethyl-benzyl)-1,6,7-trimethyl-8-(tetrahydro-furan-2-ylmethyl)-1H,8H-im
62 66 1 0 0 
SMALL
USER_CHARGES


@<TRIPOS>ATOM
  1 O        1.2330    -0.2180     2.6940 O.2   1 <1>  -0.5730 
  2 C        1.8810     0.6770     2.1920 C.2   1 <1>   0.6870 
  3 N        1.2840     1.8940     1.8970 N.am  1 <1>  -0.4240 
  4 N        3.2310     0.4840     1.9270 N.am  1 <1>  -0.4400 
  5 C        2.0410     2.9940     1.5280 C.2   1 <1>   0.7000 
  6 C       -0.1990     1.9710     1.7790 C.3   1 <1>   0.2790 
  7 C        3.9610     1.5580     1.4570 C.2   1 <1>   0.4220 
  8 C        3.8810    -0.8340     2.1840 C.3   1 <1>   0.0540 
  9 O        1.5470     4.1080     1.4890 O.2   1 <1>  -0.5730 
 10 C        3.4230     2.7840     1.2440 C.2   1 <1>   0.2720 
 11 C       -0.6050     1.7080     0.3280 C.ar  1 <1>  -0.1490 
 12 N        5.2840     1.5910     1.1390 N.pl3 1 <1>  -0.7030 
 13 N        4.4670     3.5910     0.7570 N.pl3 1 <1>  -0.6320 
 14 C       -1.1180     2.6950    -0.5130 C.ar  1 <1>  -0.1490 
 15 C       -0.4510     0.4170    -0.1620 C.ar  1 <1>  -0.1560 
 16 C        5.5470     2.8240     0.7110 C.cat 1 <1>   1.0690 
 17 C        4.8390     4.8300     0.2820 C.2   1 <1>   0.2360 
 18 C       -1.4310     2.3730    -1.8250 C.ar  1 <1>  -0.1560 
 19 C       -1.3710     4.1280    -0.0600 C.3   1 <1>  -0.1030 
 20 C       -0.7650     0.1010    -1.4710 C.ar  1 <1>  -0.1490 
 21 N        6.6140     3.4840     0.2420 N.pl3 1 <1>  -0.5710 
 22 C        6.1570     4.7670    -0.0320 C.2   1 <1>   0.1590 
 23 C        3.8250     5.9540     0.1920 C.3   1 <1>  -0.1080 
 24 C       -1.2550     1.0890    -2.3040 C.ar  1 <1>  -0.1560 
 25 C       -0.5880    -1.3150    -1.9890 C.3   1 <1>  -0.1030 
 26 C        8.0180     2.9720     0.1420 C.3   1 <1>   0.1620 
 27 C        7.0730     5.8440    -0.5890 C.3   1 <1>  -0.1080 
 28 C        8.1510     1.6830    -0.6940 C.3   1 <1>   0.1950 
 29 O        7.4570     0.6260    -0.1040 O.3   1 <1>  -0.5640 
 30 C        9.5820     1.1740    -0.7940 C.3   1 <1>  -0.1660 
 31 C        7.9580    -0.5870    -0.5800 C.3   1 <1>   0.1140 
 32 C        9.4040    -0.3220    -0.9880 C.3   1 <1>  -0.1660 
 33 H       -0.5390     2.9320     2.1160 H     1 <1>   0.0740 
 34 H       -0.6640     1.2360     2.4140 H     1 <1>   0.0740 
 35 H        3.1550    -1.6280     2.1320 H     1 <1>   0.0740 
 36 H        4.3230    -0.8350     3.1650 H     1 <1>   0.0740 
 37 H        4.6420    -1.0290     1.4480 H     1 <1>   0.0740 
 38 H        5.9760     0.8440     0.9860 H     1 <1>   0.4460 
 39 H       -0.0870    -0.3640     0.4820 H     1 <1>   0.1440 
 40 H       -1.8220     3.1230    -2.4890 H     1 <1>   0.1440 
 41 H       -1.8910     4.1450     0.8800 H     1 <1>   0.0740 
 42 H       -1.9810     4.6500    -0.7740 H     1 <1>   0.0740 
 43 H       -0.4440     4.6600     0.0350 H     1 <1>   0.0740 
 44 H        3.0090     5.6620    -0.4440 H     1 <1>   0.0740 
 45 H        4.2690     6.8460    -0.2090 H     1 <1>   0.0740 
 46 H        3.4340     6.1750     1.1690 H     1 <1>   0.0740 
 47 H       -1.5080     0.8620    -3.3240 H     1 <1>   0.1440 
 48 H       -0.2530    -1.2990    -3.0110 H     1 <1>   0.0740 
 49 H       -1.5260    -1.8380    -1.9400 H     1 <1>   0.0740 
 50 H        0.1370    -1.8470    -1.4010 H     1 <1>   0.0740 
 51 H        8.4000     2.7900     1.1320 H     1 <1>   0.0740 
 52 H        8.6420     3.7240    -0.3070 H     1 <1>   0.0740 
 53 H        7.8810     6.0340     0.0950 H     1 <1>   0.0740 
 54 H        6.5370     6.7630    -0.7410 H     1 <1>   0.0740 
 55 H        7.4800     5.5310    -1.5340 H     1 <1>   0.0740 
 56 H        7.7510     1.8320    -1.6830 H     1 <1>   0.0740 
 57 H       10.1130     1.3620     0.1240 H     1 <1>   0.0740 
 58 H       10.1160     1.6310    -1.6090 H     1 <1>   0.0740 
 59 H        7.3670    -0.8910    -1.4280 H     1 <1>   0.0740 
 60 H        7.8890    -1.3250     0.2020 H     1 <1>   0.0740 
 61 H       10.0900    -0.8850    -0.3790 H     1 <1>   0.0740 
 62 H        9.5480    -0.6010    -2.0180 H     1 <1>   0.0740 
@<TRIPOS>BOND
  1   1   2  2   
  2   2   3  am  
  3   2   4  am  
  4   3   5  am  
  5   3   6  1   
  6   4   7  1   
  7   4   8  1   
  8   5   9  2   
  9   5  10  1   
 10   6  11  1   
 11   6  33  1   
 12   6  34  1   
 13   7  10  2   
 14   7  12  1   
 15   8  35  1   
 16   8  36  1   
 17   8  37  1   
 18  10  13  1   
 19  11  14  ar  
 20  11  15  ar  
 21  12  16  ar  
 22  12  38  1   
 23  13  16  ar  
 24  13  17  1   
 25  14  18  ar  
 26  14  19  1   
 27  15  20  ar  
 28  15  39  1   
 29  16  21  ar  
 30  17  22  2   
 31  17  23  1   
 32  18  24  ar  
 33  18  40  1   
 34  19  41  1   
 35  19  42  1   
 36  19  43  1   
 37  20  24  ar  
 38  20  25  1   
 39  21  22  1   
 40  21  26  1   
 41  22  27  1   
 42  23  44  1   
 43  23  45  1   
 44  23  46  1   
 45  24  47  1   
 46  25  48  1   
 47  25  49  1   
 48  25  50  1   
 49  26  28  1   
 50  26  51  1   
 51  26  52  1   
 52  27  53  1   
 53  27  54  1   
 54  27  55  1   
 55  28  29  1   
 56  28  30  1   
 57  28  56  1   
 58  29  31  1   
 59  30  32  1   
 60  30  57  1   
 61  30  58  1   
 62  31  32  1   
 63  31  59  1   
 64  31  60  1   
 65  32  61  1   
 66  32  62  1   
@<TRIPOS>SUBSTRUCTURE
  1 ****  10 GROUP 4 **** **** 0

# MOE 2024.06 (io_trps.svl 2023.06)
