@<TRIPOS>MOLECULE
8-(2-Hydroxy-ethylamino)-7-(2-hydroxy-propyl)-3-methyl-3,7-dihydro-purine-2,6-di
38 39 1 0 0 
SMALL
USER_CHARGES


@<TRIPOS>ATOM
  1 O        0.9200    -0.0740     1.0950 O.2   1 <1>  -0.5770 
  2 C        1.9080     0.5700     0.8330 C.2   1 <1>   0.6840 
  3 N        3.0960    -0.0230     0.4300 N.am  1 <1>  -0.4440 
  4 N        1.8450     1.9300     0.9400 N.am  1 <1>  -0.4970 
  5 C        4.1680     0.8100     0.1460 C.2   1 <1>   0.4180 
  6 C        3.2180    -1.5040     0.3000 C.3   1 <1>   0.0490 
  7 C        2.8920     2.7640     0.6700 C.2   1 <1>   0.6970 
  8 N        5.4140     0.4500    -0.2660 N.pl3 1 <1>  -0.7060 
  9 C        4.1210     2.1600     0.2440 C.2   1 <1>   0.2680 
 10 O        2.7380     3.9620     0.8020 O.2   1 <1>  -0.5770 
 11 C        6.1350     1.5560    -0.4140 C.cat 1 <1>   1.0680 
 12 N        5.3960     2.6290    -0.1300 N.pl3 1 <1>  -0.7690 
 13 N        7.4070     1.5820    -0.7800 N.pl3 1 <1>  -0.7200 
 14 C        5.7510     4.0740    -0.3040 C.3   1 <1>   0.3450 
 15 C        8.2820     0.4550    -1.1880 C.3   1 <1>   0.1570 
 16 C        6.7670     4.5890     0.7430 C.3   1 <1>   0.1900 
 17 C        9.2600     0.0890    -0.0670 C.3   1 <1>   0.1090 
 18 O        7.9660     3.8950     0.6430 O.3   1 <1>  -0.6860 
 19 C        7.1000     6.0650     0.5470 C.3   1 <1>  -0.2500 
 20 O        9.7930    -1.1520    -0.3610 O.3   1 <1>  -0.6860 
 21 H        0.9610     2.3340     1.2420 H     1 <1>   0.3610 
 22 H        2.3040    -1.9920     0.5940 H     1 <1>   0.0690 
 23 H        4.0110    -1.8630     0.9330 H     1 <1>   0.0690 
 24 H        3.4280    -1.7650    -0.7230 H     1 <1>   0.0690 
 25 H        5.7680    -0.4900    -0.4180 H     1 <1>   0.4420 
 26 H        7.8870     2.4740    -0.5800 H     1 <1>   0.4420 
 27 H        4.8600     4.6740    -0.2380 H     1 <1>   0.0690 
 28 H        6.1570     4.2260    -1.2890 H     1 <1>   0.0690 
 29 H        8.8380     0.7360    -2.0670 H     1 <1>   0.0690 
 30 H        7.6810    -0.4050    -1.4300 H     1 <1>   0.0690 
 31 H        6.3730     4.4380     1.7350 H     1 <1>   0.0690 
 32 H        8.7580     0.0140     0.8830 H     1 <1>   0.0690 
 33 H       10.0650     0.8020    -0.0100 H     1 <1>   0.0690 
 34 H        8.6270     4.3210     1.2320 H     1 <1>   0.3920 
 35 H        6.2050     6.6560     0.6260 H     1 <1>   0.0690 
 36 H        7.5330     6.2370    -0.4240 H     1 <1>   0.0690 
 37 H        7.7830     6.4040     1.3060 H     1 <1>   0.0690 
 38 H       10.5180    -1.3840     0.2570 H     1 <1>   0.3920 
@<TRIPOS>BOND
  1   1   2  2   
  2   2   3  am  
  3   2   4  am  
  4   3   5  1   
  5   3   6  1   
  6   4   7  am  
  7   4  21  1   
  8   5   8  1   
  9   5   9  2   
 10   6  22  1   
 11   6  23  1   
 12   6  24  1   
 13   7   9  1   
 14   7  10  2   
 15   8  11  ar  
 16   8  25  1   
 17   9  12  1   
 18  11  12  ar  
 19  11  13  ar  
 20  12  14  1   
 21  13  15  1   
 22  13  26  1   
 23  14  16  1   
 24  14  27  1   
 25  14  28  1   
 26  15  17  1   
 27  15  29  1   
 28  15  30  1   
 29  16  18  1   
 30  16  19  1   
 31  16  31  1   
 32  17  20  1   
 33  17  32  1   
 34  17  33  1   
 35  18  34  1   
 36  19  35  1   
 37  19  36  1   
 38  19  37  1   
 39  20  38  1   
@<TRIPOS>SUBSTRUCTURE
  1 ****  12 GROUP 4 **** **** 0

# MOE 2024.06 (io_trps.svl 2023.06)
