@<TRIPOS>MOLECULE
8-(2-Chloro-phenyl)-3-(3-hydroxy-propyl)-1,6,7-trimethyl-1H,8H-imidazo[2,1-f]pur
49 52 1 0 0 
SMALL
USER_CHARGES


@<TRIPOS>ATOM
  1 CL      -0.0990     0.9910     2.0420 Cl    1 <1>  -0.1840 
  2 C        1.1760     1.2470     0.8700 C.ar  1 <1>   0.1700 
  3 C        1.0790     2.2980    -0.0420 C.ar  1 <1>   0.3050 
  4 C        2.2540     0.3820     0.8690 C.ar  1 <1>  -0.1580 
  5 N       -0.0230     3.1820    -0.0490 N.pl3 1 <1>  -0.5550 
  6 C        2.0990     2.4560    -0.9710 C.ar  1 <1>  -0.1580 
  7 C        3.2610     0.5580    -0.0640 C.ar  1 <1>  -0.1580 
  8 C       -1.3000     2.8620    -0.2990 C.cat 1 <1>   1.0690 
  9 C       -0.0550     4.5290     0.2980 C.2   1 <1>   0.1570 
 10 C        3.1820     1.5930    -0.9820 C.ar  1 <1>  -0.1580 
 11 N       -1.9670     1.7540    -0.6410 N.pl3 1 <1>  -0.7040 
 12 N       -2.1140     3.8980    -0.1630 N.pl3 1 <1>  -0.6330 
 13 C       -1.3340     4.9670     0.2250 C.2   1 <1>   0.2340 
 14 C        1.2120     5.2700     0.6930 C.3   1 <1>  -0.1100 
 15 C       -3.2830     2.1080    -0.7150 C.2   1 <1>   0.4200 
 16 C       -3.4110     3.4270    -0.4260 C.2   1 <1>   0.2700 
 17 C       -1.9580     6.3230     0.4900 C.3   1 <1>  -0.1100 
 18 N       -4.3550     1.2950    -1.0210 N.am  1 <1>  -0.4420 
 19 C       -4.7090     4.0210    -0.4370 C.2   1 <1>   0.6990 
 20 C       -5.6280     1.8510    -1.0010 C.2   1 <1>   0.6860 
 21 C       -4.1630    -0.1550    -1.3250 C.3   1 <1>   0.0520 
 22 O       -4.8660     5.2080    -0.2040 O.2   1 <1>  -0.5750 
 23 N       -5.7950     3.2040    -0.7240 N.am  1 <1>  -0.4260 
 24 O       -6.5950     1.1500    -1.2200 O.2   1 <1>  -0.5750 
 25 C       -7.1740     3.7810    -0.7070 C.3   1 <1>   0.1320 
 26 C       -7.7860     3.6360     0.6890 C.3   1 <1>  -0.1670 
 27 C       -9.1980     4.2170     0.7160 C.3   1 <1>   0.1120 
 28 O       -9.6940     4.0840     1.9970 O.3   1 <1>  -0.6840 
 29 H        2.3090    -0.4190     1.5870 H     1 <1>   0.1420 
 30 H        2.0520     3.2540    -1.6900 H     1 <1>   0.1420 
 31 H        4.1080    -0.1090    -0.0760 H     1 <1>   0.1420 
 32 H        3.9700     1.7230    -1.7060 H     1 <1>   0.1420 
 33 H       -1.5520     0.8320    -0.7530 H     1 <1>   0.4440 
 34 H        1.6830     4.7790     1.5250 H     1 <1>   0.0720 
 35 H        0.9920     6.2820     0.9790 H     1 <1>   0.0720 
 36 H        1.9020     5.2950    -0.1310 H     1 <1>   0.0720 
 37 H       -2.4520     6.6810    -0.3950 H     1 <1>   0.0720 
 38 H       -1.2140     7.0420     0.7800 H     1 <1>   0.0720 
 39 H       -2.6840     6.2460     1.2800 H     1 <1>   0.0720 
 40 H       -3.2570    -0.3080    -1.8820 H     1 <1>   0.0720 
 41 H       -4.9830    -0.5290    -1.9160 H     1 <1>   0.0720 
 42 H       -4.1200    -0.7150    -0.4070 H     1 <1>   0.0720 
 43 H       -7.7900     3.2740    -1.4300 H     1 <1>   0.0720 
 44 H       -7.1430     4.8210    -0.9850 H     1 <1>   0.0720 
 45 H       -7.1800     4.1670     1.4020 H     1 <1>   0.0720 
 46 H       -7.8280     2.5940     0.9520 H     1 <1>   0.0720 
 47 H       -9.8560     3.6940     0.0420 H     1 <1>   0.0720 
 48 H       -9.1920     5.2660     0.4730 H     1 <1>   0.0720 
 49 H       -9.7570     3.1410     2.2450 H     1 <1>   0.3940 
@<TRIPOS>BOND
  1   1   2  1   
  2   2   3  ar  
  3   2   4  ar  
  4   3   5  1   
  5   3   6  ar  
  6   4   7  ar  
  7   4  29  1   
  8   5   8  ar  
  9   5   9  1   
 10   6  10  ar  
 11   6  30  1   
 12   7  10  ar  
 13   7  31  1   
 14   8  11  ar  
 15   8  12  ar  
 16   9  13  2   
 17   9  14  1   
 18  10  32  1   
 19  11  15  1   
 20  11  33  1   
 21  12  13  1   
 22  12  16  1   
 23  13  17  1   
 24  14  34  1   
 25  14  35  1   
 26  14  36  1   
 27  15  16  2   
 28  15  18  1   
 29  16  19  1   
 30  17  37  1   
 31  17  38  1   
 32  17  39  1   
 33  18  20  am  
 34  18  21  1   
 35  19  22  2   
 36  19  23  am  
 37  20  23  am  
 38  20  24  2   
 39  21  40  1   
 40  21  41  1   
 41  21  42  1   
 42  23  25  1   
 43  25  26  1   
 44  25  43  1   
 45  25  44  1   
 46  26  27  1   
 47  26  45  1   
 48  26  46  1   
 49  27  28  1   
 50  27  47  1   
 51  27  48  1   
 52  28  49  1   
@<TRIPOS>SUBSTRUCTURE
  1 ****  16 GROUP 4 **** **** 0

# MOE 2024.06 (io_trps.svl 2023.06)
