@<TRIPOS>MOLECULE
2-(Cyclopropanecarbonyl-amino)-N-(tetrahydro-furan-2-ylmethyl)-benzamide
41 43 1 0 0 
SMALL
USER_CHARGES


@<TRIPOS>ATOM
  1 O       -0.8310    -0.1520    -1.7850 O.2   1 <1>  -0.5700 
  2 C       -1.8820    -0.3080    -1.1930 C.2   1 <1>   0.5440 
  3 N       -2.7220     0.7600    -1.1710 N.am  1 <1>  -0.7300 
  4 C       -2.1880    -1.5500    -0.5110 C.ar  1 <1>   0.0860 
  5 C       -3.6200     1.1250    -0.0500 C.3   1 <1>   0.1400 
  6 C       -1.2300    -2.1940     0.2910 C.ar  1 <1>   0.1170 
  7 C       -3.4530    -2.1300    -0.6310 C.ar  1 <1>  -0.1500 
  8 C       -4.2190     2.5220    -0.2800 C.3   1 <1>   0.2000 
  9 N        0.0570    -1.6470     0.3870 N.am  1 <1>  -0.5470 
 10 C       -1.5760    -3.3670     0.9570 C.ar  1 <1>  -0.1500 
 11 C       -3.7810    -3.2940     0.0340 C.ar  1 <1>  -0.1500 
 12 O       -3.2160     3.4260    -0.6210 O.3   1 <1>  -0.5600 
 13 C       -4.8810     3.1310     0.9470 C.3   1 <1>  -0.1600 
 14 C        1.0640    -1.7690     1.2990 C.2   1 <1>   0.6300 
 15 C       -2.8380    -3.9130     0.8350 C.ar  1 <1>  -0.1500 
 16 C       -3.5830     4.7280    -0.2850 C.3   1 <1>   0.1200 
 17 C       -4.7690     4.6190     0.6710 C.3   1 <1>  -0.1600 
 18 O        0.9930    -2.4540     2.2890 O.2   1 <1>  -0.5700 
 19 C        2.3400    -0.9720     1.0490 C.3   1 <1>  -0.1000 
 20 C        2.3020     0.4260     0.4960 C.3   1 <1>  -0.2000 
 21 C        2.8530    -0.6910    -0.3360 C.3   1 <1>  -0.2000 
 22 H       -2.3550     1.5980    -1.6390 H     1 <1>   0.3700 
 23 H       -3.0560     1.1240     0.8670 H     1 <1>   0.0800 
 24 H       -4.4140     0.4050     0.0390 H     1 <1>   0.0800 
 25 H       -4.1860    -1.6560    -1.2610 H     1 <1>   0.1500 
 26 H       -4.9170     2.4930    -1.0990 H     1 <1>   0.0800 
 27 H        0.2640    -0.9800    -0.3680 H     1 <1>   0.3700 
 28 H       -0.8510    -3.8670     1.5740 H     1 <1>   0.1500 
 29 H       -4.7630    -3.7230    -0.0690 H     1 <1>   0.1500 
 30 H       -4.3220     2.8770     1.8310 H     1 <1>   0.0800 
 31 H       -5.9000     2.8050     1.0610 H     1 <1>   0.0800 
 32 H       -3.0860    -4.8210     1.3590 H     1 <1>   0.1500 
 33 H       -3.8470     5.2540    -1.1870 H     1 <1>   0.0800 
 34 H       -2.7360     5.2010     0.1820 H     1 <1>   0.0800 
 35 H       -4.6080     5.1890     1.5690 H     1 <1>   0.0800 
 36 H       -5.6550     4.9820     0.1800 H     1 <1>   0.0800 
 37 H        3.0750    -1.1760     1.8080 H     1 <1>   0.1000 
 38 H        2.9830     1.1550     0.9000 H     1 <1>   0.1000 
 39 H        1.3610     0.8630     0.2080 H     1 <1>   0.1000 
 40 H        2.2900    -1.0180    -1.1940 H     1 <1>   0.1000 
 41 H        3.9150    -0.7330    -0.5080 H     1 <1>   0.1000 
@<TRIPOS>BOND
  1   1   2  2   
  2   2   3  am  
  3   2   4  1   
  4   3   5  1   
  5   3  22  1   
  6   4   6  ar  
  7   4   7  ar  
  8   5   8  1   
  9   5  23  1   
 10   5  24  1   
 11   6   9  1   
 12   6  10  ar  
 13   7  11  ar  
 14   7  25  1   
 15   8  12  1   
 16   8  13  1   
 17   8  26  1   
 18   9  14  am  
 19   9  27  1   
 20  10  15  ar  
 21  10  28  1   
 22  11  15  ar  
 23  11  29  1   
 24  12  16  1   
 25  13  17  1   
 26  13  30  1   
 27  13  31  1   
 28  14  18  2   
 29  14  19  1   
 30  15  32  1   
 31  16  17  1   
 32  16  33  1   
 33  16  34  1   
 34  17  35  1   
 35  17  36  1   
 36  19  20  1   
 37  19  21  1   
 38  19  37  1   
 39  20  21  1   
 40  20  38  1   
 41  20  39  1   
 42  21  40  1   
 43  21  41  1   
@<TRIPOS>SUBSTRUCTURE
  1 ****   2 GROUP 4 **** **** 0

# MOE 2024.06 (io_trps.svl 2023.06)
