@<TRIPOS>MOLECULE
1-Methanesulfonyl-piperidine-4-carboxylic acid (2-phenoxy-phenyl)-amide
48 50 1 0 0 
SMALL
USER_CHARGES


@<TRIPOS>ATOM
  1 S        0.4700    -0.5960     0.1940 S.o2  1 <1>   1.3330 
  2 O        0.1920    -0.7030    -1.2200 O.2   1 <1>  -0.6500 
  3 O        0.7900    -1.7800     0.9570 O.2   1 <1>  -0.6500 
  4 N        1.7250     0.5260     0.3910 N.am  1 <1>  -0.8490 
  5 C       -0.8970     0.2110     1.0000 C.3   1 <1>  -0.1350 
  6 C        1.7020     1.5710    -0.6380 C.3   1 <1>   0.1960 
  7 C        3.0340    -0.1310     0.4640 C.3   1 <1>   0.1960 
  8 C        2.7400     2.6490    -0.3220 C.3   1 <1>  -0.1600 
  9 C        4.1280     0.8890     0.7950 C.3   1 <1>  -0.1600 
 10 C        4.1520     2.0440    -0.2190 C.3   1 <1>  -0.0190 
 11 C        5.2250     3.0730     0.1420 C.2   1 <1>   0.5690 
 12 O        4.9180     4.0570     0.7710 O.2   1 <1>  -0.5700 
 13 N        6.5010     2.8040    -0.2690 N.am  1 <1>  -0.5470 
 14 C        7.7250     3.4850    -0.1140 C.ar  1 <1>   0.1170 
 15 C        8.9010     2.8370    -0.5040 C.ar  1 <1>   0.0820 
 16 C        7.8280     4.7710     0.4070 C.ar  1 <1>  -0.1500 
 17 O        8.8160     1.5820    -1.0280 O.3   1 <1>  -0.1650 
 18 C       10.1350     3.4610    -0.3810 C.ar  1 <1>  -0.1500 
 19 C        9.0600     5.3910     0.5380 C.ar  1 <1>  -0.1500 
 20 C        9.6140     0.5790    -0.5840 C.ar  1 <1>   0.0820 
 21 C       10.2140     4.7380     0.1440 C.ar  1 <1>  -0.1500 
 22 C       10.0670     0.5160     0.7300 C.ar  1 <1>  -0.1500 
 23 C        9.9690    -0.4150    -1.4830 C.ar  1 <1>  -0.1500 
 24 C       10.8780    -0.5310     1.1320 C.ar  1 <1>  -0.1500 
 25 C       10.7800    -1.4610    -1.0790 C.ar  1 <1>  -0.1500 
 26 C       11.2350    -1.5180     0.2280 C.ar  1 <1>  -0.1500 
 27 H       -0.6530     0.4060     2.0260 H     1 <1>   0.0800 
 28 H       -1.7640    -0.4190     0.9660 H     1 <1>   0.0800 
 29 H       -1.1250     1.1380     0.5150 H     1 <1>   0.0800 
 30 H        0.7260     2.0260    -0.6750 H     1 <1>   0.0800 
 31 H        1.9050     1.1400    -1.6050 H     1 <1>   0.0800 
 32 H        3.2470    -0.6220    -0.4720 H     1 <1>   0.0800 
 33 H        3.0240    -0.8790     1.2400 H     1 <1>   0.0800 
 34 H        2.4730     3.1250     0.6050 H     1 <1>   0.0800 
 35 H        2.7240     3.4000    -1.0920 H     1 <1>   0.0800 
 36 H        5.0800     0.3900     0.8090 H     1 <1>   0.0800 
 37 H        3.9490     1.2790     1.7830 H     1 <1>   0.0800 
 38 H        4.4010     1.6400    -1.1840 H     1 <1>   0.0800 
 39 H        6.6190     1.9100    -0.7460 H     1 <1>   0.3700 
 40 H        6.9500     5.3050     0.7170 H     1 <1>   0.1500 
 41 H       11.0290     2.9520    -0.6950 H     1 <1>   0.1500 
 42 H        9.1170     6.3850     0.9450 H     1 <1>   0.1500 
 43 H       11.1700     5.2230     0.2440 H     1 <1>   0.1500 
 44 H        9.7870     1.2740     1.4400 H     1 <1>   0.1500 
 45 H        9.6140    -0.3660    -2.4970 H     1 <1>   0.1500 
 46 H       11.2320    -0.5790     2.1470 H     1 <1>   0.1500 
 47 H       11.0580    -2.2300    -1.7780 H     1 <1>   0.1500 
 48 H       11.8670    -2.3310     0.5420 H     1 <1>   0.1500 
@<TRIPOS>BOND
  1   1   2  2   
  2   1   3  2   
  3   1   4  am  
  4   1   5  1   
  5   4   6  1   
  6   4   7  1   
  7   5  27  1   
  8   5  28  1   
  9   5  29  1   
 10   6   8  1   
 11   6  30  1   
 12   6  31  1   
 13   7   9  1   
 14   7  32  1   
 15   7  33  1   
 16   8  10  1   
 17   8  34  1   
 18   8  35  1   
 19   9  10  1   
 20   9  36  1   
 21   9  37  1   
 22  10  11  1   
 23  10  38  1   
 24  11  12  2   
 25  11  13  am  
 26  13  14  1   
 27  13  39  1   
 28  14  15  ar  
 29  14  16  ar  
 30  15  17  1   
 31  15  18  ar  
 32  16  19  ar  
 33  16  40  1   
 34  17  20  1   
 35  18  21  ar  
 36  18  41  1   
 37  19  21  ar  
 38  19  42  1   
 39  20  22  ar  
 40  20  23  ar  
 41  21  43  1   
 42  22  24  ar  
 43  22  44  1   
 44  23  25  ar  
 45  23  45  1   
 46  24  26  ar  
 47  24  46  1   
 48  25  26  ar  
 49  25  47  1   
 50  26  48  1   
@<TRIPOS>SUBSTRUCTURE
  1 ****  13 GROUP 4 **** **** 0

# MOE 2024.06 (io_trps.svl 2023.06)
