@<TRIPOS>MOLECULE
1-(2,4,6-Trimethyl-benzenesulfonyl)-piperidine-4-carboxylic acid (2-methoxy-1-me
56 57 1 0 0 
SMALL
USER_CHARGES


@<TRIPOS>ATOM
  1 S       -0.4720     0.2500    -1.6020 S.o2  1 <1>   1.4470 
  2 O        0.0010    -0.6700    -2.6170 O.2   1 <1>  -0.6500 
  3 O       -1.3100     1.3490    -2.0340 O.2   1 <1>  -0.6500 
  4 N        0.9500     0.9350    -0.9760 N.am  1 <1>  -0.8490 
  5 C       -1.2530    -0.5910    -0.1650 C.ar  1 <1>  -0.0090 
  6 C        1.5380     1.8920    -1.9140 C.3   1 <1>   0.1960 
  7 C        1.9160    -0.0890    -0.5670 C.3   1 <1>   0.1960 
  8 C       -1.4410     0.0870     1.0510 C.ar  1 <1>  -0.1440 
  9 C       -1.6950    -1.9220    -0.2290 C.ar  1 <1>  -0.1430 
 10 C        2.7290     2.6050    -1.2690 C.3   1 <1>  -0.1600 
 11 C        3.1110     0.5620     0.1330 C.3   1 <1>  -0.1600 
 12 C       -1.9920    -0.5560     2.1480 C.ar  1 <1>  -0.1500 
 13 C       -1.0650     1.5540     1.2510 C.3   1 <1>  -0.0970 
 14 C       -2.2440    -2.5450     0.8810 C.ar  1 <1>  -0.1500 
 15 C       -1.6150    -2.7640    -1.4980 C.3   1 <1>  -0.0970 
 16 C        3.7850     1.6020    -0.7770 C.3   1 <1>  -0.0190 
 17 C       -2.3900    -1.8730     2.0760 C.ar  1 <1>  -0.1430 
 18 C        4.9440     2.3110    -0.0790 C.2   1 <1>   0.5690 
 19 C       -2.9910    -2.5660     3.2850 C.3   1 <1>  -0.0970 
 20 O        4.7530     2.8530     0.9830 O.2   1 <1>  -0.5700 
 21 N        6.1590     2.3150    -0.6940 N.am  1 <1>  -0.7300 
 22 C        7.3990     3.0030    -0.2540 C.3   1 <1>   0.2200 
 23 C        7.6990     2.7860     1.2390 C.3   1 <1>   0.1200 
 24 C        7.2800     4.4840    -0.6160 C.3   1 <1>  -0.2400 
 25 O        9.0080     3.1960     1.5100 O.3   1 <1>  -0.5600 
 26 C        9.3520     3.1090     2.8540 C.3   1 <1>   0.0400 
 27 H        0.8020     2.6310    -2.1870 H     1 <1>   0.0800 
 28 H        1.8470     1.3810    -2.8120 H     1 <1>   0.0800 
 29 H        2.2520    -0.6450    -1.4270 H     1 <1>   0.0800 
 30 H        1.4470    -0.7780     0.1170 H     1 <1>   0.0800 
 31 H        2.3720     3.1930    -0.4410 H     1 <1>   0.0800 
 32 H        3.1700     3.2780    -1.9820 H     1 <1>   0.0800 
 33 H        3.8220    -0.1960     0.4070 H     1 <1>   0.0800 
 34 H        2.7680     1.0330     1.0380 H     1 <1>   0.0800 
 35 H       -2.1170    -0.0240     3.0750 H     1 <1>   0.1500 
 36 H       -0.0050     1.6490     1.4020 H     1 <1>   0.0800 
 37 H       -1.5600     1.9630     2.1130 H     1 <1>   0.0800 
 38 H       -1.3550     2.1500     0.4060 H     1 <1>   0.0800 
 39 H       -2.5690    -3.5690     0.8200 H     1 <1>   0.1500 
 40 H       -0.5910    -3.0040    -1.7230 H     1 <1>   0.0800 
 41 H       -2.0460    -2.2350    -2.3290 H     1 <1>   0.0800 
 42 H       -2.1550    -3.6880    -1.3910 H     1 <1>   0.0800 
 43 H        4.1760     1.0840    -1.6350 H     1 <1>   0.0800 
 44 H       -2.5820    -2.1600     4.1930 H     1 <1>   0.0800 
 45 H       -2.7780    -3.6200     3.2600 H     1 <1>   0.0800 
 46 H       -4.0570    -2.4260     3.2910 H     1 <1>   0.0800 
 47 H        6.2400     1.8800    -1.6130 H     1 <1>   0.3700 
 48 H        8.2190     2.5760    -0.8060 H     1 <1>   0.0800 
 49 H        7.6150     1.7430     1.4860 H     1 <1>   0.0800 
 50 H        7.0270     3.3670     1.8470 H     1 <1>   0.0800 
 51 H        6.4710     4.9370    -0.0710 H     1 <1>   0.0800 
 52 H        7.1150     4.6020    -1.6710 H     1 <1>   0.0800 
 53 H        8.1900     4.9940    -0.3540 H     1 <1>   0.0800 
 54 H       10.3710     3.4380     2.9610 H     1 <1>   0.0800 
 55 H        9.2650     2.0860     3.1780 H     1 <1>   0.0800 
 56 H        8.7020     3.7460     3.4290 H     1 <1>   0.0800 
@<TRIPOS>BOND
  1   1   2  2   
  2   1   3  2   
  3   1   4  am  
  4   1   5  1   
  5   4   6  1   
  6   4   7  1   
  7   5   8  ar  
  8   5   9  ar  
  9   6  10  1   
 10   6  27  1   
 11   6  28  1   
 12   7  11  1   
 13   7  29  1   
 14   7  30  1   
 15   8  12  ar  
 16   8  13  1   
 17   9  14  ar  
 18   9  15  1   
 19  10  16  1   
 20  10  31  1   
 21  10  32  1   
 22  11  16  1   
 23  11  33  1   
 24  11  34  1   
 25  12  17  ar  
 26  12  35  1   
 27  13  36  1   
 28  13  37  1   
 29  13  38  1   
 30  14  17  ar  
 31  14  39  1   
 32  15  40  1   
 33  15  41  1   
 34  15  42  1   
 35  16  18  1   
 36  16  43  1   
 37  17  19  1   
 38  18  20  2   
 39  18  21  am  
 40  19  44  1   
 41  19  45  1   
 42  19  46  1   
 43  21  22  1   
 44  21  47  1   
 45  22  23  1   
 46  22  24  1   
 47  22  48  1   
 48  23  25  1   
 49  23  49  1   
 50  23  50  1   
 51  24  51  1   
 52  24  52  1   
 53  24  53  1   
 54  25  26  1   
 55  26  54  1   
 56  26  55  1   
 57  26  56  1   
@<TRIPOS>SUBSTRUCTURE
  1 ****   7 GROUP 4 **** **** 0

# MOE 2024.06 (io_trps.svl 2023.06)
