@<TRIPOS>MOLECULE
N-{3-[2-(3,4-Dimethyl-phenoxy)-acetylamino]-propyl}-isonicotinamide
48 49 1 0 0 
SMALL
USER_CHARGES


@<TRIPOS>ATOM
  1 O       -2.2670     0.5020    -2.0030 O.2   1 <1>  -0.5700 
  2 C       -2.3310     0.7210    -0.8100 C.2   1 <1>   0.5440 
  3 N       -2.5260    -0.3320     0.0410 N.am  1 <1>  -0.7300 
  4 C       -2.1920     2.0740    -0.3020 C.ar  1 <1>   0.0860 
  5 C       -2.7020    -1.7430    -0.3680 C.3   1 <1>   0.1400 
  6 C       -2.6970     2.4890     0.9240 C.ar  1 <1>  -0.1500 
  7 C       -1.5370     3.0630    -1.0230 C.ar  1 <1>  -0.1500 
  8 C       -4.1320    -2.1750    -0.0520 C.3   1 <1>  -0.1600 
  9 C       -2.5200     3.7930     1.3480 C.ar  1 <1>   0.1600 
 10 C       -1.4130     4.3400    -0.5110 C.ar  1 <1>   0.1600 
 11 C       -4.3650    -3.6200    -0.4830 C.3   1 <1>   0.1400 
 12 N       -1.8870     4.7270     0.6610 N.ar  1 <1>  -0.6200 
 13 N       -5.7400    -4.0120    -0.1210 N.am  1 <1>  -0.7300 
 14 C       -6.0890    -4.8560     0.8870 C.2   1 <1>   0.5690 
 15 O       -5.2630    -5.3620     1.6090 O.2   1 <1>  -0.5700 
 16 C       -7.5600    -5.1770     1.1250 C.3   1 <1>   0.1810 
 17 O       -8.4020    -4.4780     0.2150 O.3   1 <1>  -0.3630 
 18 C       -9.7490    -4.6310     0.2500 C.ar  1 <1>   0.0820 
 19 C      -10.4830    -3.9250    -0.6880 C.ar  1 <1>  -0.1500 
 20 C      -10.4140    -5.4450     1.1610 C.ar  1 <1>  -0.1500 
 21 C      -11.8660    -4.0160    -0.7330 C.ar  1 <1>  -0.1430 
 22 C      -11.7930    -5.5390     1.1200 C.ar  1 <1>  -0.1500 
 23 C      -12.5270    -4.8310     0.1790 C.ar  1 <1>  -0.1430 
 24 C      -12.6250    -3.2190    -1.7850 C.3   1 <1>  -0.0970 
 25 C      -14.0440    -4.9650     0.1710 C.3   1 <1>  -0.0970 
 26 H       -2.4990    -0.1730     1.0480 H     1 <1>   0.3700 
 27 H       -1.9970    -2.3580     0.1650 H     1 <1>   0.0800 
 28 H       -2.5120    -1.8480    -1.4240 H     1 <1>   0.0800 
 29 H       -3.2360     1.8040     1.5490 H     1 <1>   0.1500 
 30 H       -1.1250     2.8300    -1.9880 H     1 <1>   0.1500 
 31 H       -4.8170    -1.5330    -0.5770 H     1 <1>   0.0800 
 32 H       -4.3030    -2.0940     1.0070 H     1 <1>   0.0800 
 33 H       -2.9220     4.0870     2.3030 H     1 <1>   0.1500 
 34 H       -0.8980     5.0840    -1.0960 H     1 <1>   0.1500 
 35 H       -3.6610    -4.2710     0.0110 H     1 <1>   0.0800 
 36 H       -4.2340    -3.7220    -1.5480 H     1 <1>   0.0800 
 37 H       -6.5000    -3.6090    -0.6790 H     1 <1>   0.3700 
 38 H       -7.8270    -4.8880     2.1250 H     1 <1>   0.0800 
 39 H       -7.7170    -6.2310     0.9920 H     1 <1>   0.0800 
 40 H       -9.9560    -3.3010    -1.3850 H     1 <1>   0.1500 
 41 H       -9.8860    -6.0090     1.9040 H     1 <1>   0.1500 
 42 H      -12.2960    -6.1720     1.8300 H     1 <1>   0.1500 
 43 H      -11.9510    -2.6490    -2.3980 H     1 <1>   0.0800 
 44 H      -13.3060    -2.5360    -1.3090 H     1 <1>   0.0800 
 45 H      -13.1800    -3.8840    -2.4210 H     1 <1>   0.0800 
 46 H      -14.4990    -4.0060     0.3370 H     1 <1>   0.0800 
 47 H      -14.3770    -5.6340     0.9440 H     1 <1>   0.0800 
 48 H      -14.3740    -5.3520    -0.7750 H     1 <1>   0.0800 
@<TRIPOS>BOND
  1   1   2  2   
  2   2   3  am  
  3   2   4  1   
  4   3   5  1   
  5   3  26  1   
  6   4   6  ar  
  7   4   7  ar  
  8   5   8  1   
  9   5  27  1   
 10   5  28  1   
 11   6   9  ar  
 12   6  29  1   
 13   7  10  ar  
 14   7  30  1   
 15   8  11  1   
 16   8  31  1   
 17   8  32  1   
 18   9  12  ar  
 19   9  33  1   
 20  10  12  ar  
 21  10  34  1   
 22  11  13  1   
 23  11  35  1   
 24  11  36  1   
 25  13  14  am  
 26  13  37  1   
 27  14  15  2   
 28  14  16  1   
 29  16  17  1   
 30  16  38  1   
 31  16  39  1   
 32  17  18  1   
 33  18  19  ar  
 34  18  20  ar  
 35  19  21  ar  
 36  19  40  1   
 37  20  22  ar  
 38  20  41  1   
 39  21  23  ar  
 40  21  24  1   
 41  22  23  ar  
 42  22  42  1   
 43  23  25  1   
 44  24  43  1   
 45  24  44  1   
 46  24  45  1   
 47  25  46  1   
 48  25  47  1   
 49  25  48  1   
@<TRIPOS>SUBSTRUCTURE
  1 ****   8 GROUP 4 **** **** 0

# MOE 2024.06 (io_trps.svl 2023.06)
