@<TRIPOS>MOLECULE
8-(4-Chloro-phenyl)-1-methyl-3-(2-oxo-propyl)-5,6,7,8-tetrahydro-1H-1,3,4b,8,9-p
46 49 1 0 0 
SMALL
USER_CHARGES


@<TRIPOS>ATOM
  1 CL      -0.3530     0.4090    -1.5190 Cl    1 <1>  -0.1850 
  2 C       -1.2430     1.7870    -0.9270 C.ar  1 <1>   0.1690 
  3 C       -1.3870     1.9690     0.4360 C.ar  1 <1>  -0.1580 
  4 C       -1.7920     2.6800    -1.8300 C.ar  1 <1>  -0.1580 
  5 C       -2.0970     3.0630     0.9020 C.ar  1 <1>  -0.1580 
  6 C       -2.5000     3.7720    -1.3570 C.ar  1 <1>  -0.1580 
  7 C       -2.6610     3.9710     0.0100 C.ar  1 <1>   0.3040 
  8 N       -3.3870     5.0670     0.4840 N.pl3 1 <1>  -0.5800 
  9 C       -4.7340     5.1170     0.5000 C.cat 1 <1>   1.0680 
 10 C       -2.6110     6.2120     1.0370 C.3   1 <1>   0.1600 
 11 N       -5.5750     4.1600     0.1120 N.pl3 1 <1>  -0.7040 
 12 N       -5.4160     6.1720     0.9270 N.pl3 1 <1>  -0.7680 
 13 C       -3.3850     7.5270     0.8650 C.3   1 <1>  -0.1680 
 14 C       -6.8460     4.6250     0.2910 C.2   1 <1>   0.4200 
 15 C       -6.7800     5.8760     0.7960 C.2   1 <1>   0.2700 
 16 C       -4.8180     7.4350     1.4020 C.3   1 <1>   0.3470 
 17 N       -8.0360     3.9760     0.0230 N.am  1 <1>  -0.4420 
 18 C       -7.9950     6.5830     1.0610 C.2   1 <1>   0.6990 
 19 C       -9.2170     4.6850     0.1990 C.2   1 <1>   0.6860 
 20 C       -8.0550     2.5890    -0.5280 C.3   1 <1>   0.0510 
 21 O       -7.9920     7.6800     1.5950 O.2   1 <1>  -0.5750 
 22 N       -9.1870     5.9800     0.6960 N.am  1 <1>  -0.4260 
 23 O      -10.2820     4.1750    -0.0860 O.2   1 <1>  -0.5750 
 24 C      -10.3370     6.8820     0.3690 C.3   1 <1>   0.1930 
 25 C      -10.1430     7.5120    -1.0100 C.2   1 <1>   0.4420 
 26 O       -9.1220     7.3910    -1.6240 O.2   1 <1>  -0.5750 
 27 C      -11.3040     8.3050    -1.5690 C.3   1 <1>  -0.1870 
 28 H       -0.9450     1.2600     1.1160 H     1 <1>   0.1420 
 29 H       -1.6560     2.5160    -2.8860 H     1 <1>   0.1420 
 30 H       -2.2090     3.2110     1.9610 H     1 <1>   0.1420 
 31 H       -2.9200     4.4740    -2.0560 H     1 <1>   0.1420 
 32 H       -1.6610     6.2860     0.5320 H     1 <1>   0.0710 
 33 H       -2.4210     6.0330     2.0830 H     1 <1>   0.0710 
 34 H       -5.2930     3.2600    -0.2650 H     1 <1>   0.4440 
 35 H       -3.4140     7.7890    -0.1790 H     1 <1>   0.0710 
 36 H       -2.8670     8.3200     1.3740 H     1 <1>   0.0710 
 37 H       -4.8150     7.4420     2.4790 H     1 <1>   0.0710 
 38 H       -5.3980     8.2750     1.0550 H     1 <1>   0.0710 
 39 H       -7.9300     2.6230    -1.5970 H     1 <1>   0.0710 
 40 H       -8.9940     2.1100    -0.3070 H     1 <1>   0.0710 
 41 H       -7.2690     2.0000    -0.0920 H     1 <1>   0.0710 
 42 H      -10.4140     7.6600     1.1070 H     1 <1>   0.0710 
 43 H      -11.2580     6.3270     0.3830 H     1 <1>   0.0710 
 44 H      -12.1640     7.6700    -1.6800 H     1 <1>   0.0710 
 45 H      -11.0420     8.7020    -2.5330 H     1 <1>   0.0710 
 46 H      -11.5440     9.1210    -0.9130 H     1 <1>   0.0710 
@<TRIPOS>BOND
  1   1   2  1   
  2   2   3  ar  
  3   2   4  ar  
  4   3   5  ar  
  5   3  28  1   
  6   4   6  ar  
  7   4  29  1   
  8   5   7  ar  
  9   5  30  1   
 10   6   7  ar  
 11   6  31  1   
 12   7   8  1   
 13   8   9  ar  
 14   8  10  1   
 15   9  11  ar  
 16   9  12  ar  
 17  10  13  1   
 18  10  32  1   
 19  10  33  1   
 20  11  14  1   
 21  11  34  1   
 22  12  15  1   
 23  12  16  1   
 24  13  16  1   
 25  13  35  1   
 26  13  36  1   
 27  14  15  2   
 28  14  17  1   
 29  15  18  1   
 30  16  37  1   
 31  16  38  1   
 32  17  19  am  
 33  17  20  1   
 34  18  21  2   
 35  18  22  am  
 36  19  22  am  
 37  19  23  2   
 38  20  39  1   
 39  20  40  1   
 40  20  41  1   
 41  22  24  1   
 42  24  25  1   
 43  24  42  1   
 44  24  43  1   
 45  25  26  2   
 46  25  27  1   
 47  27  44  1   
 48  27  45  1   
 49  27  46  1   
@<TRIPOS>SUBSTRUCTURE
  1 ****  11 GROUP 4 **** **** 0

# MOE 2024.06 (io_trps.svl 2023.06)
