@<TRIPOS>MOLECULE
2-Methyl-3-[1,2,4]triazol-1-yl-propionic acid
19 19 1 0 0 
SMALL
USER_CHARGES


@<TRIPOS>ATOM
  1 O       -0.8700    -0.7190     0.6750 O.co2 1 <1>  -0.9000 
  2 C       -1.3880    -0.5150    -0.4260 C.2   1 <1>   0.9060 
  3 O       -0.7930    -0.6940    -1.4910 O.co2 1 <1>  -0.9000 
  4 C       -2.7960     0.0460    -0.4780 C.3   1 <1>  -0.1860 
  5 C       -2.8230     1.3010     0.4080 C.3   1 <1>   0.0960 
  6 C       -3.8610    -0.9880    -0.0540 C.3   1 <1>  -0.2400 
  7 N       -4.0590     2.0920     0.2290 N.pl3 1 <1>   0.3140 
  8 N       -4.8590     2.4520     1.2280 N.2   1 <1>  -0.7070 
  9 C       -4.5530     2.5970    -0.9070 C.2   1 <1>   0.0360 
 10 C       -5.7720     3.1350     0.6210 C.2   1 <1>   0.3660 
 11 N       -5.6350     3.2610    -0.7050 N.2   1 <1>  -0.5650 
 12 H       -2.9680     0.3270    -1.5000 H     1 <1>   0.0800 
 13 H       -1.9850     1.9300     0.1680 H     1 <1>   0.0800 
 14 H       -2.7380     1.0170     1.4420 H     1 <1>   0.0800 
 15 H       -3.6880    -1.2970     0.9630 H     1 <1>   0.0800 
 16 H       -3.7930    -1.8560    -0.6860 H     1 <1>   0.0800 
 17 H       -4.8520    -0.5780    -0.1320 H     1 <1>   0.0800 
 18 H       -4.0790     2.4500    -1.8600 H     1 <1>   0.1500 
 19 H       -6.6050     3.5880     1.1320 H     1 <1>   0.1500 
@<TRIPOS>BOND
  1   1   2  ar  
  2   2   3  ar  
  3   2   4  1   
  4   4   5  1   
  5   4   6  1   
  6   4  12  1   
  7   5   7  1   
  8   5  13  1   
  9   5  14  1   
 10   6  15  1   
 11   6  16  1   
 12   6  17  1   
 13   7   8  1   
 14   7   9  1   
 15   8  10  2   
 16   9  11  2   
 17   9  18  1   
 18  10  11  1   
 19  10  19  1   
@<TRIPOS>SUBSTRUCTURE
  1 ****   5 GROUP 4 **** **** 0

# MOE 2024.06 (io_trps.svl 2023.06)
