@<TRIPOS>MOLECULE
N-Allyl-3-[3-(2-ethoxy-phenyl)-[1,2,4]oxadiazol-5-yl]-propionamide
41 42 1 0 0 
SMALL
USER_CHARGES


@<TRIPOS>ATOM
  1 O       -0.2160    -0.3840    -1.0820 O.2   1 <1>  -0.5700 
  2 C        0.3670    -1.2940    -0.5480 C.2   1 <1>   0.5690 
  3 N        1.6380    -1.1680    -0.1000 N.am  1 <1>  -0.7300 
  4 C       -0.3440    -2.6170    -0.3640 C.3   1 <1>  -0.0990 
  5 C        2.4560     0.0420    -0.2440 C.3   1 <1>   0.2780 
  6 C       -1.7010    -2.4300     0.3300 C.3   1 <1>   0.0200 
  7 C        3.8800    -0.4080    -0.4870 C.2   1 <1>  -0.2880 
  8 C       -2.3650    -3.7660     0.5940 C.2   1 <1>   0.2980 
  9 C        4.9130    -0.1950     0.3340 C.2   1 <1>  -0.3000 
 10 O       -1.8590    -4.5450     1.5140 O.3   1 <1>  -0.0190 
 11 N       -3.3870    -4.2170    -0.0040 N.2   1 <1>  -0.5650 
 12 N       -2.6260    -5.5890     1.4990 N.2   1 <1>  -0.4100 
 13 C       -3.5240    -5.4050     0.5960 C.2   1 <1>   0.4620 
 14 C       -4.5990    -6.3110     0.2460 C.ar  1 <1>   0.0540 
 15 C       -4.3880    -7.6740    -0.0050 C.ar  1 <1>   0.0830 
 16 C       -5.9040    -5.8250     0.1500 C.ar  1 <1>  -0.1500 
 17 O       -3.1130    -8.1380     0.0510 O.3   1 <1>  -0.3630 
 18 C       -5.4610    -8.5060    -0.3160 C.ar  1 <1>  -0.1500 
 19 C       -6.9650    -6.6520    -0.1630 C.ar  1 <1>  -0.1500 
 20 C       -2.7910    -9.5030    -0.0670 C.3   1 <1>   0.1200 
 21 C       -6.7440    -7.9970    -0.3940 C.ar  1 <1>  -0.1500 
 22 C       -1.2830    -9.6420     0.1180 C.3   1 <1>  -0.2400 
 23 H        2.1230    -1.9490     0.3420 H     1 <1>   0.3700 
 24 H        0.2710    -3.2800     0.2150 H     1 <1>   0.0800 
 25 H       -0.4970    -3.0590    -1.3320 H     1 <1>   0.0800 
 26 H        2.3930     0.6250     0.6600 H     1 <1>   0.0800 
 27 H        2.1040     0.6400    -1.0680 H     1 <1>   0.0800 
 28 H       -2.3460    -1.8350    -0.2930 H     1 <1>   0.0800 
 29 H       -1.5710    -1.9140     1.2640 H     1 <1>   0.0800 
 30 H        3.9810    -0.9330    -1.4220 H     1 <1>   0.1500 
 31 H        5.9180    -0.5270     0.1320 H     1 <1>   0.1500 
 32 H        4.8480     0.3270     1.2740 H     1 <1>   0.1500 
 33 H       -6.0820    -4.7790     0.3270 H     1 <1>   0.1500 
 34 H       -5.3200    -9.5530    -0.5070 H     1 <1>   0.1500 
 35 H       -7.9620    -6.2510    -0.2270 H     1 <1>   0.1500 
 36 H       -3.0870    -9.8410    -1.0450 H     1 <1>   0.0800 
 37 H       -3.3210   -10.0460     0.6960 H     1 <1>   0.0800 
 38 H       -7.5700    -8.6440    -0.6350 H     1 <1>   0.1500 
 39 H       -0.7650    -9.0800    -0.6380 H     1 <1>   0.0800 
 40 H       -0.9980   -10.6750     0.0370 H     1 <1>   0.0800 
 41 H       -0.9980    -9.2800     1.0900 H     1 <1>   0.0800 
@<TRIPOS>BOND
  1   1   2  2   
  2   2   3  am  
  3   2   4  1   
  4   3   5  1   
  5   3  23  1   
  6   4   6  1   
  7   4  24  1   
  8   4  25  1   
  9   5   7  1   
 10   5  26  1   
 11   5  27  1   
 12   6   8  1   
 13   6  28  1   
 14   6  29  1   
 15   7   9  2   
 16   7  30  1   
 17   8  10  1   
 18   8  11  2   
 19   9  31  1   
 20   9  32  1   
 21  10  12  1   
 22  11  13  1   
 23  12  13  2   
 24  13  14  1   
 25  14  15  ar  
 26  14  16  ar  
 27  15  17  1   
 28  15  18  ar  
 29  16  19  ar  
 30  16  33  1   
 31  17  20  1   
 32  18  21  ar  
 33  18  34  1   
 34  19  21  ar  
 35  19  35  1   
 36  20  22  1   
 37  20  36  1   
 38  20  37  1   
 39  21  38  1   
 40  22  39  1   
 41  22  40  1   
 42  22  41  1   
@<TRIPOS>SUBSTRUCTURE
  1 ****   8 GROUP 4 **** **** 0

# MOE 2024.06 (io_trps.svl 2023.06)
