@<TRIPOS>MOLECULE
1-Acetyl-5-(3,5-dimethyl-phenyl)-4,6-dioxo-1,3a,4,5,6,6a-hexahydro-pyrrolo[3,4-c
45 47 1 0 0 
SMALL
USER_CHARGES


@<TRIPOS>ATOM
  1 O        0.0470    -0.3660     0.7700 O.2   1 <1>  -0.5700 
  2 C       -0.0080    -1.4890     0.3410 C.2   1 <1>   0.5690 
  3 N        1.0520    -2.3420     0.0930 N.am  1 <1>  -0.2370 
  4 C       -1.2640    -2.2680     0.0000 C.3   1 <1>   0.2810 
  5 C        2.4140    -1.9770    -0.0370 C.ar  1 <1>   0.1170 
  6 C        0.5350    -3.6190    -0.0310 C.2   1 <1>   0.5690 
  7 N       -2.6720    -2.2610     0.4160 N.am  1 <1>  -0.2980 
  8 C       -0.8500    -3.6070     0.5370 C.3   1 <1>   0.0420 
  9 C        3.4270    -2.8500     0.3500 C.ar  1 <1>  -0.1500 
 10 C        2.7770    -0.7380    -0.5580 C.ar  1 <1>  -0.1500 
 11 O        1.0470    -4.5750    -0.5480 O.2   1 <1>  -0.5700 
 12 N       -3.1260    -3.5610     0.3720 N.2   1 <1>  -0.5120 
 13 C       -3.4200    -1.0990     0.4460 C.2   1 <1>   0.5690 
 14 C       -2.1250    -4.3810     0.3340 C.2   1 <1>   0.3890 
 15 C        4.7600    -2.5030     0.2220 C.ar  1 <1>  -0.1440 
 16 C        4.1060    -0.3760    -0.6870 C.ar  1 <1>  -0.1440 
 17 O       -2.9640    -0.0340     0.1200 O.2   1 <1>  -0.5700 
 18 C       -4.8680    -1.1750     0.8700 C.3   1 <1>  -0.1790 
 19 C       -2.0780    -5.8230     0.2520 C.2   1 <1>   0.7200 
 20 C        5.0950    -1.2640    -0.2970 C.ar  1 <1>  -0.1500 
 21 C        5.8550    -3.4670     0.6430 C.3   1 <1>  -0.0970 
 22 C        4.4850     0.9810    -1.2510 C.3   1 <1>  -0.0960 
 23 O       -1.0930    -6.4450     0.5940 O.2   1 <1>  -0.5700 
 24 O       -3.1060    -6.5710    -0.1780 O.3   1 <1>  -0.4300 
 25 C       -4.3360    -6.0720    -0.6520 C.3   1 <1>   0.1200 
 26 C       -5.1540    -7.2540    -1.1610 C.3   1 <1>  -0.2400 
 27 H       -1.2930    -2.2990    -1.0770 H     1 <1>   0.0800 
 28 H       -0.7220    -3.5460     1.6050 H     1 <1>   0.0800 
 29 H        3.1740    -3.8140     0.7540 H     1 <1>   0.1500 
 30 H        2.0150    -0.0440    -0.8630 H     1 <1>   0.1500 
 31 H       -4.9450    -1.6890     1.8090 H     1 <1>   0.0800 
 32 H       -5.4320    -1.7050     0.1260 H     1 <1>   0.0800 
 33 H       -5.2690    -0.1840     0.9770 H     1 <1>   0.0800 
 34 H        6.1300    -0.9890    -0.3970 H     1 <1>   0.1500 
 35 H        5.4640    -4.4620     0.7590 H     1 <1>   0.0800 
 36 H        6.2800    -3.1500     1.5780 H     1 <1>   0.0800 
 37 H        6.6310    -3.4930    -0.1010 H     1 <1>   0.0800 
 38 H        3.6550     1.6620    -1.1970 H     1 <1>   0.0800 
 39 H        4.7830     0.8780    -2.2790 H     1 <1>   0.0800 
 40 H        5.3020     1.4000    -0.6920 H     1 <1>   0.0800 
 41 H       -4.1470    -5.3720    -1.4480 H     1 <1>   0.0800 
 42 H       -4.8470    -5.5820     0.1600 H     1 <1>   0.0800 
 43 H       -4.6330    -7.7480    -1.9630 H     1 <1>   0.0800 
 44 H       -6.1030    -6.9100    -1.5300 H     1 <1>   0.0800 
 45 H       -5.3300    -7.9540    -0.3640 H     1 <1>   0.0800 
@<TRIPOS>BOND
  1   1   2  2   
  2   2   3  am  
  3   2   4  1   
  4   3   5  1   
  5   3   6  am  
  6   4   7  1   
  7   4   8  1   
  8   4  27  1   
  9   5   9  ar  
 10   5  10  ar  
 11   6   8  1   
 12   6  11  2   
 13   7  12  1   
 14   7  13  am  
 15   8  14  1   
 16   8  28  1   
 17   9  15  ar  
 18   9  29  1   
 19  10  16  ar  
 20  10  30  1   
 21  12  14  2   
 22  13  17  2   
 23  13  18  1   
 24  14  19  1   
 25  15  20  ar  
 26  15  21  1   
 27  16  20  ar  
 28  16  22  1   
 29  18  31  1   
 30  18  32  1   
 31  18  33  1   
 32  19  23  2   
 33  19  24  1   
 34  20  34  1   
 35  21  35  1   
 36  21  36  1   
 37  21  37  1   
 38  22  38  1   
 39  22  39  1   
 40  22  40  1   
 41  24  25  1   
 42  25  26  1   
 43  25  41  1   
 44  25  42  1   
 45  26  43  1   
 46  26  44  1   
 47  26  45  1   
@<TRIPOS>SUBSTRUCTURE
  1 ****   6 GROUP 4 **** **** 0

# MOE 2024.06 (io_trps.svl 2023.06)
