@<TRIPOS>MOLECULE
N-(2-Methoxy-ethyl)-3-[3-(3-methoxy-phenyl)-[1,2,4]oxadiazol-5-yl]-propionamide
41 42 1 0 0 
SMALL
USER_CHARGES


@<TRIPOS>ATOM
  1 O        0.2400    -0.5010    -0.3380 O.2   1 <1>  -0.5700 
  2 C        0.7620    -1.4990     0.0920 C.2   1 <1>   0.5690 
  3 N        2.0270    -1.5000     0.5790 N.am  1 <1>  -0.7300 
  4 C       -0.0220    -2.7910     0.0890 C.3   1 <1>  -0.0990 
  5 C        2.8850    -0.2910     0.6870 C.3   1 <1>   0.1400 
  6 C       -1.2850    -2.6650     0.9510 C.3   1 <1>   0.0200 
  7 C        3.4230     0.1140    -0.6860 C.3   1 <1>   0.1200 
  8 C       -2.0340    -3.9800     1.0150 C.2   1 <1>   0.2980 
  9 O        4.3830     1.1060    -0.5050 O.3   1 <1>  -0.5600 
 10 O       -1.5050    -4.9710     1.6840 O.3   1 <1>  -0.0190 
 11 N       -3.1490    -4.2260     0.4670 N.2   1 <1>  -0.5650 
 12 C        4.8860     1.6230    -1.6940 C.3   1 <1>   0.0400 
 13 N       -2.3600    -5.9340     1.5470 N.2   1 <1>  -0.4100 
 14 C       -3.3360    -5.4990     0.8300 C.2   1 <1>   0.4620 
 15 C       -4.5100    -6.2640     0.4400 C.ar  1 <1>   0.0540 
 16 C       -5.5150    -5.7130    -0.3540 C.ar  1 <1>  -0.1500 
 17 C       -4.6780    -7.5890     0.8480 C.ar  1 <1>  -0.1500 
 18 C       -6.6340    -6.4360    -0.7290 C.ar  1 <1>   0.0820 
 19 C       -5.7910    -8.3250     0.4820 C.ar  1 <1>  -0.1500 
 20 O       -7.5450    -5.7940    -1.5030 O.3   1 <1>  -0.3630 
 21 C       -6.7720    -7.7540    -0.3070 C.ar  1 <1>  -0.1500 
 22 C       -8.7200    -6.4380    -1.9410 C.3   1 <1>   0.0400 
 23 H        2.4510    -2.3690     0.9090 H     1 <1>   0.3700 
 24 H        0.5940    -3.5910     0.4570 H     1 <1>   0.0800 
 25 H       -0.3010    -3.0180    -0.9240 H     1 <1>   0.0800 
 26 H        3.7080    -0.4980     1.3490 H     1 <1>   0.0800 
 27 H        2.3060     0.5220     1.0910 H     1 <1>   0.0800 
 28 H       -1.9320    -1.9130     0.5330 H     1 <1>   0.0800 
 29 H       -1.0240    -2.3620     1.9490 H     1 <1>   0.0800 
 30 H        2.6240     0.5050    -1.2940 H     1 <1>   0.0800 
 31 H        3.8900    -0.7250    -1.1710 H     1 <1>   0.0800 
 32 H        5.6190     2.3720    -1.4500 H     1 <1>   0.0800 
 33 H        4.0830     2.0710    -2.2540 H     1 <1>   0.0800 
 34 H        5.3490     0.8330    -2.2590 H     1 <1>   0.0800 
 35 H       -5.4300    -4.6960    -0.6930 H     1 <1>   0.1500 
 36 H       -3.9250    -8.0510     1.4620 H     1 <1>   0.1500 
 37 H       -5.8920    -9.3450     0.8120 H     1 <1>   0.1500 
 38 H       -7.6270    -8.3430    -0.5790 H     1 <1>   0.1500 
 39 H       -9.2820    -5.7390    -2.5340 H     1 <1>   0.0800 
 40 H       -9.2960    -6.7340    -1.0820 H     1 <1>   0.0800 
 41 H       -8.4500    -7.2900    -2.5390 H     1 <1>   0.0800 
@<TRIPOS>BOND
  1   1   2  2   
  2   2   3  am  
  3   2   4  1   
  4   3   5  1   
  5   3  23  1   
  6   4   6  1   
  7   4  24  1   
  8   4  25  1   
  9   5   7  1   
 10   5  26  1   
 11   5  27  1   
 12   6   8  1   
 13   6  28  1   
 14   6  29  1   
 15   7   9  1   
 16   7  30  1   
 17   7  31  1   
 18   8  10  1   
 19   8  11  2   
 20   9  12  1   
 21  10  13  1   
 22  11  14  1   
 23  12  32  1   
 24  12  33  1   
 25  12  34  1   
 26  13  14  2   
 27  14  15  1   
 28  15  16  ar  
 29  15  17  ar  
 30  16  18  ar  
 31  16  35  1   
 32  17  19  ar  
 33  17  36  1   
 34  18  20  1   
 35  18  21  ar  
 36  19  21  ar  
 37  19  37  1   
 38  20  22  1   
 39  21  38  1   
 40  22  39  1   
 41  22  40  1   
 42  22  41  1   
@<TRIPOS>SUBSTRUCTURE
  1 ****   8 GROUP 4 **** **** 0

# MOE 2024.06 (io_trps.svl 2023.06)
