@<TRIPOS>MOLECULE
1-(2,5-Dimethoxy-benzenesulfonyl)-piperidine-4-carboxylic acid phenylamide
52 54 1 0 0 
SMALL
USER_CHARGES


@<TRIPOS>ATOM
  1 S       -0.1270    -0.1740    -1.4140 S.o2  1 <1>   1.4470 
  2 O        0.0650    -1.4280    -2.1130 O.2   1 <1>  -0.6500 
  3 O       -0.5040     0.9780    -2.2070 O.2   1 <1>  -0.6500 
  4 N        1.3660     0.2000    -0.6960 N.am  1 <1>  -0.8490 
  5 C       -1.2500    -0.4830    -0.0220 C.ar  1 <1>  -0.0090 
  6 C        1.3350     1.4970    -0.0100 C.3   1 <1>   0.1960 
  7 C        2.4430     0.1360    -1.6890 C.3   1 <1>   0.1960 
  8 C       -1.9910     0.5290     0.5840 C.ar  1 <1>   0.0820 
  9 C       -1.3770    -1.7710     0.4880 C.ar  1 <1>  -0.1500 
 10 C        2.6650     1.7670     0.6990 C.3   1 <1>  -0.1600 
 11 C        3.8050     0.3670    -1.0300 C.3   1 <1>  -0.1600 
 12 O       -1.8850     1.8070     0.1640 O.3   1 <1>  -0.3620 
 13 C       -2.8330     0.2630     1.6540 C.ar  1 <1>  -0.1500 
 14 C       -2.2230    -2.0510     1.5570 C.ar  1 <1>   0.0820 
 15 C        3.8420     1.7120    -0.2860 C.3   1 <1>  -0.0190 
 16 C       -2.9490     2.2970    -0.6230 C.3   1 <1>   0.0400 
 17 C       -2.9500    -1.0260     2.1360 C.ar  1 <1>  -0.1500 
 18 O       -2.3880    -3.2900     2.0860 O.3   1 <1>  -0.3630 
 19 C        5.1800     1.9380     0.4190 C.2   1 <1>   0.5690 
 20 C       -1.6890    -4.4030     1.5720 C.3   1 <1>   0.0400 
 21 O        5.5560     1.1280     1.2300 O.2   1 <1>  -0.5700 
 22 N        5.8900     3.0600     0.0800 N.am  1 <1>  -0.5470 
 23 C        7.1180     3.5590     0.5430 C.ar  1 <1>   0.1170 
 24 C        7.7820     4.5040    -0.2310 C.ar  1 <1>  -0.1500 
 25 C        7.7000     3.1680     1.7460 C.ar  1 <1>  -0.1500 
 26 C        8.9900     5.0420     0.1770 C.ar  1 <1>  -0.1500 
 27 C        8.9080     3.7020     2.1580 C.ar  1 <1>  -0.1500 
 28 C        9.5550     4.6400     1.3740 C.ar  1 <1>  -0.1500 
 29 H        0.5570     1.4960     0.7330 H     1 <1>   0.0800 
 30 H        1.1260     2.2850    -0.7150 H     1 <1>   0.0800 
 31 H        2.2730     0.8710    -2.4590 H     1 <1>   0.0800 
 32 H        2.4510    -0.8370    -2.1530 H     1 <1>   0.0800 
 33 H       -0.7990    -2.5530     0.0300 H     1 <1>   0.1500 
 34 H        2.8010     1.0300     1.4730 H     1 <1>   0.0800 
 35 H        2.6270     2.7330     1.1700 H     1 <1>   0.0800 
 36 H        4.5730     0.3440    -1.7810 H     1 <1>   0.0800 
 37 H        3.9960    -0.4380    -0.3410 H     1 <1>   0.0800 
 38 H       -3.3880     1.0630     2.1100 H     1 <1>   0.1500 
 39 H        3.7030     2.4930    -1.0110 H     1 <1>   0.0800 
 40 H       -2.7090     3.3010    -0.9240 H     1 <1>   0.0800 
 41 H       -3.8530     2.2910    -0.0410 H     1 <1>   0.0800 
 42 H       -3.0560     1.6730    -1.4940 H     1 <1>   0.0800 
 43 H       -3.6010    -1.2460     2.9630 H     1 <1>   0.1500 
 44 H       -1.9770    -5.2690     2.1400 H     1 <1>   0.0800 
 45 H       -0.6330    -4.2320     1.6760 H     1 <1>   0.0800 
 46 H       -1.9580    -4.5380     0.5390 H     1 <1>   0.0800 
 47 H        5.4740     3.6200    -0.6590 H     1 <1>   0.3700 
 48 H        7.3570     4.8240    -1.1640 H     1 <1>   0.1500 
 49 H        7.2130     2.4460     2.3740 H     1 <1>   0.1500 
 50 H        9.4920     5.7710    -0.4340 H     1 <1>   0.1500 
 51 H        9.3430     3.3860     3.0900 H     1 <1>   0.1500 
 52 H       10.4950     5.0550     1.6950 H     1 <1>   0.1500 
@<TRIPOS>BOND
  1   1   2  2   
  2   1   3  2   
  3   1   4  am  
  4   1   5  1   
  5   4   6  1   
  6   4   7  1   
  7   5   8  ar  
  8   5   9  ar  
  9   6  10  1   
 10   6  29  1   
 11   6  30  1   
 12   7  11  1   
 13   7  31  1   
 14   7  32  1   
 15   8  12  1   
 16   8  13  ar  
 17   9  14  ar  
 18   9  33  1   
 19  10  15  1   
 20  10  34  1   
 21  10  35  1   
 22  11  15  1   
 23  11  36  1   
 24  11  37  1   
 25  12  16  1   
 26  13  17  ar  
 27  13  38  1   
 28  14  17  ar  
 29  14  18  1   
 30  15  19  1   
 31  15  39  1   
 32  16  40  1   
 33  16  41  1   
 34  16  42  1   
 35  17  43  1   
 36  18  20  1   
 37  19  21  2   
 38  19  22  am  
 39  20  44  1   
 40  20  45  1   
 41  20  46  1   
 42  22  23  1   
 43  22  47  1   
 44  23  24  ar  
 45  23  25  ar  
 46  24  26  ar  
 47  24  48  1   
 48  25  27  ar  
 49  25  49  1   
 50  26  28  ar  
 51  26  50  1   
 52  27  28  ar  
 53  27  51  1   
 54  28  52  1   
@<TRIPOS>SUBSTRUCTURE
  1 ****   6 GROUP 4 **** **** 0

# MOE 2024.06 (io_trps.svl 2023.06)
