@<TRIPOS>MOLECULE
1-(2,5-Dimethyl-phenyl)-5-oxo-pyrrolidine-3-carboxylic acid (5-chloro-2-methoxy-
47 49 1 0 0 
SMALL
USER_CHARGES


@<TRIPOS>ATOM
  1 CL       0.0080     0.1280     0.9840 Cl    1 <1>  -0.1770 
  2 C       -1.5130     0.8480     0.5170 C.ar  1 <1>   0.1770 
  3 C       -2.6720     0.1040     0.6120 C.ar  1 <1>  -0.1500 
  4 C       -1.5270     2.1520     0.0620 C.ar  1 <1>  -0.1500 
  5 C       -3.8880     0.6670     0.2430 C.ar  1 <1>   0.1170 
  6 C       -2.7310     2.7260    -0.3080 C.ar  1 <1>  -0.1500 
  7 N       -5.1130    -0.0220     0.3090 N.am  1 <1>  -0.5470 
  8 C       -3.9100     1.9900    -0.2200 C.ar  1 <1>   0.0830 
  9 C       -5.4530    -1.3040     0.6390 C.2   1 <1>   0.5690 
 10 O       -5.1300     2.5020    -0.5710 O.3   1 <1>  -0.3630 
 11 O       -4.6540    -2.1370     0.9880 O.2   1 <1>  -0.5700 
 12 C       -6.9270    -1.6790     0.5760 C.3   1 <1>  -0.0190 
 13 C       -5.2550     3.8160    -1.0740 C.3   1 <1>   0.0400 
 14 C       -7.1900    -3.1890     0.6790 C.3   1 <1>   0.1400 
 15 C       -7.6330    -1.2510    -0.7230 C.3   1 <1>  -0.0990 
 16 N       -8.4070    -3.4020    -0.1230 N.am  1 <1>  -0.4770 
 17 C       -8.6610    -2.3290    -0.9230 C.2   1 <1>   0.5690 
 18 C       -9.1170    -4.6100    -0.0320 C.ar  1 <1>   0.1170 
 19 O       -9.5720    -2.1980    -1.7010 O.2   1 <1>  -0.5700 
 20 C      -10.4180    -4.6740     0.4740 C.ar  1 <1>  -0.1430 
 21 C       -8.4970    -5.7850    -0.4440 C.ar  1 <1>  -0.1500 
 22 C      -11.0610    -5.8980     0.5550 C.ar  1 <1>  -0.1500 
 23 C      -11.1540    -3.4250     0.9420 C.3   1 <1>  -0.0970 
 24 C       -9.1390    -7.0070    -0.3580 C.ar  1 <1>  -0.1430 
 25 C      -10.4280    -7.0580     0.1440 C.ar  1 <1>  -0.1500 
 26 C       -8.4510    -8.2810    -0.8140 C.3   1 <1>  -0.0970 
 27 H       -2.6070    -0.9040     0.9740 H     1 <1>   0.1500 
 28 H       -0.6060     2.7040     0.0000 H     1 <1>   0.1500 
 29 H       -2.7230     3.7410    -0.6590 H     1 <1>   0.1500 
 30 H       -5.8850     0.5850     0.0250 H     1 <1>   0.3700 
 31 H       -7.4210    -1.2110     1.4080 H     1 <1>   0.0800 
 32 H       -6.2930     3.9950    -1.2900 H     1 <1>   0.0800 
 33 H       -4.6760     3.9030    -1.9760 H     1 <1>   0.0800 
 34 H       -4.9150     4.5110    -0.3260 H     1 <1>   0.0800 
 35 H       -7.3420    -3.4970     1.7000 H     1 <1>   0.0800 
 36 H       -6.3850    -3.7590     0.2460 H     1 <1>   0.0800 
 37 H       -6.9620    -1.2650    -1.5620 H     1 <1>   0.0800 
 38 H       -8.1010    -0.2880    -0.6350 H     1 <1>   0.0800 
 39 H       -7.5010    -5.7320    -0.8410 H     1 <1>   0.1500 
 40 H      -12.0640    -5.9590     0.9380 H     1 <1>   0.1500 
 41 H      -10.5130    -2.8220     1.5570 H     1 <1>   0.0800 
 42 H      -12.0260    -3.6840     1.5150 H     1 <1>   0.0800 
 43 H      -11.4650    -2.8490     0.0890 H     1 <1>   0.0800 
 44 H      -10.9440    -7.9990     0.2130 H     1 <1>   0.1500 
 45 H       -7.3930    -8.1280    -0.9180 H     1 <1>   0.0800 
 46 H       -8.8510    -8.5900    -1.7630 H     1 <1>   0.0800 
 47 H       -8.6130    -9.0660    -0.0960 H     1 <1>   0.0800 
@<TRIPOS>BOND
  1   1   2  1   
  2   2   3  ar  
  3   2   4  ar  
  4   3   5  ar  
  5   3  27  1   
  6   4   6  ar  
  7   4  28  1   
  8   5   7  1   
  9   5   8  ar  
 10   6   8  ar  
 11   6  29  1   
 12   7   9  am  
 13   7  30  1   
 14   8  10  1   
 15   9  11  2   
 16   9  12  1   
 17  10  13  1   
 18  12  14  1   
 19  12  15  1   
 20  12  31  1   
 21  13  32  1   
 22  13  33  1   
 23  13  34  1   
 24  14  16  1   
 25  14  35  1   
 26  14  36  1   
 27  15  17  1   
 28  15  37  1   
 29  15  38  1   
 30  16  17  am  
 31  16  18  1   
 32  17  19  2   
 33  18  20  ar  
 34  18  21  ar  
 35  20  22  ar  
 36  20  23  1   
 37  21  24  ar  
 38  21  39  1   
 39  22  25  ar  
 40  22  40  1   
 41  23  41  1   
 42  23  42  1   
 43  23  43  1   
 44  24  25  ar  
 45  24  26  1   
 46  25  44  1   
 47  26  45  1   
 48  26  46  1   
 49  26  47  1   
@<TRIPOS>SUBSTRUCTURE
  1 ****  12 GROUP 4 **** **** 0

# MOE 2024.06 (io_trps.svl 2023.06)
