@<TRIPOS>MOLECULE
6-(3,4-Dimethoxy-benzyl)-3-methyl-[1,2,4]triazolo[3,4-b][1,3,4]thiadiazole
34 36 1 0 0 
SMALL
USER_CHARGES


@<TRIPOS>ATOM
  1 S       -1.8100    -0.7090    -1.4270 S.3   1 <1>  -0.1970 
  2 C       -0.4910    -1.8560    -1.5170 C.2   1 <1>   0.2420 
  3 C       -1.8200    -0.9390     0.3360 C.2   1 <1>   0.5300 
  4 N        0.2370    -2.3640    -2.4470 N.2   1 <1>  -0.3380 
  5 N       -0.2060    -2.2710    -0.2950 N.pl3 1 <1>   0.5050 
  6 N       -0.9480    -1.7550     0.7730 N.2   1 <1>  -0.6520 
  7 C       -2.8450    -0.1440     1.1200 C.3   1 <1>   0.0450 
  8 N        1.0810    -3.1910    -1.7980 N.2   1 <1>  -0.3380 
  9 C        0.8060    -3.1230    -0.5310 C.2   1 <1>   0.0070 
 10 C       -4.2550    -0.6490     0.8500 C.ar  1 <1>  -0.1440 
 11 C        1.5190    -3.8940     0.5620 C.3   1 <1>  -0.0600 
 12 C       -5.1190     0.0690     0.0360 C.ar  1 <1>  -0.1500 
 13 C       -4.6840    -1.8400     1.4180 C.ar  1 <1>  -0.1500 
 14 C       -6.4020    -0.3920    -0.2110 C.ar  1 <1>   0.0830 
 15 C       -5.9590    -2.3160     1.1620 C.ar  1 <1>  -0.1500 
 16 O       -7.2010     0.3830    -0.9840 O.3   1 <1>  -0.3630 
 17 C       -6.8170    -1.6100     0.3370 C.ar  1 <1>   0.0830 
 18 C       -8.3470     0.9230    -0.3610 C.3   1 <1>   0.0400 
 19 O       -8.0360    -2.1520     0.0940 O.3   1 <1>  -0.3630 
 20 C       -8.2840    -2.5580    -1.2340 C.3   1 <1>   0.0400 
 21 H       -2.7610     0.8940     0.8570 H     1 <1>   0.0800 
 22 H       -2.6300    -0.2360     2.1690 H     1 <1>   0.0800 
 23 H        0.8200    -4.5210     1.0860 H     1 <1>   0.0800 
 24 H        1.9700    -3.2110     1.2600 H     1 <1>   0.0800 
 25 H        2.2880    -4.5120     0.1340 H     1 <1>   0.0800 
 26 H       -4.8140     0.9960    -0.4140 H     1 <1>   0.1500 
 27 H       -4.0290    -2.4070     2.0570 H     1 <1>   0.1500 
 28 H       -6.2920    -3.2410     1.5960 H     1 <1>   0.1500 
 29 H       -8.8120     1.6060    -1.0480 H     1 <1>   0.0800 
 30 H       -8.0450     1.4430     0.5300 H     1 <1>   0.0800 
 31 H       -9.0290     0.1290    -0.1170 H     1 <1>   0.0800 
 32 H       -9.2340    -3.0600    -1.2600 H     1 <1>   0.0800 
 33 H       -7.5020    -3.2300    -1.5430 H     1 <1>   0.0800 
 34 H       -8.3080    -1.6950    -1.8730 H     1 <1>   0.0800 
@<TRIPOS>BOND
  1   1   2  1   
  2   1   3  1   
  3   2   4  2   
  4   2   5  1   
  5   3   6  2   
  6   3   7  1   
  7   4   8  1   
  8   5   6  1   
  9   5   9  1   
 10   7  10  1   
 11   7  21  1   
 12   7  22  1   
 13   8   9  2   
 14   9  11  1   
 15  10  12  ar  
 16  10  13  ar  
 17  11  23  1   
 18  11  24  1   
 19  11  25  1   
 20  12  14  ar  
 21  12  26  1   
 22  13  15  ar  
 23  13  27  1   
 24  14  16  1   
 25  14  17  ar  
 26  15  17  ar  
 27  15  28  1   
 28  16  18  1   
 29  17  19  1   
 30  18  29  1   
 31  18  30  1   
 32  18  31  1   
 33  19  20  1   
 34  20  32  1   
 35  20  33  1   
 36  20  34  1   
@<TRIPOS>SUBSTRUCTURE
  1 ****  10 GROUP 4 **** **** 0

# MOE 2024.06 (io_trps.svl 2023.06)
