@<TRIPOS>MOLECULE
Furan-2-yl-[4-(morpholine-4-sulfonyl)-piperazin-1-yl]-methanone
41 43 1 0 0 
SMALL
USER_CHARGES


@<TRIPOS>ATOM
  1 S       -0.2340    -0.1990     1.4690 S.o2  1 <1>   1.5760 
  2 O       -0.2870    -1.5880     1.8680 O.2   1 <1>  -0.6500 
  3 O       -0.2460     0.8660     2.4460 O.2   1 <1>  -0.6500 
  4 N        1.1220     0.0090     0.4870 N.am  1 <1>  -0.8490 
  5 N       -1.4630     0.0910     0.3370 N.am  1 <1>  -0.8490 
  6 C        1.2740     1.3740    -0.0290 C.3   1 <1>   0.1960 
  7 C        1.2260    -0.9800    -0.5920 C.3   1 <1>   0.1960 
  8 C       -2.2810     1.2680     0.6810 C.3   1 <1>   0.1960 
  9 C       -2.3260    -1.0870     0.1240 C.3   1 <1>   0.1960 
 10 C        2.5590     1.5060    -0.8660 C.3   1 <1>   0.1200 
 11 C        2.5110    -0.7670    -1.4120 C.3   1 <1>   0.1200 
 12 C       -3.3270     1.5850    -0.4040 C.3   1 <1>   0.1400 
 13 C       -3.3590    -0.8410    -0.9870 C.3   1 <1>   0.1400 
 14 O        2.5790     0.5490    -1.8880 O.3   1 <1>  -0.5600 
 15 N       -4.1650     0.3860    -0.7060 N.am  1 <1>  -0.6600 
 16 C       -5.5190     0.3230    -0.4360 C.2   1 <1>   0.7150 
 17 O       -6.0080    -0.7680    -0.2010 O.2   1 <1>  -0.5700 
 18 C       -6.3430     1.5140    -0.4380 C.2   1 <1>   0.0550 
 19 O       -7.3080     1.6870     0.4610 O.3   1 <1>  -0.2800 
 20 C       -6.3260     2.6050    -1.2570 C.2   1 <1>  -0.1500 
 21 C       -7.8960     2.8400     0.2420 C.2   1 <1>  -0.0100 
 22 C       -7.3320     3.4640    -0.8130 C.2   1 <1>  -0.1500 
 23 H        1.3180     2.0680     0.7930 H     1 <1>   0.0800 
 24 H        0.4310     1.6350    -0.6460 H     1 <1>   0.0800 
 25 H        0.3790    -0.9020    -1.2520 H     1 <1>   0.0800 
 26 H        1.2380    -1.9710    -0.1720 H     1 <1>   0.0800 
 27 H       -1.6440     2.1280     0.7990 H     1 <1>   0.0800 
 28 H       -2.7840     1.1010     1.6200 H     1 <1>   0.0800 
 29 H       -2.8400    -1.3390     1.0370 H     1 <1>   0.0800 
 30 H       -1.7210    -1.9330    -0.1570 H     1 <1>   0.0800 
 31 H        3.4270     1.3690    -0.2460 H     1 <1>   0.0800 
 32 H        2.6090     2.4780    -1.3240 H     1 <1>   0.0800 
 33 H        2.5260    -1.4260    -2.2620 H     1 <1>   0.0800 
 34 H        3.3800    -0.9610    -0.8070 H     1 <1>   0.0800 
 35 H       -2.8220     1.8990    -1.3010 H     1 <1>   0.0800 
 36 H       -3.9360     2.4010    -0.0600 H     1 <1>   0.0800 
 37 H       -3.9950    -1.7050    -1.0770 H     1 <1>   0.0800 
 38 H       -2.8450    -0.7170    -1.9240 H     1 <1>   0.0800 
 39 H       -5.6770     2.7870    -2.0950 H     1 <1>   0.1500 
 40 H       -8.7080     3.1410     0.8820 H     1 <1>   0.1500 
 41 H       -7.5870     4.4170    -1.2430 H     1 <1>   0.1500 
@<TRIPOS>BOND
  1   1   2  2   
  2   1   3  2   
  3   1   4  am  
  4   1   5  am  
  5   4   6  1   
  6   4   7  1   
  7   5   8  1   
  8   5   9  1   
  9   6  10  1   
 10   6  23  1   
 11   6  24  1   
 12   7  11  1   
 13   7  25  1   
 14   7  26  1   
 15   8  12  1   
 16   8  27  1   
 17   8  28  1   
 18   9  13  1   
 19   9  29  1   
 20   9  30  1   
 21  10  14  1   
 22  10  31  1   
 23  10  32  1   
 24  11  14  1   
 25  11  33  1   
 26  11  34  1   
 27  12  15  1   
 28  12  35  1   
 29  12  36  1   
 30  13  15  1   
 31  13  37  1   
 32  13  38  1   
 33  15  16  am  
 34  16  17  2   
 35  16  18  1   
 36  18  19  1   
 37  18  20  2   
 38  19  21  1   
 39  20  22  1   
 40  20  39  1   
 41  21  22  2   
 42  21  40  1   
 43  22  41  1   
@<TRIPOS>SUBSTRUCTURE
  1 ****   8 GROUP 4 **** **** 0

# MOE 2024.06 (io_trps.svl 2023.06)
