@<TRIPOS>MOLECULE
1-(4-Ethoxy-benzenesulfonyl)-piperidine-4-carboxylic acid propylamide
50 51 1 0 0 
SMALL
USER_CHARGES


@<TRIPOS>ATOM
  1 S       -0.2680     0.2820     2.4030 S.o2  1 <1>   1.4470 
  2 O       -1.0290     1.3580     3.0000 O.2   1 <1>  -0.6500 
  3 O        0.4160    -0.6600     3.2650 O.2   1 <1>  -0.6500 
  4 N        0.9250     0.9890     1.4250 N.am  1 <1>  -0.8490 
  5 C       -1.3150    -0.6040     1.2150 C.ar  1 <1>  -0.0090 
  6 C        1.8510    -0.0090     0.8800 C.3   1 <1>   0.1960 
  7 C        1.6360     2.0540     2.1370 C.3   1 <1>   0.1960 
  8 C       -1.7250    -1.9120     1.4500 C.ar  1 <1>  -0.1500 
  9 C       -1.7400     0.0070     0.0400 C.ar  1 <1>  -0.1500 
 10 C        2.8100     0.6460    -0.1150 C.3   1 <1>  -0.1600 
 11 C        2.6010     2.7750     1.1910 C.3   1 <1>  -0.1600 
 12 C       -2.5220    -2.5940     0.5460 C.ar  1 <1>  -0.1500 
 13 C       -2.5370    -0.6650    -0.8700 C.ar  1 <1>  -0.1500 
 14 C        3.5920     1.7950     0.5410 C.3   1 <1>  -0.0190 
 15 C       -2.9330    -1.9690    -0.6270 C.ar  1 <1>   0.0830 
 16 C        4.5070     2.5020    -0.4570 C.2   1 <1>   0.5690 
 17 O       -3.7100    -2.5570    -1.5670 O.3   1 <1>  -0.3630 
 18 O        4.0370     2.9770    -1.4620 O.2   1 <1>  -0.5700 
 19 N        5.8360     2.5770    -0.1800 N.am  1 <1>  -0.7300 
 20 C       -4.1920    -3.8710    -1.4080 C.3   1 <1>   0.1200 
 21 C        6.8490     3.2120    -1.0490 C.3   1 <1>   0.1400 
 22 C       -5.0380    -4.2170    -2.6300 C.3   1 <1>  -0.2400 
 23 C        7.9890     2.2230    -1.2910 C.3   1 <1>  -0.1600 
 24 C        9.0750     2.8330    -2.1820 C.3   1 <1>  -0.2400 
 25 H        1.2960    -0.7810     0.3720 H     1 <1>   0.0800 
 26 H        2.4100    -0.4690     1.6800 H     1 <1>   0.0800 
 27 H        2.1730     1.6390     2.9740 H     1 <1>   0.0800 
 28 H        0.9290     2.7740     2.5160 H     1 <1>   0.0800 
 29 H       -1.4130    -2.4050     2.3560 H     1 <1>   0.1500 
 30 H       -1.4410     1.0220    -0.1620 H     1 <1>   0.1500 
 31 H        2.2410     1.0190    -0.9500 H     1 <1>   0.0800 
 32 H        3.4960    -0.0920    -0.4910 H     1 <1>   0.0800 
 33 H        3.1390     3.5290     1.7360 H     1 <1>   0.0800 
 34 H        2.0270     3.2710     0.4260 H     1 <1>   0.0800 
 35 H       -2.8110    -3.6030     0.7710 H     1 <1>   0.1500 
 36 H       -2.8570    -0.1810    -1.7760 H     1 <1>   0.1500 
 37 H        4.2040     1.3770     1.3200 H     1 <1>   0.0800 
 38 H        6.1970     2.1760     0.6860 H     1 <1>   0.3700 
 39 H       -4.7860    -3.9100    -0.5110 H     1 <1>   0.0800 
 40 H       -3.3490    -4.5360    -1.3280 H     1 <1>   0.0800 
 41 H        7.2220     4.1010    -0.5680 H     1 <1>   0.0800 
 42 H        6.4030     3.4960    -1.9890 H     1 <1>   0.0800 
 43 H       -5.8670    -3.5370    -2.7090 H     1 <1>   0.0800 
 44 H       -5.4210    -5.2170    -2.5370 H     1 <1>   0.0800 
 45 H       -4.4400    -4.1590    -3.5210 H     1 <1>   0.0800 
 46 H        7.5960     1.3430    -1.7700 H     1 <1>   0.0800 
 47 H        8.4260     1.9380    -0.3500 H     1 <1>   0.0800 
 48 H        8.6660     3.1100    -3.1380 H     1 <1>   0.0800 
 49 H        9.8640     2.1190    -2.3440 H     1 <1>   0.0800 
 50 H        9.4970     3.7090    -1.7190 H     1 <1>   0.0800 
@<TRIPOS>BOND
  1   1   2  2   
  2   1   3  2   
  3   1   4  am  
  4   1   5  1   
  5   4   6  1   
  6   4   7  1   
  7   5   8  ar  
  8   5   9  ar  
  9   6  10  1   
 10   6  25  1   
 11   6  26  1   
 12   7  11  1   
 13   7  27  1   
 14   7  28  1   
 15   8  12  ar  
 16   8  29  1   
 17   9  13  ar  
 18   9  30  1   
 19  10  14  1   
 20  10  31  1   
 21  10  32  1   
 22  11  14  1   
 23  11  33  1   
 24  11  34  1   
 25  12  15  ar  
 26  12  35  1   
 27  13  15  ar  
 28  13  36  1   
 29  14  16  1   
 30  14  37  1   
 31  15  17  1   
 32  16  18  2   
 33  16  19  am  
 34  17  20  1   
 35  19  21  1   
 36  19  38  1   
 37  20  22  1   
 38  20  39  1   
 39  20  40  1   
 40  21  23  1   
 41  21  41  1   
 42  21  42  1   
 43  22  43  1   
 44  22  44  1   
 45  22  45  1   
 46  23  24  1   
 47  23  46  1   
 48  23  47  1   
 49  24  48  1   
 50  24  49  1   
 51  24  50  1   
@<TRIPOS>SUBSTRUCTURE
  1 ****   6 GROUP 4 **** **** 0

# MOE 2024.06 (io_trps.svl 2023.06)
