@<TRIPOS>MOLECULE
4-Benzo[1,3]dioxol-5-yl-2-oxo-6-pyrrolidin-1-ylmethyl-1,2,3,4-tetrahydro-pyrimid
51 54 1 0 0 
SMALL
USER_CHARGES


@<TRIPOS>ATOM
  1 O        0.1930     1.0520    -1.7320 O.2   1 <1>  -0.5700 
  2 C       -0.8740     1.2250    -1.1970 C.2   1 <1>   0.6900 
  3 N       -1.9730     0.5890    -1.6730 N.am  1 <1>  -0.5390 
  4 N       -1.0060     2.0470    -0.1470 N.am  1 <1>  -0.7300 
  5 C       -3.2440     0.7290    -1.1330 C.2   1 <1>  -0.0290 
  6 C       -2.3070     2.4830     0.3940 C.3   1 <1>   0.5020 
  7 C       -3.4600     1.6090    -0.1130 C.2   1 <1>  -0.1240 
  8 C       -4.3070    -0.1890    -1.7400 C.3   1 <1>   0.4810 
  9 C       -2.5370     3.9400    -0.0040 C.ar  1 <1>  -0.1440 
 10 C       -4.6710     1.8500     0.6080 C.2   1 <1>   0.7060 
 11 N       -4.1530    -1.5500    -1.1550 N.4   1 <1>  -0.9590 
 12 C       -2.9180     4.8610     0.9690 C.ar  1 <1>  -0.1500 
 13 C       -2.3860     4.3610    -1.3290 C.ar  1 <1>  -0.1500 
 14 O       -4.6900     2.2930     1.7370 O.2   1 <1>  -0.5700 
 15 O       -5.8330     1.5240     0.0310 O.3   1 <1>  -0.4300 
 16 C       -4.9500    -2.5890    -1.8480 C.3   1 <1>   0.3430 
 17 C       -4.5410    -1.6210     0.2760 C.3   1 <1>   0.3430 
 18 C       -3.1340     6.1690     0.5880 C.ar  1 <1>   0.0830 
 19 C       -2.6080     5.6830    -1.6940 C.ar  1 <1>  -0.1500 
 20 C       -7.0610     1.7520     0.6910 C.3   1 <1>   0.1200 
 21 C       -5.0290    -3.7310    -0.8450 C.3   1 <1>  -0.1600 
 22 C       -4.7820    -3.1020     0.5300 C.3   1 <1>  -0.1600 
 23 O       -3.5030     7.2030     1.3500 O.3   1 <1>  -0.3620 
 24 C       -2.9840     6.5700    -0.7070 C.ar  1 <1>   0.0830 
 25 C       -8.3480     1.9360     1.4960 C.3   1 <1>  -0.2400 
 26 C       -3.5930     8.3350     0.4860 C.3   1 <1>   0.4000 
 27 O       -3.2510     7.8750    -0.8200 O.3   1 <1>  -0.3620 
 28 H       -1.7510     0.0410    -2.5070 H     1 <1>   0.3700 
 29 H       -0.2060     2.6390     0.0760 H     1 <1>   0.3700 
 30 H       -2.2450     2.4110     1.4670 H     1 <1>   0.0800 
 31 H       -4.1640    -0.2270    -2.8070 H     1 <1>   0.0800 
 32 H       -5.3000     0.1790    -1.5580 H     1 <1>   0.0800 
 33 H       -3.1600    -1.8120    -1.2090 H     1 <1>   0.4500 
 34 H       -3.0560     4.5850     2.0010 H     1 <1>   0.1500 
 35 H       -2.0900     3.6620    -2.0920 H     1 <1>   0.1500 
 36 H       -4.4910    -2.9010    -2.7730 H     1 <1>   0.0800 
 37 H       -5.9440    -2.2190    -2.0460 H     1 <1>   0.0800 
 38 H       -5.4580    -1.0740     0.4360 H     1 <1>   0.0800 
 39 H       -3.7710    -1.2250     0.9200 H     1 <1>   0.0800 
 40 H       -2.4920     6.0190    -2.7080 H     1 <1>   0.1500 
 41 H       -6.9890     2.8210     0.5600 H     1 <1>   0.0800 
 42 H       -7.6270     1.3540    -0.1340 H     1 <1>   0.0800 
 43 H       -4.2680    -4.4620    -1.0640 H     1 <1>   0.0800 
 44 H       -5.9890    -4.2150    -0.8980 H     1 <1>   0.0800 
 45 H       -5.6240    -3.2360     1.1880 H     1 <1>   0.0800 
 46 H       -3.9150    -3.5400     0.9950 H     1 <1>   0.0800 
 47 H       -9.0680     2.5190     0.9470 H     1 <1>   0.0800 
 48 H       -8.1360     2.4450     2.4210 H     1 <1>   0.0800 
 49 H       -8.7880     0.9830     1.7310 H     1 <1>   0.0800 
 50 H       -2.8890     9.0850     0.8000 H     1 <1>   0.0800 
 51 H       -4.6010     8.7090     0.4850 H     1 <1>   0.0800 
@<TRIPOS>BOND
  1   1   2  2   
  2   2   3  am  
  3   2   4  am  
  4   3   5  1   
  5   3  28  1   
  6   4   6  1   
  7   4  29  1   
  8   5   7  2   
  9   5   8  1   
 10   6   7  1   
 11   6   9  1   
 12   6  30  1   
 13   7  10  1   
 14   8  11  1   
 15   8  31  1   
 16   8  32  1   
 17   9  12  ar  
 18   9  13  ar  
 19  10  14  2   
 20  10  15  1   
 21  11  16  1   
 22  11  17  1   
 23  11  33  1   
 24  12  18  ar  
 25  12  34  1   
 26  13  19  ar  
 27  13  35  1   
 28  15  20  1   
 29  16  21  1   
 30  16  36  1   
 31  16  37  1   
 32  17  22  1   
 33  17  38  1   
 34  17  39  1   
 35  18  23  1   
 36  18  24  ar  
 37  19  24  ar  
 38  19  40  1   
 39  20  25  1   
 40  20  41  1   
 41  20  42  1   
 42  21  22  1   
 43  21  43  1   
 44  21  44  1   
 45  22  45  1   
 46  22  46  1   
 47  23  26  1   
 48  24  27  1   
 49  25  47  1   
 50  25  48  1   
 51  25  49  1   
 52  26  27  1   
 53  26  50  1   
 54  26  51  1   
@<TRIPOS>SUBSTRUCTURE
  1 ****   7 GROUP 4 **** **** 0

# MOE 2024.06 (io_trps.svl 2023.06)
