@<TRIPOS>MOLECULE
[1-(4-Methoxy-3-methyl-benzenesulfonyl)-piperidin-4-yl]-(4-methyl-piperazin-1-yl
57 59 1 0 0 
SMALL
USER_CHARGES


@<TRIPOS>ATOM
  1 S       -0.5640     0.5990    -2.0560 S.o2  1 <1>   1.4470 
  2 O       -0.0280    -0.1830    -3.1520 O.2   1 <1>  -0.6500 
  3 O       -1.4060     1.7390    -2.3500 O.2   1 <1>  -0.6500 
  4 N        0.7750     1.1670    -1.1810 N.am  1 <1>  -0.8490 
  5 C       -1.4090    -0.4830    -0.8710 C.ar  1 <1>  -0.0090 
  6 C        1.3620     2.3500    -1.8130 C.3   1 <1>   0.1960 
  7 C        1.7710     0.1170    -0.9620 C.3   1 <1>   0.1960 
  8 C       -1.6330    -0.0720     0.4380 C.ar  1 <1>  -0.1500 
  9 C       -1.8570    -1.7460    -1.2390 C.ar  1 <1>  -0.1500 
 10 C        2.4640     2.9300    -0.9220 C.3   1 <1>  -0.1600 
 11 C        2.8830     0.6240    -0.0390 C.3   1 <1>  -0.1600 
 12 C       -2.2690    -0.8870     1.3600 C.ar  1 <1>  -0.1430 
 13 C       -2.4960    -2.5730    -0.3340 C.ar  1 <1>  -0.1500 
 14 C        3.5520     1.8860    -0.6090 C.3   1 <1>  -0.0190 
 15 C       -2.7060    -2.1500     0.9750 C.ar  1 <1>   0.0830 
 16 C       -2.4840    -0.3910     2.7830 C.3   1 <1>  -0.0970 
 17 C        4.6180     2.4410     0.3450 C.2   1 <1>   0.5690 
 18 O       -3.3250    -2.9170     1.9100 O.3   1 <1>  -0.3630 
 19 O        4.2510     3.0490     1.3210 O.2   1 <1>  -0.5700 
 20 N        5.9620     2.2560     0.1180 N.am  1 <1>  -0.6600 
 21 C       -3.8290    -4.1980     1.6060 C.3   1 <1>   0.0400 
 22 C        6.9660     3.0980     0.8450 C.3   1 <1>   0.1400 
 23 C        6.5620     1.1350    -0.6700 C.3   1 <1>   0.1400 
 24 C        7.8680     2.2250     1.7320 C.3   1 <1>   0.3430 
 25 C        7.5160     0.2930     0.2090 C.3   1 <1>   0.3430 
 26 N        8.5350     1.1310     0.9370 N.4   1 <1>  -0.9590 
 27 C        9.3990     0.2870     1.8180 C.3   1 <1>   0.2630 
 28 H        0.6040     3.1040    -1.9510 H     1 <1>   0.0800 
 29 H        1.7570     2.0900    -2.7820 H     1 <1>   0.0800 
 30 H        2.1900    -0.1960    -1.9050 H     1 <1>   0.0800 
 31 H        1.3020    -0.7380    -0.5040 H     1 <1>   0.0800 
 32 H       -1.2960     0.9080     0.7310 H     1 <1>   0.1500 
 33 H       -1.7010    -2.0860    -2.2500 H     1 <1>   0.1500 
 34 H        2.0110     3.2770    -0.0080 H     1 <1>   0.0800 
 35 H        2.9040     3.7810    -1.4090 H     1 <1>   0.0800 
 36 H        3.6130    -0.1530     0.0970 H     1 <1>   0.0800 
 37 H        2.4550     0.8450     0.9250 H     1 <1>   0.0800 
 38 H       -2.8220    -3.5400    -0.6660 H     1 <1>   0.1500 
 39 H        4.0170     1.6390    -1.5450 H     1 <1>   0.0800 
 40 H       -2.0640     0.5890     2.9230 H     1 <1>   0.0800 
 41 H       -2.0200    -1.0660     3.4780 H     1 <1>   0.0800 
 42 H       -3.5370    -0.3480     2.9960 H     1 <1>   0.0800 
 43 H       -4.2810    -4.5980     2.4950 H     1 <1>   0.0800 
 44 H       -3.0160    -4.8290     1.2940 H     1 <1>   0.0800 
 45 H       -4.5690    -4.1070     0.8300 H     1 <1>   0.0800 
 46 H        6.4750     3.8320     1.4620 H     1 <1>   0.0800 
 47 H        7.5650     3.6340     0.1310 H     1 <1>   0.0800 
 48 H        7.1010     1.5400    -1.5090 H     1 <1>   0.0800 
 49 H        5.7960     0.4860    -1.0540 H     1 <1>   0.0800 
 50 H        7.2620     1.7950     2.5130 H     1 <1>   0.0800 
 51 H        8.6130     2.8490     2.1980 H     1 <1>   0.0800 
 52 H        8.0160    -0.4330    -0.4110 H     1 <1>   0.0800 
 53 H        6.9200    -0.2470     0.9280 H     1 <1>   0.0800 
 54 H        9.1310     1.5850     0.2290 H     1 <1>   0.4500 
 55 H        8.8020    -0.2000     2.5730 H     1 <1>   0.0800 
 56 H       10.1440     0.8940     2.3070 H     1 <1>   0.0800 
 57 H        9.9030    -0.4700     1.2380 H     1 <1>   0.0800 
@<TRIPOS>BOND
  1   1   2  2   
  2   1   3  2   
  3   1   4  am  
  4   1   5  1   
  5   4   6  1   
  6   4   7  1   
  7   5   8  ar  
  8   5   9  ar  
  9   6  10  1   
 10   6  28  1   
 11   6  29  1   
 12   7  11  1   
 13   7  30  1   
 14   7  31  1   
 15   8  12  ar  
 16   8  32  1   
 17   9  13  ar  
 18   9  33  1   
 19  10  14  1   
 20  10  34  1   
 21  10  35  1   
 22  11  14  1   
 23  11  36  1   
 24  11  37  1   
 25  12  15  ar  
 26  12  16  1   
 27  13  15  ar  
 28  13  38  1   
 29  14  17  1   
 30  14  39  1   
 31  15  18  1   
 32  16  40  1   
 33  16  41  1   
 34  16  42  1   
 35  17  19  2   
 36  17  20  am  
 37  18  21  1   
 38  20  22  1   
 39  20  23  1   
 40  21  43  1   
 41  21  44  1   
 42  21  45  1   
 43  22  24  1   
 44  22  46  1   
 45  22  47  1   
 46  23  25  1   
 47  23  48  1   
 48  23  49  1   
 49  24  26  1   
 50  24  50  1   
 51  24  51  1   
 52  25  26  1   
 53  25  52  1   
 54  25  53  1   
 55  26  27  1   
 56  26  54  1   
 57  27  55  1   
 58  27  56  1   
 59  27  57  1   
@<TRIPOS>SUBSTRUCTURE
  1 ****   7 GROUP 4 **** **** 0

# MOE 2024.06 (io_trps.svl 2023.06)
