@<TRIPOS>MOLECULE
8-Cyclohexylamino-7-(2-hydroxy-3-phenoxy-propyl)-1,3-dimethyl-3,7-dihydro-purine
61 64 1 0 0 
SMALL
USER_CHARGES


@<TRIPOS>ATOM
  1 O        0.5350     0.8430    -1.2550 O.2   1 <1>  -0.5740 
  2 C        1.6100     1.3190    -0.9530 C.2   1 <1>   0.6870 
  3 N        1.7170     2.6800    -0.6840 N.am  1 <1>  -0.4250 
  4 N        2.7280     0.5010    -0.8680 N.am  1 <1>  -0.4410 
  5 C        2.9190     3.2370    -0.2680 C.2   1 <1>   0.7000 
  6 C        0.4980     3.5390    -0.8120 C.3   1 <1>   0.0540 
  7 C        3.9170     1.0680    -0.4510 C.2   1 <1>   0.4220 
  8 C        2.6320    -0.9570    -1.1800 C.3   1 <1>   0.0540 
  9 O        3.0020     4.4280    -0.0160 O.2   1 <1>  -0.5740 
 10 C        4.0590     2.3760    -0.1470 C.2   1 <1>   0.2720 
 11 N        5.1170     0.4510    -0.2790 N.pl3 1 <1>  -0.7030 
 12 N        5.4050     2.5520     0.2340 N.pl3 1 <1>  -0.7670 
 13 C        5.9990     1.3640     0.1130 C.cat 1 <1>   1.0690 
 14 C        5.9790     3.8280     0.7770 C.3   1 <1>   0.3490 
 15 N        7.2800     1.1270     0.3320 N.pl3 1 <1>  -0.7170 
 16 C        6.9800     4.4970    -0.1860 C.3   1 <1>   0.1940 
 17 C        8.0190    -0.1370     0.2520 C.3   1 <1>   0.2420 
 18 O        8.1020     3.6850    -0.3500 O.3   1 <1>  -0.6830 
 19 C        7.4460     5.8670     0.3230 C.3   1 <1>   0.1140 
 20 C        9.0620    -0.1640     1.3730 C.3   1 <1>  -0.1660 
 21 C        8.6810    -0.2360    -1.1260 C.3   1 <1>  -0.1660 
 22 O        8.5270     6.3000    -0.4770 O.3   1 <1>  -0.3670 
 23 C        9.9340    -1.4240     1.2800 C.3   1 <1>  -0.1660 
 24 C        9.5510    -1.4960    -1.2270 C.3   1 <1>  -0.1660 
 25 C        9.1510     7.4800    -0.2350 C.ar  1 <1>   0.0760 
 26 C       10.5920    -1.5410    -0.1010 C.3   1 <1>  -0.1660 
 27 C        8.7760     8.3630     0.7750 C.ar  1 <1>  -0.1560 
 28 C       10.2220     7.8000    -1.0550 C.ar  1 <1>  -0.1560 
 29 C        9.4710     9.5460     0.9540 C.ar  1 <1>  -0.1560 
 30 C       10.9160     8.9840    -0.8750 C.ar  1 <1>  -0.1560 
 31 C       10.5400     9.8570     0.1310 C.ar  1 <1>  -0.1560 
 32 H       -0.0910     3.2250    -1.6560 H     1 <1>   0.0740 
 33 H        0.7650     4.5720    -0.9570 H     1 <1>   0.0740 
 34 H       -0.0990     3.4530     0.0790 H     1 <1>   0.0740 
 35 H        1.7920    -1.1510    -1.8260 H     1 <1>   0.0740 
 36 H        2.4980    -1.5150    -0.2690 H     1 <1>   0.0740 
 37 H        3.5210    -1.2940    -1.6820 H     1 <1>   0.0740 
 38 H        5.3410    -0.5250    -0.4440 H     1 <1>   0.4460 
 39 H        6.4740     3.6280     1.7130 H     1 <1>   0.0740 
 40 H        5.1860     4.5230     0.9870 H     1 <1>   0.0740 
 41 H        7.8810     1.9650     0.3260 H     1 <1>   0.4460 
 42 H        6.5190     4.6300    -1.1500 H     1 <1>   0.0740 
 43 H        7.3490    -0.9700     0.3860 H     1 <1>   0.0740 
 44 H        8.8130     4.2490    -0.7420 H     1 <1>   0.3950 
 45 H        7.7860     5.8020     1.3430 H     1 <1>   0.0740 
 46 H        6.6530     6.5910     0.2460 H     1 <1>   0.0740 
 47 H        8.5710    -0.1490     2.3310 H     1 <1>   0.0740 
 48 H        9.7000     0.7000     1.3010 H     1 <1>   0.0740 
 49 H        9.3060     0.6260    -1.2920 H     1 <1>   0.0740 
 50 H        7.9320    -0.2660    -1.8970 H     1 <1>   0.0740 
 51 H        9.3310    -2.2980     1.4620 H     1 <1>   0.0740 
 52 H       10.6980    -1.3910     2.0380 H     1 <1>   0.0740 
 53 H       10.0550    -1.5130    -2.1790 H     1 <1>   0.0740 
 54 H        8.9290    -2.3740    -1.1710 H     1 <1>   0.0740 
 55 H       11.1440    -2.4640    -0.1590 H     1 <1>   0.0740 
 56 H       11.2930    -0.7340    -0.2310 H     1 <1>   0.0740 
 57 H        7.9520     8.1550     1.4300 H     1 <1>   0.1440 
 58 H       10.5100     7.1210    -1.8370 H     1 <1>   0.1440 
 59 H        9.1810    10.2280     1.7340 H     1 <1>   0.1440 
 60 H       11.7460     9.2260    -1.5150 H     1 <1>   0.1440 
 61 H       11.0790    10.7780     0.2730 H     1 <1>   0.1440 
@<TRIPOS>BOND
  1   1   2  2   
  2   2   3  am  
  3   2   4  am  
  4   3   5  am  
  5   3   6  1   
  6   4   7  1   
  7   4   8  1   
  8   5   9  2   
  9   5  10  1   
 10   6  32  1   
 11   6  33  1   
 12   6  34  1   
 13   7  10  2   
 14   7  11  1   
 15   8  35  1   
 16   8  36  1   
 17   8  37  1   
 18  10  12  1   
 19  11  13  ar  
 20  11  38  1   
 21  12  13  ar  
 22  12  14  1   
 23  13  15  ar  
 24  14  16  1   
 25  14  39  1   
 26  14  40  1   
 27  15  17  1   
 28  15  41  1   
 29  16  18  1   
 30  16  19  1   
 31  16  42  1   
 32  17  20  1   
 33  17  21  1   
 34  17  43  1   
 35  18  44  1   
 36  19  22  1   
 37  19  45  1   
 38  19  46  1   
 39  20  23  1   
 40  20  47  1   
 41  20  48  1   
 42  21  24  1   
 43  21  49  1   
 44  21  50  1   
 45  22  25  1   
 46  23  26  1   
 47  23  51  1   
 48  23  52  1   
 49  24  26  1   
 50  24  53  1   
 51  24  54  1   
 52  25  27  ar  
 53  25  28  ar  
 54  26  55  1   
 55  26  56  1   
 56  27  29  ar  
 57  27  57  1   
 58  28  30  ar  
 59  28  58  1   
 60  29  31  ar  
 61  29  59  1   
 62  30  31  ar  
 63  30  60  1   
 64  31  61  1   
@<TRIPOS>SUBSTRUCTURE
  1 ****  12 GROUP 4 **** **** 0

# MOE 2024.06 (io_trps.svl 2023.06)
