@<TRIPOS>MOLECULE
1-(2-Cyano-ethyl)-3-(3,4-dimethoxy-phenyl)-1H-pyrazole-4-carboxylic acid ethyl e
43 44 1 0 0 
SMALL
USER_CHARGES


@<TRIPOS>ATOM
  1 O        0.6130    -0.5140    -2.2890 O.2   1 <1>  -0.5700 
  2 C        1.1320    -1.2990    -1.5290 C.2   1 <1>   0.8060 
  3 O        2.3700    -1.0130    -1.1160 O.3   1 <1>  -0.4300 
  4 C        0.4680    -2.4880    -1.0600 C.2   1 <1>  -0.0860 
  5 C        2.9450    -1.5850     0.0360 C.3   1 <1>   0.1200 
  6 C       -0.8080    -2.5410    -0.4720 C.2   1 <1>   0.2350 
  7 C        0.8690    -3.7900    -1.0920 C.2   1 <1>  -0.3020 
  8 C        4.2240    -0.8170     0.3500 C.3   1 <1>  -0.2400 
  9 N       -1.1450    -3.7730    -0.1880 N.2   1 <1>  -0.7070 
 10 C       -1.6670    -1.4100    -0.1880 C.ar  1 <1>   0.0540 
 11 N       -0.1130    -4.5320    -0.5710 N.pl3 1 <1>   0.3140 
 12 C       -1.1810    -0.2370     0.3860 C.ar  1 <1>  -0.1500 
 13 C       -3.0290    -1.4660    -0.4750 C.ar  1 <1>  -0.1500 
 14 C       -0.1310    -5.9980    -0.4170 C.3   1 <1>   0.0960 
 15 C       -2.0090     0.8410     0.6370 C.ar  1 <1>   0.0830 
 16 C       -3.8730    -0.4000    -0.2160 C.ar  1 <1>  -0.1500 
 17 C       -0.5610    -6.3880     1.0000 C.3   1 <1>   0.0400 
 18 O       -1.4440     1.9450     1.1810 O.3   1 <1>  -0.3630 
 19 C       -3.3740     0.7710     0.3460 C.ar  1 <1>   0.0830 
 20 C       -0.4530    -7.8590     1.1670 C.1   1 <1>   0.3570 
 21 C       -1.3000     3.0490     0.3160 C.3   1 <1>   0.0400 
 22 O       -4.1620     1.8460     0.6320 O.3   1 <1>  -0.3630 
 23 N       -0.3450    -8.9860     1.2620 N.1   1 <1>  -0.5570 
 24 C       -5.5650     1.7850     0.5050 C.3   1 <1>   0.0400 
 25 H        3.1650    -2.6200    -0.1640 H     1 <1>   0.0800 
 26 H        2.2450    -1.5060     0.8510 H     1 <1>   0.0800 
 27 H        1.7860    -4.2020    -1.4730 H     1 <1>   0.1500 
 28 H        4.9130    -0.8900    -0.4730 H     1 <1>   0.0800 
 29 H        4.6920    -1.2280     1.2260 H     1 <1>   0.0800 
 30 H        3.9970     0.2180     0.5370 H     1 <1>   0.0800 
 31 H       -0.1440    -0.1500     0.6450 H     1 <1>   0.1500 
 32 H       -3.4250    -2.3670    -0.9090 H     1 <1>   0.1500 
 33 H        0.8530    -6.3780    -0.6250 H     1 <1>   0.0800 
 34 H       -0.8190    -6.4040    -1.1360 H     1 <1>   0.0800 
 35 H       -4.9120    -0.5030    -0.4610 H     1 <1>   0.1500 
 36 H       -1.5800    -6.0940     1.1750 H     1 <1>   0.0800 
 37 H        0.0720    -5.9110     1.7260 H     1 <1>   0.0800 
 38 H       -0.7630     3.8190     0.8390 H     1 <1>   0.0800 
 39 H       -2.2740     3.4070     0.0350 H     1 <1>   0.0800 
 40 H       -0.7490     2.7390    -0.5550 H     1 <1>   0.0800 
 41 H       -5.9720     2.7210     0.8420 H     1 <1>   0.0800 
 42 H       -5.9360     0.9830     1.1190 H     1 <1>   0.0800 
 43 H       -5.8150     1.6290    -0.5290 H     1 <1>   0.0800 
@<TRIPOS>BOND
  1   1   2  2   
  2   2   3  1   
  3   2   4  1   
  4   3   5  1   
  5   4   6  1   
  6   4   7  2   
  7   5   8  1   
  8   5  25  1   
  9   5  26  1   
 10   6   9  2   
 11   6  10  1   
 12   7  11  1   
 13   7  27  1   
 14   8  28  1   
 15   8  29  1   
 16   8  30  1   
 17   9  11  1   
 18  10  12  ar  
 19  10  13  ar  
 20  11  14  1   
 21  12  15  ar  
 22  12  31  1   
 23  13  16  ar  
 24  13  32  1   
 25  14  17  1   
 26  14  33  1   
 27  14  34  1   
 28  15  18  1   
 29  15  19  ar  
 30  16  19  ar  
 31  16  35  1   
 32  17  20  1   
 33  17  36  1   
 34  17  37  1   
 35  18  21  1   
 36  19  22  1   
 37  20  23  3   
 38  21  38  1   
 39  21  39  1   
 40  21  40  1   
 41  22  24  1   
 42  24  41  1   
 43  24  42  1   
 44  24  43  1   
@<TRIPOS>SUBSTRUCTURE
  1 ****   6 GROUP 4 **** **** 0

# MOE 2024.06 (io_trps.svl 2023.06)
