@<TRIPOS>MOLECULE
2-Benzenesulfonyl-N-(5-ethoxymethyl-[1,3,4]thiadiazol-2-yl)-acetamide
37 38 1 0 0 
SMALL
USER_CHARGES


@<TRIPOS>ATOM
  1 S        0.9400    -0.3700     1.4100 S.o2  1 <1>   1.2040 
  2 O        0.2400    -1.4140     2.1220 O.2   1 <1>  -0.6500 
  3 O        1.9650     0.3830     2.1050 O.2   1 <1>  -0.6500 
  4 C       -0.2540     0.7510     0.6400 C.ar  1 <1>  -0.0090 
  5 C        1.7400    -1.1440     0.0300 C.3   1 <1>   0.0060 
  6 C       -1.5370     0.3160     0.3250 C.ar  1 <1>  -0.1500 
  7 C        0.0860     2.0600     0.3160 C.ar  1 <1>  -0.1500 
  8 C        2.3950    -0.1000    -0.8240 C.2   1 <1>   0.5690 
  9 C       -2.4480     1.1540    -0.2950 C.ar  1 <1>  -0.1500 
 10 C       -0.8190     2.9030    -0.3050 C.ar  1 <1>  -0.1500 
 11 O        2.0420    -0.0370    -1.9700 O.2   1 <1>  -0.5700 
 12 N        3.3530     0.7120    -0.2800 N.am  1 <1>  -0.4940 
 13 C       -2.0880     2.4500    -0.6120 C.ar  1 <1>  -0.1500 
 14 C        4.1040     1.6990    -0.8810 C.2   1 <1>   0.4420 
 15 S        5.1350     2.6250     0.1590 S.3   1 <1>  -0.0800 
 16 N        4.1850     2.0730    -2.1050 N.2   1 <1>  -0.3380 
 17 C        5.6170     3.5220    -1.2420 C.2   1 <1>   0.1980 
 18 N        5.0490     3.1140    -2.3040 N.2   1 <1>  -0.3380 
 19 C        6.6310     4.6410    -1.0750 C.3   1 <1>   0.3000 
 20 O        6.2480     5.4890    -0.0320 O.3   1 <1>  -0.5600 
 21 C        7.0960     6.5700     0.1600 C.3   1 <1>   0.1200 
 22 C        6.5450     7.3820     1.3260 C.3   1 <1>  -0.2400 
 23 H        1.0220    -1.6790    -0.5600 H     1 <1>   0.0800 
 24 H        2.4830    -1.8360     0.3700 H     1 <1>   0.0800 
 25 H       -1.8330    -0.6910     0.5690 H     1 <1>   0.1500 
 26 H        1.0680     2.4350     0.5490 H     1 <1>   0.1500 
 27 H       -3.4360     0.7980    -0.5300 H     1 <1>   0.1500 
 28 H       -0.5330     3.9120    -0.5520 H     1 <1>   0.1500 
 29 H        3.4580     0.6680     0.7390 H     1 <1>   0.3700 
 30 H       -2.7920     3.1040    -1.0970 H     1 <1>   0.1500 
 31 H        6.6870     5.2130    -1.9850 H     1 <1>   0.0800 
 32 H        7.5960     4.2260    -0.8450 H     1 <1>   0.0800 
 33 H        7.1160     7.1650    -0.7380 H     1 <1>   0.0800 
 34 H        8.0840     6.2060     0.3870 H     1 <1>   0.0800 
 35 H        5.5520     7.7280     1.0980 H     1 <1>   0.0800 
 36 H        7.1730     8.2350     1.5060 H     1 <1>   0.0800 
 37 H        6.5180     6.7790     2.2160 H     1 <1>   0.0800 
@<TRIPOS>BOND
  1   1   2  2   
  2   1   3  2   
  3   1   4  1   
  4   1   5  1   
  5   4   6  ar  
  6   4   7  ar  
  7   5   8  1   
  8   5  23  1   
  9   5  24  1   
 10   6   9  ar  
 11   6  25  1   
 12   7  10  ar  
 13   7  26  1   
 14   8  11  2   
 15   8  12  am  
 16   9  13  ar  
 17   9  27  1   
 18  10  13  ar  
 19  10  28  1   
 20  12  14  1   
 21  12  29  1   
 22  13  30  1   
 23  14  15  1   
 24  14  16  2   
 25  15  17  1   
 26  16  18  1   
 27  17  18  2   
 28  17  19  1   
 29  19  20  1   
 30  19  31  1   
 31  19  32  1   
 32  20  21  1   
 33  21  22  1   
 34  21  33  1   
 35  21  34  1   
 36  22  35  1   
 37  22  36  1   
 38  22  37  1   
@<TRIPOS>SUBSTRUCTURE
  1 ****  12 GROUP 4 **** **** 0

# MOE 2024.06 (io_trps.svl 2023.06)
