@<TRIPOS>MOLECULE
Propionic acid 3-[(2-oxo-2H-chromene-3-carbonyl)-amino]-propyl ester
39 40 1 0 0 
SMALL
USER_CHARGES


@<TRIPOS>ATOM
  1 O       -0.3830    -0.4830     1.2440 O.2   1 <1>  -0.5700 
  2 C       -0.4130    -1.5810     0.7210 C.2   1 <1>   0.7060 
  3 O        0.7450    -2.2500     0.6920 O.3   1 <1>  -0.2330 
  4 C       -1.5880    -2.1920     0.1450 C.2   1 <1>   0.0290 
  5 C        0.8880    -3.4770     0.1510 C.ar  1 <1>   0.0830 
  6 C       -2.8570    -1.4940     0.1620 C.2   1 <1>   0.6160 
  7 C       -1.4620    -3.4330    -0.4070 C.2   1 <1>  -0.1780 
  8 C       -0.2150    -4.1160    -0.4210 C.ar  1 <1>   0.0280 
  9 C        2.1330    -4.0870     0.1710 C.ar  1 <1>  -0.1500 
 10 O       -3.8530    -2.0540    -0.2550 O.2   1 <1>  -0.5700 
 11 N       -3.0060    -0.2170     0.6280 N.am  1 <1>  -0.7300 
 12 C       -0.0330    -5.3850    -0.9720 C.ar  1 <1>  -0.1500 
 13 C        2.2940    -5.3430    -0.3800 C.ar  1 <1>  -0.1500 
 14 C       -4.2660     0.5500     0.7030 C.3   1 <1>   0.1400 
 15 C        1.2070    -5.9910    -0.9520 C.ar  1 <1>  -0.1500 
 16 C       -4.0740     1.9050     0.0230 C.3   1 <1>  -0.1600 
 17 C       -5.3800     2.6990     0.0300 C.3   1 <1>   0.1200 
 18 O       -5.1390     3.9480    -0.5760 O.3   1 <1>  -0.4300 
 19 C       -6.0450     4.9040    -0.7650 C.2   1 <1>   0.6590 
 20 O       -5.7170     5.9430    -1.2710 O.2   1 <1>  -0.5700 
 21 C       -7.4900     4.6510    -0.3300 C.3   1 <1>  -0.0990 
 22 C       -8.4500     5.8260    -0.5920 C.3   1 <1>  -0.2400 
 23 H       -2.3050    -3.9370    -0.8500 H     1 <1>   0.1500 
 24 H        2.9680    -3.5750     0.6160 H     1 <1>   0.1500 
 25 H       -2.1690     0.2450     1.0150 H     1 <1>   0.3700 
 26 H       -0.8710    -5.8930    -1.4170 H     1 <1>   0.1500 
 27 H        3.2590    -5.8210    -0.3680 H     1 <1>   0.1500 
 28 H       -4.5330     0.6860     1.7380 H     1 <1>   0.0800 
 29 H       -5.0580     0.0050     0.2170 H     1 <1>   0.0800 
 30 H        1.3370    -6.9710    -1.3810 H     1 <1>   0.1500 
 31 H       -3.7660     1.7480    -0.9960 H     1 <1>   0.0800 
 32 H       -3.3160     2.4630     0.5440 H     1 <1>   0.0800 
 33 H       -5.7150     2.8690     1.0390 H     1 <1>   0.0800 
 34 H       -6.1380     2.1820    -0.5340 H     1 <1>   0.0800 
 35 H       -7.4960     4.4370     0.7230 H     1 <1>   0.0800 
 36 H       -7.8570     3.7890    -0.8550 H     1 <1>   0.0800 
 37 H       -8.1170     6.7030    -0.0640 H     1 <1>   0.0800 
 38 H       -9.4430     5.5790    -0.2630 H     1 <1>   0.0800 
 39 H       -8.4800     6.0530    -1.6440 H     1 <1>   0.0800 
@<TRIPOS>BOND
  1   1   2  2   
  2   2   3  1   
  3   2   4  1   
  4   3   5  1   
  5   4   6  1   
  6   4   7  2   
  7   5   8  ar  
  8   5   9  ar  
  9   6  10  2   
 10   6  11  am  
 11   7   8  1   
 12   7  23  1   
 13   8  12  ar  
 14   9  13  ar  
 15   9  24  1   
 16  11  14  1   
 17  11  25  1   
 18  12  15  ar  
 19  12  26  1   
 20  13  15  ar  
 21  13  27  1   
 22  14  16  1   
 23  14  28  1   
 24  14  29  1   
 25  15  30  1   
 26  16  17  1   
 27  16  31  1   
 28  16  32  1   
 29  17  18  1   
 30  17  33  1   
 31  17  34  1   
 32  18  19  1   
 33  19  20  2   
 34  19  21  1   
 35  21  22  1   
 36  21  35  1   
 37  21  36  1   
 38  22  37  1   
 39  22  38  1   
 40  22  39  1   
@<TRIPOS>SUBSTRUCTURE
  1 ****  11 GROUP 4 **** **** 0

# MOE 2024.06 (io_trps.svl 2023.06)
