@<TRIPOS>MOLECULE
2-Piperidin-1-ylmethyl-benzoic acid
33 34 1 0 0 
SMALL
USER_CHARGES


@<TRIPOS>ATOM
  1 O       -0.6560    -0.1640     0.3730 O.co2 1 <1>  -0.9000 
  2 C       -1.3950     0.6650     0.9200 C.2   1 <1>   0.9790 
  3 O       -1.7920     0.4390     2.0740 O.co2 1 <1>  -0.9000 
  4 C       -2.0030     1.7200     0.1290 C.ar  1 <1>  -0.1790 
  5 C       -3.3950     1.8590     0.0440 C.ar  1 <1>  -0.1440 
  6 C       -1.2110     2.6010    -0.6050 C.ar  1 <1>  -0.1500 
  7 C       -3.9540     2.8600    -0.7380 C.ar  1 <1>  -0.1500 
  8 C       -4.3060     0.9120     0.8140 C.3   1 <1>   0.4870 
  9 C       -1.7710     3.5950    -1.3840 C.ar  1 <1>  -0.1500 
 10 C       -3.1450     3.7270    -1.4500 C.ar  1 <1>  -0.1500 
 11 N       -4.6520    -0.2760    -0.0210 N.4   1 <1>  -0.9590 
 12 C       -5.7340    -1.0500     0.6370 C.3   1 <1>   0.3430 
 13 C       -3.4400    -1.1260    -0.2620 C.3   1 <1>   0.3430 
 14 C       -6.1490    -2.2300    -0.2440 C.3   1 <1>  -0.1600 
 15 C       -3.8000    -2.3300    -1.1360 C.3   1 <1>  -0.1600 
 16 C       -4.9580    -3.1450    -0.5470 C.3   1 <1>  -0.1600 
 17 H       -0.1390     2.4890    -0.5590 H     1 <1>   0.1500 
 18 H       -5.0210     2.9790    -0.7990 H     1 <1>   0.1500 
 19 H       -5.2050     1.4460     1.0680 H     1 <1>   0.0800 
 20 H       -3.8540     0.5990     1.7390 H     1 <1>   0.0800 
 21 H       -1.1350     4.2630    -1.9380 H     1 <1>   0.1500 
 22 H       -3.5800     4.5040    -2.0540 H     1 <1>   0.1500 
 23 H       -4.9550     0.0730    -0.9330 H     1 <1>   0.4500 
 24 H       -6.5870    -0.4160     0.8150 H     1 <1>   0.0800 
 25 H       -5.3800    -1.4210     1.5870 H     1 <1>   0.0800 
 26 H       -3.0260    -1.4580     0.6780 H     1 <1>   0.0800 
 27 H       -2.6800    -0.5540    -0.7690 H     1 <1>   0.0800 
 28 H       -6.5750    -1.8610    -1.1600 H     1 <1>   0.0800 
 29 H       -6.9110    -2.7960     0.2640 H     1 <1>   0.0800 
 30 H       -2.9290    -2.9550    -1.2280 H     1 <1>   0.0800 
 31 H       -4.0530    -1.9840    -2.1220 H     1 <1>   0.0800 
 32 H       -5.2500    -3.9180    -1.2380 H     1 <1>   0.0800 
 33 H       -4.6280    -3.6210     0.3620 H     1 <1>   0.0800 
@<TRIPOS>BOND
  1   1   2  ar  
  2   2   3  ar  
  3   2   4  1   
  4   4   5  ar  
  5   4   6  ar  
  6   5   7  ar  
  7   5   8  1   
  8   6   9  ar  
  9   6  17  1   
 10   7  10  ar  
 11   7  18  1   
 12   8  11  1   
 13   8  19  1   
 14   8  20  1   
 15   9  10  ar  
 16   9  21  1   
 17  10  22  1   
 18  11  12  1   
 19  11  13  1   
 20  11  23  1   
 21  12  14  1   
 22  12  24  1   
 23  12  25  1   
 24  13  15  1   
 25  13  26  1   
 26  13  27  1   
 27  14  16  1   
 28  14  28  1   
 29  14  29  1   
 30  15  16  1   
 31  15  30  1   
 32  15  31  1   
 33  16  32  1   
 34  16  33  1   
@<TRIPOS>SUBSTRUCTURE
  1 ****   5 GROUP 4 **** **** 0

# MOE 2024.06 (io_trps.svl 2023.06)
