@<TRIPOS>MOLECULE
Piperidine-1-sulfonic acid pyridin-3-ylamide
31 32 1 0 0 
SMALL
USER_CHARGES


@<TRIPOS>ATOM
  1 S       -0.2320     0.0910     0.6150 S.o2  1 <1>   1.5760 
  2 O       -1.4000     0.9100     0.4150 O.2   1 <1>  -0.6500 
  3 O        0.1700    -0.4050     1.9080 O.2   1 <1>  -0.6500 
  4 N        1.0910     0.8210    -0.1270 N.am  1 <1>  -0.8490 
  5 N       -0.4000    -1.2130    -0.4730 N.am  1 <1>  -0.7570 
  6 C        2.3360     0.0900     0.1360 C.3   1 <1>   0.1960 
  7 C        1.2110     2.2240     0.2790 C.3   1 <1>   0.1960 
  8 C       -1.0660    -2.4030    -0.1960 C.ar  1 <1>   0.1990 
  9 C        3.4880     0.6970    -0.6710 C.3   1 <1>  -0.1600 
 10 C        2.3270     2.9140    -0.5130 C.3   1 <1>  -0.1600 
 11 C       -0.8780    -3.1510     0.9720 C.ar  1 <1>   0.1600 
 12 C       -1.9610    -2.8980    -1.1290 C.ar  1 <1>  -0.1500 
 13 C        3.6670     2.1860    -0.3500 C.3   1 <1>  -0.1600 
 14 N       -1.4870    -4.2910     1.2650 N.ar  1 <1>  -0.6200 
 15 C       -2.6060    -4.0810    -0.8420 C.ar  1 <1>  -0.1500 
 16 C       -2.3390    -4.7290     0.3530 C.ar  1 <1>   0.1600 
 17 H       -0.5930    -0.7940    -1.3730 H     1 <1>   0.4200 
 18 H        2.2190    -0.9440    -0.1460 H     1 <1>   0.0800 
 19 H        2.5700     0.1250     1.1880 H     1 <1>   0.0800 
 20 H        1.4170     2.2830     1.3360 H     1 <1>   0.0800 
 21 H        0.2840     2.7400     0.0880 H     1 <1>   0.0800 
 22 H        3.2800     0.5720    -1.7200 H     1 <1>   0.0800 
 23 H        4.3970     0.1670    -0.4500 H     1 <1>   0.0800 
 24 H        2.4250     3.9320    -0.1790 H     1 <1>   0.0800 
 25 H        2.0490     2.9350    -1.5520 H     1 <1>   0.0800 
 26 H       -0.1770    -2.7870     1.7010 H     1 <1>   0.1500 
 27 H       -2.1490    -2.3750    -2.0480 H     1 <1>   0.1500 
 28 H        4.4040     2.6190    -1.0040 H     1 <1>   0.0800 
 29 H        4.0120     2.2940     0.6640 H     1 <1>   0.0800 
 30 H       -3.3120    -4.5030    -1.5340 H     1 <1>   0.1500 
 31 H       -2.8490    -5.6530     0.5680 H     1 <1>   0.1500 
@<TRIPOS>BOND
  1   1   2  2   
  2   1   3  2   
  3   1   4  am  
  4   1   5  am  
  5   4   6  1   
  6   4   7  1   
  7   5   8  1   
  8   5  17  1   
  9   6   9  1   
 10   6  18  1   
 11   6  19  1   
 12   7  10  1   
 13   7  20  1   
 14   7  21  1   
 15   8  11  ar  
 16   8  12  ar  
 17   9  13  1   
 18   9  22  1   
 19   9  23  1   
 20  10  13  1   
 21  10  24  1   
 22  10  25  1   
 23  11  14  ar  
 24  11  26  1   
 25  12  15  ar  
 26  12  27  1   
 27  13  28  1   
 28  13  29  1   
 29  14  16  ar  
 30  15  16  ar  
 31  15  30  1   
 32  16  31  1   
@<TRIPOS>SUBSTRUCTURE
  1 ****   5 GROUP 4 **** **** 0

# MOE 2024.06 (io_trps.svl 2023.06)
