@<TRIPOS>MOLECULE
2-(4-Ethyl-benzylamino)-5,6-dimethyl-4H-[1,2,4]triazolo[1,5-a]pyrimidin-7-one
41 43 1 0 0 
SMALL
USER_CHARGES


@<TRIPOS>ATOM
  1 O       -0.0820    -0.5070     1.0630 O.2   1 <1>  -0.5700 
  2 C       -0.3850    -1.6040     0.6060 C.2   1 <1>   0.5650 
  3 N       -1.6890    -2.1250     0.7600 N.pl3 1 <1>   0.5610 
  4 C        0.5690    -2.4070    -0.1180 C.2   1 <1>  -0.1240 
  5 N       -2.8040    -1.6550     1.3770 N.2   1 <1>  -0.7070 
  6 C       -2.0160    -3.3200     0.2160 C.2   1 <1>   0.2700 
  7 C        0.1980    -3.6050    -0.6660 C.2   1 <1>  -0.0380 
  8 C        1.9880    -1.8400    -0.2260 C.3   1 <1>  -0.1020 
  9 C       -3.6480    -2.5980     1.1530 C.2   1 <1>   0.5990 
 10 N       -3.2350    -3.6450     0.4360 N.2   1 <1>  -0.5650 
 11 N       -1.0890    -4.0590    -0.4930 N.pl3 1 <1>  -0.5840 
 12 C        1.0750    -4.5410    -1.4840 C.3   1 <1>  -0.1020 
 13 N       -4.9340    -2.5870     1.6050 N.pl3 1 <1>  -0.8520 
 14 C       -5.6480    -1.3040     1.4970 C.3   1 <1>   0.3530 
 15 C       -6.9960    -1.5780     0.8540 C.ar  1 <1>  -0.1440 
 16 C       -8.0750    -1.9700     1.6300 C.ar  1 <1>  -0.1500 
 17 C       -7.1590    -1.4480    -0.5160 C.ar  1 <1>  -0.1500 
 18 C       -9.3040    -2.2220     1.0440 C.ar  1 <1>  -0.1500 
 19 C       -8.3870    -1.7000    -1.1020 C.ar  1 <1>  -0.1500 
 20 C       -9.4670    -2.0890    -0.3260 C.ar  1 <1>  -0.1440 
 21 C      -10.8160    -2.3660    -0.9690 C.3   1 <1>  -0.0170 
 22 C      -11.6590    -1.0910    -1.0200 C.3   1 <1>  -0.2400 
 23 H        2.0100    -1.0500    -0.9560 H     1 <1>   0.0800 
 24 H        2.7130    -2.5830    -0.4950 H     1 <1>   0.0800 
 25 H        2.2950    -1.4310     0.7210 H     1 <1>   0.0800 
 26 H       -1.4150    -4.9570    -0.8690 H     1 <1>   0.4000 
 27 H        1.3840    -5.3730    -0.8780 H     1 <1>   0.0800 
 28 H        1.9470    -4.0510    -1.8710 H     1 <1>   0.0800 
 29 H        0.5230    -4.9170    -2.3270 H     1 <1>   0.0800 
 30 H       -5.4540    -3.2990     1.0910 H     1 <1>   0.4000 
 31 H       -5.0950    -0.5980     0.9000 H     1 <1>   0.0800 
 32 H       -5.7780    -0.8870     2.4800 H     1 <1>   0.0800 
 33 H       -7.9610    -2.0830     2.6940 H     1 <1>   0.1500 
 34 H       -6.3290    -1.1510    -1.1340 H     1 <1>   0.1500 
 35 H      -10.1330    -2.5220     1.6590 H     1 <1>   0.1500 
 36 H       -8.5000    -1.5920    -2.1660 H     1 <1>   0.1500 
 37 H      -11.3360    -3.1220    -0.4080 H     1 <1>   0.0800 
 38 H      -10.6700    -2.7430    -1.9660 H     1 <1>   0.0800 
 39 H      -11.8250    -0.7160    -0.0250 H     1 <1>   0.0800 
 40 H      -12.6100    -1.2930    -1.4780 H     1 <1>   0.0800 
 41 H      -11.1510    -0.3340    -1.5920 H     1 <1>   0.0800 
@<TRIPOS>BOND
  1   1   2  2   
  2   2   3  1   
  3   2   4  1   
  4   3   5  1   
  5   3   6  1   
  6   4   7  2   
  7   4   8  1   
  8   5   9  2   
  9   6  10  2   
 10   6  11  1   
 11   7  11  1   
 12   7  12  1   
 13   8  23  1   
 14   8  24  1   
 15   8  25  1   
 16   9  10  1   
 17   9  13  1   
 18  11  26  1   
 19  12  27  1   
 20  12  28  1   
 21  12  29  1   
 22  13  14  1   
 23  13  30  1   
 24  14  15  1   
 25  14  31  1   
 26  14  32  1   
 27  15  16  ar  
 28  15  17  ar  
 29  16  18  ar  
 30  16  33  1   
 31  17  19  ar  
 32  17  34  1   
 33  18  20  ar  
 34  18  35  1   
 35  19  20  ar  
 36  19  36  1   
 37  20  21  1   
 38  21  22  1   
 39  21  37  1   
 40  21  38  1   
 41  22  39  1   
 42  22  40  1   
 43  22  41  1   
@<TRIPOS>SUBSTRUCTURE
  1 ****   9 GROUP 4 **** **** 0

# MOE 2024.06 (io_trps.svl 2023.06)
