@<TRIPOS>MOLECULE
N-{1-[3-(4-tert-Butyl-phenyl)-[1,2,4]oxadiazol-5-yl]-ethyl}-acetamide
42 43 1 0 0 
SMALL
USER_CHARGES


@<TRIPOS>ATOM
  1 O       -1.5410    -0.8360    -1.7410 O.2   1 <1>  -0.5700 
  2 C       -2.0680    -1.0410    -0.6800 C.2   1 <1>   0.5690 
  3 N       -3.4110    -0.9820    -0.5770 N.am  1 <1>  -0.7300 
  4 C       -1.2060    -1.3630     0.5160 C.3   1 <1>  -0.1790 
  5 C       -4.2660    -1.2420     0.5990 C.3   1 <1>   0.4000 
  6 C       -4.8580    -2.6550     0.5390 C.2   1 <1>   0.2980 
  7 C       -5.3320    -0.1450     0.6380 C.3   1 <1>  -0.2400 
  8 O       -4.0520    -3.6540     0.7880 O.3   1 <1>  -0.0190 
  9 N       -6.0590    -2.9820     0.2770 N.2   1 <1>  -0.5650 
 10 N       -4.8020    -4.7040     0.6760 N.2   1 <1>  -0.4100 
 11 C       -5.9890    -4.3140     0.3690 C.2   1 <1>   0.4620 
 12 C       -7.1350    -5.1800     0.1440 C.ar  1 <1>   0.0540 
 13 C       -7.0290    -6.5660     0.2430 C.ar  1 <1>  -0.1500 
 14 C       -8.3910    -4.6720    -0.1800 C.ar  1 <1>  -0.1500 
 15 C       -8.1130    -7.3980     0.0310 C.ar  1 <1>  -0.1500 
 16 C       -9.4770    -5.5010    -0.3920 C.ar  1 <1>  -0.1500 
 17 C       -9.3650    -6.8830    -0.2920 C.ar  1 <1>  -0.1430 
 18 C      -10.6060    -7.7680    -0.5380 C.3   1 <1>   0.1430 
 19 C      -11.7040    -7.4060     0.4730 C.3   1 <1>  -0.2400 
 20 C      -11.1290    -7.5360    -1.9640 C.3   1 <1>  -0.2400 
 21 C      -10.3160    -9.2720    -0.3900 C.3   1 <1>  -0.2400 
 22 H       -3.9130    -0.8290    -1.4530 H     1 <1>   0.3700 
 23 H       -0.1740    -1.3900     0.2170 H     1 <1>   0.0800 
 24 H       -1.3270    -0.6080     1.2690 H     1 <1>   0.0800 
 25 H       -1.4730    -2.3240     0.9130 H     1 <1>   0.0800 
 26 H       -3.6780    -1.1700     1.4960 H     1 <1>   0.0800 
 27 H       -5.9470    -0.1850    -0.2430 H     1 <1>   0.0800 
 28 H       -4.8690     0.8220     0.7100 H     1 <1>   0.0800 
 29 H       -5.9640    -0.2860     1.4970 H     1 <1>   0.0800 
 30 H       -6.0780    -7.0040     0.4900 H     1 <1>   0.1500 
 31 H       -8.5230    -3.6080    -0.2680 H     1 <1>   0.1500 
 32 H       -7.9510    -8.4550     0.1250 H     1 <1>   0.1500 
 33 H      -10.4210    -5.0510    -0.6390 H     1 <1>   0.1500 
 34 H      -12.0180    -6.3860     0.3570 H     1 <1>   0.0800 
 35 H      -11.3350    -7.5320     1.4760 H     1 <1>   0.0800 
 36 H      -12.5650    -8.0370     0.3430 H     1 <1>   0.0800 
 37 H      -11.9720    -8.1710    -2.1680 H     1 <1>   0.0800 
 38 H      -10.3550    -7.7530    -2.6780 H     1 <1>   0.0800 
 39 H      -11.4380    -6.5170    -2.1030 H     1 <1>   0.0800 
 40 H      -11.2060    -9.8480    -0.5690 H     1 <1>   0.0800 
 41 H       -9.9710    -9.4930     0.6050 H     1 <1>   0.0800 
 42 H       -9.5690    -9.5840    -1.0980 H     1 <1>   0.0800 
@<TRIPOS>BOND
  1   1   2  2   
  2   2   3  am  
  3   2   4  1   
  4   3   5  1   
  5   3  22  1   
  6   4  23  1   
  7   4  24  1   
  8   4  25  1   
  9   5   6  1   
 10   5   7  1   
 11   5  26  1   
 12   6   8  1   
 13   6   9  2   
 14   7  27  1   
 15   7  28  1   
 16   7  29  1   
 17   8  10  1   
 18   9  11  1   
 19  10  11  2   
 20  11  12  1   
 21  12  13  ar  
 22  12  14  ar  
 23  13  15  ar  
 24  13  30  1   
 25  14  16  ar  
 26  14  31  1   
 27  15  17  ar  
 28  15  32  1   
 29  16  17  ar  
 30  16  33  1   
 31  17  18  1   
 32  18  19  1   
 33  18  20  1   
 34  18  21  1   
 35  19  34  1   
 36  19  35  1   
 37  19  36  1   
 38  20  37  1   
 39  20  38  1   
 40  20  39  1   
 41  21  40  1   
 42  21  41  1   
 43  21  42  1   
@<TRIPOS>SUBSTRUCTURE
  1 ****  11 GROUP 4 **** **** 0

# MOE 2024.06 (io_trps.svl 2023.06)
