@<TRIPOS>MOLECULE
7-Isopropyl-3-methyl-8-phenethylamino-3,7-dihydro-purine-2,6-dione
46 48 1 0 0 
SMALL
USER_CHARGES


@<TRIPOS>ATOM
  1 O        0.8690    -0.2880    -0.7610 O.2   1 <1>  -0.5750 
  2 C        1.8320     0.4250    -0.6060 C.2   1 <1>   0.6860 
  3 N        3.0830    -0.0780    -0.2810 N.am  1 <1>  -0.4420 
  4 N        1.6760     1.7710    -0.7590 N.am  1 <1>  -0.4960 
  5 C        4.1200     0.8300    -0.1290 C.2   1 <1>   0.4200 
  6 C        3.3040    -1.5430    -0.0990 C.3   1 <1>   0.0510 
  7 C        2.6870     2.6770    -0.6130 C.2   1 <1>   0.6990 
  8 N        5.4140     0.5560     0.1830 N.pl3 1 <1>  -0.7040 
  9 C        3.9880     2.1690    -0.2770 C.2   1 <1>   0.2700 
 10 O        2.4370     3.8550    -0.7750 O.2   1 <1>  -0.5750 
 11 C        6.0800     1.7040     0.2310 C.cat 1 <1>   1.0690 
 12 N        5.2650     2.7250    -0.0410 N.pl3 1 <1>  -0.7680 
 13 N        7.3790     1.7940     0.5050 N.pl3 1 <1>  -0.7180 
 14 C        5.5390     4.1800    -0.1110 C.3   1 <1>   0.4280 
 15 C        8.3280     0.6960     0.8140 C.3   1 <1>   0.1600 
 16 C        6.5470     4.4680    -1.2210 C.3   1 <1>  -0.2470 
 17 C        6.0150     4.6880     1.2470 C.3   1 <1>  -0.2470 
 18 C        9.2460     0.4340    -0.3790 C.3   1 <1>  -0.0260 
 19 C        9.9820    -0.8730    -0.1570 C.ar  1 <1>  -0.1520 
 20 C        9.5730    -2.0280    -0.8070 C.ar  1 <1>  -0.1580 
 21 C       11.0650    -0.9250     0.7080 C.ar  1 <1>  -0.1580 
 22 C       10.2350    -3.2240    -0.5870 C.ar  1 <1>  -0.1580 
 23 C       11.7260    -2.1210     0.9280 C.ar  1 <1>  -0.1580 
 24 C       11.3110    -3.2710     0.2810 C.ar  1 <1>  -0.1580 
 25 H        0.7460     2.1110    -0.9970 H     1 <1>   0.3630 
 26 H        2.3870    -2.0900    -0.2390 H     1 <1>   0.0710 
 27 H        3.6640    -1.7380     0.8950 H     1 <1>   0.0710 
 28 H        4.0210    -1.8960    -0.8190 H     1 <1>   0.0710 
 29 H        5.8230    -0.3580     0.3480 H     1 <1>   0.4440 
 30 H        7.7890     2.7280     0.4960 H     1 <1>   0.4440 
 31 H        4.6310     4.7060    -0.3530 H     1 <1>   0.0710 
 32 H        7.7920    -0.2060     1.0530 H     1 <1>   0.0710 
 33 H        8.9210     0.9600     1.6760 H     1 <1>   0.0710 
 34 H        7.5150     4.0550    -1.0120 H     1 <1>   0.0710 
 35 H        6.6600     5.5330    -1.3270 H     1 <1>   0.0710 
 36 H        6.1860     4.0840    -2.1580 H     1 <1>   0.0710 
 37 H        6.9690     4.2820     1.5250 H     1 <1>   0.0710 
 38 H        5.2900     4.4550     2.0060 H     1 <1>   0.0710 
 39 H        6.1130     5.7590     1.2090 H     1 <1>   0.0710 
 40 H        9.9590     1.2330    -0.4850 H     1 <1>   0.0710 
 41 H        8.6720     0.3670    -1.2870 H     1 <1>   0.0710 
 42 H        8.7440    -2.0120    -1.4910 H     1 <1>   0.1420 
 43 H       11.4040    -0.0400     1.2160 H     1 <1>   0.1420 
 44 H        9.9170    -4.1190    -1.0930 H     1 <1>   0.1420 
 45 H       12.5660    -2.1570     1.6000 H     1 <1>   0.1420 
 46 H       11.8260    -4.2000     0.4510 H     1 <1>   0.1420 
@<TRIPOS>BOND
  1   1   2  2   
  2   2   3  am  
  3   2   4  am  
  4   3   5  1   
  5   3   6  1   
  6   4   7  am  
  7   4  25  1   
  8   5   8  1   
  9   5   9  2   
 10   6  26  1   
 11   6  27  1   
 12   6  28  1   
 13   7   9  1   
 14   7  10  2   
 15   8  11  ar  
 16   8  29  1   
 17   9  12  1   
 18  11  12  ar  
 19  11  13  ar  
 20  12  14  1   
 21  13  15  1   
 22  13  30  1   
 23  14  16  1   
 24  14  17  1   
 25  14  31  1   
 26  15  18  1   
 27  15  32  1   
 28  15  33  1   
 29  16  34  1   
 30  16  35  1   
 31  16  36  1   
 32  17  37  1   
 33  17  38  1   
 34  17  39  1   
 35  18  19  1   
 36  18  40  1   
 37  18  41  1   
 38  19  20  ar  
 39  19  21  ar  
 40  20  22  ar  
 41  20  42  1   
 42  21  23  ar  
 43  21  43  1   
 44  22  24  ar  
 45  22  44  1   
 46  23  24  ar  
 47  23  45  1   
 48  24  46  1   
@<TRIPOS>SUBSTRUCTURE
  1 ****   8 GROUP 4 **** **** 0

# MOE 2024.06 (io_trps.svl 2023.06)
