@<TRIPOS>MOLECULE
7-(2-Fluoro-benzyl)-1,3-dimethyl-8-(4-methyl-piperidin-1-ylmethyl)-3,7-dihydro-p
56 59 1 0 0 
SMALL
USER_CHARGES


@<TRIPOS>ATOM
  1 F        0.2530    -1.4610     1.7620 F     1 <1>  -0.1900 
  2 C       -0.2530    -1.3410     0.5640 C.ar  1 <1>   0.1900 
  3 C       -1.4990    -1.8880     0.2980 C.ar  1 <1>  -0.1440 
  4 C        0.4960    -0.6900    -0.3960 C.ar  1 <1>  -0.1500 
  5 C       -2.0030    -1.7600    -0.9900 C.ar  1 <1>  -0.1500 
  6 C       -2.2930    -2.6060     1.3770 C.3   1 <1>   0.4980 
  7 C       -0.0190    -0.5770    -1.6760 C.ar  1 <1>  -0.1500 
  8 C       -1.2650    -1.1110    -1.9690 C.ar  1 <1>  -0.1500 
  9 N       -2.3620    -4.0750     1.1000 N.pl3 1 <1>  -0.7640 
 10 C       -3.4590    -4.8670     1.4680 C.2   1 <1>   0.2770 
 11 C       -1.4790    -4.8870     0.5170 C.cat 1 <1>   0.6560 
 12 C       -4.7030    -4.6310     2.1440 C.2   1 <1>   0.7030 
 13 C       -3.1810    -6.1300     1.0640 C.2   1 <1>   0.4260 
 14 N       -1.9620    -6.1220     0.4820 N.pl3 1 <1>  -0.7000 
 15 C       -0.0830    -4.5920    -0.0630 C.3   1 <1>   0.2540 
 16 O       -4.9950    -3.5180     2.5470 O.2   1 <1>  -0.5700 
 17 N       -5.5650    -5.7030     2.3350 N.am  1 <1>  -0.4200 
 18 N       -4.0280    -7.2050     1.2520 N.am  1 <1>  -0.4360 
 19 N        0.6700    -5.8490    -0.3300 N.3   1 <1>  -0.8100 
 20 C       -5.2220    -6.9860     1.9220 C.2   1 <1>   0.6900 
 21 C       -6.8710    -5.4980     3.0380 C.3   1 <1>   0.0600 
 22 C       -3.6500    -8.5690     0.7770 C.3   1 <1>   0.0600 
 23 C        1.3450    -6.3430     0.8860 C.3   1 <1>   0.1100 
 24 C        1.6410    -5.6680    -1.4230 C.3   1 <1>   0.1100 
 25 O       -5.9650    -7.9170     2.1540 O.2   1 <1>  -0.5700 
 26 C        1.9660    -7.7150     0.6130 C.3   1 <1>  -0.1600 
 27 C        2.2800    -7.0140    -1.7760 C.3   1 <1>  -0.1600 
 28 C        2.9590    -7.6500    -0.5550 C.3   1 <1>  -0.0800 
 29 C        3.4950    -9.0450    -0.8940 C.3   1 <1>  -0.2400 
 30 H        1.4590    -0.2790    -0.1480 H     1 <1>   0.1500 
 31 H       -2.9710    -2.1590    -1.2440 H     1 <1>   0.1500 
 32 H       -3.2850    -2.1890     1.3860 H     1 <1>   0.0800 
 33 H       -1.8670    -2.4460     2.3530 H     1 <1>   0.0800 
 34 H        0.5450    -0.0710    -2.4430 H     1 <1>   0.1500 
 35 H       -1.6620    -1.0130    -2.9660 H     1 <1>   0.1500 
 36 H       -1.4040    -6.8830     0.0750 H     1 <1>   0.4500 
 37 H        0.4750    -3.9680     0.6120 H     1 <1>   0.0800 
 38 H       -0.2230    -4.0540    -0.9840 H     1 <1>   0.0800 
 39 H       -7.1880    -4.4710     2.9770 H     1 <1>   0.0800 
 40 H       -6.7690    -5.7720     4.0740 H     1 <1>   0.0800 
 41 H       -7.6340    -6.1120     2.5910 H     1 <1>   0.0800 
 42 H       -2.9870    -9.0310     1.4880 H     1 <1>   0.0800 
 43 H       -3.1630    -8.5100    -0.1800 H     1 <1>   0.0800 
 44 H       -4.5240    -9.1900     0.6690 H     1 <1>   0.0800 
 45 H        0.6400    -6.4340     1.6950 H     1 <1>   0.0800 
 46 H        2.1170    -5.6520     1.1860 H     1 <1>   0.0800 
 47 H        2.4060    -4.9670    -1.1280 H     1 <1>   0.0800 
 48 H        1.1430    -5.2820    -2.2970 H     1 <1>   0.0800 
 49 H        1.1820    -8.4170     0.3920 H     1 <1>   0.0800 
 50 H        2.4730    -8.0560     1.4980 H     1 <1>   0.0800 
 51 H        3.0050    -6.8660    -2.5560 H     1 <1>   0.0800 
 52 H        1.5170    -7.6700    -2.1580 H     1 <1>   0.0800 
 53 H        3.7890    -7.0280    -0.2640 H     1 <1>   0.0800 
 54 H        2.6950    -9.6990    -1.1940 H     1 <1>   0.0800 
 55 H        3.9860    -9.4740    -0.0380 H     1 <1>   0.0800 
 56 H        4.2080    -8.9850    -1.6970 H     1 <1>   0.0800 
@<TRIPOS>BOND
  1   1   2  1   
  2   2   3  ar  
  3   2   4  ar  
  4   3   5  ar  
  5   3   6  1   
  6   4   7  ar  
  7   4  30  1   
  8   5   8  ar  
  9   5  31  1   
 10   6   9  1   
 11   6  32  1   
 12   6  33  1   
 13   7   8  ar  
 14   7  34  1   
 15   8  35  1   
 16   9  10  1   
 17   9  11  ar  
 18  10  12  1   
 19  10  13  2   
 20  11  14  ar  
 21  11  15  1   
 22  12  16  2   
 23  12  17  am  
 24  13  14  1   
 25  13  18  1   
 26  14  36  1   
 27  15  19  1   
 28  15  37  1   
 29  15  38  1   
 30  17  20  am  
 31  17  21  1   
 32  18  20  am  
 33  18  22  1   
 34  19  23  1   
 35  19  24  1   
 36  20  25  2   
 37  21  39  1   
 38  21  40  1   
 39  21  41  1   
 40  22  42  1   
 41  22  43  1   
 42  22  44  1   
 43  23  26  1   
 44  23  45  1   
 45  23  46  1   
 46  24  27  1   
 47  24  47  1   
 48  24  48  1   
 49  26  28  1   
 50  26  49  1   
 51  26  50  1   
 52  27  28  1   
 53  27  51  1   
 54  27  52  1   
 55  28  29  1   
 56  28  53  1   
 57  29  54  1   
 58  29  55  1   
 59  29  56  1   
@<TRIPOS>SUBSTRUCTURE
  1 ****  11 GROUP 4 **** **** 0

# MOE 2024.06 (io_trps.svl 2023.06)
