@<TRIPOS>MOLECULE
5-Methyl-7-pyridin-3-yl-4,7-dihydro-[1,2,4]triazolo[1,5-a]pyrimidine-6-carboxyli
43 45 1 0 0 
SMALL
USER_CHARGES


@<TRIPOS>ATOM
  1 O        0.5710    -0.8190    -1.7580 O.2   1 <1>  -0.5700 
  2 C        0.2800    -1.4580    -0.7630 C.2   1 <1>   0.6160 
  3 N        1.1420    -1.4530     0.3190 N.am  1 <1>  -0.6600 
  4 C       -0.9420    -2.1910    -0.7450 C.2   1 <1>  -0.1240 
  5 C        2.2670    -0.4710     0.3600 C.3   1 <1>   0.1400 
  6 C        1.2160    -2.5900     1.2840 C.3   1 <1>   0.1400 
  7 C       -1.2780    -3.2380    -1.5500 C.2   1 <1>  -0.0380 
  8 C       -1.9290    -1.6570     0.3000 C.3   1 <1>   0.4570 
  9 C        3.5230    -1.0670    -0.2740 C.3   1 <1>  -0.2400 
 10 C        1.0140    -2.1050     2.7210 C.3   1 <1>  -0.2400 
 11 N       -2.4860    -3.8870    -1.4100 N.pl3 1 <1>  -0.5840 
 12 C       -0.3850    -3.8000    -2.6440 C.3   1 <1>  -0.1020 
 13 N       -3.1050    -2.5530     0.4480 N.pl3 1 <1>   0.3140 
 14 C       -2.3910    -0.2490    -0.0670 C.ar  1 <1>  -0.1440 
 15 C       -3.3480    -3.5760    -0.3760 C.2   1 <1>   0.2700 
 16 N       -4.0600    -2.5190     1.3840 N.2   1 <1>  -0.7070 
 17 C       -3.0750    -0.0200    -1.2530 C.ar  1 <1>   0.1600 
 18 C       -2.1360     0.8210     0.7700 C.ar  1 <1>  -0.1500 
 19 N       -4.4200    -4.2040    -0.0560 N.2   1 <1>  -0.5650 
 20 C       -4.8110    -3.5090     1.0260 C.2   1 <1>   0.3660 
 21 N       -3.5180     1.1600    -1.6560 N.ar  1 <1>  -0.6200 
 22 C       -2.5880     2.0570     0.3620 C.ar  1 <1>  -0.1500 
 23 C       -3.2630     2.1690    -0.8410 C.ar  1 <1>   0.1600 
 24 H        1.9860     0.4180    -0.1810 H     1 <1>   0.0800 
 25 H        2.4680    -0.1770     1.3750 H     1 <1>   0.0800 
 26 H        0.4680    -3.3280     1.0500 H     1 <1>   0.0800 
 27 H        2.1740    -3.0730     1.1980 H     1 <1>   0.0800 
 28 H       -1.4510    -1.6280     1.2570 H     1 <1>   0.0800 
 29 H        3.3160    -1.3730    -1.2840 H     1 <1>   0.0800 
 30 H        3.8830    -1.9060     0.2920 H     1 <1>   0.0800 
 31 H        4.2970    -0.3220    -0.3010 H     1 <1>   0.0800 
 32 H        0.1150    -1.5260     2.8150 H     1 <1>   0.0800 
 33 H        1.8520    -1.5150     3.0440 H     1 <1>   0.0800 
 34 H        0.9410    -2.9550     3.3750 H     1 <1>   0.0800 
 35 H       -2.7600    -4.6780    -2.0030 H     1 <1>   0.4000 
 36 H        0.5590    -3.2890    -2.6910 H     1 <1>   0.0800 
 37 H       -0.1940    -4.8430    -2.4650 H     1 <1>   0.0800 
 38 H       -0.8690    -3.6930    -3.5980 H     1 <1>   0.0800 
 39 H       -3.2700    -0.8500    -1.9130 H     1 <1>   0.1500 
 40 H       -1.6090     0.7080     1.7020 H     1 <1>   0.1500 
 41 H       -5.7100    -3.7860     1.5560 H     1 <1>   0.1500 
 42 H       -2.4210     2.9290     0.9670 H     1 <1>   0.1500 
 43 H       -3.6120     3.1400    -1.1490 H     1 <1>   0.1500 
@<TRIPOS>BOND
  1   1   2  2   
  2   2   3  am  
  3   2   4  1   
  4   3   5  1   
  5   3   6  1   
  6   4   7  2   
  7   4   8  1   
  8   5   9  1   
  9   5  24  1   
 10   5  25  1   
 11   6  10  1   
 12   6  26  1   
 13   6  27  1   
 14   7  11  1   
 15   7  12  1   
 16   8  13  1   
 17   8  14  1   
 18   8  28  1   
 19   9  29  1   
 20   9  30  1   
 21   9  31  1   
 22  10  32  1   
 23  10  33  1   
 24  10  34  1   
 25  11  15  1   
 26  11  35  1   
 27  12  36  1   
 28  12  37  1   
 29  12  38  1   
 30  13  15  1   
 31  13  16  1   
 32  14  17  ar  
 33  14  18  ar  
 34  15  19  2   
 35  16  20  2   
 36  17  21  ar  
 37  17  39  1   
 38  18  22  ar  
 39  18  40  1   
 40  19  20  1   
 41  20  41  1   
 42  21  23  ar  
 43  22  23  ar  
 44  22  42  1   
 45  23  43  1   
@<TRIPOS>SUBSTRUCTURE
  1 ****   8 GROUP 4 **** **** 0

# MOE 2024.06 (io_trps.svl 2023.06)
