@<TRIPOS>MOLECULE
2-(4-Carbamoylmethoxy-3-methoxy-phenyl)-thiazolidine-4-carboxylic acid
37 38 1 0 0 
SMALL
USER_CHARGES


@<TRIPOS>ATOM
  1 S       -0.0440     0.0160     0.9380 S.3   1 <1>  -0.4600 
  2 C       -0.4360    -1.6740     0.4930 C.3   1 <1>   0.7960 
  3 C        1.6640    -0.0170     0.3560 C.3   1 <1>   0.0700 
  4 N        0.3720    -1.8450    -0.7030 N.4   1 <1>  -0.9060 
  5 C       -1.9080    -1.8400     0.1510 C.ar  1 <1>  -0.1430 
  6 C        1.7730    -1.3330    -0.4230 C.3   1 <1>   0.3170 
  7 C       -2.5580    -3.0010     0.5520 C.ar  1 <1>  -0.1500 
  8 C       -2.6170    -0.8790    -0.5620 C.ar  1 <1>  -0.1500 
  9 C        2.5480    -2.3810     0.3900 C.2   1 <1>   0.9060 
 10 C       -3.8930    -3.2040     0.2500 C.ar  1 <1>   0.0830 
 11 C       -3.9560    -1.0700    -0.8550 C.ar  1 <1>  -0.1500 
 12 O        3.6890    -2.1450     0.7770 O.co2 1 <1>  -0.9000 
 13 O        1.9330    -3.4360     0.6170 O.co2 1 <1>  -0.9000 
 14 O       -4.4540    -4.3690     0.6510 O.3   1 <1>  -0.3630 
 15 C       -4.6050    -2.2180    -0.4390 C.ar  1 <1>   0.0830 
 16 C       -4.8480    -5.2690    -0.3630 C.3   1 <1>   0.0400 
 17 O       -5.9250    -2.3220    -0.7160 O.3   1 <1>  -0.3630 
 18 C       -6.8010    -2.3660     0.4070 C.3   1 <1>   0.1810 
 19 C       -8.2520    -2.1630    -0.0130 C.2   1 <1>   0.5690 
 20 O       -9.1200    -2.1990     0.8210 O.2   1 <1>  -0.5700 
 21 N       -8.5690    -1.9440    -1.3060 N.am  1 <1>  -0.8000 
 22 H       -0.1110    -2.3170     1.2980 H     1 <1>   0.0800 
 23 H        2.3250     0.0190     1.2070 H     1 <1>   0.0800 
 24 H        1.8190     0.8400    -0.2740 H     1 <1>   0.0800 
 25 H       -0.0990    -1.4270    -1.5000 H     1 <1>   0.4500 
 26 H        0.4870    -2.8690    -0.7860 H     1 <1>   0.4500 
 27 H        2.3170    -1.1820    -1.3370 H     1 <1>   0.0800 
 28 H       -2.0390    -3.7680     1.1020 H     1 <1>   0.1500 
 29 H       -2.1470     0.0340    -0.8890 H     1 <1>   0.1500 
 30 H       -4.5070    -0.3210    -1.3980 H     1 <1>   0.1500 
 31 H       -5.2070    -6.1670     0.1060 H     1 <1>   0.0800 
 32 H       -3.9960    -5.4920    -0.9810 H     1 <1>   0.0800 
 33 H       -5.6320    -4.8270    -0.9510 H     1 <1>   0.0800 
 34 H       -6.5180    -1.5870     1.0920 H     1 <1>   0.0800 
 35 H       -6.7020    -3.3190     0.8900 H     1 <1>   0.0800 
 36 H       -9.5400    -1.8080    -1.5820 H     1 <1>   0.3700 
 37 H       -7.8560    -1.9100    -2.0370 H     1 <1>   0.3700 
@<TRIPOS>BOND
  1   1   2  1   
  2   1   3  1   
  3   2   4  1   
  4   2   5  1   
  5   2  22  1   
  6   3   6  1   
  7   3  23  1   
  8   3  24  1   
  9   4   6  1   
 10   4  25  1   
 11   4  26  1   
 12   5   7  ar  
 13   5   8  ar  
 14   6   9  1   
 15   6  27  1   
 16   7  10  ar  
 17   7  28  1   
 18   8  11  ar  
 19   8  29  1   
 20   9  12  ar  
 21   9  13  ar  
 22  10  14  1   
 23  10  15  ar  
 24  11  15  ar  
 25  11  30  1   
 26  14  16  1   
 27  15  17  1   
 28  16  31  1   
 29  16  32  1   
 30  16  33  1   
 31  17  18  1   
 32  18  19  1   
 33  18  34  1   
 34  18  35  1   
 35  19  20  2   
 36  19  21  am  
 37  21  36  1   
 38  21  37  1   
@<TRIPOS>SUBSTRUCTURE
  1 ****   5 GROUP 4 **** **** 0

# MOE 2024.06 (io_trps.svl 2023.06)
