@<TRIPOS>MOLECULE
2-Benzenesulfonyl-N-(5-propyl-[1,3,4]thiadiazol-2-yl)-acetamide
36 37 1 0 0 
SMALL
USER_CHARGES


@<TRIPOS>ATOM
  1 S        0.5910    -0.8790     0.8760 S.o2  1 <1>   1.2040 
  2 O        1.4740    -0.2280     1.8240 O.2   1 <1>  -0.6500 
  3 O       -0.0030    -2.1460     1.2370 O.2   1 <1>  -0.6500 
  4 C       -0.6980     0.2650     0.3250 C.ar  1 <1>  -0.0090 
  5 C        1.5530    -1.1660    -0.5850 C.3   1 <1>   0.0060 
  6 C       -1.9130    -0.2110    -0.1570 C.ar  1 <1>  -0.1500 
  7 C       -0.5000     1.6420     0.3400 C.ar  1 <1>  -0.1500 
  8 C        2.1320     0.1290    -1.0680 C.2   1 <1>   0.5690 
  9 C       -2.8940     0.6540    -0.6110 C.ar  1 <1>  -0.1500 
 10 C       -1.4750     2.5120    -0.1150 C.ar  1 <1>  -0.1500 
 11 O        1.8160     0.4890    -2.1700 O.2   1 <1>  -0.5700 
 12 N        2.9820     0.8300    -0.2560 N.am  1 <1>  -0.4940 
 13 C       -2.6740     2.0180    -0.5910 C.ar  1 <1>  -0.1500 
 14 C        3.6790     1.9910    -0.5160 C.2   1 <1>   0.4420 
 15 S        4.5490     2.6870     0.8120 S.3   1 <1>  -0.0800 
 16 N        3.8100     2.6740    -1.5930 N.2   1 <1>  -0.3380 
 17 C        5.0570     3.9390    -0.2690 C.2   1 <1>   0.1980 
 18 N        4.5960     3.7840    -1.4440 N.2   1 <1>  -0.3380 
 19 C        5.9560     5.0270     0.2960 C.3   1 <1>   0.0200 
 20 C        6.3300     6.0920    -0.7460 C.3   1 <1>  -0.1600 
 21 C        7.2360     7.1760    -0.1510 C.3   1 <1>  -0.2400 
 22 H        0.9360    -1.5850    -1.3570 H     1 <1>   0.0800 
 23 H        2.3490    -1.8510    -0.3790 H     1 <1>   0.0800 
 24 H       -2.1000    -1.2720    -0.1750 H     1 <1>   0.1500 
 25 H        0.4260     2.0480     0.7100 H     1 <1>   0.1500 
 26 H       -3.8280     0.2650    -0.9800 H     1 <1>   0.1500 
 27 H       -1.2990     3.5750    -0.0990 H     1 <1>   0.1500 
 28 H        3.0320     0.5180     0.7190 H     1 <1>   0.3700 
 29 H       -3.4340     2.6940    -0.9460 H     1 <1>   0.1500 
 30 H        6.8520     4.5680     0.6740 H     1 <1>   0.0800 
 31 H        5.4480     5.4970     1.1190 H     1 <1>   0.0800 
 32 H        5.4310     6.5470    -1.1280 H     1 <1>   0.0800 
 33 H        6.8340     5.6190    -1.5730 H     1 <1>   0.0800 
 34 H        6.7400     7.6790     0.6610 H     1 <1>   0.0800 
 35 H        7.4780     7.9040    -0.9050 H     1 <1>   0.0800 
 36 H        8.1520     6.7450     0.2130 H     1 <1>   0.0800 
@<TRIPOS>BOND
  1   1   2  2   
  2   1   3  2   
  3   1   4  1   
  4   1   5  1   
  5   4   6  ar  
  6   4   7  ar  
  7   5   8  1   
  8   5  22  1   
  9   5  23  1   
 10   6   9  ar  
 11   6  24  1   
 12   7  10  ar  
 13   7  25  1   
 14   8  11  2   
 15   8  12  am  
 16   9  13  ar  
 17   9  26  1   
 18  10  13  ar  
 19  10  27  1   
 20  12  14  1   
 21  12  28  1   
 22  13  29  1   
 23  14  15  1   
 24  14  16  2   
 25  15  17  1   
 26  16  18  1   
 27  17  18  2   
 28  17  19  1   
 29  19  20  1   
 30  19  30  1   
 31  19  31  1   
 32  20  21  1   
 33  20  32  1   
 34  20  33  1   
 35  21  34  1   
 36  21  35  1   
 37  21  36  1   
@<TRIPOS>SUBSTRUCTURE
  1 ****  12 GROUP 4 **** **** 0

# MOE 2024.06 (io_trps.svl 2023.06)
