@<TRIPOS>MOLECULE
3-(4-Fluoro-phenyl)-pyrrolidine
25 26 1 0 0 
SMALL
USER_CHARGES


@<TRIPOS>ATOM
  1 F       -0.2300    -0.4090    -0.8330 F     1 <1>  -0.1900 
  2 C       -1.0150    -1.4000    -0.5120 C.ar  1 <1>   0.1900 
  3 C       -2.3720    -1.2760    -0.7320 C.ar  1 <1>  -0.1500 
  4 C       -0.4640    -2.5370     0.0420 C.ar  1 <1>  -0.1500 
  5 C       -3.2010    -2.3320    -0.3930 C.ar  1 <1>  -0.1500 
  6 C       -1.3030    -3.5860     0.3770 C.ar  1 <1>  -0.1500 
  7 C       -2.6760    -3.5030     0.1530 C.ar  1 <1>  -0.1430 
  8 C       -3.5560    -4.6950     0.5370 C.3   1 <1>   0.0640 
  9 C       -3.0090    -6.0180    -0.0110 C.3   1 <1>   0.3430 
 10 C       -4.9980    -4.6660     0.0250 C.3   1 <1>  -0.1600 
 11 N       -4.1890    -6.8520    -0.3950 N.4   1 <1>  -0.9060 
 12 C       -5.4170    -6.1250     0.0080 C.3   1 <1>   0.3430 
 13 H       -2.7640    -0.3700    -1.1570 H     1 <1>   0.1500 
 14 H        0.5980    -2.5900     0.2070 H     1 <1>   0.1500 
 15 H       -4.2560    -2.2070    -0.5600 H     1 <1>   0.1500 
 16 H       -0.8600    -4.4610     0.8220 H     1 <1>   0.1500 
 17 H       -3.5720    -4.7630     1.6120 H     1 <1>   0.0800 
 18 H       -2.4070    -6.5110     0.7350 H     1 <1>   0.0800 
 19 H       -2.4010    -5.8230    -0.8800 H     1 <1>   0.0800 
 20 H       -5.0440    -4.2910    -0.9830 H     1 <1>   0.0800 
 21 H       -5.6410    -4.0720     0.6520 H     1 <1>   0.0800 
 22 H       -4.1490    -7.7870     0.0330 H     1 <1>   0.4500 
 23 H       -4.1890    -6.9790    -1.4160 H     1 <1>   0.4500 
 24 H       -6.2340    -6.3010    -0.6760 H     1 <1>   0.0800 
 25 H       -5.7120    -6.4260     1.0020 H     1 <1>   0.0800 
@<TRIPOS>BOND
  1   1   2  1   
  2   2   3  ar  
  3   2   4  ar  
  4   3   5  ar  
  5   3  13  1   
  6   4   6  ar  
  7   4  14  1   
  8   5   7  ar  
  9   5  15  1   
 10   6   7  ar  
 11   6  16  1   
 12   7   8  1   
 13   8   9  1   
 14   8  10  1   
 15   8  17  1   
 16   9  11  1   
 17   9  18  1   
 18   9  19  1   
 19  10  12  1   
 20  10  20  1   
 21  10  21  1   
 22  11  12  1   
 23  11  22  1   
 24  11  23  1   
 25  12  24  1   
 26  12  25  1   
@<TRIPOS>SUBSTRUCTURE
  1 ****   7 GROUP 4 **** **** 0

# MOE 2024.06 (io_trps.svl 2023.06)
