@<TRIPOS>MOLECULE
4-Imidazol-1-ylmethyl-piperidine
28 29 1 0 0 
SMALL
USER_CHARGES


@<TRIPOS>ATOM
  1 N        0.0470     0.2640    -0.3040 N.2   1 <1>  -0.5650 
  2 C       -0.9510     0.7470    -0.9670 C.2   1 <1>   0.0360 
  3 C        0.0250     0.9500     0.8530 C.2   1 <1>   0.0770 
  4 N       -1.6380     1.7050    -0.3040 N.pl3 1 <1>   0.0480 
  5 C       -0.9980     1.8320     0.8720 C.2   1 <1>  -0.3020 
  6 C       -2.8620     2.4050    -0.7420 C.3   1 <1>   0.0960 
  7 C       -4.0990     1.8930     0.0280 C.3   1 <1>  -0.0800 
  8 C       -4.3120     0.3740    -0.1400 C.3   1 <1>  -0.1600 
  9 C       -5.3670     2.6450    -0.4180 C.3   1 <1>  -0.1600 
 10 C       -5.5790    -0.1100     0.5680 C.3   1 <1>   0.3430 
 11 C       -6.6190     2.1270     0.2960 C.3   1 <1>   0.3430 
 12 N       -6.7520     0.6610     0.0740 N.4   1 <1>  -0.9060 
 13 H       -1.2250     0.4220    -1.9550 H     1 <1>   0.1500 
 14 H        0.7590     0.7690     1.6220 H     1 <1>   0.1500 
 15 H       -1.2860     2.5240     1.6420 H     1 <1>   0.1500 
 16 H       -2.9860     2.2510    -1.7990 H     1 <1>   0.0800 
 17 H       -2.7250     3.4580    -0.5680 H     1 <1>   0.0800 
 18 H       -3.9410     2.1020     1.0740 H     1 <1>   0.0800 
 19 H       -3.4760    -0.1610     0.2800 H     1 <1>   0.0800 
 20 H       -4.3640     0.1150    -1.1840 H     1 <1>   0.0800 
 21 H       -5.5020     2.5530    -1.4820 H     1 <1>   0.0800 
 22 H       -5.2570     3.6930    -0.1980 H     1 <1>   0.0800 
 23 H       -5.4700     0.0310     1.6320 H     1 <1>   0.0800 
 24 H       -5.7190    -1.1630     0.3800 H     1 <1>   0.0800 
 25 H       -7.4900     2.6400    -0.0810 H     1 <1>   0.0800 
 26 H       -6.5400     2.3290     1.3530 H     1 <1>   0.0800 
 27 H       -7.6060     0.3180     0.5350 H     1 <1>   0.4500 
 28 H       -6.8670     0.4830    -0.9310 H     1 <1>   0.4500 
@<TRIPOS>BOND
  1   1   2  2   
  2   1   3  1   
  3   2   4  1   
  4   2  13  1   
  5   3   5  2   
  6   3  14  1   
  7   4   5  1   
  8   4   6  1   
  9   5  15  1   
 10   6   7  1   
 11   6  16  1   
 12   6  17  1   
 13   7   8  1   
 14   7   9  1   
 15   7  18  1   
 16   8  10  1   
 17   8  19  1   
 18   8  20  1   
 19   9  11  1   
 20   9  21  1   
 21   9  22  1   
 22  10  12  1   
 23  10  23  1   
 24  10  24  1   
 25  11  12  1   
 26  11  25  1   
 27  11  26  1   
 28  12  27  1   
 29  12  28  1   
@<TRIPOS>SUBSTRUCTURE
  1 ****   7 GROUP 4 **** **** 0

# MOE 2024.06 (io_trps.svl 2023.06)
