@<TRIPOS>MOLECULE
4-Morpholin-4-ylmethyl-N-[4-(pyrrolidine-1-sulfonyl)-phenyl]-benzamide
58 61 1 0 0 
SMALL
USER_CHARGES


@<TRIPOS>ATOM
  1 S        0.3710     0.7830     0.7840 S.o2  1 <1>   1.4470 
  2 O        1.1700     1.7060     1.5640 O.2   1 <1>  -0.6500 
  3 O        0.5130    -0.6390     1.0110 O.2   1 <1>  -0.6500 
  4 N        0.7500     1.0560    -0.8440 N.am  1 <1>  -0.8490 
  5 C       -1.3800     1.2440     0.8810 C.ar  1 <1>  -0.0090 
  6 C        2.0220     0.4750    -1.2320 C.3   1 <1>   0.1960 
  7 C        0.8290     2.4550    -1.2260 C.3   1 <1>   0.1960 
  8 C       -1.8490     2.1090     1.8640 C.ar  1 <1>  -0.1500 
  9 C       -2.3050     0.7430    -0.0260 C.ar  1 <1>  -0.1500 
 10 C        2.3630     1.1450    -2.5580 C.3   1 <1>  -0.1600 
 11 C        1.5380     2.4330    -2.5740 C.3   1 <1>  -0.1600 
 12 C       -3.1850     2.4620     1.9330 C.ar  1 <1>  -0.1500 
 13 C       -3.6420     1.0940     0.0380 C.ar  1 <1>  -0.1500 
 14 C       -4.1060     1.9610     1.0220 C.ar  1 <1>   0.1170 
 15 N       -5.4450     2.3630     1.1200 N.am  1 <1>  -0.5470 
 16 C       -6.6010     1.7670     0.6720 C.2   1 <1>   0.5440 
 17 O       -6.5800     0.6400     0.2240 O.2   1 <1>  -0.5700 
 18 C       -7.8600     2.4830     0.7590 C.ar  1 <1>   0.0860 
 19 C       -9.0420     1.8100     1.0640 C.ar  1 <1>  -0.1500 
 20 C       -7.9500     3.8580     0.5340 C.ar  1 <1>  -0.1500 
 21 C      -10.2550     2.4680     1.1390 C.ar  1 <1>  -0.1500 
 22 C       -9.1600     4.5250     0.6060 C.ar  1 <1>  -0.1500 
 23 C      -10.3250     3.8320     0.9010 C.ar  1 <1>  -0.1430 
 24 C      -11.6630     4.5480     0.9500 C.3   1 <1>   0.4860 
 25 N      -12.1220     4.7930    -0.4450 N.4   1 <1>  -0.9590 
 26 C      -13.3590     5.6470    -0.4860 C.3   1 <1>   0.3430 
 27 C      -12.3380     3.5060    -1.1990 C.3   1 <1>   0.3430 
 28 C      -13.8910     5.8020    -1.9240 C.3   1 <1>   0.1200 
 29 C      -12.9190     3.7630    -2.6020 C.3   1 <1>   0.1200 
 30 O      -14.0740     4.5450    -2.5090 O.3   1 <1>  -0.5600 
 31 H        1.9420    -0.5960    -1.3270 H     1 <1>   0.0800 
 32 H        2.7740     0.7140    -0.4960 H     1 <1>   0.0800 
 33 H        1.4260     3.0070    -0.5170 H     1 <1>   0.0800 
 34 H       -0.1520     2.8970    -1.2940 H     1 <1>   0.0800 
 35 H       -1.1550     2.5100     2.5850 H     1 <1>   0.1500 
 36 H       -1.9710     0.0660    -0.7960 H     1 <1>   0.1500 
 37 H        2.0730     0.5060    -3.3740 H     1 <1>   0.0800 
 38 H        3.4190     1.3400    -2.6220 H     1 <1>   0.0800 
 39 H        2.1510     3.3080    -2.7010 H     1 <1>   0.0800 
 40 H        0.8080     2.3970    -3.3630 H     1 <1>   0.0800 
 41 H       -3.5110     3.1300     2.7090 H     1 <1>   0.1500 
 42 H       -4.3240     0.6880    -0.6870 H     1 <1>   0.1500 
 43 H       -5.5930     3.1900     1.6950 H     1 <1>   0.3700 
 44 H       -8.9960     0.7470     1.2420 H     1 <1>   0.1500 
 45 H       -7.0590     4.4110     0.2870 H     1 <1>   0.1500 
 46 H      -11.1370     1.8990     1.3850 H     1 <1>   0.1500 
 47 H       -9.1770     5.5880     0.4280 H     1 <1>   0.1500 
 48 H      -11.5480     5.4830     1.4740 H     1 <1>   0.0800 
 49 H      -12.3840     3.9460     1.4800 H     1 <1>   0.0800 
 50 H      -11.3650     5.2930    -0.9270 H     1 <1>   0.4500 
 51 H      -13.1510     6.6230    -0.0780 H     1 <1>   0.0800 
 52 H      -14.1340     5.1960     0.1110 H     1 <1>   0.0800 
 53 H      -13.0250     2.8760    -0.6590 H     1 <1>   0.0800 
 54 H      -11.4060     2.9720    -1.2950 H     1 <1>   0.0800 
 55 H      -13.2140     6.3750    -2.5340 H     1 <1>   0.0800 
 56 H      -14.8460     6.2990    -1.9150 H     1 <1>   0.0800 
 57 H      -13.1910     2.8310    -3.0670 H     1 <1>   0.0800 
 58 H      -12.2070     4.2650    -3.2350 H     1 <1>   0.0800 
@<TRIPOS>BOND
  1   1   2  2   
  2   1   3  2   
  3   1   4  am  
  4   1   5  1   
  5   4   6  1   
  6   4   7  1   
  7   5   8  ar  
  8   5   9  ar  
  9   6  10  1   
 10   6  31  1   
 11   6  32  1   
 12   7  11  1   
 13   7  33  1   
 14   7  34  1   
 15   8  12  ar  
 16   8  35  1   
 17   9  13  ar  
 18   9  36  1   
 19  10  11  1   
 20  10  37  1   
 21  10  38  1   
 22  11  39  1   
 23  11  40  1   
 24  12  14  ar  
 25  12  41  1   
 26  13  14  ar  
 27  13  42  1   
 28  14  15  1   
 29  15  16  am  
 30  15  43  1   
 31  16  17  2   
 32  16  18  1   
 33  18  19  ar  
 34  18  20  ar  
 35  19  21  ar  
 36  19  44  1   
 37  20  22  ar  
 38  20  45  1   
 39  21  23  ar  
 40  21  46  1   
 41  22  23  ar  
 42  22  47  1   
 43  23  24  1   
 44  24  25  1   
 45  24  48  1   
 46  24  49  1   
 47  25  26  1   
 48  25  27  1   
 49  25  50  1   
 50  26  28  1   
 51  26  51  1   
 52  26  52  1   
 53  27  29  1   
 54  27  53  1   
 55  27  54  1   
 56  28  30  1   
 57  28  55  1   
 58  28  56  1   
 59  29  30  1   
 60  29  57  1   
 61  29  58  1   
@<TRIPOS>SUBSTRUCTURE
  1 ****  15 GROUP 4 **** **** 0

# MOE 2024.06 (io_trps.svl 2023.06)
