@<TRIPOS>MOLECULE
N-(4-Fluoro-phenyl)-N-(1-methyl-2-oxo-2-piperidin-1-yl-ethyl)-methanesulfonamide
43 44 1 0 0 
SMALL
USER_CHARGES


@<TRIPOS>ATOM
  1 S        0.9630     0.2620     0.3520 S.o2  1 <1>   1.3330 
  2 O        1.7760    -0.3520    -0.6710 O.2   1 <1>  -0.6500 
  3 O        1.5490     0.7210     1.5850 O.2   1 <1>  -0.6500 
  4 N        0.1460     1.5920    -0.3880 N.am  1 <1>  -0.6930 
  5 C       -0.3790    -0.8510     0.7140 C.3   1 <1>  -0.1350 
  6 C       -0.8840     2.2270     0.3030 C.ar  1 <1>   0.1990 
  7 C        0.9960     2.3910    -1.3320 C.3   1 <1>   0.3370 
  8 C       -0.6410     2.9590     1.4640 C.ar  1 <1>  -0.1500 
  9 C       -2.1920     2.1120    -0.1640 C.ar  1 <1>  -0.1500 
 10 C        1.9990     3.3490    -0.6260 C.2   1 <1>   0.5690 
 11 C        0.0940     3.1360    -2.3300 C.3   1 <1>  -0.2400 
 12 C       -1.6790     3.5650     2.1500 C.ar  1 <1>  -0.1500 
 13 C       -3.2410     2.7110     0.5100 C.ar  1 <1>  -0.1500 
 14 O        1.5510     4.3910    -0.1960 O.2   1 <1>  -0.5700 
 15 N        3.3490     3.0750    -0.5020 N.am  1 <1>  -0.6600 
 16 C       -2.9630     3.4280     1.6590 C.ar  1 <1>   0.1900 
 17 C        4.0860     1.9070    -1.0760 C.3   1 <1>   0.1400 
 18 C        4.2370     3.9930     0.2710 C.3   1 <1>   0.1400 
 19 F       -3.9510     3.9960     2.3030 F     1 <1>  -0.1900 
 20 C        4.7900     1.1220     0.0370 C.3   1 <1>  -0.1600 
 21 C        4.9150     3.2250     1.4090 C.3   1 <1>  -0.1600 
 22 C        5.7030     2.0200     0.8800 C.3   1 <1>  -0.1600 
 23 H        0.0020    -1.7530     1.1500 H     1 <1>   0.0800 
 24 H       -0.9070    -1.0980    -0.1850 H     1 <1>   0.0800 
 25 H       -1.0610    -0.3980     1.4060 H     1 <1>   0.0800 
 26 H        1.5520     1.7030    -1.9330 H     1 <1>   0.0800 
 27 H        0.3680     3.0570     1.8250 H     1 <1>   0.1500 
 28 H       -2.3780     1.5500    -1.0610 H     1 <1>   0.1500 
 29 H       -0.4900     3.8880    -1.8300 H     1 <1>   0.0800 
 30 H       -0.5570     2.4450    -2.8330 H     1 <1>   0.0800 
 31 H        0.7050     3.6280    -3.0650 H     1 <1>   0.0800 
 32 H       -1.4970     4.1340     3.0430 H     1 <1>   0.1500 
 33 H       -4.2540     2.6300     0.1580 H     1 <1>   0.1500 
 34 H        4.8240     2.2760    -1.7680 H     1 <1>   0.0800 
 35 H        3.4430     1.2440    -1.6170 H     1 <1>   0.0800 
 36 H        3.6800     4.8160     0.6870 H     1 <1>   0.0800 
 37 H        4.9810     4.4010    -0.3910 H     1 <1>   0.0800 
 38 H        5.3670     0.3270    -0.4010 H     1 <1>   0.0800 
 39 H        4.0480     0.6700     0.6700 H     1 <1>   0.0800 
 40 H        4.1580     2.8910     2.0980 H     1 <1>   0.0800 
 41 H        5.5760     3.8850     1.9410 H     1 <1>   0.0800 
 42 H        6.5250     2.3650     0.2770 H     1 <1>   0.0800 
 43 H        6.1050     1.4570     1.7050 H     1 <1>   0.0800 
@<TRIPOS>BOND
  1   1   2  2   
  2   1   3  2   
  3   1   4  am  
  4   1   5  1   
  5   4   6  1   
  6   4   7  1   
  7   5  23  1   
  8   5  24  1   
  9   5  25  1   
 10   6   8  ar  
 11   6   9  ar  
 12   7  10  1   
 13   7  11  1   
 14   7  26  1   
 15   8  12  ar  
 16   8  27  1   
 17   9  13  ar  
 18   9  28  1   
 19  10  14  2   
 20  10  15  am  
 21  11  29  1   
 22  11  30  1   
 23  11  31  1   
 24  12  16  ar  
 25  12  32  1   
 26  13  16  ar  
 27  13  33  1   
 28  15  17  1   
 29  15  18  1   
 30  16  19  1   
 31  17  20  1   
 32  17  34  1   
 33  17  35  1   
 34  18  21  1   
 35  18  36  1   
 36  18  37  1   
 37  20  22  1   
 38  20  38  1   
 39  20  39  1   
 40  21  22  1   
 41  21  40  1   
 42  21  41  1   
 43  22  42  1   
 44  22  43  1   
@<TRIPOS>SUBSTRUCTURE
  1 ****   4 GROUP 4 **** **** 0

# MOE 2024.06 (io_trps.svl 2023.06)
