@<TRIPOS>MOLECULE
2,3-Dihydro-benzo[1,4]dioxine-6-sulfonic acid (2-isopropyl-6-methyl-phenyl)-amid
45 47 1 0 0 
SMALL
USER_CHARGES


@<TRIPOS>ATOM
  1 S       -0.2340    -0.7110     0.7100 S.o2  1 <1>   1.4470 
  2 O       -0.0680    -1.1590    -0.6520 O.2   1 <1>  -0.6500 
  3 O       -0.4880    -1.6530     1.7740 O.2   1 <1>  -0.6500 
  4 N        1.2310     0.0280     1.2110 N.am  1 <1>  -0.7570 
  5 C       -1.4390     0.6420     0.8040 C.ar  1 <1>  -0.0090 
  6 C        2.4160    -0.0250     0.4860 C.ar  1 <1>   0.1990 
  7 C       -2.1760     1.0280    -0.3120 C.ar  1 <1>  -0.1500 
  8 C       -1.6580     1.3240     1.9990 C.ar  1 <1>  -0.1500 
  9 C        2.8960     1.0730    -0.2500 C.ar  1 <1>  -0.1440 
 10 C        3.1700    -1.2060     0.5300 C.ar  1 <1>  -0.1430 
 11 C       -3.0870     2.0660    -0.2430 C.ar  1 <1>   0.0830 
 12 C       -2.5640     2.3690     2.0800 C.ar  1 <1>  -0.1500 
 13 C        4.1000     0.9490    -0.9290 C.ar  1 <1>  -0.1500 
 14 C        2.1900     2.4330    -0.3850 C.3   1 <1>   0.0630 
 15 C        4.3670    -1.2940    -0.1570 C.ar  1 <1>  -0.1500 
 16 C        2.7120    -2.4350     1.3130 C.3   1 <1>  -0.0970 
 17 O       -3.7880     2.3980    -1.3550 O.3   1 <1>  -0.3620 
 18 C       -3.2750     2.7500     0.9580 C.ar  1 <1>   0.0830 
 19 C        4.8330    -0.2200    -0.8870 C.ar  1 <1>  -0.1500 
 20 C        1.7110     3.0470     0.9370 C.3   1 <1>  -0.2400 
 21 C        1.0640     2.3590    -1.4170 C.3   1 <1>  -0.2400 
 22 C       -4.9220     3.2250    -1.1760 C.3   1 <1>   0.1200 
 23 O       -4.1430     3.7880     1.0490 O.3   1 <1>  -0.3630 
 24 C       -4.6140     4.3400    -0.1670 C.3   1 <1>   0.1200 
 25 H        1.3540    -0.2270     2.1820 H     1 <1>   0.4200 
 26 H       -2.0410     0.5170    -1.2500 H     1 <1>   0.1500 
 27 H       -1.1120     1.0350     2.8800 H     1 <1>   0.1500 
 28 H       -2.7210     2.8920     3.0070 H     1 <1>   0.1500 
 29 H        4.4860     1.7690    -1.5080 H     1 <1>   0.1500 
 30 H        2.9090     3.1340    -0.7730 H     1 <1>   0.0800 
 31 H        4.9460    -2.2000    -0.1340 H     1 <1>   0.1500 
 32 H        2.4110    -2.1650     2.3080 H     1 <1>   0.0800 
 33 H        3.5020    -3.1590     1.3920 H     1 <1>   0.0800 
 34 H        1.8820    -2.8990     0.8100 H     1 <1>   0.0800 
 35 H        5.7640    -0.2940    -1.4220 H     1 <1>   0.1500 
 36 H        0.8300     2.5570     1.3010 H     1 <1>   0.0800 
 37 H        1.4740     4.0850     0.7920 H     1 <1>   0.0800 
 38 H        2.4860     2.9730     1.6780 H     1 <1>   0.0800 
 39 H        0.3390     1.6270    -1.1290 H     1 <1>   0.0800 
 40 H        1.4640     2.0700    -2.3730 H     1 <1>   0.0800 
 41 H        0.5780     3.3120    -1.5200 H     1 <1>   0.0800 
 42 H       -5.7310     2.6120    -0.8190 H     1 <1>   0.0800 
 43 H       -5.1870     3.6370    -2.1330 H     1 <1>   0.0800 
 44 H       -5.4960     4.9150     0.0510 H     1 <1>   0.0800 
 45 H       -3.8520     4.9940    -0.5540 H     1 <1>   0.0800 
@<TRIPOS>BOND
  1   1   2  2   
  2   1   3  2   
  3   1   4  am  
  4   1   5  1   
  5   4   6  1   
  6   4  25  1   
  7   5   7  ar  
  8   5   8  ar  
  9   6   9  ar  
 10   6  10  ar  
 11   7  11  ar  
 12   7  26  1   
 13   8  12  ar  
 14   8  27  1   
 15   9  13  ar  
 16   9  14  1   
 17  10  15  ar  
 18  10  16  1   
 19  11  17  1   
 20  11  18  ar  
 21  12  18  ar  
 22  12  28  1   
 23  13  19  ar  
 24  13  29  1   
 25  14  20  1   
 26  14  21  1   
 27  14  30  1   
 28  15  19  ar  
 29  15  31  1   
 30  16  32  1   
 31  16  33  1   
 32  16  34  1   
 33  17  22  1   
 34  18  23  1   
 35  19  35  1   
 36  20  36  1   
 37  20  37  1   
 38  20  38  1   
 39  21  39  1   
 40  21  40  1   
 41  21  41  1   
 42  22  24  1   
 43  22  42  1   
 44  22  43  1   
 45  23  24  1   
 46  24  44  1   
 47  24  45  1   
@<TRIPOS>SUBSTRUCTURE
  1 ****   5 GROUP 4 **** **** 0

# MOE 2024.06 (io_trps.svl 2023.06)
