@<TRIPOS>MOLECULE
N,N'-Diethyl-N''-ethynyl-N''-propyl-[1,3,5]triazine-2,4,6-triamine
38 38 1 0 0 
SMALL
USER_CHARGES


@<TRIPOS>ATOM
  1 N       -0.2320    -0.1190    -0.3970 N.ar  1 <1>  -0.6200 
  2 C       -1.3910     0.4880    -0.2780 C.ar  1 <1>   0.7200 
  3 C       -0.3030    -1.4190    -0.3290 C.ar  1 <1>   0.7200 
  4 N       -2.5380    -0.1220    -0.1020 N.ar  1 <1>  -0.6200 
  5 N       -1.3990     1.8790    -0.3430 N.pl3 1 <1>  -0.5330 
  6 N       -1.3710    -2.1380    -0.1570 N.ar  1 <1>  -0.6200 
  7 N        0.8420    -2.1300    -0.4360 N.pl3 1 <1>  -0.8690 
  8 C       -2.4500    -1.4220    -0.0480 C.ar  1 <1>   0.7200 
  9 C       -2.5680     2.6670    -0.1340 C.1   1 <1>   0.0640 
 10 C       -0.1680     2.6520    -0.6460 C.3   1 <1>   0.2090 
 11 C        2.1820    -1.5740    -0.1920 C.3   1 <1>   0.2090 
 12 N       -3.5860    -2.1350     0.1310 N.pl3 1 <1>  -0.8690 
 13 C       -3.5390     3.3300     0.0410 C.1   1 <1>  -0.1770 
 14 C        0.5800     2.9790     0.6510 C.3   1 <1>  -0.1600 
 15 C        3.2040    -2.6880    -0.3690 C.3   1 <1>  -0.2400 
 16 C       -4.9380    -1.5950    -0.0780 C.3   1 <1>   0.2090 
 17 C        1.8590     3.7800     0.3780 C.3   1 <1>  -0.2400 
 18 C       -5.9470    -2.6870     0.2510 C.3   1 <1>  -0.2400 
 19 H        0.7170    -3.1150    -0.2120 H     1 <1>   0.4000 
 20 H       -0.4380     3.5640    -1.1500 H     1 <1>   0.0800 
 21 H        0.4670     2.0910    -1.3110 H     1 <1>   0.0800 
 22 H        2.2300    -1.1740     0.8070 H     1 <1>   0.0800 
 23 H        2.3730    -0.7780    -0.8940 H     1 <1>   0.0800 
 24 H       -3.4630    -3.1330    -0.0220 H     1 <1>   0.4000 
 25 H       -4.4210     3.9200     0.2020 H     1 <1>   0.1770 
 26 H        0.8390     2.0610     1.1510 H     1 <1>   0.0800 
 27 H       -0.0640     3.5480     1.2980 H     1 <1>   0.0800 
 28 H        3.0290    -3.4740     0.3440 H     1 <1>   0.0800 
 29 H        4.1920    -2.2980    -0.2110 H     1 <1>   0.0800 
 30 H        3.1490    -3.0850    -1.3670 H     1 <1>   0.0800 
 31 H       -5.0450    -1.2780    -1.1020 H     1 <1>   0.0800 
 32 H       -5.0870    -0.7430     0.5650 H     1 <1>   0.0800 
 33 H        2.5270     3.2190    -0.2520 H     1 <1>   0.0800 
 34 H        2.3620     3.9920     1.3050 H     1 <1>   0.0800 
 35 H        1.6240     4.7120    -0.1040 H     1 <1>   0.0800 
 36 H       -5.8140    -3.5290    -0.4040 H     1 <1>   0.0800 
 37 H       -6.9430    -2.3060     0.1200 H     1 <1>   0.0800 
 38 H       -5.8320    -3.0000     1.2730 H     1 <1>   0.0800 
@<TRIPOS>BOND
  1   1   2  ar  
  2   1   3  ar  
  3   2   4  ar  
  4   2   5  1   
  5   3   6  ar  
  6   3   7  1   
  7   4   8  ar  
  8   5   9  1   
  9   5  10  1   
 10   6   8  ar  
 11   7  11  1   
 12   7  19  1   
 13   8  12  1   
 14   9  13  3   
 15  10  14  1   
 16  10  20  1   
 17  10  21  1   
 18  11  15  1   
 19  11  22  1   
 20  11  23  1   
 21  12  16  1   
 22  12  24  1   
 23  13  25  1   
 24  14  17  1   
 25  14  26  1   
 26  14  27  1   
 27  15  28  1   
 28  15  29  1   
 29  15  30  1   
 30  16  18  1   
 31  16  31  1   
 32  16  32  1   
 33  17  33  1   
 34  17  34  1   
 35  17  35  1   
 36  18  36  1   
 37  18  37  1   
 38  18  38  1   
@<TRIPOS>SUBSTRUCTURE
  1 ****   2 GROUP 4 **** **** 0

# MOE 2024.06 (io_trps.svl 2023.06)
