@<TRIPOS>MOLECULE
8-Ethyl-1,7-dimethyl-3-(3-phenyl-propyl)-1H,8H-imidazo[2,1-f]purine-2,4-dione
51 54 1 0 0 
SMALL
USER_CHARGES


@<TRIPOS>ATOM
  1 O        0.4330    -0.0380     2.2770 O.2   1 <1>  -0.5740 
  2 C        1.2940     0.6370     1.7520 C.2   1 <1>   0.6860 
  3 N        1.0050     1.9240     1.3100 N.am  1 <1>  -0.4250 
  4 N        2.5740     0.1140     1.5920 N.am  1 <1>  -0.4410 
  5 C        1.9710     2.7080     0.6930 C.2   1 <1>   0.7000 
  6 C       -0.3840     2.4540     1.4540 C.3   1 <1>   0.1330 
  7 C        3.5200     0.8890     0.9530 C.2   1 <1>   0.4210 
  8 C        2.8930    -1.2650     2.0700 C.3   1 <1>   0.0520 
  9 O        1.7220     3.8440     0.3220 O.2   1 <1>  -0.5740 
 10 C        3.2660     2.1430     0.5090 C.2   1 <1>   0.2710 
 11 C       -1.2020     2.1160     0.2050 C.3   1 <1>  -0.1670 
 12 N        4.8150     0.5630     0.6620 N.pl3 1 <1>  -0.7030 
 13 N        4.4570     2.6010    -0.0720 N.pl3 1 <1>  -0.6330 
 14 C       -2.6470     2.6100     0.3340 C.3   1 <1>  -0.0240 
 15 C        5.3490     1.6250     0.0420 C.cat 1 <1>   1.0690 
 16 C        5.0790     3.6490    -0.7170 C.2   1 <1>   0.2220 
 17 C       -3.4300     2.2730    -0.9230 C.ar  1 <1>  -0.1510 
 18 N        6.5320     1.9730    -0.4950 N.pl3 1 <1>  -0.5720 
 19 C        6.3490     3.2650    -0.9750 C.2   1 <1>   0.1580 
 20 C       -4.0050     1.0200    -1.0700 C.ar  1 <1>  -0.1570 
 21 C       -3.5720     3.2090    -1.9360 C.ar  1 <1>  -0.1570 
 22 C        7.8140     1.2210    -0.6030 C.3   1 <1>   0.1610 
 23 C        7.4530     4.0450    -1.6660 C.3   1 <1>  -0.1090 
 24 C       -4.7150     0.7060    -2.2160 C.ar  1 <1>  -0.1570 
 25 C       -4.2820     2.8970    -3.0820 C.ar  1 <1>  -0.1570 
 26 C        7.7440    -0.1810    -0.0010 C.3   1 <1>  -0.2460 
 27 C       -4.8550     1.6450    -3.2230 C.ar  1 <1>  -0.1570 
 28 H       -0.3590     3.5210     1.5970 H     1 <1>   0.0720 
 29 H       -0.8530     2.0240     2.3240 H     1 <1>   0.0720 
 30 H        2.7310    -1.9710     1.2740 H     1 <1>   0.0720 
 31 H        2.2580    -1.5320     2.8980 H     1 <1>   0.0720 
 32 H        3.9140    -1.3240     2.4030 H     1 <1>   0.0720 
 33 H       -1.2150     1.0500     0.0580 H     1 <1>   0.0720 
 34 H       -0.7560     2.5790    -0.6590 H     1 <1>   0.0720 
 35 H        5.3120    -0.3040     0.8520 H     1 <1>   0.4450 
 36 H       -2.6590     3.6750     0.4910 H     1 <1>   0.0720 
 37 H       -3.1200     2.1470     1.1820 H     1 <1>   0.0720 
 38 H        4.5730     4.5770    -0.9390 H     1 <1>   0.1430 
 39 H       -3.9000     0.2840    -0.2930 H     1 <1>   0.1430 
 40 H       -3.1290     4.1840    -1.8380 H     1 <1>   0.1430 
 41 H        8.5880     1.7800    -0.1030 H     1 <1>   0.0720 
 42 H        8.0840     1.1420    -1.6440 H     1 <1>   0.0720 
 43 H        8.2910     4.1720    -1.0040 H     1 <1>   0.0720 
 44 H        7.0990     5.0180    -1.9570 H     1 <1>   0.0720 
 45 H        7.7810     3.5250    -2.5490 H     1 <1>   0.0720 
 46 H       -5.1580    -0.2680    -2.3230 H     1 <1>   0.1430 
 47 H       -4.3890     3.6280    -3.8640 H     1 <1>   0.1430 
 48 H        7.5350    -0.1390     1.0540 H     1 <1>   0.0720 
 49 H        8.7020    -0.6560    -0.1200 H     1 <1>   0.0720 
 50 H        7.0190    -0.7870    -0.5150 H     1 <1>   0.0720 
 51 H       -5.4070     1.4020    -4.1140 H     1 <1>   0.1430 
@<TRIPOS>BOND
  1   1   2  2   
  2   2   3  am  
  3   2   4  am  
  4   3   5  am  
  5   3   6  1   
  6   4   7  1   
  7   4   8  1   
  8   5   9  2   
  9   5  10  1   
 10   6  11  1   
 11   6  28  1   
 12   6  29  1   
 13   7  10  2   
 14   7  12  1   
 15   8  30  1   
 16   8  31  1   
 17   8  32  1   
 18  10  13  1   
 19  11  14  1   
 20  11  33  1   
 21  11  34  1   
 22  12  15  ar  
 23  12  35  1   
 24  13  15  ar  
 25  13  16  1   
 26  14  17  1   
 27  14  36  1   
 28  14  37  1   
 29  15  18  ar  
 30  16  19  2   
 31  16  38  1   
 32  17  20  ar  
 33  17  21  ar  
 34  18  19  1   
 35  18  22  1   
 36  19  23  1   
 37  20  24  ar  
 38  20  39  1   
 39  21  25  ar  
 40  21  40  1   
 41  22  26  1   
 42  22  41  1   
 43  22  42  1   
 44  23  43  1   
 45  23  44  1   
 46  23  45  1   
 47  24  27  ar  
 48  24  46  1   
 49  25  27  ar  
 50  25  47  1   
 51  26  48  1   
 52  26  49  1   
 53  26  50  1   
 54  27  51  1   
@<TRIPOS>SUBSTRUCTURE
  1 ****   5 GROUP 4 **** **** 0

# MOE 2024.06 (io_trps.svl 2023.06)
