@<TRIPOS>MOLECULE
N-{4-[2-Hydroxy-3-(2-propyl-benzoimidazol-1-yl)-propoxy]-phenyl}-acetamide
52 54 1 0 0 
SMALL
USER_CHARGES


@<TRIPOS>ATOM
  1 O       -0.9570     0.5320    -0.3840 O.2   1 <1>  -0.5700 
  2 C       -0.3010    -0.1900     0.3230 C.2   1 <1>   0.5690 
  3 N       -0.7840    -1.3090     0.9390 N.am  1 <1>  -0.5470 
  4 C        1.1460     0.1590     0.5630 C.3   1 <1>  -0.1790 
  5 C       -2.0610    -1.8910     0.9010 C.ar  1 <1>   0.1170 
  6 C       -2.9370    -1.7130    -0.1660 C.ar  1 <1>  -0.1500 
  7 C       -2.4660    -2.6920     1.9630 C.ar  1 <1>  -0.1500 
  8 C       -4.1880    -2.3030    -0.1660 C.ar  1 <1>  -0.1500 
  9 C       -3.7160    -3.2850     1.9680 C.ar  1 <1>  -0.1500 
 10 C       -4.5870    -3.0850     0.9110 C.ar  1 <1>   0.0820 
 11 O       -5.8050    -3.6810     0.9840 O.3   1 <1>  -0.3630 
 12 C       -6.9480    -3.0290     0.4520 C.3   1 <1>   0.1200 
 13 C       -7.4930    -3.8060    -0.7620 C.3   1 <1>   0.2000 
 14 O       -6.4380    -4.2030    -1.5670 O.3   1 <1>  -0.6800 
 15 C       -8.4580    -2.9960    -1.6350 C.3   1 <1>   0.0960 
 16 N       -9.5130    -2.3650    -0.8140 N.pl3 1 <1>   0.0480 
 17 C      -10.4650    -3.0380    -0.1120 C.ar  1 <1>  -0.1520 
 18 C       -9.6310    -1.0600    -0.4290 C.2   1 <1>   0.0060 
 19 C      -11.0890    -2.0860     0.6710 C.ar  1 <1>   0.2270 
 20 C      -10.8600    -4.3790    -0.0650 C.ar  1 <1>  -0.1500 
 21 N      -10.5440    -0.8600     0.4550 N.2   1 <1>  -0.5650 
 22 C       -8.7710     0.0720    -0.9780 C.3   1 <1>   0.0200 
 23 C      -12.1210    -2.4550     1.5310 C.ar  1 <1>  -0.1500 
 24 C      -11.8810    -4.7350     0.7880 C.ar  1 <1>  -0.1500 
 25 C       -9.1220     0.4450    -2.4290 C.3   1 <1>  -0.1600 
 26 C      -12.5120    -3.7740     1.5880 C.ar  1 <1>  -0.1500 
 27 C      -10.5720     0.9250    -2.5760 C.3   1 <1>  -0.2400 
 28 H       -0.1260    -1.7740     1.5600 H     1 <1>   0.3700 
 29 H        1.3010     0.3750     1.6030 H     1 <1>   0.0800 
 30 H        1.4080     1.0280    -0.0140 H     1 <1>   0.0800 
 31 H        1.7750    -0.6580     0.2630 H     1 <1>   0.0800 
 32 H       -2.6420    -1.1130    -1.0070 H     1 <1>   0.1500 
 33 H       -1.8050    -2.8510     2.7940 H     1 <1>   0.1500 
 34 H       -4.8320    -2.1510    -1.0120 H     1 <1>   0.1500 
 35 H       -4.0250    -3.9000     2.7940 H     1 <1>   0.1500 
 36 H       -6.7050    -2.0140     0.1960 H     1 <1>   0.0800 
 37 H       -7.6940    -3.0000     1.2270 H     1 <1>   0.0800 
 38 H       -7.9820    -4.7000    -0.4130 H     1 <1>   0.0800 
 39 H       -5.7130    -4.5240    -0.9860 H     1 <1>   0.4000 
 40 H       -8.9250    -3.6420    -2.3560 H     1 <1>   0.0800 
 41 H       -7.9120    -2.2340    -2.1570 H     1 <1>   0.0800 
 42 H      -10.3790    -5.1140    -0.6850 H     1 <1>   0.1500 
 43 H       -7.7330    -0.1980    -0.9160 H     1 <1>   0.0800 
 44 H       -8.9100     0.9380    -0.3540 H     1 <1>   0.0800 
 45 H      -12.5870    -1.6940     2.1290 H     1 <1>   0.1500 
 46 H      -12.2070    -5.7590     0.8470 H     1 <1>   0.1500 
 47 H       -8.9660    -0.4000    -3.0750 H     1 <1>   0.0800 
 48 H       -8.4620     1.2310    -2.7530 H     1 <1>   0.0800 
 49 H      -13.3080    -4.0760     2.2460 H     1 <1>   0.1500 
 50 H      -11.2600     0.1420    -2.3080 H     1 <1>   0.0800 
 51 H      -10.7660     1.2150    -3.5930 H     1 <1>   0.0800 
 52 H      -10.7550     1.7700    -1.9360 H     1 <1>   0.0800 
@<TRIPOS>BOND
  1   1   2  2   
  2   2   3  am  
  3   2   4  1   
  4   3   5  1   
  5   3  28  1   
  6   4  29  1   
  7   4  30  1   
  8   4  31  1   
  9   5   6  ar  
 10   5   7  ar  
 11   6   8  ar  
 12   6  32  1   
 13   7   9  ar  
 14   7  33  1   
 15   8  10  ar  
 16   8  34  1   
 17   9  10  ar  
 18   9  35  1   
 19  10  11  1   
 20  11  12  1   
 21  12  13  1   
 22  12  36  1   
 23  12  37  1   
 24  13  14  1   
 25  13  15  1   
 26  13  38  1   
 27  14  39  1   
 28  15  16  1   
 29  15  40  1   
 30  15  41  1   
 31  16  17  1   
 32  16  18  1   
 33  17  19  ar  
 34  17  20  ar  
 35  18  21  2   
 36  18  22  1   
 37  19  21  1   
 38  19  23  ar  
 39  20  24  ar  
 40  20  42  1   
 41  22  25  1   
 42  22  43  1   
 43  22  44  1   
 44  23  26  ar  
 45  23  45  1   
 46  24  26  ar  
 47  24  46  1   
 48  25  27  1   
 49  25  47  1   
 50  25  48  1   
 51  26  49  1   
 52  27  50  1   
 53  27  51  1   
 54  27  52  1   
@<TRIPOS>SUBSTRUCTURE
  1 ****  12 GROUP 4 **** **** 0

# MOE 2024.06 (io_trps.svl 2023.06)
