@<TRIPOS>MOLECULE
4-Ethoxy-3-methoxy-N-(4-phenyl-tetrahydro-pyran-4-ylmethyl)-benzamide
54 56 1 0 0 
SMALL
USER_CHARGES


@<TRIPOS>ATOM
  1 O       -0.6330     0.6800     1.3190 O.2   1 <1>  -0.5700 
  2 C       -0.4610     1.5790     0.5200 C.2   1 <1>   0.5440 
  3 N       -1.5420     2.0470    -0.1770 N.am  1 <1>  -0.7300 
  4 C        0.8580     2.1500     0.3160 C.ar  1 <1>   0.0860 
  5 C       -2.9200     1.4840    -0.1000 C.3   1 <1>   0.1400 
  6 C        1.0330     3.4700    -0.1050 C.ar  1 <1>  -0.1500 
  7 C        2.0100     1.3950     0.5460 C.ar  1 <1>  -0.1500 
  8 C       -3.9570     2.3130     0.7060 C.3   1 <1>   0.1430 
  9 C        2.2900     4.0100    -0.3030 C.ar  1 <1>   0.0830 
 10 C        3.2740     1.9180     0.3390 C.ar  1 <1>  -0.1500 
 11 C       -5.2670     1.4880     0.6060 C.ar  1 <1>  -0.1440 
 12 C       -3.5560     2.4650     2.1970 C.3   1 <1>  -0.1600 
 13 C       -4.1510     3.7360     0.1170 C.3   1 <1>  -0.1600 
 14 O        2.3520     5.3100    -0.6780 O.3   1 <1>  -0.3630 
 15 C        3.4280     3.2200    -0.1050 C.ar  1 <1>   0.0830 
 16 C       -5.4330     0.3500     1.3920 C.ar  1 <1>  -0.1500 
 17 C       -6.2960     1.8130    -0.2770 C.ar  1 <1>  -0.1500 
 18 C       -2.5510     3.5870     2.4850 C.3   1 <1>   0.1200 
 19 C       -3.0850     4.7530     0.5370 C.3   1 <1>   0.1200 
 20 C        2.9240     6.2040     0.2530 C.3   1 <1>   0.0400 
 21 O        4.6870     3.6600    -0.3230 O.3   1 <1>  -0.3630 
 22 C       -6.5830    -0.4170     1.3180 C.ar  1 <1>  -0.1500 
 23 C       -7.4470     1.0490    -0.3530 C.ar  1 <1>  -0.1500 
 24 O       -2.9970     4.7770     1.9210 O.3   1 <1>  -0.5600 
 25 C        5.0260     4.0290    -1.6410 C.3   1 <1>   0.1200 
 26 C       -7.5940    -0.0680     0.4460 C.ar  1 <1>  -0.1500 
 27 C        6.5200     4.3360    -1.6760 C.3   1 <1>  -0.2400 
 28 H       -1.3910     2.7340    -0.9160 H     1 <1>   0.3700 
 29 H       -2.8650     0.4990     0.3320 H     1 <1>   0.0800 
 30 H       -3.2870     1.3560    -1.1030 H     1 <1>   0.0800 
 31 H        0.1810     4.1020    -0.2670 H     1 <1>   0.1500 
 32 H        1.9060     0.3800     0.8900 H     1 <1>   0.1500 
 33 H        4.1490     1.3180     0.5160 H     1 <1>   0.1500 
 34 H       -3.1370     1.5480     2.5660 H     1 <1>   0.0800 
 35 H       -4.4390     2.6750     2.7750 H     1 <1>   0.0800 
 36 H       -5.0910     4.1300     0.4620 H     1 <1>   0.0800 
 37 H       -4.1860     3.6920    -0.9560 H     1 <1>   0.0800 
 38 H       -4.6660     0.0340     2.0750 H     1 <1>   0.1500 
 39 H       -6.2310     2.6640    -0.9290 H     1 <1>   0.1500 
 40 H       -1.5740     3.3650     2.0980 H     1 <1>   0.0800 
 41 H       -2.4660     3.7420     3.5470 H     1 <1>   0.0800 
 42 H       -3.3670     5.7410     0.2140 H     1 <1>   0.0800 
 43 H       -2.1170     4.5250     0.1330 H     1 <1>   0.0800 
 44 H        2.8280     7.2020    -0.1350 H     1 <1>   0.0800 
 45 H        3.9640     5.9630     0.3880 H     1 <1>   0.0800 
 46 H        2.3980     6.1180     1.1870 H     1 <1>   0.0800 
 47 H       -6.6870    -1.2890     1.9410 H     1 <1>   0.1500 
 48 H       -8.2300     1.3230    -1.0380 H     1 <1>   0.1500 
 49 H        4.4540     4.8940    -1.9230 H     1 <1>   0.0800 
 50 H        4.7870     3.2070    -2.2950 H     1 <1>   0.0800 
 51 H       -8.4900    -0.6620     0.3880 H     1 <1>   0.1500 
 52 H        6.7450     5.1500    -1.0100 H     1 <1>   0.0800 
 53 H        6.8100     4.6170    -2.6720 H     1 <1>   0.0800 
 54 H        7.0820     3.4670    -1.3860 H     1 <1>   0.0800 
@<TRIPOS>BOND
  1   1   2  2   
  2   2   3  am  
  3   2   4  1   
  4   3   5  1   
  5   3  28  1   
  6   4   6  ar  
  7   4   7  ar  
  8   5   8  1   
  9   5  29  1   
 10   5  30  1   
 11   6   9  ar  
 12   6  31  1   
 13   7  10  ar  
 14   7  32  1   
 15   8  11  1   
 16   8  12  1   
 17   8  13  1   
 18   9  14  1   
 19   9  15  ar  
 20  10  15  ar  
 21  10  33  1   
 22  11  16  ar  
 23  11  17  ar  
 24  12  18  1   
 25  12  34  1   
 26  12  35  1   
 27  13  19  1   
 28  13  36  1   
 29  13  37  1   
 30  14  20  1   
 31  15  21  1   
 32  16  22  ar  
 33  16  38  1   
 34  17  23  ar  
 35  17  39  1   
 36  18  24  1   
 37  18  40  1   
 38  18  41  1   
 39  19  24  1   
 40  19  42  1   
 41  19  43  1   
 42  20  44  1   
 43  20  45  1   
 44  20  46  1   
 45  21  25  1   
 46  22  26  ar  
 47  22  47  1   
 48  23  26  ar  
 49  23  48  1   
 50  25  27  1   
 51  25  49  1   
 52  25  50  1   
 53  26  51  1   
 54  27  52  1   
 55  27  53  1   
 56  27  54  1   
@<TRIPOS>SUBSTRUCTURE
  1 ****   3 GROUP 4 **** **** 0

# MOE 2024.06 (io_trps.svl 2023.06)
