@<TRIPOS>MOLECULE
3-[3-(4-tert-Butyl-phenyl)-[1,2,4]oxadiazol-5-yl]-N-propyl-propionamide
48 49 1 0 0 
SMALL
USER_CHARGES


@<TRIPOS>ATOM
  1 O        0.3540    -0.2880     1.1930 O.2   1 <1>  -0.5700 
  2 C        0.7530    -1.3900     0.9190 C.2   1 <1>   0.5690 
  3 N        1.9930    -1.5390     0.4000 N.am  1 <1>  -0.7300 
  4 C       -0.1340    -2.5980     1.1590 C.3   1 <1>  -0.0990 
  5 C        2.7080    -2.7760     0.0210 C.3   1 <1>   0.1400 
  6 C       -1.5870    -2.2210     1.4880 C.3   1 <1>   0.0200 
  7 C        2.7190    -2.8970    -1.5030 C.3   1 <1>  -0.1600 
  8 C       -2.4350    -3.4610     1.6910 C.2   1 <1>   0.2980 
  9 C        3.4370    -4.1730    -1.9550 C.3   1 <1>  -0.2400 
 10 O       -2.2530    -4.1760     2.7700 O.3   1 <1>  -0.0190 
 11 N       -3.3210    -3.8900     0.8940 N.2   1 <1>  -0.5650 
 12 N       -3.0980    -5.1500     2.6470 N.2   1 <1>  -0.4100 
 13 C       -3.7350    -4.9850     1.5410 C.2   1 <1>   0.4620 
 14 C       -4.7770    -5.8570     1.0230 C.ar  1 <1>   0.0540 
 15 C       -5.1820    -6.9960     1.7160 C.ar  1 <1>  -0.1500 
 16 C       -5.4200    -5.6010    -0.1860 C.ar  1 <1>  -0.1500 
 17 C       -6.1710    -7.8300     1.2280 C.ar  1 <1>  -0.1500 
 18 C       -6.4100    -6.4330    -0.6770 C.ar  1 <1>  -0.1500 
 19 C       -6.8090    -7.5690     0.0210 C.ar  1 <1>  -0.1430 
 20 C       -7.9080    -8.5300    -0.4840 C.3   1 <1>   0.1430 
 21 C       -8.5130    -8.1020    -1.8320 C.3   1 <1>  -0.2400 
 22 C       -9.0510    -8.5850     0.5410 C.3   1 <1>  -0.2400 
 23 C       -7.3170    -9.9360    -0.6670 C.3   1 <1>  -0.2400 
 24 H        2.5030    -0.6660     0.2460 H     1 <1>   0.3700 
 25 H        0.2800    -3.1660     1.9710 H     1 <1>   0.0800 
 26 H       -0.1300    -3.2100     0.2760 H     1 <1>   0.0800 
 27 H        2.2300    -3.6360     0.4570 H     1 <1>   0.0800 
 28 H        3.7180    -2.7280     0.3940 H     1 <1>   0.0800 
 29 H       -2.0000    -1.6420     0.6800 H     1 <1>   0.0800 
 30 H       -1.6230    -1.6220     2.3800 H     1 <1>   0.0800 
 31 H        3.2170    -2.0430    -1.9270 H     1 <1>   0.0800 
 32 H        1.7060    -2.9170    -1.8670 H     1 <1>   0.0800 
 33 H        4.4590    -4.1710    -1.6190 H     1 <1>   0.0800 
 34 H        3.4330    -4.2350    -3.0300 H     1 <1>   0.0800 
 35 H        2.9440    -5.0450    -1.5630 H     1 <1>   0.0800 
 36 H       -4.7140    -7.2360     2.6550 H     1 <1>   0.1500 
 37 H       -5.1410    -4.7320    -0.7560 H     1 <1>   0.1500 
 38 H       -6.4400    -8.6940     1.8070 H     1 <1>   0.1500 
 39 H       -6.8580    -6.1680    -1.6160 H     1 <1>   0.1500 
 40 H       -7.7550    -8.0730    -2.5940 H     1 <1>   0.0800 
 41 H       -8.9660    -7.1300    -1.7500 H     1 <1>   0.0800 
 42 H       -9.2720    -8.7970    -2.1440 H     1 <1>   0.0800 
 43 H       -9.4470    -7.5980     0.7020 H     1 <1>   0.0800 
 44 H       -8.7080    -8.9680     1.4840 H     1 <1>   0.0800 
 45 H       -9.8450    -9.2210     0.1910 H     1 <1>   0.0800 
 46 H       -6.4920    -9.9000    -1.3560 H     1 <1>   0.0800 
 47 H       -8.0580   -10.6120    -1.0530 H     1 <1>   0.0800 
 48 H       -6.9590   -10.3300     0.2660 H     1 <1>   0.0800 
@<TRIPOS>BOND
  1   1   2  2   
  2   2   3  am  
  3   2   4  1   
  4   3   5  1   
  5   3  24  1   
  6   4   6  1   
  7   4  25  1   
  8   4  26  1   
  9   5   7  1   
 10   5  27  1   
 11   5  28  1   
 12   6   8  1   
 13   6  29  1   
 14   6  30  1   
 15   7   9  1   
 16   7  31  1   
 17   7  32  1   
 18   8  10  1   
 19   8  11  2   
 20   9  33  1   
 21   9  34  1   
 22   9  35  1   
 23  10  12  1   
 24  11  13  1   
 25  12  13  2   
 26  13  14  1   
 27  14  15  ar  
 28  14  16  ar  
 29  15  17  ar  
 30  15  36  1   
 31  16  18  ar  
 32  16  37  1   
 33  17  19  ar  
 34  17  38  1   
 35  18  19  ar  
 36  18  39  1   
 37  19  20  1   
 38  20  21  1   
 39  20  22  1   
 40  20  23  1   
 41  21  40  1   
 42  21  41  1   
 43  21  42  1   
 44  22  43  1   
 45  22  44  1   
 46  22  45  1   
 47  23  46  1   
 48  23  47  1   
 49  23  48  1   
@<TRIPOS>SUBSTRUCTURE
  1 ****  13 GROUP 4 **** **** 0

# MOE 2024.06 (io_trps.svl 2023.06)
