@<TRIPOS>MOLECULE
Pyrrolidin-1-yl-[4-(toluene-4-sulfonyl)-piperazin-1-yl]-methanone
46 48 1 0 0 
SMALL
USER_CHARGES


@<TRIPOS>ATOM
  1 S       -0.0800    -0.0590     1.7780 S.o2  1 <1>   1.4470 
  2 O        0.2140    -0.9610     2.8710 O.2   1 <1>  -0.6500 
  3 O       -0.6000     1.2600     2.0690 O.2   1 <1>  -0.6500 
  4 N       -1.2300    -0.8360     0.8070 N.am  1 <1>  -0.8490 
  5 C        1.3670     0.0580     0.6890 C.ar  1 <1>  -0.0090 
  6 C       -1.7000     0.0210    -0.2990 C.3   1 <1>   0.1960 
  7 C       -2.3840    -1.2790     1.6060 C.3   1 <1>   0.1960 
  8 C        2.0090    -1.0860     0.2330 C.ar  1 <1>  -0.1500 
  9 C        1.8600     1.2880     0.2700 C.ar  1 <1>  -0.1500 
 10 C       -2.6740    -0.7370    -1.2160 C.3   1 <1>   0.1400 
 11 C       -3.4070    -2.0590     0.7600 C.3   1 <1>   0.1400 
 12 C        3.1030    -1.0090    -0.6120 C.ar  1 <1>  -0.1500 
 13 C        2.9530     1.3740    -0.5760 C.ar  1 <1>  -0.1500 
 14 N       -3.8270    -1.2730    -0.4360 N.am  1 <1>  -0.6600 
 15 C        3.5790     0.2240    -1.0230 C.ar  1 <1>  -0.1430 
 16 C       -5.0180    -0.5980    -0.4280 C.2   1 <1>   0.6900 
 17 C        4.7810     0.3120    -1.9480 C.3   1 <1>  -0.0960 
 18 O       -5.0310     0.5940    -0.6850 O.2   1 <1>  -0.5700 
 19 N       -6.1820    -1.2550    -0.1240 N.am  1 <1>  -0.6600 
 20 C       -6.4060    -2.6710    -0.4930 C.3   1 <1>   0.1400 
 21 C       -7.4740    -0.5390    -0.0010 C.3   1 <1>   0.1400 
 22 C       -7.9130    -2.8780    -0.3910 C.3   1 <1>  -0.1600 
 23 C       -8.5080    -1.4890    -0.5920 C.3   1 <1>  -0.1600 
 24 H       -0.8610     0.3490    -0.8880 H     1 <1>   0.0800 
 25 H       -2.1980     0.8950     0.0890 H     1 <1>   0.0800 
 26 H       -2.8710    -0.4260     2.0510 H     1 <1>   0.0800 
 27 H       -2.0470    -1.9190     2.4050 H     1 <1>   0.0800 
 28 H        1.6460    -2.0510     0.5460 H     1 <1>   0.1500 
 29 H        1.3840     2.1930     0.6100 H     1 <1>   0.1500 
 30 H       -2.1570    -1.5520    -1.6910 H     1 <1>   0.0800 
 31 H       -3.0280    -0.0750    -1.9880 H     1 <1>   0.0800 
 32 H       -4.2610    -2.2840     1.3740 H     1 <1>   0.0800 
 33 H       -2.9700    -2.9880     0.4380 H     1 <1>   0.0800 
 34 H        3.5820    -1.9130    -0.9470 H     1 <1>   0.1500 
 35 H        3.3140     2.3400    -0.8820 H     1 <1>   0.1500 
 36 H        4.8100    -0.5360    -2.6080 H     1 <1>   0.0800 
 37 H        5.6850     0.3310    -1.3670 H     1 <1>   0.0800 
 38 H        4.7330     1.2050    -2.5450 H     1 <1>   0.0800 
 39 H       -5.8780    -3.3340     0.1690 H     1 <1>   0.0800 
 40 H       -6.0710    -2.8270    -1.5050 H     1 <1>   0.0800 
 41 H       -7.4620     0.4000    -0.5280 H     1 <1>   0.0800 
 42 H       -7.6740    -0.3620     1.0410 H     1 <1>   0.0800 
 43 H       -8.1500    -3.2370     0.5960 H     1 <1>   0.0800 
 44 H       -8.2690    -3.5870    -1.1170 H     1 <1>   0.0800 
 45 H       -8.6070    -1.2820    -1.6440 H     1 <1>   0.0800 
 46 H       -9.4680    -1.3780    -0.1210 H     1 <1>   0.0800 
@<TRIPOS>BOND
  1   1   2  2   
  2   1   3  2   
  3   1   4  am  
  4   1   5  1   
  5   4   6  1   
  6   4   7  1   
  7   5   8  ar  
  8   5   9  ar  
  9   6  10  1   
 10   6  24  1   
 11   6  25  1   
 12   7  11  1   
 13   7  26  1   
 14   7  27  1   
 15   8  12  ar  
 16   8  28  1   
 17   9  13  ar  
 18   9  29  1   
 19  10  14  1   
 20  10  30  1   
 21  10  31  1   
 22  11  14  1   
 23  11  32  1   
 24  11  33  1   
 25  12  15  ar  
 26  12  34  1   
 27  13  15  ar  
 28  13  35  1   
 29  14  16  am  
 30  15  17  1   
 31  16  18  2   
 32  16  19  am  
 33  17  36  1   
 34  17  37  1   
 35  17  38  1   
 36  19  20  1   
 37  19  21  1   
 38  20  22  1   
 39  20  39  1   
 40  20  40  1   
 41  21  23  1   
 42  21  41  1   
 43  21  42  1   
 44  22  23  1   
 45  22  43  1   
 46  22  44  1   
 47  23  45  1   
 48  23  46  1   
@<TRIPOS>SUBSTRUCTURE
  1 ****   6 GROUP 4 **** **** 0

# MOE 2024.06 (io_trps.svl 2023.06)
