@<TRIPOS>MOLECULE
N-[2-(4-Ethyl-piperazin-1-yl)-2-oxo-ethyl]-N-(4-methoxy-phenyl)-methanesulfonami
50 51 1 0 0 
SMALL
USER_CHARGES


@<TRIPOS>ATOM
  1 S        0.7360     1.4380    -1.6780 S.o2  1 <1>   1.3330 
  2 O        1.2810     0.7700    -0.5200 O.2   1 <1>  -0.6500 
  3 O        1.6310     1.8400    -2.7370 O.2   1 <1>  -0.6500 
  4 N       -0.0280     2.8870    -1.1340 N.am  1 <1>  -0.6930 
  5 C       -0.6110     0.5050    -2.3750 C.3   1 <1>  -0.1350 
  6 C       -1.1670     2.8320    -0.3380 C.ar  1 <1>   0.1990 
  7 C        0.8620     4.0760    -0.9530 C.3   1 <1>   0.2570 
  8 C       -2.3710     3.3190    -0.8270 C.ar  1 <1>  -0.1500 
  9 C       -1.1330     2.2900     0.9420 C.ar  1 <1>  -0.1500 
 10 C        1.7780     3.9880     0.2810 C.2   1 <1>   0.5690 
 11 C       -3.5200     3.2570    -0.0590 C.ar  1 <1>  -0.1500 
 12 C       -2.2790     2.2260     1.7150 C.ar  1 <1>  -0.1500 
 13 O        1.3800     4.5080     1.2970 O.2   1 <1>  -0.5700 
 14 N        3.0020     3.3530     0.2730 N.am  1 <1>  -0.6600 
 15 C       -3.4840     2.7110     1.2130 C.ar  1 <1>   0.0830 
 16 C        3.7570     2.9260    -0.9470 C.3   1 <1>   0.1400 
 17 C        3.5810     2.8530     1.5600 C.3   1 <1>   0.1400 
 18 O       -4.6570     2.6870     1.9010 O.3   1 <1>  -0.3630 
 19 C        5.2650     3.2030    -0.8090 C.3   1 <1>   0.3430 
 20 C        5.0890     3.1400     1.6550 C.3   1 <1>   0.3430 
 21 C       -4.6960     2.2520     3.2430 C.3   1 <1>   0.0400 
 22 N        5.8360     2.6200     0.4540 N.4   1 <1>  -0.9590 
 23 C        7.2980     2.8710     0.5390 C.3   1 <1>   0.3430 
 24 C        7.9150     1.9610     1.5940 C.3   1 <1>  -0.2400 
 25 H       -0.2470    -0.4150    -2.7870 H     1 <1>   0.0800 
 26 H       -1.0870     1.0680    -3.1540 H     1 <1>   0.0800 
 27 H       -1.3370     0.2790    -1.6190 H     1 <1>   0.0800 
 28 H        0.2410     4.9450    -0.8320 H     1 <1>   0.0800 
 29 H        1.4430     4.2300    -1.8420 H     1 <1>   0.0800 
 30 H       -2.4060     3.7460    -1.8120 H     1 <1>   0.1500 
 31 H       -0.2030     1.9210     1.3350 H     1 <1>   0.1500 
 32 H       -4.4530     3.6330    -0.4390 H     1 <1>   0.1500 
 33 H       -2.2120     1.8010     2.6980 H     1 <1>   0.1500 
 34 H        3.3960     3.4440    -1.8170 H     1 <1>   0.0800 
 35 H        3.6110     1.8720    -1.1030 H     1 <1>   0.0800 
 36 H        3.4080     1.7930     1.6300 H     1 <1>   0.0800 
 37 H        3.0910     3.3110     2.4020 H     1 <1>   0.0800 
 38 H        5.4190     4.2700    -0.8170 H     1 <1>   0.0800 
 39 H        5.7730     2.7910    -1.6660 H     1 <1>   0.0800 
 40 H        5.4700     2.6840     2.5540 H     1 <1>   0.0800 
 41 H        5.2290     4.2050     1.7390 H     1 <1>   0.0800 
 42 H       -5.7060     2.3550     3.5980 H     1 <1>   0.0800 
 43 H       -4.0380     2.8680     3.8290 H     1 <1>   0.0800 
 44 H       -4.3980     1.2200     3.2840 H     1 <1>   0.0800 
 45 H        5.6870     1.6020     0.4150 H     1 <1>   0.4500 
 46 H        7.4860     3.9050     0.7820 H     1 <1>   0.0800 
 47 H        7.7580     2.6580    -0.4140 H     1 <1>   0.0800 
 48 H        7.5590     2.2000     2.5800 H     1 <1>   0.0800 
 49 H        8.9820     2.0980     1.5930 H     1 <1>   0.0800 
 50 H        7.7150     0.9270     1.3750 H     1 <1>   0.0800 
@<TRIPOS>BOND
  1   1   2  2   
  2   1   3  2   
  3   1   4  am  
  4   1   5  1   
  5   4   6  1   
  6   4   7  1   
  7   5  25  1   
  8   5  26  1   
  9   5  27  1   
 10   6   8  ar  
 11   6   9  ar  
 12   7  10  1   
 13   7  28  1   
 14   7  29  1   
 15   8  11  ar  
 16   8  30  1   
 17   9  12  ar  
 18   9  31  1   
 19  10  13  2   
 20  10  14  am  
 21  11  15  ar  
 22  11  32  1   
 23  12  15  ar  
 24  12  33  1   
 25  14  16  1   
 26  14  17  1   
 27  15  18  1   
 28  16  19  1   
 29  16  34  1   
 30  16  35  1   
 31  17  20  1   
 32  17  36  1   
 33  17  37  1   
 34  18  21  1   
 35  19  22  1   
 36  19  38  1   
 37  19  39  1   
 38  20  22  1   
 39  20  40  1   
 40  20  41  1   
 41  21  42  1   
 42  21  43  1   
 43  21  44  1   
 44  22  23  1   
 45  22  45  1   
 46  23  24  1   
 47  23  46  1   
 48  23  47  1   
 49  24  48  1   
 50  24  49  1   
 51  24  50  1   
@<TRIPOS>SUBSTRUCTURE
  1 ****  10 GROUP 4 **** **** 0

# MOE 2024.06 (io_trps.svl 2023.06)
