@<TRIPOS>MOLECULE
(1-Isopropyl-piperidin-3-ylmethyl)-methyl-amine
36 36 1 0 0 
SMALL
USER_CHARGES


@<TRIPOS>ATOM
  1 N       -0.0230     0.0830    -0.3250 N.4   1 <1>  -0.9590 
  2 C       -0.0110    -1.3990    -0.4810 C.3   1 <1>   0.4230 
  3 C        1.3670     0.6530    -0.2640 C.3   1 <1>   0.3430 
  4 C       -0.8930     0.5770     0.7860 C.3   1 <1>   0.3430 
  5 C       -1.3650    -1.8550    -1.0140 C.3   1 <1>  -0.2400 
  6 C        0.3310    -2.1100     0.8300 C.3   1 <1>  -0.2400 
  7 C        1.4050     2.1190     0.2370 C.3   1 <1>  -0.0800 
  8 C       -1.1050     2.0880     0.6300 C.3   1 <1>  -0.1600 
  9 C        0.0670     2.8270    -0.0460 C.3   1 <1>  -0.1600 
 10 C        2.5610     2.9310    -0.3810 C.3   1 <1>   0.3430 
 11 N        3.8840     2.6140     0.2370 N.4   1 <1>  -0.9060 
 12 C        4.9680     3.4940    -0.3080 C.3   1 <1>   0.2630 
 13 H       -0.4660     0.4390    -1.1820 H     1 <1>   0.4500 
 14 H        0.7350    -1.6640    -1.2150 H     1 <1>   0.0800 
 15 H        1.7970     0.5990    -1.2510 H     1 <1>   0.0800 
 16 H        1.9750     0.0490     0.3910 H     1 <1>   0.0800 
 17 H       -0.4160     0.3730     1.7320 H     1 <1>   0.0800 
 18 H       -1.8490     0.0780     0.7790 H     1 <1>   0.0800 
 19 H       -2.1530    -1.6960    -0.3010 H     1 <1>   0.0800 
 20 H       -1.3270    -2.9100    -1.2230 H     1 <1>   0.0800 
 21 H       -1.6040    -1.3520    -1.9340 H     1 <1>   0.0800 
 22 H       -0.4340    -1.9710     1.5720 H     1 <1>   0.0800 
 23 H        1.2760    -1.7840     1.2220 H     1 <1>   0.0800 
 24 H        0.4080    -3.1670     0.6450 H     1 <1>   0.0800 
 25 H        1.5360     2.1110     1.3060 H     1 <1>   0.0800 
 26 H       -1.2730     2.4980     1.6110 H     1 <1>   0.0800 
 27 H       -2.0070     2.2630     0.0690 H     1 <1>   0.0800 
 28 H       -0.1070     2.8630    -1.1100 H     1 <1>   0.0800 
 29 H        0.0880     3.8460     0.3100 H     1 <1>   0.0800 
 30 H        2.3560     3.9790    -0.2280 H     1 <1>   0.0800 
 31 H        2.5990     2.7630    -1.4460 H     1 <1>   0.0800 
 32 H        4.1630     1.6350     0.0920 H     1 <1>   0.4500 
 33 H        3.8420     2.7670     1.2570 H     1 <1>   0.4500 
 34 H        5.0760     3.3480    -1.3710 H     1 <1>   0.0800 
 35 H        5.9110     3.2650     0.1640 H     1 <1>   0.0800 
 36 H        4.7400     4.5320    -0.1250 H     1 <1>   0.0800 
@<TRIPOS>BOND
  1   1   2  1   
  2   1   3  1   
  3   1   4  1   
  4   1  13  1   
  5   2   5  1   
  6   2   6  1   
  7   2  14  1   
  8   3   7  1   
  9   3  15  1   
 10   3  16  1   
 11   4   8  1   
 12   4  17  1   
 13   4  18  1   
 14   5  19  1   
 15   5  20  1   
 16   5  21  1   
 17   6  22  1   
 18   6  23  1   
 19   6  24  1   
 20   7   9  1   
 21   7  10  1   
 22   7  25  1   
 23   8   9  1   
 24   8  26  1   
 25   8  27  1   
 26   9  28  1   
 27   9  29  1   
 28  10  11  1   
 29  10  30  1   
 30  10  31  1   
 31  11  12  1   
 32  11  32  1   
 33  11  33  1   
 34  12  34  1   
 35  12  35  1   
 36  12  36  1   
@<TRIPOS>SUBSTRUCTURE
  1 ****   3 GROUP 4 **** **** 0

# MOE 2024.06 (io_trps.svl 2023.06)
