@<TRIPOS>MOLECULE
2-Benzenesulfonyl-N-[5-(1-ethyl-propyl)-[1,3,4]thiadiazol-2-yl]-acetamide
42 43 1 0 0 
SMALL
USER_CHARGES


@<TRIPOS>ATOM
  1 S        0.6390    -1.0410    -0.6050 S.o2  1 <1>   1.2040 
  2 O       -0.0880    -2.2550    -0.8970 O.2   1 <1>  -0.6500 
  3 O        1.6180    -0.5670    -1.5630 O.2   1 <1>  -0.6500 
  4 C       -0.5230     0.2820    -0.1850 C.ar  1 <1>  -0.0090 
  5 C        1.5160    -1.3240     0.9100 C.3   1 <1>   0.0060 
  6 C       -0.1700     1.6220    -0.3040 C.ar  1 <1>  -0.1500 
  7 C       -1.7940    -0.0140     0.2970 C.ar  1 <1>  -0.1500 
  8 C        2.2280    -0.0710     1.3210 C.2   1 <1>   0.5690 
  9 C       -1.0490     2.6300     0.0510 C.ar  1 <1>  -0.1500 
 10 C       -2.6790     0.9880     0.6510 C.ar  1 <1>  -0.1500 
 11 O        1.9340     0.3970     2.3870 O.2   1 <1>  -0.5700 
 12 N        3.1670     0.4730     0.4880 N.am  1 <1>  -0.4940 
 13 C       -2.3060     2.3130     0.5300 C.ar  1 <1>  -0.1500 
 14 C        3.9910     1.5590     0.6880 C.2   1 <1>   0.4420 
 15 S        4.9430     2.0680    -0.6660 S.3   1 <1>  -0.0800 
 16 N        4.1940     2.2850     1.7260 N.2   1 <1>  -0.3380 
 17 C        5.5940     3.3100     0.3500 C.2   1 <1>   0.1980 
 18 N        5.1090     3.2810     1.5260 N.2   1 <1>  -0.3380 
 19 C        6.6320     4.2550    -0.2490 C.3   1 <1>   0.1000 
 20 C        8.0410     3.9390     0.2990 C.3   1 <1>  -0.1600 
 21 C        6.2180     5.7160     0.0250 C.3   1 <1>  -0.1600 
 22 C        8.4870     2.4950     0.0250 C.3   1 <1>  -0.2400 
 23 C        7.0700     6.7590    -0.7150 C.3   1 <1>  -0.2400 
 24 H        2.2330    -2.1090     0.7830 H     1 <1>   0.0800 
 25 H        0.8320    -1.6100     1.6840 H     1 <1>   0.0800 
 26 H        0.8040     1.8900    -0.6780 H     1 <1>   0.1500 
 27 H       -2.1000    -1.0430     0.3940 H     1 <1>   0.1500 
 28 H       -0.7530     3.6620    -0.0440 H     1 <1>   0.1500 
 29 H       -3.6590     0.7380     1.0220 H     1 <1>   0.1500 
 30 H        3.1990     0.0910    -0.4640 H     1 <1>   0.3700 
 31 H       -2.9910     3.0960     0.8080 H     1 <1>   0.1500 
 32 H        6.6420     4.1080    -1.3150 H     1 <1>   0.0800 
 33 H        8.0530     4.1120     1.3620 H     1 <1>   0.0800 
 34 H        8.7590     4.5990    -0.1500 H     1 <1>   0.0800 
 35 H        6.2600     5.9080     1.0840 H     1 <1>   0.0800 
 36 H        5.1930     5.8420    -0.2800 H     1 <1>   0.0800 
 37 H        7.8590     1.7930     0.5450 H     1 <1>   0.0800 
 38 H        9.4970     2.3550     0.3700 H     1 <1>   0.0800 
 39 H        8.4560     2.2810    -1.0280 H     1 <1>   0.0800 
 40 H        8.0810     6.7640    -0.3510 H     1 <1>   0.0800 
 41 H        6.6570     7.7400    -0.5590 H     1 <1>   0.0800 
 42 H        7.0790     6.5600    -1.7730 H     1 <1>   0.0800 
@<TRIPOS>BOND
  1   1   2  2   
  2   1   3  2   
  3   1   4  1   
  4   1   5  1   
  5   4   6  ar  
  6   4   7  ar  
  7   5   8  1   
  8   5  24  1   
  9   5  25  1   
 10   6   9  ar  
 11   6  26  1   
 12   7  10  ar  
 13   7  27  1   
 14   8  11  2   
 15   8  12  am  
 16   9  13  ar  
 17   9  28  1   
 18  10  13  ar  
 19  10  29  1   
 20  12  14  1   
 21  12  30  1   
 22  13  31  1   
 23  14  15  1   
 24  14  16  2   
 25  15  17  1   
 26  16  18  1   
 27  17  18  2   
 28  17  19  1   
 29  19  20  1   
 30  19  21  1   
 31  19  32  1   
 32  20  22  1   
 33  20  33  1   
 34  20  34  1   
 35  21  23  1   
 36  21  35  1   
 37  21  36  1   
 38  22  37  1   
 39  22  38  1   
 40  22  39  1   
 41  23  40  1   
 42  23  41  1   
 43  23  42  1   
@<TRIPOS>SUBSTRUCTURE
  1 ****  12 GROUP 4 **** **** 0

# MOE 2024.06 (io_trps.svl 2023.06)
