@<TRIPOS>MOLECULE
(E)-3-(5-Bromo-2-methoxy-phenyl)-N-(4-phenyl-tetrahydro-pyran-4-ylmethyl)-acryla
51 53 1 0 0 
SMALL
USER_CHARGES


@<TRIPOS>ATOM
  1 BR      -0.5280     0.4490    -2.3100 Br    1 <1>  -0.1110 
  2 C       -2.0240     1.2730    -1.4200 C.ar  1 <1>   0.1110 
  3 C       -3.2320     0.6120    -1.3960 C.ar  1 <1>  -0.1500 
  4 C       -1.8440     2.5070    -0.8300 C.ar  1 <1>  -0.1500 
  5 C       -4.3340     1.1840    -0.7630 C.ar  1 <1>   0.0280 
  6 C       -2.9220     3.0880    -0.1900 C.ar  1 <1>  -0.1500 
  7 C       -4.1580     2.4390    -0.1450 C.ar  1 <1>   0.0830 
  8 C       -5.5730     0.4430    -0.7860 C.2   1 <1>  -0.1780 
  9 O       -5.2160     2.9850     0.5090 O.3   1 <1>  -0.3630 
 10 C       -6.8470     0.9010    -0.7690 C.2   1 <1>  -0.1360 
 11 C       -5.1600     4.2370     1.1560 C.3   1 <1>   0.0400 
 12 C       -8.0510     0.1250    -0.7930 C.2   1 <1>   0.6160 
 13 O       -8.0260    -1.0870    -0.8850 O.2   1 <1>  -0.5700 
 14 N       -9.2520     0.7560    -0.7040 N.am  1 <1>  -0.7300 
 15 C      -10.5700     0.0920    -0.5670 C.3   1 <1>   0.1400 
 16 C      -11.6580     0.9960     0.0790 C.3   1 <1>   0.1430 
 17 C      -12.8560     0.0610     0.3750 C.ar  1 <1>  -0.1430 
 18 C      -12.0490     2.1520    -0.8790 C.3   1 <1>  -0.1600 
 19 C      -11.1660     1.6290     1.4130 C.3   1 <1>  -0.1600 
 20 C      -12.7450    -0.8770     1.3990 C.ar  1 <1>  -0.1500 
 21 C      -14.0480     0.0900    -0.3460 C.ar  1 <1>  -0.1500 
 22 C      -10.9920     3.2630    -1.0250 C.3   1 <1>   0.1200 
 23 C      -10.6930     3.0870     1.3000 C.3   1 <1>   0.1200 
 24 C      -13.7830    -1.7410     1.7020 C.ar  1 <1>  -0.1500 
 25 C      -15.0880    -0.7720    -0.0450 C.ar  1 <1>  -0.1500 
 26 O      -10.1060     3.2920     0.0570 O.3   1 <1>  -0.5600 
 27 C      -14.9590    -1.6880     0.9800 C.ar  1 <1>  -0.1500 
 28 H       -3.3190    -0.3460    -1.8740 H     1 <1>   0.1500 
 29 H       -0.8860     2.9950    -0.8720 H     1 <1>   0.1500 
 30 H       -2.7770     4.0460     0.2720 H     1 <1>   0.1500 
 31 H       -5.4360    -0.6250    -0.8330 H     1 <1>   0.1500 
 32 H       -7.0310     1.9570    -0.7400 H     1 <1>   0.1500 
 33 H       -6.1280     4.4360     1.5790 H     1 <1>   0.0800 
 34 H       -4.9160     4.9940     0.4320 H     1 <1>   0.0800 
 35 H       -4.4220     4.1940     1.9370 H     1 <1>   0.0800 
 36 H       -9.2730     1.7610    -0.4760 H     1 <1>   0.3700 
 37 H      -10.9000    -0.2290    -1.5400 H     1 <1>   0.0800 
 38 H      -10.4350    -0.7930     0.0300 H     1 <1>   0.0800 
 39 H      -12.9420     2.6190    -0.5030 H     1 <1>   0.0800 
 40 H      -12.2780     1.7690    -1.8570 H     1 <1>   0.0800 
 41 H      -10.3720     1.0350     1.8290 H     1 <1>   0.0800 
 42 H      -11.9640     1.6230     2.1340 H     1 <1>   0.0800 
 43 H      -11.8400    -0.9510     1.9760 H     1 <1>   0.1500 
 44 H      -14.2000     0.7750    -1.1590 H     1 <1>   0.1500 
 45 H      -11.4630     4.2280    -1.1020 H     1 <1>   0.0800 
 46 H      -10.4010     3.1000    -1.9110 H     1 <1>   0.0800 
 47 H       -9.9610     3.3080     2.0580 H     1 <1>   0.0800 
 48 H      -11.5170     3.7730     1.4030 H     1 <1>   0.0800 
 49 H      -13.6730    -2.4550     2.4990 H     1 <1>   0.1500 
 50 H      -16.0010    -0.7310    -0.6130 H     1 <1>   0.1500 
 51 H      -15.7680    -2.3580     1.2140 H     1 <1>   0.1500 
@<TRIPOS>BOND
  1   1   2  1   
  2   2   3  ar  
  3   2   4  ar  
  4   3   5  ar  
  5   3  28  1   
  6   4   6  ar  
  7   4  29  1   
  8   5   7  ar  
  9   5   8  1   
 10   6   7  ar  
 11   6  30  1   
 12   7   9  1   
 13   8  10  2   
 14   8  31  1   
 15   9  11  1   
 16  10  12  1   
 17  10  32  1   
 18  11  33  1   
 19  11  34  1   
 20  11  35  1   
 21  12  13  2   
 22  12  14  am  
 23  14  15  1   
 24  14  36  1   
 25  15  16  1   
 26  15  37  1   
 27  15  38  1   
 28  16  17  1   
 29  16  18  1   
 30  16  19  1   
 31  17  20  ar  
 32  17  21  ar  
 33  18  22  1   
 34  18  39  1   
 35  18  40  1   
 36  19  23  1   
 37  19  41  1   
 38  19  42  1   
 39  20  24  ar  
 40  20  43  1   
 41  21  25  ar  
 42  21  44  1   
 43  22  26  1   
 44  22  45  1   
 45  22  46  1   
 46  23  26  1   
 47  23  47  1   
 48  23  48  1   
 49  24  27  ar  
 50  24  49  1   
 51  25  27  ar  
 52  25  50  1   
 53  27  51  1   
@<TRIPOS>SUBSTRUCTURE
  1 ****  14 GROUP 4 **** **** 0

# MOE 2024.06 (io_trps.svl 2023.06)
