@<TRIPOS>MOLECULE
1-(5-Chloro-2-ethoxy-benzenesulfonyl)-piperidine-4-carboxylic acid cyclopropylam
48 50 1 0 0 
SMALL
USER_CHARGES


@<TRIPOS>ATOM
  1 CL      -0.0370     0.5300     1.5560 Cl    1 <1>  -0.1770 
  2 C        0.1020     2.2040     1.0810 C.ar  1 <1>   0.1770 
  3 C        1.0000     2.5550     0.0920 C.ar  1 <1>  -0.1500 
  4 C       -0.6870     3.1500     1.7040 C.ar  1 <1>  -0.1500 
  5 C        1.1310     3.8800    -0.3140 C.ar  1 <1>  -0.0090 
  6 C       -0.5650     4.4730     1.3230 C.ar  1 <1>  -0.1500 
  7 S        2.3230     4.3130    -1.6130 S.o2  1 <1>   1.4470 
  8 C        0.3340     4.8300     0.3250 C.ar  1 <1>   0.0830 
  9 O        2.5800     3.1140    -2.3830 O.2   1 <1>  -0.6500 
 10 O        1.9560     5.5070    -2.3450 O.2   1 <1>  -0.6500 
 11 N        3.7610     4.6680    -0.7830 N.am  1 <1>  -0.8490 
 12 O        0.4410     6.1350     0.0100 O.3   1 <1>  -0.3630 
 13 C        3.6750     5.9340    -0.0480 C.3   1 <1>   0.1960 
 14 C        4.9050     4.6500    -1.7010 C.3   1 <1>   0.1960 
 15 C       -0.5880     6.6870    -0.7780 C.3   1 <1>   0.1200 
 16 C        4.9490     6.1740     0.7660 C.3   1 <1>  -0.1600 
 17 C        6.2160     4.8530    -0.9370 C.3   1 <1>  -0.1600 
 18 C       -0.1960     8.1200    -1.1230 C.3   1 <1>  -0.2400 
 19 C        6.1970     6.1600    -0.1310 C.3   1 <1>  -0.0190 
 20 C        7.4800     6.3450     0.6790 C.2   1 <1>   0.5690 
 21 O        7.7690     5.5320     1.5250 O.2   1 <1>  -0.5700 
 22 N        8.2590     7.4280     0.4160 N.am  1 <1>  -0.5790 
 23 C        9.5200     7.7550     1.0960 C.3   1 <1>   0.0490 
 24 C        9.8420     9.1950     1.3210 C.3   1 <1>  -0.2000 
 25 C       10.6010     8.4040     0.2970 C.3   1 <1>  -0.2000 
 26 H        1.6010     1.7880    -0.3660 H     1 <1>   0.1500 
 27 H       -1.3780     2.8530     2.4730 H     1 <1>   0.1500 
 28 H       -1.1590     5.2320     1.8030 H     1 <1>   0.1500 
 29 H        2.8460     5.9020     0.6360 H     1 <1>   0.0800 
 30 H        3.5150     6.7510    -0.7330 H     1 <1>   0.0800 
 31 H        4.7850     5.4200    -2.4460 H     1 <1>   0.0800 
 32 H        4.9510     3.7000    -2.2070 H     1 <1>   0.0800 
 33 H       -1.5060     6.6620    -0.2170 H     1 <1>   0.0800 
 34 H       -0.6880     6.0960    -1.6730 H     1 <1>   0.0800 
 35 H        5.0310     5.4060     1.5170 H     1 <1>   0.0800 
 36 H        4.8760     7.1200     1.2730 H     1 <1>   0.0800 
 37 H        7.0350     4.8650    -1.6330 H     1 <1>   0.0800 
 38 H        6.3620     4.0160    -0.2750 H     1 <1>   0.0800 
 39 H       -0.0710     8.6990    -0.2250 H     1 <1>   0.0800 
 40 H       -0.9650     8.5730    -1.7210 H     1 <1>   0.0800 
 41 H        0.7200     8.1220    -1.6860 H     1 <1>   0.0800 
 42 H        6.1140     6.9770    -0.8250 H     1 <1>   0.0800 
 43 H        7.9800     8.0920    -0.3050 H     1 <1>   0.3700 
 44 H        9.7960     7.0380     1.8550 H     1 <1>   0.1000 
 45 H       10.3500     9.4710     2.2280 H     1 <1>   0.1000 
 46 H        9.1440     9.9440     0.9940 H     1 <1>   0.1000 
 47 H       10.4330     8.5990    -0.7470 H     1 <1>   0.1000 
 48 H       11.6230     8.1440     0.5110 H     1 <1>   0.1000 
@<TRIPOS>BOND
  1   1   2  1   
  2   2   3  ar  
  3   2   4  ar  
  4   3   5  ar  
  5   3  26  1   
  6   4   6  ar  
  7   4  27  1   
  8   5   7  1   
  9   5   8  ar  
 10   6   8  ar  
 11   6  28  1   
 12   7   9  2   
 13   7  10  2   
 14   7  11  am  
 15   8  12  1   
 16  11  13  1   
 17  11  14  1   
 18  12  15  1   
 19  13  16  1   
 20  13  29  1   
 21  13  30  1   
 22  14  17  1   
 23  14  31  1   
 24  14  32  1   
 25  15  18  1   
 26  15  33  1   
 27  15  34  1   
 28  16  19  1   
 29  16  35  1   
 30  16  36  1   
 31  17  19  1   
 32  17  37  1   
 33  17  38  1   
 34  18  39  1   
 35  18  40  1   
 36  18  41  1   
 37  19  20  1   
 38  19  42  1   
 39  20  21  2   
 40  20  22  am  
 41  22  23  1   
 42  22  43  1   
 43  23  24  1   
 44  23  25  1   
 45  23  44  1   
 46  24  25  1   
 47  24  45  1   
 48  24  46  1   
 49  25  47  1   
 50  25  48  1   
@<TRIPOS>SUBSTRUCTURE
  1 ****  13 GROUP 4 **** **** 0

# MOE 2024.06 (io_trps.svl 2023.06)
