@<TRIPOS>MOLECULE
5,7-Dimethyl-2-pyridin-2-yl-1,3-diaza-tricyclo[3.3.1.1*3,7*]decan-6-ol
41 44 1 0 0 
SMALL
USER_CHARGES


@<TRIPOS>ATOM
  1 O       -0.1760    -0.1820     0.4470 O.3   1 <1>  -0.6800 
  2 C        0.9320    -0.6180    -0.2670 C.3   1 <1>   0.2000 
  3 C        0.5500    -1.7980    -1.1960 C.3   1 <1>   0.0000 
  4 C        2.0690    -1.0410     0.6980 C.3   1 <1>   0.0000 
  5 C        1.8040    -2.1650    -2.0100 C.3   1 <1>   0.3430 
  6 C        0.1950    -3.0310    -0.3380 C.3   1 <1>   0.1100 
  7 C       -0.6070    -1.4420    -2.1500 C.3   1 <1>  -0.2400 
  8 C        3.2770    -1.4470    -0.1580 C.3   1 <1>   0.3430 
  9 C        1.6520    -2.3050     1.4700 C.3   1 <1>   0.1100 
 10 C        2.4670     0.0880     1.6680 C.3   1 <1>  -0.2400 
 11 N        2.8960    -2.5640    -1.0780 N.4   1 <1>  -0.9590 
 12 N        1.3480    -3.3900     0.5120 N.3   1 <1>  -0.8100 
 13 C        2.5090    -3.7770    -0.3140 C.3   1 <1>   0.8360 
 14 C        3.7160    -4.3660     0.4570 C.ar  1 <1>   0.1670 
 15 N        4.9280    -4.1310    -0.0560 N.ar  1 <1>  -0.6200 
 16 C        3.5080    -5.1140     1.6100 C.ar  1 <1>  -0.1500 
 17 C        5.9490    -4.6550     0.6070 C.ar  1 <1>   0.1600 
 18 C        4.5830    -5.6480     2.2880 C.ar  1 <1>  -0.1500 
 19 C        5.8320    -5.4060     1.7630 C.ar  1 <1>  -0.1500 
 20 H       -0.5190    -0.8790     1.0370 H     1 <1>   0.4000 
 21 H        1.2550     0.2210    -0.8610 H     1 <1>   0.0800 
 22 H        1.5740    -2.9790    -2.6790 H     1 <1>   0.0800 
 23 H        2.1130    -1.3180    -2.6010 H     1 <1>   0.0800 
 24 H       -0.0630    -3.8660    -0.9700 H     1 <1>   0.0800 
 25 H       -0.6620    -2.8240     0.2820 H     1 <1>   0.0800 
 26 H       -1.5040    -1.2240    -1.5940 H     1 <1>   0.0800 
 27 H       -0.8220    -2.2560    -2.8200 H     1 <1>   0.0800 
 28 H       -0.3640    -0.5720    -2.7350 H     1 <1>   0.0800 
 29 H        4.0830    -1.7620     0.4850 H     1 <1>   0.0800 
 30 H        3.6170    -0.5990    -0.7300 H     1 <1>   0.0800 
 31 H        0.7860    -2.1060     2.0780 H     1 <1>   0.0800 
 32 H        2.4430    -2.6110     2.1350 H     1 <1>   0.0800 
 33 H        3.2920    -0.2120     2.2910 H     1 <1>   0.0800 
 34 H        1.6420     0.3480     2.3090 H     1 <1>   0.0800 
 35 H        2.7530     0.9730     1.1240 H     1 <1>   0.0800 
 36 H        3.7520    -2.8680    -1.5630 H     1 <1>   0.4500 
 37 H        2.1890    -4.5380    -1.0080 H     1 <1>   0.0800 
 38 H        2.5120    -5.2850     1.9820 H     1 <1>   0.1500 
 39 H        6.9360    -4.4810     0.2100 H     1 <1>   0.1500 
 40 H        4.4530    -6.2300     3.1850 H     1 <1>   0.1500 
 41 H        6.7110    -5.7980     2.2440 H     1 <1>   0.1500 
@<TRIPOS>BOND
  1   1   2  1   
  2   1  20  1   
  3   2   3  1   
  4   2   4  1   
  5   2  21  1   
  6   3   5  1   
  7   3   6  1   
  8   3   7  1   
  9   4   8  1   
 10   4   9  1   
 11   4  10  1   
 12   5  11  1   
 13   5  22  1   
 14   5  23  1   
 15   6  12  1   
 16   6  24  1   
 17   6  25  1   
 18   7  26  1   
 19   7  27  1   
 20   7  28  1   
 21   8  11  1   
 22   8  29  1   
 23   8  30  1   
 24   9  12  1   
 25   9  31  1   
 26   9  32  1   
 27  10  33  1   
 28  10  34  1   
 29  10  35  1   
 30  11  13  1   
 31  11  36  1   
 32  12  13  1   
 33  13  14  1   
 34  13  37  1   
 35  14  15  ar  
 36  14  16  ar  
 37  15  17  ar  
 38  16  18  ar  
 39  16  38  1   
 40  17  19  ar  
 41  17  39  1   
 42  18  19  ar  
 43  18  40  1   
 44  19  41  1   
@<TRIPOS>SUBSTRUCTURE
  1 ****  13 GROUP 4 **** **** 0

# MOE 2024.06 (io_trps.svl 2023.06)
