@<TRIPOS>MOLECULE
3-(2-Chloro-6-fluoro-phenyl)-4,5-dihydro-isoxazole-5-carboxylic acid isopropylam
33 34 1 0 0 
SMALL
USER_CHARGES


@<TRIPOS>ATOM
  1 CL      -0.6480     2.5800    -2.4820 Cl    1 <1>  -0.1770 
  2 C       -0.4220     2.4500    -0.7540 C.ar  1 <1>   0.1770 
  3 C        0.8330     2.6920    -0.1990 C.ar  1 <1>   0.0860 
  4 C       -1.5240     2.1220     0.0180 C.ar  1 <1>  -0.1500 
  5 C        0.9050     2.5980     1.1890 C.ar  1 <1>   0.1900 
  6 C        1.9800     3.0130    -0.9980 C.2   1 <1>   0.3030 
  7 C       -1.4040     2.0320     1.3960 C.ar  1 <1>  -0.1500 
  8 F        2.0490     2.8230     1.7790 F     1 <1>  -0.1900 
  9 C       -0.1760     2.2750     1.9890 C.ar  1 <1>  -0.1500 
 10 N        2.6550     2.2240    -1.7220 N.2   1 <1>  -0.5130 
 11 C        2.5130     4.4170    -1.0380 C.3   1 <1>  -0.0990 
 12 O        3.6480     2.8620    -2.3010 O.3   1 <1>  -0.2170 
 13 C        3.7930     4.1950    -1.8370 C.3   1 <1>   0.2610 
 14 C        5.0440     4.3160    -0.9660 C.2   1 <1>   0.5690 
 15 O        5.5580     5.4030    -0.8350 O.2   1 <1>  -0.5700 
 16 N        5.5180     3.2100    -0.3320 N.am  1 <1>  -0.7300 
 17 C        6.6510     3.1520     0.5900 C.3   1 <1>   0.2200 
 18 C        7.6720     2.1710     0.0270 C.3   1 <1>  -0.2400 
 19 C        6.1300     2.6950     1.9480 C.3   1 <1>  -0.2400 
 20 H       -2.4710     1.9410    -0.4590 H     1 <1>   0.1500 
 21 H       -2.2590     1.7770     2.0010 H     1 <1>   0.1500 
 22 H       -0.0570     2.2130     3.0570 H     1 <1>   0.1500 
 23 H        2.7150     4.8080    -0.0570 H     1 <1>   0.0800 
 24 H        1.8420     5.0670    -1.5680 H     1 <1>   0.0800 
 25 H        3.8610     4.8470    -2.6880 H     1 <1>   0.0800 
 26 H        5.0450     2.3210    -0.5220 H     1 <1>   0.3700 
 27 H        7.0980     4.1290     0.6820 H     1 <1>   0.0800 
 28 H        7.2440     1.1900    -0.0760 H     1 <1>   0.0800 
 29 H        8.5210     2.1090     0.6830 H     1 <1>   0.0800 
 30 H        8.0140     2.5130    -0.9340 H     1 <1>   0.0800 
 31 H        5.6770     1.7230     1.8760 H     1 <1>   0.0800 
 32 H        5.4060     3.3990     2.3170 H     1 <1>   0.0800 
 33 H        6.9410     2.6450     2.6530 H     1 <1>   0.0800 
@<TRIPOS>BOND
  1   1   2  1   
  2   2   3  ar  
  3   2   4  ar  
  4   3   5  ar  
  5   3   6  1   
  6   4   7  ar  
  7   4  20  1   
  8   5   8  1   
  9   5   9  ar  
 10   6  10  2   
 11   6  11  1   
 12   7   9  ar  
 13   7  21  1   
 14   9  22  1   
 15  10  12  1   
 16  11  13  1   
 17  11  23  1   
 18  11  24  1   
 19  12  13  1   
 20  13  14  1   
 21  13  25  1   
 22  14  15  2   
 23  14  16  am  
 24  16  17  1   
 25  16  26  1   
 26  17  18  1   
 27  17  19  1   
 28  17  27  1   
 29  18  28  1   
 30  18  29  1   
 31  18  30  1   
 32  19  31  1   
 33  19  32  1   
 34  19  33  1   
@<TRIPOS>SUBSTRUCTURE
  1 ****   6 GROUP 4 **** **** 0

# MOE 2024.06 (io_trps.svl 2023.06)
