@<TRIPOS>MOLECULE
2-(1-Methyl-1H-imidazol-2-ylsulfanyl)-ethylamine
22 22 1 0 0 
SMALL
USER_CHARGES


@<TRIPOS>ATOM
  1 S        0.0120    -0.3710     0.0310 S.3   1 <1>  -0.2860 
  2 C       -1.6490     0.3030    -0.0090 C.2   1 <1>   0.2420 
  3 C        1.0260     1.1640     0.0560 C.3   1 <1>   0.0700 
  4 N       -1.8650     1.5760    -0.0140 N.2   1 <1>  -0.5650 
  5 N       -2.7480    -0.4830    -0.0350 N.pl3 1 <1>   0.0480 
  6 C        2.4950     0.7510     0.0910 C.3   1 <1>   0.3430 
  7 C       -3.2120     1.6380    -0.0460 C.2   1 <1>   0.0770 
  8 C       -3.7640     0.4020    -0.0590 C.2   1 <1>  -0.3020 
  9 C       -2.8330    -1.9540    -0.0370 C.3   1 <1>   0.0160 
 10 N        3.3820     1.9480     0.1120 N.4   1 <1>  -0.8530 
 11 H        0.7320     1.7110     0.9340 H     1 <1>   0.0800 
 12 H        0.7740     1.7110    -0.8360 H     1 <1>   0.0800 
 13 H        2.7100     0.1500    -0.7780 H     1 <1>   0.0800 
 14 H        2.6680     0.1500     0.9700 H     1 <1>   0.0800 
 15 H       -3.7280     2.5850    -0.0590 H     1 <1>   0.1500 
 16 H       -4.8000     0.1150    -0.0840 H     1 <1>   0.1500 
 17 H       -2.3260    -2.3390    -0.9030 H     1 <1>   0.0800 
 18 H       -3.8640    -2.2560    -0.0620 H     1 <1>   0.0800 
 19 H       -2.3680    -2.3390     0.8520 H     1 <1>   0.0800 
 20 H        3.2370     2.5300    -0.7220 H     1 <1>   0.4500 
 21 H        4.3710     1.6710     0.1360 H     1 <1>   0.4500 
 22 H        3.1970     2.5300     0.9390 H     1 <1>   0.4500 
@<TRIPOS>BOND
  1   1   2  1   
  2   1   3  1   
  3   2   4  2   
  4   2   5  1   
  5   3   6  1   
  6   3  11  1   
  7   3  12  1   
  8   4   7  1   
  9   5   8  1   
 10   5   9  1   
 11   6  10  1   
 12   6  13  1   
 13   6  14  1   
 14   7   8  2   
 15   7  15  1   
 16   8  16  1   
 17   9  17  1   
 18   9  18  1   
 19   9  19  1   
 20  10  20  1   
 21  10  21  1   
 22  10  22  1   
@<TRIPOS>SUBSTRUCTURE
  1 ****   2 GROUP 4 **** **** 0

# MOE 2024.06 (io_trps.svl 2023.06)
