@<TRIPOS>MOLECULE
1-(2,5-Dimethoxy-benzenesulfonyl)-piperidine-4-carboxylic acid 4-methoxy-benzyla
59 61 1 0 0 
SMALL
USER_CHARGES


@<TRIPOS>ATOM
  1 S        0.4210    -0.3800     1.3400 S.o2  1 <1>   1.4470 
  2 O        0.8880    -1.6730     1.7990 O.2   1 <1>  -0.6500 
  3 O        0.2100     0.6430     2.3440 O.2   1 <1>  -0.6500 
  4 N        1.6300     0.2080     0.3020 N.am  1 <1>  -0.8490 
  5 C       -1.0110    -0.6640     0.2590 C.ar  1 <1>  -0.0090 
  6 C        2.9390     0.1560     0.9580 C.3   1 <1>   0.1960 
  7 C        1.3260     1.5600    -0.1800 C.3   1 <1>   0.1960 
  8 C       -1.9750     0.3130     0.0130 C.ar  1 <1>   0.0830 
  9 C       -1.1530    -1.8970    -0.3700 C.ar  1 <1>  -0.1500 
 10 C        4.0450     0.5730    -0.0130 C.3   1 <1>  -0.1600 
 11 C        2.3800     2.0200    -1.1890 C.3   1 <1>  -0.1600 
 12 O       -1.8290     1.5280     0.5990 O.3   1 <1>  -0.3620 
 13 C       -3.0530     0.0490    -0.8280 C.ar  1 <1>  -0.1500 
 14 C       -2.2290    -2.1680    -1.2080 C.ar  1 <1>   0.0830 
 15 C        3.7920     1.9780    -0.5800 C.3   1 <1>  -0.0190 
 16 C       -2.9510     2.3250     0.9070 C.3   1 <1>   0.0400 
 17 C       -3.1770    -1.1870    -1.4310 C.ar  1 <1>  -0.1500 
 18 O       -2.4170    -3.3550    -1.8380 O.3   1 <1>  -0.3630 
 19 C        4.8910     2.3750    -1.5650 C.2   1 <1>   0.5690 
 20 C       -1.5130    -4.4250    -1.6660 C.3   1 <1>   0.0400 
 21 O        4.7010     2.3230    -2.7560 O.2   1 <1>  -0.5700 
 22 N        6.0850     2.7650    -1.0560 N.am  1 <1>  -0.7300 
 23 C        7.3050     2.9770    -1.8490 C.3   1 <1>   0.2840 
 24 C        8.4510     2.3300    -1.0930 C.ar  1 <1>  -0.1430 
 25 C        8.5740     0.9490    -1.0810 C.ar  1 <1>  -0.1500 
 26 C        9.3730     3.1020    -0.4000 C.ar  1 <1>  -0.1500 
 27 C        9.6050     0.3470    -0.3820 C.ar  1 <1>  -0.1500 
 28 C       10.4050     2.5010     0.3000 C.ar  1 <1>  -0.1500 
 29 C       10.5250     1.1140     0.3130 C.ar  1 <1>   0.0830 
 30 O       11.5010     0.4460     0.9760 O.3   1 <1>  -0.3620 
 31 C       12.5030     1.1300     1.6930 C.3   1 <1>   0.0400 
 32 H        3.1390    -0.8490     1.2910 H     1 <1>   0.0800 
 33 H        2.9390     0.8000     1.8230 H     1 <1>   0.0800 
 34 H        1.2810     2.2490     0.6480 H     1 <1>   0.0800 
 35 H        0.3690     1.5640    -0.6720 H     1 <1>   0.0800 
 36 H       -0.4030    -2.6430    -0.1880 H     1 <1>   0.1500 
 37 H        4.0890    -0.1420    -0.8170 H     1 <1>   0.0800 
 38 H        4.9900     0.5470     0.5000 H     1 <1>   0.0800 
 39 H        2.1550     3.0210    -1.5120 H     1 <1>   0.0800 
 40 H        2.3320     1.3790    -2.0540 H     1 <1>   0.0800 
 41 H       -3.7980     0.7950    -1.0300 H     1 <1>   0.1500 
 42 H        3.8190     2.6820     0.2320 H     1 <1>   0.0800 
 43 H       -2.6290     3.1130     1.5640 H     1 <1>   0.0800 
 44 H       -3.6880     1.7170     1.4030 H     1 <1>   0.0800 
 45 H       -3.3450     2.7470     0.0000 H     1 <1>   0.0800 
 46 H       -4.0070    -1.4000    -2.0810 H     1 <1>   0.1500 
 47 H       -1.8640    -5.2570    -2.2490 H     1 <1>   0.0800 
 48 H       -1.4840    -4.6940    -0.6250 H     1 <1>   0.0800 
 49 H       -0.5410    -4.1210    -2.0130 H     1 <1>   0.0800 
 50 H        6.2500     2.7370    -0.0490 H     1 <1>   0.3700 
 51 H        7.4760     4.0330    -1.9720 H     1 <1>   0.0800 
 52 H        7.2030     2.5300    -2.8240 H     1 <1>   0.0800 
 53 H        7.8650     0.3400    -1.6150 H     1 <1>   0.1500 
 54 H        9.2890     4.1750    -0.4010 H     1 <1>   0.1500 
 55 H        9.7020    -0.7230    -0.3700 H     1 <1>   0.1500 
 56 H       11.1030     3.1250     0.8260 H     1 <1>   0.1500 
 57 H       13.1640     0.4000     2.1230 H     1 <1>   0.0800 
 58 H       12.0410     1.7080     2.4740 H     1 <1>   0.0800 
 59 H       13.0480     1.7620     1.0150 H     1 <1>   0.0800 
@<TRIPOS>BOND
  1   1   2  2   
  2   1   3  2   
  3   1   4  am  
  4   1   5  1   
  5   4   6  1   
  6   4   7  1   
  7   5   8  ar  
  8   5   9  ar  
  9   6  10  1   
 10   6  32  1   
 11   6  33  1   
 12   7  11  1   
 13   7  34  1   
 14   7  35  1   
 15   8  12  1   
 16   8  13  ar  
 17   9  14  ar  
 18   9  36  1   
 19  10  15  1   
 20  10  37  1   
 21  10  38  1   
 22  11  15  1   
 23  11  39  1   
 24  11  40  1   
 25  12  16  1   
 26  13  17  ar  
 27  13  41  1   
 28  14  17  ar  
 29  14  18  1   
 30  15  19  1   
 31  15  42  1   
 32  16  43  1   
 33  16  44  1   
 34  16  45  1   
 35  17  46  1   
 36  18  20  1   
 37  19  21  2   
 38  19  22  am  
 39  20  47  1   
 40  20  48  1   
 41  20  49  1   
 42  22  23  1   
 43  22  50  1   
 44  23  24  1   
 45  23  51  1   
 46  23  52  1   
 47  24  25  ar  
 48  24  26  ar  
 49  25  27  ar  
 50  25  53  1   
 51  26  28  ar  
 52  26  54  1   
 53  27  29  ar  
 54  27  55  1   
 55  28  29  ar  
 56  28  56  1   
 57  29  30  1   
 58  30  31  1   
 59  31  57  1   
 60  31  58  1   
 61  31  59  1   
@<TRIPOS>SUBSTRUCTURE
  1 ****  10 GROUP 4 **** **** 0

# MOE 2024.06 (io_trps.svl 2023.06)
