@<TRIPOS>MOLECULE
5-Oxo-1-(toluene-4-sulfonyl)-pyrrolidine-2-carboxylic acid amide
33 34 1 0 0 
SMALL
USER_CHARGES


@<TRIPOS>ATOM
  1 S        0.2040     0.2050    -1.6990 S.o2  1 <1>   1.4470 
  2 O        1.3150    -0.2940    -2.4800 O.2   1 <1>  -0.6500 
  3 O       -0.6900     1.1640    -2.3020 O.2   1 <1>  -0.6500 
  4 N        0.9470     1.0460    -0.4000 N.am  1 <1>  -0.7300 
  5 C       -0.6770    -1.1850    -0.9370 C.ar  1 <1>  -0.0090 
  6 C        0.2350     1.5260     0.6220 C.2   1 <1>   0.7450 
  7 C        2.1600     1.8480    -0.6700 C.3   1 <1>   0.3370 
  8 C        0.0170    -2.2850    -0.4450 C.ar  1 <1>  -0.1500 
  9 C       -2.0610    -1.1860    -0.8140 C.ar  1 <1>  -0.1500 
 10 O       -0.8440     1.1340     0.9780 O.2   1 <1>  -0.5700 
 11 C        0.9390     2.6780     1.2800 C.3   1 <1>  -0.0990 
 12 C        3.4560     1.0470    -0.3930 C.2   1 <1>   0.5690 
 13 C        1.9680     3.0940     0.2220 C.3   1 <1>  -0.1600 
 14 C       -0.6450    -3.3500     0.1410 C.ar  1 <1>  -0.1500 
 15 C       -2.7300    -2.2480    -0.2300 C.ar  1 <1>  -0.1500 
 16 O        4.1650     1.3130     0.5450 O.2   1 <1>  -0.5700 
 17 N        3.7990     0.0270    -1.2070 N.am  1 <1>  -0.8000 
 18 C       -2.0240    -3.3370     0.2510 C.ar  1 <1>  -0.1430 
 19 C       -2.7540    -4.5030     0.8920 C.3   1 <1>  -0.0970 
 20 H        2.1720     2.1540    -1.7030 H     1 <1>   0.0800 
 21 H        1.0910    -2.3110    -0.5210 H     1 <1>   0.1500 
 22 H       -2.6240    -0.3420    -1.1750 H     1 <1>   0.1500 
 23 H        1.4210     2.3270     2.1740 H     1 <1>   0.0800 
 24 H        0.2510     3.4710     1.5130 H     1 <1>   0.0800 
 25 H        1.5590     3.8840    -0.3830 H     1 <1>   0.0800 
 26 H        2.8850     3.4500     0.6590 H     1 <1>   0.0800 
 27 H       -0.0820    -4.1890     0.5100 H     1 <1>   0.1500 
 28 H       -3.8030    -2.2190    -0.1500 H     1 <1>   0.1500 
 29 H        4.6390    -0.5230    -1.0220 H     1 <1>   0.3700 
 30 H        3.1770    -0.3100    -1.9570 H     1 <1>   0.3700 
 31 H       -2.1450    -4.9560     1.6540 H     1 <1>   0.0800 
 32 H       -2.9850    -5.2420     0.1460 H     1 <1>   0.0800 
 33 H       -3.6710    -4.1700     1.3460 H     1 <1>   0.0800 
@<TRIPOS>BOND
  1   1   2  2   
  2   1   3  2   
  3   1   4  am  
  4   1   5  1   
  5   4   6  am  
  6   4   7  1   
  7   5   8  ar  
  8   5   9  ar  
  9   6  10  2   
 10   6  11  1   
 11   7  12  1   
 12   7  13  1   
 13   7  20  1   
 14   8  14  ar  
 15   8  21  1   
 16   9  15  ar  
 17   9  22  1   
 18  11  13  1   
 19  11  23  1   
 20  11  24  1   
 21  12  16  2   
 22  12  17  am  
 23  13  25  1   
 24  13  26  1   
 25  14  18  ar  
 26  14  27  1   
 27  15  18  ar  
 28  15  28  1   
 29  17  29  1   
 30  17  30  1   
 31  18  19  1   
 32  19  31  1   
 33  19  32  1   
 34  19  33  1   
@<TRIPOS>SUBSTRUCTURE
  1 ****   4 GROUP 4 **** **** 0

# MOE 2024.06 (io_trps.svl 2023.06)
