@<TRIPOS>MOLECULE
8-(4-Ethoxy-phenyl)-3-(3-hydroxy-propyl)-1,6,7-trimethyl-1H,8H-imidazo[2,1-f]pur
56 59 1 0 0 
SMALL
USER_CHARGES


@<TRIPOS>ATOM
  1 O        0.8730    -0.4760    -0.9330 O.2   1 <1>  -0.5740 
  2 C        1.7960     0.3020    -0.8030 C.2   1 <1>   0.6870 
  3 N        1.5500     1.6690    -0.7180 N.am  1 <1>  -0.4250 
  4 N        3.0980    -0.1790    -0.7400 N.am  1 <1>  -0.4410 
  5 C        2.5890     2.5810    -0.5870 C.2   1 <1>   0.7000 
  6 C        0.1390     2.1600    -0.7510 C.3   1 <1>   0.1340 
  7 C        4.1270     0.7350    -0.6220 C.2   1 <1>   0.4210 
  8 C        3.3740    -1.6460    -0.8210 C.3   1 <1>   0.0530 
  9 O        2.3640     3.7780    -0.5170 O.2   1 <1>  -0.5740 
 10 C        3.9230     2.0730    -0.5420 C.2   1 <1>   0.2710 
 11 C       -0.4490     2.1660     0.6620 C.3   1 <1>  -0.1660 
 12 N        5.4670     0.4760    -0.5690 N.pl3 1 <1>  -0.7030 
 13 N        5.1960     2.6570    -0.4290 N.pl3 1 <1>  -0.6330 
 14 C       -1.8950     2.6550     0.6390 C.3   1 <1>   0.1130 
 15 C        6.0710     1.6630    -0.4520 C.cat 1 <1>   1.0690 
 16 C        5.9250     3.8230    -0.3080 C.2   1 <1>   0.2350 
 17 O       -2.3680     2.6630     1.9350 O.3   1 <1>  -0.6830 
 18 N        7.3320     2.0950    -0.3530 N.pl3 1 <1>  -0.5550 
 19 C        7.2340     3.4780    -0.2620 C.2   1 <1>   0.1580 
 20 C        5.2300     5.1700    -0.2520 C.3   1 <1>  -0.1090 
 21 C        8.4880     1.2990    -0.3470 C.ar  1 <1>   0.3050 
 22 C        8.4800     4.3390    -0.1370 C.3   1 <1>  -0.1090 
 23 C        9.0730     0.9080    -1.5420 C.ar  1 <1>  -0.1570 
 24 C        9.0470     0.8840     0.8530 C.ar  1 <1>  -0.1570 
 25 C       10.1960     0.1010    -1.5350 C.ar  1 <1>  -0.1570 
 26 C       10.1720     0.0780     0.8630 C.ar  1 <1>  -0.1570 
 27 C       10.7520    -0.3210    -0.3380 C.ar  1 <1>   0.0760 
 28 O       11.8500    -1.1130    -0.4310 O.3   1 <1>  -0.3680 
 29 C       12.6090    -1.5200     0.6890 C.3   1 <1>   0.1130 
 30 C       13.5140    -0.3720     1.1400 C.3   1 <1>  -0.2460 
 31 H       -0.4530     1.5250    -1.3900 H     1 <1>   0.0730 
 32 H        0.1020     3.1540    -1.1660 H     1 <1>   0.0730 
 33 H        2.5070    -2.2120    -0.5230 H     1 <1>   0.0730 
 34 H        4.1840    -1.9140    -0.1670 H     1 <1>   0.0730 
 35 H        3.6240    -1.9130    -1.8330 H     1 <1>   0.0730 
 36 H        0.1290     2.8260     1.2860 H     1 <1>   0.0730 
 37 H       -0.4200     1.1680     1.0630 H     1 <1>   0.0730 
 38 H        5.9500    -0.4200    -0.6140 H     1 <1>   0.4450 
 39 H       -2.5240     2.0050     0.0520 H     1 <1>   0.0730 
 40 H       -1.9600     3.6600     0.2580 H     1 <1>   0.0730 
 41 H       -2.3660     1.7610     2.3080 H     1 <1>   0.3950 
 42 H        4.5610     5.2040     0.5890 H     1 <1>   0.0730 
 43 H        4.6590     5.3270    -1.1500 H     1 <1>   0.0730 
 44 H        5.9420     5.9680    -0.1550 H     1 <1>   0.0730 
 45 H        9.1210     4.1880    -0.9870 H     1 <1>   0.0730 
 46 H        9.0220     4.0780     0.7540 H     1 <1>   0.0730 
 47 H        8.2240     5.3820    -0.0850 H     1 <1>   0.0730 
 48 H        8.6600     1.2320    -2.4800 H     1 <1>   0.1430 
 49 H        8.6080     1.1920     1.7850 H     1 <1>   0.1430 
 50 H       10.6580    -0.2080    -2.4580 H     1 <1>   0.1430 
 51 H       10.5860    -0.2280     1.8060 H     1 <1>   0.1430 
 52 H       13.2120    -2.3540     0.3740 H     1 <1>   0.0730 
 53 H       11.9490    -1.8550     1.4690 H     1 <1>   0.0730 
 54 H       14.1620    -0.0780     0.3330 H     1 <1>   0.0730 
 55 H       14.1230    -0.6960     1.9640 H     1 <1>   0.0730 
 56 H       12.9330     0.4740     1.4580 H     1 <1>   0.0730 
@<TRIPOS>BOND
  1   1   2  2   
  2   2   3  am  
  3   2   4  am  
  4   3   5  am  
  5   3   6  1   
  6   4   7  1   
  7   4   8  1   
  8   5   9  2   
  9   5  10  1   
 10   6  11  1   
 11   6  31  1   
 12   6  32  1   
 13   7  10  2   
 14   7  12  1   
 15   8  33  1   
 16   8  34  1   
 17   8  35  1   
 18  10  13  1   
 19  11  14  1   
 20  11  36  1   
 21  11  37  1   
 22  12  15  ar  
 23  12  38  1   
 24  13  15  ar  
 25  13  16  1   
 26  14  17  1   
 27  14  39  1   
 28  14  40  1   
 29  15  18  ar  
 30  16  19  2   
 31  16  20  1   
 32  17  41  1   
 33  18  19  1   
 34  18  21  1   
 35  19  22  1   
 36  20  42  1   
 37  20  43  1   
 38  20  44  1   
 39  21  23  ar  
 40  21  24  ar  
 41  22  45  1   
 42  22  46  1   
 43  22  47  1   
 44  23  25  ar  
 45  23  48  1   
 46  24  26  ar  
 47  24  49  1   
 48  25  27  ar  
 49  25  50  1   
 50  26  27  ar  
 51  26  51  1   
 52  27  28  1   
 53  28  29  1   
 54  29  30  1   
 55  29  52  1   
 56  29  53  1   
 57  30  54  1   
 58  30  55  1   
 59  30  56  1   
@<TRIPOS>SUBSTRUCTURE
  1 ****  15 GROUP 4 **** **** 0

# MOE 2024.06 (io_trps.svl 2023.06)
