@<TRIPOS>MOLECULE
8-(4-Ethyl-piperazin-1-yl)-3-methyl-7-(3-phenoxy-propyl)-3,7-dihydro-purine-2,6-
60 63 1 0 0 
SMALL
USER_CHARGES


@<TRIPOS>ATOM
  1 O        1.2530     0.1360     1.4690 O.2   1 <1>  -0.5740 
  2 C        2.1700     0.7240     0.9470 C.2   1 <1>   0.6870 
  3 N        3.4940     0.3610     1.1510 N.am  1 <1>  -0.4410 
  4 N        1.8870     1.7790     0.1300 N.am  1 <1>  -0.4940 
  5 C        4.4700     1.0920     0.4890 C.2   1 <1>   0.4210 
  6 C        3.8400    -0.7880     2.0400 C.3   1 <1>   0.0530 
  7 C        2.8360     2.5120    -0.5210 C.2   1 <1>   0.7000 
  8 N        5.8160     0.9050     0.5280 N.pl3 1 <1>  -0.7030 
  9 C        4.2080     2.1360    -0.3280 C.2   1 <1>   0.2720 
 10 O        2.4820     3.4380    -1.2220 O.2   1 <1>  -0.5740 
 11 C        6.4000     1.8070    -0.2650 C.cat 1 <1>   1.0690 
 12 N        5.4550     2.6040    -0.7970 N.pl3 1 <1>  -0.7670 
 13 N        7.7470     1.8370    -0.4430 N.pl3 1 <1>  -0.5960 
 14 C        5.5310     3.8800    -1.5750 C.3   1 <1>   0.3490 
 15 C        8.6760     1.6040     0.7280 C.3   1 <1>   0.1620 
 16 C        8.3830     2.3400    -1.7140 C.3   1 <1>   0.1620 
 17 C        5.3820     5.1040    -0.6590 C.3   1 <1>  -0.1660 
 18 C       10.1160     1.1750     0.3660 C.3   1 <1>   0.3380 
 19 C        9.8080     1.8140    -1.9740 C.3   1 <1>   0.3380 
 20 C        6.4680     5.2280     0.4140 C.3   1 <1>   0.1140 
 21 N       10.6810     1.9630    -0.7670 N.4   1 <1>  -0.9610 
 22 O        7.7250     5.1300    -0.2170 O.3   1 <1>  -0.3670 
 23 C       12.0910     1.5530    -1.0220 C.3   1 <1>   0.3380 
 24 C        8.8830     5.1050     0.4850 C.ar  1 <1>   0.0760 
 25 C       12.7380     2.4750    -2.0490 C.3   1 <1>  -0.2460 
 26 C        8.9450     4.9810     1.8700 C.ar  1 <1>  -0.1560 
 27 C       10.0580     5.1880    -0.2480 C.ar  1 <1>  -0.1560 
 28 C       10.1750     4.8910     2.4990 C.ar  1 <1>  -0.1560 
 29 C       11.2850     5.1100     0.3860 C.ar  1 <1>  -0.1560 
 30 C       11.3420     4.9490     1.7590 C.ar  1 <1>  -0.1560 
 31 H        0.9050     2.0200     0.0010 H     1 <1>   0.3650 
 32 H        2.9930    -1.0730     2.6420 H     1 <1>   0.0730 
 33 H        4.6420    -0.5170     2.7040 H     1 <1>   0.0730 
 34 H        4.1320    -1.6350     1.4440 H     1 <1>   0.0730 
 35 H        6.2820     0.1470     1.0160 H     1 <1>   0.4460 
 36 H        4.7410     3.8960    -2.3080 H     1 <1>   0.0730 
 37 H        6.4510     3.9540    -2.1200 H     1 <1>   0.0730 
 38 H        8.2680     0.8590     1.3870 H     1 <1>   0.0730 
 39 H        8.7390     2.5120     1.2970 H     1 <1>   0.0730 
 40 H        8.4450     3.4100    -1.6900 H     1 <1>   0.0730 
 41 H        7.7640     2.0720    -2.5530 H     1 <1>   0.0730 
 42 H        4.4160     5.0960    -0.1880 H     1 <1>   0.0730 
 43 H        5.4150     5.9900    -1.2690 H     1 <1>   0.0730 
 44 H       10.1130     0.1290     0.1050 H     1 <1>   0.0730 
 45 H       10.7430     1.2910     1.2350 H     1 <1>   0.0730 
 46 H       10.2290     2.3610    -2.8020 H     1 <1>   0.0730 
 47 H        9.7590     0.7760    -2.2600 H     1 <1>   0.0730 
 48 H        6.3770     4.4350     1.1350 H     1 <1>   0.0730 
 49 H        6.4120     6.1820     0.9120 H     1 <1>   0.0730 
 50 H       10.7010     2.9610    -0.4850 H     1 <1>   0.4460 
 51 H       12.1250     0.5340    -1.3740 H     1 <1>   0.0730 
 52 H       12.6520     1.6110    -0.1030 H     1 <1>   0.0730 
 53 H       12.3140     2.3400    -3.0270 H     1 <1>   0.0730 
 54 H       13.7840     2.2360    -2.1190 H     1 <1>   0.0730 
 55 H       12.6550     3.5040    -1.7550 H     1 <1>   0.0730 
 56 H        8.0590     4.9570     2.4770 H     1 <1>   0.1440 
 57 H       10.0070     5.3390    -1.3120 H     1 <1>   0.1440 
 58 H       10.2270     4.7950     3.5720 H     1 <1>   0.1440 
 59 H       12.1990     5.2020    -0.1770 H     1 <1>   0.1440 
 60 H       12.2970     4.8960     2.2580 H     1 <1>   0.1440 
@<TRIPOS>BOND
  1   1   2  2   
  2   2   3  am  
  3   2   4  am  
  4   3   5  1   
  5   3   6  1   
  6   4   7  am  
  7   4  31  1   
  8   5   8  1   
  9   5   9  2   
 10   6  32  1   
 11   6  33  1   
 12   6  34  1   
 13   7   9  1   
 14   7  10  2   
 15   8  11  ar  
 16   8  35  1   
 17   9  12  1   
 18  11  12  ar  
 19  11  13  ar  
 20  12  14  1   
 21  13  15  1   
 22  13  16  1   
 23  14  17  1   
 24  14  36  1   
 25  14  37  1   
 26  15  18  1   
 27  15  38  1   
 28  15  39  1   
 29  16  19  1   
 30  16  40  1   
 31  16  41  1   
 32  17  20  1   
 33  17  42  1   
 34  17  43  1   
 35  18  21  1   
 36  18  44  1   
 37  18  45  1   
 38  19  21  1   
 39  19  46  1   
 40  19  47  1   
 41  20  22  1   
 42  20  48  1   
 43  20  49  1   
 44  21  23  1   
 45  21  50  1   
 46  22  24  1   
 47  23  25  1   
 48  23  51  1   
 49  23  52  1   
 50  24  26  ar  
 51  24  27  ar  
 52  25  53  1   
 53  25  54  1   
 54  25  55  1   
 55  26  28  ar  
 56  26  56  1   
 57  27  29  ar  
 58  27  57  1   
 59  28  30  ar  
 60  28  58  1   
 61  29  30  ar  
 62  29  59  1   
 63  30  60  1   
@<TRIPOS>SUBSTRUCTURE
  1 ****  11 GROUP 4 **** **** 0

# MOE 2024.06 (io_trps.svl 2023.06)
