@<TRIPOS>MOLECULE
2,2-Dimethyl-N-[1-(3-phenyl-[1,2,4]oxadiazol-5-yl)-ethyl]-propionamide
39 40 1 0 0 
SMALL
USER_CHARGES


@<TRIPOS>ATOM
  1 O       -0.7310    -1.2130     0.0930 O.2   1 <1>  -0.5700 
  2 C       -1.8480    -0.7830    -0.0530 C.2   1 <1>   0.5690 
  3 N       -2.7400    -1.6530    -0.5920 N.am  1 <1>  -0.7300 
  4 C       -2.1090     0.7060     0.3410 C.3   1 <1>   0.0610 
  5 C       -4.1850    -1.6280    -0.9060 C.3   1 <1>   0.4000 
  6 C       -3.5650     1.0620     0.7000 C.3   1 <1>  -0.2400 
  7 C       -1.6670     1.6180    -0.8190 C.3   1 <1>  -0.2400 
  8 C       -1.2590     1.0780     1.5770 C.3   1 <1>  -0.2400 
  9 C       -4.7840    -3.0310    -0.7980 C.2   1 <1>   0.2980 
 10 C       -4.3650    -1.0610    -2.3150 C.3   1 <1>  -0.2400 
 11 O       -4.2540    -3.9970    -1.5030 O.3   1 <1>  -0.0190 
 12 N       -5.7740    -3.3680    -0.0750 N.2   1 <1>  -0.5650 
 13 N       -4.9650    -5.0360    -1.2020 N.2   1 <1>  -0.4100 
 14 C       -5.8640    -4.6730    -0.3560 C.2   1 <1>   0.4620 
 15 C       -6.8690    -5.5380     0.2400 C.ar  1 <1>   0.0540 
 16 C       -7.7930    -5.0590     1.1720 C.ar  1 <1>  -0.1500 
 17 C       -6.9510    -6.8910    -0.0960 C.ar  1 <1>  -0.1500 
 18 C       -8.7480    -5.8850     1.7380 C.ar  1 <1>  -0.1500 
 19 C       -7.9030    -7.7230     0.4650 C.ar  1 <1>  -0.1500 
 20 C       -8.8050    -7.2200     1.3850 C.ar  1 <1>  -0.1500 
 21 H       -2.3140    -2.5610    -0.7920 H     1 <1>   0.3700 
 22 H       -4.7100    -1.0190    -0.1980 H     1 <1>   0.0800 
 23 H       -3.6210     2.0540     1.1120 H     1 <1>   0.0800 
 24 H       -4.1930     1.0530    -0.1710 H     1 <1>   0.0800 
 25 H       -3.9480     0.3760     1.4340 H     1 <1>   0.0800 
 26 H       -2.2400     1.4110    -1.7040 H     1 <1>   0.0800 
 27 H       -0.6290     1.4470    -1.0460 H     1 <1>   0.0800 
 28 H       -1.7930     2.6550    -0.5630 H     1 <1>   0.0800 
 29 H       -1.5220     0.4510     2.4100 H     1 <1>   0.0800 
 30 H       -1.4070     2.1050     1.8600 H     1 <1>   0.0800 
 31 H       -0.2110     0.9390     1.3730 H     1 <1>   0.0800 
 32 H       -3.8450    -1.6680    -3.0350 H     1 <1>   0.0800 
 33 H       -3.9930    -0.0550    -2.3670 H     1 <1>   0.0800 
 34 H       -5.4090    -1.0500    -2.5690 H     1 <1>   0.0800 
 35 H       -7.7640    -4.0230     1.4600 H     1 <1>   0.1500 
 36 H       -6.2570    -7.3000    -0.8100 H     1 <1>   0.1500 
 37 H       -9.4470    -5.4880     2.4530 H     1 <1>   0.1500 
 38 H       -7.9430    -8.7620     0.1870 H     1 <1>   0.1500 
 39 H       -9.5470    -7.8650     1.8230 H     1 <1>   0.1500 
@<TRIPOS>BOND
  1   1   2  2   
  2   2   3  am  
  3   2   4  1   
  4   3   5  1   
  5   3  21  1   
  6   4   6  1   
  7   4   7  1   
  8   4   8  1   
  9   5   9  1   
 10   5  10  1   
 11   5  22  1   
 12   6  23  1   
 13   6  24  1   
 14   6  25  1   
 15   7  26  1   
 16   7  27  1   
 17   7  28  1   
 18   8  29  1   
 19   8  30  1   
 20   8  31  1   
 21   9  11  1   
 22   9  12  2   
 23  10  32  1   
 24  10  33  1   
 25  10  34  1   
 26  11  13  1   
 27  12  14  1   
 28  13  14  2   
 29  14  15  1   
 30  15  16  ar  
 31  15  17  ar  
 32  16  18  ar  
 33  16  35  1   
 34  17  19  ar  
 35  17  36  1   
 36  18  20  ar  
 37  18  37  1   
 38  19  20  ar  
 39  19  38  1   
 40  20  39  1   
@<TRIPOS>SUBSTRUCTURE
  1 ****   9 GROUP 4 **** **** 0

# MOE 2024.06 (io_trps.svl 2023.06)
