@<TRIPOS>MOLECULE
[1-(3-Chloro-4-methoxy-benzenesulfonyl)-piperidin-4-yl]-(4-ethyl-piperazin-1-yl)
57 59 1 0 0 
SMALL
USER_CHARGES


@<TRIPOS>ATOM
  1 CL       1.7910     1.4250    -3.6030 Cl    1 <1>  -0.1770 
  2 C        2.1460     1.2470    -1.8990 C.ar  1 <1>   0.1770 
  3 C        1.9980     0.0160    -1.2730 C.ar  1 <1>   0.0820 
  4 C        2.5800     2.3610    -1.2080 C.ar  1 <1>  -0.1500 
  5 O        1.5720    -1.0400    -2.0130 O.3   1 <1>  -0.3630 
  6 C        2.2950    -0.0720     0.0840 C.ar  1 <1>  -0.1500 
  7 C        2.8960     2.2800     0.1430 C.ar  1 <1>  -0.0090 
  8 C        1.2960    -2.2960    -1.4320 C.3   1 <1>   0.0400 
  9 C        2.7370     1.0470     0.7710 C.ar  1 <1>  -0.1500 
 10 S        3.5310     3.7250     1.0440 S.o2  1 <1>   1.4470 
 11 O        2.9940     4.9210     0.4330 O.2   1 <1>  -0.6500 
 12 O        3.3660     3.4880     2.4620 O.2   1 <1>  -0.6500 
 13 N        5.1990     3.6860     0.7170 N.am  1 <1>  -0.8490 
 14 C        5.5420     3.9660    -0.6780 C.3   1 <1>   0.1960 
 15 C        5.8890     2.5270     1.2830 C.3   1 <1>   0.1960 
 16 C        7.0500     4.1730    -0.8200 C.3   1 <1>  -0.1600 
 17 C        7.4070     2.7030     1.1730 C.3   1 <1>  -0.1600 
 18 C        7.8440     2.9690    -0.2790 C.3   1 <1>  -0.0190 
 19 C        9.3580     3.1910    -0.3850 C.2   1 <1>   0.5690 
 20 O        9.8030     4.2720    -0.0850 O.2   1 <1>  -0.5700 
 21 N       10.2070     2.1930    -0.8050 N.am  1 <1>  -0.6600 
 22 C       11.6040     2.5290    -1.2270 C.3   1 <1>   0.1400 
 23 C        9.9520     0.7260    -0.6740 C.3   1 <1>   0.1400 
 24 C       12.6260     1.8840    -0.2770 C.3   1 <1>   0.3430 
 25 C       11.0120     0.0680     0.2390 C.3   1 <1>   0.3430 
 26 N       12.4250     0.3910    -0.1730 N.4   1 <1>  -0.9590 
 27 C       13.3990    -0.2380     0.7580 C.3   1 <1>   0.3430 
 28 C       14.7860    -0.2430     0.1250 C.3   1 <1>  -0.2400 
 29 H        2.6700     3.2990    -1.7290 H     1 <1>   0.1500 
 30 H        2.1890    -0.9980     0.6180 H     1 <1>   0.1500 
 31 H        0.9370    -2.9490    -2.2070 H     1 <1>   0.0800 
 32 H        0.5390    -2.1740    -0.6780 H     1 <1>   0.0800 
 33 H        2.2020    -2.6950    -1.0110 H     1 <1>   0.0800 
 34 H        2.9610     0.9630     1.8230 H     1 <1>   0.1500 
 35 H        5.0410     4.8630    -1.0030 H     1 <1>   0.0800 
 36 H        5.2270     3.1510    -1.3080 H     1 <1>   0.0800 
 37 H        5.5840     1.6320     0.7680 H     1 <1>   0.0800 
 38 H        5.6290     2.4260     2.3250 H     1 <1>   0.0800 
 39 H        7.3210     5.0660    -0.2810 H     1 <1>   0.0800 
 40 H        7.2930     4.3340    -1.8550 H     1 <1>   0.0800 
 41 H        7.8930     1.8250     1.5540 H     1 <1>   0.0800 
 42 H        7.6990     3.5340     1.7930 H     1 <1>   0.0800 
 43 H        7.5770     2.1230    -0.8840 H     1 <1>   0.0800 
 44 H       11.7570     3.5960    -1.2340 H     1 <1>   0.0800 
 45 H       11.7670     2.1800    -2.2310 H     1 <1>   0.0800 
 46 H        9.9770     0.2730    -1.6500 H     1 <1>   0.0800 
 47 H        8.9800     0.5450    -0.2530 H     1 <1>   0.0800 
 48 H       12.5200     2.3380     0.6950 H     1 <1>   0.0800 
 49 H       13.6180     2.1010    -0.6360 H     1 <1>   0.0800 
 50 H       10.8660    -1.0000     0.2320 H     1 <1>   0.0800 
 51 H       10.8480     0.4140     1.2470 H     1 <1>   0.0800 
 52 H       12.5800    -0.0090    -1.1080 H     1 <1>   0.4500 
 53 H       13.1060    -1.2570     0.9560 H     1 <1>   0.0800 
 54 H       13.4190     0.2960     1.6950 H     1 <1>   0.0800 
 55 H       14.7760    -0.7550    -0.8200 H     1 <1>   0.0800 
 56 H       15.4640    -0.7670     0.7760 H     1 <1>   0.0800 
 57 H       15.1670     0.7530    -0.0030 H     1 <1>   0.0800 
@<TRIPOS>BOND
  1   1   2  1   
  2   2   3  ar  
  3   2   4  ar  
  4   3   5  1   
  5   3   6  ar  
  6   4   7  ar  
  7   4  29  1   
  8   5   8  1   
  9   6   9  ar  
 10   6  30  1   
 11   7   9  ar  
 12   7  10  1   
 13   8  31  1   
 14   8  32  1   
 15   8  33  1   
 16   9  34  1   
 17  10  11  2   
 18  10  12  2   
 19  10  13  am  
 20  13  14  1   
 21  13  15  1   
 22  14  16  1   
 23  14  35  1   
 24  14  36  1   
 25  15  17  1   
 26  15  37  1   
 27  15  38  1   
 28  16  18  1   
 29  16  39  1   
 30  16  40  1   
 31  17  18  1   
 32  17  41  1   
 33  17  42  1   
 34  18  19  1   
 35  18  43  1   
 36  19  20  2   
 37  19  21  am  
 38  21  22  1   
 39  21  23  1   
 40  22  24  1   
 41  22  44  1   
 42  22  45  1   
 43  23  25  1   
 44  23  46  1   
 45  23  47  1   
 46  24  26  1   
 47  24  48  1   
 48  24  49  1   
 49  25  26  1   
 50  25  50  1   
 51  25  51  1   
 52  26  27  1   
 53  26  52  1   
 54  27  28  1   
 55  27  53  1   
 56  27  54  1   
 57  28  55  1   
 58  28  56  1   
 59  28  57  1   
@<TRIPOS>SUBSTRUCTURE
  1 ****  18 GROUP 4 **** **** 0

# MOE 2024.06 (io_trps.svl 2023.06)
