@<TRIPOS>MOLECULE
(2,2-Dimethyl-5-morpholin-4-yl-1,4-dihydro-2H-3-oxa-7-thia-6,9,11-triaza-benzo[c
58 62 1 0 0 
SMALL
USER_CHARGES


@<TRIPOS>ATOM
  1 S       -0.6900    -0.4930    -0.3270 S.3   1 <1>  -0.0800 
  2 C       -2.1530     0.4820    -0.1780 C.ar  1 <1>   0.2970 
  3 C        0.3590     0.9240    -0.1390 C.ar  1 <1>   0.0400 
  4 N       -3.3310    -0.0890    -0.2230 N.ar  1 <1>  -0.5670 
  5 C       -1.8390     1.8290    -0.0200 C.ar  1 <1>   0.0000 
  6 C        1.7580     0.9910    -0.1240 C.ar  1 <1>   0.4100 
  7 C       -0.4170     2.0410     0.0240 C.ar  1 <1>   0.3070 
  8 C       -4.3450     0.7540    -0.0920 C.ar  1 <1>   0.4100 
  9 C       -2.9230     2.7090     0.0710 C.ar  1 <1>  -0.1430 
 10 N        2.3530     2.1750     0.0690 N.ar  1 <1>  -0.6200 
 11 N        2.6230    -0.0190    -0.2810 N.pl3 1 <1>  -0.8690 
 12 N        0.2480     3.2060     0.2280 N.ar  1 <1>  -0.1250 
 13 N       -5.5980     0.1950    -0.1090 N.pl3 1 <1>  -0.8380 
 14 C       -4.1820     2.1410     0.0570 C.ar  1 <1>  -0.1430 
 15 C       -2.7970     4.2260     0.1870 C.3   1 <1>  -0.0170 
 16 C        1.6020     3.2260     0.2400 C.ar  1 <1>   0.5210 
 17 C        2.3610    -1.4660    -0.5250 C.3   1 <1>   0.2090 
 18 C       -6.1460    -0.3240     1.1810 C.3   1 <1>   0.2090 
 19 C       -5.9900    -0.6550    -1.2780 C.3   1 <1>   0.2090 
 20 C       -5.4400     2.9980     0.1810 C.3   1 <1>   0.2630 
 21 C       -4.1130     4.9580    -0.1420 C.3   1 <1>   0.2800 
 22 C        3.6710    -2.2310    -0.7200 C.3   1 <1>   0.1200 
 23 C       -5.9190    -1.8410     1.3210 C.3   1 <1>   0.1200 
 24 C       -5.7900    -2.1550    -0.9890 C.3   1 <1>   0.1200 
 25 O       -5.1420     4.3210     0.5380 O.3   1 <1>  -0.5600 
 26 C       -4.0860     6.3870     0.4000 C.3   1 <1>  -0.2400 
 27 C       -4.4160     4.9980    -1.6500 C.3   1 <1>  -0.2400 
 28 O        3.3630    -3.5690    -0.9460 O.3   1 <1>  -0.5600 
 29 O       -6.4180    -2.5250     0.2060 O.3   1 <1>  -0.5600 
 30 C        4.4750    -4.3810    -1.1410 C.3   1 <1>   0.0400 
 31 H        3.6170     0.2250    -0.2270 H     1 <1>   0.4000 
 32 H       -0.2760     4.0650     0.3870 H     1 <1>   0.4570 
 33 H       -2.0460     4.5960    -0.4840 H     1 <1>   0.0800 
 34 H       -2.5150     4.4700     1.1960 H     1 <1>   0.0800 
 35 H        2.0920     4.1740     0.4040 H     1 <1>   0.1500 
 36 H        1.7600    -1.5780    -1.4120 H     1 <1>   0.0800 
 37 H        1.8360    -1.8830     0.3170 H     1 <1>   0.0800 
 38 H       -7.2020    -0.1200     1.2250 H     1 <1>   0.0800 
 39 H       -5.6750     0.1810     2.0060 H     1 <1>   0.0800 
 40 H       -5.4050    -0.3790    -2.1380 H     1 <1>   0.0800 
 41 H       -7.0250    -0.4770    -1.5120 H     1 <1>   0.0800 
 42 H       -6.0840     2.6040     0.9470 H     1 <1>   0.0800 
 43 H       -5.9870     3.0030    -0.7450 H     1 <1>   0.0800 
 44 H        4.2790    -2.1640     0.1650 H     1 <1>   0.0800 
 45 H        4.2020    -1.8530    -1.5760 H     1 <1>   0.0800 
 46 H       -6.4290    -2.2140     2.1910 H     1 <1>   0.0800 
 47 H       -4.8690    -2.0550     1.4150 H     1 <1>   0.0800 
 48 H       -4.7420    -2.3860    -0.9130 H     1 <1>   0.0800 
 49 H       -6.2160    -2.7450    -1.7810 H     1 <1>   0.0800 
 50 H       -3.9400     6.3850     1.4660 H     1 <1>   0.0800 
 51 H       -5.0190     6.8780     0.1860 H     1 <1>   0.0800 
 52 H       -3.2950     6.9540    -0.0570 H     1 <1>   0.0800 
 53 H       -4.3590     4.0220    -2.0950 H     1 <1>   0.0800 
 54 H       -3.7050     5.6270    -2.1530 H     1 <1>   0.0800 
 55 H       -5.3980     5.4060    -1.8170 H     1 <1>   0.0800 
 56 H        4.1290    -5.3870    -1.3060 H     1 <1>   0.0800 
 57 H        5.0970    -4.3520    -0.2640 H     1 <1>   0.0800 
 58 H        5.0190    -4.0400    -2.0050 H     1 <1>   0.0800 
@<TRIPOS>BOND
  1   1   2  1   
  2   1   3  1   
  3   2   4  ar  
  4   2   5  ar  
  5   3   6  ar  
  6   3   7  ar  
  7   4   8  ar  
  8   5   7  1   
  9   5   9  ar  
 10   6  10  ar  
 11   6  11  1   
 12   7  12  ar  
 13   8  13  1   
 14   8  14  ar  
 15   9  14  ar  
 16   9  15  1   
 17  10  16  ar  
 18  11  17  1   
 19  11  31  1   
 20  12  16  ar  
 21  12  32  1   
 22  13  18  1   
 23  13  19  1   
 24  14  20  1   
 25  15  21  1   
 26  15  33  1   
 27  15  34  1   
 28  16  35  1   
 29  17  22  1   
 30  17  36  1   
 31  17  37  1   
 32  18  23  1   
 33  18  38  1   
 34  18  39  1   
 35  19  24  1   
 36  19  40  1   
 37  19  41  1   
 38  20  25  1   
 39  20  42  1   
 40  20  43  1   
 41  21  25  1   
 42  21  26  1   
 43  21  27  1   
 44  22  28  1   
 45  22  44  1   
 46  22  45  1   
 47  23  29  1   
 48  23  46  1   
 49  23  47  1   
 50  24  29  1   
 51  24  48  1   
 52  24  49  1   
 53  26  50  1   
 54  26  51  1   
 55  26  52  1   
 56  27  53  1   
 57  27  54  1   
 58  27  55  1   
 59  28  30  1   
 60  30  56  1   
 61  30  57  1   
 62  30  58  1   
@<TRIPOS>SUBSTRUCTURE
  1 ****   2 GROUP 4 **** **** 0

# MOE 2024.06 (io_trps.svl 2023.06)
