@<TRIPOS>MOLECULE
C-(1-Ethyl-piperidin-2-yl)-methylamine
30 30 1 0 0 
SMALL
USER_CHARGES


@<TRIPOS>ATOM
  1 N       -0.1240     0.0230    -0.0960 N.4   1 <1>  -0.9590 
  2 C        1.2570     0.6280     0.0840 C.3   1 <1>   0.4230 
  3 C       -1.1480     0.8030     0.6820 C.3   1 <1>   0.3430 
  4 C       -0.2700    -1.4270     0.2210 C.3   1 <1>   0.3430 
  5 C        1.2220     2.0700    -0.4490 C.3   1 <1>  -0.1600 
  6 C        2.4440    -0.1220    -0.6160 C.3   1 <1>   0.3430 
  7 C       -1.2090     2.2410     0.1710 C.3   1 <1>  -0.1600 
  8 C       -1.4980    -1.9860    -0.4870 C.3   1 <1>  -0.2400 
  9 C        0.1580     2.9240     0.2490 C.3   1 <1>  -0.1600 
 10 N        3.0980    -1.2400     0.1620 N.4   1 <1>  -0.8530 
 11 H       -0.4010     0.1490    -1.0820 H     1 <1>   0.4500 
 12 H        1.4740     0.6880     1.1380 H     1 <1>   0.0800 
 13 H       -0.8960     0.8040     1.7310 H     1 <1>   0.0800 
 14 H       -2.1250     0.3590     0.5750 H     1 <1>   0.0800 
 15 H       -0.3590    -1.5730     1.2870 H     1 <1>   0.0800 
 16 H        0.5870    -1.9730    -0.1310 H     1 <1>   0.0800 
 17 H        1.0370     2.0680    -1.5110 H     1 <1>   0.0800 
 18 H        2.1790     2.5400    -0.2930 H     1 <1>   0.0800 
 19 H        3.2060     0.6150    -0.8180 H     1 <1>   0.0800 
 20 H        2.1080    -0.4860    -1.5740 H     1 <1>   0.0800 
 21 H       -1.9160     2.7950     0.7670 H     1 <1>   0.0800 
 22 H       -1.5730     2.2500    -0.8420 H     1 <1>   0.0800 
 23 H       -2.4100    -1.5580    -0.1100 H     1 <1>   0.0800 
 24 H       -1.5520    -3.0470    -0.3150 H     1 <1>   0.0800 
 25 H       -1.4410    -1.8310    -1.5500 H     1 <1>   0.0800 
 26 H        0.1040     3.8970    -0.2140 H     1 <1>   0.0800 
 27 H        0.4280     3.0740     1.2820 H     1 <1>   0.0800 
 28 H        3.4890    -0.9220     1.0610 H     1 <1>   0.4500 
 29 H        3.9060    -1.6060    -0.3680 H     1 <1>   0.4500 
 30 H        2.4970    -2.0510     0.3450 H     1 <1>   0.4500 
@<TRIPOS>BOND
  1   1   2  1   
  2   1   3  1   
  3   1   4  1   
  4   1  11  1   
  5   2   5  1   
  6   2   6  1   
  7   2  12  1   
  8   3   7  1   
  9   3  13  1   
 10   3  14  1   
 11   4   8  1   
 12   4  15  1   
 13   4  16  1   
 14   5   9  1   
 15   5  17  1   
 16   5  18  1   
 17   6  10  1   
 18   6  19  1   
 19   6  20  1   
 20   7   9  1   
 21   7  21  1   
 22   7  22  1   
 23   8  23  1   
 24   8  24  1   
 25   8  25  1   
 26   9  26  1   
 27   9  27  1   
 28  10  28  1   
 29  10  29  1   
 30  10  30  1   
@<TRIPOS>SUBSTRUCTURE
  1 ****   1 GROUP 4 **** **** 0

# MOE 2024.06 (io_trps.svl 2023.06)
