@<TRIPOS>MOLECULE
6-Isopropyl-2-oxo-1,2-dihydro-pyrimidine-4-carboxylic acid
22 22 1 0 0 
SMALL
USER_CHARGES


@<TRIPOS>ATOM
  1 O       -0.4170     0.3660     0.6120 O.2   1 <1>  -0.5700 
  2 C       -1.4380     0.9550     0.3060 C.2   1 <1>   0.8410 
  3 N       -1.4080     2.2420    -0.1300 N.2   1 <1>  -0.6610 
  4 N       -2.6130     0.2820     0.4160 N.am  1 <1>  -0.5390 
  5 C       -2.5340     2.8420    -0.4530 C.2   1 <1>   0.2890 
  6 C       -3.8130     0.8450     0.1000 C.2   1 <1>  -0.0290 
  7 C       -2.6230     4.2370    -0.9380 C.2   1 <1>   0.9470 
  8 C       -3.7690     2.1270    -0.3360 C.2   1 <1>  -0.1360 
  9 C       -5.0640    -0.0210     0.2680 C.3   1 <1>   0.0580 
 10 O       -1.6310     4.8970    -1.3120 O.co2 1 <1>  -0.9000 
 11 O       -3.7330     4.8110    -1.0070 O.co2 1 <1>  -0.9000 
 12 C       -5.1020    -1.1070    -0.8140 C.3   1 <1>  -0.2400 
 13 C       -6.3670     0.7880     0.2360 C.3   1 <1>  -0.2400 
 14 H       -2.5110    -0.6730     0.7470 H     1 <1>   0.3700 
 15 H       -4.6610     2.6580    -0.6140 H     1 <1>   0.1500 
 16 H       -5.0050    -0.4990     1.2320 H     1 <1>   0.0800 
 17 H       -5.1400    -0.6550    -1.7900 H     1 <1>   0.0800 
 18 H       -5.9660    -1.7340    -0.6870 H     1 <1>   0.0800 
 19 H       -4.2230    -1.7230    -0.7590 H     1 <1>   0.0800 
 20 H       -6.5130     1.2380    -0.7310 H     1 <1>   0.0800 
 21 H       -6.3370     1.5660     0.9790 H     1 <1>   0.0800 
 22 H       -7.2070     0.1510     0.4450 H     1 <1>   0.0800 
@<TRIPOS>BOND
  1   1   2  2   
  2   2   3  1   
  3   2   4  am  
  4   3   5  2   
  5   4   6  1   
  6   4  14  1   
  7   5   7  1   
  8   5   8  1   
  9   6   8  2   
 10   6   9  1   
 11   7  10  ar  
 12   7  11  ar  
 13   8  15  1   
 14   9  12  1   
 15   9  13  1   
 16   9  16  1   
 17  12  17  1   
 18  12  18  1   
 19  12  19  1   
 20  13  20  1   
 21  13  21  1   
 22  13  22  1   
@<TRIPOS>SUBSTRUCTURE
  1 ****   8 GROUP 4 **** **** 0

# MOE 2024.06 (io_trps.svl 2023.06)
