@<TRIPOS>MOLECULE
1-(2,5-Dimethoxy-benzenesulfonyl)-piperidine-4-carboxylic acid o-tolylamide
55 57 1 0 0 
SMALL
USER_CHARGES


@<TRIPOS>ATOM
  1 S       -0.0400    -0.4530     1.4390 S.o2  1 <1>   1.4470 
  2 O        0.1960    -1.7920     1.9370 O.2   1 <1>  -0.6500 
  3 O       -0.2910     0.5850     2.4180 O.2   1 <1>  -0.6500 
  4 N        1.3700    -0.0030     0.6070 N.am  1 <1>  -0.8490 
  5 C       -1.3250    -0.5570     0.1610 C.ar  1 <1>  -0.0090 
  6 C        2.5520    -0.2160     1.4470 C.3   1 <1>   0.1960 
  7 C        1.2970     1.3750     0.1080 C.3   1 <1>   0.1960 
  8 C       -2.1020     0.5370    -0.2130 C.ar  1 <1>   0.0820 
  9 C       -1.5470    -1.7620    -0.4970 C.ar  1 <1>  -0.1500 
 10 C        3.8340     0.0850     0.6680 C.3   1 <1>  -0.1600 
 11 C        2.5430     1.7210    -0.7110 C.3   1 <1>  -0.1600 
 12 O       -1.9110     1.7460     0.3570 O.3   1 <1>  -0.3620 
 13 C       -3.0690     0.4290    -1.2020 C.ar  1 <1>  -0.1500 
 14 C       -2.5190    -1.8840    -1.4850 C.ar  1 <1>   0.0820 
 15 C        3.8250     1.5170     0.1110 C.3   1 <1>  -0.0190 
 16 C       -2.8620     2.1390     1.3220 C.3   1 <1>   0.0400 
 17 C       -3.2780    -0.7810    -1.8330 C.ar  1 <1>  -0.1500 
 18 O       -2.7800    -3.0390    -2.1500 O.3   1 <1>  -0.3630 
 19 C        5.0800     1.8160    -0.7090 C.2   1 <1>   0.5690 
 20 C       -2.0580    -4.2200    -1.8750 C.3   1 <1>   0.0400 
 21 O        5.3020     1.1580    -1.6960 O.2   1 <1>  -0.5700 
 22 N        5.9000     2.8180    -0.2640 N.am  1 <1>  -0.5470 
 23 C        7.1000     3.3430    -0.7740 C.ar  1 <1>   0.1170 
 24 C        7.9650     4.0330     0.0790 C.ar  1 <1>  -0.1430 
 25 C        7.4480     3.2160    -2.1170 C.ar  1 <1>  -0.1500 
 26 C        9.1430     4.5710    -0.4160 C.ar  1 <1>  -0.1500 
 27 C        7.6490     4.2090     1.5600 C.3   1 <1>  -0.0970 
 28 C        8.6250     3.7530    -2.6030 C.ar  1 <1>  -0.1500 
 29 C        9.4750     4.4320    -1.7520 C.ar  1 <1>  -0.1500 
 30 H        2.5860    -1.2430     1.7730 H     1 <1>   0.0800 
 31 H        2.4930     0.4100     2.3230 H     1 <1>   0.0800 
 32 H        1.1940     2.0620     0.9320 H     1 <1>   0.0800 
 33 H        0.4380     1.4850    -0.5310 H     1 <1>   0.0800 
 34 H       -0.9430    -2.6060    -0.2180 H     1 <1>   0.1500 
 35 H        3.9220    -0.6210    -0.1400 H     1 <1>   0.0800 
 36 H        4.6840    -0.0500     1.3130 H     1 <1>   0.0800 
 37 H        2.4800     2.7430    -1.0410 H     1 <1>   0.0800 
 38 H        2.5670     1.0960    -1.5870 H     1 <1>   0.0800 
 39 H       -3.6490     1.2910    -1.4790 H     1 <1>   0.1500 
 40 H        3.7930     2.1960     0.9440 H     1 <1>   0.0800 
 41 H       -2.5610     3.0900     1.7220 H     1 <1>   0.0800 
 42 H       -2.8860     1.4050     2.1080 H     1 <1>   0.0800 
 43 H       -3.8270     2.2230     0.8550 H     1 <1>   0.0800 
 44 H       -4.0260    -0.8790    -2.6000 H     1 <1>   0.1500 
 45 H       -2.4340    -4.9980    -2.5150 H     1 <1>   0.0800 
 46 H       -2.2100    -4.4900    -0.8440 H     1 <1>   0.0800 
 47 H       -1.0160    -4.0500    -2.0800 H     1 <1>   0.0800 
 48 H        5.6260     3.2370     0.6200 H     1 <1>   0.3700 
 49 H        6.7980     2.6970    -2.7960 H     1 <1>   0.1500 
 50 H        9.8150     5.1030     0.2330 H     1 <1>   0.1500 
 51 H        7.4850     3.2510     2.0200 H     1 <1>   0.0800 
 52 H        6.7730     4.8200     1.6810 H     1 <1>   0.0800 
 53 H        8.4650     4.6870     2.0720 H     1 <1>   0.0800 
 54 H        8.8770     3.6410    -3.6430 H     1 <1>   0.1500 
 55 H       10.3920     4.8520    -2.1270 H     1 <1>   0.1500 
@<TRIPOS>BOND
  1   1   2  2   
  2   1   3  2   
  3   1   4  am  
  4   1   5  1   
  5   4   6  1   
  6   4   7  1   
  7   5   8  ar  
  8   5   9  ar  
  9   6  10  1   
 10   6  30  1   
 11   6  31  1   
 12   7  11  1   
 13   7  32  1   
 14   7  33  1   
 15   8  12  1   
 16   8  13  ar  
 17   9  14  ar  
 18   9  34  1   
 19  10  15  1   
 20  10  35  1   
 21  10  36  1   
 22  11  15  1   
 23  11  37  1   
 24  11  38  1   
 25  12  16  1   
 26  13  17  ar  
 27  13  39  1   
 28  14  17  ar  
 29  14  18  1   
 30  15  19  1   
 31  15  40  1   
 32  16  41  1   
 33  16  42  1   
 34  16  43  1   
 35  17  44  1   
 36  18  20  1   
 37  19  21  2   
 38  19  22  am  
 39  20  45  1   
 40  20  46  1   
 41  20  47  1   
 42  22  23  1   
 43  22  48  1   
 44  23  24  ar  
 45  23  25  ar  
 46  24  26  ar  
 47  24  27  1   
 48  25  28  ar  
 49  25  49  1   
 50  26  29  ar  
 51  26  50  1   
 52  27  51  1   
 53  27  52  1   
 54  27  53  1   
 55  28  29  ar  
 56  28  54  1   
 57  29  55  1   
@<TRIPOS>SUBSTRUCTURE
  1 ****  11 GROUP 4 **** **** 0

# MOE 2024.06 (io_trps.svl 2023.06)
