@<TRIPOS>MOLECULE
1-(5-Chloro-2-ethoxy-benzenesulfonyl)-piperidine-4-carboxylic acid (3-hydroxy-pr
51 52 1 0 0 
SMALL
USER_CHARGES


@<TRIPOS>ATOM
  1 CL      -0.1350     0.6480    -2.4850 Cl    1 <1>  -0.1770 
  2 C        0.0120     2.2780    -1.8790 C.ar  1 <1>   0.1770 
  3 C        0.8750     2.5360    -0.8310 C.ar  1 <1>  -0.1500 
  4 C       -0.7370     3.2830    -2.4570 C.ar  1 <1>  -0.1500 
  5 C        1.0100     3.8230    -0.3200 C.ar  1 <1>  -0.0090 
  6 C       -0.6100     4.5710    -1.9720 C.ar  1 <1>  -0.1500 
  7 S        2.1560     4.1340     1.0540 S.o2  1 <1>   1.4470 
  8 C        0.2540     4.8340    -0.9160 C.ar  1 <1>   0.0830 
  9 O        2.3590     2.8760     1.7410 O.2   1 <1>  -0.6500 
 10 O        1.7790     5.2780     1.8580 O.2   1 <1>  -0.6500 
 11 N        3.6320     4.5190     0.3090 N.am  1 <1>  -0.8490 
 12 O        0.3690     6.1090    -0.4980 O.3   1 <1>  -0.3630 
 13 C        4.7390     4.4080     1.2640 C.3   1 <1>   0.1960 
 14 C        3.6010     5.8400    -0.3300 C.3   1 <1>   0.1960 
 15 C       -0.6800     6.6190     0.2920 C.3   1 <1>   0.1200 
 16 C        6.0820     4.6350     0.5670 C.3   1 <1>  -0.1600 
 17 C        4.9090     6.1100    -1.0770 C.3   1 <1>  -0.1600 
 18 C       -0.2800     8.0140     0.7590 C.3   1 <1>  -0.2400 
 19 C        6.1220     5.9980    -0.1400 C.3   1 <1>  -0.0190 
 20 C        7.4400     6.2060    -0.8840 C.2   1 <1>   0.5690 
 21 O        7.7220     5.4870    -1.8110 O.2   1 <1>  -0.5700 
 22 N        8.2670     7.2060    -0.4770 N.am  1 <1>  -0.7300 
 23 C        9.5820     7.5090    -1.0800 C.3   1 <1>   0.1400 
 24 C       10.6260     7.6300     0.0290 C.3   1 <1>  -0.1600 
 25 C       12.0060     7.9030    -0.5640 C.3   1 <1>   0.1200 
 26 O       12.9150     7.9940     0.4720 O.3   1 <1>  -0.6800 
 27 H        1.4450     1.7250    -0.4100 H     1 <1>   0.1500 
 28 H       -1.4010     3.0580    -3.2730 H     1 <1>   0.1500 
 29 H       -1.1720     5.3750    -2.4150 H     1 <1>   0.1500 
 30 H        4.7460     3.4220     1.7000 H     1 <1>   0.0800 
 31 H        4.6060     5.1230     2.0600 H     1 <1>   0.0800 
 32 H        3.4330     6.6050     0.4110 H     1 <1>   0.0800 
 33 H        2.7970     5.8800    -1.0430 H     1 <1>   0.0800 
 34 H       -0.8230     5.9640     1.1350 H     1 <1>   0.0800 
 35 H       -1.5760     6.6530    -0.3020 H     1 <1>   0.0800 
 36 H        6.2370     3.8470    -0.1510 H     1 <1>   0.0800 
 37 H        6.8750     4.5770     1.2910 H     1 <1>   0.0800 
 38 H        4.8760     7.0920    -1.5120 H     1 <1>   0.0800 
 39 H        5.0020     5.3990    -1.8800 H     1 <1>   0.0800 
 40 H        0.6150     7.9570     1.3540 H     1 <1>   0.0800 
 41 H       -1.0640     8.4350     1.3620 H     1 <1>   0.0800 
 42 H       -0.1120     8.6570    -0.0870 H     1 <1>   0.0800 
 43 H        6.0340     6.7640     0.6090 H     1 <1>   0.0800 
 44 H        7.9890     7.8040     0.3010 H     1 <1>   0.3700 
 45 H        9.5140     8.4300    -1.6330 H     1 <1>   0.0800 
 46 H        9.8620     6.7230    -1.7630 H     1 <1>   0.0800 
 47 H       10.6610     6.7040     0.5780 H     1 <1>   0.0800 
 48 H       10.3530     8.4330     0.6890 H     1 <1>   0.0800 
 49 H       12.0260     8.8270    -1.1160 H     1 <1>   0.0800 
 50 H       12.3180     7.0950    -1.2050 H     1 <1>   0.0800 
 51 H       12.6910     8.7340     1.0690 H     1 <1>   0.4000 
@<TRIPOS>BOND
  1   1   2  1   
  2   2   3  ar  
  3   2   4  ar  
  4   3   5  ar  
  5   3  27  1   
  6   4   6  ar  
  7   4  28  1   
  8   5   7  1   
  9   5   8  ar  
 10   6   8  ar  
 11   6  29  1   
 12   7   9  2   
 13   7  10  2   
 14   7  11  am  
 15   8  12  1   
 16  11  13  1   
 17  11  14  1   
 18  12  15  1   
 19  13  16  1   
 20  13  30  1   
 21  13  31  1   
 22  14  17  1   
 23  14  32  1   
 24  14  33  1   
 25  15  18  1   
 26  15  34  1   
 27  15  35  1   
 28  16  19  1   
 29  16  36  1   
 30  16  37  1   
 31  17  19  1   
 32  17  38  1   
 33  17  39  1   
 34  18  40  1   
 35  18  41  1   
 36  18  42  1   
 37  19  20  1   
 38  19  43  1   
 39  20  21  2   
 40  20  22  am  
 41  22  23  1   
 42  22  44  1   
 43  23  24  1   
 44  23  45  1   
 45  23  46  1   
 46  24  25  1   
 47  24  47  1   
 48  24  48  1   
 49  25  26  1   
 50  25  49  1   
 51  25  50  1   
 52  26  51  1   
@<TRIPOS>SUBSTRUCTURE
  1 ****  14 GROUP 4 **** **** 0

# MOE 2024.06 (io_trps.svl 2023.06)
