@<TRIPOS>MOLECULE
7-(2-Methoxy-ethyl)-1,3-dimethyl-8-(3-methyl-piperidin-1-ylmethyl)-3,7-dihydro-p
53 55 1 0 0 
SMALL
USER_CHARGES


@<TRIPOS>ATOM
  1 O        0.4030     0.1970     0.8510 O.2   1 <1>  -0.5700 
  2 C        1.3920     0.8410     0.5670 C.2   1 <1>   0.6900 
  3 N        1.2600     2.0930    -0.0260 N.am  1 <1>  -0.4200 
  4 N        2.6520     0.3240     0.8280 N.am  1 <1>  -0.4360 
  5 C        2.3730     2.8250    -0.4190 C.2   1 <1>   0.7030 
  6 C       -0.1160     2.6300    -0.2740 C.3   1 <1>   0.0600 
  7 C        3.7520     1.0590     0.4280 C.2   1 <1>   0.4260 
  8 C        2.8190    -1.0050     1.4880 C.3   1 <1>   0.0600 
  9 O        2.2470     3.9160    -0.9470 O.2   1 <1>  -0.5700 
 10 C        3.6730     2.2660    -0.1810 C.2   1 <1>   0.2770 
 11 N        5.0620     0.7360     0.5500 N.pl3 1 <1>  -0.7000 
 12 N        4.9890     2.6760    -0.4340 N.pl3 1 <1>  -0.7640 
 13 C        5.7870     1.7160     0.0260 C.cat 1 <1>   0.6560 
 14 C        5.3610     3.9550    -1.1140 C.3   1 <1>   0.3540 
 15 C        7.3240     1.6570     0.0060 C.3   1 <1>   0.2540 
 16 C        5.2430     5.1480    -0.1620 C.3   1 <1>   0.1200 
 17 N        7.8160     0.2850     0.3090 N.3   1 <1>  -0.8100 
 18 O        6.0680     6.1610    -0.6390 O.3   1 <1>  -0.5600 
 19 C        7.7980    -0.5750    -0.8940 C.3   1 <1>   0.1100 
 20 C        9.1640     0.3160     0.9020 C.3   1 <1>   0.1100 
 21 C        5.9700     7.3580     0.0680 C.3   1 <1>   0.0400 
 22 C        8.1480    -2.0240    -0.5190 C.3   1 <1>  -0.0800 
 23 C        9.5650    -1.0940     1.3450 C.3   1 <1>  -0.1600 
 24 C        9.5160    -2.0840     0.1750 C.3   1 <1>  -0.1600 
 25 C        8.1390    -2.9240    -1.7600 C.3   1 <1>  -0.2400 
 26 H       -0.5200     2.1860    -1.1670 H     1 <1>   0.0800 
 27 H       -0.1010     3.7000    -0.3910 H     1 <1>   0.0800 
 28 H       -0.7620     2.3910     0.5530 H     1 <1>   0.0800 
 29 H        1.9270    -1.2760     2.0280 H     1 <1>   0.0800 
 30 H        3.6360    -0.9750     2.1870 H     1 <1>   0.0800 
 31 H        3.0120    -1.7580     0.7430 H     1 <1>   0.0800 
 32 H        5.5120    -0.0980     0.9430 H     1 <1>   0.4500 
 33 H        4.7220     4.1150    -1.9670 H     1 <1>   0.0800 
 34 H        6.3760     3.8910    -1.4640 H     1 <1>   0.0800 
 35 H        7.6800     2.3400     0.7570 H     1 <1>   0.0800 
 36 H        7.6980     1.9820    -0.9480 H     1 <1>   0.0800 
 37 H        5.5790     4.8850     0.8260 H     1 <1>   0.0800 
 38 H        4.2280     5.5070    -0.1320 H     1 <1>   0.0800 
 39 H        8.5100    -0.2100    -1.6160 H     1 <1>   0.0800 
 40 H        6.8210    -0.5600    -1.3460 H     1 <1>   0.0800 
 41 H        9.1730     0.9630     1.7630 H     1 <1>   0.0800 
 42 H        9.8780     0.6900     0.1850 H     1 <1>   0.0800 
 43 H        6.6480     8.0660    -0.3760 H     1 <1>   0.0800 
 44 H        6.2430     7.1920     1.0960 H     1 <1>   0.0800 
 45 H        4.9630     7.7330    -0.0010 H     1 <1>   0.0800 
 46 H        7.3970    -2.3850     0.1630 H     1 <1>   0.0800 
 47 H        8.9000    -1.4180     2.1260 H     1 <1>   0.0800 
 48 H       10.5610    -1.0700     1.7530 H     1 <1>   0.0800 
 49 H       10.2910    -1.8350    -0.5300 H     1 <1>   0.0800 
 50 H        9.7040    -3.0810     0.5360 H     1 <1>   0.0800 
 51 H        8.8760    -2.5990    -2.4740 H     1 <1>   0.0800 
 52 H        7.1730    -2.9080    -2.2320 H     1 <1>   0.0800 
 53 H        8.3610    -3.9400    -1.4830 H     1 <1>   0.0800 
@<TRIPOS>BOND
  1   1   2  2   
  2   2   3  am  
  3   2   4  am  
  4   3   5  am  
  5   3   6  1   
  6   4   7  1   
  7   4   8  1   
  8   5   9  2   
  9   5  10  1   
 10   6  26  1   
 11   6  27  1   
 12   6  28  1   
 13   7  10  2   
 14   7  11  1   
 15   8  29  1   
 16   8  30  1   
 17   8  31  1   
 18  10  12  1   
 19  11  13  ar  
 20  11  32  1   
 21  12  13  ar  
 22  12  14  1   
 23  13  15  1   
 24  14  16  1   
 25  14  33  1   
 26  14  34  1   
 27  15  17  1   
 28  15  35  1   
 29  15  36  1   
 30  16  18  1   
 31  16  37  1   
 32  16  38  1   
 33  17  19  1   
 34  17  20  1   
 35  18  21  1   
 36  19  22  1   
 37  19  39  1   
 38  19  40  1   
 39  20  23  1   
 40  20  41  1   
 41  20  42  1   
 42  21  43  1   
 43  21  44  1   
 44  21  45  1   
 45  22  24  1   
 46  22  25  1   
 47  22  46  1   
 48  23  24  1   
 49  23  47  1   
 50  23  48  1   
 51  24  49  1   
 52  24  50  1   
 53  25  51  1   
 54  25  52  1   
 55  25  53  1   
@<TRIPOS>SUBSTRUCTURE
  1 ****  13 GROUP 4 **** **** 0

# MOE 2024.06 (io_trps.svl 2023.06)
