@<TRIPOS>MOLECULE
8-(4-Ethyl-piperazin-1-yl)-3-methyl-7-(4-methyl-benzyl)-3,7-dihydro-purine-2,6-d
56 59 1 0 0 
SMALL
USER_CHARGES


@<TRIPOS>ATOM
  1 O        0.2520    -0.3380     2.5910 O.2   1 <1>  -0.5740 
  2 C        1.2590     0.2900     2.3630 C.2   1 <1>   0.6870 
  3 N        2.2520    -0.1840     1.5180 N.am  1 <1>  -0.4410 
  4 N        1.4190     1.5030     2.9650 N.am  1 <1>  -0.4950 
  5 C        3.3740     0.6120     1.3350 C.2   1 <1>   0.4210 
  6 C        2.1130    -1.5090     0.8440 C.3   1 <1>   0.0530 
  7 C        2.5180     2.2950     2.7960 C.2   1 <1>   0.7000 
  8 N        4.4700     0.3380     0.5800 N.pl3 1 <1>  -0.7030 
  9 C        3.5500     1.8170     1.9190 C.2   1 <1>   0.2710 
 10 O        2.5830     3.3500     3.3930 O.2   1 <1>  -0.5740 
 11 C        5.3370     1.3480     0.6940 C.cat 1 <1>   1.0690 
 12 N        4.8020     2.3000     1.4770 N.pl3 1 <1>  -0.7670 
 13 N        6.5520     1.3070     0.0850 N.pl3 1 <1>  -0.5960 
 14 C        5.2010     3.7150     1.7640 C.3   1 <1>   0.4930 
 15 C        6.7920     0.5620    -1.1980 C.3   1 <1>   0.1610 
 16 C        7.8090     1.8970     0.6590 C.3   1 <1>   0.1610 
 17 C        5.8580     4.4020     0.5720 C.ar  1 <1>  -0.1500 
 18 C        7.5690     1.4190    -2.2230 C.3   1 <1>   0.3380 
 19 C        8.6060     2.7140    -0.3840 C.3   1 <1>   0.3380 
 20 C        6.9360     5.2490     0.7910 C.ar  1 <1>  -0.1570 
 21 C        5.3870     4.2380    -0.7250 C.ar  1 <1>  -0.1570 
 22 N        8.8500     1.9660    -1.6600 N.4   1 <1>  -0.9610 
 23 C        7.5500     5.8940    -0.2690 C.ar  1 <1>  -0.1570 
 24 C        6.0090     4.8750    -1.7840 C.ar  1 <1>  -0.1570 
 25 C        9.5200     2.8760    -2.6280 C.3   1 <1>   0.3380 
 26 C        7.0970     5.7010    -1.5620 C.ar  1 <1>  -0.1500 
 27 C       10.0880     2.0670    -3.7870 C.3   1 <1>  -0.2460 
 28 C        7.7640     6.4230    -2.7200 C.3   1 <1>  -0.1030 
 29 H        0.6750     1.8190     3.5860 H     1 <1>   0.3650 
 30 H        1.1090    -1.8860     0.9450 H     1 <1>   0.0730 
 31 H        2.7870    -2.2190     1.2920 H     1 <1>   0.0730 
 32 H        2.3300    -1.4170    -0.2050 H     1 <1>   0.0730 
 33 H        4.6370    -0.5390     0.0960 H     1 <1>   0.4450 
 34 H        5.8590     3.7300     2.6160 H     1 <1>   0.0730 
 35 H        4.3340     4.2980     2.0210 H     1 <1>   0.0730 
 36 H        5.8570     0.2730    -1.6460 H     1 <1>   0.0730 
 37 H        7.3510    -0.3350    -0.9920 H     1 <1>   0.0730 
 38 H        8.4350     1.0970     1.0150 H     1 <1>   0.0730 
 39 H        7.5890     2.5190     1.5070 H     1 <1>   0.0730 
 40 H        6.9420     2.2390    -2.5360 H     1 <1>   0.0730 
 41 H        7.7820     0.8200    -3.0930 H     1 <1>   0.0730 
 42 H        9.5450     3.0220     0.0450 H     1 <1>   0.0730 
 43 H        8.0490     3.6020    -0.6150 H     1 <1>   0.0730 
 44 H        7.3040     5.4340     1.7880 H     1 <1>   0.1430 
 45 H        4.5210     3.6320    -0.9270 H     1 <1>   0.1430 
 46 H        9.5040     1.1910    -1.4780 H     1 <1>   0.4450 
 47 H        8.3750     6.5630    -0.0820 H     1 <1>   0.1430 
 48 H        5.6270     4.7500    -2.7840 H     1 <1>   0.1430 
 49 H       10.3300     3.3940    -2.1380 H     1 <1>   0.0730 
 50 H        8.8220     3.6140    -2.9920 H     1 <1>   0.0730 
 51 H       10.7670     1.3110    -3.4340 H     1 <1>   0.0730 
 52 H       10.6390     2.7270    -4.4340 H     1 <1>   0.0730 
 53 H        9.3110     1.6150    -4.3760 H     1 <1>   0.0730 
 54 H        7.6290     5.8840    -3.6400 H     1 <1>   0.0730 
 55 H        8.8180     6.5390    -2.5410 H     1 <1>   0.0730 
 56 H        7.3280     7.4000    -2.8320 H     1 <1>   0.0730 
@<TRIPOS>BOND
  1   1   2  2   
  2   2   3  am  
  3   2   4  am  
  4   3   5  1   
  5   3   6  1   
  6   4   7  am  
  7   4  29  1   
  8   5   8  1   
  9   5   9  2   
 10   6  30  1   
 11   6  31  1   
 12   6  32  1   
 13   7   9  1   
 14   7  10  2   
 15   8  11  ar  
 16   8  33  1   
 17   9  12  1   
 18  11  12  ar  
 19  11  13  ar  
 20  12  14  1   
 21  13  15  1   
 22  13  16  1   
 23  14  17  1   
 24  14  34  1   
 25  14  35  1   
 26  15  18  1   
 27  15  36  1   
 28  15  37  1   
 29  16  19  1   
 30  16  38  1   
 31  16  39  1   
 32  17  20  ar  
 33  17  21  ar  
 34  18  22  1   
 35  18  40  1   
 36  18  41  1   
 37  19  22  1   
 38  19  42  1   
 39  19  43  1   
 40  20  23  ar  
 41  20  44  1   
 42  21  24  ar  
 43  21  45  1   
 44  22  25  1   
 45  22  46  1   
 46  23  26  ar  
 47  23  47  1   
 48  24  26  ar  
 49  24  48  1   
 50  25  27  1   
 51  25  49  1   
 52  25  50  1   
 53  26  28  1   
 54  27  51  1   
 55  27  52  1   
 56  27  53  1   
 57  28  54  1   
 58  28  55  1   
 59  28  56  1   
@<TRIPOS>SUBSTRUCTURE
  1 ****  11 GROUP 4 **** **** 0

# MOE 2024.06 (io_trps.svl 2023.06)
