@<TRIPOS>MOLECULE
[1-(5-Chloro-2-ethoxy-benzenesulfonyl)-piperidin-4-yl]-(4-methyl-piperazin-1-yl)
57 59 1 0 0 
SMALL
USER_CHARGES


@<TRIPOS>ATOM
  1 CL      -0.9380     0.3230    -0.1240 Cl    1 <1>  -0.1770 
  2 C       -0.1100     1.8120     0.2540 C.ar  1 <1>   0.1770 
  3 C        0.4800     2.5360    -0.7640 C.ar  1 <1>  -0.1500 
  4 C       -0.0580     2.2420     1.5650 C.ar  1 <1>  -0.1500 
  5 C        1.1500     3.7270    -0.5000 C.ar  1 <1>  -0.0090 
  6 C        0.6000     3.4240     1.8490 C.ar  1 <1>  -0.1500 
  7 S        1.8810     4.6460    -1.8850 S.o2  1 <1>   1.4470 
  8 C        1.1890     4.1590     0.8290 C.ar  1 <1>   0.0830 
  9 O        2.3480     3.6960    -2.8730 O.2   1 <1>  -0.6500 
 10 O        0.9410     5.6640    -2.3060 O.2   1 <1>  -0.6500 
 11 N        3.2720     5.4440    -1.3350 N.am  1 <1>  -0.8490 
 12 O        1.8300     5.2850     1.1900 O.3   1 <1>  -0.3630 
 13 C        3.7790     6.3820    -2.3370 C.3   1 <1>   0.1960 
 14 C        4.3080     4.5170    -0.8860 C.3   1 <1>   0.1960 
 15 C        1.1160     6.4950     1.0940 C.3   1 <1>   0.1200 
 16 C        4.9150     7.2190    -1.7440 C.3   1 <1>  -0.1600 
 17 C        5.4460     5.2970    -0.2220 C.3   1 <1>  -0.1600 
 18 C        2.0470     7.6220     1.5280 C.3   1 <1>  -0.2400 
 19 C        6.0480     6.3360    -1.1850 C.3   1 <1>  -0.0190 
 20 C        7.1430     7.1680    -0.5040 C.2   1 <1>   0.5690 
 21 O        6.8110     8.0970     0.1910 O.2   1 <1>  -0.5700 
 22 N        8.4770     6.8700    -0.6590 N.am  1 <1>  -0.6600 
 23 C        9.5180     7.8610    -0.2380 C.3   1 <1>   0.1400 
 24 C        9.0310     5.5270    -1.0120 C.3   1 <1>   0.1400 
 25 C       10.3540     7.3020     0.9250 C.3   1 <1>   0.3430 
 26 C        9.9150     4.9840     0.1340 C.3   1 <1>   0.3430 
 27 N       10.9680     5.9690     0.5770 N.4   1 <1>  -0.9590 
 28 C       11.7560     5.4320     1.7290 C.3   1 <1>   0.2630 
 29 H        0.4140     2.1660    -1.7730 H     1 <1>   0.1500 
 30 H       -0.5210     1.6610     2.3420 H     1 <1>   0.1500 
 31 H        0.6630     3.7820     2.8620 H     1 <1>   0.1500 
 32 H        2.9890     7.0460    -2.6460 H     1 <1>   0.0800 
 33 H        4.1220     5.8420    -3.2050 H     1 <1>   0.0800 
 34 H        4.6790     3.9460    -1.7210 H     1 <1>   0.0800 
 35 H        3.8930     3.8320    -0.1650 H     1 <1>   0.0800 
 36 H        0.2550     6.4370     1.7370 H     1 <1>   0.0800 
 37 H        0.8000     6.6360     0.0750 H     1 <1>   0.0800 
 38 H        4.5060     7.8350    -0.9610 H     1 <1>   0.0800 
 39 H        5.3050     7.8760    -2.5000 H     1 <1>   0.0800 
 40 H        6.2020     4.6090     0.1050 H     1 <1>   0.0800 
 41 H        5.0550     5.7950     0.6490 H     1 <1>   0.0800 
 42 H        2.3600     7.4750     2.5450 H     1 <1>   0.0800 
 43 H        1.5360     8.5650     1.4560 H     1 <1>   0.0800 
 44 H        2.9100     7.6500     0.8870 H     1 <1>   0.0800 
 45 H        6.4770     5.8220    -2.0240 H     1 <1>   0.0800 
 46 H        9.0640     8.7880     0.0700 H     1 <1>   0.0800 
 47 H       10.1570     8.0840    -1.0740 H     1 <1>   0.0800 
 48 H        9.6120     5.6090    -1.9150 H     1 <1>   0.0800 
 49 H        8.2400     4.8230    -1.1960 H     1 <1>   0.0800 
 50 H        9.7110     7.1980     1.7840 H     1 <1>   0.0800 
 51 H       11.1270     8.0100     1.1750 H     1 <1>   0.0800 
 52 H       10.3840     4.0680    -0.1880 H     1 <1>   0.0800 
 53 H        9.2740     4.7480     0.9680 H     1 <1>   0.0800 
 54 H       11.6070     6.1230    -0.2160 H     1 <1>   0.4500 
 55 H       11.1120     5.2640     2.5780 H     1 <1>   0.0800 
 56 H       12.5260     6.1310     2.0150 H     1 <1>   0.0800 
 57 H       12.2240     4.4990     1.4620 H     1 <1>   0.0800 
@<TRIPOS>BOND
  1   1   2  1   
  2   2   3  ar  
  3   2   4  ar  
  4   3   5  ar  
  5   3  29  1   
  6   4   6  ar  
  7   4  30  1   
  8   5   7  1   
  9   5   8  ar  
 10   6   8  ar  
 11   6  31  1   
 12   7   9  2   
 13   7  10  2   
 14   7  11  am  
 15   8  12  1   
 16  11  13  1   
 17  11  14  1   
 18  12  15  1   
 19  13  16  1   
 20  13  32  1   
 21  13  33  1   
 22  14  17  1   
 23  14  34  1   
 24  14  35  1   
 25  15  18  1   
 26  15  36  1   
 27  15  37  1   
 28  16  19  1   
 29  16  38  1   
 30  16  39  1   
 31  17  19  1   
 32  17  40  1   
 33  17  41  1   
 34  18  42  1   
 35  18  43  1   
 36  18  44  1   
 37  19  20  1   
 38  19  45  1   
 39  20  21  2   
 40  20  22  am  
 41  22  23  1   
 42  22  24  1   
 43  23  25  1   
 44  23  46  1   
 45  23  47  1   
 46  24  26  1   
 47  24  48  1   
 48  24  49  1   
 49  25  27  1   
 50  25  50  1   
 51  25  51  1   
 52  26  27  1   
 53  26  52  1   
 54  26  53  1   
 55  27  28  1   
 56  27  54  1   
 57  28  55  1   
 58  28  56  1   
 59  28  57  1   
@<TRIPOS>SUBSTRUCTURE
  1 ****  14 GROUP 4 **** **** 0

# MOE 2024.06 (io_trps.svl 2023.06)
