@<TRIPOS>MOLECULE
(4-Benzylsulfanyl-6-morpholin-4-yl-[1,3,5]triazin-2-yl)-methyl-amine
41 43 1 0 0 
SMALL
USER_CHARGES


@<TRIPOS>ATOM
  1 S       -0.3220     0.0570     0.1720 S.3   1 <1>  -0.3310 
  2 C       -0.1880    -1.7180     0.2650 C.ar  1 <1>   0.7220 
  3 C        1.4280     0.6370     0.2330 C.3   1 <1>   0.2140 
  4 N        1.0170    -2.2000     0.3470 N.ar  1 <1>  -0.6200 
  5 N       -1.3150    -2.3560     0.2400 N.ar  1 <1>  -0.6200 
  6 C        1.4370     2.1540     0.1540 C.ar  1 <1>  -0.1440 
  7 C        1.0410    -3.5120     0.4110 C.ar  1 <1>   0.7200 
  8 C       -1.1500    -3.6500     0.3110 C.ar  1 <1>   0.7200 
  9 C        1.3920     2.9160     1.3110 C.ar  1 <1>  -0.1500 
 10 C        1.4930     2.7900    -1.0780 C.ar  1 <1>  -0.1500 
 11 N       -0.0170    -4.2840     0.3980 N.ar  1 <1>  -0.6200 
 12 N        2.2750    -4.1170     0.5010 N.pl3 1 <1>  -0.8380 
 13 N       -2.2460    -4.4430     0.2970 N.pl3 1 <1>  -0.8690 
 14 C        1.4090     4.2990     1.2390 C.ar  1 <1>  -0.1500 
 15 C        1.5110     4.1720    -1.1510 C.ar  1 <1>  -0.1500 
 16 C        2.4580    -5.6010     0.6070 C.3   1 <1>   0.2090 
 17 C        3.5660    -3.3660     0.6180 C.3   1 <1>   0.2090 
 18 C       -3.6690    -4.0220     0.2330 C.3   1 <1>   0.1290 
 19 C        1.4700     4.9270     0.0080 C.ar  1 <1>  -0.1500 
 20 C        3.6070    -6.0800    -0.2980 C.3   1 <1>   0.1200 
 21 C        4.6440    -3.9800    -0.2920 C.3   1 <1>   0.1200 
 22 O        4.7800    -5.3530    -0.0550 O.3   1 <1>  -0.5600 
 23 H        1.9430     0.1940    -0.6000 H     1 <1>   0.0800 
 24 H        1.8510     0.2860     1.1580 H     1 <1>   0.0800 
 25 H        1.3380     2.4370     2.2730 H     1 <1>   0.1500 
 26 H        1.5200     2.2110    -1.9840 H     1 <1>   0.1500 
 27 H       -2.0470    -5.4400     0.3780 H     1 <1>   0.4000 
 28 H        1.3740     4.8860     2.1410 H     1 <1>   0.1500 
 29 H        1.5550     4.6600    -2.1090 H     1 <1>   0.1500 
 30 H        1.5630    -6.1270     0.3260 H     1 <1>   0.0800 
 31 H        2.6830    -5.8560     1.6280 H     1 <1>   0.0800 
 32 H        3.9040    -3.4050     1.6390 H     1 <1>   0.0800 
 33 H        3.4450    -2.3320     0.3510 H     1 <1>   0.0800 
 34 H       -3.7510    -2.9540     0.1180 H     1 <1>   0.0800 
 35 H       -4.1730    -4.3100     1.1390 H     1 <1>   0.0800 
 36 H       -4.1490    -4.4960    -0.6050 H     1 <1>   0.0800 
 37 H        1.4830     6.0010    -0.0480 H     1 <1>   0.1500 
 38 H        3.3390    -5.9660    -1.3330 H     1 <1>   0.0800 
 39 H        3.8190    -7.1170    -0.1080 H     1 <1>   0.0800 
 40 H        5.5960    -3.5190    -0.1020 H     1 <1>   0.0800 
 41 H        4.3880    -3.8330    -1.3270 H     1 <1>   0.0800 
@<TRIPOS>BOND
  1   1   2  1   
  2   1   3  1   
  3   2   4  ar  
  4   2   5  ar  
  5   3   6  1   
  6   3  23  1   
  7   3  24  1   
  8   4   7  ar  
  9   5   8  ar  
 10   6   9  ar  
 11   6  10  ar  
 12   7  11  ar  
 13   7  12  1   
 14   8  11  ar  
 15   8  13  1   
 16   9  14  ar  
 17   9  25  1   
 18  10  15  ar  
 19  10  26  1   
 20  12  16  1   
 21  12  17  1   
 22  13  18  1   
 23  13  27  1   
 24  14  19  ar  
 25  14  28  1   
 26  15  19  ar  
 27  15  29  1   
 28  16  20  1   
 29  16  30  1   
 30  16  31  1   
 31  17  21  1   
 32  17  32  1   
 33  17  33  1   
 34  18  34  1   
 35  18  35  1   
 36  18  36  1   
 37  19  37  1   
 38  20  22  1   
 39  20  38  1   
 40  20  39  1   
 41  21  22  1   
 42  21  40  1   
 43  21  41  1   
@<TRIPOS>SUBSTRUCTURE
  1 ****   4 GROUP 4 **** **** 0

# MOE 2024.06 (io_trps.svl 2023.06)
