@<TRIPOS>MOLECULE
2-(4-Ethyl-phenoxy)-N-(2-ethyl-2H-tetrazol-5-yl)-acetamide
37 38 1 0 0 
SMALL
USER_CHARGES


@<TRIPOS>ATOM
  1 O       -0.0030    -0.0440    -2.2030 O.2   1 <1>  -0.5700 
  2 C        0.2680    -0.8160    -1.3140 C.2   1 <1>   0.5690 
  3 N       -0.6600    -1.4250    -0.5310 N.am  1 <1>  -0.4930 
  4 C        1.7380    -1.1190    -1.0620 C.3   1 <1>   0.1810 
  5 C       -2.0420    -1.3450    -0.5240 C.2   1 <1>   0.5790 
  6 O        1.8990    -2.0390     0.0100 O.3   1 <1>  -0.3630 
  7 N       -2.7830    -0.5980    -1.3400 N.2   1 <1>  -0.2270 
  8 N       -2.7100    -2.0300     0.3240 N.2   1 <1>  -0.7070 
  9 C        3.1310    -2.4540     0.3970 C.ar  1 <1>   0.0830 
 10 N       -3.9940    -0.8100    -1.0020 N.2   1 <1>  -0.4180 
 11 N       -3.9400    -1.6700     0.0000 N.pl3 1 <1>   0.5800 
 12 C        3.1850    -3.3610     1.4420 C.ar  1 <1>  -0.1500 
 13 C        4.3160    -2.0220    -0.1940 C.ar  1 <1>  -0.1500 
 14 C       -5.1380    -2.1870     0.6920 C.3   1 <1>   0.0960 
 15 C        4.4020    -3.8360     1.8970 C.ar  1 <1>  -0.1500 
 16 C        5.5320    -2.5000     0.2650 C.ar  1 <1>  -0.1500 
 17 C       -5.4470    -1.3870     1.9660 C.3   1 <1>  -0.2400 
 18 C        5.5830    -3.4080     1.3120 C.ar  1 <1>  -0.1430 
 19 C        6.9200    -3.9310     1.8100 C.3   1 <1>  -0.0170 
 20 C        7.3210    -5.1940     1.0440 C.3   1 <1>  -0.2400 
 21 H       -0.3010    -2.0550     0.1830 H     1 <1>   0.3700 
 22 H        2.2490    -0.2080    -0.8100 H     1 <1>   0.0800 
 23 H        2.1670    -1.5500    -1.9480 H     1 <1>   0.0800 
 24 H        2.2710    -3.6960     1.8980 H     1 <1>   0.1500 
 25 H        4.3200    -1.3210    -1.0060 H     1 <1>   0.1500 
 26 H       -4.9630    -3.2180     0.9370 H     1 <1>   0.0800 
 27 H       -5.9680    -2.1320     0.0110 H     1 <1>   0.0800 
 28 H        4.4270    -4.5430     2.7080 H     1 <1>   0.1500 
 29 H        6.4430    -2.1640    -0.1970 H     1 <1>   0.1500 
 30 H       -4.6220    -1.4480     2.6540 H     1 <1>   0.0800 
 31 H       -6.3230    -1.7870     2.4460 H     1 <1>   0.0800 
 32 H       -5.6320    -0.3550     1.7230 H     1 <1>   0.0800 
 33 H        6.8550    -4.1520     2.8610 H     1 <1>   0.0800 
 34 H        7.6760    -3.1760     1.6830 H     1 <1>   0.0800 
 35 H        6.5790    -5.9610     1.1800 H     1 <1>   0.0800 
 36 H        8.2670    -5.5590     1.4020 H     1 <1>   0.0800 
 37 H        7.4060    -4.9790    -0.0060 H     1 <1>   0.0800 
@<TRIPOS>BOND
  1   1   2  2   
  2   2   3  am  
  3   2   4  1   
  4   3   5  1   
  5   3  21  1   
  6   4   6  1   
  7   4  22  1   
  8   4  23  1   
  9   5   7  1   
 10   5   8  2   
 11   6   9  1   
 12   7  10  2   
 13   8  11  1   
 14   9  12  ar  
 15   9  13  ar  
 16  10  11  1   
 17  11  14  1   
 18  12  15  ar  
 19  12  24  1   
 20  13  16  ar  
 21  13  25  1   
 22  14  17  1   
 23  14  26  1   
 24  14  27  1   
 25  15  18  ar  
 26  15  28  1   
 27  16  18  ar  
 28  16  29  1   
 29  17  30  1   
 30  17  31  1   
 31  17  32  1   
 32  18  19  1   
 33  19  20  1   
 34  19  33  1   
 35  19  34  1   
 36  20  35  1   
 37  20  36  1   
 38  20  37  1   
@<TRIPOS>SUBSTRUCTURE
  1 ****   6 GROUP 4 **** **** 0

# MOE 2024.06 (io_trps.svl 2023.06)
