@<TRIPOS>MOLECULE
2-Oxo-6-pyrrolidin-1-ylmethyl-4-o-tolyl-1,2,3,4-tetrahydro-pyrimidine-5-carboxyl
48 50 1 0 0 
SMALL
USER_CHARGES


@<TRIPOS>ATOM
  1 O        0.7790     0.8290     1.8150 O.2   1 <1>  -0.5700 
  2 C        0.5390     1.9390     1.4090 C.2   1 <1>   0.6900 
  3 N       -0.4370     2.1160     0.4860 N.am  1 <1>  -0.5390 
  4 N        1.2320     3.0050     1.8300 N.am  1 <1>  -0.7300 
  5 C       -0.7580     3.3420    -0.0830 C.2   1 <1>  -0.0290 
  6 C        1.0820     4.3640     1.2840 C.3   1 <1>   0.5020 
  7 C       -0.0780     4.4690     0.2820 C.2   1 <1>  -0.1240 
  8 C       -1.9050     3.2980    -1.0980 C.3   1 <1>   0.4810 
  9 C        2.4430     4.8240     0.7410 C.ar  1 <1>  -0.1440 
 10 C       -0.3520     5.8060    -0.1580 C.2   1 <1>   0.7060 
 11 N       -3.1990     3.2150    -0.3680 N.4   1 <1>  -0.9590 
 12 C        3.0650     4.3080    -0.4000 C.ar  1 <1>  -0.1430 
 13 C        3.0870     5.8290     1.4560 C.ar  1 <1>  -0.1500 
 14 O       -1.1980     6.0520    -0.9950 O.2   1 <1>  -0.5700 
 15 O        0.2900     6.8280     0.4120 O.3   1 <1>  -0.4300 
 16 C       -4.3370     2.8110    -1.2250 C.3   1 <1>   0.3430 
 17 C       -3.5940     4.5100     0.2390 C.3   1 <1>   0.3430 
 18 C        4.2960     4.8160    -0.7950 C.ar  1 <1>  -0.1500 
 19 C        2.4720     3.1960    -1.2550 C.3   1 <1>  -0.0970 
 20 C        4.3130     6.3250     1.0540 C.ar  1 <1>  -0.1500 
 21 C        0.1130     8.1670    -0.0130 C.3   1 <1>   0.0400 
 22 C       -5.5680     3.2600    -0.4500 C.3   1 <1>  -0.1600 
 23 C       -5.0880     4.3680     0.4920 C.3   1 <1>  -0.1600 
 24 C        4.9190     5.8170    -0.0760 C.ar  1 <1>  -0.1500 
 25 H       -0.8410     1.2210     0.2000 H     1 <1>   0.3700 
 26 H        2.0880     2.8260     2.3560 H     1 <1>   0.3700 
 27 H        0.8260     4.9930     2.1200 H     1 <1>   0.0800 
 28 H       -1.7780     2.4290    -1.7210 H     1 <1>   0.0800 
 29 H       -1.8970     4.1610    -1.7420 H     1 <1>   0.0800 
 30 H       -3.0990     2.5360     0.3960 H     1 <1>   0.4500 
 31 H        2.6400     6.2480     2.3410 H     1 <1>   0.1500 
 32 H       -4.3470     1.7480    -1.4100 H     1 <1>   0.0800 
 33 H       -4.2950     3.3400    -2.1640 H     1 <1>   0.0800 
 34 H       -3.4230     5.3110    -0.4640 H     1 <1>   0.0800 
 35 H       -3.0480     4.7100     1.1480 H     1 <1>   0.0800 
 36 H        4.7880     4.4320    -1.6710 H     1 <1>   0.1500 
 37 H        2.2890     2.3220    -0.6590 H     1 <1>   0.0800 
 38 H        3.1510     2.9110    -2.0390 H     1 <1>   0.0800 
 39 H        1.5610     3.5220    -1.7170 H     1 <1>   0.0800 
 40 H        4.7950     7.1040     1.6190 H     1 <1>   0.1500 
 41 H        0.7540     8.7990     0.5760 H     1 <1>   0.0800 
 42 H       -0.9160     8.4490     0.1270 H     1 <1>   0.0800 
 43 H        0.3820     8.2410    -1.0530 H     1 <1>   0.0800 
 44 H       -5.9660     2.4340     0.1140 H     1 <1>   0.0800 
 45 H       -6.3300     3.6110    -1.1240 H     1 <1>   0.0800 
 46 H       -5.5890     5.3010     0.3010 H     1 <1>   0.0800 
 47 H       -5.2600     4.0920     1.5190 H     1 <1>   0.0800 
 48 H        5.8730     6.1980    -0.3960 H     1 <1>   0.1500 
@<TRIPOS>BOND
  1   1   2  2   
  2   2   3  am  
  3   2   4  am  
  4   3   5  1   
  5   3  25  1   
  6   4   6  1   
  7   4  26  1   
  8   5   7  2   
  9   5   8  1   
 10   6   7  1   
 11   6   9  1   
 12   6  27  1   
 13   7  10  1   
 14   8  11  1   
 15   8  28  1   
 16   8  29  1   
 17   9  12  ar  
 18   9  13  ar  
 19  10  14  2   
 20  10  15  1   
 21  11  16  1   
 22  11  17  1   
 23  11  30  1   
 24  12  18  ar  
 25  12  19  1   
 26  13  20  ar  
 27  13  31  1   
 28  15  21  1   
 29  16  22  1   
 30  16  32  1   
 31  16  33  1   
 32  17  23  1   
 33  17  34  1   
 34  17  35  1   
 35  18  24  ar  
 36  18  36  1   
 37  19  37  1   
 38  19  38  1   
 39  19  39  1   
 40  20  24  ar  
 41  20  40  1   
 42  21  41  1   
 43  21  42  1   
 44  21  43  1   
 45  22  23  1   
 46  22  44  1   
 47  22  45  1   
 48  23  46  1   
 49  23  47  1   
 50  24  48  1   
@<TRIPOS>SUBSTRUCTURE
  1 ****   7 GROUP 4 **** **** 0

# MOE 2024.06 (io_trps.svl 2023.06)
