@<TRIPOS>MOLECULE
N-[2-Methoxy-5-(4-methyl-piperazine-1-sulfonyl)-phenyl]-N-methyl-benzenesulfonam
55 57 1 0 0 
SMALL
USER_CHARGES


@<TRIPOS>ATOM
  1 S        0.4320    -0.1840    -2.3560 S.o2  1 <1>   1.4470 
  2 O        1.3760    -0.9730    -3.1130 O.2   1 <1>  -0.6500 
  3 O       -0.9060     0.0260    -2.8620 O.2   1 <1>  -0.6500 
  4 N        0.2050    -1.0170    -0.8910 N.am  1 <1>  -0.8490 
  5 C        1.1680     1.3860    -1.8330 C.ar  1 <1>  -0.0090 
  6 C       -0.2750    -2.3840    -1.1550 C.3   1 <1>   0.1960 
  7 C       -0.6930    -0.2940     0.0360 C.3   1 <1>   0.1960 
  8 C        0.3430     2.4420    -1.4720 C.ar  1 <1>  -0.1500 
  9 C        2.5400     1.5570    -1.7020 C.ar  1 <1>  -0.1500 
 10 C       -0.5070    -3.1820     0.1450 C.3   1 <1>   0.3430 
 11 C       -0.9490    -1.0660     1.3460 C.3   1 <1>   0.3430 
 12 C        0.8240     3.6140    -0.9110 C.ar  1 <1>   0.1990 
 13 C        3.0610     2.7340    -1.1900 C.ar  1 <1>  -0.1500 
 14 N       -1.4390    -2.4690     1.0920 N.4   1 <1>  -0.9590 
 15 N       -0.1080     4.5640    -0.4760 N.am  1 <1>  -0.6930 
 16 C        2.2150     3.7480    -0.7770 C.ar  1 <1>   0.0820 
 17 C       -1.5970    -3.2220     2.3730 C.3   1 <1>   0.2630 
 18 S       -1.1530     4.2150     0.8690 S.o2  1 <1>   1.4470 
 19 C        0.1180     5.9980    -0.7880 C.3   1 <1>   0.1160 
 20 O        2.7780     4.8600    -0.2420 O.3   1 <1>  -0.3630 
 21 O       -0.6790     5.0230     1.9690 O.2   1 <1>  -0.6500 
 22 O       -1.2140     2.7720     1.0100 O.2   1 <1>  -0.6500 
 23 C       -2.7610     4.8120     0.2800 C.ar  1 <1>  -0.0090 
 24 C        2.8850     4.8740     1.1640 C.3   1 <1>   0.0400 
 25 C       -3.2460     4.4570    -0.9740 C.ar  1 <1>  -0.1500 
 26 C       -3.5550     5.6330     1.0750 C.ar  1 <1>  -0.1500 
 27 C       -4.4770     4.9050    -1.4220 C.ar  1 <1>  -0.1500 
 28 C       -4.7870     6.0850     0.6340 C.ar  1 <1>  -0.1500 
 29 C       -5.2490     5.7200    -0.6170 C.ar  1 <1>  -0.1500 
 30 H        0.4560    -2.9080    -1.7500 H     1 <1>   0.0800 
 31 H       -1.1900    -2.3500    -1.7240 H     1 <1>   0.0800 
 32 H       -1.6360    -0.0780    -0.4400 H     1 <1>   0.0800 
 33 H       -0.2390     0.6410     0.3090 H     1 <1>   0.0800 
 34 H       -0.7180     2.3380    -1.6040 H     1 <1>   0.1500 
 35 H        3.2070     0.7620    -1.9950 H     1 <1>   0.1500 
 36 H        0.4480    -3.3320     0.6210 H     1 <1>   0.0800 
 37 H       -0.9080    -4.1510    -0.1040 H     1 <1>   0.0800 
 38 H       -1.6680    -0.5230     1.9370 H     1 <1>   0.0800 
 39 H       -0.0250    -1.1000     1.9000 H     1 <1>   0.0800 
 40 H        4.1250     2.8640    -1.0980 H     1 <1>   0.1500 
 41 H       -2.3580    -2.3950     0.6320 H     1 <1>   0.4500 
 42 H       -0.6490    -3.3060     2.8780 H     1 <1>   0.0800 
 43 H       -1.9760    -4.2130     2.1820 H     1 <1>   0.0800 
 44 H       -2.2890    -2.7110     3.0240 H     1 <1>   0.0800 
 45 H        0.7820     6.0940    -1.6300 H     1 <1>   0.0800 
 46 H        0.5590     6.4920     0.0600 H     1 <1>   0.0800 
 47 H       -0.8160     6.4760    -1.0280 H     1 <1>   0.0800 
 48 H        3.3490     5.7980     1.4570 H     1 <1>   0.0800 
 49 H        3.4900     4.0420     1.4780 H     1 <1>   0.0800 
 50 H        1.9020     4.8060     1.5940 H     1 <1>   0.0800 
 51 H       -2.6570     3.8240    -1.6140 H     1 <1>   0.1500 
 52 H       -3.2060     5.9230     2.0520 H     1 <1>   0.1500 
 53 H       -4.8340     4.6180    -2.3970 H     1 <1>   0.1500 
 54 H       -5.3860     6.7200     1.2650 H     1 <1>   0.1500 
 55 H       -6.2070     6.0700    -0.9620 H     1 <1>   0.1500 
@<TRIPOS>BOND
  1   1   2  2   
  2   1   3  2   
  3   1   4  am  
  4   1   5  1   
  5   4   6  1   
  6   4   7  1   
  7   5   8  ar  
  8   5   9  ar  
  9   6  10  1   
 10   6  30  1   
 11   6  31  1   
 12   7  11  1   
 13   7  32  1   
 14   7  33  1   
 15   8  12  ar  
 16   8  34  1   
 17   9  13  ar  
 18   9  35  1   
 19  10  14  1   
 20  10  36  1   
 21  10  37  1   
 22  11  14  1   
 23  11  38  1   
 24  11  39  1   
 25  12  15  1   
 26  12  16  ar  
 27  13  16  ar  
 28  13  40  1   
 29  14  17  1   
 30  14  41  1   
 31  15  18  am  
 32  15  19  1   
 33  16  20  1   
 34  17  42  1   
 35  17  43  1   
 36  17  44  1   
 37  18  21  2   
 38  18  22  2   
 39  18  23  1   
 40  19  45  1   
 41  19  46  1   
 42  19  47  1   
 43  20  24  1   
 44  23  25  ar  
 45  23  26  ar  
 46  24  48  1   
 47  24  49  1   
 48  24  50  1   
 49  25  27  ar  
 50  25  51  1   
 51  26  28  ar  
 52  26  52  1   
 53  27  29  ar  
 54  27  53  1   
 55  28  29  ar  
 56  28  54  1   
 57  29  55  1   
@<TRIPOS>SUBSTRUCTURE
  1 ****   8 GROUP 4 **** **** 0

# MOE 2024.06 (io_trps.svl 2023.06)
