@<TRIPOS>MOLECULE
1-(4-Methoxy-3-methyl-benzenesulfonyl)-piperidine-4-carboxylic acid (tetrahydro-
55 57 1 0 0 
SMALL
USER_CHARGES


@<TRIPOS>ATOM
  1 S       -0.0410     0.6080    -2.6690 S.o2  1 <1>   1.4470 
  2 O        0.4070    -0.2300    -3.7600 O.2   1 <1>  -0.6500 
  3 O       -0.9310     1.7170    -2.9440 O.2   1 <1>  -0.6500 
  4 N        1.3450     1.2680    -1.9470 N.am  1 <1>  -0.8490 
  5 C       -0.7150    -0.4390    -1.3500 C.ar  1 <1>  -0.0090 
  6 C        1.0090     2.2410    -0.9040 C.3   1 <1>   0.1960 
  7 C        2.2440     1.8510    -2.9460 C.3   1 <1>   0.1960 
  8 C       -1.9900    -0.2310    -0.8380 C.ar  1 <1>  -0.1500 
  9 C        0.0420    -1.4700    -0.8080 C.ar  1 <1>  -0.1500 
 10 C        2.2750     2.6610    -0.1560 C.3   1 <1>  -0.1600 
 11 C        3.5600     2.2690    -2.2850 C.3   1 <1>  -0.1600 
 12 C       -2.5000    -1.0140     0.1850 C.ar  1 <1>  -0.1430 
 13 C       -0.4500    -2.2640     0.2120 C.ar  1 <1>  -0.1500 
 14 C        3.3180     3.2480    -1.1230 C.3   1 <1>  -0.0190 
 15 C       -1.7260    -2.0390     0.7190 C.ar  1 <1>   0.0830 
 16 C       -3.9020    -0.7470     0.7150 C.3   1 <1>  -0.0970 
 17 C        4.6130     3.6220    -0.4100 C.2   1 <1>   0.5690 
 18 O       -2.2620    -2.7800     1.7240 O.3   1 <1>  -0.3630 
 19 O        4.9820     4.7710    -0.4330 O.2   1 <1>  -0.5700 
 20 N        5.3200     2.6570     0.2290 N.am  1 <1>  -0.7300 
 21 C       -1.5640    -3.8560     2.3090 C.3   1 <1>   0.0400 
 22 C        6.6130     2.8420     0.9280 C.3   1 <1>   0.1400 
 23 C        7.5740     1.6990     0.5710 C.3   1 <1>   0.2000 
 24 O        6.9460     0.4640     0.7380 O.3   1 <1>  -0.5600 
 25 C        8.8090     1.6200     1.4550 C.3   1 <1>  -0.1600 
 26 C        7.8860    -0.5410     0.9620 C.3   1 <1>   0.1200 
 27 C        9.1890     0.1530     1.3570 C.3   1 <1>  -0.1600 
 28 H        0.3200     1.8020    -0.2000 H     1 <1>   0.0800 
 29 H        0.5350     3.1060    -1.3420 H     1 <1>   0.0800 
 30 H        1.7710     2.7010    -3.4130 H     1 <1>   0.0800 
 31 H        2.4610     1.1250    -3.7120 H     1 <1>   0.0800 
 32 H       -2.5900     0.5620    -1.2520 H     1 <1>   0.1500 
 33 H        1.0320    -1.6490    -1.1930 H     1 <1>   0.1500 
 34 H        2.6750     1.8010     0.3520 H     1 <1>   0.0800 
 35 H        2.0230     3.3960     0.5880 H     1 <1>   0.0800 
 36 H        4.1950     2.7320    -3.0180 H     1 <1>   0.0800 
 37 H        4.0590     1.3840    -1.9300 H     1 <1>   0.0800 
 38 H        0.1740    -3.0470     0.5970 H     1 <1>   0.1500 
 39 H        2.9110     4.1540    -1.5360 H     1 <1>   0.0800 
 40 H       -4.3660     0.0740     0.1980 H     1 <1>   0.0800 
 41 H       -3.8570    -0.5120     1.7630 H     1 <1>   0.0800 
 42 H       -4.5120    -1.6230     0.5850 H     1 <1>   0.0800 
 43 H        5.0230     1.6770     0.1950 H     1 <1>   0.3700 
 44 H       -2.1910    -4.2850     3.0690 H     1 <1>   0.0800 
 45 H       -0.6570    -3.4840     2.7520 H     1 <1>   0.0800 
 46 H       -1.3540    -4.5890     1.5510 H     1 <1>   0.0800 
 47 H        6.4370     2.8470     1.9890 H     1 <1>   0.0800 
 48 H        7.0510     3.7860     0.6540 H     1 <1>   0.0800 
 49 H        7.8670     1.7750    -0.4630 H     1 <1>   0.0800 
 50 H        8.5500     1.8670     2.4700 H     1 <1>   0.0800 
 51 H        9.5910     2.2760     1.1160 H     1 <1>   0.0800 
 52 H        8.0010    -1.1100     0.0560 H     1 <1>   0.0800 
 53 H        7.5160    -1.1740     1.7500 H     1 <1>   0.0800 
 54 H        9.5750    -0.2290     2.2850 H     1 <1>   0.0800 
 55 H        9.9210     0.0010     0.5830 H     1 <1>   0.0800 
@<TRIPOS>BOND
  1   1   2  2   
  2   1   3  2   
  3   1   4  am  
  4   1   5  1   
  5   4   6  1   
  6   4   7  1   
  7   5   8  ar  
  8   5   9  ar  
  9   6  10  1   
 10   6  28  1   
 11   6  29  1   
 12   7  11  1   
 13   7  30  1   
 14   7  31  1   
 15   8  12  ar  
 16   8  32  1   
 17   9  13  ar  
 18   9  33  1   
 19  10  14  1   
 20  10  34  1   
 21  10  35  1   
 22  11  14  1   
 23  11  36  1   
 24  11  37  1   
 25  12  15  ar  
 26  12  16  1   
 27  13  15  ar  
 28  13  38  1   
 29  14  17  1   
 30  14  39  1   
 31  15  18  1   
 32  16  40  1   
 33  16  41  1   
 34  16  42  1   
 35  17  19  2   
 36  17  20  am  
 37  18  21  1   
 38  20  22  1   
 39  20  43  1   
 40  21  44  1   
 41  21  45  1   
 42  21  46  1   
 43  22  23  1   
 44  22  47  1   
 45  22  48  1   
 46  23  24  1   
 47  23  25  1   
 48  23  49  1   
 49  24  26  1   
 50  25  27  1   
 51  25  50  1   
 52  25  51  1   
 53  26  27  1   
 54  26  52  1   
 55  26  53  1   
 56  27  54  1   
 57  27  55  1   
@<TRIPOS>SUBSTRUCTURE
  1 ****   4 GROUP 4 **** **** 0

# MOE 2024.06 (io_trps.svl 2023.06)
