@<TRIPOS>MOLECULE
3-Azepan-1-yl-N-(4-chloro-phenyl)-succinamic acid
43 44 1 0 0 
SMALL
USER_CHARGES


@<TRIPOS>ATOM
  1 CL       0.4670    -0.8660     0.3610 Cl    1 <1>  -0.1770 
  2 C        1.9300     0.0820     0.4680 C.ar  1 <1>   0.1770 
  3 C        2.0180     1.2760    -0.2220 C.ar  1 <1>  -0.1500 
  4 C        2.9800    -0.3750     1.2420 C.ar  1 <1>  -0.1500 
  5 C        3.1790     2.0260    -0.1340 C.ar  1 <1>  -0.1500 
  6 C        4.1360     0.3800     1.3230 C.ar  1 <1>  -0.1500 
  7 C        4.2530     1.5860     0.6380 C.ar  1 <1>   0.1170 
  8 N        5.4530     2.2930     0.7750 N.am  1 <1>  -0.5470 
  9 C        5.9960     3.3570     0.1030 C.2   1 <1>   0.5690 
 10 O        5.4590     3.9010    -0.8370 O.2   1 <1>  -0.5700 
 11 C        7.3820     3.8670     0.5880 C.3   1 <1>   0.4840 
 12 N        7.8900     5.1960     0.0680 N.4   1 <1>  -0.9590 
 13 C        8.4290     2.7910     0.3380 C.3   1 <1>  -0.2660 
 14 C        9.0970     5.6260     0.8400 C.3   1 <1>   0.3430 
 15 C        6.8610     6.2640     0.1330 C.3   1 <1>   0.3430 
 16 C        8.6000     2.2870     1.7140 C.2   1 <1>   0.9060 
 17 C        9.9880     6.5490     0.0040 C.3   1 <1>  -0.1600 
 18 C        6.8940     7.1060    -1.1420 C.3   1 <1>  -0.1600 
 19 O        7.7170     1.5430     2.1410 O.co2 1 <1>  -0.9000 
 20 O        9.4310     2.8610     2.4090 O.co2 1 <1>  -0.9000 
 21 C        9.3150     7.8090    -0.5720 C.3   1 <1>  -0.1600 
 22 C        8.2880     7.4920    -1.6700 C.3   1 <1>  -0.1600 
 23 H        1.1890     1.6120    -0.8170 H     1 <1>   0.1500 
 24 H        2.8910    -1.3070     1.7710 H     1 <1>   0.1500 
 25 H        3.2400     2.9540    -0.6700 H     1 <1>   0.1500 
 26 H        4.9610     0.0330     1.9240 H     1 <1>   0.1500 
 27 H        6.1140     1.8540     1.4540 H     1 <1>   0.3700 
 28 H        7.2700     3.9870     1.6540 H     1 <1>   0.0800 
 29 H        8.1340     5.0580    -0.9180 H     1 <1>   0.4500 
 30 H        9.3700     3.1410    -0.0380 H     1 <1>   0.0800 
 31 H        8.0670     1.9950    -0.2840 H     1 <1>   0.0800 
 32 H        9.6820     4.7710     1.1390 H     1 <1>   0.0800 
 33 H        8.7920     6.1280     1.7430 H     1 <1>   0.0800 
 34 H        7.0490     6.8960     0.9860 H     1 <1>   0.0800 
 35 H        5.8740     5.8470     0.2470 H     1 <1>   0.0800 
 36 H       10.4310     5.9760    -0.7920 H     1 <1>   0.0800 
 37 H       10.7990     6.8630     0.6390 H     1 <1>   0.0800 
 38 H        6.3400     8.0070    -0.9430 H     1 <1>   0.0800 
 39 H        6.3580     6.5820    -1.9150 H     1 <1>   0.0800 
 40 H       10.0890     8.4160    -1.0120 H     1 <1>   0.0800 
 41 H        8.8660     8.3960     0.2120 H     1 <1>   0.0800 
 42 H        8.1740     8.3610    -2.2970 H     1 <1>   0.0800 
 43 H        8.6700     6.7090    -2.3030 H     1 <1>   0.0800 
@<TRIPOS>BOND
  1   1   2  1   
  2   2   3  ar  
  3   2   4  ar  
  4   3   5  ar  
  5   3  23  1   
  6   4   6  ar  
  7   4  24  1   
  8   5   7  ar  
  9   5  25  1   
 10   6   7  ar  
 11   6  26  1   
 12   7   8  1   
 13   8   9  am  
 14   8  27  1   
 15   9  10  2   
 16   9  11  1   
 17  11  12  1   
 18  11  13  1   
 19  11  28  1   
 20  12  14  1   
 21  12  15  1   
 22  12  29  1   
 23  13  16  1   
 24  13  30  1   
 25  13  31  1   
 26  14  17  1   
 27  14  32  1   
 28  14  33  1   
 29  15  18  1   
 30  15  34  1   
 31  15  35  1   
 32  16  19  ar  
 33  16  20  ar  
 34  17  21  1   
 35  17  36  1   
 36  17  37  1   
 37  18  22  1   
 38  18  38  1   
 39  18  39  1   
 40  21  22  1   
 41  21  40  1   
 42  21  41  1   
 43  22  42  1   
 44  22  43  1   
@<TRIPOS>SUBSTRUCTURE
  1 ****   9 GROUP 4 **** **** 0

# MOE 2024.06 (io_trps.svl 2023.06)
