@<TRIPOS>MOLECULE
5-(4-Hydroxy-3,5-dimethoxy-phenyl)-8,8-dimethyl-5,8,9,10-tetrahydro-1H,7H-pyrimi
53 56 1 0 0 
SMALL
USER_CHARGES


@<TRIPOS>ATOM
  1 O       -1.4900    -0.1420     2.8610 O.2   1 <1>  -0.5700 
  2 C       -2.2280    -0.7600     2.1290 C.2   1 <1>   0.6900 
  3 N       -3.5760    -0.5590     2.1700 N.am  1 <1>  -0.5390 
  4 N       -1.7380    -1.6630     1.2430 N.am  1 <1>  -0.4900 
  5 C       -4.4360    -1.2490     1.3520 C.2   1 <1>   0.2090 
  6 C       -2.5400    -2.3720     0.3970 C.2   1 <1>   0.6160 
  7 N       -5.7770    -0.9700     1.4260 N.pl3 1 <1>  -0.6000 
  8 C       -3.9380    -2.1720     0.4850 C.2   1 <1>  -0.1240 
  9 O       -2.0020    -3.1150    -0.4040 O.2   1 <1>  -0.5700 
 10 C       -6.6750    -1.5190     0.5360 C.2   1 <1>  -0.0380 
 11 C       -4.8740    -3.0090    -0.3780 C.3   1 <1>   0.3400 
 12 C       -6.3070    -2.4680    -0.3650 C.2   1 <1>  -0.1240 
 13 C       -8.1080    -1.0070     0.6120 C.3   1 <1>  -0.0220 
 14 C       -4.8850    -4.4420     0.1550 C.ar  1 <1>  -0.1430 
 15 C       -7.2000    -3.0300    -1.3210 C.2   1 <1>   0.4950 
 16 C       -8.8900    -1.2300    -0.7030 C.3   1 <1>   0.0000 
 17 C       -5.2770    -4.7020     1.4610 C.ar  1 <1>  -0.1500 
 18 C       -4.5110    -5.4990    -0.6600 C.ar  1 <1>  -0.1500 
 19 O       -6.8630    -3.7640    -2.2200 O.2   1 <1>  -0.5700 
 20 C       -8.6720    -2.6710    -1.2120 C.3   1 <1>  -0.0990 
 21 C       -8.4200    -0.2220    -1.7700 C.3   1 <1>  -0.2400 
 22 C      -10.3900    -0.9990    -0.4560 C.3   1 <1>  -0.2400 
 23 C       -5.3000    -5.9890     1.9730 C.ar  1 <1>   0.0830 
 24 C       -4.5280    -6.8040    -0.1770 C.ar  1 <1>   0.0830 
 25 O       -5.7060    -6.0670     3.2750 O.3   1 <1>  -0.3630 
 26 C       -4.9200    -7.0500     1.1370 C.ar  1 <1>   0.0830 
 27 O       -4.1770    -7.8840    -0.9390 O.3   1 <1>  -0.3630 
 28 C       -5.7170    -7.2750     4.0010 C.3   1 <1>   0.0400 
 29 O       -4.9080    -8.3490     1.5180 O.3   1 <1>  -0.5330 
 30 C       -3.8490    -7.7310    -2.3040 C.3   1 <1>   0.0400 
 31 H       -3.8950     0.1250     2.8510 H     1 <1>   0.3700 
 32 H       -0.7370    -1.8110     1.2010 H     1 <1>   0.3700 
 33 H       -6.1020    -0.2850     2.1140 H     1 <1>   0.4000 
 34 H       -4.5070    -2.9890    -1.3900 H     1 <1>   0.0800 
 35 H       -8.1080     0.0420     0.8500 H     1 <1>   0.0800 
 36 H       -8.5980    -1.5230     1.4190 H     1 <1>   0.0800 
 37 H       -5.5750    -3.8960     2.1080 H     1 <1>   0.1500 
 38 H       -4.2130    -5.2860    -1.6690 H     1 <1>   0.1500 
 39 H       -9.1260    -3.3730    -0.5370 H     1 <1>   0.0800 
 40 H       -9.1350    -2.7960    -2.1750 H     1 <1>   0.0800 
 41 H       -7.3670    -0.3200    -1.9670 H     1 <1>   0.0800 
 42 H       -8.6030     0.7870    -1.4450 H     1 <1>   0.0800 
 43 H       -8.9480    -0.3760    -2.6950 H     1 <1>   0.0800 
 44 H      -10.7670    -1.6900     0.2780 H     1 <1>   0.0800 
 45 H      -10.9480    -1.1380    -1.3650 H     1 <1>   0.0800 
 46 H      -10.5670     0.0010    -0.1010 H     1 <1>   0.0800 
 47 H       -6.0280    -7.0590     5.0070 H     1 <1>   0.0800 
 48 H       -4.7240    -7.6880     4.0040 H     1 <1>   0.0800 
 49 H       -6.4130    -7.9520     3.5390 H     1 <1>   0.0800 
 50 H       -4.6140    -8.8850     0.7530 H     1 <1>   0.4500 
 51 H       -3.6420    -8.7030    -2.7110 H     1 <1>   0.0800 
 52 H       -2.9760    -7.1070    -2.3850 H     1 <1>   0.0800 
 53 H       -4.6860    -7.2900    -2.8170 H     1 <1>   0.0800 
@<TRIPOS>BOND
  1   1   2  2   
  2   2   3  am  
  3   2   4  am  
  4   3   5  1   
  5   3  31  1   
  6   4   6  am  
  7   4  32  1   
  8   5   7  1   
  9   5   8  2   
 10   6   8  1   
 11   6   9  2   
 12   7  10  1   
 13   7  33  1   
 14   8  11  1   
 15  10  12  2   
 16  10  13  1   
 17  11  12  1   
 18  11  14  1   
 19  11  34  1   
 20  12  15  1   
 21  13  16  1   
 22  13  35  1   
 23  13  36  1   
 24  14  17  ar  
 25  14  18  ar  
 26  15  19  2   
 27  15  20  1   
 28  16  20  1   
 29  16  21  1   
 30  16  22  1   
 31  17  23  ar  
 32  17  37  1   
 33  18  24  ar  
 34  18  38  1   
 35  20  39  1   
 36  20  40  1   
 37  21  41  1   
 38  21  42  1   
 39  21  43  1   
 40  22  44  1   
 41  22  45  1   
 42  22  46  1   
 43  23  25  1   
 44  23  26  ar  
 45  24  26  ar  
 46  24  27  1   
 47  25  28  1   
 48  26  29  1   
 49  27  30  1   
 50  28  47  1   
 51  28  48  1   
 52  28  49  1   
 53  29  50  1   
 54  30  51  1   
 55  30  52  1   
 56  30  53  1   
@<TRIPOS>SUBSTRUCTURE
  1 ****  11 GROUP 4 **** **** 0

# MOE 2024.06 (io_trps.svl 2023.06)
