@<TRIPOS>MOLECULE
NONAME
51 53 1 0 0 
SMALL
USER_CHARGES


@<TRIPOS>ATOM
  1 O        2.0610    -1.1480    -2.1600 O.2   1 <1>  -0.5700 
  2 C        2.9350    -0.3370    -1.9540 C.2   1 <1>   0.5690 
  3 N        3.1980     0.7610    -2.7330 N.am  1 <1>  -0.4690 
  4 C        3.9380    -0.3880    -0.7900 C.3   1 <1>   0.4810 
  5 C        4.3110     1.4190    -2.2520 C.2   1 <1>  -0.0290 
  6 C        2.4340     1.1020    -3.9600 C.3   1 <1>   0.0600 
  7 C        4.6830    -1.7350    -0.7510 C.2   1 <1>  -0.1240 
  8 C        3.2040    -0.0650     0.5180 C.ar  1 <1>  -0.1440 
  9 C        4.8100     0.8240    -1.1400 C.2   1 <1>  -0.1240 
 10 C        4.8170     2.6540    -2.9830 C.3   1 <1>  -0.1020 
 11 C        4.6450    -2.4710     0.4020 C.2   1 <1>   0.1770 
 12 C        5.3700    -2.1460    -1.9320 C.2   1 <1>   0.7060 
 13 C        3.2930    -0.9380     1.5920 C.ar  1 <1>   0.0820 
 14 C        2.4580     1.1000     0.6690 C.ar  1 <1>  -0.1500 
 15 C        5.9130     1.1520    -0.2920 C.2   1 <1>   0.7060 
 16 O        3.9980    -2.0850     1.5050 O.3   1 <1>  -0.1590 
 17 N        5.2580    -3.6740     0.5740 N.pl3 1 <1>  -0.9000 
 18 O        5.9090    -3.2360    -2.0700 O.2   1 <1>  -0.5700 
 19 O        5.4640    -1.3020    -2.9690 O.3   1 <1>  -0.4300 
 20 C        2.6590    -0.6580     2.7910 C.ar  1 <1>  -0.1500 
 21 C        1.8220     1.3820     1.8660 C.ar  1 <1>  -0.1500 
 22 O        6.5440     2.1840    -0.3830 O.2   1 <1>  -0.5700 
 23 O        6.2440     0.2860     0.6680 O.3   1 <1>  -0.4300 
 24 C        6.1230    -1.6530    -4.1700 C.3   1 <1>   0.0400 
 25 C        1.9230     0.5040     2.9300 C.ar  1 <1>  -0.1500 
 26 C        7.2310     0.5490     1.6490 C.3   1 <1>   0.1200 
 27 C        6.6450     1.4640     2.7250 C.3   1 <1>   0.1200 
 28 O        7.5730     1.5810     3.7570 O.3   1 <1>  -0.5600 
 29 C        7.1650     2.4240     4.7850 C.3   1 <1>   0.0400 
 30 H        1.5840     0.4500    -4.0600 H     1 <1>   0.0800 
 31 H        3.0660     0.9850    -4.8220 H     1 <1>   0.0800 
 32 H        2.0880     2.1180    -3.9020 H     1 <1>   0.0800 
 33 H        4.0650     3.4210    -2.9750 H     1 <1>   0.0800 
 34 H        5.0530     2.4060    -4.0020 H     1 <1>   0.0800 
 35 H        5.7040     3.0510    -2.5270 H     1 <1>   0.0800 
 36 H        2.3600     1.8020    -0.1420 H     1 <1>   0.1500 
 37 H        5.7530    -4.1270    -0.2110 H     1 <1>   0.4000 
 38 H        5.1750    -4.2260     1.4320 H     1 <1>   0.4000 
 39 H        2.7430    -1.3510     3.6090 H     1 <1>   0.1500 
 40 H        1.2470     2.2860     1.9690 H     1 <1>   0.1500 
 41 H        6.0630    -0.8200    -4.8470 H     1 <1>   0.0800 
 42 H        5.6360    -2.5130    -4.5960 H     1 <1>   0.0800 
 43 H        7.1520    -1.8790    -3.9500 H     1 <1>   0.0800 
 44 H        1.4280     0.7230     3.8610 H     1 <1>   0.1500 
 45 H        8.0880     1.0000     1.1800 H     1 <1>   0.0800 
 46 H        7.5100    -0.3940     2.0840 H     1 <1>   0.0800 
 47 H        5.7410     1.0360     3.1240 H     1 <1>   0.0800 
 48 H        6.4550     2.4430     2.3200 H     1 <1>   0.0800 
 49 H        7.9390     2.4410     5.5310 H     1 <1>   0.0800 
 50 H        6.2540     2.0470     5.2150 H     1 <1>   0.0800 
 51 H        7.0190     3.4160     4.3930 H     1 <1>   0.0800 
@<TRIPOS>BOND
  1   1   2  2   
  2   2   3  am  
  3   2   4  1   
  4   3   5  1   
  5   3   6  1   
  6   4   7  1   
  7   4   8  1   
  8   4   9  1   
  9   5   9  2   
 10   5  10  1   
 11   6  30  1   
 12   6  31  1   
 13   6  32  1   
 14   7  11  2   
 15   7  12  1   
 16   8  13  ar  
 17   8  14  ar  
 18   9  15  1   
 19  10  33  1   
 20  10  34  1   
 21  10  35  1   
 22  11  16  1   
 23  11  17  1   
 24  12  18  2   
 25  12  19  1   
 26  13  16  1   
 27  13  20  ar  
 28  14  21  ar  
 29  14  36  1   
 30  15  22  2   
 31  15  23  1   
 32  17  37  1   
 33  17  38  1   
 34  19  24  1   
 35  20  25  ar  
 36  20  39  1   
 37  21  25  ar  
 38  21  40  1   
 39  23  26  1   
 40  24  41  1   
 41  24  42  1   
 42  24  43  1   
 43  25  44  1   
 44  26  27  1   
 45  26  45  1   
 46  26  46  1   
 47  27  28  1   
 48  27  47  1   
 49  27  48  1   
 50  28  29  1   
 51  29  49  1   
 52  29  50  1   
 53  29  51  1   
@<TRIPOS>SUBSTRUCTURE
  1 ****   4 GROUP 4 **** **** 0

# MOE 2024.06 (io_trps.svl 2023.06)
