@<TRIPOS>MOLECULE
7-(2-Hydroxy-2-phenyl-ethyl)-3-methyl-8-piperazin-1-yl-3,7-dihydro-purine-2,6-di
51 54 1 0 0 
SMALL
USER_CHARGES


@<TRIPOS>ATOM
  1 O        1.5610     3.6780     0.6640 O.2   1 <1>  -0.5750 
  2 C        2.6430     3.4850     0.1610 C.2   1 <1>   0.6860 
  3 N        3.5130     2.5110     0.6280 N.am  1 <1>  -0.4420 
  4 N        3.0100     4.2530    -0.9050 N.am  1 <1>  -0.4950 
  5 C        4.7560     2.4170     0.0210 C.2   1 <1>   0.4200 
  6 C        3.1400     1.6610     1.7960 C.3   1 <1>   0.0520 
  7 C        4.2180     4.1510    -1.5320 C.2   1 <1>   0.6990 
  8 N        5.7820     1.5910     0.3580 N.pl3 1 <1>  -0.7040 
  9 C        5.1500     3.1860    -1.0180 C.2   1 <1>   0.2700 
 10 O        4.4430     4.8640    -2.4910 O.2   1 <1>  -0.5750 
 11 C        6.8190     1.8510    -0.4410 C.cat 1 <1>   1.0680 
 12 N        6.4900     2.8300    -1.2980 N.pl3 1 <1>  -0.7680 
 13 N        8.0000     1.1790    -0.3540 N.pl3 1 <1>  -0.5970 
 14 C        7.4010     3.8520    -1.9320 C.3   1 <1>   0.3480 
 15 C        8.5460     0.6840     0.9580 C.3   1 <1>   0.1600 
 16 C        8.9710     1.0890    -1.4990 C.3   1 <1>   0.1600 
 17 C        8.0680     4.7890    -0.8910 C.3   1 <1>   0.3370 
 18 C        9.2670    -0.6790     0.8390 C.3   1 <1>   0.3370 
 19 C        9.6840    -0.2800    -1.5820 C.3   1 <1>   0.3370 
 20 O        9.0290     4.0850    -0.1700 O.3   1 <1>  -0.6840 
 21 C        7.0310     5.3610     0.0780 C.ar  1 <1>  -0.1510 
 22 N       10.2740    -0.6880    -0.2680 N.4   1 <1>  -0.9090 
 23 C        6.2380     6.4150    -0.3540 C.ar  1 <1>  -0.1580 
 24 C        6.8150     4.8400     1.3510 C.ar  1 <1>  -0.1580 
 25 C        5.2330     6.9190     0.4530 C.ar  1 <1>  -0.1580 
 26 C        5.8100     5.3440     2.1580 C.ar  1 <1>  -0.1580 
 27 C        5.0150     6.3800     1.7060 C.ar  1 <1>  -0.1580 
 28 H        2.3500     4.9580    -1.2250 H     1 <1>   0.3640 
 29 H        2.0730     1.6650     1.9410 H     1 <1>   0.0720 
 30 H        3.6060     2.0440     2.6870 H     1 <1>   0.0720 
 31 H        3.4490     0.6440     1.6320 H     1 <1>   0.0720 
 32 H        5.7360     0.8930     1.0910 H     1 <1>   0.4440 
 33 H        6.8300     4.4620    -2.6090 H     1 <1>   0.0720 
 34 H        8.1600     3.3820    -2.5260 H     1 <1>   0.0720 
 35 H        7.7630     0.5960     1.6900 H     1 <1>   0.0720 
 36 H        9.2470     1.4120     1.3320 H     1 <1>   0.0720 
 37 H        9.7130     1.8630    -1.3970 H     1 <1>   0.0720 
 38 H        8.4530     1.2460    -2.4290 H     1 <1>   0.0720 
 39 H        8.5760     5.5900    -1.4010 H     1 <1>   0.0720 
 40 H        8.5320    -1.4470     0.6590 H     1 <1>   0.0720 
 41 H        9.7540    -0.9080     1.7750 H     1 <1>   0.0720 
 42 H       10.4590    -0.2320    -2.3300 H     1 <1>   0.0720 
 43 H        8.9710    -1.0230    -1.9000 H     1 <1>   0.0720 
 44 H        9.4280     4.7080     0.4770 H     1 <1>   0.3940 
 45 H       10.6850    -1.6310    -0.3540 H     1 <1>   0.4440 
 46 H       11.0590    -0.0630    -0.0310 H     1 <1>   0.4440 
 47 H        6.3820     6.8540    -1.3280 H     1 <1>   0.1420 
 48 H        7.4180     4.0390     1.7360 H     1 <1>   0.1420 
 49 H        4.6220     7.7350     0.1060 H     1 <1>   0.1420 
 50 H        5.6470     4.9420     3.1430 H     1 <1>   0.1420 
 51 H        4.2330     6.7750     2.3340 H     1 <1>   0.1420 
@<TRIPOS>BOND
  1   1   2  2   
  2   2   3  am  
  3   2   4  am  
  4   3   5  1   
  5   3   6  1   
  6   4   7  am  
  7   4  28  1   
  8   5   8  1   
  9   5   9  2   
 10   6  29  1   
 11   6  30  1   
 12   6  31  1   
 13   7   9  1   
 14   7  10  2   
 15   8  11  ar  
 16   8  32  1   
 17   9  12  1   
 18  11  12  ar  
 19  11  13  ar  
 20  12  14  1   
 21  13  15  1   
 22  13  16  1   
 23  14  17  1   
 24  14  33  1   
 25  14  34  1   
 26  15  18  1   
 27  15  35  1   
 28  15  36  1   
 29  16  19  1   
 30  16  37  1   
 31  16  38  1   
 32  17  20  1   
 33  17  21  1   
 34  17  39  1   
 35  18  22  1   
 36  18  40  1   
 37  18  41  1   
 38  19  22  1   
 39  19  42  1   
 40  19  43  1   
 41  20  44  1   
 42  21  23  ar  
 43  21  24  ar  
 44  22  45  1   
 45  22  46  1   
 46  23  25  ar  
 47  23  47  1   
 48  24  26  ar  
 49  24  48  1   
 50  25  27  ar  
 51  25  49  1   
 52  26  27  ar  
 53  26  50  1   
 54  27  51  1   
@<TRIPOS>SUBSTRUCTURE
  1 ****  12 GROUP 4 **** **** 0

# MOE 2024.06 (io_trps.svl 2023.06)
