@<TRIPOS>MOLECULE
4-(Furan-2-carbonyl)-piperazine-1-sulfonic acid dimethylamide
36 37 1 0 0 
SMALL
USER_CHARGES


@<TRIPOS>ATOM
  1 S       -0.0370    -0.0440     0.8980 S.o2  1 <1>   1.5760 
  2 O        0.5780    -1.3380     1.0880 O.2   1 <1>  -0.6500 
  3 O       -0.3540     0.7950     2.0320 O.2   1 <1>  -0.6500 
  4 N       -1.4420    -0.2440    -0.0120 N.am  1 <1>  -0.8490 
  5 N        0.9070     0.8370    -0.1960 N.am  1 <1>  -0.8490 
  6 C       -2.3330    -1.2270     0.6170 C.3   1 <1>   0.1960 
  7 C       -2.1550     1.0320    -0.1920 C.3   1 <1>   0.1960 
  8 C        1.3240     0.0300    -1.3460 C.3   1 <1>   0.1160 
  9 C        2.0750     1.4260     0.4580 C.3   1 <1>   0.1160 
 10 C       -3.6000    -1.4810    -0.2200 C.3   1 <1>   0.1400 
 11 C       -3.3910     0.8580    -1.0880 C.3   1 <1>   0.1400 
 12 N       -4.3030    -0.2040    -0.5580 N.am  1 <1>  -0.6600 
 13 C       -5.6430     0.0370    -0.3120 C.2   1 <1>   0.7150 
 14 O       -6.0010     1.1990    -0.2110 O.2   1 <1>  -0.5700 
 15 C       -6.6360    -1.0100    -0.1620 C.2   1 <1>   0.0550 
 16 O       -6.4500    -2.2520    -0.6100 O.3   1 <1>  -0.2800 
 17 C       -7.8790    -0.9440     0.3940 C.2   1 <1>  -0.1500 
 18 C       -7.5230    -2.9650    -0.3510 C.2   1 <1>  -0.0100 
 19 C       -8.4500    -2.2110     0.2750 C.2   1 <1>  -0.1500 
 20 H       -2.6190    -0.8840     1.5980 H     1 <1>   0.0800 
 21 H       -1.8100    -2.1610     0.7350 H     1 <1>   0.0800 
 22 H       -1.4990     1.7530    -0.6490 H     1 <1>   0.0800 
 23 H       -2.4660     1.4260     0.7620 H     1 <1>   0.0800 
 24 H        0.4600    -0.3740    -1.8460 H     1 <1>   0.0800 
 25 H        1.9520    -0.7870    -1.0290 H     1 <1>   0.0800 
 26 H        1.8670     0.6400    -2.0480 H     1 <1>   0.0800 
 27 H        1.7590     2.0770     1.2560 H     1 <1>   0.0800 
 28 H        2.6420     2.0080    -0.2490 H     1 <1>   0.0800 
 29 H        2.7050     0.6540     0.8690 H     1 <1>   0.0800 
 30 H       -4.2440    -2.1310     0.3450 H     1 <1>   0.0800 
 31 H       -3.3290    -1.9860    -1.1310 H     1 <1>   0.0800 
 32 H       -3.0690     0.5800    -2.0760 H     1 <1>   0.0800 
 33 H       -3.9040     1.8010    -1.1650 H     1 <1>   0.0800 
 34 H       -8.3450    -0.0820     0.8390 H     1 <1>   0.1500 
 35 H       -7.5500    -4.0000    -0.6460 H     1 <1>   0.1500 
 36 H       -9.4300    -2.4950     0.6170 H     1 <1>   0.1500 
@<TRIPOS>BOND
  1   1   2  2   
  2   1   3  2   
  3   1   4  am  
  4   1   5  am  
  5   4   6  1   
  6   4   7  1   
  7   5   8  1   
  8   5   9  1   
  9   6  10  1   
 10   6  20  1   
 11   6  21  1   
 12   7  11  1   
 13   7  22  1   
 14   7  23  1   
 15   8  24  1   
 16   8  25  1   
 17   8  26  1   
 18   9  27  1   
 19   9  28  1   
 20   9  29  1   
 21  10  12  1   
 22  10  30  1   
 23  10  31  1   
 24  11  12  1   
 25  11  32  1   
 26  11  33  1   
 27  12  13  am  
 28  13  14  2   
 29  13  15  1   
 30  15  16  1   
 31  15  17  2   
 32  16  18  1   
 33  17  19  1   
 34  17  34  1   
 35  18  19  2   
 36  18  35  1   
 37  19  36  1   
@<TRIPOS>SUBSTRUCTURE
  1 ****  10 GROUP 4 **** **** 0

# MOE 2024.06 (io_trps.svl 2023.06)
