@<TRIPOS>MOLECULE
4-(4-Ethoxy-phenyl)-3,6-dihydroxy-6-methyl-4,5,6,7-tetrahydro-1H-indazole-5-carb
51 53 1 0 0 
SMALL
USER_CHARGES


@<TRIPOS>ATOM
  1 O       -2.4820     1.1390     2.0680 O.2   1 <1>  -0.5700 
  2 C       -2.0450     1.4290     0.9830 C.2   1 <1>   0.6590 
  3 O       -2.1450     0.6040    -0.0520 O.3   1 <1>  -0.4300 
  4 C       -1.4270     2.7950     0.7470 C.3   1 <1>  -0.0190 
  5 C       -2.7830    -0.6480     0.0430 C.3   1 <1>   0.2580 
  6 C       -2.5210     3.8930     0.6600 C.3   1 <1>   0.2800 
  7 C       -0.4530     2.7930    -0.4590 C.3   1 <1>   0.2440 
  8 C       -4.2780    -0.4390    -0.1170 C.2   1 <1>  -0.2880 
  9 O       -3.2790     3.8620     1.8160 O.3   1 <1>  -0.6800 
 10 C       -1.8970     5.3070     0.5930 C.3   1 <1>   0.0200 
 11 C       -3.5050     3.6690    -0.4980 C.3   1 <1>  -0.2400 
 12 C        0.7950     1.9730    -0.1280 C.ar  1 <1>  -0.1440 
 13 C       -0.1030     4.2210    -0.8380 C.2   1 <1>  -0.1810 
 14 C       -5.0220    -0.8960    -1.1290 C.2   1 <1>  -0.3000 
 15 C       -0.7310     5.3200    -0.3780 C.2   1 <1>  -0.3320 
 16 C        0.9980     0.7350    -0.7220 C.ar  1 <1>  -0.1500 
 17 C        1.7420     2.4510     0.7680 C.ar  1 <1>  -0.1500 
 18 C        0.8580     4.7280    -1.7010 C.2   1 <1>   0.3510 
 19 N       -0.1290     6.3900    -0.9440 N.pl3 1 <1>   0.3000 
 20 C        2.1200    -0.0180    -0.4230 C.ar  1 <1>  -0.1500 
 21 C        2.8640     1.7010     1.0700 C.ar  1 <1>  -0.1500 
 22 O        1.7210     4.0260    -2.4310 O.3   1 <1>  -0.5120 
 23 N        0.8700     6.0140    -1.7790 N.2   1 <1>  -0.7070 
 24 C        3.0630     0.4640     0.4800 C.ar  1 <1>   0.0830 
 25 O        4.1900    -0.2050     0.8270 O.3   1 <1>  -0.3620 
 26 C        4.5390    -1.4190     0.2070 C.3   1 <1>   0.1200 
 27 C        5.8800    -1.8720     0.7760 C.3   1 <1>  -0.2400 
 28 H       -0.8420     3.0230     1.6180 H     1 <1>   0.0800 
 29 H       -2.5460    -1.1030     0.9900 H     1 <1>   0.0800 
 30 H       -2.4010    -1.2690    -0.7490 H     1 <1>   0.0800 
 31 H       -0.9350     2.3690    -1.3220 H     1 <1>   0.0800 
 32 H       -4.6950     0.1340     0.6950 H     1 <1>   0.1500 
 33 H       -3.4140     2.9340     2.1140 H     1 <1>   0.4000 
 34 H       -1.5290     5.5870     1.5650 H     1 <1>   0.0800 
 35 H       -2.6410     6.0230     0.2900 H     1 <1>   0.0800 
 36 H       -2.9970     3.7330    -1.4420 H     1 <1>   0.0800 
 37 H       -3.9790     2.7070    -0.4320 H     1 <1>   0.0800 
 38 H       -4.2700     4.4260    -0.4840 H     1 <1>   0.0800 
 39 H       -6.0840    -0.7320    -1.2130 H     1 <1>   0.1500 
 40 H       -4.6410    -1.4700    -1.9560 H     1 <1>   0.1500 
 41 H        0.2820     0.3490    -1.4260 H     1 <1>   0.1500 
 42 H        1.6140     3.4150     1.2300 H     1 <1>   0.1500 
 43 H       -0.3720     7.3770    -0.7930 H     1 <1>   0.2700 
 44 H        2.2430    -0.9700    -0.9010 H     1 <1>   0.1500 
 45 H        3.5960     2.0720     1.7630 H     1 <1>   0.1500 
 46 H        2.2720     4.6840    -2.8880 H     1 <1>   0.4500 
 47 H        4.6130    -1.2500    -0.8540 H     1 <1>   0.0800 
 48 H        3.7710    -2.1430     0.4190 H     1 <1>   0.0800 
 49 H        6.6350    -1.1340     0.5730 H     1 <1>   0.0800 
 50 H        6.1740    -2.8000     0.3210 H     1 <1>   0.0800 
 51 H        5.7980    -2.0200     1.8380 H     1 <1>   0.0800 
@<TRIPOS>BOND
  1   1   2  2   
  2   2   3  1   
  3   2   4  1   
  4   3   5  1   
  5   4   6  1   
  6   4   7  1   
  7   4  28  1   
  8   5   8  1   
  9   5  29  1   
 10   5  30  1   
 11   6   9  1   
 12   6  10  1   
 13   6  11  1   
 14   7  12  1   
 15   7  13  1   
 16   7  31  1   
 17   8  14  2   
 18   8  32  1   
 19   9  33  1   
 20  10  15  1   
 21  10  34  1   
 22  10  35  1   
 23  11  36  1   
 24  11  37  1   
 25  11  38  1   
 26  12  16  ar  
 27  12  17  ar  
 28  13  15  2   
 29  13  18  1   
 30  14  39  1   
 31  14  40  1   
 32  15  19  1   
 33  16  20  ar  
 34  16  41  1   
 35  17  21  ar  
 36  17  42  1   
 37  18  22  1   
 38  18  23  2   
 39  19  23  1   
 40  19  43  1   
 41  20  24  ar  
 42  20  44  1   
 43  21  24  ar  
 44  21  45  1   
 45  22  46  1   
 46  24  25  1   
 47  25  26  1   
 48  26  27  1   
 49  26  47  1   
 50  26  48  1   
 51  27  49  1   
 52  27  50  1   
 53  27  51  1   
@<TRIPOS>SUBSTRUCTURE
  1 ****   7 GROUP 4 **** **** 0

# MOE 2024.06 (io_trps.svl 2023.06)
