@<TRIPOS>MOLECULE
2-(3-Cyano-4-methoxymethyl-6-methyl-2-oxo-2H-pyridin-1-yl)-N-(2,4,6-trimethyl-ph
49 50 1 0 0 
SMALL
USER_CHARGES


@<TRIPOS>ATOM
  1 O        0.2310     0.1070     0.8600 O.2   1 <1>  -0.5700 
  2 C       -0.8230     0.6180     0.4920 C.2   1 <1>   0.6160 
  3 N       -1.8070    -0.1900    -0.0640 N.am  1 <1>  -0.4690 
  4 C       -1.0580     2.0220     0.6180 C.2   1 <1>   0.0790 
  5 C       -3.0140     0.3600    -0.4660 C.2   1 <1>  -0.0290 
  6 C       -1.5380    -1.6730    -0.1220 C.3   1 <1>   0.2010 
  7 C       -0.0040     2.8060     1.1820 C.1   1 <1>   0.4920 
  8 C       -2.2500     2.5560     0.2080 C.2   1 <1>  -0.1380 
  9 C       -3.2290     1.6970    -0.3430 C.2   1 <1>  -0.1500 
 10 C       -4.1040    -0.5360    -1.0370 C.3   1 <1>  -0.1020 
 11 C       -1.8370    -2.4050     1.1920 C.2   1 <1>   0.5690 
 12 N        0.7810     3.4980     1.6360 N.1   1 <1>  -0.5570 
 13 C       -2.5930     4.0390     0.3090 C.3   1 <1>   0.2580 
 14 O       -2.6860    -2.0000     1.9500 O.2   1 <1>  -0.5700 
 15 N       -1.1810    -3.5570     1.4920 N.am  1 <1>  -0.5470 
 16 O       -2.6530     4.5510    -0.9820 O.3   1 <1>  -0.5600 
 17 C       -0.2870    -4.2770     0.6910 C.ar  1 <1>   0.1170 
 18 C       -2.8940     5.9200    -1.0420 C.3   1 <1>   0.0400 
 19 C       -0.7590    -5.3490    -0.0690 C.ar  1 <1>  -0.1430 
 20 C        1.0660    -3.9360     0.6340 C.ar  1 <1>  -0.1430 
 21 C        0.1130    -6.0540    -0.8810 C.ar  1 <1>  -0.1500 
 22 C       -2.2250    -5.7640    -0.0240 C.3   1 <1>  -0.0970 
 23 C        1.9180    -4.6540    -0.1870 C.ar  1 <1>  -0.1500 
 24 C        1.6690    -2.7890     1.4400 C.3   1 <1>  -0.0970 
 25 C        1.4510    -5.7100    -0.9480 C.ar  1 <1>  -0.1430 
 26 C        2.4010    -6.4880    -1.8410 C.3   1 <1>  -0.0970 
 27 H       -0.5070    -1.8290    -0.3800 H     1 <1>   0.0800 
 28 H       -2.1150    -2.1290    -0.9010 H     1 <1>   0.0800 
 29 H       -4.1560     2.1420    -0.6640 H     1 <1>   0.1500 
 30 H       -3.7710    -0.9930    -1.9510 H     1 <1>   0.0800 
 31 H       -4.9900     0.0340    -1.2540 H     1 <1>   0.0800 
 32 H       -4.3650    -1.2990    -0.3260 H     1 <1>   0.0800 
 33 H       -1.8550     4.5920     0.8630 H     1 <1>   0.0800 
 34 H       -3.5560     4.1680     0.7740 H     1 <1>   0.0800 
 35 H       -1.4520    -3.9760     2.3800 H     1 <1>   0.3700 
 36 H       -2.9300     6.2080    -2.0780 H     1 <1>   0.0800 
 37 H       -2.0940     6.4450    -0.5490 H     1 <1>   0.0800 
 38 H       -3.8390     6.1370    -0.5730 H     1 <1>   0.0800 
 39 H       -0.2470    -6.8810    -1.4670 H     1 <1>   0.1500 
 40 H       -2.8490    -4.9550    -0.3580 H     1 <1>   0.0800 
 41 H       -2.5030    -6.0250     0.9810 H     1 <1>   0.0800 
 42 H       -2.4070    -6.6150    -0.6560 H     1 <1>   0.0800 
 43 H        2.9590    -4.3870    -0.2340 H     1 <1>   0.1500 
 44 H        1.0120    -2.4420     2.2160 H     1 <1>   0.0800 
 45 H        1.8880    -1.9630     0.7880 H     1 <1>   0.0800 
 46 H        2.5850    -3.1090     1.9030 H     1 <1>   0.0800 
 47 H        1.8730    -6.9130    -2.6750 H     1 <1>   0.0800 
 48 H        2.8600    -7.2810    -1.2790 H     1 <1>   0.0800 
 49 H        3.1720    -5.8410    -2.2220 H     1 <1>   0.0800 
@<TRIPOS>BOND
  1   1   2  2   
  2   2   3  am  
  3   2   4  1   
  4   3   5  1   
  5   3   6  1   
  6   4   7  1   
  7   4   8  2   
  8   5   9  2   
  9   5  10  1   
 10   6  11  1   
 11   6  27  1   
 12   6  28  1   
 13   7  12  3   
 14   8   9  1   
 15   8  13  1   
 16   9  29  1   
 17  10  30  1   
 18  10  31  1   
 19  10  32  1   
 20  11  14  2   
 21  11  15  am  
 22  13  16  1   
 23  13  33  1   
 24  13  34  1   
 25  15  17  1   
 26  15  35  1   
 27  16  18  1   
 28  17  19  ar  
 29  17  20  ar  
 30  18  36  1   
 31  18  37  1   
 32  18  38  1   
 33  19  21  ar  
 34  19  22  1   
 35  20  23  ar  
 36  20  24  1   
 37  21  25  ar  
 38  21  39  1   
 39  22  40  1   
 40  22  41  1   
 41  22  42  1   
 42  23  25  ar  
 43  23  43  1   
 44  24  44  1   
 45  24  45  1   
 46  24  46  1   
 47  25  26  1   
 48  26  47  1   
 49  26  48  1   
 50  26  49  1   
@<TRIPOS>SUBSTRUCTURE
  1 ****   6 GROUP 4 **** **** 0

# MOE 2024.06 (io_trps.svl 2023.06)
