@<TRIPOS>MOLECULE
[(5-Oxo-1-p-tolyl-pyrrolidine-3-carbonyl)-amino]-acetic acid methyl ester
39 40 1 0 0 
SMALL
USER_CHARGES


@<TRIPOS>ATOM
  1 O        1.6800     0.1880    -1.2640 O.2   1 <1>  -0.5700 
  2 C        2.7490     0.0590    -0.7210 C.2   1 <1>   0.5690 
  3 N        3.2160    -1.0430    -0.0620 N.am  1 <1>  -0.4770 
  4 C        3.7610     1.1700    -0.7160 C.3   1 <1>  -0.0990 
  5 C        2.5930    -2.2960     0.1100 C.ar  1 <1>   0.1170 
  6 C        4.5740    -0.7890     0.4630 C.3   1 <1>   0.1400 
  7 C        5.0540     0.4600    -0.2900 C.3   1 <1>  -0.0190 
  8 C        2.7940    -3.0420     1.2690 C.ar  1 <1>  -0.1500 
  9 C        1.7690    -2.8330    -0.8740 C.ar  1 <1>  -0.1500 
 10 C        6.0080     1.3310     0.5120 C.2   1 <1>   0.5690 
 11 C        2.2010    -4.2810     1.4330 C.ar  1 <1>  -0.1500 
 12 C        1.1730    -4.0710    -0.7120 C.ar  1 <1>  -0.1500 
 13 O        6.4670     0.9260     1.5510 O.2   1 <1>  -0.5700 
 14 N        6.3410     2.5520     0.0310 N.am  1 <1>  -0.7300 
 15 C        1.3880    -4.8050     0.4420 C.ar  1 <1>  -0.1430 
 16 C        7.3010     3.4900     0.6940 C.3   1 <1>   0.2010 
 17 C        0.7330    -6.1630     0.6200 C.3   1 <1>  -0.0970 
 18 C        7.6690     4.6890    -0.1820 C.2   1 <1>   0.6590 
 19 O        7.1550     4.8690    -1.2590 O.2   1 <1>  -0.5700 
 20 O        8.5810     5.5160     0.3140 O.3   1 <1>  -0.4300 
 21 C        9.0110     6.6610    -0.3950 C.3   1 <1>   0.0400 
 22 H        3.4560     1.9050     0.0070 H     1 <1>   0.0800 
 23 H        3.8450     1.6180    -1.6890 H     1 <1>   0.0800 
 24 H        5.2220    -1.6300     0.2830 H     1 <1>   0.0800 
 25 H        4.5060    -0.6020     1.5210 H     1 <1>   0.0800 
 26 H        5.5730     0.1260    -1.1710 H     1 <1>   0.0800 
 27 H        3.4120    -2.6540     2.0560 H     1 <1>   0.1500 
 28 H        1.5910    -2.2780    -1.7770 H     1 <1>   0.1500 
 29 H        2.3720    -4.8350     2.3390 H     1 <1>   0.1500 
 30 H        0.5400    -4.4580    -1.4910 H     1 <1>   0.1500 
 31 H        5.9860     2.8940    -0.8690 H     1 <1>   0.3700 
 32 H        8.2000     2.9560     0.9440 H     1 <1>   0.0800 
 33 H        6.8620     3.8530     1.6060 H     1 <1>   0.0800 
 34 H        1.3340    -6.7910     1.2530 H     1 <1>   0.0800 
 35 H        0.6180    -6.6510    -0.3310 H     1 <1>   0.0800 
 36 H       -0.2360    -6.0420     1.0690 H     1 <1>   0.0800 
 37 H        9.7480     7.1730     0.1980 H     1 <1>   0.0800 
 38 H        8.1640     7.3020    -0.5680 H     1 <1>   0.0800 
 39 H        9.4390     6.3510    -1.3320 H     1 <1>   0.0800 
@<TRIPOS>BOND
  1   1   2  2   
  2   2   3  am  
  3   2   4  1   
  4   3   5  1   
  5   3   6  1   
  6   4   7  1   
  7   4  22  1   
  8   4  23  1   
  9   5   8  ar  
 10   5   9  ar  
 11   6   7  1   
 12   6  24  1   
 13   6  25  1   
 14   7  10  1   
 15   7  26  1   
 16   8  11  ar  
 17   8  27  1   
 18   9  12  ar  
 19   9  28  1   
 20  10  13  2   
 21  10  14  am  
 22  11  15  ar  
 23  11  29  1   
 24  12  15  ar  
 25  12  30  1   
 26  14  16  1   
 27  14  31  1   
 28  15  17  1   
 29  16  18  1   
 30  16  32  1   
 31  16  33  1   
 32  17  34  1   
 33  17  35  1   
 34  17  36  1   
 35  18  19  2   
 36  18  20  1   
 37  20  21  1   
 38  21  37  1   
 39  21  38  1   
 40  21  39  1   
@<TRIPOS>SUBSTRUCTURE
  1 ****   7 GROUP 4 **** **** 0

# MOE 2024.06 (io_trps.svl 2023.06)
