@<TRIPOS>MOLECULE
2-(4-Cyclohexyl-5-methyl-4H-[1,2,4]triazol-3-ylsulfanyl)-N-(4-fluoro-phenyl)-ace
45 47 1 0 0 
SMALL
USER_CHARGES


@<TRIPOS>ATOM
  1 S        0.5460     1.0410    -0.0010 S.3   1 <1>  -0.2860 
  2 C       -0.1260    -0.2130    -1.1020 C.2   1 <1>   0.2420 
  3 C        2.3770     0.9990    -0.3230 C.3   1 <1>   0.1310 
  4 N        0.5810    -0.7910    -2.0060 N.2   1 <1>  -0.3380 
  5 N       -1.3900    -0.6450    -1.0470 N.pl3 1 <1>   0.0480 
  6 C        3.0160    -0.2030     0.3570 C.2   1 <1>   0.5690 
  7 N       -0.2250    -1.6750    -2.5880 N.2   1 <1>  -0.3380 
  8 C       -1.3830    -1.5770    -2.0220 C.2   1 <1>   0.0060 
  9 C       -2.4490    -0.1530    -0.1180 C.3   1 <1>   0.1760 
 10 O        3.7690     0.0020     1.2780 O.2   1 <1>  -0.5700 
 11 N        2.7160    -1.4510    -0.1190 N.am  1 <1>  -0.5470 
 12 C       -2.5540    -2.4440    -2.4500 C.3   1 <1>  -0.0600 
 13 C       -3.1140    -1.2920     0.6740 C.3   1 <1>  -0.1600 
 14 C       -3.4890     0.7020    -0.8630 C.3   1 <1>  -0.1600 
 15 C        3.0890    -2.7450     0.2680 C.ar  1 <1>   0.1170 
 16 C       -4.1610    -0.7350     1.6490 C.3   1 <1>  -0.1600 
 17 C       -4.5480     1.2460     0.1080 C.3   1 <1>  -0.1600 
 18 C        4.0190    -3.0150     1.2730 C.ar  1 <1>  -0.1500 
 19 C        2.4880    -3.8120    -0.3970 C.ar  1 <1>  -0.1500 
 20 C       -5.2060     0.1140     0.9100 C.3   1 <1>  -0.1600 
 21 C        4.3430    -4.3190     1.6080 C.ar  1 <1>  -0.1500 
 22 C        2.8010    -5.1210    -0.0740 C.ar  1 <1>  -0.1500 
 23 C        3.7260    -5.3500     0.9260 C.ar  1 <1>   0.1900 
 24 F        4.0270    -6.5840     1.2380 F     1 <1>  -0.1900 
 25 H        2.7840     1.9090     0.0750 H     1 <1>   0.0800 
 26 H        2.5250     0.9690    -1.3860 H     1 <1>   0.0800 
 27 H       -1.9780     0.4870     0.6050 H     1 <1>   0.0800 
 28 H        2.0420    -1.4420    -0.8950 H     1 <1>   0.3700 
 29 H       -3.4450    -1.8590    -2.5710 H     1 <1>   0.0800 
 30 H       -2.7240    -3.2180    -1.7250 H     1 <1>   0.0800 
 31 H       -2.3300    -2.9120    -3.3920 H     1 <1>   0.0800 
 32 H       -2.3650    -1.8330     1.2270 H     1 <1>   0.0800 
 33 H       -3.6100    -1.9730     0.0090 H     1 <1>   0.0800 
 34 H       -3.9820     0.1160    -1.6160 H     1 <1>   0.0800 
 35 H       -2.9960     1.5290    -1.3450 H     1 <1>   0.0800 
 36 H       -3.6730    -0.1310     2.3950 H     1 <1>   0.0800 
 37 H       -4.6520    -1.5490     2.1560 H     1 <1>   0.0800 
 38 H       -5.3020     1.7820    -0.4430 H     1 <1>   0.0800 
 39 H       -4.0860     1.9400     0.7890 H     1 <1>   0.0800 
 40 H        4.4980    -2.2110     1.7990 H     1 <1>   0.1500 
 41 H        1.7690    -3.6160    -1.1740 H     1 <1>   0.1500 
 42 H       -5.8950     0.5340     1.6230 H     1 <1>   0.0800 
 43 H       -5.7700    -0.5150     0.2430 H     1 <1>   0.0800 
 44 H        5.0580    -4.5340     2.3810 H     1 <1>   0.1500 
 45 H        2.3410    -5.9480    -0.5840 H     1 <1>   0.1500 
@<TRIPOS>BOND
  1   1   2  1   
  2   1   3  1   
  3   2   4  2   
  4   2   5  1   
  5   3   6  1   
  6   3  25  1   
  7   3  26  1   
  8   4   7  1   
  9   5   8  1   
 10   5   9  1   
 11   6  10  2   
 12   6  11  am  
 13   7   8  2   
 14   8  12  1   
 15   9  13  1   
 16   9  14  1   
 17   9  27  1   
 18  11  15  1   
 19  11  28  1   
 20  12  29  1   
 21  12  30  1   
 22  12  31  1   
 23  13  16  1   
 24  13  32  1   
 25  13  33  1   
 26  14  17  1   
 27  14  34  1   
 28  14  35  1   
 29  15  18  ar  
 30  15  19  ar  
 31  16  20  1   
 32  16  36  1   
 33  16  37  1   
 34  17  20  1   
 35  17  38  1   
 36  17  39  1   
 37  18  21  ar  
 38  18  40  1   
 39  19  22  ar  
 40  19  41  1   
 41  20  42  1   
 42  20  43  1   
 43  21  23  ar  
 44  21  44  1   
 45  22  23  ar  
 46  22  45  1   
 47  23  24  1   
@<TRIPOS>SUBSTRUCTURE
  1 ****   2 GROUP 4 **** **** 0

# MOE 2024.06 (io_trps.svl 2023.06)
