@<TRIPOS>MOLECULE
8-Cyclohexyl-3-(2-ethoxy-ethyl)-1,6-dimethyl-5,6,7,8-tetrahydro-1H-1,3,4b,8,9-pe
60 63 1 0 0 
SMALL
USER_CHARGES


@<TRIPOS>ATOM
  1 O        0.9180     0.7310     1.1040 O.2   1 <1>  -0.5740 
  2 C        1.9870     1.2940     0.9890 C.2   1 <1>   0.6870 
  3 N        2.0530     2.6820     1.0400 N.am  1 <1>  -0.4250 
  4 N        3.1410     0.5470     0.7870 N.am  1 <1>  -0.4400 
  5 C        3.2450     3.3540     0.8090 C.2   1 <1>   0.7000 
  6 C        0.8120     3.4620     1.3470 C.3   1 <1>   0.1340 
  7 C        4.3250     1.2260     0.5730 C.2   1 <1>   0.4220 
  8 C        3.0930    -0.9460     0.7660 C.3   1 <1>   0.0540 
  9 O        3.2910     4.5720     0.7970 O.2   1 <1>  -0.5740 
 10 C        4.4200     2.5720     0.5730 C.2   1 <1>   0.2720 
 11 C        0.0020     3.7160     0.0760 C.3   1 <1>   0.1140 
 12 N        5.5590     0.7040     0.3250 N.pl3 1 <1>  -0.7030 
 13 N        5.7690     2.8650     0.3140 N.pl3 1 <1>  -0.7670 
 14 O       -1.0920     4.4990     0.4180 O.3   1 <1>  -0.5640 
 15 C        6.4180     1.7130     0.1760 C.cat 1 <1>   1.0690 
 16 C        6.3890     4.2020     0.2130 C.3   1 <1>   0.3490 
 17 C       -1.9430     4.7730    -0.6440 C.3   1 <1>   0.1140 
 18 N        7.7410     1.6450    -0.0710 N.pl3 1 <1>  -0.5950 
 19 C        7.6690     4.0950    -0.6300 C.3   1 <1>  -0.0860 
 20 C       -3.0800     5.6350    -0.1110 C.3   1 <1>  -0.2450 
 21 C        8.5430     0.3920    -0.1720 C.3   1 <1>   0.2420 
 22 C        8.5400     2.9020    -0.1890 C.3   1 <1>   0.1620 
 23 C        8.4750     5.4010    -0.5720 C.3   1 <1>  -0.2450 
 24 C        8.1040    -0.4520    -1.3790 C.3   1 <1>  -0.1660 
 25 C        8.5140    -0.4020     1.1440 C.3   1 <1>  -0.1660 
 26 C        8.9400    -1.7360    -1.4780 C.3   1 <1>  -0.1660 
 27 C        9.3480    -1.6850     1.0230 C.3   1 <1>  -0.1660 
 28 C        8.8930    -2.5350    -0.1700 C.3   1 <1>  -0.1660 
 29 H        1.0690     4.4060     1.7970 H     1 <1>   0.0740 
 30 H        0.2040     2.9160     2.0480 H     1 <1>   0.0740 
 31 H        2.2290    -1.3040     1.3010 H     1 <1>   0.0740 
 32 H        3.9680    -1.3570     1.2350 H     1 <1>   0.0740 
 33 H        3.0330    -1.2920    -0.2520 H     1 <1>   0.0740 
 34 H       -0.3550     2.7870    -0.3350 H     1 <1>   0.0740 
 35 H        0.5900     4.2550    -0.6470 H     1 <1>   0.0740 
 36 H        5.8210    -0.2750     0.2560 H     1 <1>   0.4460 
 37 H        6.6210     4.5580     1.2040 H     1 <1>   0.0740 
 38 H        5.7040     4.8950    -0.2470 H     1 <1>   0.0740 
 39 H       -2.3220     3.8450    -1.0360 H     1 <1>   0.0740 
 40 H       -1.3930     5.3000    -1.4050 H     1 <1>   0.0740 
 41 H        7.3820     3.9400    -1.6560 H     1 <1>   0.0740 
 42 H       -3.6150     5.1050     0.6570 H     1 <1>   0.0740 
 43 H       -3.7620     5.8700    -0.9070 H     1 <1>   0.0740 
 44 H       -2.6900     6.5530     0.2910 H     1 <1>   0.0740 
 45 H        9.5730     0.6620    -0.3430 H     1 <1>   0.0740 
 46 H        9.3270     2.7670    -0.9130 H     1 <1>   0.0740 
 47 H        8.9960     3.1120     0.7640 H     1 <1>   0.0740 
 48 H        8.7990     5.6140     0.4330 H     1 <1>   0.0740 
 49 H        7.8790     6.2280    -0.9190 H     1 <1>   0.0740 
 50 H        9.3460     5.3340    -1.2020 H     1 <1>   0.0740 
 51 H        8.2370     0.1170    -2.2840 H     1 <1>   0.0740 
 52 H        7.0720    -0.7350    -1.3050 H     1 <1>   0.0740 
 53 H        7.5140    -0.6840     1.4110 H     1 <1>   0.0740 
 54 H        8.9210     0.2010     1.9370 H     1 <1>   0.0740 
 55 H        9.9640    -1.4830    -1.7010 H     1 <1>   0.0740 
 56 H        8.5740    -2.3470    -2.2870 H     1 <1>   0.0740 
 57 H        9.2620    -2.2610     1.9290 H     1 <1>   0.0740 
 58 H       10.3870    -1.4290     0.8990 H     1 <1>   0.0740 
 59 H        9.5330    -3.3970    -0.2570 H     1 <1>   0.0740 
 60 H        7.8910    -2.8920     0.0010 H     1 <1>   0.0740 
@<TRIPOS>BOND
  1   1   2  2   
  2   2   3  am  
  3   2   4  am  
  4   3   5  am  
  5   3   6  1   
  6   4   7  1   
  7   4   8  1   
  8   5   9  2   
  9   5  10  1   
 10   6  11  1   
 11   6  29  1   
 12   6  30  1   
 13   7  10  2   
 14   7  12  1   
 15   8  31  1   
 16   8  32  1   
 17   8  33  1   
 18  10  13  1   
 19  11  14  1   
 20  11  34  1   
 21  11  35  1   
 22  12  15  ar  
 23  12  36  1   
 24  13  15  ar  
 25  13  16  1   
 26  14  17  1   
 27  15  18  ar  
 28  16  19  1   
 29  16  37  1   
 30  16  38  1   
 31  17  20  1   
 32  17  39  1   
 33  17  40  1   
 34  18  21  1   
 35  18  22  1   
 36  19  22  1   
 37  19  23  1   
 38  19  41  1   
 39  20  42  1   
 40  20  43  1   
 41  20  44  1   
 42  21  24  1   
 43  21  25  1   
 44  21  45  1   
 45  22  46  1   
 46  22  47  1   
 47  23  48  1   
 48  23  49  1   
 49  23  50  1   
 50  24  26  1   
 51  24  51  1   
 52  24  52  1   
 53  25  27  1   
 54  25  53  1   
 55  25  54  1   
 56  26  28  1   
 57  26  55  1   
 58  26  56  1   
 59  27  28  1   
 60  27  57  1   
 61  27  58  1   
 62  28  59  1   
 63  28  60  1   
@<TRIPOS>SUBSTRUCTURE
  1 ****  10 GROUP 4 **** **** 0

# MOE 2024.06 (io_trps.svl 2023.06)
