@<TRIPOS>MOLECULE
[1-(2,5-Dimethoxy-benzenesulfonyl)-piperidin-4-yl]-morpholin-4-yl-methanone
53 55 1 0 0 
SMALL
USER_CHARGES


@<TRIPOS>ATOM
  1 S       -0.4670     0.1070    -1.2520 S.o2  1 <1>   1.4470 
  2 O        0.0710    -0.9110    -2.1320 O.2   1 <1>  -0.6500 
  3 O       -1.4170     1.0490    -1.8050 O.2   1 <1>  -0.6500 
  4 N        0.8770     0.9820    -0.7000 N.am  1 <1>  -0.8490 
  5 C       -1.1830    -0.6960     0.2060 C.ar  1 <1>  -0.0090 
  6 C        1.3680     1.9070    -1.7220 C.3   1 <1>   0.1960 
  7 C        1.9370     0.1140    -0.1880 C.3   1 <1>   0.1960 
  8 C       -1.5080     0.0210     1.3540 C.ar  1 <1>   0.0830 
  9 C       -1.4410    -2.0630     0.1990 C.ar  1 <1>  -0.1500 
 10 C        2.4720     2.7960    -1.1450 C.3   1 <1>  -0.1600 
 11 C        3.0510     0.9540     0.4410 C.3   1 <1>  -0.1600 
 12 O       -1.2740     1.3470     1.4250 O.3   1 <1>  -0.3620 
 13 C       -2.0530    -0.6070     2.4640 C.ar  1 <1>  -0.1500 
 14 C       -1.9950    -2.7020     1.3040 C.ar  1 <1>   0.0830 
 15 C        3.6300     1.9570    -0.5710 C.3   1 <1>  -0.0190 
 16 C       -2.3740     2.1930     1.1780 C.3   1 <1>   0.0400 
 17 C       -2.2970    -1.9660     2.4360 C.ar  1 <1>  -0.1500 
 18 O       -2.2660    -4.0310     1.3510 O.3   1 <1>  -0.3630 
 19 C        4.7370     2.8130     0.0610 C.2   1 <1>   0.5690 
 20 C       -2.0340    -4.8660     0.2370 C.3   1 <1>   0.0400 
 21 O        4.4290     3.8850     0.5290 O.2   1 <1>  -0.5700 
 22 N        6.0420     2.3770     0.0960 N.am  1 <1>  -0.6600 
 23 C        7.1290     3.2460     0.6460 C.3   1 <1>   0.1400 
 24 C        6.5490     1.0400    -0.3420 C.3   1 <1>   0.1400 
 25 C        7.9650     2.4830     1.6860 C.3   1 <1>   0.1200 
 26 C        7.4190     0.4020     0.7550 C.3   1 <1>   0.1200 
 27 O        8.4340     1.2760     1.1530 O.3   1 <1>  -0.5600 
 28 H        0.5610     2.5390    -2.0570 H     1 <1>   0.0800 
 29 H        1.7360     1.3540    -2.5710 H     1 <1>   0.0800 
 30 H        2.3360    -0.4900    -0.9870 H     1 <1>   0.0800 
 31 H        1.5330    -0.5440     0.5640 H     1 <1>   0.0800 
 32 H       -1.2000    -2.6190    -0.6880 H     1 <1>   0.1500 
 33 H        2.0430     3.4110    -0.3730 H     1 <1>   0.0800 
 34 H        2.8440     3.4500    -1.9130 H     1 <1>   0.0800 
 35 H        3.8250     0.3030     0.8040 H     1 <1>   0.0800 
 36 H        2.6490     1.4860     1.2870 H     1 <1>   0.0800 
 37 H       -2.2800    -0.0300     3.3420 H     1 <1>   0.1500 
 38 H        4.0530     1.4170    -1.3970 H     1 <1>   0.0800 
 39 H       -2.0280     3.2100     1.2140 H     1 <1>   0.0800 
 40 H       -3.1210     2.0280     1.9340 H     1 <1>   0.0800 
 41 H       -2.7730     1.9770     0.2020 H     1 <1>   0.0800 
 42 H       -2.7200    -2.4640     3.2900 H     1 <1>   0.1500 
 43 H       -2.3360    -5.8640     0.5000 H     1 <1>   0.0800 
 44 H       -0.9850    -4.8530     0.0010 H     1 <1>   0.0800 
 45 H       -2.6210    -4.5140    -0.5920 H     1 <1>   0.0800 
 46 H        6.7210     4.1290     1.1060 H     1 <1>   0.0800 
 47 H        7.7700     3.5610    -0.1580 H     1 <1>   0.0800 
 48 H        7.1420     1.1630    -1.2310 H     1 <1>   0.0800 
 49 H        5.7430     0.3700    -0.5710 H     1 <1>   0.0800 
 50 H        7.3760     2.2710     2.5620 H     1 <1>   0.0800 
 51 H        8.8180     3.0680     1.9770 H     1 <1>   0.0800 
 52 H        7.8870    -0.4940     0.3860 H     1 <1>   0.0800 
 53 H        6.8230     0.1520     1.6150 H     1 <1>   0.0800 
@<TRIPOS>BOND
  1   1   2  2   
  2   1   3  2   
  3   1   4  am  
  4   1   5  1   
  5   4   6  1   
  6   4   7  1   
  7   5   8  ar  
  8   5   9  ar  
  9   6  10  1   
 10   6  28  1   
 11   6  29  1   
 12   7  11  1   
 13   7  30  1   
 14   7  31  1   
 15   8  12  1   
 16   8  13  ar  
 17   9  14  ar  
 18   9  32  1   
 19  10  15  1   
 20  10  33  1   
 21  10  34  1   
 22  11  15  1   
 23  11  35  1   
 24  11  36  1   
 25  12  16  1   
 26  13  17  ar  
 27  13  37  1   
 28  14  17  ar  
 29  14  18  1   
 30  15  19  1   
 31  15  38  1   
 32  16  39  1   
 33  16  40  1   
 34  16  41  1   
 35  17  42  1   
 36  18  20  1   
 37  19  21  2   
 38  19  22  am  
 39  20  43  1   
 40  20  44  1   
 41  20  45  1   
 42  22  23  1   
 43  22  24  1   
 44  23  25  1   
 45  23  46  1   
 46  23  47  1   
 47  24  26  1   
 48  24  48  1   
 49  24  49  1   
 50  25  27  1   
 51  25  50  1   
 52  25  51  1   
 53  26  27  1   
 54  26  52  1   
 55  26  53  1   
@<TRIPOS>SUBSTRUCTURE
  1 ****   7 GROUP 4 **** **** 0

# MOE 2024.06 (io_trps.svl 2023.06)
