@<TRIPOS>MOLECULE
6-(3,4,5-Triethoxy-phenyl)-3-trifluoromethyl-[1,2,4]triazolo[3,4-b][1,3,4]thiadi
44 46 1 0 0 
SMALL
USER_CHARGES


@<TRIPOS>ATOM
  1 S       -0.5700    -0.2720    -0.3660 S.3   1 <1>  -0.1970 
  2 C        0.4100     1.1710    -0.3090 C.2   1 <1>   0.2420 
  3 C       -2.0340     0.7400    -0.1770 C.2   1 <1>   0.5050 
  4 N        1.6630     1.4470    -0.3720 N.2   1 <1>  -0.3380 
  5 N       -0.3860     2.2130    -0.1640 N.pl3 1 <1>   0.5050 
  6 N       -1.7590     1.9950    -0.0880 N.2   1 <1>  -0.6520 
  7 C       -3.3340     0.0990    -0.1410 C.ar  1 <1>   0.0860 
  8 N        1.7150     2.7860    -0.2590 N.2   1 <1>  -0.3380 
  9 C        0.4890     3.2190    -0.1370 C.2   1 <1>   0.0060 
 10 C       -4.4840     0.8750     0.0170 C.ar  1 <1>  -0.1500 
 11 C       -3.5130    -1.2810    -0.2540 C.ar  1 <1>  -0.1500 
 12 C       -0.0250     4.6350     0.0210 C.3   1 <1>   1.2000 
 13 C       -5.7550     0.3150     0.0560 C.ar  1 <1>   0.0830 
 14 C       -4.7640    -1.8680    -0.2100 C.ar  1 <1>   0.0830 
 15 F       -0.8500     4.9820    -0.9610 F     1 <1>  -0.3400 
 16 F        0.9380     5.5470     0.0330 F     1 <1>  -0.3400 
 17 F       -0.7030     4.8000     1.1520 F     1 <1>  -0.3400 
 18 O       -6.8800     1.0710     0.2140 O.3   1 <1>  -0.3630 
 19 C       -5.9030    -1.0680    -0.0700 C.ar  1 <1>   0.0830 
 20 O       -4.7770    -3.2240    -0.3210 O.3   1 <1>  -0.3630 
 21 C       -6.8220     2.4470     0.5110 C.3   1 <1>   0.1200 
 22 O       -7.1450    -1.6190    -0.0550 O.3   1 <1>  -0.3620 
 23 C       -5.6650    -3.9880     0.4640 C.3   1 <1>   0.1200 
 24 C       -8.2500     2.9440     0.7100 C.3   1 <1>  -0.2400 
 25 C       -7.8890    -1.5000    -1.2430 C.3   1 <1>   0.1200 
 26 C       -5.0750    -5.3870     0.6160 C.3   1 <1>  -0.2400 
 27 C       -9.2050    -2.2490    -1.0540 C.3   1 <1>  -0.2400 
 28 H       -4.3600     1.9380     0.1070 H     1 <1>   0.1500 
 29 H       -2.6710    -1.9380    -0.3760 H     1 <1>   0.1500 
 30 H       -6.3560     2.9570    -0.3140 H     1 <1>   0.0800 
 31 H       -6.2460     2.5790     1.4110 H     1 <1>   0.0800 
 32 H       -6.6140    -4.0300    -0.0390 H     1 <1>   0.0800 
 33 H       -5.7780    -3.5130     1.4240 H     1 <1>   0.0800 
 34 H       -8.8220     2.7940    -0.1880 H     1 <1>   0.0800 
 35 H       -8.2430     3.9930     0.9430 H     1 <1>   0.0800 
 36 H       -8.7140     2.4150     1.5240 H     1 <1>   0.0800 
 37 H       -7.3150    -1.9260    -2.0470 H     1 <1>   0.0800 
 38 H       -8.0680    -0.4560    -1.4360 H     1 <1>   0.0800 
 39 H       -4.9570    -5.8440    -0.3500 H     1 <1>   0.0800 
 40 H       -5.7350    -5.9960     1.2060 H     1 <1>   0.0800 
 41 H       -4.1220    -5.3350     1.1100 H     1 <1>   0.0800 
 42 H       -9.0140    -3.2880    -0.8560 H     1 <1>   0.0800 
 43 H       -9.7980    -2.1720    -1.9470 H     1 <1>   0.0800 
 44 H       -9.7560    -1.8210    -0.2360 H     1 <1>   0.0800 
@<TRIPOS>BOND
  1   1   2  1   
  2   1   3  1   
  3   2   4  2   
  4   2   5  1   
  5   3   6  2   
  6   3   7  1   
  7   4   8  1   
  8   5   6  1   
  9   5   9  1   
 10   7  10  ar  
 11   7  11  ar  
 12   8   9  2   
 13   9  12  1   
 14  10  13  ar  
 15  10  28  1   
 16  11  14  ar  
 17  11  29  1   
 18  12  15  1   
 19  12  16  1   
 20  12  17  1   
 21  13  18  1   
 22  13  19  ar  
 23  14  19  ar  
 24  14  20  1   
 25  18  21  1   
 26  19  22  1   
 27  20  23  1   
 28  21  24  1   
 29  21  30  1   
 30  21  31  1   
 31  22  25  1   
 32  23  26  1   
 33  23  32  1   
 34  23  33  1   
 35  24  34  1   
 36  24  35  1   
 37  24  36  1   
 38  25  27  1   
 39  25  37  1   
 40  25  38  1   
 41  26  39  1   
 42  26  40  1   
 43  26  41  1   
 44  27  42  1   
 45  27  43  1   
 46  27  44  1   
@<TRIPOS>SUBSTRUCTURE
  1 ****   7 GROUP 4 **** **** 0

# MOE 2024.06 (io_trps.svl 2023.06)
