@<TRIPOS>MOLECULE
8-(3-Chloro-2-methyl-phenyl)-1,3-dimethyl-5,6,7,8-tetrahydro-1H-1,3,4b,8,9-penta
44 47 1 0 0 
SMALL
USER_CHARGES


@<TRIPOS>ATOM
  1 CL      -2.4890    -1.7130    -2.2660 Cl    1 <1>  -0.1850 
  2 C       -3.0780    -1.1290    -0.7280 C.ar  1 <1>   0.1690 
  3 C       -3.9370    -0.0390    -0.6720 C.ar  1 <1>  -0.1520 
  4 C       -2.6660    -1.7980     0.4090 C.ar  1 <1>  -0.1580 
  5 C       -4.4120     0.3590     0.5810 C.ar  1 <1>   0.3040 
  6 C       -4.3210     0.6820    -1.9670 C.3   1 <1>  -0.1050 
  7 C       -3.1200    -1.3820     1.6460 C.ar  1 <1>  -0.1580 
  8 N       -5.3400     1.3980     0.7180 N.pl3 1 <1>  -0.5800 
  9 C       -3.9890    -0.3100     1.7250 C.ar  1 <1>  -0.1580 
 10 C       -6.6320     1.2660     0.3640 C.cat 1 <1>   1.0690 
 11 C       -4.8660     2.6850     1.2970 C.3   1 <1>   0.1590 
 12 N       -7.2230     0.1660    -0.0960 N.pl3 1 <1>  -0.7040 
 13 N       -7.5100     2.2580     0.4290 N.pl3 1 <1>  -0.7680 
 14 C       -5.6930     3.8600     0.7520 C.3   1 <1>  -0.1680 
 15 C       -8.5300     0.4650    -0.3360 C.2   1 <1>   0.4200 
 16 C       -8.7430     1.7600    -0.0160 C.2   1 <1>   0.2700 
 17 C       -7.2020     3.6270     0.8890 C.3   1 <1>   0.3470 
 18 N       -9.5150    -0.3720    -0.8230 N.am  1 <1>  -0.4420 
 19 C      -10.0530     2.3100    -0.1780 C.2   1 <1>   0.6990 
 20 C      -10.7980     0.1430    -0.9620 C.2   1 <1>   0.6860 
 21 C       -9.2210    -1.7970    -1.1570 C.3   1 <1>   0.0510 
 22 O      -10.2830     3.4730     0.1100 O.2   1 <1>  -0.5750 
 23 N      -11.0520     1.4800    -0.6690 N.am  1 <1>  -0.4260 
 24 O      -11.7000    -0.5790    -1.3350 O.2   1 <1>  -0.5750 
 25 C      -12.4400     2.0090    -0.8500 C.3   1 <1>   0.0510 
 26 H       -1.9950    -2.6350     0.3230 H     1 <1>   0.1420 
 27 H       -5.0500     0.1070    -2.5100 H     1 <1>   0.0710 
 28 H       -3.4550     0.8050    -2.5940 H     1 <1>   0.0710 
 29 H       -4.7150     1.6650    -1.7870 H     1 <1>   0.0710 
 30 H       -2.7960    -1.8940     2.5390 H     1 <1>   0.1420 
 31 H       -4.3440     0.0060     2.6910 H     1 <1>   0.1420 
 32 H       -3.8260     2.8330     1.0510 H     1 <1>   0.0710 
 33 H       -4.9550     2.6400     2.3700 H     1 <1>   0.0710 
 34 H       -6.7490    -0.7230    -0.2320 H     1 <1>   0.4440 
 35 H       -5.4510     4.0140    -0.2850 H     1 <1>   0.0710 
 36 H       -5.4250     4.7610     1.2750 H     1 <1>   0.0710 
 37 H       -7.5040     3.7310     1.9190 H     1 <1>   0.0710 
 38 H       -7.7430     4.3490     0.3000 H     1 <1>   0.0710 
 39 H       -8.2520    -1.8830    -1.6150 H     1 <1>   0.0710 
 40 H       -9.9510    -2.1830    -1.8490 H     1 <1>   0.0710 
 41 H       -9.2500    -2.3930    -0.2610 H     1 <1>   0.0710 
 42 H      -12.4340     3.0800    -0.9620 H     1 <1>   0.0710 
 43 H      -13.0390     1.7490     0.0040 H     1 <1>   0.0710 
 44 H      -12.8880     1.5830    -1.7320 H     1 <1>   0.0710 
@<TRIPOS>BOND
  1   1   2  1   
  2   2   3  ar  
  3   2   4  ar  
  4   3   5  ar  
  5   3   6  1   
  6   4   7  ar  
  7   4  26  1   
  8   5   8  1   
  9   5   9  ar  
 10   6  27  1   
 11   6  28  1   
 12   6  29  1   
 13   7   9  ar  
 14   7  30  1   
 15   8  10  ar  
 16   8  11  1   
 17   9  31  1   
 18  10  12  ar  
 19  10  13  ar  
 20  11  14  1   
 21  11  32  1   
 22  11  33  1   
 23  12  15  1   
 24  12  34  1   
 25  13  16  1   
 26  13  17  1   
 27  14  17  1   
 28  14  35  1   
 29  14  36  1   
 30  15  16  2   
 31  15  18  1   
 32  16  19  1   
 33  17  37  1   
 34  17  38  1   
 35  18  20  am  
 36  18  21  1   
 37  19  22  2   
 38  19  23  am  
 39  20  23  am  
 40  20  24  2   
 41  21  39  1   
 42  21  40  1   
 43  21  41  1   
 44  23  25  1   
 45  25  42  1   
 46  25  43  1   
 47  25  44  1   
@<TRIPOS>SUBSTRUCTURE
  1 ****  12 GROUP 4 **** **** 0

# MOE 2024.06 (io_trps.svl 2023.06)
