@<TRIPOS>MOLECULE
N-Allyl-4-[3-(4-methoxy-phenyl)-[1,2,4]oxadiazol-5-yl]-butyramide
41 42 1 0 0 
SMALL
USER_CHARGES


@<TRIPOS>ATOM
  1 O       -1.1990    -3.2340     1.8100 O.2   1 <1>  -0.5700 
  2 C       -1.0170    -2.8310     0.6880 C.2   1 <1>   0.5690 
  3 N        0.1890    -2.3810     0.2710 N.am  1 <1>  -0.7300 
  4 C       -2.1770    -2.8090    -0.2870 C.3   1 <1>  -0.0990 
  5 C        1.4020    -2.3660     1.0970 C.3   1 <1>   0.2780 
  6 C       -3.0160    -1.5260    -0.1380 C.3   1 <1>  -0.1600 
  7 C        2.5700    -2.6350     0.1750 C.2   1 <1>  -0.2880 
  8 C       -4.1180    -1.3840    -1.2030 C.3   1 <1>   0.0200 
  9 C        3.5520    -1.7720    -0.1060 C.2   1 <1>  -0.3000 
 10 C       -5.1300    -2.5150    -1.1700 C.2   1 <1>   0.2980 
 11 O       -4.8670    -3.6180    -1.8190 O.3   1 <1>  -0.0190 
 12 N       -6.2430    -2.4910    -0.5630 N.2   1 <1>  -0.5650 
 13 N       -5.9010    -4.3670    -1.5990 N.2   1 <1>  -0.4100 
 14 C       -6.7170    -3.7070    -0.8550 C.2   1 <1>   0.4620 
 15 C       -8.0020    -4.1860    -0.3730 C.ar  1 <1>   0.0540 
 16 C       -8.8120    -3.4100     0.4600 C.ar  1 <1>  -0.1500 
 17 C       -8.4830    -5.4500    -0.7250 C.ar  1 <1>  -0.1500 
 18 C      -10.0330    -3.8700     0.9150 C.ar  1 <1>  -0.1500 
 19 C       -9.7040    -5.9180    -0.2740 C.ar  1 <1>  -0.1500 
 20 C      -10.4910    -5.1250     0.5540 C.ar  1 <1>   0.0820 
 21 O      -11.6980    -5.5030     1.0420 O.3   1 <1>  -0.3620 
 22 C      -12.2540    -6.7610     0.7330 C.3   1 <1>   0.0400 
 23 H        0.3250    -2.0370    -0.6780 H     1 <1>   0.3700 
 24 H       -2.7880    -3.6720    -0.0900 H     1 <1>   0.0800 
 25 H       -1.7970    -2.8920    -1.2880 H     1 <1>   0.0800 
 26 H        1.3440    -3.1200     1.8650 H     1 <1>   0.0800 
 27 H        1.5020    -1.4010     1.5660 H     1 <1>   0.0800 
 28 H       -2.3660    -0.6700    -0.2000 H     1 <1>   0.0800 
 29 H       -3.4680    -1.5180     0.8400 H     1 <1>   0.0800 
 30 H        2.5310    -3.6260    -0.2450 H     1 <1>   0.1500 
 31 H       -3.6800    -1.3350    -2.1840 H     1 <1>   0.0800 
 32 H       -4.6420    -0.4600    -1.0350 H     1 <1>   0.0800 
 33 H        4.3730    -1.9930    -0.7670 H     1 <1>   0.1500 
 34 H        3.6210    -0.7760     0.2970 H     1 <1>   0.1500 
 35 H       -8.4780    -2.4300     0.7560 H     1 <1>   0.1500 
 36 H       -7.8870    -6.0770    -1.3650 H     1 <1>   0.1500 
 37 H      -10.6420    -3.2570     1.5560 H     1 <1>   0.1500 
 38 H      -10.0250    -6.8970    -0.5750 H     1 <1>   0.1500 
 39 H      -13.2060    -6.8350     1.2270 H     1 <1>   0.0800 
 40 H      -11.5940    -7.5310     1.0920 H     1 <1>   0.0800 
 41 H      -12.3880    -6.8320    -0.3320 H     1 <1>   0.0800 
@<TRIPOS>BOND
  1   1   2  2   
  2   2   3  am  
  3   2   4  1   
  4   3   5  1   
  5   3  23  1   
  6   4   6  1   
  7   4  24  1   
  8   4  25  1   
  9   5   7  1   
 10   5  26  1   
 11   5  27  1   
 12   6   8  1   
 13   6  28  1   
 14   6  29  1   
 15   7   9  2   
 16   7  30  1   
 17   8  10  1   
 18   8  31  1   
 19   8  32  1   
 20   9  33  1   
 21   9  34  1   
 22  10  11  1   
 23  10  12  2   
 24  11  13  1   
 25  12  14  1   
 26  13  14  2   
 27  14  15  1   
 28  15  16  ar  
 29  15  17  ar  
 30  16  18  ar  
 31  16  35  1   
 32  17  19  ar  
 33  17  36  1   
 34  18  20  ar  
 35  18  37  1   
 36  19  20  ar  
 37  19  38  1   
 38  20  21  1   
 39  21  22  1   
 40  22  39  1   
 41  22  40  1   
 42  22  41  1   
@<TRIPOS>SUBSTRUCTURE
  1 ****  10 GROUP 4 **** **** 0

# MOE 2024.06 (io_trps.svl 2023.06)
