@<TRIPOS>MOLECULE
1,3,7-Trimethyl-8-(2-morpholin-4-yl-ethyl)-1H,8H-imidazo[2,1-f]purine-2,4-dione
48 51 1 0 0 
SMALL
USER_CHARGES


@<TRIPOS>ATOM
  1 O        1.8080    -0.7220    -0.2430 O.2   1 <1>  -0.5750 
  2 C        2.6300     0.1720    -0.2290 C.2   1 <1>   0.6860 
  3 N        2.2180     1.4960    -0.1060 N.am  1 <1>  -0.4260 
  4 N        3.9820    -0.1330    -0.3350 N.am  1 <1>  -0.4420 
  5 C        3.1380     2.5380    -0.1000 C.2   1 <1>   0.6990 
  6 C        0.7550     1.7940    -0.0070 C.3   1 <1>   0.0520 
  7 C        4.8910     0.9060    -0.2980 C.2   1 <1>   0.4200 
  8 C        4.4240    -1.5490    -0.4900 C.3   1 <1>   0.0520 
  9 O        2.7750     3.7000    -0.0220 O.2   1 <1>  -0.5750 
 10 C        4.5210     2.2040    -0.1860 C.2   1 <1>   0.2700 
 11 N        6.2520     0.8400    -0.3520 N.pl3 1 <1>  -0.7040 
 12 N        5.7080     2.9520    -0.1670 N.pl3 1 <1>  -0.6330 
 13 C        6.7100     2.0870    -0.2620 C.cat 1 <1>   1.0690 
 14 C        6.2670     4.2100    -0.0780 C.2   1 <1>   0.2220 
 15 N        7.9020     2.7050    -0.2380 N.pl3 1 <1>  -0.5720 
 16 C        7.6100     4.0590    -0.1230 C.2   1 <1>   0.1570 
 17 C        9.2630     2.0980    -0.3890 C.3   1 <1>   0.1600 
 18 C        8.6810     5.1340    -0.0680 C.3   1 <1>  -0.1100 
 19 C        9.5040     0.8690     0.5110 C.3   1 <1>   0.1020 
 20 N        8.6940    -0.3090     0.1310 N.3   1 <1>  -0.8130 
 21 C        8.7190    -1.2990     1.2320 C.3   1 <1>   0.1020 
 22 C        9.2390    -0.9670    -1.0830 C.3   1 <1>   0.1020 
 23 C        7.9510    -2.5790     0.8560 C.3   1 <1>   0.1120 
 24 C        8.4650    -2.2530    -1.4220 C.3   1 <1>   0.1120 
 25 O        8.4480    -3.1240    -0.3300 O.3   1 <1>  -0.5650 
 26 H        0.2650     1.0480     0.5950 H     1 <1>   0.0720 
 27 H        0.3200     1.7870    -0.9910 H     1 <1>   0.0720 
 28 H        0.5850     2.7550     0.4450 H     1 <1>   0.0720 
 29 H        3.6990    -2.1040    -1.0620 H     1 <1>   0.0720 
 30 H        4.5180    -2.0060     0.4800 H     1 <1>   0.0720 
 31 H        5.3660    -1.6000    -1.0040 H     1 <1>   0.0720 
 32 H        6.9250     0.0590    -0.2770 H     1 <1>   0.4440 
 33 H        5.6680     5.1040     0.0090 H     1 <1>   0.1420 
 34 H       10.0030     2.8340    -0.1300 H     1 <1>   0.0720 
 35 H        9.4260     1.8380    -1.4200 H     1 <1>   0.0720 
 36 H        9.3150     4.9840     0.7880 H     1 <1>   0.0720 
 37 H        8.2310     6.1080     0.0090 H     1 <1>   0.0720 
 38 H        9.2820     5.1070    -0.9590 H     1 <1>   0.0720 
 39 H        9.2840     1.1510     1.5270 H     1 <1>   0.0720 
 40 H       10.5490     0.6060     0.4740 H     1 <1>   0.0720 
 41 H        8.2760    -0.8730     2.1160 H     1 <1>   0.0720 
 42 H        9.7370    -1.5670     1.4670 H     1 <1>   0.0720 
 43 H       10.2750    -1.2230    -0.9320 H     1 <1>   0.0720 
 44 H        9.1810    -0.3000    -1.9240 H     1 <1>   0.0720 
 45 H        6.9050    -2.3750     0.7300 H     1 <1>   0.0720 
 46 H        8.0670    -3.3200     1.6270 H     1 <1>   0.0720 
 47 H        8.9410    -2.7670    -2.2380 H     1 <1>   0.0720 
 48 H        7.4520    -2.0310    -1.7010 H     1 <1>   0.0720 
@<TRIPOS>BOND
  1   1   2  2   
  2   2   3  am  
  3   2   4  am  
  4   3   5  am  
  5   3   6  1   
  6   4   7  1   
  7   4   8  1   
  8   5   9  2   
  9   5  10  1   
 10   6  26  1   
 11   6  27  1   
 12   6  28  1   
 13   7  10  2   
 14   7  11  1   
 15   8  29  1   
 16   8  30  1   
 17   8  31  1   
 18  10  12  1   
 19  11  13  ar  
 20  11  32  1   
 21  12  13  ar  
 22  12  14  1   
 23  13  15  ar  
 24  14  16  2   
 25  14  33  1   
 26  15  16  1   
 27  15  17  1   
 28  16  18  1   
 29  17  19  1   
 30  17  34  1   
 31  17  35  1   
 32  18  36  1   
 33  18  37  1   
 34  18  38  1   
 35  19  20  1   
 36  19  39  1   
 37  19  40  1   
 38  20  21  1   
 39  20  22  1   
 40  21  23  1   
 41  21  41  1   
 42  21  42  1   
 43  22  24  1   
 44  22  43  1   
 45  22  44  1   
 46  23  25  1   
 47  23  45  1   
 48  23  46  1   
 49  24  25  1   
 50  24  47  1   
 51  24  48  1   
@<TRIPOS>SUBSTRUCTURE
  1 ****  11 GROUP 4 **** **** 0

# MOE 2024.06 (io_trps.svl 2023.06)
