@<TRIPOS>MOLECULE
3,4,5-Trimethoxy-N-[2-(4-methyl-piperazin-1-yl)-phenyl]-benzamide
56 58 1 0 0 
SMALL
USER_CHARGES


@<TRIPOS>ATOM
  1 O        2.1290     1.8150    -0.9880 O.2   1 <1>  -0.5700 
  2 C        1.5160     2.0180     0.0440 C.2   1 <1>   0.5440 
  3 N        1.9650     1.4980     1.2290 N.am  1 <1>  -0.5470 
  4 C        0.3370     2.8580     0.0260 C.ar  1 <1>   0.0860 
  5 C        3.0160     0.5870     1.4540 C.ar  1 <1>   0.1170 
  6 C        0.0470     3.7250     1.0770 C.ar  1 <1>  -0.1500 
  7 C       -0.5360     2.8450    -1.0590 C.ar  1 <1>  -0.1500 
  8 C        4.3810     0.8570     1.2090 C.ar  1 <1>   0.1000 
  9 C        2.6570    -0.6500     1.9730 C.ar  1 <1>  -0.1500 
 10 C       -1.0570     4.5560     1.0580 C.ar  1 <1>   0.0830 
 11 C       -1.6550     3.6670    -1.1050 C.ar  1 <1>   0.0830 
 12 N        4.8900     2.0610     0.6890 N.pl3 1 <1>  -0.8380 
 13 C        5.3130    -0.1320     1.4970 C.ar  1 <1>  -0.1500 
 14 C        3.6020    -1.6200     2.2500 C.ar  1 <1>  -0.1500 
 15 O       -1.1970     5.3450     2.1580 O.3   1 <1>  -0.3620 
 16 C       -1.9150     4.5460    -0.0490 C.ar  1 <1>   0.0830 
 17 O       -2.5140     3.6430    -2.1630 O.3   1 <1>  -0.3620 
 18 C        4.5520     3.3870     1.2980 C.3   1 <1>   0.2090 
 19 C        5.5050     2.0220    -0.6780 C.3   1 <1>   0.2090 
 20 C        4.9370    -1.3590     2.0110 C.ar  1 <1>  -0.1500 
 21 C       -2.4810     5.6410     2.6690 C.3   1 <1>   0.0400 
 22 O       -2.9930     5.3700    -0.1020 O.3   1 <1>  -0.3630 
 23 C       -2.6280     2.5030    -2.9870 C.3   1 <1>   0.0400 
 24 C        3.9410     4.4000     0.2940 C.3   1 <1>   0.3430 
 25 C        5.2640     3.3140    -1.4900 C.3   1 <1>   0.3430 
 26 C       -2.9130     6.4710    -0.9800 C.3   1 <1>   0.0400 
 27 N        3.9470     3.9210    -1.1320 N.4   1 <1>  -0.9590 
 28 C        3.4580     4.9320    -2.1070 C.3   1 <1>   0.2630 
 29 H        1.2900     1.5360     1.9930 H     1 <1>   0.3700 
 30 H        0.6890     3.7700     1.9380 H     1 <1>   0.1500 
 31 H       -0.3160     2.1770    -1.8720 H     1 <1>   0.1500 
 32 H        1.6210    -0.8700     2.1600 H     1 <1>   0.1500 
 33 H        6.3540     0.0640     1.3230 H     1 <1>   0.1500 
 34 H        3.3020    -2.5740     2.6490 H     1 <1>   0.1500 
 35 H        5.4540     3.8090     1.7080 H     1 <1>   0.0800 
 36 H        3.8750     3.2460     2.1220 H     1 <1>   0.0800 
 37 H        5.0810     1.1930    -1.2200 H     1 <1>   0.0800 
 38 H        6.5630     1.8450    -0.5910 H     1 <1>   0.0800 
 39 H        5.6810    -2.1070     2.2250 H     1 <1>   0.1500 
 40 H       -2.3770     5.9160     3.7020 H     1 <1>   0.0800 
 41 H       -3.1070     4.7700     2.5800 H     1 <1>   0.0800 
 42 H       -2.8960     6.4640     2.1160 H     1 <1>   0.0800 
 43 H       -3.4900     2.6340    -3.6170 H     1 <1>   0.0800 
 44 H       -2.7580     1.6330    -2.3680 H     1 <1>   0.0800 
 45 H       -1.7460     2.4170    -3.5950 H     1 <1>   0.0800 
 46 H        4.4890     5.3240     0.3690 H     1 <1>   0.0800 
 47 H        2.9270     4.6040     0.5940 H     1 <1>   0.0800 
 48 H        5.2940     3.0740    -2.5390 H     1 <1>   0.0800 
 49 H        6.0550     4.0140    -1.2830 H     1 <1>   0.0800 
 50 H       -3.8010     7.0630    -0.8550 H     1 <1>   0.0800 
 51 H       -2.8510     6.1160    -1.9920 H     1 <1>   0.0800 
 52 H       -2.0430     7.0520    -0.7290 H     1 <1>   0.0800 
 53 H        3.3010     3.0970    -1.1360 H     1 <1>   0.4500 
 54 H        4.1180     5.7830    -2.1290 H     1 <1>   0.0800 
 55 H        2.4690     5.2640    -1.8330 H     1 <1>   0.0800 
 56 H        3.4110     4.5020    -3.0940 H     1 <1>   0.0800 
@<TRIPOS>BOND
  1   1   2  2   
  2   2   3  am  
  3   2   4  1   
  4   3   5  1   
  5   3  29  1   
  6   4   6  ar  
  7   4   7  ar  
  8   5   8  ar  
  9   5   9  ar  
 10   6  10  ar  
 11   6  30  1   
 12   7  11  ar  
 13   7  31  1   
 14   8  12  1   
 15   8  13  ar  
 16   9  14  ar  
 17   9  32  1   
 18  10  15  1   
 19  10  16  ar  
 20  11  16  ar  
 21  11  17  1   
 22  12  18  1   
 23  12  19  1   
 24  13  20  ar  
 25  13  33  1   
 26  14  20  ar  
 27  14  34  1   
 28  15  21  1   
 29  16  22  1   
 30  17  23  1   
 31  18  24  1   
 32  18  35  1   
 33  18  36  1   
 34  19  25  1   
 35  19  37  1   
 36  19  38  1   
 37  20  39  1   
 38  21  40  1   
 39  21  41  1   
 40  21  42  1   
 41  22  26  1   
 42  23  43  1   
 43  23  44  1   
 44  23  45  1   
 45  24  27  1   
 46  24  46  1   
 47  24  47  1   
 48  25  27  1   
 49  25  48  1   
 50  25  49  1   
 51  26  50  1   
 52  26  51  1   
 53  26  52  1   
 54  27  28  1   
 55  27  53  1   
 56  28  54  1   
 57  28  55  1   
 58  28  56  1   
@<TRIPOS>SUBSTRUCTURE
  1 ****   2 GROUP 4 **** **** 0

# MOE 2024.06 (io_trps.svl 2023.06)
