@<TRIPOS>MOLECULE
8-(4-Ethyl-piperazin-1-yl)-7-(4-fluoro-benzyl)-3-methyl-3,7-dihydro-purine-2,6-d
53 56 1 0 0 
SMALL
USER_CHARGES


@<TRIPOS>ATOM
  1 F       -1.6320     0.7790     2.4120 F     1 <1>  -0.1970 
  2 C       -2.5340     0.3370     1.5800 C.ar  1 <1>   0.1830 
  3 C       -2.3580     0.5530     0.2280 C.ar  1 <1>  -0.1570 
  4 C       -3.6310    -0.3350     2.0810 C.ar  1 <1>  -0.1570 
  5 C       -3.3050     0.0600    -0.6530 C.ar  1 <1>  -0.1570 
  6 C       -4.5730    -0.8230     1.1930 C.ar  1 <1>  -0.1570 
  7 C       -4.4050    -0.6500    -0.1790 C.ar  1 <1>  -0.1510 
  8 C       -5.4120    -1.2140    -1.1750 C.3   1 <1>   0.4930 
  9 N       -5.8080    -2.6200    -0.8390 N.pl3 1 <1>  -0.7670 
 10 C       -5.1220    -3.6430    -0.2990 C.cat 1 <1>   1.0690 
 11 C       -7.1720    -2.9880    -0.8410 C.2   1 <1>   0.2710 
 12 N       -5.9840    -4.5920     0.0790 N.pl3 1 <1>  -0.7040 
 13 N       -3.7780    -3.7990    -0.1440 N.pl3 1 <1>  -0.5960 
 14 C       -8.3950    -2.3940    -1.3030 C.2   1 <1>   0.6990 
 15 C       -7.2420    -4.2040    -0.2560 C.2   1 <1>   0.4210 
 16 C       -3.1700    -4.5830     0.9910 C.3   1 <1>   0.1610 
 17 C       -2.7460    -3.1220    -1.0000 C.3   1 <1>   0.1610 
 18 O       -8.4490    -1.3160    -1.8590 O.2   1 <1>  -0.5740 
 19 N       -9.5490    -3.0980    -1.1090 N.am  1 <1>  -0.4950 
 20 N       -8.4220    -4.9060    -0.0630 N.am  1 <1>  -0.4410 
 21 C       -2.0290    -5.5210     0.5310 C.3   1 <1>   0.3370 
 22 C       -1.6250    -4.0830    -1.4540 C.3   1 <1>   0.3370 
 23 C       -9.5980    -4.3260    -0.5180 C.2   1 <1>   0.6860 
 24 C       -8.4430    -6.2450     0.5980 C.3   1 <1>   0.0520 
 25 N       -1.0010    -4.8070    -0.2940 N.4   1 <1>  -0.9610 
 26 O      -10.6690    -4.8730    -0.4130 O.2   1 <1>  -0.5740 
 27 C        0.0580    -5.7550    -0.7370 C.3   1 <1>   0.3370 
 28 C        1.2780    -4.9730    -1.2070 C.3   1 <1>  -0.2470 
 29 H       -1.5000     1.1040    -0.1180 H     1 <1>   0.1430 
 30 H       -3.7410    -0.4580     3.1450 H     1 <1>   0.1430 
 31 H       -3.1720     0.2440    -1.7070 H     1 <1>   0.1430 
 32 H       -5.4390    -1.3280     1.5870 H     1 <1>   0.1430 
 33 H       -5.0120    -1.1860    -2.1750 H     1 <1>   0.0720 
 34 H       -6.2710    -0.5680    -1.1560 H     1 <1>   0.0720 
 35 H       -5.7530    -5.4890     0.4920 H     1 <1>   0.4450 
 36 H       -3.9160    -5.1670     1.5000 H     1 <1>   0.0720 
 37 H       -2.7720    -3.8880     1.7110 H     1 <1>   0.0720 
 38 H       -2.2900    -2.3270    -0.4370 H     1 <1>   0.0720 
 39 H       -3.2040    -2.6980    -1.8760 H     1 <1>   0.0720 
 40 H      -10.4290    -2.7010    -1.4360 H     1 <1>   0.3640 
 41 H       -2.4500    -6.3290    -0.0440 H     1 <1>   0.0720 
 42 H       -1.5560    -5.9520     1.4000 H     1 <1>   0.0720 
 43 H       -0.8720    -3.5170    -1.9760 H     1 <1>   0.0720 
 44 H       -2.0350    -4.7990    -2.1480 H     1 <1>   0.0720 
 45 H       -7.8350    -6.2320     1.4860 H     1 <1>   0.0720 
 46 H       -8.0760    -6.9940    -0.0820 H     1 <1>   0.0720 
 47 H       -9.4460    -6.5110     0.8870 H     1 <1>   0.0720 
 48 H       -0.5270    -4.1110     0.3030 H     1 <1>   0.4450 
 49 H       -0.3080    -6.3860    -1.5310 H     1 <1>   0.0720 
 50 H        0.3500    -6.3850     0.0890 H     1 <1>   0.0720 
 51 H        1.0690    -4.4040    -2.0950 H     1 <1>   0.0720 
 52 H        2.0650    -5.6660    -1.4470 H     1 <1>   0.0720 
 53 H        1.6410    -4.3210    -0.4320 H     1 <1>   0.0720 
@<TRIPOS>BOND
  1   1   2  1   
  2   2   3  ar  
  3   2   4  ar  
  4   3   5  ar  
  5   3  29  1   
  6   4   6  ar  
  7   4  30  1   
  8   5   7  ar  
  9   5  31  1   
 10   6   7  ar  
 11   6  32  1   
 12   7   8  1   
 13   8   9  1   
 14   8  33  1   
 15   8  34  1   
 16   9  10  ar  
 17   9  11  1   
 18  10  12  ar  
 19  10  13  ar  
 20  11  14  1   
 21  11  15  2   
 22  12  15  1   
 23  12  35  1   
 24  13  16  1   
 25  13  17  1   
 26  14  18  2   
 27  14  19  am  
 28  15  20  1   
 29  16  21  1   
 30  16  36  1   
 31  16  37  1   
 32  17  22  1   
 33  17  38  1   
 34  17  39  1   
 35  19  23  am  
 36  19  40  1   
 37  20  23  am  
 38  20  24  1   
 39  21  25  1   
 40  21  41  1   
 41  21  42  1   
 42  22  25  1   
 43  22  43  1   
 44  22  44  1   
 45  23  26  2   
 46  24  45  1   
 47  24  46  1   
 48  24  47  1   
 49  25  27  1   
 50  25  48  1   
 51  27  28  1   
 52  27  49  1   
 53  27  50  1   
 54  28  51  1   
 55  28  52  1   
 56  28  53  1   
@<TRIPOS>SUBSTRUCTURE
  1 ****  10 GROUP 4 **** **** 0

# MOE 2024.06 (io_trps.svl 2023.06)
