@<TRIPOS>MOLECULE
N-[2-Methoxy-5-(piperidine-1-sulfonyl)-phenyl]-benzamide
48 50 1 0 0 
SMALL
USER_CHARGES


@<TRIPOS>ATOM
  1 S       -0.0340    -1.1500    -0.8120 S.o2  1 <1>   1.4470 
  2 O        0.2430    -1.1260    -2.2330 O.2   1 <1>  -0.6500 
  3 O        0.0340    -2.4160    -0.1160 O.2   1 <1>  -0.6500 
  4 N        1.0660    -0.0900    -0.0720 N.am  1 <1>  -0.8490 
  5 C       -1.6760    -0.4320    -0.5110 C.ar  1 <1>  -0.0090 
  6 C        2.3200    -0.7700     0.2700 C.3   1 <1>   0.1960 
  7 C        1.3220     1.1040    -0.8880 C.3   1 <1>   0.1960 
  8 C       -1.8850     0.6100     0.3850 C.ar  1 <1>  -0.1500 
  9 C       -2.7860    -0.9450    -1.1710 C.ar  1 <1>  -0.1500 
 10 C        3.2340     0.1600     1.0750 C.3   1 <1>  -0.1600 
 11 C        2.1920     2.0990    -0.1140 C.3   1 <1>  -0.1600 
 12 C       -3.1470     1.1430     0.6120 C.ar  1 <1>   0.1170 
 13 C       -4.0580    -0.4460    -0.9470 C.ar  1 <1>  -0.1500 
 14 C        3.5150     1.4630     0.3210 C.3   1 <1>  -0.1600 
 15 N       -3.3160     2.2120     1.5040 N.am  1 <1>  -0.5470 
 16 C       -4.2490     0.5960    -0.0490 C.ar  1 <1>   0.0820 
 17 C       -2.6290     3.3830     1.6500 C.2   1 <1>   0.5440 
 18 O       -5.4750     1.1270     0.2240 O.3   1 <1>  -0.3630 
 19 O       -2.8810     4.0270     2.6470 O.2   1 <1>  -0.5700 
 20 C       -1.6640     3.8720     0.6780 C.ar  1 <1>   0.0860 
 21 C       -6.6450     0.6400    -0.3970 C.3   1 <1>   0.0400 
 22 C       -1.8420     3.7120    -0.6990 C.ar  1 <1>  -0.1500 
 23 C       -0.5220     4.5550     1.0960 C.ar  1 <1>  -0.1500 
 24 C       -0.9210     4.1960    -1.6100 C.ar  1 <1>  -0.1500 
 25 C        0.4010     5.0480     0.1910 C.ar  1 <1>  -0.1500 
 26 C        0.2040     4.8670    -1.1660 C.ar  1 <1>  -0.1500 
 27 H        2.8170    -1.0940    -0.6300 H     1 <1>   0.0800 
 28 H        2.1130    -1.6410     0.8710 H     1 <1>   0.0800 
 29 H        0.3890     1.5790    -1.1440 H     1 <1>   0.0800 
 30 H        1.8180     0.8250    -1.8040 H     1 <1>   0.0800 
 31 H       -1.0510     1.0170     0.9290 H     1 <1>   0.1500 
 32 H       -2.6510    -1.7540    -1.8700 H     1 <1>   0.1500 
 33 H        4.1590    -0.3450     1.2860 H     1 <1>   0.0800 
 34 H        2.7580     0.3790     2.0160 H     1 <1>   0.0800 
 35 H        1.6470     2.4350     0.7500 H     1 <1>   0.0800 
 36 H        2.3900     2.9540    -0.7340 H     1 <1>   0.0800 
 37 H       -4.8800    -0.8870    -1.4790 H     1 <1>   0.1500 
 38 H        4.1150     1.2510    -0.5480 H     1 <1>   0.0800 
 39 H        4.0630     2.1430     0.9500 H     1 <1>   0.0800 
 40 H       -4.1630     2.1750     2.0750 H     1 <1>   0.3700 
 41 H       -7.4800     1.2080    -0.0260 H     1 <1>   0.0800 
 42 H       -6.7700    -0.3980    -0.1440 H     1 <1>   0.0800 
 43 H       -6.5580     0.7730    -1.4600 H     1 <1>   0.0800 
 44 H       -2.7210     3.2100    -1.0620 H     1 <1>   0.1500 
 45 H       -0.3660     4.7060     2.1510 H     1 <1>   0.1500 
 46 H       -1.0830     4.0590    -2.6650 H     1 <1>   0.1500 
 47 H        1.2710     5.5760     0.5440 H     1 <1>   0.1500 
 48 H        0.9190     5.2520    -1.8720 H     1 <1>   0.1500 
@<TRIPOS>BOND
  1   1   2  2   
  2   1   3  2   
  3   1   4  am  
  4   1   5  1   
  5   4   6  1   
  6   4   7  1   
  7   5   8  ar  
  8   5   9  ar  
  9   6  10  1   
 10   6  27  1   
 11   6  28  1   
 12   7  11  1   
 13   7  29  1   
 14   7  30  1   
 15   8  12  ar  
 16   8  31  1   
 17   9  13  ar  
 18   9  32  1   
 19  10  14  1   
 20  10  33  1   
 21  10  34  1   
 22  11  14  1   
 23  11  35  1   
 24  11  36  1   
 25  12  15  1   
 26  12  16  ar  
 27  13  16  ar  
 28  13  37  1   
 29  14  38  1   
 30  14  39  1   
 31  15  17  am  
 32  15  40  1   
 33  16  18  1   
 34  17  19  2   
 35  17  20  1   
 36  18  21  1   
 37  20  22  ar  
 38  20  23  ar  
 39  21  41  1   
 40  21  42  1   
 41  21  43  1   
 42  22  24  ar  
 43  22  44  1   
 44  23  25  ar  
 45  23  45  1   
 46  24  26  ar  
 47  24  46  1   
 48  25  26  ar  
 49  25  47  1   
 50  26  48  1   
@<TRIPOS>SUBSTRUCTURE
  1 ****   8 GROUP 4 **** **** 0

# MOE 2024.06 (io_trps.svl 2023.06)
