@<TRIPOS>MOLECULE
N-Cyclohexyl-2-methyl-5-[(pyridin-3-ylmethyl)-sulfamoyl]-benzamide
52 54 1 0 0 
SMALL
USER_CHARGES


@<TRIPOS>ATOM
  1 S       -0.7380     0.8180    -1.7840 S.o2  1 <1>   1.4470 
  2 O       -0.1660     0.0650    -2.8720 O.2   1 <1>  -0.6500 
  3 O       -1.4470     2.0480    -2.0570 O.2   1 <1>  -0.6500 
  4 N        0.5690     1.2280    -0.8230 N.am  1 <1>  -0.9140 
  5 C       -1.7190    -0.2650    -0.7090 C.ar  1 <1>  -0.0090 
  6 C        0.3160     2.3400     0.0680 C.3   1 <1>   0.3390 
  7 C       -2.9600     0.1270    -0.2280 C.ar  1 <1>  -0.1500 
  8 C       -1.2380    -1.5070    -0.3200 C.ar  1 <1>  -0.1500 
  9 C        1.5870     2.6380     0.8350 C.ar  1 <1>  -0.1440 
 10 C       -3.7260    -0.6720     0.6190 C.ar  1 <1>   0.0860 
 11 C       -1.9730    -2.3240     0.5190 C.ar  1 <1>  -0.1500 
 12 C        2.0930     1.7060     1.7290 C.ar  1 <1>   0.1600 
 13 C        2.2620     3.8330     0.6680 C.ar  1 <1>  -0.1500 
 14 C       -3.2090    -1.9180     0.9900 C.ar  1 <1>  -0.1440 
 15 C       -5.0150    -0.1850     1.0720 C.2   1 <1>   0.5440 
 16 N        3.1870     1.8670     2.4560 N.ar  1 <1>  -0.6200 
 17 C        3.4050     4.0160     1.4150 C.ar  1 <1>  -0.1500 
 18 C       -3.9920    -2.8450     1.9130 C.3   1 <1>  -0.0970 
 19 O       -5.2520    -0.0430     2.2550 O.2   1 <1>  -0.5700 
 20 N       -5.9760     0.1290     0.1550 N.am  1 <1>  -0.7300 
 21 C        3.8170     3.0170     2.2820 C.ar  1 <1>   0.1600 
 22 C       -7.3210     0.6400     0.4630 C.3   1 <1>   0.2200 
 23 C       -8.3520    -0.4390     0.1170 C.3   1 <1>  -0.1600 
 24 C       -7.5600     1.9190    -0.3460 C.3   1 <1>  -0.1600 
 25 C       -9.7850     0.0780     0.3150 C.3   1 <1>  -0.1600 
 26 C       -8.9910     2.4410    -0.1490 C.3   1 <1>  -0.1600 
 27 C      -10.0280     1.3610    -0.4920 C.3   1 <1>  -0.1600 
 28 H        1.2910     1.5140    -1.4820 H     1 <1>   0.4200 
 29 H       -0.4730     2.0880     0.7580 H     1 <1>   0.0800 
 30 H        0.0180     3.2130    -0.4900 H     1 <1>   0.0800 
 31 H       -3.3510     1.0900    -0.5120 H     1 <1>   0.1500 
 32 H       -0.2760    -1.8370    -0.6770 H     1 <1>   0.1500 
 33 H       -1.5710    -3.2820     0.8030 H     1 <1>   0.1500 
 34 H        1.5700     0.7720     1.8500 H     1 <1>   0.1500 
 35 H        1.9190     4.5940    -0.0130 H     1 <1>   0.1500 
 36 H        3.9750     4.9230     1.3310 H     1 <1>   0.1500 
 37 H       -4.0500    -2.4140     2.8970 H     1 <1>   0.0800 
 38 H       -4.9910    -2.9860     1.5410 H     1 <1>   0.0800 
 39 H       -3.5210    -3.8080     1.9900 H     1 <1>   0.0800 
 40 H       -5.8070    -0.0650    -0.8310 H     1 <1>   0.3700 
 41 H        4.7110     3.1730     2.8610 H     1 <1>   0.1500 
 42 H       -7.3930     0.8720     1.5140 H     1 <1>   0.0800 
 43 H       -8.1930    -1.2940     0.7500 H     1 <1>   0.0800 
 44 H       -8.2280    -0.7420    -0.9070 H     1 <1>   0.0800 
 45 H       -7.4030     1.7200    -1.3920 H     1 <1>   0.0800 
 46 H       -6.8620     2.6740    -0.0310 H     1 <1>   0.0800 
 47 H       -9.9480     0.2790     1.3600 H     1 <1>   0.0800 
 48 H      -10.4870    -0.6790     0.0110 H     1 <1>   0.0800 
 49 H       -9.1510     3.3050    -0.7710 H     1 <1>   0.0800 
 50 H       -9.1200     2.7440     0.8760 H     1 <1>   0.0800 
 51 H      -11.0170     1.7340    -0.2860 H     1 <1>   0.0800 
 52 H       -9.9730     1.1370    -1.5430 H     1 <1>   0.0800 
@<TRIPOS>BOND
  1   1   2  2   
  2   1   3  2   
  3   1   4  am  
  4   1   5  1   
  5   4   6  1   
  6   4  28  1   
  7   5   7  ar  
  8   5   8  ar  
  9   6   9  1   
 10   6  29  1   
 11   6  30  1   
 12   7  10  ar  
 13   7  31  1   
 14   8  11  ar  
 15   8  32  1   
 16   9  12  ar  
 17   9  13  ar  
 18  10  14  ar  
 19  10  15  1   
 20  11  14  ar  
 21  11  33  1   
 22  12  16  ar  
 23  12  34  1   
 24  13  17  ar  
 25  13  35  1   
 26  14  18  1   
 27  15  19  2   
 28  15  20  am  
 29  16  21  ar  
 30  17  21  ar  
 31  17  36  1   
 32  18  37  1   
 33  18  38  1   
 34  18  39  1   
 35  20  22  1   
 36  20  40  1   
 37  21  41  1   
 38  22  23  1   
 39  22  24  1   
 40  22  42  1   
 41  23  25  1   
 42  23  43  1   
 43  23  44  1   
 44  24  26  1   
 45  24  45  1   
 46  24  46  1   
 47  25  27  1   
 48  25  47  1   
 49  25  48  1   
 50  26  27  1   
 51  26  49  1   
 52  26  50  1   
 53  27  51  1   
 54  27  52  1   
@<TRIPOS>SUBSTRUCTURE
  1 ****   7 GROUP 4 **** **** 0

# MOE 2024.06 (io_trps.svl 2023.06)
