@<TRIPOS>MOLECULE
3,3-Dimethyl-1-[5-(5-methyl-isoxazol-3-yl)-[1,3,4]oxadiazol-2-ylsulfanyl]-butan-
34 35 1 0 0 
SMALL
USER_CHARGES


@<TRIPOS>ATOM
  1 S        0.3500    -0.6410     1.2470 S.3   1 <1>  -0.2860 
  2 C       -0.7370    -2.0530     1.1000 C.2   1 <1>   0.5340 
  3 C       -0.7240     0.7990     0.7910 C.3   1 <1>   0.1310 
  4 O       -1.9680    -1.8680     0.7720 O.3   1 <1>  -0.2800 
  5 N       -0.4200    -3.2720     1.2860 N.2   1 <1>  -0.3380 
  6 C       -0.0080     2.1210     1.0380 C.2   1 <1>   0.4480 
  7 C       -2.4590    -3.0800     0.7580 C.2   1 <1>   0.4790 
  8 N       -1.5460    -3.9500     1.0620 N.2   1 <1>  -0.3380 
  9 O       -0.4090     2.8290     1.9160 O.2   1 <1>  -0.5700 
 10 C        1.1910     2.5390     0.1470 C.3   1 <1>   0.0610 
 11 C       -3.8520    -3.2960     0.4300 C.2   1 <1>   0.2880 
 12 C        1.1770     4.0660    -0.0700 C.3   1 <1>  -0.2400 
 13 C        2.5150     2.1760     0.8420 C.3   1 <1>  -0.2400 
 14 C        1.1710     1.8820    -1.2490 C.3   1 <1>  -0.2400 
 15 N       -4.4500    -4.4480     0.3320 N.2   1 <1>  -0.4100 
 16 C       -4.7800    -2.2770     0.1640 C.2   1 <1>  -0.1500 
 17 O       -5.6880    -4.2020     0.0220 O.3   1 <1>  -0.0190 
 18 C       -5.9230    -2.9250    -0.0870 C.2   1 <1>  -0.0400 
 19 C       -7.3140    -2.4420    -0.4430 C.3   1 <1>  -0.0600 
 20 H       -1.5970     0.7410     1.4160 H     1 <1>   0.0800 
 21 H       -1.0100     0.6850    -0.2370 H     1 <1>   0.0800 
 22 H        2.0000     4.3780    -0.6890 H     1 <1>   0.0800 
 23 H        1.2530     4.5810     0.8720 H     1 <1>   0.0800 
 24 H        0.2590     4.3700    -0.5420 H     1 <1>   0.0800 
 25 H        2.5590     2.6310     1.8160 H     1 <1>   0.0800 
 26 H        3.3560     2.5240     0.2680 H     1 <1>   0.0800 
 27 H        2.6090     1.1130     0.9640 H     1 <1>   0.0800 
 28 H        0.2560     2.1140    -1.7650 H     1 <1>   0.0800 
 29 H        1.2710     0.8140    -1.1780 H     1 <1>   0.0800 
 30 H        1.9900     2.2450    -1.8450 H     1 <1>   0.0800 
 31 H       -4.5800    -1.2220     0.1710 H     1 <1>   0.1500 
 32 H       -7.3370    -1.3690    -0.4900 H     1 <1>   0.0800 
 33 H       -8.0160    -2.7740     0.3000 H     1 <1>   0.0800 
 34 H       -7.6040    -2.8410    -1.3980 H     1 <1>   0.0800 
@<TRIPOS>BOND
  1   1   2  1   
  2   1   3  1   
  3   2   4  1   
  4   2   5  2   
  5   3   6  1   
  6   3  20  1   
  7   3  21  1   
  8   4   7  1   
  9   5   8  1   
 10   6   9  2   
 11   6  10  1   
 12   7   8  2   
 13   7  11  1   
 14  10  12  1   
 15  10  13  1   
 16  10  14  1   
 17  11  15  2   
 18  11  16  1   
 19  12  22  1   
 20  12  23  1   
 21  12  24  1   
 22  13  25  1   
 23  13  26  1   
 24  13  27  1   
 25  14  28  1   
 26  14  29  1   
 27  14  30  1   
 28  15  17  1   
 29  16  18  2   
 30  16  31  1   
 31  17  18  1   
 32  18  19  1   
 33  19  32  1   
 34  19  33  1   
 35  19  34  1   
@<TRIPOS>SUBSTRUCTURE
  1 ****   4 GROUP 4 **** **** 0

# MOE 2024.06 (io_trps.svl 2023.06)
