@<TRIPOS>MOLECULE
1-[4-(2,6-Dimethyl-phenyl)-piperazine-1-sulfonyl]-azepane
53 55 1 0 0 
SMALL
USER_CHARGES


@<TRIPOS>ATOM
  1 S        0.0800     0.0980    -0.5860 S.o2  1 <1>   1.5760 
  2 O        0.7960    -1.1550    -0.6870 O.2   1 <1>  -0.6500 
  3 O       -0.4870     0.7060    -1.7690 O.2   1 <1>  -0.6500 
  4 N       -1.1130    -0.0460     0.6040 N.am  1 <1>  -0.8490 
  5 N        1.0690     1.2410     0.1680 N.am  1 <1>  -0.8490 
  6 C       -2.0070     1.1040     0.7380 C.3   1 <1>   0.1960 
  7 C       -1.6940    -1.3790     0.7740 C.3   1 <1>   0.1960 
  8 C        1.9870     1.9190    -0.7700 C.3   1 <1>   0.1960 
  9 C        1.8090     0.7300     1.3440 C.3   1 <1>   0.1960 
 10 C       -3.2470     1.0770    -0.1710 C.3   1 <1>  -0.1600 
 11 C       -2.5580    -1.8170    -0.4170 C.3   1 <1>  -0.1600 
 12 C        3.1760     1.0390    -1.2040 C.3   1 <1>   0.2090 
 13 C        3.0670    -0.1110     1.0170 C.3   1 <1>   0.2090 
 14 C       -4.2810     0.0210     0.2430 C.3   1 <1>  -0.1600 
 15 C       -4.0280    -1.3710    -0.3520 C.3   1 <1>  -0.1600 
 16 N        3.9190     0.5610    -0.0060 N.pl3 1 <1>  -0.8380 
 17 C        5.2620     0.1860    -0.1180 C.ar  1 <1>   0.1000 
 18 C        5.6700    -0.9270    -0.8670 C.ar  1 <1>  -0.1440 
 19 C        6.2290     0.9490     0.5440 C.ar  1 <1>  -0.1440 
 20 C        7.0150    -1.2520    -0.9380 C.ar  1 <1>  -0.1500 
 21 C        4.6890    -1.8140    -1.6250 C.3   1 <1>  -0.0970 
 22 C        7.5680     0.6050     0.4610 C.ar  1 <1>  -0.1500 
 23 C        5.8300     2.1710     1.3610 C.3   1 <1>  -0.0970 
 24 C        7.9630    -0.4930    -0.2780 C.ar  1 <1>  -0.1500 
 25 H       -1.4500     2.0040     0.5350 H     1 <1>   0.0800 
 26 H       -2.3300     1.1640     1.7630 H     1 <1>   0.0800 
 27 H       -2.2740    -1.4080     1.6800 H     1 <1>   0.0800 
 28 H       -0.8900    -2.0860     0.8940 H     1 <1>   0.0800 
 29 H        2.3830     2.7970    -0.2910 H     1 <1>   0.0800 
 30 H        1.4480     2.2480    -1.6410 H     1 <1>   0.0800 
 31 H        1.1490     0.1510     1.9660 H     1 <1>   0.0800 
 32 H        2.1300     1.5740     1.9280 H     1 <1>   0.0800 
 33 H       -2.9690     0.9630    -1.2030 H     1 <1>   0.0800 
 34 H       -3.7150     2.0410    -0.0830 H     1 <1>   0.0800 
 35 H       -2.5480    -2.8920    -0.4570 H     1 <1>   0.0800 
 36 H       -2.1190    -1.4780    -1.3380 H     1 <1>   0.0800 
 37 H        3.8420     1.6100    -1.8270 H     1 <1>   0.0800 
 38 H        2.8160     0.2020    -1.7740 H     1 <1>   0.0800 
 39 H        2.7800    -1.0850     0.6700 H     1 <1>   0.0800 
 40 H        3.6420    -0.2510     1.9140 H     1 <1>   0.0800 
 41 H       -5.2560     0.3450    -0.0790 H     1 <1>   0.0800 
 42 H       -4.3140    -0.0450     1.3170 H     1 <1>   0.0800 
 43 H       -4.5860    -2.0870     0.2260 H     1 <1>   0.0800 
 44 H       -4.4250    -1.3980    -1.3530 H     1 <1>   0.0800 
 45 H        7.3370    -2.1020    -1.5120 H     1 <1>   0.1500 
 46 H        4.4120    -1.3400    -2.5490 H     1 <1>   0.0800 
 47 H        3.8030    -1.9910    -1.0470 H     1 <1>   0.0800 
 48 H        5.1300    -2.7680    -1.8500 H     1 <1>   0.0800 
 49 H        8.3130     1.1900     0.9700 H     1 <1>   0.1500 
 50 H        5.2780     2.8540     0.7420 H     1 <1>   0.0800 
 51 H        6.6920     2.6800     1.7490 H     1 <1>   0.0800 
 52 H        5.2070     1.8690     2.1820 H     1 <1>   0.0800 
 53 H        9.0040    -0.7560    -0.3400 H     1 <1>   0.1500 
@<TRIPOS>BOND
  1   1   2  2   
  2   1   3  2   
  3   1   4  am  
  4   1   5  am  
  5   4   6  1   
  6   4   7  1   
  7   5   8  1   
  8   5   9  1   
  9   6  10  1   
 10   6  25  1   
 11   6  26  1   
 12   7  11  1   
 13   7  27  1   
 14   7  28  1   
 15   8  12  1   
 16   8  29  1   
 17   8  30  1   
 18   9  13  1   
 19   9  31  1   
 20   9  32  1   
 21  10  14  1   
 22  10  33  1   
 23  10  34  1   
 24  11  15  1   
 25  11  35  1   
 26  11  36  1   
 27  12  16  1   
 28  12  37  1   
 29  12  38  1   
 30  13  16  1   
 31  13  39  1   
 32  13  40  1   
 33  14  15  1   
 34  14  41  1   
 35  14  42  1   
 36  15  43  1   
 37  15  44  1   
 38  16  17  1   
 39  17  18  ar  
 40  17  19  ar  
 41  18  20  ar  
 42  18  21  1   
 43  19  22  ar  
 44  19  23  1   
 45  20  24  ar  
 46  20  45  1   
 47  21  46  1   
 48  21  47  1   
 49  21  48  1   
 50  22  24  ar  
 51  22  49  1   
 52  23  50  1   
 53  23  51  1   
 54  23  52  1   
 55  24  53  1   
@<TRIPOS>SUBSTRUCTURE
  1 ****   5 GROUP 4 **** **** 0

# MOE 2024.06 (io_trps.svl 2023.06)
