@<TRIPOS>MOLECULE
2-(5-Acetylamino-4-hydroxy-6-oxo-1,6-dihydro-pyrimidin-2-ylsulfanyl)-N,N-dicyclo
58 60 1 0 0 
SMALL
USER_CHARGES


@<TRIPOS>ATOM
  1 S       -0.1070    -0.3990    -1.5770 S.3   1 <1>  -0.3710 
  2 C       -0.7950     1.1670    -1.0840 C.2   1 <1>   0.6510 
  3 C        1.6000     0.0400    -2.1890 C.3   1 <1>   0.1310 
  4 N       -0.0900     2.2280    -1.1730 N.2   1 <1>  -0.6210 
  5 N       -2.0630     1.1000    -0.6180 N.am  1 <1>  -0.4900 
  6 C        2.6020    -1.0600    -1.8500 C.2   1 <1>   0.5690 
  7 C       -0.6600     3.3930    -0.7330 C.2   1 <1>   0.0210 
  8 C       -2.6880     2.2360    -0.1900 C.2   1 <1>   0.6160 
  9 O        2.6630    -1.9600    -2.6600 O.2   1 <1>  -0.5700 
 10 N        3.4050    -1.0630    -0.7200 N.am  1 <1>  -0.6600 
 11 O        0.0450     4.4120    -0.8240 O.3   1 <1>  -0.8500 
 12 C       -1.9570     3.4370    -0.2160 C.2   1 <1>   0.1230 
 13 O       -3.8650     2.0750     0.1750 O.2   1 <1>  -0.5700 
 14 C        3.6560     0.1030     0.1970 C.3   1 <1>   0.2200 
 15 C        4.1560    -2.3200    -0.3840 C.3   1 <1>   0.2200 
 16 N       -2.3730     4.7410     0.1850 N.am  1 <1>  -0.5390 
 17 C        2.4130     0.5080     1.0020 C.3   1 <1>  -0.1600 
 18 C        4.3350     1.2810    -0.5260 C.3   1 <1>  -0.1600 
 19 C        3.7730    -2.8600     1.0040 C.3   1 <1>  -0.1600 
 20 C        5.6740    -2.1270    -0.5250 C.3   1 <1>  -0.1600 
 21 C       -3.2340     5.2650     1.0870 C.2   1 <1>   0.5690 
 22 C        2.7220     1.6710     1.9530 C.3   1 <1>  -0.1600 
 23 C        4.6070     2.4400     0.4440 C.3   1 <1>  -0.1600 
 24 C        4.5260    -4.1630     1.3080 C.3   1 <1>  -0.1600 
 25 C        6.4220    -3.4310    -0.2120 C.3   1 <1>  -0.1600 
 26 O       -3.3510     6.4620     1.2110 O.2   1 <1>  -0.5700 
 27 C       -4.0610     4.3920     1.9980 C.3   1 <1>  -0.1790 
 28 C        3.3270     2.8540     1.1850 C.3   1 <1>  -0.1600 
 29 C        6.0440    -3.9710     1.1750 C.3   1 <1>  -0.1600 
 30 H        1.8780     0.9800    -1.7730 H     1 <1>   0.0800 
 31 H        1.5210     0.1490    -3.2540 H     1 <1>   0.0800 
 32 H       -2.5750     0.2290    -0.6010 H     1 <1>   0.3700 
 33 H        4.3710    -0.2060     0.9370 H     1 <1>   0.0800 
 34 H        3.8840    -3.0930    -1.0830 H     1 <1>   0.0800 
 35 H       -1.6560     5.3890    -0.1750 H     1 <1>   0.3700 
 36 H        2.0560    -0.3340     1.5670 H     1 <1>   0.0800 
 37 H        1.6280     0.8330     0.3550 H     1 <1>   0.0800 
 38 H        3.7270     1.6600    -1.3210 H     1 <1>   0.0800 
 39 H        5.2650     0.9490    -0.9500 H     1 <1>   0.0800 
 40 H        2.7140    -3.0470     1.0270 H     1 <1>   0.0800 
 41 H        4.0110    -2.1470     1.7710 H     1 <1>   0.0800 
 42 H        6.0230    -1.3650     0.1470 H     1 <1>   0.0800 
 43 H        5.8960    -1.8220    -1.5320 H     1 <1>   0.0800 
 44 H        3.4060     1.3480     2.7180 H     1 <1>   0.0800 
 45 H        1.8120     1.9920     2.4310 H     1 <1>   0.0800 
 46 H        4.9880     3.2840    -0.1050 H     1 <1>   0.0800 
 47 H        5.3540     2.1450     1.1600 H     1 <1>   0.0800 
 48 H        4.2030    -4.9290     0.6230 H     1 <1>   0.0800 
 49 H        4.2890    -4.4930     2.3050 H     1 <1>   0.0800 
 50 H        7.4840    -3.2580    -0.2560 H     1 <1>   0.0800 
 51 H        6.1780    -4.1680    -0.9580 H     1 <1>   0.0800 
 52 H       -4.3840     4.9620     2.8480 H     1 <1>   0.0800 
 53 H       -4.9250     4.0400     1.4670 H     1 <1>   0.0800 
 54 H       -3.4780     3.5600     2.3410 H     1 <1>   0.0800 
 55 H        3.5450     3.6560     1.8680 H     1 <1>   0.0800 
 56 H        2.6010     3.2230     0.4750 H     1 <1>   0.0800 
 57 H        6.5410    -4.9110     1.3420 H     1 <1>   0.0800 
 58 H        6.3830    -3.2820     1.9300 H     1 <1>   0.0800 
@<TRIPOS>BOND
  1   1   2  1   
  2   1   3  1   
  3   2   4  2   
  4   2   5  1   
  5   3   6  1   
  6   3  30  1   
  7   3  31  1   
  8   4   7  1   
  9   5   8  am  
 10   5  32  1   
 11   6   9  2   
 12   6  10  am  
 13   7  11  1   
 14   7  12  2   
 15   8  12  1   
 16   8  13  2   
 17  10  14  1   
 18  10  15  1   
 19  12  16  1   
 20  14  17  1   
 21  14  18  1   
 22  14  33  1   
 23  15  19  1   
 24  15  20  1   
 25  15  34  1   
 26  16  21  am  
 27  16  35  1   
 28  17  22  1   
 29  17  36  1   
 30  17  37  1   
 31  18  23  1   
 32  18  38  1   
 33  18  39  1   
 34  19  24  1   
 35  19  40  1   
 36  19  41  1   
 37  20  25  1   
 38  20  42  1   
 39  20  43  1   
 40  21  26  2   
 41  21  27  1   
 42  22  28  1   
 43  22  44  1   
 44  22  45  1   
 45  23  28  1   
 46  23  46  1   
 47  23  47  1   
 48  24  29  1   
 49  24  48  1   
 50  24  49  1   
 51  25  29  1   
 52  25  50  1   
 53  25  51  1   
 54  27  52  1   
 55  27  53  1   
 56  27  54  1   
 57  28  55  1   
 58  28  56  1   
 59  29  57  1   
 60  29  58  1   
@<TRIPOS>SUBSTRUCTURE
  1 ****  17 GROUP 4 **** **** 0

# MOE 2024.06 (io_trps.svl 2023.06)
