@<TRIPOS>MOLECULE
1-(2-Cyano-ethyl)-3-p-tolyl-1H-pyrazole-4-carboxylic acid diethylamide
45 46 1 0 0 
SMALL
USER_CHARGES


@<TRIPOS>ATOM
  1 O        0.8390    -0.3380    -1.8750 O.2   1 <1>  -0.5700 
  2 C        1.2390    -1.0880    -1.0050 C.2   1 <1>   0.7160 
  3 N        2.3260    -0.7150    -0.2360 N.am  1 <1>  -0.6600 
  4 C        0.5740    -2.3480    -0.7960 C.2   1 <1>  -0.0860 
  5 C        2.6800    -1.4020     1.0370 C.3   1 <1>   0.1400 
  6 C        3.0580     0.5490    -0.5210 C.3   1 <1>   0.1400 
  7 C       -0.7580    -2.5330    -0.3850 C.2   1 <1>   0.2350 
  8 C        1.0520    -3.6110    -0.9530 C.2   1 <1>  -0.3020 
  9 C        3.9730    -2.1950     0.8670 C.3   1 <1>  -0.2400 
 10 C        4.0470     0.3310    -1.6650 C.3   1 <1>  -0.2400 
 11 N       -1.0510    -3.8080    -0.3110 N.2   1 <1>  -0.7070 
 12 C       -1.7120    -1.4900    -0.0620 C.ar  1 <1>   0.0540 
 13 N        0.0610    -4.4600    -0.6640 N.pl3 1 <1>   0.3140 
 14 C       -3.0400    -1.6030    -0.4670 C.ar  1 <1>  -0.1500 
 15 C       -1.3620    -0.3550     0.6690 C.ar  1 <1>  -0.1500 
 16 C        0.1150    -5.9310    -0.7110 C.3   1 <1>   0.0960 
 17 C       -3.9740    -0.6280    -0.1690 C.ar  1 <1>  -0.1500 
 18 C       -2.2910     0.6240     0.9700 C.ar  1 <1>  -0.1500 
 19 C       -0.4520    -6.5320     0.5780 C.3   1 <1>   0.0400 
 20 C       -3.6040     0.4960     0.5500 C.ar  1 <1>  -0.1430 
 21 C       -0.2920    -8.0070     0.5550 C.1   1 <1>   0.3570 
 22 C       -4.6260     1.5690     0.8790 C.3   1 <1>  -0.0970 
 23 N       -0.1430    -9.1330     0.5100 N.1   1 <1>  -0.5570 
 24 H        1.8890    -2.0670     1.3380 H     1 <1>   0.0800 
 25 H        2.7990    -0.6710     1.8190 H     1 <1>   0.0800 
 26 H        3.5840     0.8800     0.3580 H     1 <1>   0.0800 
 27 H        2.3550     1.3180    -0.7950 H     1 <1>   0.0800 
 28 H        2.0320    -3.9210    -1.2660 H     1 <1>   0.1500 
 29 H        3.8860    -2.8810     0.0450 H     1 <1>   0.0800 
 30 H        4.1720    -2.7550     1.7630 H     1 <1>   0.0800 
 31 H        4.8010    -1.5330     0.6960 H     1 <1>   0.0800 
 32 H        4.7600    -0.4320    -1.4140 H     1 <1>   0.0800 
 33 H        4.5770     1.2440    -1.8620 H     1 <1>   0.0800 
 34 H        3.5200     0.0470    -2.5580 H     1 <1>   0.0800 
 35 H       -3.3360    -2.4730    -1.0250 H     1 <1>   0.1500 
 36 H       -0.3520    -0.2340     1.0120 H     1 <1>   0.1500 
 37 H        1.1370    -6.2340    -0.8460 H     1 <1>   0.0800 
 38 H       -0.4600    -6.2610    -1.5570 H     1 <1>   0.0800 
 39 H       -4.9900    -0.7480    -0.5000 H     1 <1>   0.1500 
 40 H       -1.9880     1.4890     1.5320 H     1 <1>   0.1500 
 41 H       -1.4980    -6.3010     0.6690 H     1 <1>   0.0800 
 42 H        0.0700    -6.1410     1.4320 H     1 <1>   0.0800 
 43 H       -5.0970     1.3470     1.8190 H     1 <1>   0.0800 
 44 H       -5.3800     1.6160     0.1130 H     1 <1>   0.0800 
 45 H       -4.1510     2.5310     0.9450 H     1 <1>   0.0800 
@<TRIPOS>BOND
  1   1   2  2   
  2   2   3  am  
  3   2   4  1   
  4   3   5  1   
  5   3   6  1   
  6   4   7  1   
  7   4   8  2   
  8   5   9  1   
  9   5  24  1   
 10   5  25  1   
 11   6  10  1   
 12   6  26  1   
 13   6  27  1   
 14   7  11  2   
 15   7  12  1   
 16   8  13  1   
 17   8  28  1   
 18   9  29  1   
 19   9  30  1   
 20   9  31  1   
 21  10  32  1   
 22  10  33  1   
 23  10  34  1   
 24  11  13  1   
 25  12  14  ar  
 26  12  15  ar  
 27  13  16  1   
 28  14  17  ar  
 29  14  35  1   
 30  15  18  ar  
 31  15  36  1   
 32  16  19  1   
 33  16  37  1   
 34  16  38  1   
 35  17  20  ar  
 36  17  39  1   
 37  18  20  ar  
 38  18  40  1   
 39  19  21  1   
 40  19  41  1   
 41  19  42  1   
 42  20  22  1   
 43  21  23  3   
 44  22  43  1   
 45  22  44  1   
 46  22  45  1   
@<TRIPOS>SUBSTRUCTURE
  1 ****   7 GROUP 4 **** **** 0

# MOE 2024.06 (io_trps.svl 2023.06)
