@<TRIPOS>MOLECULE
N-(2-Azepan-1-yl-2-oxo-ethyl)-2-methoxy-5,N-dimethyl-benzenesulfonamide
50 51 1 0 0 
SMALL
USER_CHARGES


@<TRIPOS>ATOM
  1 S       -0.1780    -0.5790    -0.3200 S.o2  1 <1>   1.4470 
  2 O       -1.3700    -1.0190     0.3730 O.2   1 <1>  -0.6500 
  3 O        0.2500    -1.3260    -1.4840 O.2   1 <1>  -0.6500 
  4 N        1.0690    -0.6870     0.8240 N.am  1 <1>  -0.8490 
  5 C       -0.3100     1.1860    -0.7060 C.ar  1 <1>  -0.0090 
  6 C        1.4510    -2.0990     1.0670 C.3   1 <1>   0.2570 
  7 C        0.7710    -0.0190     2.0950 C.3   1 <1>   0.1160 
  8 C        0.7840     1.9140    -1.1630 C.ar  1 <1>   0.0830 
  9 C       -1.5170     1.8590    -0.5400 C.ar  1 <1>  -0.1500 
 10 C        2.8910    -2.2730     1.5750 C.2   1 <1>   0.5690 
 11 O        1.9720     1.2980    -1.3440 O.3   1 <1>  -0.3630 
 12 C        0.6670     3.2680    -1.4500 C.ar  1 <1>  -0.1500 
 13 C       -1.6420     3.2110    -0.8170 C.ar  1 <1>  -0.1440 
 14 O        3.0370    -2.4550     2.7640 O.2   1 <1>  -0.5700 
 15 N        3.9640    -2.2260     0.7110 N.am  1 <1>  -0.6600 
 16 C        3.0740     1.7650    -0.5970 C.3   1 <1>   0.0400 
 17 C       -0.5420     3.9140    -1.2740 C.ar  1 <1>  -0.1500 
 18 C       -2.9730     3.9150    -0.6230 C.3   1 <1>  -0.0970 
 19 C        3.8230    -1.8790    -0.7330 C.3   1 <1>   0.1400 
 20 C        5.3450    -2.4430     1.2320 C.3   1 <1>   0.1400 
 21 C        3.6640    -3.1510    -1.5720 C.3   1 <1>  -0.1600 
 22 C        6.2970    -3.1290     0.2420 C.3   1 <1>  -0.1600 
 23 C        4.9660    -3.9350    -1.7900 C.3   1 <1>  -0.1600 
 24 C        5.6930    -4.3350    -0.4970 C.3   1 <1>  -0.1600 
 25 H        1.3650    -2.6720     0.1630 H     1 <1>   0.0800 
 26 H        0.7740    -2.5420     1.7770 H     1 <1>   0.0800 
 27 H        0.5550     1.0220     1.9250 H     1 <1>   0.0800 
 28 H        1.6200    -0.0830     2.7560 H     1 <1>   0.0800 
 29 H       -0.0790    -0.4770     2.5750 H     1 <1>   0.0800 
 30 H       -2.3740     1.3110    -0.1860 H     1 <1>   0.1500 
 31 H        1.5140     3.8140    -1.8210 H     1 <1>   0.1500 
 32 H        3.9060     1.1110    -0.7820 H     1 <1>   0.0800 
 33 H        2.8190     1.7420     0.4480 H     1 <1>   0.0800 
 34 H        3.3190     2.7640    -0.9070 H     1 <1>   0.0800 
 35 H       -0.6230     4.9640    -1.4970 H     1 <1>   0.1500 
 36 H       -3.7880     3.2220    -0.7340 H     1 <1>   0.0800 
 37 H       -3.0940     4.6960    -1.3520 H     1 <1>   0.0800 
 38 H       -3.0180     4.3480     0.3600 H     1 <1>   0.0800 
 39 H        4.6770    -1.3150    -1.0650 H     1 <1>   0.0800 
 40 H        2.9610    -1.2530    -0.8790 H     1 <1>   0.0800 
 41 H        5.2890    -3.0560     2.1160 H     1 <1>   0.0800 
 42 H        5.7570    -1.4930     1.5260 H     1 <1>   0.0800 
 43 H        3.2820    -2.8640    -2.5360 H     1 <1>   0.0800 
 44 H        2.9270    -3.7900    -1.1200 H     1 <1>   0.0800 
 45 H        7.1470    -3.4700     0.8070 H     1 <1>   0.0800 
 46 H        6.6720    -2.4090    -0.4630 H     1 <1>   0.0800 
 47 H        5.6310    -3.3540    -2.4060 H     1 <1>   0.0800 
 48 H        4.7290    -4.8300    -2.3390 H     1 <1>   0.0800 
 49 H        5.0290    -4.8790     0.1530 H     1 <1>   0.0800 
 50 H        6.4960    -5.0000    -0.7660 H     1 <1>   0.0800 
@<TRIPOS>BOND
  1   1   2  2   
  2   1   3  2   
  3   1   4  am  
  4   1   5  1   
  5   4   6  1   
  6   4   7  1   
  7   5   8  ar  
  8   5   9  ar  
  9   6  10  1   
 10   6  25  1   
 11   6  26  1   
 12   7  27  1   
 13   7  28  1   
 14   7  29  1   
 15   8  11  1   
 16   8  12  ar  
 17   9  13  ar  
 18   9  30  1   
 19  10  14  2   
 20  10  15  am  
 21  11  16  1   
 22  12  17  ar  
 23  12  31  1   
 24  13  17  ar  
 25  13  18  1   
 26  15  19  1   
 27  15  20  1   
 28  16  32  1   
 29  16  33  1   
 30  16  34  1   
 31  17  35  1   
 32  18  36  1   
 33  18  37  1   
 34  18  38  1   
 35  19  21  1   
 36  19  39  1   
 37  19  40  1   
 38  20  22  1   
 39  20  41  1   
 40  20  42  1   
 41  21  23  1   
 42  21  43  1   
 43  21  44  1   
 44  22  24  1   
 45  22  45  1   
 46  22  46  1   
 47  23  24  1   
 48  23  47  1   
 49  23  48  1   
 50  24  49  1   
 51  24  50  1   
@<TRIPOS>SUBSTRUCTURE
  1 ****   4 GROUP 4 **** **** 0

# MOE 2024.06 (io_trps.svl 2023.06)
