@<TRIPOS>MOLECULE
8-Benzyl-1-methyl-3-(2-methyl-allyl)-5,6,7,8-tetrahydro-1H-1,3,4b,8,9-pentaaza-f
51 54 1 0 0 
SMALL
USER_CHARGES


@<TRIPOS>ATOM
  1 O        2.0420     0.4910    -2.1860 O.2   1 <1>  -0.5740 
  2 C        2.7940     1.2420    -1.5980 C.2   1 <1>   0.6860 
  3 N        2.3870     2.5280    -1.2610 N.am  1 <1>  -0.4260 
  4 N        4.0810     0.8220    -1.2910 N.am  1 <1>  -0.4410 
  5 C        3.2770     3.4550    -0.7430 C.2   1 <1>   0.6990 
  6 C        0.9480     2.8780    -1.3830 C.3   1 <1>   0.2720 
  7 C        4.9470     1.7430    -0.7410 C.2   1 <1>   0.4210 
  8 C        4.5360    -0.5700    -1.5810 C.3   1 <1>   0.0520 
  9 O        2.9420     4.6110    -0.5390 O.2   1 <1>  -0.5740 
 10 C        4.6090     3.0180    -0.4630 C.2   1 <1>   0.2710 
 11 C        0.2040     2.4310    -0.1290 C.2   1 <1>  -0.2830 
 12 N        6.2500     1.5620    -0.4020 N.pl3 1 <1>  -0.7040 
 13 N        5.7650     3.6190     0.0680 N.pl3 1 <1>  -0.7670 
 14 C       -0.5630     1.3370    -0.1020 C.2   1 <1>  -0.3060 
 15 C        0.3820     3.3270     1.0880 C.3   1 <1>  -0.1090 
 16 C        6.7340     2.7050     0.0820 C.cat 1 <1>   1.0690 
 17 C        5.9010     5.0130     0.5290 C.3   1 <1>   0.3480 
 18 N        7.9860     2.9790     0.5240 N.pl3 1 <1>  -0.5960 
 19 C        7.0680     5.0810     1.5140 C.3   1 <1>  -0.1670 
 20 C        8.3160     4.3590     0.9870 C.3   1 <1>   0.1610 
 21 C        9.1630     2.0490     0.5590 C.3   1 <1>   0.3050 
 22 C        8.8340     0.6620     0.0360 C.ar  1 <1>  -0.1510 
 23 C        8.3460    -0.3100     0.8970 C.ar  1 <1>  -0.1570 
 24 C        8.9640     0.3770    -1.3150 C.ar  1 <1>  -0.1570 
 25 C        7.9660    -1.5460     0.4060 C.ar  1 <1>  -0.1570 
 26 C        8.5840    -0.8600    -1.8040 C.ar  1 <1>  -0.1570 
 27 C        8.0810    -1.8200    -0.9440 C.ar  1 <1>  -0.1570 
 28 H        0.5310     2.3860    -2.2450 H     1 <1>   0.0720 
 29 H        0.8210     3.9370    -1.5320 H     1 <1>   0.0720 
 30 H        3.6920    -1.2260    -1.7150 H     1 <1>   0.0720 
 31 H        5.1270    -0.9460    -0.7650 H     1 <1>   0.0720 
 32 H        5.1260    -0.5800    -2.4820 H     1 <1>   0.0720 
 33 H        6.8210     0.7140    -0.4950 H     1 <1>   0.4450 
 34 H       -1.1090     0.9980     0.7620 H     1 <1>   0.1430 
 35 H       -0.7100     0.6810    -0.9450 H     1 <1>   0.1430 
 36 H        1.4020     3.3160     1.4240 H     1 <1>   0.0720 
 37 H       -0.2410     2.9900     1.8980 H     1 <1>   0.0720 
 38 H        0.1050     4.3380     0.8490 H     1 <1>   0.0720 
 39 H        4.9920     5.3380     1.0090 H     1 <1>   0.0720 
 40 H        6.0870     5.6510    -0.3200 H     1 <1>   0.0720 
 41 H        6.7690     4.6410     2.4500 H     1 <1>   0.0720 
 42 H        7.3050     6.1120     1.7120 H     1 <1>   0.0720 
 43 H        8.7370     4.9120     0.1620 H     1 <1>   0.0720 
 44 H        9.0530     4.3180     1.7720 H     1 <1>   0.0720 
 45 H        9.5170     1.9670     1.5730 H     1 <1>   0.0720 
 46 H        9.9610     2.4680    -0.0310 H     1 <1>   0.0720 
 47 H        8.2520    -0.1150     1.9540 H     1 <1>   0.1430 
 48 H        9.3580     1.1110    -1.9990 H     1 <1>   0.1430 
 49 H        7.5890    -2.3020     1.0760 H     1 <1>   0.1430 
 50 H        8.6880    -1.0820    -2.8530 H     1 <1>   0.1430 
 51 H        7.7920    -2.7860    -1.3250 H     1 <1>   0.1430 
@<TRIPOS>BOND
  1   1   2  2   
  2   2   3  am  
  3   2   4  am  
  4   3   5  am  
  5   3   6  1   
  6   4   7  1   
  7   4   8  1   
  8   5   9  2   
  9   5  10  1   
 10   6  11  1   
 11   6  28  1   
 12   6  29  1   
 13   7  10  2   
 14   7  12  1   
 15   8  30  1   
 16   8  31  1   
 17   8  32  1   
 18  10  13  1   
 19  11  14  2   
 20  11  15  1   
 21  12  16  ar  
 22  12  33  1   
 23  13  16  ar  
 24  13  17  1   
 25  14  34  1   
 26  14  35  1   
 27  15  36  1   
 28  15  37  1   
 29  15  38  1   
 30  16  18  ar  
 31  17  19  1   
 32  17  39  1   
 33  17  40  1   
 34  18  20  1   
 35  18  21  1   
 36  19  20  1   
 37  19  41  1   
 38  19  42  1   
 39  20  43  1   
 40  20  44  1   
 41  21  22  1   
 42  21  45  1   
 43  21  46  1   
 44  22  23  ar  
 45  22  24  ar  
 46  23  25  ar  
 47  23  47  1   
 48  24  26  ar  
 49  24  48  1   
 50  25  27  ar  
 51  25  49  1   
 52  26  27  ar  
 53  26  50  1   
 54  27  51  1   
@<TRIPOS>SUBSTRUCTURE
  1 ****   7 GROUP 4 **** **** 0

# MOE 2024.06 (io_trps.svl 2023.06)
