@<TRIPOS>MOLECULE
2-Methyl-3-[(tetrahydro-furan-2-carbonyl)-amino]-benzoic acid
32 33 1 0 0 
SMALL
USER_CHARGES


@<TRIPOS>ATOM
  1 O       -2.1420     1.4570     2.0780 O.co2 1 <1>  -0.9000 
  2 C       -1.9590     0.9960     0.9370 C.2   1 <1>   0.9790 
  3 O       -1.7760    -0.2280     0.8130 O.co2 1 <1>  -0.9000 
  4 C       -1.9880     1.8560    -0.2440 C.ar  1 <1>  -0.1790 
  5 C       -1.4090     3.1330    -0.3080 C.ar  1 <1>  -0.1440 
  6 C       -2.6390     1.3810    -1.3840 C.ar  1 <1>  -0.1500 
  7 C       -1.5430     3.9130    -1.4600 C.ar  1 <1>   0.1170 
  8 C       -0.6220     3.6500     0.8990 C.3   1 <1>  -0.0970 
  9 C       -2.7470     2.1370    -2.5340 C.ar  1 <1>  -0.1500 
 10 N       -1.0450     5.2170    -1.5360 N.am  1 <1>  -0.5470 
 11 C       -2.2040     3.4040    -2.5670 C.ar  1 <1>  -0.1500 
 12 C       -1.5420     6.3380    -0.9450 C.2   1 <1>   0.5690 
 13 O       -0.8960     7.3600    -1.0020 O.2   1 <1>  -0.5700 
 14 C       -2.8930     6.2950    -0.1910 C.3   1 <1>   0.2610 
 15 O       -3.8150     7.2130    -0.7270 O.3   1 <1>  -0.5600 
 16 C       -2.7720     6.6570     1.2970 C.3   1 <1>  -0.1600 
 17 C       -3.8270     8.3720     0.0330 C.3   1 <1>   0.1200 
 18 C       -3.6460     7.8910     1.4620 C.3   1 <1>  -0.1600 
 19 H       -3.0640     0.3910    -1.3500 H     1 <1>   0.1500 
 20 H       -0.0080     2.8620     1.2990 H     1 <1>   0.0800 
 21 H       -1.3060     3.9590     1.6690 H     1 <1>   0.0800 
 22 H        0.0260     4.4680     0.6550 H     1 <1>   0.0800 
 23 H       -3.2570     1.7380    -3.3920 H     1 <1>   0.1500 
 24 H       -0.1660     5.3550    -2.0300 H     1 <1>   0.3700 
 25 H       -2.2980     4.0060    -3.4520 H     1 <1>   0.1500 
 26 H       -3.3360     5.3210    -0.2910 H     1 <1>   0.0800 
 27 H       -1.7480     6.8760     1.5460 H     1 <1>   0.0800 
 28 H       -3.1090     5.8440     1.9150 H     1 <1>   0.0800 
 29 H       -4.7580     8.8900    -0.1200 H     1 <1>   0.0800 
 30 H       -2.9990     8.9860    -0.2820 H     1 <1>   0.0800 
 31 H       -3.1910     8.6420     2.0820 H     1 <1>   0.0800 
 32 H       -4.6040     7.6190     1.8690 H     1 <1>   0.0800 
@<TRIPOS>BOND
  1   1   2  ar  
  2   2   3  ar  
  3   2   4  1   
  4   4   5  ar  
  5   4   6  ar  
  6   5   7  ar  
  7   5   8  1   
  8   6   9  ar  
  9   6  19  1   
 10   7  10  1   
 11   7  11  ar  
 12   8  20  1   
 13   8  21  1   
 14   8  22  1   
 15   9  11  ar  
 16   9  23  1   
 17  10  12  am  
 18  10  24  1   
 19  11  25  1   
 20  12  13  2   
 21  12  14  1   
 22  14  15  1   
 23  14  16  1   
 24  14  26  1   
 25  15  17  1   
 26  16  18  1   
 27  16  27  1   
 28  16  28  1   
 29  17  18  1   
 30  17  29  1   
 31  17  30  1   
 32  18  31  1   
 33  18  32  1   
@<TRIPOS>SUBSTRUCTURE
  1 ****   7 GROUP 4 **** **** 0

# MOE 2024.06 (io_trps.svl 2023.06)
