@<TRIPOS>MOLECULE
2-[4-(Azepane-1-sulfonyl)-piperazin-1-yl]-N-(4-methoxy-phenyl)-acetamide
58 60 1 0 0 
SMALL
USER_CHARGES


@<TRIPOS>ATOM
  1 S       -0.5010     0.5580     0.6300 S.o2  1 <1>   1.5760 
  2 O       -1.3170    -0.2580     1.5030 O.2   1 <1>  -0.6500 
  3 O        0.1550     1.7350     1.1540 O.2   1 <1>  -0.6500 
  4 N        0.6720    -0.4160    -0.0970 N.am  1 <1>  -0.8490 
  5 N       -1.4060     1.0070    -0.7250 N.am  1 <1>  -0.8490 
  6 C        1.4190    -1.1740     0.9130 C.3   1 <1>   0.1960 
  7 C        1.5460     0.3850    -0.9630 C.3   1 <1>   0.1960 
  8 C       -2.3030     2.1430    -0.4790 C.3   1 <1>   0.1960 
  9 C       -2.1460    -0.0940    -1.3630 C.3   1 <1>   0.1960 
 10 C        1.9760    -2.4650     0.3060 C.3   1 <1>  -0.1600 
 11 C        2.4850    -0.4610    -1.8320 C.3   1 <1>  -0.1600 
 12 C       -3.5550     1.7490     0.3300 C.3   1 <1>   0.1100 
 13 C       -3.4450    -0.4930    -0.6270 C.3   1 <1>   0.1100 
 14 C        3.3750    -2.3490    -0.3190 C.3   1 <1>  -0.1600 
 15 C        3.6770    -1.0350    -1.0520 C.3   1 <1>  -0.1600 
 16 N       -4.3170     0.6660    -0.3250 N.3   1 <1>  -0.8100 
 17 C       -5.5150     0.3140     0.4940 C.3   1 <1>   0.1710 
 18 C       -6.3450    -0.8900     0.0260 C.2   1 <1>   0.5690 
 19 O       -7.3390    -0.6970    -0.6310 O.2   1 <1>  -0.5700 
 20 N       -5.9200    -2.1360     0.4130 N.am  1 <1>  -0.5470 
 21 C       -6.4270    -3.4230     0.1640 C.ar  1 <1>   0.1170 
 22 C       -7.7210    -3.6660    -0.2900 C.ar  1 <1>  -0.1500 
 23 C       -5.5960    -4.5130     0.3950 C.ar  1 <1>  -0.1500 
 24 C       -8.1700    -4.9560    -0.5120 C.ar  1 <1>  -0.1500 
 25 C       -6.0400    -5.8050     0.1760 C.ar  1 <1>  -0.1500 
 26 C       -7.3260    -6.0380    -0.2790 C.ar  1 <1>   0.0820 
 27 O       -7.6830    -7.3350    -0.4700 O.3   1 <1>  -0.3630 
 28 C       -8.9680    -7.6710    -0.9440 C.3   1 <1>   0.0400 
 29 H        0.7520    -1.4690     1.7060 H     1 <1>   0.0800 
 30 H        2.1970    -0.5730     1.3540 H     1 <1>   0.0800 
 31 H        2.1180     1.0800    -0.3700 H     1 <1>   0.0800 
 32 H        0.9340     0.9670    -1.6320 H     1 <1>   0.0800 
 33 H       -2.6250     2.5430    -1.4250 H     1 <1>   0.0800 
 34 H       -1.7710     2.9260     0.0350 H     1 <1>   0.0800 
 35 H       -1.5080    -0.9560    -1.4570 H     1 <1>   0.0800 
 36 H       -2.4130     0.2110    -2.3600 H     1 <1>   0.0800 
 37 H        1.2770    -2.8310    -0.4270 H     1 <1>   0.0800 
 38 H        2.0280    -3.2080     1.0820 H     1 <1>   0.0800 
 39 H        2.8800     0.1910    -2.5910 H     1 <1>   0.0800 
 40 H        1.9340    -1.2360    -2.3350 H     1 <1>   0.0800 
 41 H       -4.1870     2.6160     0.4230 H     1 <1>   0.0800 
 42 H       -3.2600     1.4500     1.3210 H     1 <1>   0.0800 
 43 H       -3.2020    -1.0180     0.2780 H     1 <1>   0.0800 
 44 H       -3.9800    -1.1770    -1.2630 H     1 <1>   0.0800 
 45 H        3.4970    -3.1670    -1.0090 H     1 <1>   0.0800 
 46 H        4.1150    -2.4770     0.4520 H     1 <1>   0.0800 
 47 H        4.0240    -0.3010    -0.3450 H     1 <1>   0.0800 
 48 H        4.4870    -1.2160    -1.7370 H     1 <1>   0.0800 
 49 H       -6.1720     1.1650     0.5120 H     1 <1>   0.0800 
 50 H       -5.2060     0.1260     1.5070 H     1 <1>   0.0800 
 51 H       -5.0460    -2.1310     0.9340 H     1 <1>   0.3700 
 52 H       -8.3920    -2.8470    -0.4720 H     1 <1>   0.1500 
 53 H       -4.5930    -4.3580     0.7470 H     1 <1>   0.1500 
 54 H       -9.1740    -5.0950    -0.8640 H     1 <1>   0.1500 
 55 H       -5.3910    -6.6440     0.3550 H     1 <1>   0.1500 
 56 H       -9.0250    -8.7410    -1.0240 H     1 <1>   0.0800 
 57 H       -9.1110    -7.2240    -1.9120 H     1 <1>   0.0800 
 58 H       -9.7030    -7.3170    -0.2430 H     1 <1>   0.0800 
@<TRIPOS>BOND
  1   1   2  2   
  2   1   3  2   
  3   1   4  am  
  4   1   5  am  
  5   4   6  1   
  6   4   7  1   
  7   5   8  1   
  8   5   9  1   
  9   6  10  1   
 10   6  29  1   
 11   6  30  1   
 12   7  11  1   
 13   7  31  1   
 14   7  32  1   
 15   8  12  1   
 16   8  33  1   
 17   8  34  1   
 18   9  13  1   
 19   9  35  1   
 20   9  36  1   
 21  10  14  1   
 22  10  37  1   
 23  10  38  1   
 24  11  15  1   
 25  11  39  1   
 26  11  40  1   
 27  12  16  1   
 28  12  41  1   
 29  12  42  1   
 30  13  16  1   
 31  13  43  1   
 32  13  44  1   
 33  14  15  1   
 34  14  45  1   
 35  14  46  1   
 36  15  47  1   
 37  15  48  1   
 38  16  17  1   
 39  17  18  1   
 40  17  49  1   
 41  17  50  1   
 42  18  19  2   
 43  18  20  am  
 44  20  21  1   
 45  20  51  1   
 46  21  22  ar  
 47  21  23  ar  
 48  22  24  ar  
 49  22  52  1   
 50  23  25  ar  
 51  23  53  1   
 52  24  26  ar  
 53  24  54  1   
 54  25  26  ar  
 55  25  55  1   
 56  26  27  1   
 57  27  28  1   
 58  28  56  1   
 59  28  57  1   
 60  28  58  1   
@<TRIPOS>SUBSTRUCTURE
  1 ****  13 GROUP 4 **** **** 0

# MOE 2024.06 (io_trps.svl 2023.06)
