@<TRIPOS>MOLECULE
6-(4-tert-Butyl-phenoxymethyl)-[1,2,4]triazolo[3,4-b][1,3,4]thiadiazole
36 38 1 0 0 
SMALL
USER_CHARGES


@<TRIPOS>ATOM
  1 S       -0.6010     0.6050    -1.2400 S.3   1 <1>  -0.1970 
  2 C        0.3460     1.7190    -0.2770 C.2   1 <1>   0.2420 
  3 C       -1.9930     0.9550    -0.1920 C.2   1 <1>   0.5300 
  4 N        1.5570     2.1500    -0.2790 N.2   1 <1>  -0.3380 
  5 N       -0.4230     2.2150     0.6770 N.pl3 1 <1>   0.5050 
  6 N       -1.7520     1.7920     0.7390 N.2   1 <1>  -0.6520 
  7 C       -3.2700     0.2070    -0.5550 C.3   1 <1>   0.1810 
  8 N        1.6100     3.0070     0.7600 N.2   1 <1>  -0.3380 
  9 C        0.4320     3.0290     1.3080 C.2   1 <1>   0.0360 
 10 O       -4.3260     0.5390     0.3250 O.3   1 <1>  -0.3630 
 11 C       -5.5560    -0.0120     0.1850 C.ar  1 <1>   0.0830 
 12 C       -6.5210     0.3770     1.0960 C.ar  1 <1>  -0.1500 
 13 C       -5.8920    -0.9290    -0.8040 C.ar  1 <1>  -0.1500 
 14 C       -7.8040    -0.1360     1.0280 C.ar  1 <1>  -0.1500 
 15 C       -7.1770    -1.4380    -0.8660 C.ar  1 <1>  -0.1500 
 16 C       -8.1590    -1.0550     0.0440 C.ar  1 <1>  -0.1430 
 17 C       -9.5780    -1.6550    -0.0730 C.3   1 <1>   0.1430 
 18 C       -9.5030    -3.1830     0.0710 C.3   1 <1>  -0.2400 
 19 C      -10.1740    -1.3010    -1.4440 C.3   1 <1>  -0.2400 
 20 C      -10.5470    -1.1350     1.0020 C.3   1 <1>  -0.2400 
 21 H       -3.0980    -0.8520    -0.4870 H     1 <1>   0.0800 
 22 H       -3.5700     0.4700    -1.5530 H     1 <1>   0.0800 
 23 H        0.1420     3.6130     2.1600 H     1 <1>   0.1500 
 24 H       -6.2610     1.0860     1.8610 H     1 <1>   0.1500 
 25 H       -5.1780    -1.2610    -1.5320 H     1 <1>   0.1500 
 26 H       -8.5100     0.2040     1.7610 H     1 <1>   0.1500 
 27 H       -7.4090    -2.1450    -1.6420 H     1 <1>   0.1500 
 28 H       -8.9130    -3.6190    -0.7130 H     1 <1>   0.0800 
 29 H      -10.4850    -3.6170     0.0310 H     1 <1>   0.0800 
 30 H       -9.0530    -3.4400     1.0140 H     1 <1>   0.0800 
 31 H       -9.5910    -1.7200    -2.2420 H     1 <1>   0.0800 
 32 H      -10.1980    -0.2330    -1.5680 H     1 <1>   0.0800 
 33 H      -11.1770    -1.6780    -1.5310 H     1 <1>   0.0800 
 34 H      -10.1880    -1.3820     1.9850 H     1 <1>   0.0800 
 35 H      -11.5190    -1.5790     0.8820 H     1 <1>   0.0800 
 36 H      -10.6570    -0.0680     0.9260 H     1 <1>   0.0800 
@<TRIPOS>BOND
  1   1   2  1   
  2   1   3  1   
  3   2   4  2   
  4   2   5  1   
  5   3   6  2   
  6   3   7  1   
  7   4   8  1   
  8   5   6  1   
  9   5   9  1   
 10   7  10  1   
 11   7  21  1   
 12   7  22  1   
 13   8   9  2   
 14   9  23  1   
 15  10  11  1   
 16  11  12  ar  
 17  11  13  ar  
 18  12  14  ar  
 19  12  24  1   
 20  13  15  ar  
 21  13  25  1   
 22  14  16  ar  
 23  14  26  1   
 24  15  16  ar  
 25  15  27  1   
 26  16  17  1   
 27  17  18  1   
 28  17  19  1   
 29  17  20  1   
 30  18  28  1   
 31  18  29  1   
 32  18  30  1   
 33  19  31  1   
 34  19  32  1   
 35  19  33  1   
 36  20  34  1   
 37  20  35  1   
 38  20  36  1   
@<TRIPOS>SUBSTRUCTURE
  1 ****  10 GROUP 4 **** **** 0

# MOE 2024.06 (io_trps.svl 2023.06)
