@<TRIPOS>MOLECULE
Naphthalene-2-sulfonic acid methyl-[2-(4-methyl-piperazin-1-yl)-2-oxo-ethyl]-ami
49 51 1 0 0 
SMALL
USER_CHARGES


@<TRIPOS>ATOM
  1 S        1.3520     0.3540     0.2980 S.o2  1 <1>   1.4470 
  2 O        2.7870     0.5080     0.3860 O.2   1 <1>  -0.6500 
  3 O        0.8270    -0.4860    -0.7590 O.2   1 <1>  -0.6500 
  4 N        0.7980    -0.3480     1.7420 N.am  1 <1>  -0.8490 
  5 C        0.5820     1.9960     0.2610 C.ar  1 <1>  -0.0090 
  6 C        1.2460    -1.7590     1.9050 C.3   1 <1>   0.2570 
  7 C       -0.6630    -0.2940     1.8840 C.3   1 <1>   0.1160 
  8 C       -0.3660     2.3400    -0.6710 C.ar  1 <1>  -0.1500 
  9 C        0.9410     2.9580     1.2210 C.ar  1 <1>  -0.1500 
 10 C        2.7620    -2.0020     2.0520 C.2   1 <1>   0.5690 
 11 C       -0.9840     3.6060    -0.6890 C.ar  1 <1>   0.0000 
 12 C        0.3620     4.1970     1.2330 C.ar  1 <1>  -0.1500 
 13 O        3.2140    -1.9620     3.1730 O.2   1 <1>  -0.5700 
 14 N        3.5900    -2.2900     0.9850 N.am  1 <1>  -0.6600 
 15 C       -0.6140     4.5550     0.2840 C.ar  1 <1>   0.0000 
 16 C       -1.9600     3.9590    -1.6440 C.ar  1 <1>  -0.1500 
 17 C        5.0570    -2.0170     1.1260 C.3   1 <1>   0.1400 
 18 C        3.1400    -2.5460    -0.4220 C.3   1 <1>   0.1400 
 19 C       -1.2340     5.8210     0.2700 C.ar  1 <1>  -0.1500 
 20 C       -2.5460     5.1940    -1.6350 C.ar  1 <1>  -0.1500 
 21 C        5.9100    -3.0650     0.3940 C.3   1 <1>   0.3430 
 22 C        4.0320    -3.5850    -1.1270 C.3   1 <1>   0.3430 
 23 C       -2.1790     6.1360    -0.6670 C.ar  1 <1>  -0.1500 
 24 N        5.4900    -3.2240    -1.0420 N.4   1 <1>  -0.9590 
 25 C        6.3430    -4.2260    -1.7500 C.3   1 <1>   0.2630 
 26 H        0.8560    -2.3540     1.1010 H     1 <1>   0.0800 
 27 H        0.8060    -2.1430     2.8090 H     1 <1>   0.0800 
 28 H       -1.0040     0.7280     1.8950 H     1 <1>   0.0800 
 29 H       -0.9620    -0.7440     2.8160 H     1 <1>   0.0800 
 30 H       -1.1450    -0.8140     1.0720 H     1 <1>   0.0800 
 31 H       -0.6620     1.6280    -1.4220 H     1 <1>   0.1500 
 32 H        1.6870     2.6960     1.9540 H     1 <1>   0.1500 
 33 H        0.6480     4.9230     1.9740 H     1 <1>   0.1500 
 34 H       -2.2390     3.2340    -2.3870 H     1 <1>   0.1500 
 35 H        5.3440    -2.0090     2.1630 H     1 <1>   0.0800 
 36 H        5.2650    -1.0370     0.7310 H     1 <1>   0.0800 
 37 H        3.1760    -1.6270    -0.9800 H     1 <1>   0.0800 
 38 H        2.1260    -2.9010    -0.4400 H     1 <1>   0.0800 
 39 H       -0.9480     6.5410     1.0150 H     1 <1>   0.1500 
 40 H       -3.2910     5.4590    -2.3660 H     1 <1>   0.1500 
 41 H        5.8100    -4.0060     0.9100 H     1 <1>   0.0800 
 42 H        6.9450    -2.7690     0.4440 H     1 <1>   0.0800 
 43 H        3.7330    -3.6580    -2.1600 H     1 <1>   0.0800 
 44 H        3.8690    -4.5450    -0.6670 H     1 <1>   0.0800 
 45 H       -2.6500     7.1040    -0.6740 H     1 <1>   0.1500 
 46 H        5.6040    -2.3040    -1.4940 H     1 <1>   0.4500 
 47 H        6.2410    -5.1960    -1.2910 H     1 <1>   0.0800 
 48 H        7.3790    -3.9310    -1.7070 H     1 <1>   0.0800 
 49 H        6.0510    -4.3010    -2.7860 H     1 <1>   0.0800 
@<TRIPOS>BOND
  1   1   2  2   
  2   1   3  2   
  3   1   4  am  
  4   1   5  1   
  5   4   6  1   
  6   4   7  1   
  7   5   8  ar  
  8   5   9  ar  
  9   6  10  1   
 10   6  26  1   
 11   6  27  1   
 12   7  28  1   
 13   7  29  1   
 14   7  30  1   
 15   8  11  ar  
 16   8  31  1   
 17   9  12  ar  
 18   9  32  1   
 19  10  13  2   
 20  10  14  am  
 21  11  15  ar  
 22  11  16  ar  
 23  12  15  ar  
 24  12  33  1   
 25  14  17  1   
 26  14  18  1   
 27  15  19  ar  
 28  16  20  ar  
 29  16  34  1   
 30  17  21  1   
 31  17  35  1   
 32  17  36  1   
 33  18  22  1   
 34  18  37  1   
 35  18  38  1   
 36  19  23  ar  
 37  19  39  1   
 38  20  23  ar  
 39  20  40  1   
 40  21  24  1   
 41  21  41  1   
 42  21  42  1   
 43  22  24  1   
 44  22  43  1   
 45  22  44  1   
 46  23  45  1   
 47  24  25  1   
 48  24  46  1   
 49  25  47  1   
 50  25  48  1   
 51  25  49  1   
@<TRIPOS>SUBSTRUCTURE
  1 ****   1 GROUP 4 **** **** 0

# MOE 2024.06 (io_trps.svl 2023.06)
