@<TRIPOS>MOLECULE
4-[(2-Oxo-2H-chromen-4-ylamino)-methyl]-cyclohexanecarboxylic acid
40 42 1 0 0 
SMALL
USER_CHARGES


@<TRIPOS>ATOM
  1 O       -0.9830     0.4840    -1.9020 O.2   1 <1>  -0.5700 
  2 C       -1.7770     1.1250    -1.2340 C.2   1 <1>   0.7060 
  3 O       -3.0100     0.6290    -1.0900 O.3   1 <1>  -0.2330 
  4 C       -1.4580     2.3500    -0.6140 C.2   1 <1>  -0.1360 
  5 C       -3.9610     1.2660    -0.3730 C.ar  1 <1>   0.0820 
  6 C       -2.3640     3.0500     0.1200 C.2   1 <1>   0.0720 
  7 C       -3.6880     2.4900     0.2550 C.ar  1 <1>   0.0280 
  8 C       -5.2130     0.6760    -0.2810 C.ar  1 <1>  -0.1500 
  9 N       -2.0580     4.2490     0.7290 N.pl3 1 <1>  -0.8690 
 10 C       -4.7260     3.0920     0.9730 C.ar  1 <1>  -0.1500 
 11 C       -6.2190     1.2910     0.4360 C.ar  1 <1>  -0.1500 
 12 C       -0.9310     5.1490     0.3880 C.3   1 <1>   0.2090 
 13 C       -5.9720     2.5030     1.0630 C.ar  1 <1>  -0.1500 
 14 C       -1.3300     6.6100     0.6410 C.3   1 <1>  -0.0800 
 15 C       -2.5150     7.0470    -0.2430 C.3   1 <1>  -0.1600 
 16 C       -0.1240     7.5370     0.4060 C.3   1 <1>  -0.1600 
 17 C       -2.8890     8.5140     0.0100 C.3   1 <1>  -0.1600 
 18 C       -0.4900     9.0050     0.6640 C.3   1 <1>  -0.1600 
 19 C       -1.6860     9.4530    -0.1990 C.3   1 <1>  -0.1860 
 20 C       -2.0590    10.9110     0.0680 C.2   1 <1>   0.9060 
 21 O       -1.9810    11.7180    -0.8640 O.co2 1 <1>  -0.9000 
 22 O       -2.4280    11.2430     1.2020 O.co2 1 <1>  -0.9000 
 23 H       -0.4540     2.6930    -0.7500 H     1 <1>   0.1500 
 24 H       -5.3910    -0.2640    -0.7730 H     1 <1>   0.1500 
 25 H       -2.7790     4.7190     1.2870 H     1 <1>   0.4000 
 26 H       -4.5610     4.0310     1.4660 H     1 <1>   0.1500 
 27 H       -7.1910     0.8350     0.5100 H     1 <1>   0.1500 
 28 H       -0.6620     5.0240    -0.6470 H     1 <1>   0.0800 
 29 H       -0.0830     4.8930     0.9990 H     1 <1>   0.0800 
 30 H       -6.7580     2.9830     1.6220 H     1 <1>   0.1500 
 31 H       -1.6160     6.7050     1.6750 H     1 <1>   0.0800 
 32 H       -3.3770     6.4340    -0.0480 H     1 <1>   0.0800 
 33 H       -2.2550     6.9270    -1.2800 H     1 <1>   0.0800 
 34 H        0.2180     7.4380    -0.6110 H     1 <1>   0.0800 
 35 H        0.6850     7.2610     1.0590 H     1 <1>   0.0800 
 36 H       -3.2480     8.6290     1.0200 H     1 <1>   0.0800 
 37 H       -3.6840     8.8090    -0.6520 H     1 <1>   0.0800 
 38 H        0.3540     9.6380     0.4480 H     1 <1>   0.0800 
 39 H       -0.7410     9.1420     1.7020 H     1 <1>   0.0800 
 40 H       -1.3940     9.4000    -1.2310 H     1 <1>   0.0800 
@<TRIPOS>BOND
  1   1   2  2   
  2   2   3  1   
  3   2   4  1   
  4   3   5  1   
  5   4   6  2   
  6   4  23  1   
  7   5   7  ar  
  8   5   8  ar  
  9   6   7  1   
 10   6   9  1   
 11   7  10  ar  
 12   8  11  ar  
 13   8  24  1   
 14   9  12  1   
 15   9  25  1   
 16  10  13  ar  
 17  10  26  1   
 18  11  13  ar  
 19  11  27  1   
 20  12  14  1   
 21  12  28  1   
 22  12  29  1   
 23  13  30  1   
 24  14  15  1   
 25  14  16  1   
 26  14  31  1   
 27  15  17  1   
 28  15  32  1   
 29  15  33  1   
 30  16  18  1   
 31  16  34  1   
 32  16  35  1   
 33  17  19  1   
 34  17  36  1   
 35  17  37  1   
 36  18  19  1   
 37  18  38  1   
 38  18  39  1   
 39  19  20  1   
 40  19  40  1   
 41  20  21  ar  
 42  20  22  ar  
@<TRIPOS>SUBSTRUCTURE
  1 ****   9 GROUP 4 **** **** 0

# MOE 2024.06 (io_trps.svl 2023.06)
