@<TRIPOS>MOLECULE
1-Methanesulfonyl-piperidine-3-carboxylic acid (3-methylsulfanyl-phenyl)-amide
41 42 1 0 0 
SMALL
USER_CHARGES


@<TRIPOS>ATOM
  1 S        0.3290     0.0020     1.3840 S.o2  1 <1>   1.3330 
  2 O        0.8740     0.9370     2.3410 O.2   1 <1>  -0.6500 
  3 O       -0.7060    -0.9280     1.7710 O.2   1 <1>  -0.6500 
  4 N        1.6200    -0.8910     0.7440 N.am  1 <1>  -0.8490 
  5 C       -0.2860     0.9440     0.0010 C.3   1 <1>  -0.1350 
  6 C        2.7500    -0.0750     0.2850 C.3   1 <1>   0.1960 
  7 C        1.2280    -1.9340    -0.2070 C.3   1 <1>   0.1960 
  8 C        3.9790    -0.9580     0.0360 C.3   1 <1>  -0.0190 
  9 C        2.4140    -2.8650    -0.4830 C.3   1 <1>  -0.1600 
 10 C        5.1340    -0.1010    -0.4600 C.2   1 <1>   0.5690 
 11 C        3.6500    -2.0880    -0.9570 C.3   1 <1>  -0.1600 
 12 O        4.9220     0.6900    -1.3470 O.2   1 <1>  -0.5700 
 13 N        6.3580    -0.2860     0.1220 N.am  1 <1>  -0.5470 
 14 C        7.5980     0.3370    -0.0960 C.ar  1 <1>   0.1170 
 15 C        8.7400    -0.2830     0.3950 C.ar  1 <1>  -0.1500 
 16 C        7.7430     1.5500    -0.7650 C.ar  1 <1>  -0.1500 
 17 C        9.9830     0.2920     0.2150 C.ar  1 <1>   0.1010 
 18 C        8.9900     2.1240    -0.9460 C.ar  1 <1>  -0.1500 
 19 S       11.3960    -0.5980     0.8930 S.3   1 <1>  -0.3320 
 20 C       10.1220     1.4960    -0.4550 C.ar  1 <1>  -0.1500 
 21 C       12.8960     0.4000     0.4900 C.3   1 <1>  -0.0100 
 22 H        0.4740     1.5980    -0.3780 H     1 <1>   0.0800 
 23 H       -1.1190     1.5410     0.3160 H     1 <1>   0.0800 
 24 H       -0.6140     0.2920    -0.7830 H     1 <1>   0.0800 
 25 H        2.9980     0.6590     1.0340 H     1 <1>   0.0800 
 26 H        2.4840     0.4440    -0.6210 H     1 <1>   0.0800 
 27 H        0.8920    -1.4880    -1.1280 H     1 <1>   0.0800 
 28 H        0.4190    -2.5170     0.2050 H     1 <1>   0.0800 
 29 H        4.2550    -1.3930     0.9800 H     1 <1>   0.0800 
 30 H        2.1320    -3.5880    -1.2270 H     1 <1>   0.0800 
 31 H        2.6440    -3.4010     0.4220 H     1 <1>   0.0800 
 32 H        4.4890    -2.7550    -1.0490 H     1 <1>   0.0800 
 33 H        3.4550    -1.6640    -1.9280 H     1 <1>   0.0800 
 34 H        6.3910    -1.0300     0.8170 H     1 <1>   0.3700 
 35 H        8.6730    -1.2180     0.9170 H     1 <1>   0.1500 
 36 H        6.8800     2.0610    -1.1500 H     1 <1>   0.1500 
 37 H        9.0760     3.0610    -1.4690 H     1 <1>   0.1500 
 38 H       11.0820     1.9510    -0.6010 H     1 <1>   0.1500 
 39 H       13.7490    -0.1210     0.8860 H     1 <1>   0.0800 
 40 H       12.7890     1.3640     0.9540 H     1 <1>   0.0800 
 41 H       12.9630     0.4820    -0.5800 H     1 <1>   0.0800 
@<TRIPOS>BOND
  1   1   2  2   
  2   1   3  2   
  3   1   4  am  
  4   1   5  1   
  5   4   6  1   
  6   4   7  1   
  7   5  22  1   
  8   5  23  1   
  9   5  24  1   
 10   6   8  1   
 11   6  25  1   
 12   6  26  1   
 13   7   9  1   
 14   7  27  1   
 15   7  28  1   
 16   8  10  1   
 17   8  11  1   
 18   8  29  1   
 19   9  11  1   
 20   9  30  1   
 21   9  31  1   
 22  10  12  2   
 23  10  13  am  
 24  11  32  1   
 25  11  33  1   
 26  13  14  1   
 27  13  34  1   
 28  14  15  ar  
 29  14  16  ar  
 30  15  17  ar  
 31  15  35  1   
 32  16  18  ar  
 33  16  36  1   
 34  17  19  1   
 35  17  20  ar  
 36  18  20  ar  
 37  18  37  1   
 38  19  21  1   
 39  20  38  1   
 40  21  39  1   
 41  21  40  1   
 42  21  41  1   
@<TRIPOS>SUBSTRUCTURE
  1 ****  10 GROUP 4 **** **** 0

# MOE 2024.06 (io_trps.svl 2023.06)
