@<TRIPOS>MOLECULE
1,6,7-Trimethyl-3-(1-methyl-2-oxo-propyl)-8-phenyl-1H,8H-imidazo[2,1-f]purine-2,
50 53 1 0 0 
SMALL
USER_CHARGES


@<TRIPOS>ATOM
  1 O        0.6140     0.0980     0.0790 O.2   1 <1>  -0.5750 
  2 C        1.5990     0.7960    -0.0560 C.2   1 <1>   0.6860 
  3 N        1.4690     2.1300    -0.4350 N.am  1 <1>  -0.4260 
  4 N        2.8570     0.2470     0.1590 N.am  1 <1>  -0.4420 
  5 C        2.5870     2.9040    -0.7090 C.2   1 <1>   0.6990 
  6 C        0.1610     2.8300    -0.1950 C.3   1 <1>   0.2750 
  7 C        3.9610     1.0440    -0.0600 C.2   1 <1>   0.4200 
  8 C        2.9960    -1.1620     0.6340 C.3   1 <1>   0.0520 
  9 O        2.4680     4.0360    -1.1470 O.2   1 <1>  -0.5750 
 10 C        3.8730     2.3290    -0.4820 C.2   1 <1>   0.2700 
 11 C       -0.2520     2.6680     1.2790 C.2   1 <1>   0.4430 
 12 C       -0.8720     2.4130    -1.2590 C.3   1 <1>  -0.2470 
 13 N        5.2750     0.7040     0.0890 N.pl3 1 <1>  -0.7040 
 14 N        5.1950     2.7950    -0.5960 N.pl3 1 <1>  -0.6330 
 15 O        0.5640     2.8010     2.1450 O.2   1 <1>  -0.5750 
 16 C       -1.6920     2.3440     1.6290 C.3   1 <1>  -0.1860 
 17 C        5.9790     1.7890    -0.2400 C.cat 1 <1>   1.0690 
 18 C        6.0250     3.8540    -0.9050 C.2   1 <1>   0.2340 
 19 N        7.2750     2.1120    -0.2990 N.pl3 1 <1>  -0.5550 
 20 C        7.2990     3.4340    -0.7240 C.2   1 <1>   0.1580 
 21 C        5.4500     5.1840    -1.3510 C.3   1 <1>  -0.1100 
 22 C        8.3510     1.2690     0.0140 C.ar  1 <1>   0.3050 
 23 C        8.6180     4.1660    -0.9110 C.3   1 <1>  -0.1100 
 24 C        8.8440     1.2180     1.3100 C.ar  1 <1>  -0.1570 
 25 C        8.9150     0.4650    -0.9650 C.ar  1 <1>  -0.1570 
 26 C        9.8840     0.3620     1.6270 C.ar  1 <1>  -0.1570 
 27 C        9.9550    -0.3920    -0.6500 C.ar  1 <1>  -0.1570 
 28 C       10.4360    -0.4440     0.6470 C.ar  1 <1>  -0.1570 
 29 H        0.2990     3.8890    -0.3220 H     1 <1>   0.0720 
 30 H        2.1240    -1.4580     1.1930 H     1 <1>   0.0720 
 31 H        3.8510    -1.2630     1.2790 H     1 <1>   0.0720 
 32 H        3.1020    -1.8210    -0.2100 H     1 <1>   0.0720 
 33 H       -1.1600     1.3830    -1.1520 H     1 <1>   0.0720 
 34 H       -0.4670     2.5650    -2.2430 H     1 <1>   0.0720 
 35 H       -1.7550     3.0190    -1.1700 H     1 <1>   0.0720 
 36 H        5.6760    -0.1810     0.3930 H     1 <1>   0.4450 
 37 H       -1.9610     1.3860     1.2240 H     1 <1>   0.0720 
 38 H       -2.3500     3.0990     1.2410 H     1 <1>   0.0720 
 39 H       -1.8050     2.3060     2.6970 H     1 <1>   0.0720 
 40 H        4.8060     5.5810    -0.5870 H     1 <1>   0.0720 
 41 H        4.8730     5.0530    -2.2500 H     1 <1>   0.0720 
 42 H        6.2300     5.8960    -1.5460 H     1 <1>   0.0720 
 43 H        9.2210     3.6590    -1.6430 H     1 <1>   0.0720 
 44 H        9.1580     4.1960     0.0190 H     1 <1>   0.0720 
 45 H        8.4550     5.1750    -1.2420 H     1 <1>   0.0720 
 46 H        8.4220     1.8460     2.0730 H     1 <1>   0.1430 
 47 H        8.5490     0.5060    -1.9750 H     1 <1>   0.1430 
 48 H       10.2690     0.3210     2.6320 H     1 <1>   0.1430 
 49 H       10.3960    -1.0180    -1.4090 H     1 <1>   0.1430 
 50 H       11.2470    -1.1110     0.8930 H     1 <1>   0.1430 
@<TRIPOS>BOND
  1   1   2  2   
  2   2   3  am  
  3   2   4  am  
  4   3   5  am  
  5   3   6  1   
  6   4   7  1   
  7   4   8  1   
  8   5   9  2   
  9   5  10  1   
 10   6  11  1   
 11   6  12  1   
 12   6  29  1   
 13   7  10  2   
 14   7  13  1   
 15   8  30  1   
 16   8  31  1   
 17   8  32  1   
 18  10  14  1   
 19  11  15  2   
 20  11  16  1   
 21  12  33  1   
 22  12  34  1   
 23  12  35  1   
 24  13  17  ar  
 25  13  36  1   
 26  14  17  ar  
 27  14  18  1   
 28  16  37  1   
 29  16  38  1   
 30  16  39  1   
 31  17  19  ar  
 32  18  20  2   
 33  18  21  1   
 34  19  20  1   
 35  19  22  1   
 36  20  23  1   
 37  21  40  1   
 38  21  41  1   
 39  21  42  1   
 40  22  24  ar  
 41  22  25  ar  
 42  23  43  1   
 43  23  44  1   
 44  23  45  1   
 45  24  26  ar  
 46  24  46  1   
 47  25  27  ar  
 48  25  47  1   
 49  26  28  ar  
 50  26  48  1   
 51  27  28  ar  
 52  27  49  1   
 53  28  50  1   
@<TRIPOS>SUBSTRUCTURE
  1 ****  10 GROUP 4 **** **** 0

# MOE 2024.06 (io_trps.svl 2023.06)
