@<TRIPOS>MOLECULE
1-(4-Ethyl-phenyl)-5-oxo-pyrrolidine-3-carboxylic acid (5-chloro-2-methoxy-pheny
47 49 1 0 0 
SMALL
USER_CHARGES


@<TRIPOS>ATOM
  1 CL       0.0430     0.1780    -1.1120 Cl    1 <1>  -0.1770 
  2 C       -1.4990     0.8740    -0.6770 C.ar  1 <1>   0.1770 
  3 C       -2.5780     0.0430    -0.4540 C.ar  1 <1>  -0.1500 
  4 C       -1.6070     2.2460    -0.5650 C.ar  1 <1>  -0.1500 
  5 C       -3.8100     0.5870    -0.1080 C.ar  1 <1>   0.1170 
  6 C       -2.8270     2.8020    -0.2200 C.ar  1 <1>  -0.1500 
  7 N       -4.9590    -0.1880     0.1370 N.am  1 <1>  -0.5470 
  8 C       -3.9280     1.9790     0.0090 C.ar  1 <1>   0.0830 
  9 C       -5.2200    -1.5270     0.0710 C.2   1 <1>   0.5690 
 10 O       -5.1590     2.4690     0.3510 O.3   1 <1>  -0.3630 
 11 O       -4.3930    -2.3550    -0.2230 O.2   1 <1>  -0.5700 
 12 C       -6.6310    -1.9860     0.4080 C.3   1 <1>  -0.0190 
 13 C       -5.3880     3.8570     0.4730 C.3   1 <1>   0.0400 
 14 C       -6.9190    -3.4430     0.0160 C.3   1 <1>   0.1400 
 15 C       -7.7420    -1.1800    -0.2840 C.3   1 <1>  -0.0990 
 16 N       -8.3630    -3.4670    -0.2960 N.am  1 <1>  -0.4770 
 17 C       -8.8330    -2.1970    -0.4710 C.2   1 <1>   0.5690 
 18 C       -9.0750    -4.6840    -0.3410 C.ar  1 <1>   0.1170 
 19 O       -9.9610    -1.8620    -0.7330 O.2   1 <1>  -0.5700 
 20 C       -8.4730    -5.8470    -0.8130 C.ar  1 <1>  -0.1500 
 21 C      -10.3930    -4.7640     0.0960 C.ar  1 <1>  -0.1500 
 22 C       -9.1620    -7.0470    -0.8400 C.ar  1 <1>  -0.1500 
 23 C      -11.0850    -5.9610     0.0680 C.ar  1 <1>  -0.1500 
 24 C      -10.4730    -7.1130    -0.3990 C.ar  1 <1>  -0.1430 
 25 C      -11.2320    -8.4300    -0.4290 C.3   1 <1>  -0.0170 
 26 C      -11.0320    -9.1950     0.8810 C.3   1 <1>  -0.2400 
 27 H       -2.4400    -1.0160    -0.5530 H     1 <1>   0.1500 
 28 H       -0.7470     2.8660    -0.7450 H     1 <1>   0.1500 
 29 H       -2.8930     3.8710    -0.1360 H     1 <1>   0.1500 
 30 H       -5.7460     0.4080     0.4010 H     1 <1>   0.3700 
 31 H       -6.7580    -1.9090     1.4720 H     1 <1>   0.0800 
 32 H       -6.4190     4.0050     0.7390 H     1 <1>   0.0800 
 33 H       -5.1840     4.3300    -0.4710 H     1 <1>   0.0800 
 34 H       -4.7530     4.2500     1.2480 H     1 <1>   0.0800 
 35 H       -6.6840    -4.1200     0.8190 H     1 <1>   0.0800 
 36 H       -6.3700    -3.7230    -0.8680 H     1 <1>   0.0800 
 37 H       -7.4350    -0.8310    -1.2530 H     1 <1>   0.0800 
 38 H       -8.0840    -0.3580     0.3180 H     1 <1>   0.0800 
 39 H       -7.4610    -5.8220    -1.1690 H     1 <1>   0.1500 
 40 H      -10.8860    -3.8810     0.4620 H     1 <1>   0.1500 
 41 H       -8.6730    -7.9320    -1.2070 H     1 <1>   0.1500 
 42 H      -12.1030    -5.9920     0.4140 H     1 <1>   0.1500 
 43 H      -10.8870    -9.0280    -1.2540 H     1 <1>   0.0800 
 44 H      -12.2800    -8.2400    -0.5810 H     1 <1>   0.0800 
 45 H       -9.9880    -9.4030     1.0320 H     1 <1>   0.0800 
 46 H      -11.5720   -10.1240     0.8540 H     1 <1>   0.0800 
 47 H      -11.3900    -8.6090     1.7090 H     1 <1>   0.0800 
@<TRIPOS>BOND
  1   1   2  1   
  2   2   3  ar  
  3   2   4  ar  
  4   3   5  ar  
  5   3  27  1   
  6   4   6  ar  
  7   4  28  1   
  8   5   7  1   
  9   5   8  ar  
 10   6   8  ar  
 11   6  29  1   
 12   7   9  am  
 13   7  30  1   
 14   8  10  1   
 15   9  11  2   
 16   9  12  1   
 17  10  13  1   
 18  12  14  1   
 19  12  15  1   
 20  12  31  1   
 21  13  32  1   
 22  13  33  1   
 23  13  34  1   
 24  14  16  1   
 25  14  35  1   
 26  14  36  1   
 27  15  17  1   
 28  15  37  1   
 29  15  38  1   
 30  16  17  am  
 31  16  18  1   
 32  17  19  2   
 33  18  20  ar  
 34  18  21  ar  
 35  20  22  ar  
 36  20  39  1   
 37  21  23  ar  
 38  21  40  1   
 39  22  24  ar  
 40  22  41  1   
 41  23  24  ar  
 42  23  42  1   
 43  24  25  1   
 44  25  26  1   
 45  25  43  1   
 46  25  44  1   
 47  26  45  1   
 48  26  46  1   
 49  26  47  1   
@<TRIPOS>SUBSTRUCTURE
  1 ****  12 GROUP 4 **** **** 0

# MOE 2024.06 (io_trps.svl 2023.06)
