@<TRIPOS>MOLECULE
NONAME
50 52 1 0 0 
SMALL
USER_CHARGES


@<TRIPOS>ATOM
  1 O        2.4770    -1.8950     2.6550 O.2   1 <1>  -0.5700 
  2 C        3.1160    -0.9200     2.3420 C.2   1 <1>   0.5690 
  3 N        3.3480     0.1360     3.1630 N.am  1 <1>  -0.5390 
  4 C        3.8010    -0.6660     0.9870 C.3   1 <1>   0.4810 
  5 C        4.1680     1.0520     2.5580 C.2   1 <1>  -0.0290 
  6 C        4.7550    -1.8190     0.6250 C.2   1 <1>  -0.1240 
  7 C        2.7240    -0.4130    -0.0750 C.ar  1 <1>  -0.1440 
  8 C        4.4920     0.6730     1.2960 C.2   1 <1>  -0.1240 
  9 C        4.5810     2.2760     3.3540 C.3   1 <1>  -0.1020 
 10 C        4.5540    -2.4930    -0.5500 C.2   1 <1>   0.1770 
 11 C        5.7840    -2.0960     1.5710 C.2   1 <1>   0.7060 
 12 C        2.6850    -1.2010    -1.2150 C.ar  1 <1>   0.0830 
 13 C        1.7810     0.6000     0.0660 C.ar  1 <1>  -0.1500 
 14 C        5.2980     1.2900     0.2920 C.2   1 <1>   0.7060 
 15 O        3.5730    -2.1980    -1.4070 O.3   1 <1>  -0.1590 
 16 N        5.3080    -3.5330    -1.0070 N.pl3 1 <1>  -0.9000 
 17 O        5.9810    -1.4340     2.5760 O.2   1 <1>  -0.5700 
 18 O        6.6120    -3.1380     1.3720 O.3   1 <1>  -0.4300 
 19 C        1.7300    -0.9860    -2.1960 C.ar  1 <1>  -0.1500 
 20 C        0.8260     0.8180    -0.9130 C.ar  1 <1>  -0.1500 
 21 O        5.7850     2.3940     0.4220 O.2   1 <1>  -0.5700 
 22 O        5.5020     0.6040    -0.8360 O.3   1 <1>  -0.4300 
 23 C        7.6440    -3.4580     2.2880 C.3   1 <1>   0.0400 
 24 C        0.8000     0.0250    -2.0460 C.ar  1 <1>  -0.1500 
 25 C        6.2080     0.9950    -1.9910 C.3   1 <1>   0.2800 
 26 C        5.5480     2.2270    -2.6170 C.3   1 <1>  -0.2400 
 27 C        7.6860     1.2220    -1.6530 C.3   1 <1>  -0.2400 
 28 C        6.0840    -0.1890    -2.9500 C.3   1 <1>  -0.2400 
 29 H        3.0310     0.1290     4.1350 H     1 <1>   0.3700 
 30 H        3.7110     2.8430     3.6330 H     1 <1>   0.0800 
 31 H        5.2330     2.9130     2.7870 H     1 <1>   0.0800 
 32 H        5.1010     1.9710     4.2440 H     1 <1>   0.0800 
 33 H        1.7770     1.2330     0.9380 H     1 <1>   0.1500 
 34 H        6.0760    -3.9270    -0.4490 H     1 <1>   0.4000 
 35 H        5.0790    -4.0340    -1.8700 H     1 <1>   0.4000 
 36 H        1.7190    -1.6110    -3.0710 H     1 <1>   0.1500 
 37 H        0.1020     1.6050    -0.7920 H     1 <1>   0.1500 
 38 H        8.3170    -2.6210     2.3610 H     1 <1>   0.0800 
 39 H        8.1680    -4.3230     1.9240 H     1 <1>   0.0800 
 40 H        7.2050    -3.6670     3.2480 H     1 <1>   0.0800 
 41 H        0.0570     0.1930    -2.8060 H     1 <1>   0.1500 
 42 H        5.6750     3.0940    -1.9950 H     1 <1>   0.0800 
 43 H        4.4980     2.0510    -2.7690 H     1 <1>   0.0800 
 44 H        5.9990     2.4410    -3.5680 H     1 <1>   0.0800 
 45 H        8.0910     0.3620    -1.1520 H     1 <1>   0.0800 
 46 H        7.8120     2.0880    -1.0300 H     1 <1>   0.0800 
 47 H        8.2460     1.3870    -2.5550 H     1 <1>   0.0800 
 48 H        5.0500    -0.3770    -3.1770 H     1 <1>   0.0800 
 49 H        6.5100    -1.0730    -2.5110 H     1 <1>   0.0800 
 50 H        6.6010     0.0170    -3.8690 H     1 <1>   0.0800 
@<TRIPOS>BOND
  1   1   2  2   
  2   2   3  am  
  3   2   4  1   
  4   3   5  1   
  5   3  29  1   
  6   4   6  1   
  7   4   7  1   
  8   4   8  1   
  9   5   8  2   
 10   5   9  1   
 11   6  10  2   
 12   6  11  1   
 13   7  12  ar  
 14   7  13  ar  
 15   8  14  1   
 16   9  30  1   
 17   9  31  1   
 18   9  32  1   
 19  10  15  1   
 20  10  16  1   
 21  11  17  2   
 22  11  18  1   
 23  12  15  1   
 24  12  19  ar  
 25  13  20  ar  
 26  13  33  1   
 27  14  21  2   
 28  14  22  1   
 29  16  34  1   
 30  16  35  1   
 31  18  23  1   
 32  19  24  ar  
 33  19  36  1   
 34  20  24  ar  
 35  20  37  1   
 36  22  25  1   
 37  23  38  1   
 38  23  39  1   
 39  23  40  1   
 40  24  41  1   
 41  25  26  1   
 42  25  27  1   
 43  25  28  1   
 44  26  42  1   
 45  26  43  1   
 46  26  44  1   
 47  27  45  1   
 48  27  46  1   
 49  27  47  1   
 50  28  48  1   
 51  28  49  1   
 52  28  50  1   
@<TRIPOS>SUBSTRUCTURE
  1 ****   4 GROUP 4 **** **** 0

# MOE 2024.06 (io_trps.svl 2023.06)
