@<TRIPOS>MOLECULE
2-(4-Bromo-phenyl)-thiazolidine-3,4-dicarboxylic acid 3-tert-butyl ester
39 40 1 0 0 
SMALL
USER_CHARGES


@<TRIPOS>ATOM
  1 BR       1.1190    -0.1760     1.7810 Br    1 <1>  -0.1110 
  2 C        2.0150     1.3210     0.9670 C.ar  1 <1>   0.1110 
  3 C        2.0090     2.5380     1.6180 C.ar  1 <1>  -0.1500 
  4 C        2.6440     1.1400    -0.2490 C.ar  1 <1>  -0.1500 
  5 C        2.6550     3.6090     1.0270 C.ar  1 <1>  -0.1500 
  6 C        3.2870     2.2210    -0.8290 C.ar  1 <1>  -0.1500 
  7 C        3.2990     3.4630    -0.2000 C.ar  1 <1>  -0.1430 
  8 C        4.0270     4.6240    -0.8870 C.3   1 <1>   0.5940 
  9 S        5.7720     4.5090    -0.4630 S.3   1 <1>  -0.4600 
 10 N        3.6460     5.9640    -0.4210 N.am  1 <1>  -0.6600 
 11 C        5.6980     5.6570     0.9210 C.3   1 <1>   0.0700 
 12 C        2.5180     6.5460    -0.8970 C.2   1 <1>   0.7800 
 13 C        4.6210     6.6610     0.5190 C.3   1 <1>   0.1140 
 14 O        1.7690     5.9690    -1.6640 O.2   1 <1>  -0.5700 
 15 O        2.2750     7.7940    -0.5080 O.3   1 <1>  -0.4300 
 16 C        4.0600     7.3190     1.7930 C.2   1 <1>   0.9060 
 17 C        1.0820     8.5260    -0.6300 C.3   1 <1>   0.2800 
 18 O        3.3190     6.6770     2.5500 O.co2 1 <1>  -0.9000 
 19 O        4.4370     8.4650     2.0730 O.co2 1 <1>  -0.9000 
 20 C        1.3450     9.8280     0.1250 C.3   1 <1>  -0.2400 
 21 C       -0.0630     7.7660     0.0480 C.3   1 <1>  -0.2400 
 22 C        0.7960     8.8320    -2.1040 C.3   1 <1>  -0.2400 
 23 H        1.5140     2.6550     2.5650 H     1 <1>   0.1500 
 24 H        2.6300     0.1780    -0.7280 H     1 <1>   0.1500 
 25 H        2.6500     4.5600     1.5340 H     1 <1>   0.1500 
 26 H        3.7840     2.0940    -1.7740 H     1 <1>   0.1500 
 27 H        3.9460     4.5560    -1.9580 H     1 <1>   0.0800 
 28 H        6.6590     6.1150     1.0670 H     1 <1>   0.0800 
 29 H        5.4020     5.0990     1.7920 H     1 <1>   0.0800 
 30 H        5.0940     7.4460    -0.0400 H     1 <1>   0.0800 
 31 H        1.6000     9.6120     1.1490 H     1 <1>   0.0800 
 32 H        0.4740    10.4570     0.1130 H     1 <1>   0.0800 
 33 H        2.1640    10.3610    -0.3240 H     1 <1>   0.0800 
 34 H       -0.3070     6.8710    -0.4920 H     1 <1>   0.0800 
 35 H       -0.9430     8.3810     0.0860 H     1 <1>   0.0800 
 36 H        0.2180     7.5050     1.0540 H     1 <1>   0.0800 
 37 H        0.5490     7.9370    -2.6430 H     1 <1>   0.0800 
 38 H        1.6540     9.2940    -2.5590 H     1 <1>   0.0800 
 39 H       -0.0380     9.5040    -2.1820 H     1 <1>   0.0800 
@<TRIPOS>BOND
  1   1   2  1   
  2   2   3  ar  
  3   2   4  ar  
  4   3   5  ar  
  5   3  23  1   
  6   4   6  ar  
  7   4  24  1   
  8   5   7  ar  
  9   5  25  1   
 10   6   7  ar  
 11   6  26  1   
 12   7   8  1   
 13   8   9  1   
 14   8  10  1   
 15   8  27  1   
 16   9  11  1   
 17  10  12  am  
 18  10  13  1   
 19  11  13  1   
 20  11  28  1   
 21  11  29  1   
 22  12  14  2   
 23  12  15  1   
 24  13  16  1   
 25  13  30  1   
 26  15  17  1   
 27  16  18  ar  
 28  16  19  ar  
 29  17  20  1   
 30  17  21  1   
 31  17  22  1   
 32  20  31  1   
 33  20  32  1   
 34  20  33  1   
 35  21  34  1   
 36  21  35  1   
 37  21  36  1   
 38  22  37  1   
 39  22  38  1   
 40  22  39  1   
@<TRIPOS>SUBSTRUCTURE
  1 ****  10 GROUP 4 **** **** 0

# MOE 2024.06 (io_trps.svl 2023.06)
