@<TRIPOS>MOLECULE
2-(2-Methyl-3-oxo-2,3-dihydro-benzo[1,4]oxazin-4-yl)-propionic acid
29 30 1 0 0 
SMALL
USER_CHARGES


@<TRIPOS>ATOM
  1 O       -1.0350     0.0290    -1.5510 O.2   1 <1>  -0.5700 
  2 C       -1.7210     0.4640    -0.6480 C.2   1 <1>   0.5690 
  3 N       -2.9240    -0.0910    -0.2880 N.am  1 <1>  -0.4770 
  4 C       -1.2790     1.6950     0.1600 C.3   1 <1>   0.2610 
  5 C       -3.9240     0.7690     0.2250 C.ar  1 <1>   0.1170 
  6 C       -2.9160    -1.5530     0.1060 C.3   1 <1>   0.1140 
  7 O       -2.3580     2.6090     0.3440 O.3   1 <1>  -0.3630 
  8 C       -0.1210     2.4890    -0.4590 C.3   1 <1>  -0.2400 
  9 C       -3.6080     2.1020     0.5310 C.ar  1 <1>   0.0820 
 10 C       -5.2410     0.3540     0.4000 C.ar  1 <1>  -0.1500 
 11 C       -1.7650    -1.9680     1.0620 C.2   1 <1>   0.9060 
 12 C       -3.0140    -2.4110    -1.1690 C.3   1 <1>  -0.2400 
 13 C       -4.5740     2.9640     1.0190 C.ar  1 <1>  -0.1500 
 14 C       -6.2050     1.2180     0.8920 C.ar  1 <1>  -0.1500 
 15 O       -1.1300    -1.1050     1.6910 O.co2 1 <1>  -0.9000 
 16 O       -1.5460    -3.1750     1.2390 O.co2 1 <1>  -0.9000 
 17 C       -5.8730     2.5240     1.2060 C.ar  1 <1>  -0.1500 
 18 H       -0.9910     1.3510     1.1380 H     1 <1>   0.0800 
 19 H       -3.7940    -1.7530     0.6840 H     1 <1>   0.0800 
 20 H       -0.3970     2.8390    -1.4370 H     1 <1>   0.0800 
 21 H        0.7380     1.8480    -0.5540 H     1 <1>   0.0800 
 22 H        0.1370     3.3200     0.1710 H     1 <1>   0.0800 
 23 H       -5.5250    -0.6490     0.1420 H     1 <1>   0.1500 
 24 H       -2.1040    -2.3340    -1.7360 H     1 <1>   0.0800 
 25 H       -3.8450    -2.0970    -1.7720 H     1 <1>   0.0800 
 26 H       -3.1470    -3.4420    -0.8950 H     1 <1>   0.0800 
 27 H       -4.3030     3.9780     1.2500 H     1 <1>   0.1500 
 28 H       -7.2150     0.8730     1.0280 H     1 <1>   0.1500 
 29 H       -6.6200     3.1960     1.5900 H     1 <1>   0.1500 
@<TRIPOS>BOND
  1   1   2  2   
  2   2   3  am  
  3   2   4  1   
  4   3   5  1   
  5   3   6  1   
  6   4   7  1   
  7   4   8  1   
  8   4  18  1   
  9   5   9  ar  
 10   5  10  ar  
 11   6  11  1   
 12   6  12  1   
 13   6  19  1   
 14   7   9  1   
 15   8  20  1   
 16   8  21  1   
 17   8  22  1   
 18   9  13  ar  
 19  10  14  ar  
 20  10  23  1   
 21  11  15  ar  
 22  11  16  ar  
 23  12  24  1   
 24  12  25  1   
 25  12  26  1   
 26  13  17  ar  
 27  13  27  1   
 28  14  17  ar  
 29  14  28  1   
 30  17  29  1   
@<TRIPOS>SUBSTRUCTURE
  1 ****   3 GROUP 4 **** **** 0

# MOE 2024.06 (io_trps.svl 2023.06)
