@<TRIPOS>MOLECULE
1-Methanesulfonyl-piperidine-3-carboxylic acid (4-fluoro-phenyl)-amide
37 38 1 0 0 
SMALL
USER_CHARGES


@<TRIPOS>ATOM
  1 S        0.2460     0.0700     1.1980 S.o2  1 <1>   1.3330 
  2 O        0.7120     1.0970     2.1000 O.2   1 <1>  -0.6500 
  3 O       -0.8190    -0.8240     1.5880 O.2   1 <1>  -0.6500 
  4 N        1.5830    -0.8740     0.7560 N.am  1 <1>  -0.8490 
  5 C       -0.2520     0.8670    -0.3170 C.3   1 <1>  -0.1350 
  6 C        2.7480    -0.1000     0.3110 C.3   1 <1>   0.1960 
  7 C        1.2680    -2.0080    -0.1150 C.3   1 <1>   0.1960 
  8 C        3.9930    -0.9940     0.2500 C.3   1 <1>  -0.0190 
  9 C        2.4710    -2.9530    -0.2010 C.3   1 <1>  -0.1600 
 10 C        5.1860    -0.1860    -0.2360 C.2   1 <1>   0.5690 
 11 C        3.7420    -2.2190    -0.6500 C.3   1 <1>  -0.1600 
 12 O        5.0380     0.5470    -1.1840 O.2   1 <1>  -0.5700 
 13 N        6.3760    -0.3460     0.4200 N.am  1 <1>  -0.5470 
 14 C        7.6230     0.2660     0.2150 C.ar  1 <1>   0.1170 
 15 C        7.7570     1.5170    -0.3880 C.ar  1 <1>  -0.1500 
 16 C        8.7690    -0.3970     0.6500 C.ar  1 <1>  -0.1500 
 17 C        9.0050     2.0920    -0.5620 C.ar  1 <1>  -0.1500 
 18 C       10.0230     0.1650     0.4840 C.ar  1 <1>  -0.1500 
 19 C       10.1170     1.4030    -0.1210 C.ar  1 <1>   0.1900 
 20 F       11.2980     1.9390    -0.2810 F     1 <1>  -0.1900 
 21 H        0.5370     1.4860    -0.6950 H     1 <1>   0.0800 
 22 H       -1.1070     1.4870    -0.1310 H     1 <1>   0.0800 
 23 H       -0.5160     0.1390    -1.0570 H     1 <1>   0.0800 
 24 H        2.9360     0.7060     1.0030 H     1 <1>   0.0800 
 25 H        2.5560     0.3260    -0.6590 H     1 <1>   0.0800 
 26 H        1.0080    -1.6570    -1.1000 H     1 <1>   0.0800 
 27 H        0.4280    -2.5530     0.2850 H     1 <1>   0.0800 
 28 H        4.1920    -1.3320     1.2510 H     1 <1>   0.0800 
 29 H        2.2490    -3.7490    -0.8910 H     1 <1>   0.0800 
 30 H        2.6270    -3.3960     0.7670 H     1 <1>   0.0800 
 31 H        4.5850    -2.8870    -0.6090 H     1 <1>   0.0800 
 32 H        3.6250    -1.8940    -1.6700 H     1 <1>   0.0800 
 33 H        6.3720    -1.0530     1.1520 H     1 <1>   0.3700 
 34 H        6.8870     2.0520    -0.7230 H     1 <1>   0.1500 
 35 H        8.6840    -1.3620     1.1170 H     1 <1>   0.1500 
 36 H        9.1130     3.0540    -1.0290 H     1 <1>   0.1500 
 37 H       10.9130    -0.3410     0.8140 H     1 <1>   0.1500 
@<TRIPOS>BOND
  1   1   2  2   
  2   1   3  2   
  3   1   4  am  
  4   1   5  1   
  5   4   6  1   
  6   4   7  1   
  7   5  21  1   
  8   5  22  1   
  9   5  23  1   
 10   6   8  1   
 11   6  24  1   
 12   6  25  1   
 13   7   9  1   
 14   7  26  1   
 15   7  27  1   
 16   8  10  1   
 17   8  11  1   
 18   8  28  1   
 19   9  11  1   
 20   9  29  1   
 21   9  30  1   
 22  10  12  2   
 23  10  13  am  
 24  11  31  1   
 25  11  32  1   
 26  13  14  1   
 27  13  33  1   
 28  14  15  ar  
 29  14  16  ar  
 30  15  17  ar  
 31  15  34  1   
 32  16  18  ar  
 33  16  35  1   
 34  17  19  ar  
 35  17  36  1   
 36  18  19  ar  
 37  18  37  1   
 38  19  20  1   
@<TRIPOS>SUBSTRUCTURE
  1 ****  10 GROUP 4 **** **** 0

# MOE 2024.06 (io_trps.svl 2023.06)
