@<TRIPOS>MOLECULE
N-{1-[3-(2-Methoxy-phenyl)-[1,2,4]oxadiazol-5-yl]-ethyl}-isobutyramide
40 41 1 0 0 
SMALL
USER_CHARGES


@<TRIPOS>ATOM
  1 O       -1.5150    -0.1880    -0.5920 O.2   1 <1>  -0.5700 
  2 C       -2.7020    -0.1240    -0.3870 C.2   1 <1>   0.5690 
  3 N       -3.3630    -1.1170     0.2490 N.am  1 <1>  -0.7300 
  4 C       -3.4880     1.0980    -0.8660 C.3   1 <1>  -0.0190 
  5 C       -2.7920    -2.4370     0.5740 C.3   1 <1>   0.4000 
  6 C       -4.1200     1.8680     0.3050 C.3   1 <1>  -0.2400 
  7 C       -4.5690     0.7150    -1.8930 C.3   1 <1>  -0.2400 
  8 C       -3.8490    -3.5210     0.3570 C.2   1 <1>   0.2980 
  9 C       -2.3170    -2.4020     2.0260 C.3   1 <1>  -0.2400 
 10 O       -3.4560    -4.7650     0.2690 O.3   1 <1>  -0.0190 
 11 N       -5.1050    -3.3380     0.2490 N.2   1 <1>  -0.5650 
 12 N       -4.5530    -5.4310     0.0820 N.2   1 <1>  -0.4100 
 13 C       -5.5260    -4.5900     0.0540 C.2   1 <1>   0.4620 
 14 C       -6.9210    -4.9350    -0.1240 C.ar  1 <1>   0.0540 
 15 C       -7.7340    -4.3230    -1.0890 C.ar  1 <1>   0.0820 
 16 C       -7.4910    -5.9140     0.6890 C.ar  1 <1>  -0.1500 
 17 O       -7.1660    -3.3950    -1.9040 O.3   1 <1>  -0.3630 
 18 C       -9.0750    -4.6820    -1.2020 C.ar  1 <1>  -0.1500 
 19 C       -8.8210    -6.2690     0.5700 C.ar  1 <1>  -0.1500 
 20 C       -7.8890    -2.7270    -2.9130 C.3   1 <1>   0.0400 
 21 C       -9.6160    -5.6500    -0.3760 C.ar  1 <1>  -0.1500 
 22 H       -4.3850    -1.1030     0.3020 H     1 <1>   0.3700 
 23 H       -2.7870     1.7540    -1.3540 H     1 <1>   0.0800 
 24 H       -1.9560    -2.6320    -0.0760 H     1 <1>   0.0800 
 25 H       -4.8510     1.2630     0.8110 H     1 <1>   0.0800 
 26 H       -4.5990     2.7630    -0.0510 H     1 <1>   0.0800 
 27 H       -3.3580     2.1480     1.0120 H     1 <1>   0.0800 
 28 H       -5.3130     0.0770    -1.4480 H     1 <1>   0.0800 
 29 H       -4.1190     0.1900    -2.7180 H     1 <1>   0.0800 
 30 H       -5.0530     1.5970    -2.2730 H     1 <1>   0.0800 
 31 H       -3.1440    -2.2070     2.6850 H     1 <1>   0.0800 
 32 H       -1.5720    -1.6360     2.1470 H     1 <1>   0.0800 
 33 H       -1.8810    -3.3480     2.2900 H     1 <1>   0.0800 
 34 H       -6.8770    -6.4010     1.4270 H     1 <1>   0.1500 
 35 H       -9.7170    -4.2230    -1.9290 H     1 <1>   0.1500 
 36 H       -9.2380    -7.0260     1.2120 H     1 <1>   0.1500 
 37 H       -7.2180    -2.0510    -3.4110 H     1 <1>   0.0800 
 38 H       -8.6940    -2.1760    -2.4600 H     1 <1>   0.0800 
 39 H       -8.2620    -3.4530    -3.6140 H     1 <1>   0.0800 
 40 H      -10.6530    -5.9230    -0.4690 H     1 <1>   0.1500 
@<TRIPOS>BOND
  1   1   2  2   
  2   2   3  am  
  3   2   4  1   
  4   3   5  1   
  5   3  22  1   
  6   4   6  1   
  7   4   7  1   
  8   4  23  1   
  9   5   8  1   
 10   5   9  1   
 11   5  24  1   
 12   6  25  1   
 13   6  26  1   
 14   6  27  1   
 15   7  28  1   
 16   7  29  1   
 17   7  30  1   
 18   8  10  1   
 19   8  11  2   
 20   9  31  1   
 21   9  32  1   
 22   9  33  1   
 23  10  12  1   
 24  11  13  1   
 25  12  13  2   
 26  13  14  1   
 27  14  15  ar  
 28  14  16  ar  
 29  15  17  1   
 30  15  18  ar  
 31  16  19  ar  
 32  16  34  1   
 33  17  20  1   
 34  18  21  ar  
 35  18  35  1   
 36  19  21  ar  
 37  19  36  1   
 38  20  37  1   
 39  20  38  1   
 40  20  39  1   
 41  21  40  1   
@<TRIPOS>SUBSTRUCTURE
  1 ****  11 GROUP 4 **** **** 0

# MOE 2024.06 (io_trps.svl 2023.06)
