@<TRIPOS>MOLECULE
3-(2-Chloro-6-fluoro-benzyl)-1,7-dimethyl-8-(tetrahydro-furan-2-ylmethyl)-1H,8H-
53 57 1 0 0 
SMALL
USER_CHARGES


@<TRIPOS>ATOM
  1 CL      -0.6910    -3.6890    -2.3950 Cl    1 <1>  -0.1840 
  2 C       -0.2070    -3.9600    -0.7370 C.ar  1 <1>   0.1700 
  3 C        0.8970    -3.3100    -0.2000 C.ar  1 <1>  -0.1500 
  4 C       -0.9750    -4.8370     0.0120 C.ar  1 <1>  -0.1570 
  5 C        1.1810    -3.5760     1.1340 C.ar  1 <1>   0.1830 
  6 C        1.7490    -2.3560    -1.0380 C.3   1 <1>   0.2780 
  7 C       -0.6570    -5.0830     1.3370 C.ar  1 <1>  -0.1570 
  8 F        2.2020    -2.9980     1.7100 F     1 <1>  -0.1970 
  9 C        0.4300    -4.4440     1.9070 C.ar  1 <1>  -0.1570 
 10 N        3.1780    -2.7780    -1.0280 N.am  1 <1>  -0.4250 
 11 C        3.5130    -4.0080    -1.5770 C.2   1 <1>   0.6870 
 12 C        4.1090    -2.0230    -0.3320 C.2   1 <1>   0.7000 
 13 O        2.7500    -4.5620    -2.3400 O.2   1 <1>  -0.5740 
 14 N        4.7310    -4.5980    -1.2650 N.am  1 <1>  -0.4410 
 15 O        3.8730    -0.8690    -0.0120 O.2   1 <1>  -0.5740 
 16 C        5.3540    -2.6380    -0.0190 C.2   1 <1>   0.2710 
 17 C        5.6130    -3.8870    -0.4760 C.2   1 <1>   0.4210 
 18 C        5.0780    -5.9540    -1.7820 C.3   1 <1>   0.0530 
 19 N        6.4910    -2.2390     0.7010 N.pl3 1 <1>  -0.6330 
 20 N        6.8500    -4.2680    -0.0520 N.pl3 1 <1>  -0.7030 
 21 C        7.3500    -3.2480     0.6450 C.cat 1 <1>   1.0690 
 22 C        7.0970    -1.2380     1.4330 C.2   1 <1>   0.2230 
 23 N        8.4880    -2.9710     1.2970 N.pl3 1 <1>  -0.5720 
 24 C        8.3200    -1.6860     1.7990 C.2   1 <1>   0.1580 
 25 C        9.6440    -3.8960     1.5220 C.3   1 <1>   0.1610 
 26 C        9.3840    -0.9780     2.6170 C.3   1 <1>  -0.1090 
 27 C       10.2480    -4.4610     0.2210 C.3   1 <1>   0.1930 
 28 O        9.3170    -5.2330    -0.4740 O.3   1 <1>  -0.5640 
 29 C       11.4120    -5.4120     0.4600 C.3   1 <1>  -0.1670 
 30 C        9.9820    -6.0910    -1.3510 C.3   1 <1>   0.1130 
 31 C       11.3640    -6.3300    -0.7500 C.3   1 <1>  -0.1670 
 32 H       -1.8180    -5.3240    -0.4450 H     1 <1>   0.1430 
 33 H        1.6390    -1.3610    -0.6430 H     1 <1>   0.0730 
 34 H        1.4170    -2.3270    -2.0590 H     1 <1>   0.0730 
 35 H       -1.2530    -5.7650     1.9200 H     1 <1>   0.1430 
 36 H        0.6920    -4.6160     2.9360 H     1 <1>   0.1430 
 37 H        4.1830    -6.5240    -1.9680 H     1 <1>   0.0730 
 38 H        5.6730    -6.4900    -1.0650 H     1 <1>   0.0730 
 39 H        5.6250    -5.8610    -2.7040 H     1 <1>   0.0730 
 40 H        7.4710    -5.0350    -0.3420 H     1 <1>   0.4450 
 41 H        6.6120    -0.2940     1.6340 H     1 <1>   0.1430 
 42 H        9.3250    -4.7130     2.1460 H     1 <1>   0.0730 
 43 H       10.4210    -3.3740     2.0510 H     1 <1>   0.0730 
 44 H        9.5960    -1.5330     3.5130 H     1 <1>   0.0730 
 45 H        9.0480     0.0050     2.8970 H     1 <1>   0.0730 
 46 H       10.2880    -0.8780     2.0430 H     1 <1>   0.0730 
 47 H       10.5640    -3.6600    -0.4270 H     1 <1>   0.0730 
 48 H       11.2520    -5.9840     1.3580 H     1 <1>   0.0730 
 49 H       12.3490    -4.8880     0.5380 H     1 <1>   0.0730 
 50 H       10.0580    -5.6050    -2.3100 H     1 <1>   0.0730 
 51 H        9.4190    -7.0040    -1.4430 H     1 <1>   0.0730 
 52 H       11.4920    -7.3610    -0.4680 H     1 <1>   0.0730 
 53 H       12.1230    -6.0710    -1.4670 H     1 <1>   0.0730 
@<TRIPOS>BOND
  1   1   2  1   
  2   2   3  ar  
  3   2   4  ar  
  4   3   5  ar  
  5   3   6  1   
  6   4   7  ar  
  7   4  32  1   
  8   5   8  1   
  9   5   9  ar  
 10   6  10  1   
 11   6  33  1   
 12   6  34  1   
 13   7   9  ar  
 14   7  35  1   
 15   9  36  1   
 16  10  11  am  
 17  10  12  am  
 18  11  13  2   
 19  11  14  am  
 20  12  15  2   
 21  12  16  1   
 22  14  17  1   
 23  14  18  1   
 24  16  17  2   
 25  16  19  1   
 26  17  20  1   
 27  18  37  1   
 28  18  38  1   
 29  18  39  1   
 30  19  21  ar  
 31  19  22  1   
 32  20  21  ar  
 33  20  40  1   
 34  21  23  ar  
 35  22  24  2   
 36  22  41  1   
 37  23  24  1   
 38  23  25  1   
 39  24  26  1   
 40  25  27  1   
 41  25  42  1   
 42  25  43  1   
 43  26  44  1   
 44  26  45  1   
 45  26  46  1   
 46  27  28  1   
 47  27  29  1   
 48  27  47  1   
 49  28  30  1   
 50  29  31  1   
 51  29  48  1   
 52  29  49  1   
 53  30  31  1   
 54  30  50  1   
 55  30  51  1   
 56  31  52  1   
 57  31  53  1   
@<TRIPOS>SUBSTRUCTURE
  1 ****  17 GROUP 4 **** **** 0

# MOE 2024.06 (io_trps.svl 2023.06)
