@<TRIPOS>MOLECULE
2-(4-Amino-6-oxo-5-phenyl-1,6-dihydro-pyrimidin-2-ylsulfanyl)-N-cyclopentyl-acet
44 46 1 0 0 
SMALL
USER_CHARGES


@<TRIPOS>ATOM
  1 S        0.6710     0.8500    -0.0680 S.3   1 <1>  -0.3710 
  2 C       -0.9840     1.4780    -0.0800 C.2   1 <1>   0.6410 
  3 C        1.5800     2.0120    -1.2150 C.3   1 <1>   0.1310 
  4 N       -1.8520     0.7880     0.6940 N.pl3 1 <1>  -0.5500 
  5 N       -1.2640     2.5000    -0.7850 N.2   1 <1>  -0.6610 
  6 C        3.0500     1.6440    -1.3570 C.2   1 <1>   0.5690 
  7 C       -3.1450     1.1560     0.7750 C.2   1 <1>   0.2000 
  8 C       -2.5670     2.9220    -0.7350 C.2   1 <1>   0.7670 
  9 O        3.7480     2.3200    -2.0740 O.2   1 <1>  -0.5700 
 10 N        3.5400     0.5740    -0.6820 N.am  1 <1>  -0.7300 
 11 N       -3.9380     0.3790     1.5510 N.pl3 1 <1>  -0.9000 
 12 C       -3.5510     2.2660     0.0620 C.2   1 <1>  -0.0140 
 13 O       -2.8370     3.9000    -1.4230 O.2   1 <1>  -0.5700 
 14 C        4.9250     0.0850    -0.7070 C.3   1 <1>   0.2200 
 15 C       -4.9080     2.7460     0.1160 C.ar  1 <1>   0.0280 
 16 C        4.9140    -1.3780    -1.1300 C.3   1 <1>  -0.1600 
 17 C        5.4460     0.0320     0.7230 C.3   1 <1>  -0.1600 
 18 C       -5.6950     2.8390    -1.0330 C.ar  1 <1>  -0.1500 
 19 C       -5.4890     3.1250     1.3270 C.ar  1 <1>  -0.1500 
 20 C        4.5490    -2.1720     0.1300 C.3   1 <1>  -0.1600 
 21 C        4.8910    -1.2660     1.3210 C.3   1 <1>  -0.1600 
 22 C       -7.0040     3.2790    -0.9740 C.ar  1 <1>  -0.1500 
 23 C       -6.7980     3.5660     1.3920 C.ar  1 <1>  -0.1500 
 24 C       -7.5600     3.6420     0.2400 C.ar  1 <1>  -0.1500 
 25 H        1.4840     3.0020    -0.8110 H     1 <1>   0.0800 
 26 H        1.0930     1.9640    -2.1720 H     1 <1>   0.0800 
 27 H       -1.4980    -0.0160     1.2060 H     1 <1>   0.4000 
 28 H        2.9070     0.0350    -0.0880 H     1 <1>   0.3700 
 29 H       -4.9480     0.5580     1.6220 H     1 <1>   0.4000 
 30 H       -3.6320    -0.4620     2.0480 H     1 <1>   0.4000 
 31 H        5.5370     0.6980    -1.3500 H     1 <1>   0.0800 
 32 H        5.9090    -1.6490    -1.4380 H     1 <1>   0.0800 
 33 H        4.2410    -1.5600    -1.9490 H     1 <1>   0.0800 
 34 H        5.1710     0.9050     1.2890 H     1 <1>   0.0800 
 35 H        6.5200    -0.0300     0.6900 H     1 <1>   0.0800 
 36 H       -5.2710     2.5670    -1.9840 H     1 <1>   0.1500 
 37 H       -4.9020     3.0760     2.2280 H     1 <1>   0.1500 
 38 H        5.0960    -3.0990     0.1710 H     1 <1>   0.0800 
 39 H        3.4950    -2.3920     0.1320 H     1 <1>   0.0800 
 40 H        3.9980    -1.0570     1.8850 H     1 <1>   0.0800 
 41 H        5.6130    -1.7270     1.9730 H     1 <1>   0.0800 
 42 H       -7.5900     3.3430    -1.8740 H     1 <1>   0.1500 
 43 H       -7.2250     3.8540     2.3370 H     1 <1>   0.1500 
 44 H       -8.5790     3.9850     0.2860 H     1 <1>   0.1500 
@<TRIPOS>BOND
  1   1   2  1   
  2   1   3  1   
  3   2   4  1   
  4   2   5  2   
  5   3   6  1   
  6   3  25  1   
  7   3  26  1   
  8   4   7  1   
  9   4  27  1   
 10   5   8  1   
 11   6   9  2   
 12   6  10  am  
 13   7  11  1   
 14   7  12  2   
 15   8  12  1   
 16   8  13  2   
 17  10  14  1   
 18  10  28  1   
 19  11  29  1   
 20  11  30  1   
 21  12  15  1   
 22  14  16  1   
 23  14  17  1   
 24  14  31  1   
 25  15  18  ar  
 26  15  19  ar  
 27  16  20  1   
 28  16  32  1   
 29  16  33  1   
 30  17  21  1   
 31  17  34  1   
 32  17  35  1   
 33  18  22  ar  
 34  18  36  1   
 35  19  23  ar  
 36  19  37  1   
 37  20  21  1   
 38  20  38  1   
 39  20  39  1   
 40  21  40  1   
 41  21  41  1   
 42  22  24  ar  
 43  22  42  1   
 44  23  24  ar  
 45  23  43  1   
 46  24  44  1   
@<TRIPOS>SUBSTRUCTURE
  1 ****   2 GROUP 4 **** **** 0

# MOE 2024.06 (io_trps.svl 2023.06)
