@<TRIPOS>MOLECULE
3-Amino-4-methoxymethyl-6-methyl-thieno[2,3-b]pyridine-2-carboxylic acid (2-morp
53 56 1 0 0 
SMALL
USER_CHARGES


@<TRIPOS>ATOM
  1 S        0.0650    -0.1910     0.3230 S.3   1 <1>  -0.0800 
  2 C       -1.3560     0.8310     0.1370 C.ar  1 <1>   0.2970 
  3 C        1.1810     1.1410    -0.0750 C.2   1 <1>  -0.0450 
  4 N       -2.5690     0.3450     0.3350 N.ar  1 <1>  -0.5670 
  5 C       -0.9830     2.1180    -0.2340 C.ar  1 <1>   0.0000 
  6 C        0.4550     2.2780    -0.2990 C.2   1 <1>   0.0830 
  7 C        2.5830     0.8790    -0.0860 C.2   1 <1>   0.7150 
  8 C       -3.5260     1.2290     0.1350 C.ar  1 <1>   0.1670 
  9 C       -2.0240     3.0180    -0.4760 C.ar  1 <1>  -0.1440 
 10 N        1.0010     3.5300    -0.5150 N.pl3 1 <1>  -0.8830 
 11 O        3.0640    -0.1580     0.3430 O.2   1 <1>  -0.5700 
 12 N        3.4090     1.8450    -0.5850 N.am  1 <1>  -0.5470 
 13 C       -3.3060     2.5440    -0.2670 C.ar  1 <1>  -0.1500 
 14 C       -4.9390     0.7320     0.3630 C.3   1 <1>  -0.0970 
 15 C       -1.8240     4.4430    -0.9810 C.3   1 <1>   0.2630 
 16 C        4.6440     2.2620    -0.0750 C.ar  1 <1>   0.1170 
 17 O       -1.2090     5.2110     0.0110 O.3   1 <1>  -0.5600 
 18 C        4.7950     3.6100     0.2870 C.ar  1 <1>   0.1000 
 19 C        5.7060     1.3830     0.0690 C.ar  1 <1>  -0.1500 
 20 C       -1.0010     6.5410    -0.3450 C.3   1 <1>   0.0400 
 21 N        3.7130     4.5070     0.1760 N.pl3 1 <1>  -0.8380 
 22 C        6.0270     4.0370     0.7650 C.ar  1 <1>  -0.1500 
 23 C        6.9250     1.8240     0.5550 C.ar  1 <1>  -0.1500 
 24 C        3.1930     5.1070     1.4530 C.3   1 <1>   0.2090 
 25 C        3.7520     5.4600    -0.9820 C.3   1 <1>   0.2090 
 26 C        7.0850     3.1540     0.9000 C.ar  1 <1>  -0.1500 
 27 C        3.6550     6.5600     1.6740 C.3   1 <1>   0.1200 
 28 C        4.1990     6.8750    -0.5730 C.3   1 <1>   0.1200 
 29 O        3.4630     7.3330     0.5240 O.3   1 <1>  -0.5600 
 30 H        0.3430     4.3070    -0.3210 H     1 <1>   0.4000 
 31 H        1.9310     3.7670    -0.1130 H     1 <1>   0.4000 
 32 H        2.8750     2.6290    -0.9630 H     1 <1>   0.3700 
 33 H       -4.1490     3.1920    -0.4190 H     1 <1>   0.1500 
 34 H       -5.1400    -0.0900    -0.2980 H     1 <1>   0.0800 
 35 H       -5.6600     1.5080     0.1850 H     1 <1>   0.0800 
 36 H       -5.0380     0.3910     1.3780 H     1 <1>   0.0800 
 37 H       -2.7700     4.8960    -1.2230 H     1 <1>   0.0800 
 38 H       -1.1980     4.4380    -1.8570 H     1 <1>   0.0800 
 39 H        5.5750     0.3490    -0.2000 H     1 <1>   0.1500 
 40 H       -0.5110     7.0350     0.4760 H     1 <1>   0.0800 
 41 H       -1.9500     7.0120    -0.5340 H     1 <1>   0.0800 
 42 H       -0.3730     6.5860    -1.2190 H     1 <1>   0.0800 
 43 H        6.1640     5.0650     1.0360 H     1 <1>   0.1500 
 44 H        7.7420     1.1320     0.6630 H     1 <1>   0.1500 
 45 H        3.5070     4.5050     2.2880 H     1 <1>   0.0800 
 46 H        2.1170     5.0940     1.4370 H     1 <1>   0.0800 
 47 H        2.7710     5.5220    -1.4200 H     1 <1>   0.0800 
 48 H        4.4210     5.0830    -1.7370 H     1 <1>   0.0800 
 49 H        8.0330     3.5000     1.2750 H     1 <1>   0.1500 
 50 H        4.6950     6.5920     1.9420 H     1 <1>   0.0800 
 51 H        3.0860     7.0080     2.4690 H     1 <1>   0.0800 
 52 H        4.0390     7.5610    -1.3860 H     1 <1>   0.0800 
 53 H        5.2440     6.8840    -0.3190 H     1 <1>   0.0800 
@<TRIPOS>BOND
  1   1   2  1   
  2   1   3  1   
  3   2   4  ar  
  4   2   5  ar  
  5   3   6  2   
  6   3   7  1   
  7   4   8  ar  
  8   5   6  1   
  9   5   9  ar  
 10   6  10  1   
 11   7  11  2   
 12   7  12  am  
 13   8  13  ar  
 14   8  14  1   
 15   9  13  ar  
 16   9  15  1   
 17  10  30  1   
 18  10  31  1   
 19  12  16  1   
 20  12  32  1   
 21  13  33  1   
 22  14  34  1   
 23  14  35  1   
 24  14  36  1   
 25  15  17  1   
 26  15  37  1   
 27  15  38  1   
 28  16  18  ar  
 29  16  19  ar  
 30  17  20  1   
 31  18  21  1   
 32  18  22  ar  
 33  19  23  ar  
 34  19  39  1   
 35  20  40  1   
 36  20  41  1   
 37  20  42  1   
 38  21  24  1   
 39  21  25  1   
 40  22  26  ar  
 41  22  43  1   
 42  23  26  ar  
 43  23  44  1   
 44  24  27  1   
 45  24  45  1   
 46  24  46  1   
 47  25  28  1   
 48  25  47  1   
 49  25  48  1   
 50  26  49  1   
 51  27  29  1   
 52  27  50  1   
 53  27  51  1   
 54  28  29  1   
 55  28  52  1   
 56  28  53  1   
@<TRIPOS>SUBSTRUCTURE
  1 ****  10 GROUP 4 **** **** 0

# MOE 2024.06 (io_trps.svl 2023.06)
