@<TRIPOS>MOLECULE
1-(2,5-Dichloro-benzenesulfonyl)-piperidine-3-carboxylic acid (2-hydroxy-ethyl)-
41 42 1 0 0 
SMALL
USER_CHARGES


@<TRIPOS>ATOM
  1 CL       0.1550     0.3220    -0.4080 Cl    1 <1>  -0.1770 
  2 C        0.7340     1.9690    -0.3560 C.ar  1 <1>   0.1770 
  3 C        1.5770     2.4260     0.6550 C.ar  1 <1>  -0.0090 
  4 C        0.3060     2.7900    -1.3880 C.ar  1 <1>  -0.1500 
  5 S        2.1800     1.3770     2.0080 S.o2  1 <1>   1.4470 
  6 C        1.9810     3.7580     0.5860 C.ar  1 <1>  -0.1500 
  7 C        0.7210     4.1090    -1.4370 C.ar  1 <1>  -0.1500 
  8 O        1.2070     0.3740     2.3710 O.2   1 <1>  -0.6500 
  9 O        2.6860     2.2560     3.0400 O.2   1 <1>  -0.6500 
 10 N        3.5400     0.5840     1.3680 N.am  1 <1>  -0.8490 
 11 C        1.5580     4.5770    -0.4440 C.ar  1 <1>   0.1770 
 12 C        4.6060     1.4920     0.9260 C.3   1 <1>   0.1960 
 13 C        3.2360    -0.4610     0.3890 C.3   1 <1>   0.1960 
 14 CL       2.0930     6.2350    -0.4890 Cl    1 <1>  -0.1770 
 15 C        5.9030     0.7170     0.6570 C.3   1 <1>  -0.0190 
 16 C        4.4890    -1.2970     0.1080 C.3   1 <1>  -0.1600 
 17 C        6.9800     1.6730     0.1680 C.2   1 <1>   0.5690 
 18 C        5.6620    -0.4200    -0.3530 C.3   1 <1>  -0.1600 
 19 O        6.7000     2.5060    -0.6600 O.2   1 <1>  -0.5700 
 20 N        8.2370     1.5600     0.6680 N.am  1 <1>  -0.7300 
 21 C        9.3640     2.4550     0.3030 C.3   1 <1>   0.1400 
 22 C       10.0940     1.9130    -0.9290 C.3   1 <1>   0.1200 
 23 O       11.1260     2.7770    -1.2670 O.3   1 <1>  -0.6800 
 24 H       -0.3470     2.3960    -2.1470 H     1 <1>   0.1500 
 25 H        2.6310     4.1700     1.3400 H     1 <1>   0.1500 
 26 H        0.4040     4.7650    -2.2280 H     1 <1>   0.1500 
 27 H        4.8000     2.2280     1.6900 H     1 <1>   0.0800 
 28 H        4.2980     2.0080     0.0310 H     1 <1>   0.0800 
 29 H        2.8870    -0.0180    -0.5280 H     1 <1>   0.0800 
 30 H        2.4640    -1.1100     0.7730 H     1 <1>   0.0800 
 31 H        6.2240     0.2930     1.5910 H     1 <1>   0.0800 
 32 H        4.2650    -2.0290    -0.6470 H     1 <1>   0.0800 
 33 H        4.7570    -1.8250     1.0070 H     1 <1>   0.0800 
 34 H        6.5510    -1.0190    -0.4520 H     1 <1>   0.0800 
 35 H        5.4350     0.0020    -1.3180 H     1 <1>   0.0800 
 36 H        8.4540     0.8240     1.3430 H     1 <1>   0.3700 
 37 H       10.0470     2.5240     1.1310 H     1 <1>   0.0800 
 38 H        8.9770     3.4370     0.0870 H     1 <1>   0.0800 
 39 H        9.4260     1.8400    -1.7700 H     1 <1>   0.0800 
 40 H       10.5270     0.9510    -0.7190 H     1 <1>   0.0800 
 41 H       10.7670     3.6110    -1.6300 H     1 <1>   0.4000 
@<TRIPOS>BOND
  1   1   2  1   
  2   2   3  ar  
  3   2   4  ar  
  4   3   5  1   
  5   3   6  ar  
  6   4   7  ar  
  7   4  24  1   
  8   5   8  2   
  9   5   9  2   
 10   5  10  am  
 11   6  11  ar  
 12   6  25  1   
 13   7  11  ar  
 14   7  26  1   
 15  10  12  1   
 16  10  13  1   
 17  11  14  1   
 18  12  15  1   
 19  12  27  1   
 20  12  28  1   
 21  13  16  1   
 22  13  29  1   
 23  13  30  1   
 24  15  17  1   
 25  15  18  1   
 26  15  31  1   
 27  16  18  1   
 28  16  32  1   
 29  16  33  1   
 30  17  19  2   
 31  17  20  am  
 32  18  34  1   
 33  18  35  1   
 34  20  21  1   
 35  20  36  1   
 36  21  22  1   
 37  21  37  1   
 38  21  38  1   
 39  22  23  1   
 40  22  39  1   
 41  22  40  1   
 42  23  41  1   
@<TRIPOS>SUBSTRUCTURE
  1 ****  12 GROUP 4 **** **** 0

# MOE 2024.06 (io_trps.svl 2023.06)
