@<TRIPOS>MOLECULE
1-Isopropyl-2,5-dimethyl-1H-pyrrole-3-carboxylic acid
27 27 1 0 0 
SMALL
USER_CHARGES


@<TRIPOS>ATOM
  1 O       -0.1420    -0.2780    -0.2800 O.co2 1 <1>  -0.9000 
  2 C        0.3690    -1.3280     0.1600 C.2   1 <1>   1.0330 
  3 O        1.4730    -1.2360     0.7310 O.co2 1 <1>  -0.9000 
  4 C       -0.3240    -2.6100     0.0020 C.2   1 <1>  -0.2330 
  5 C        0.0010    -3.9110     0.3240 C.2   1 <1>  -0.3320 
  6 C       -1.5990    -2.7020    -0.5830 C.2   1 <1>  -0.1500 
  7 N       -1.0080    -4.7670    -0.0260 N.pl3 1 <1>   0.0480 
  8 C        1.3000    -4.3740     0.9720 C.3   1 <1>  -0.0600 
  9 C       -1.9920    -3.9990    -0.5910 C.2   1 <1>  -0.3320 
 10 C       -0.9560    -6.2530     0.1640 C.3   1 <1>   0.1760 
 11 C       -3.3180    -4.4830    -1.1490 C.3   1 <1>  -0.0600 
 12 C       -0.6770    -6.9620    -1.1670 C.3   1 <1>  -0.2400 
 13 C       -2.2070    -6.8130     0.8550 C.3   1 <1>  -0.2400 
 14 H       -2.1290    -1.8380    -0.9480 H     1 <1>   0.1500 
 15 H        1.9850    -3.5580     1.0950 H     1 <1>   0.0800 
 16 H        1.7780    -5.1120     0.3570 H     1 <1>   0.0800 
 17 H        1.0990    -4.7850     1.9440 H     1 <1>   0.0800 
 18 H       -0.1320    -6.4630     0.8180 H     1 <1>   0.0800 
 19 H       -3.8150    -3.6720    -1.6500 H     1 <1>   0.0800 
 20 H       -3.9540    -4.8200    -0.3510 H     1 <1>   0.0800 
 21 H       -3.1690    -5.2740    -1.8580 H     1 <1>   0.0800 
 22 H       -1.4890    -6.8200    -1.8550 H     1 <1>   0.0800 
 23 H       -0.5450    -8.0150    -1.0030 H     1 <1>   0.0800 
 24 H        0.2230    -6.5670    -1.6030 H     1 <1>   0.0800 
 25 H       -3.0410    -6.8490     0.1810 H     1 <1>   0.0800 
 26 H       -2.4560    -6.2060     1.7070 H     1 <1>   0.0800 
 27 H       -2.0130    -7.8140     1.1930 H     1 <1>   0.0800 
@<TRIPOS>BOND
  1   1   2  ar  
  2   2   3  ar  
  3   2   4  1   
  4   4   5  2   
  5   4   6  1   
  6   5   7  1   
  7   5   8  1   
  8   6   9  2   
  9   6  14  1   
 10   7   9  1   
 11   7  10  1   
 12   8  15  1   
 13   8  16  1   
 14   8  17  1   
 15   9  11  1   
 16  10  12  1   
 17  10  13  1   
 18  10  18  1   
 19  11  19  1   
 20  11  20  1   
 21  11  21  1   
 22  12  22  1   
 23  12  23  1   
 24  12  24  1   
 25  13  25  1   
 26  13  26  1   
 27  13  27  1   
@<TRIPOS>SUBSTRUCTURE
  1 ****   5 GROUP 4 **** **** 0

# MOE 2024.06 (io_trps.svl 2023.06)
