@<TRIPOS>MOLECULE
8-Ethylamino-7-(2-hydroxy-3-m-tolyloxy-propyl)-3-methyl-3,7-dihydro-purine-2,6-d
51 53 1 0 0 
SMALL
USER_CHARGES


@<TRIPOS>ATOM
  1 O        1.1190     0.1010    -0.7400 O.2   1 <1>  -0.5750 
  2 C        2.1540     0.7200    -0.6660 C.2   1 <1>   0.6860 
  3 N        3.3610     0.1130    -0.3480 N.am  1 <1>  -0.4420 
  4 N        2.1270     2.0640    -0.9030 N.am  1 <1>  -0.4950 
  5 C        4.4900     0.9170    -0.2840 C.2   1 <1>   0.4200 
  6 C        3.4400    -1.3540    -0.0840 C.3   1 <1>   0.0520 
  7 C        3.2270     2.8690    -0.8420 C.2   1 <1>   0.6990 
  8 N        5.7640     0.5440     0.0130 N.pl3 1 <1>  -0.7040 
  9 C        4.4790     2.2490    -0.5180 C.2   1 <1>   0.2700 
 10 O        3.1030     4.0590    -1.0500 O.2   1 <1>  -0.5750 
 11 C        6.5350     1.6260    -0.0310 C.cat 1 <1>   1.0690 
 12 N        5.8060     2.6940    -0.3630 N.pl3 1 <1>  -0.7670 
 13 N        7.8340     1.6310     0.2420 N.pl3 1 <1>  -0.7180 
 14 C        6.2600     4.0740    -0.7350 C.3   1 <1>   0.3480 
 15 C        8.7170     0.4950     0.5710 C.3   1 <1>   0.1600 
 16 C        6.1930     5.0810     0.4330 C.3   1 <1>   0.1930 
 17 C       10.1140     0.8080     0.0530 C.3   1 <1>  -0.2470 
 18 O        6.6490     6.3110    -0.0220 O.3   1 <1>  -0.6840 
 19 C        7.0230     4.6580     1.6590 C.3   1 <1>   0.1120 
 20 O        8.3100     4.1930     1.2660 O.3   1 <1>  -0.3680 
 21 C        9.2410     5.0560     0.7950 C.ar  1 <1>   0.0750 
 22 C        9.9990     4.6590    -0.2970 C.ar  1 <1>  -0.1570 
 23 C        9.4370     6.3140     1.3520 C.ar  1 <1>  -0.1570 
 24 C       10.9320     5.5170    -0.8510 C.ar  1 <1>  -0.1510 
 25 C       10.3670     7.1730     0.7960 C.ar  1 <1>  -0.1570 
 26 C       11.1090     6.7760    -0.3030 C.ar  1 <1>  -0.1570 
 27 C       11.7630     5.0950    -2.0500 C.3   1 <1>  -0.1040 
 28 H        1.2260     2.4810    -1.1310 H     1 <1>   0.3640 
 29 H        2.4900    -1.8290    -0.2650 H     1 <1>   0.0720 
 30 H        3.7130    -1.5270     0.9430 H     1 <1>   0.0720 
 31 H        4.1700    -1.8060    -0.7320 H     1 <1>   0.0720 
 32 H        6.0930    -0.3880     0.2470 H     1 <1>   0.4450 
 33 H        8.2710     2.5490     0.4030 H     1 <1>   0.4450 
 34 H        5.6420     4.4440    -1.5360 H     1 <1>   0.0720 
 35 H        7.2690     4.0270    -1.1060 H     1 <1>   0.0720 
 36 H        8.3560    -0.4110     0.1130 H     1 <1>   0.0720 
 37 H        8.7500     0.3590     1.6400 H     1 <1>   0.0720 
 38 H        5.1650     5.2260     0.7190 H     1 <1>   0.0720 
 39 H       10.1020     0.9680    -1.0110 H     1 <1>   0.0720 
 40 H       10.7670    -0.0220     0.2580 H     1 <1>   0.0720 
 41 H       10.5190     1.6740     0.5470 H     1 <1>   0.0720 
 42 H        7.6320     6.3590     0.0020 H     1 <1>   0.3940 
 43 H        6.5350     3.8390     2.1560 H     1 <1>   0.0720 
 44 H        7.1160     5.4610     2.3680 H     1 <1>   0.0720 
 45 H        9.8640     3.6840    -0.7220 H     1 <1>   0.1430 
 46 H        8.8840     6.6370     2.2150 H     1 <1>   0.1430 
 47 H       10.5200     8.1500     1.2200 H     1 <1>   0.1430 
 48 H       11.8300     7.4530    -0.7280 H     1 <1>   0.1430 
 49 H       11.6770     4.0390    -2.2290 H     1 <1>   0.0720 
 50 H       12.7990     5.3260    -1.8780 H     1 <1>   0.0720 
 51 H       11.4320     5.6230    -2.9270 H     1 <1>   0.0720 
@<TRIPOS>BOND
  1   1   2  2   
  2   2   3  am  
  3   2   4  am  
  4   3   5  1   
  5   3   6  1   
  6   4   7  am  
  7   4  28  1   
  8   5   8  1   
  9   5   9  2   
 10   6  29  1   
 11   6  30  1   
 12   6  31  1   
 13   7   9  1   
 14   7  10  2   
 15   8  11  ar  
 16   8  32  1   
 17   9  12  1   
 18  11  12  ar  
 19  11  13  ar  
 20  12  14  1   
 21  13  15  1   
 22  13  33  1   
 23  14  16  1   
 24  14  34  1   
 25  14  35  1   
 26  15  17  1   
 27  15  36  1   
 28  15  37  1   
 29  16  18  1   
 30  16  19  1   
 31  16  38  1   
 32  17  39  1   
 33  17  40  1   
 34  17  41  1   
 35  18  42  1   
 36  19  20  1   
 37  19  43  1   
 38  19  44  1   
 39  20  21  1   
 40  21  22  ar  
 41  21  23  ar  
 42  22  24  ar  
 43  22  45  1   
 44  23  25  ar  
 45  23  46  1   
 46  24  26  ar  
 47  24  27  1   
 48  25  26  ar  
 49  25  47  1   
 50  26  48  1   
 51  27  49  1   
 52  27  50  1   
 53  27  51  1   
@<TRIPOS>SUBSTRUCTURE
  1 ****  12 GROUP 4 **** **** 0

# MOE 2024.06 (io_trps.svl 2023.06)
