@<TRIPOS>MOLECULE
(2-Methoxy-ethyl)-(5-morpholin-4-yl-1,2,3,4-tetrahydro-7-thia-6,9,11-triaza-benz
54 58 1 0 0 
SMALL
USER_CHARGES


@<TRIPOS>ATOM
  1 S       -0.6120    -0.2820    -0.7420 S.3   1 <1>  -0.0800 
  2 C       -2.0800     0.6720    -0.4990 C.ar  1 <1>   0.2970 
  3 C        0.4080     1.1550    -0.6090 C.ar  1 <1>   0.0400 
  4 N       -3.2460     0.0830    -0.5150 N.ar  1 <1>  -0.5670 
  5 C       -1.7810     2.0190    -0.3080 C.ar  1 <1>   0.0000 
  6 C        1.7960     1.2190    -0.7110 C.ar  1 <1>   0.4100 
  7 C       -0.3650     2.2630    -0.3930 C.ar  1 <1>   0.3070 
  8 C       -4.2680     0.9050    -0.3230 C.ar  1 <1>   0.4100 
  9 C       -2.8670     2.8730    -0.0820 C.ar  1 <1>  -0.1430 
 10 N        2.4030     2.4110    -0.5940 N.ar  1 <1>  -0.6200 
 11 N        2.5560     0.1300    -0.9210 N.pl3 1 <1>  -0.8690 
 12 N        0.3080     3.4390    -0.3010 N.ar  1 <1>  -0.1250 
 13 N       -5.5080     0.3110    -0.3180 N.pl3 1 <1>  -0.8380 
 14 C       -4.1250     2.2930    -0.1140 C.ar  1 <1>  -0.1430 
 15 C       -2.6810     4.3710     0.1780 C.3   1 <1>  -0.0170 
 16 C        1.6600     3.4640    -0.4020 C.ar  1 <1>   0.5210 
 17 C        4.0380     0.0890    -1.0940 C.3   1 <1>   0.2090 
 18 C       -5.8930    -0.5830    -1.4540 C.3   1 <1>   0.2090 
 19 C       -6.0570    -0.1550     0.9890 C.3   1 <1>   0.2090 
 20 C       -5.3960     3.1270     0.0760 C.3   1 <1>  -0.0170 
 21 C       -3.9370     5.0520     0.7300 C.3   1 <1>  -0.1600 
 22 C        4.7170    -0.3220     0.2120 C.3   1 <1>   0.1200 
 23 C       -5.6840    -2.0690    -1.1050 C.3   1 <1>   0.1200 
 24 C       -5.8200    -1.6630     1.1910 C.3   1 <1>   0.1200 
 25 C       -5.1640     4.6320    -0.0750 C.3   1 <1>  -0.1600 
 26 O        6.0890    -0.4000    -0.0100 O.3   1 <1>  -0.5600 
 27 O       -6.3120    -2.3970     0.1040 O.3   1 <1>  -0.5600 
 28 C        6.8260    -0.7560     1.1150 C.3   1 <1>   0.0400 
 29 H        2.1100    -0.7910    -1.0050 H     1 <1>   0.4000 
 30 H       -0.2110     4.3060    -0.1630 H     1 <1>   0.4570 
 31 H       -2.4180     4.8510    -0.7490 H     1 <1>   0.0800 
 32 H       -1.8990     4.5290     0.8970 H     1 <1>   0.0800 
 33 H        2.1540     4.4210    -0.3190 H     1 <1>   0.1500 
 34 H        4.4080     1.0540    -1.3950 H     1 <1>   0.0800 
 35 H        4.2840    -0.6230    -1.8640 H     1 <1>   0.0800 
 36 H       -5.3090    -0.3370    -2.3230 H     1 <1>   0.0800 
 37 H       -6.9290    -0.4200    -1.6950 H     1 <1>   0.0800 
 38 H       -7.1130     0.0450     1.0220 H     1 <1>   0.0800 
 39 H       -5.5900     0.3870     1.7930 H     1 <1>   0.0800 
 40 H       -5.7900     2.9260     1.0570 H     1 <1>   0.0800 
 41 H       -6.1420     2.8260    -0.6400 H     1 <1>   0.0800 
 42 H       -3.8220     6.1220     0.6880 H     1 <1>   0.0800 
 43 H       -4.0780     4.7730     1.7610 H     1 <1>   0.0800 
 44 H        4.3670    -1.2890     0.5290 H     1 <1>   0.0800 
 45 H        4.5320     0.4150     0.9730 H     1 <1>   0.0800 
 46 H       -4.6340    -2.2880    -1.0190 H     1 <1>   0.0800 
 47 H       -6.1050    -2.6920    -1.8730 H     1 <1>   0.0800 
 48 H       -6.3290    -2.0040     2.0740 H     1 <1>   0.0800 
 49 H       -4.7680    -1.8660     1.2950 H     1 <1>   0.0800 
 50 H       -6.0330     5.1640     0.2700 H     1 <1>   0.0800 
 51 H       -5.0190     4.8700    -1.1150 H     1 <1>   0.0800 
 52 H        7.8650    -0.7880     0.8380 H     1 <1>   0.0800 
 53 H        6.5110    -1.7280     1.4540 H     1 <1>   0.0800 
 54 H        6.6800    -0.0190     1.8850 H     1 <1>   0.0800 
@<TRIPOS>BOND
  1   1   2  1   
  2   1   3  1   
  3   2   4  ar  
  4   2   5  ar  
  5   3   6  ar  
  6   3   7  ar  
  7   4   8  ar  
  8   5   7  1   
  9   5   9  ar  
 10   6  10  ar  
 11   6  11  1   
 12   7  12  ar  
 13   8  13  1   
 14   8  14  ar  
 15   9  14  ar  
 16   9  15  1   
 17  10  16  ar  
 18  11  17  1   
 19  11  29  1   
 20  12  16  ar  
 21  12  30  1   
 22  13  18  1   
 23  13  19  1   
 24  14  20  1   
 25  15  21  1   
 26  15  31  1   
 27  15  32  1   
 28  16  33  1   
 29  17  22  1   
 30  17  34  1   
 31  17  35  1   
 32  18  23  1   
 33  18  36  1   
 34  18  37  1   
 35  19  24  1   
 36  19  38  1   
 37  19  39  1   
 38  20  25  1   
 39  20  40  1   
 40  20  41  1   
 41  21  25  1   
 42  21  42  1   
 43  21  43  1   
 44  22  26  1   
 45  22  44  1   
 46  22  45  1   
 47  23  27  1   
 48  23  46  1   
 49  23  47  1   
 50  24  27  1   
 51  24  48  1   
 52  24  49  1   
 53  25  50  1   
 54  25  51  1   
 55  26  28  1   
 56  28  52  1   
 57  28  53  1   
 58  28  54  1   
@<TRIPOS>SUBSTRUCTURE
  1 ****   2 GROUP 4 **** **** 0

# MOE 2024.06 (io_trps.svl 2023.06)
