@<TRIPOS>MOLECULE
2,2-Dimethyl-5-oxo-tetrahydro-furan-3-carboxylic acid tert-butylamide
34 34 1 0 0 
SMALL
USER_CHARGES


@<TRIPOS>ATOM
  1 O       -0.4150     1.6340    -1.5400 O.2   1 <1>  -0.5700 
  2 C       -1.5360     1.5770    -1.1150 C.2   1 <1>   0.6590 
  3 O       -2.5430     1.0410    -1.7740 O.3   1 <1>  -0.4300 
  4 C       -1.9570     2.0490     0.2470 C.3   1 <1>  -0.0990 
  5 C       -3.7310     1.0080    -1.0310 C.3   1 <1>   0.2800 
  6 C       -3.4860     1.9810     0.1490 C.3   1 <1>  -0.0190 
  7 C       -3.8900    -0.4350    -0.5360 C.3   1 <1>  -0.2400 
  8 C       -4.8810     1.3600    -1.9830 C.3   1 <1>  -0.2400 
  9 C       -4.1000     3.3580    -0.0790 C.2   1 <1>   0.5690 
 10 O       -3.5420     4.1380    -0.8110 O.2   1 <1>  -0.5700 
 11 N       -5.2660     3.6480     0.5620 N.am  1 <1>  -0.7300 
 12 C       -6.0750     4.8680     0.4770 C.3   1 <1>   0.3000 
 13 C       -6.5440     5.0780    -0.9630 C.3   1 <1>  -0.2400 
 14 C       -7.2860     4.6480     1.3820 C.3   1 <1>  -0.2400 
 15 C       -5.2680     6.0630     0.9840 C.3   1 <1>  -0.2400 
 16 H       -1.5820     3.0380     0.4430 H     1 <1>   0.0800 
 17 H       -1.5810     1.3620     0.9810 H     1 <1>   0.0800 
 18 H       -3.8950     1.5840     1.0590 H     1 <1>   0.0800 
 19 H       -3.0650    -0.7210     0.0920 H     1 <1>   0.0800 
 20 H       -3.9370    -1.1100    -1.3720 H     1 <1>   0.0800 
 21 H       -4.7990    -0.5360     0.0280 H     1 <1>   0.0800 
 22 H       -4.7080     2.3100    -2.4570 H     1 <1>   0.0800 
 23 H       -5.8120     1.4060    -1.4480 H     1 <1>   0.0800 
 24 H       -4.9680     0.6130    -2.7520 H     1 <1>   0.0800 
 25 H       -5.6790     2.9500     1.1760 H     1 <1>   0.3700 
 26 H       -7.0710     4.2120    -1.3200 H     1 <1>   0.0800 
 27 H       -5.7080     5.2700    -1.6110 H     1 <1>   0.0800 
 28 H       -7.2030     5.9250    -1.0180 H     1 <1>   0.0800 
 29 H       -6.9760     4.4870     2.3990 H     1 <1>   0.0800 
 30 H       -7.8630     3.8040     1.0470 H     1 <1>   0.0800 
 31 H       -7.9220     5.5150     1.3610 H     1 <1>   0.0800 
 32 H       -4.9070     5.8810     1.9790 H     1 <1>   0.0800 
 33 H       -5.8820     6.9450     0.9990 H     1 <1>   0.0800 
 34 H       -4.4300     6.2570     0.3380 H     1 <1>   0.0800 
@<TRIPOS>BOND
  1   1   2  2   
  2   2   3  1   
  3   2   4  1   
  4   3   5  1   
  5   4   6  1   
  6   4  16  1   
  7   4  17  1   
  8   5   6  1   
  9   5   7  1   
 10   5   8  1   
 11   6   9  1   
 12   6  18  1   
 13   7  19  1   
 14   7  20  1   
 15   7  21  1   
 16   8  22  1   
 17   8  23  1   
 18   8  24  1   
 19   9  10  2   
 20   9  11  am  
 21  11  12  1   
 22  11  25  1   
 23  12  13  1   
 24  12  14  1   
 25  12  15  1   
 26  13  26  1   
 27  13  27  1   
 28  13  28  1   
 29  14  29  1   
 30  14  30  1   
 31  14  31  1   
 32  15  32  1   
 33  15  33  1   
 34  15  34  1   
@<TRIPOS>SUBSTRUCTURE
  1 ****   9 GROUP 4 **** **** 0

# MOE 2024.06 (io_trps.svl 2023.06)
