@<TRIPOS>MOLECULE
1-(2,5-Dimethoxy-benzenesulfonyl)-piperidine-4-carboxylic acid (3-methoxy-propyl
55 56 1 0 0 
SMALL
USER_CHARGES


@<TRIPOS>ATOM
  1 S       -0.1640    -0.1540     1.4930 S.o2  1 <1>   1.4470 
  2 O        0.0180    -1.3350     2.3120 O.2   1 <1>  -0.6500 
  3 O       -0.5430     1.0700     2.1690 O.2   1 <1>  -0.6500 
  4 N        1.3330     0.1430     0.7490 N.am  1 <1>  -0.8490 
  5 C       -1.2800    -0.5950     0.1320 C.ar  1 <1>  -0.0090 
  6 C        2.4080     0.1670     1.7460 C.3   1 <1>   0.1960 
  7 C        1.3140     1.3700    -0.0560 C.3   1 <1>   0.1960 
  8 C       -2.0210     0.3540    -0.5710 C.ar  1 <1>   0.0830 
  9 C       -1.4030    -1.9250    -0.2550 C.ar  1 <1>  -0.1500 
 10 C        3.7720     0.3170     1.0680 C.3   1 <1>  -0.1600 
 11 C        2.6450     1.5550    -0.7890 C.3   1 <1>  -0.1600 
 12 O       -1.9200     1.6660    -0.2730 O.3   1 <1>  -0.3620 
 13 C       -2.8580    -0.0140    -1.6140 C.ar  1 <1>  -0.1500 
 14 C       -2.2440    -2.3070    -1.2960 C.ar  1 <1>   0.0830 
 15 C        3.8250     1.5790     0.1950 C.3   1 <1>  -0.0190 
 16 C       -2.9850     2.2250     0.4630 C.3   1 <1>   0.0400 
 17 C       -2.9710    -1.3430    -1.9720 C.ar  1 <1>  -0.1500 
 18 O       -2.4050    -3.5910    -1.7060 O.3   1 <1>  -0.3630 
 19 C        5.1680     1.7080    -0.5230 C.2   1 <1>   0.5690 
 20 C       -1.7070    -4.6490    -1.0850 C.3   1 <1>   0.0400 
 21 O        5.4740     0.9030    -1.3690 O.2   1 <1>  -0.5700 
 22 N        5.9910     2.7340    -0.1800 N.am  1 <1>  -0.7300 
 23 C        7.3350     2.9640    -0.7490 C.3   1 <1>   0.1400 
 24 C        8.3150     3.2390     0.3880 C.3   1 <1>  -0.1600 
 25 C        9.7290     3.4370    -0.1520 C.3   1 <1>   0.1200 
 26 O       10.5510     3.7300     0.9270 O.3   1 <1>  -0.5600 
 27 C       11.8870     3.9120     0.5880 C.3   1 <1>   0.0400 
 28 H        2.4060    -0.7550     2.3050 H     1 <1>   0.0800 
 29 H        2.2450     0.9770     2.4380 H     1 <1>   0.0800 
 30 H        1.1160     2.2220     0.5740 H     1 <1>   0.0800 
 31 H        0.5330     1.3080    -0.7930 H     1 <1>   0.0800 
 32 H       -0.8250    -2.6590     0.2760 H     1 <1>   0.1500 
 33 H        3.9560    -0.5540     0.4620 H     1 <1>   0.0800 
 34 H        4.5410     0.3610     1.8190 H     1 <1>   0.0800 
 35 H        2.6200     2.4730    -1.3480 H     1 <1>   0.0800 
 36 H        2.7690     0.7480    -1.4900 H     1 <1>   0.0800 
 37 H       -3.4120     0.7390    -2.1460 H     1 <1>   0.1500 
 38 H        3.7040     2.4330     0.8360 H     1 <1>   0.0800 
 39 H       -2.7490     3.2540     0.6670 H     1 <1>   0.0800 
 40 H       -3.0900     1.6870     1.3890 H     1 <1>   0.0800 
 41 H       -3.8890     2.1600    -0.1160 H     1 <1>   0.0800 
 42 H       -3.6180    -1.6410    -2.7780 H     1 <1>   0.1500 
 43 H       -1.9910    -5.5650    -1.5700 H     1 <1>   0.0800 
 44 H       -1.9800    -4.6860    -0.0450 H     1 <1>   0.0800 
 45 H       -0.6500    -4.4860    -1.2010 H     1 <1>   0.0800 
 46 H        5.7010     3.3990     0.5370 H     1 <1>   0.3700 
 47 H        7.2960     3.8050    -1.4210 H     1 <1>   0.0800 
 48 H        7.6500     2.0970    -1.3060 H     1 <1>   0.0800 
 49 H        8.3190     2.4030     1.0650 H     1 <1>   0.0800 
 50 H        8.0170     4.1270     0.9150 H     1 <1>   0.0800 
 51 H        9.7640     4.2610    -0.8450 H     1 <1>   0.0800 
 52 H       10.0860     2.5380    -0.6260 H     1 <1>   0.0800 
 53 H       12.4330     4.1340     1.4880 H     1 <1>   0.0800 
 54 H       11.9710     4.7360    -0.1000 H     1 <1>   0.0800 
 55 H       12.2690     3.0070     0.1470 H     1 <1>   0.0800 
@<TRIPOS>BOND
  1   1   2  2   
  2   1   3  2   
  3   1   4  am  
  4   1   5  1   
  5   4   6  1   
  6   4   7  1   
  7   5   8  ar  
  8   5   9  ar  
  9   6  10  1   
 10   6  28  1   
 11   6  29  1   
 12   7  11  1   
 13   7  30  1   
 14   7  31  1   
 15   8  12  1   
 16   8  13  ar  
 17   9  14  ar  
 18   9  32  1   
 19  10  15  1   
 20  10  33  1   
 21  10  34  1   
 22  11  15  1   
 23  11  35  1   
 24  11  36  1   
 25  12  16  1   
 26  13  17  ar  
 27  13  37  1   
 28  14  17  ar  
 29  14  18  1   
 30  15  19  1   
 31  15  38  1   
 32  16  39  1   
 33  16  40  1   
 34  16  41  1   
 35  17  42  1   
 36  18  20  1   
 37  19  21  2   
 38  19  22  am  
 39  20  43  1   
 40  20  44  1   
 41  20  45  1   
 42  22  23  1   
 43  22  46  1   
 44  23  24  1   
 45  23  47  1   
 46  23  48  1   
 47  24  25  1   
 48  24  49  1   
 49  24  50  1   
 50  25  26  1   
 51  25  51  1   
 52  25  52  1   
 53  26  27  1   
 54  27  53  1   
 55  27  54  1   
 56  27  55  1   
@<TRIPOS>SUBSTRUCTURE
  1 ****   7 GROUP 4 **** **** 0

# MOE 2024.06 (io_trps.svl 2023.06)
