@<TRIPOS>MOLECULE
N-[2-(4-Acetyl-piperazin-1-yl)-phenyl]-3,5-dimethoxy-benzamide
53 55 1 0 0 
SMALL
USER_CHARGES


@<TRIPOS>ATOM
  1 O        0.3120     0.1030     0.1360 O.2   1 <1>  -0.5700 
  2 C        0.1030     1.2990     0.0840 C.2   1 <1>   0.5440 
  3 N        1.1450     2.1820     0.1760 N.am  1 <1>  -0.5470 
  4 C       -1.2470     1.8160    -0.0920 C.ar  1 <1>   0.0860 
  5 C        2.5370     2.0910     0.3190 C.ar  1 <1>   0.1170 
  6 C       -2.2490     1.0130    -0.6360 C.ar  1 <1>  -0.1500 
  7 C       -1.5950     3.1250     0.2570 C.ar  1 <1>  -0.1500 
  8 C        3.2170     3.3150     0.3960 C.ar  1 <1>   0.1000 
  9 C        3.2490     0.9030     0.3820 C.ar  1 <1>  -0.1500 
 10 C       -3.5330     1.4820    -0.8430 C.ar  1 <1>   0.0830 
 11 C       -2.8800     3.6130     0.0490 C.ar  1 <1>   0.0830 
 12 N        2.4870     4.5160     0.3350 N.pl3 1 <1>  -0.8380 
 13 C        4.5980     3.3170     0.5320 C.ar  1 <1>  -0.1500 
 14 C        4.6280     0.9190     0.5200 C.ar  1 <1>  -0.1500 
 15 O       -4.4230     0.6120    -1.3810 O.3   1 <1>  -0.3620 
 16 C       -3.8470     2.7900    -0.5000 C.ar  1 <1>  -0.1500 
 17 O       -3.2670     4.8770     0.3550 O.3   1 <1>  -0.3620 
 18 C        2.5100     5.2770    -0.9410 C.3   1 <1>   0.2090 
 19 C        2.5320     5.4250     1.5120 C.3   1 <1>   0.2090 
 20 C        5.3020     2.1260     0.5940 C.ar  1 <1>  -0.1500 
 21 C       -5.7670     0.9810    -1.6030 C.3   1 <1>   0.0400 
 22 C       -2.3860     5.8110     0.9420 C.3   1 <1>   0.0400 
 23 C        1.2630     6.1750    -1.0320 C.3   1 <1>   0.1400 
 24 C        1.2860     6.3230     1.5170 C.3   1 <1>   0.1400 
 25 N        1.0500     7.0170     0.2000 N.am  1 <1>  -0.6600 
 26 C        0.5370     8.2870     0.1850 C.2   1 <1>   0.5690 
 27 O        0.2440     8.8670     1.2010 O.2   1 <1>  -0.5700 
 28 C        0.2930     9.0090    -1.1200 C.3   1 <1>  -0.1790 
 29 H        0.9030     3.1740     0.1310 H     1 <1>   0.3700 
 30 H       -2.0210    -0.0040    -0.9080 H     1 <1>   0.1500 
 31 H       -0.8530     3.7580     0.7000 H     1 <1>   0.1500 
 32 H        2.7340    -0.0380     0.3250 H     1 <1>   0.1500 
 33 H        5.1220     4.2520     0.5890 H     1 <1>   0.1500 
 34 H        5.1710    -0.0080     0.5690 H     1 <1>   0.1500 
 35 H       -4.8290     3.1950    -0.6470 H     1 <1>   0.1500 
 36 H        2.5270     4.5910    -1.7710 H     1 <1>   0.0800 
 37 H        3.3980     5.8830    -0.9860 H     1 <1>   0.0800 
 38 H        3.4170     6.0360     1.4700 H     1 <1>   0.0800 
 39 H        2.5660     4.8440     2.4180 H     1 <1>   0.0800 
 40 H        6.3730     2.1370     0.7010 H     1 <1>   0.1500 
 41 H       -6.2810     0.1340    -2.0210 H     1 <1>   0.0800 
 42 H       -5.7930     1.8030    -2.2960 H     1 <1>   0.0800 
 43 H       -6.2140     1.2530    -0.6640 H     1 <1>   0.0800 
 44 H       -2.9240     6.7280     1.0990 H     1 <1>   0.0800 
 45 H       -1.5640     5.9850     0.2720 H     1 <1>   0.0800 
 46 H       -2.0430     5.4260     1.8850 H     1 <1>   0.0800 
 47 H        0.4010     5.5460    -1.1730 H     1 <1>   0.0800 
 48 H        1.3600     6.7950    -1.9040 H     1 <1>   0.0800 
 49 H        1.3930     7.0500     2.3040 H     1 <1>   0.0800 
 50 H        0.4300     5.7180     1.7500 H     1 <1>   0.0800 
 51 H        1.2190     9.1290    -1.6490 H     1 <1>   0.0800 
 52 H       -0.1170     9.9820    -0.9230 H     1 <1>   0.0800 
 53 H       -0.4050     8.4580    -1.7210 H     1 <1>   0.0800 
@<TRIPOS>BOND
  1   1   2  2   
  2   2   3  am  
  3   2   4  1   
  4   3   5  1   
  5   3  29  1   
  6   4   6  ar  
  7   4   7  ar  
  8   5   8  ar  
  9   5   9  ar  
 10   6  10  ar  
 11   6  30  1   
 12   7  11  ar  
 13   7  31  1   
 14   8  12  1   
 15   8  13  ar  
 16   9  14  ar  
 17   9  32  1   
 18  10  15  1   
 19  10  16  ar  
 20  11  16  ar  
 21  11  17  1   
 22  12  18  1   
 23  12  19  1   
 24  13  20  ar  
 25  13  33  1   
 26  14  20  ar  
 27  14  34  1   
 28  15  21  1   
 29  16  35  1   
 30  17  22  1   
 31  18  23  1   
 32  18  36  1   
 33  18  37  1   
 34  19  24  1   
 35  19  38  1   
 36  19  39  1   
 37  20  40  1   
 38  21  41  1   
 39  21  42  1   
 40  21  43  1   
 41  22  44  1   
 42  22  45  1   
 43  22  46  1   
 44  23  25  1   
 45  23  47  1   
 46  23  48  1   
 47  24  25  1   
 48  24  49  1   
 49  24  50  1   
 50  25  26  am  
 51  26  27  2   
 52  26  28  1   
 53  28  51  1   
 54  28  52  1   
 55  28  53  1   
@<TRIPOS>SUBSTRUCTURE
  1 ****   3 GROUP 4 **** **** 0

# MOE 2024.06 (io_trps.svl 2023.06)
