@<TRIPOS>MOLECULE
N-[2-(4-Ethyl-piperazin-1-yl)-2-oxo-ethyl]-N-(4-phenoxy-phenyl)-methanesulfonami
57 59 1 0 0 
SMALL
USER_CHARGES


@<TRIPOS>ATOM
  1 S        0.6510     1.2850    -1.8220 S.o2  1 <1>   1.3330 
  2 O        1.1650     0.6010    -0.6600 O.2   1 <1>  -0.6500 
  3 O        1.5600     1.6320    -2.8880 O.2   1 <1>  -0.6500 
  4 N       -0.0420     2.7750    -1.2920 N.am  1 <1>  -0.6930 
  5 C       -0.7420     0.4120    -2.5070 C.3   1 <1>  -0.1350 
  6 C       -1.1700     2.7880    -0.4780 C.ar  1 <1>   0.1990 
  7 C        0.9020     3.9260    -1.1470 C.3   1 <1>   0.2570 
  8 C       -2.3430     3.3700    -0.9430 C.ar  1 <1>  -0.1500 
  9 C       -1.1550     2.2310     0.7960 C.ar  1 <1>  -0.1500 
 10 C        1.8120     3.8320     0.0900 C.2   1 <1>   0.5690 
 11 C       -3.4840     3.3860    -0.1590 C.ar  1 <1>  -0.1500 
 12 C       -2.2920     2.2430     1.5840 C.ar  1 <1>  -0.1500 
 13 O        1.4440     4.4090     1.0860 O.2   1 <1>  -0.5700 
 14 N        2.9980     3.1290     0.1060 N.am  1 <1>  -0.6600 
 15 C       -3.4610     2.8120     1.1060 C.ar  1 <1>   0.0830 
 16 C        3.7350     2.6320    -1.0980 C.3   1 <1>   0.1400 
 17 C        3.5470     2.6380     1.4100 C.3   1 <1>   0.1400 
 18 O       -4.5570     2.8110     1.9110 O.3   1 <1>  -0.1650 
 19 C        5.2550     2.8390    -0.9600 C.3   1 <1>   0.3430 
 20 C        5.0660     2.8550     1.5040 C.3   1 <1>   0.3430 
 21 C       -5.8000     2.5760     1.4220 C.ar  1 <1>   0.0830 
 22 N        5.7920     2.2650     0.3220 N.4   1 <1>  -0.9590 
 23 C       -6.0310     1.6610     0.4010 C.ar  1 <1>  -0.1500 
 24 C       -6.8630     3.2670     1.9820 C.ar  1 <1>  -0.1500 
 25 C        7.2630     2.4470     0.4080 C.3   1 <1>   0.3430 
 26 C       -7.3190     1.4550    -0.0640 C.ar  1 <1>  -0.1500 
 27 C       -8.1500     3.0580     1.5170 C.ar  1 <1>  -0.1500 
 28 C        7.8320     1.5390     1.4920 C.3   1 <1>  -0.2400 
 29 C       -8.3770     2.1540     0.4930 C.ar  1 <1>  -0.1500 
 30 H       -0.4250    -0.5280    -2.9120 H     1 <1>   0.0800 
 31 H       -1.1930     0.9900    -3.2900 H     1 <1>   0.0800 
 32 H       -1.4760     0.2280    -1.7470 H     1 <1>   0.0800 
 33 H        0.3230     4.8270    -1.0530 H     1 <1>   0.0800 
 34 H        1.4900     4.0270    -2.0390 H     1 <1>   0.0800 
 35 H       -2.3580     3.8140    -1.9210 H     1 <1>   0.1500 
 36 H       -0.2490     1.7940     1.1750 H     1 <1>   0.1500 
 37 H       -4.3850     3.8470    -0.5240 H     1 <1>   0.1500 
 38 H       -2.2770     1.8140     2.5700 H     1 <1>   0.1500 
 39 H        3.4040     3.1440    -1.9840 H     1 <1>   0.0800 
 40 H        3.5380     1.5820    -1.2280 H     1 <1>   0.0800 
 41 H        3.3230     1.5900     1.5080 H     1 <1>   0.0800 
 42 H        3.0750     3.1430     2.2360 H     1 <1>   0.0800 
 43 H        5.4600     3.8960    -0.9970 H     1 <1>   0.0800 
 44 H        5.7460     2.3770    -1.8020 H     1 <1>   0.0800 
 45 H        5.4220     2.4080     2.4180 H     1 <1>   0.0800 
 46 H        5.2560     3.9140     1.5580 H     1 <1>   0.0800 
 47 H        5.5940     1.2540     0.3120 H     1 <1>   0.4500 
 48 H       -5.2130     1.1090    -0.0250 H     1 <1>   0.1500 
 49 H       -6.6790     3.9660     2.7780 H     1 <1>   0.1500 
 50 H        7.5010     3.4780     0.6220 H     1 <1>   0.0800 
 51 H        7.7170     2.1860    -0.5360 H     1 <1>   0.0800 
 52 H       -7.5000     0.7480    -0.8550 H     1 <1>   0.1500 
 53 H       -8.9740     3.5980     1.9510 H     1 <1>   0.1500 
 54 H        7.4840     1.8230     2.4680 H     1 <1>   0.0800 
 55 H        8.9050     1.6240     1.4930 H     1 <1>   0.0800 
 56 H        7.5830     0.5110     1.3010 H     1 <1>   0.0800 
 57 H       -9.3780     1.9920     0.1320 H     1 <1>   0.1500 
@<TRIPOS>BOND
  1   1   2  2   
  2   1   3  2   
  3   1   4  am  
  4   1   5  1   
  5   4   6  1   
  6   4   7  1   
  7   5  30  1   
  8   5  31  1   
  9   5  32  1   
 10   6   8  ar  
 11   6   9  ar  
 12   7  10  1   
 13   7  33  1   
 14   7  34  1   
 15   8  11  ar  
 16   8  35  1   
 17   9  12  ar  
 18   9  36  1   
 19  10  13  2   
 20  10  14  am  
 21  11  15  ar  
 22  11  37  1   
 23  12  15  ar  
 24  12  38  1   
 25  14  16  1   
 26  14  17  1   
 27  15  18  1   
 28  16  19  1   
 29  16  39  1   
 30  16  40  1   
 31  17  20  1   
 32  17  41  1   
 33  17  42  1   
 34  18  21  1   
 35  19  22  1   
 36  19  43  1   
 37  19  44  1   
 38  20  22  1   
 39  20  45  1   
 40  20  46  1   
 41  21  23  ar  
 42  21  24  ar  
 43  22  25  1   
 44  22  47  1   
 45  23  26  ar  
 46  23  48  1   
 47  24  27  ar  
 48  24  49  1   
 49  25  28  1   
 50  25  50  1   
 51  25  51  1   
 52  26  29  ar  
 53  26  52  1   
 54  27  29  ar  
 55  27  53  1   
 56  28  54  1   
 57  28  55  1   
 58  28  56  1   
 59  29  57  1   
@<TRIPOS>SUBSTRUCTURE
  1 ****   6 GROUP 4 **** **** 0

# MOE 2024.06 (io_trps.svl 2023.06)
