@<TRIPOS>MOLECULE
8-Ethyl-1,7-dimethyl-3-(1-methyl-2-oxo-propyl)-1H,8H-imidazo[2,1-f]purine-2,4-di
43 45 1 0 0 
SMALL
USER_CHARGES


@<TRIPOS>ATOM
  1 O        0.5020     0.2400     0.2710 O.2   1 <1>  -0.5750 
  2 C        1.5150     0.8840     0.0850 C.2   1 <1>   0.6850 
  3 N        1.4490     2.1570    -0.4800 N.am  1 <1>  -0.4270 
  4 N        2.7420     0.3370     0.4440 N.am  1 <1>  -0.4430 
  5 C        2.6040     2.8780    -0.7410 C.2   1 <1>   0.6990 
  6 C        0.1490     2.9090    -0.4270 C.3   1 <1>   0.2730 
  7 C        3.8740     1.1050     0.2690 C.2   1 <1>   0.4190 
  8 C        2.8090    -1.0130     1.0790 C.3   1 <1>   0.0510 
  9 O        2.5640     3.9440    -1.3330 O.2   1 <1>  -0.5750 
 10 C        3.8460     2.3300    -0.3070 C.2   1 <1>   0.2690 
 11 C       -0.3420     2.9880     1.0300 C.2   1 <1>   0.4420 
 12 C       -0.8390     2.3520    -1.4690 C.3   1 <1>  -0.2480 
 13 N        5.1610     0.7970     0.6160 N.pl3 1 <1>  -0.7040 
 14 N        5.1720     2.7890    -0.3200 N.pl3 1 <1>  -0.6340 
 15 O        0.4360     3.2140     1.9110 O.2   1 <1>  -0.5750 
 16 C       -1.8130     2.7870     1.3400 C.3   1 <1>  -0.1870 
 17 C        5.9090     1.8440     0.2460 C.cat 1 <1>   1.0680 
 18 C        6.0280     3.8150    -0.6670 C.2   1 <1>   0.2210 
 19 N        7.2020     2.1890     0.2940 N.pl3 1 <1>  -0.5730 
 20 C        7.2730     3.4460    -0.2910 C.2   1 <1>   0.1560 
 21 C        8.3200     1.3880     0.8420 C.3   1 <1>   0.1590 
 22 C        8.5780     4.2060    -0.4420 C.3   1 <1>  -0.1110 
 23 C        8.8570     0.4610    -0.2450 C.3   1 <1>  -0.2480 
 24 H        0.3220     3.9310    -0.7120 H     1 <1>   0.0710 
 25 H        2.0130    -1.6390     0.7110 H     1 <1>   0.0710 
 26 H        2.7020    -0.9150     2.1460 H     1 <1>   0.0710 
 27 H        3.7420    -1.4950     0.8530 H     1 <1>   0.0710 
 28 H       -1.1700     1.3610    -1.2160 H     1 <1>   0.0710 
 29 H       -0.3770     2.3310    -2.4400 H     1 <1>   0.0710 
 30 H       -1.7040     2.9870    -1.5300 H     1 <1>   0.0710 
 31 H        5.5060    -0.0410     1.0760 H     1 <1>   0.4440 
 32 H       -2.1120     1.7900     1.0720 H     1 <1>   0.0710 
 33 H       -2.4100     3.5010     0.8030 H     1 <1>   0.0710 
 34 H       -1.9820     2.9210     2.3940 H     1 <1>   0.0710 
 35 H        5.6840     4.7180    -1.1490 H     1 <1>   0.1410 
 36 H        7.9780     0.8080     1.6830 H     1 <1>   0.0710 
 37 H        9.1040     2.0410     1.1870 H     1 <1>   0.0710 
 38 H        9.0090     4.4010     0.5240 H     1 <1>   0.0710 
 39 H        8.4090     5.1470    -0.9350 H     1 <1>   0.0710 
 40 H        9.2760     3.6350    -1.0280 H     1 <1>   0.0710 
 41 H        8.0980    -0.2240    -0.5790 H     1 <1>   0.0710 
 42 H        9.6770    -0.1140     0.1470 H     1 <1>   0.0710 
 43 H        9.2200     1.0300    -1.0830 H     1 <1>   0.0710 
@<TRIPOS>BOND
  1   1   2  2   
  2   2   3  am  
  3   2   4  am  
  4   3   5  am  
  5   3   6  1   
  6   4   7  1   
  7   4   8  1   
  8   5   9  2   
  9   5  10  1   
 10   6  11  1   
 11   6  12  1   
 12   6  24  1   
 13   7  10  2   
 14   7  13  1   
 15   8  25  1   
 16   8  26  1   
 17   8  27  1   
 18  10  14  1   
 19  11  15  2   
 20  11  16  1   
 21  12  28  1   
 22  12  29  1   
 23  12  30  1   
 24  13  17  ar  
 25  13  31  1   
 26  14  17  ar  
 27  14  18  1   
 28  16  32  1   
 29  16  33  1   
 30  16  34  1   
 31  17  19  ar  
 32  18  20  2   
 33  18  35  1   
 34  19  20  1   
 35  19  21  1   
 36  20  22  1   
 37  21  23  1   
 38  21  36  1   
 39  21  37  1   
 40  22  38  1   
 41  22  39  1   
 42  22  40  1   
 43  23  41  1   
 44  23  42  1   
 45  23  43  1   
@<TRIPOS>SUBSTRUCTURE
  1 ****  10 GROUP 4 **** **** 0

# MOE 2024.06 (io_trps.svl 2023.06)
