@<TRIPOS>MOLECULE
2-Chloro-N-[2-(2-methoxy-ethyl)-1,2,3,4-tetrahydro-benzo[4,5]imidazo[1,2-a]pyraz
48 51 1 0 0 
SMALL
USER_CHARGES


@<TRIPOS>ATOM
  1 CL       2.0190    -1.7440    -2.3810 Cl    1 <1>  -0.1770 
  2 C        1.2470    -2.5750    -1.0510 C.ar  1 <1>   0.1770 
  3 C        1.6940    -2.4230     0.2660 C.ar  1 <1>   0.0860 
  4 C        0.1680    -3.3780    -1.3750 C.ar  1 <1>  -0.1500 
  5 C        2.8250    -1.6040     0.6600 C.2   1 <1>   0.5440 
  6 C        0.9820    -3.1220     1.2460 C.ar  1 <1>  -0.1500 
  7 C       -0.5080    -4.0610    -0.3810 C.ar  1 <1>  -0.1500 
  8 O        2.7920    -1.0190     1.7250 O.2   1 <1>  -0.5700 
  9 N        3.9510    -1.5280    -0.1270 N.am  1 <1>  -0.5470 
 10 C       -0.0980    -3.9280     0.9330 C.ar  1 <1>  -0.1500 
 11 C        5.1830    -0.8710     0.0510 C.ar  1 <1>   0.1170 
 12 C        6.2940    -1.3670    -0.6040 C.ar  1 <1>  -0.1500 
 13 C        5.3210     0.2780     0.8520 C.ar  1 <1>  -0.1500 
 14 C        7.5260    -0.7360    -0.4620 C.ar  1 <1>   0.2270 
 15 C        6.5350     0.9090     1.0030 C.ar  1 <1>  -0.1500 
 16 N        8.7300    -1.0620    -1.0130 N.2   1 <1>  -0.5650 
 17 C        7.6420     0.3870     0.3330 C.ar  1 <1>  -0.1520 
 18 C        9.5370    -0.1660    -0.5570 C.2   1 <1>   0.0060 
 19 N        8.9510     0.7460     0.2590 N.pl3 1 <1>   0.0480 
 20 C       11.0230    -0.0660    -0.8760 C.3   1 <1>   0.2900 
 21 C        9.6570     1.8400     0.9450 C.3   1 <1>   0.0960 
 22 N       11.7440     0.8200     0.0800 N.3   1 <1>  -0.8100 
 23 C       11.0180     2.0880     0.2780 C.3   1 <1>   0.1100 
 24 C       13.1350     1.0680    -0.3510 C.3   1 <1>   0.1100 
 25 C       14.0160    -0.1680    -0.1550 C.3   1 <1>   0.1200 
 26 O       15.3130     0.1560    -0.5460 O.3   1 <1>  -0.5600 
 27 C       16.2260    -0.8800    -0.3780 C.3   1 <1>   0.0400 
 28 H       -0.1420    -3.4670    -2.4010 H     1 <1>   0.1500 
 29 H        1.2860    -3.0260     2.2760 H     1 <1>   0.1500 
 30 H       -1.3490    -4.6880    -0.6260 H     1 <1>   0.1500 
 31 H        3.8910    -2.0500    -1.0010 H     1 <1>   0.3700 
 32 H       -0.6220    -4.4530     1.7150 H     1 <1>   0.1500 
 33 H        6.2430    -2.2370    -1.2280 H     1 <1>   0.1500 
 34 H        4.4580     0.6740     1.3550 H     1 <1>   0.1500 
 35 H        6.6320     1.7840     1.6210 H     1 <1>   0.1500 
 36 H       11.1270     0.3150    -1.8780 H     1 <1>   0.0800 
 37 H       11.4420    -1.0560    -0.8450 H     1 <1>   0.0800 
 38 H        9.8040     1.5590     1.9710 H     1 <1>   0.0800 
 39 H        9.0560     2.7300     0.9080 H     1 <1>   0.0800 
 40 H       11.5940     2.7430     0.9100 H     1 <1>   0.0800 
 41 H       10.8740     2.5800    -0.6700 H     1 <1>   0.0800 
 42 H       13.5550     1.8600     0.2460 H     1 <1>   0.0800 
 43 H       13.1550     1.3710    -1.3840 H     1 <1>   0.0800 
 44 H       13.6740    -0.9860    -0.7630 H     1 <1>   0.0800 
 45 H       14.0270    -0.4500     0.8840 H     1 <1>   0.0800 
 46 H       17.1890    -0.5340    -0.7080 H     1 <1>   0.0800 
 47 H       15.9200    -1.7240    -0.9720 H     1 <1>   0.0800 
 48 H       16.2730    -1.1460     0.6640 H     1 <1>   0.0800 
@<TRIPOS>BOND
  1   1   2  1   
  2   2   3  ar  
  3   2   4  ar  
  4   3   5  1   
  5   3   6  ar  
  6   4   7  ar  
  7   4  28  1   
  8   5   8  2   
  9   5   9  am  
 10   6  10  ar  
 11   6  29  1   
 12   7  10  ar  
 13   7  30  1   
 14   9  11  1   
 15   9  31  1   
 16  10  32  1   
 17  11  12  ar  
 18  11  13  ar  
 19  12  14  ar  
 20  12  33  1   
 21  13  15  ar  
 22  13  34  1   
 23  14  16  1   
 24  14  17  ar  
 25  15  17  ar  
 26  15  35  1   
 27  16  18  2   
 28  17  19  1   
 29  18  19  1   
 30  18  20  1   
 31  19  21  1   
 32  20  22  1   
 33  20  36  1   
 34  20  37  1   
 35  21  23  1   
 36  21  38  1   
 37  21  39  1   
 38  22  23  1   
 39  22  24  1   
 40  23  40  1   
 41  23  41  1   
 42  24  25  1   
 43  24  42  1   
 44  24  43  1   
 45  25  26  1   
 46  25  44  1   
 47  25  45  1   
 48  26  27  1   
 49  27  46  1   
 50  27  47  1   
 51  27  48  1   
@<TRIPOS>SUBSTRUCTURE
  1 ****  14 GROUP 4 **** **** 0

# MOE 2024.06 (io_trps.svl 2023.06)
