@<TRIPOS>MOLECULE
N-[2-(4-Isobutyryl-piperazin-1-yl)-phenyl]-isobutyramide
50 51 1 0 0 
SMALL
USER_CHARGES


@<TRIPOS>ATOM
  1 O       -1.2640     0.9440    -1.5100 O.2   1 <1>  -0.5700 
  2 C       -1.3410     1.2830    -0.3520 C.2   1 <1>   0.5690 
  3 N       -1.1960     2.6030     0.0050 N.am  1 <1>  -0.6600 
  4 C       -1.6240     0.1970     0.7030 C.3   1 <1>  -0.0190 
  5 C       -1.5240     3.2060     1.3340 C.3   1 <1>   0.1400 
  6 C       -0.8600     3.6430    -1.0170 C.3   1 <1>   0.1400 
  7 C       -1.0420    -1.1760     0.3160 C.3   1 <1>  -0.2400 
  8 C       -3.1330     0.0550     0.9630 C.3   1 <1>  -0.2400 
  9 C       -2.6750     4.2240     1.2190 C.3   1 <1>   0.2090 
 10 C       -2.0150     4.6440    -1.1870 C.3   1 <1>   0.2090 
 11 N       -2.4770     5.2200     0.1180 N.pl3 1 <1>  -0.8380 
 12 C       -1.9910     6.4940     0.4680 C.ar  1 <1>   0.1000 
 13 C       -2.8280     7.6150     0.3670 C.ar  1 <1>   0.1170 
 14 C       -0.6860     6.6640     0.9140 C.ar  1 <1>  -0.1500 
 15 N       -4.1330     7.3780    -0.0930 N.am  1 <1>  -0.5470 
 16 C       -2.3430     8.8680     0.7180 C.ar  1 <1>  -0.1500 
 17 C       -0.2110     7.9170     1.2600 C.ar  1 <1>  -0.1500 
 18 C       -5.2010     8.1780    -0.3740 C.2   1 <1>   0.5690 
 19 C       -1.0400     9.0200     1.1630 C.ar  1 <1>  -0.1500 
 20 O       -5.1860     9.3800    -0.2510 O.2   1 <1>  -0.5700 
 21 C       -6.4760     7.4950    -0.8830 C.3   1 <1>  -0.0190 
 22 C       -6.7110     7.7950    -2.3720 C.3   1 <1>  -0.2400 
 23 C       -7.7120     7.9010    -0.0620 C.3   1 <1>  -0.2400 
 24 H       -1.1380     0.4810     1.6170 H     1 <1>   0.0800 
 25 H       -0.6510     3.7040     1.7170 H     1 <1>   0.0800 
 26 H       -1.8050     2.4560     2.0470 H     1 <1>   0.0800 
 27 H       -0.6470     3.1900    -1.9690 H     1 <1>   0.0800 
 28 H        0.0240     4.1700    -0.7080 H     1 <1>   0.0800 
 29 H       -1.5090    -1.5430    -0.5820 H     1 <1>   0.0800 
 30 H       -1.1980    -1.8900     1.1040 H     1 <1>   0.0800 
 31 H        0.0150    -1.0890     0.1340 H     1 <1>   0.0800 
 32 H       -3.6320    -0.2640     0.0640 H     1 <1>   0.0800 
 33 H       -3.5560     0.9940     1.2680 H     1 <1>   0.0800 
 34 H       -3.3160    -0.6720     1.7340 H     1 <1>   0.0800 
 35 H       -2.7830     4.7450     2.1550 H     1 <1>   0.0800 
 36 H       -3.5920     3.6910     1.0370 H     1 <1>   0.0800 
 37 H       -2.8400     4.1410    -1.6600 H     1 <1>   0.0800 
 38 H       -1.6990     5.4400    -1.8390 H     1 <1>   0.0800 
 39 H       -0.0370     5.8140     0.9890 H     1 <1>   0.1500 
 40 H       -4.2460     6.3760    -0.2630 H     1 <1>   0.3700 
 41 H       -2.9760     9.7330     0.6470 H     1 <1>   0.1500 
 42 H        0.8010     8.0350     1.6040 H     1 <1>   0.1500 
 43 H       -0.6770     9.9970     1.4310 H     1 <1>   0.1500 
 44 H       -6.3510     6.4320    -0.7770 H     1 <1>   0.0800 
 45 H       -6.8490     8.8530    -2.5190 H     1 <1>   0.0800 
 46 H       -7.5830     7.2780    -2.7300 H     1 <1>   0.0800 
 47 H       -5.8610     7.4810    -2.9510 H     1 <1>   0.0800 
 48 H       -7.8900     8.9580    -0.1550 H     1 <1>   0.0800 
 49 H       -7.5540     7.6750     0.9780 H     1 <1>   0.0800 
 50 H       -8.5830     7.3710    -0.4020 H     1 <1>   0.0800 
@<TRIPOS>BOND
  1   1   2  2   
  2   2   3  am  
  3   2   4  1   
  4   3   5  1   
  5   3   6  1   
  6   4   7  1   
  7   4   8  1   
  8   4  24  1   
  9   5   9  1   
 10   5  25  1   
 11   5  26  1   
 12   6  10  1   
 13   6  27  1   
 14   6  28  1   
 15   7  29  1   
 16   7  30  1   
 17   7  31  1   
 18   8  32  1   
 19   8  33  1   
 20   8  34  1   
 21   9  11  1   
 22   9  35  1   
 23   9  36  1   
 24  10  11  1   
 25  10  37  1   
 26  10  38  1   
 27  11  12  1   
 28  12  13  ar  
 29  12  14  ar  
 30  13  15  1   
 31  13  16  ar  
 32  14  17  ar  
 33  14  39  1   
 34  15  18  am  
 35  15  40  1   
 36  16  19  ar  
 37  16  41  1   
 38  17  19  ar  
 39  17  42  1   
 40  18  20  2   
 41  18  21  1   
 42  19  43  1   
 43  21  22  1   
 44  21  23  1   
 45  21  44  1   
 46  22  45  1   
 47  22  46  1   
 48  22  47  1   
 49  23  48  1   
 50  23  49  1   
 51  23  50  1   
@<TRIPOS>SUBSTRUCTURE
  1 ****  11 GROUP 4 **** **** 0

# MOE 2024.06 (io_trps.svl 2023.06)
