@<TRIPOS>MOLECULE
2-(4-Ethyl-benzylamino)-4,5,6,7-tetrahydro-cyclopenta[d][1,2,4]triazolo[1,5-a]py
42 45 1 0 0 
SMALL
USER_CHARGES


@<TRIPOS>ATOM
  1 O       -0.0740    -0.4460     1.0900 O.2   1 <1>  -0.5700 
  2 C       -0.4130    -1.5600     0.7110 C.2   1 <1>   0.5650 
  3 N       -1.7230    -2.0710     0.8910 N.pl3 1 <1>   0.5610 
  4 C        0.5040    -2.4310     0.0440 C.2   1 <1>  -0.1240 
  5 N       -2.8390    -1.5490     1.4580 N.2   1 <1>  -0.7070 
  6 C       -2.0560    -3.3120     0.4360 C.2   1 <1>   0.2700 
  7 C        0.1450    -3.6520    -0.3900 C.2   1 <1>  -0.0380 
  8 C        1.9530    -2.1400    -0.2620 C.3   1 <1>  -0.0220 
  9 C       -3.6870    -2.5020     1.3020 C.2   1 <1>   0.5990 
 10 N       -3.2780    -3.6070     0.6730 N.2   1 <1>  -0.5650 
 11 N       -1.1310    -4.1240    -0.2110 N.pl3 1 <1>  -0.5840 
 12 C        1.2650    -4.4010    -1.0590 C.3   1 <1>  -0.0220 
 13 C        2.4090    -3.3650    -1.0850 C.3   1 <1>  -0.1600 
 14 N       -4.9770    -2.4460     1.7400 N.pl3 1 <1>  -0.8520 
 15 C       -5.6870    -1.1790     1.5040 C.3   1 <1>   0.3530 
 16 C       -7.0070    -1.5070     0.8310 C.ar  1 <1>  -0.1430 
 17 C       -8.1380    -1.7640     1.5890 C.ar  1 <1>  -0.1500 
 18 C       -7.0920    -1.5620    -0.5520 C.ar  1 <1>  -0.1500 
 19 C       -9.3400    -2.0650     0.9730 C.ar  1 <1>  -0.1500 
 20 C       -8.2940    -1.8630    -1.1670 C.ar  1 <1>  -0.1500 
 21 C       -9.4260    -2.1160    -0.4090 C.ar  1 <1>  -0.1430 
 22 C      -10.7460    -2.4480    -1.0850 C.3   1 <1>  -0.0170 
 23 C      -11.5450    -1.1720    -1.3560 C.3   1 <1>  -0.2400 
 24 H        2.5130    -2.0570     0.6540 H     1 <1>   0.0800 
 25 H        2.0520    -1.2280    -0.8260 H     1 <1>   0.0800 
 26 H       -1.4460    -5.0500    -0.5190 H     1 <1>   0.4000 
 27 H        0.9890    -4.7020    -2.0550 H     1 <1>   0.0800 
 28 H        1.5360    -5.2630    -0.4750 H     1 <1>   0.0800 
 29 H        3.3150    -3.7830    -0.6800 H     1 <1>   0.0800 
 30 H        2.5940    -3.0620    -2.1010 H     1 <1>   0.0800 
 31 H       -5.4930    -3.2020     1.2880 H     1 <1>   0.4000 
 32 H       -5.1110    -0.5180     0.8770 H     1 <1>   0.0800 
 33 H       -5.8560    -0.6870     2.4460 H     1 <1>   0.0800 
 34 H       -8.0850    -1.7330     2.6640 H     1 <1>   0.1500 
 35 H       -6.2200    -1.3720    -1.1550 H     1 <1>   0.1500 
 36 H      -10.2100    -2.2590     1.5750 H     1 <1>   0.1500 
 37 H       -8.3460    -1.8990    -2.2410 H     1 <1>   0.1500 
 38 H      -11.3190    -3.1070    -0.4580 H     1 <1>   0.0800 
 39 H      -10.5590    -2.9610    -2.0120 H     1 <1>   0.0800 
 40 H      -11.7530    -0.6610    -0.4330 H     1 <1>   0.0800 
 41 H      -12.4760    -1.4120    -1.8370 H     1 <1>   0.0800 
 42 H      -10.9840    -0.5120    -1.9950 H     1 <1>   0.0800 
@<TRIPOS>BOND
  1   1   2  2   
  2   2   3  1   
  3   2   4  1   
  4   3   5  1   
  5   3   6  1   
  6   4   7  2   
  7   4   8  1   
  8   5   9  2   
  9   6  10  2   
 10   6  11  1   
 11   7  11  1   
 12   7  12  1   
 13   8  13  1   
 14   8  24  1   
 15   8  25  1   
 16   9  10  1   
 17   9  14  1   
 18  11  26  1   
 19  12  13  1   
 20  12  27  1   
 21  12  28  1   
 22  13  29  1   
 23  13  30  1   
 24  14  15  1   
 25  14  31  1   
 26  15  16  1   
 27  15  32  1   
 28  15  33  1   
 29  16  17  ar  
 30  16  18  ar  
 31  17  19  ar  
 32  17  34  1   
 33  18  20  ar  
 34  18  35  1   
 35  19  21  ar  
 36  19  36  1   
 37  20  21  ar  
 38  20  37  1   
 39  21  22  1   
 40  22  23  1   
 41  22  38  1   
 42  22  39  1   
 43  23  40  1   
 44  23  41  1   
 45  23  42  1   
@<TRIPOS>SUBSTRUCTURE
  1 ****   9 GROUP 4 **** **** 0

# MOE 2024.06 (io_trps.svl 2023.06)
