@<TRIPOS>MOLECULE
N-(4-Methoxy-phenyl)-2-(4-trifluoromethyl-5,6,7,8-tetrahydro-quinazolin-2-ylsulf
45 47 1 0 0 
SMALL
USER_CHARGES


@<TRIPOS>ATOM
  1 S        0.0100     0.3370    -1.5670 S.3   1 <1>  -0.3320 
  2 C       -1.1390     1.4370    -0.7590 C.ar  1 <1>   0.7220 
  3 C        1.5040     0.2340    -0.4630 C.3   1 <1>   0.1310 
  4 N       -0.7220     2.0060     0.3560 N.ar  1 <1>  -0.6200 
  5 N       -2.2920     1.5650    -1.3700 N.ar  1 <1>  -0.6200 
  6 C        2.4630     1.3830    -0.7280 C.2   1 <1>   0.5690 
  7 C       -1.5980     2.8090     0.9590 C.ar  1 <1>   0.1660 
  8 C       -3.1510     2.3610    -0.7830 C.ar  1 <1>   0.1660 
  9 O        3.5660     1.1200    -1.1420 O.2   1 <1>  -0.5700 
 10 N        2.0440     2.6540    -0.4480 N.am  1 <1>  -0.5470 
 11 C       -2.8550     3.0250     0.3980 C.ar  1 <1>  -0.1440 
 12 C       -1.1720     3.4940     2.2940 C.3   1 <1>   1.1640 
 13 C       -4.4840     2.5070    -1.5050 C.3   1 <1>  -0.0170 
 14 C        2.6910     3.8920    -0.5820 C.ar  1 <1>   0.1170 
 15 C       -3.9010     3.9440     1.0480 C.3   1 <1>  -0.0170 
 16 F       -2.0450     3.3050     3.2790 F     1 <1>  -0.3400 
 17 F       -0.0030     3.0610     2.7600 F     1 <1>  -0.3400 
 18 F       -1.0370     4.8100     2.1630 F     1 <1>  -0.3400 
 19 C       -5.5790     3.1400    -0.6410 C.3   1 <1>  -0.1600 
 20 C        2.2890     4.9490     0.2270 C.ar  1 <1>  -0.1500 
 21 C        3.7080     4.1150    -1.5050 C.ar  1 <1>  -0.1500 
 22 C       -5.0240     4.3610     0.0930 C.3   1 <1>  -0.1600 
 23 C        2.8810     6.1950     0.1230 C.ar  1 <1>  -0.1500 
 24 C        4.3040     5.3580    -1.6130 C.ar  1 <1>  -0.1500 
 25 C        3.8990     6.4060    -0.8030 C.ar  1 <1>   0.0820 
 26 O        4.5360     7.5940    -0.9730 O.3   1 <1>  -0.3620 
 27 C        4.2260     8.7070    -0.1630 C.3   1 <1>   0.0400 
 28 H        1.9850    -0.7000    -0.6870 H     1 <1>   0.0800 
 29 H        1.1710     0.2300     0.5570 H     1 <1>   0.0800 
 30 H        1.0960     2.7030    -0.0670 H     1 <1>   0.3700 
 31 H       -4.8150     1.5400    -1.8400 H     1 <1>   0.0800 
 32 H       -4.3230     3.1150    -2.3770 H     1 <1>   0.0800 
 33 H       -3.4470     4.8440     1.4210 H     1 <1>   0.0800 
 34 H       -4.3410     3.4250     1.8830 H     1 <1>   0.0800 
 35 H       -5.9340     2.4190     0.0760 H     1 <1>   0.0800 
 36 H       -6.4080     3.4270    -1.2640 H     1 <1>   0.0800 
 37 H        1.5100     4.7960     0.9490 H     1 <1>   0.1500 
 38 H        4.0350     3.3170    -2.1460 H     1 <1>   0.1500 
 39 H       -4.6450     5.0700    -0.6240 H     1 <1>   0.0800 
 40 H       -5.8110     4.8410     0.6490 H     1 <1>   0.0800 
 41 H        2.5420     6.9830     0.7670 H     1 <1>   0.1500 
 42 H        5.0900     5.5220    -2.3280 H     1 <1>   0.1500 
 43 H        4.8620     9.5220    -0.4590 H     1 <1>   0.0800 
 44 H        4.4140     8.4520     0.8650 H     1 <1>   0.0800 
 45 H        3.1960     8.9730    -0.3150 H     1 <1>   0.0800 
@<TRIPOS>BOND
  1   1   2  1   
  2   1   3  1   
  3   2   4  ar  
  4   2   5  ar  
  5   3   6  1   
  6   3  28  1   
  7   3  29  1   
  8   4   7  ar  
  9   5   8  ar  
 10   6   9  2   
 11   6  10  am  
 12   7  11  ar  
 13   7  12  1   
 14   8  11  ar  
 15   8  13  1   
 16  10  14  1   
 17  10  30  1   
 18  11  15  1   
 19  12  16  1   
 20  12  17  1   
 21  12  18  1   
 22  13  19  1   
 23  13  31  1   
 24  13  32  1   
 25  14  20  ar  
 26  14  21  ar  
 27  15  22  1   
 28  15  33  1   
 29  15  34  1   
 30  19  22  1   
 31  19  35  1   
 32  19  36  1   
 33  20  23  ar  
 34  20  37  1   
 35  21  24  ar  
 36  21  38  1   
 37  22  39  1   
 38  22  40  1   
 39  23  25  ar  
 40  23  41  1   
 41  24  25  ar  
 42  24  42  1   
 43  25  26  1   
 44  26  27  1   
 45  27  43  1   
 46  27  44  1   
 47  27  45  1   
@<TRIPOS>SUBSTRUCTURE
  1 ****   4 GROUP 4 **** **** 0

# MOE 2024.06 (io_trps.svl 2023.06)
