@<TRIPOS>MOLECULE
Pentanoic acid [1-(3-p-tolyl-[1,2,4]oxadiazol-5-yl)-ethyl]-amide
42 43 1 0 0 
SMALL
USER_CHARGES


@<TRIPOS>ATOM
  1 O       -3.2050     0.9880    -2.5050 O.2   1 <1>  -0.5700 
  2 C       -3.6420     0.7340    -1.4130 C.2   1 <1>   0.5690 
  3 N       -4.8910     0.2310    -1.3120 N.am  1 <1>  -0.7300 
  4 C       -2.8000     0.9790    -0.1660 C.3   1 <1>  -0.0990 
  5 C       -5.6380    -0.1850    -0.1080 C.3   1 <1>   0.4000 
  6 C       -1.3520     1.4130    -0.4570 C.3   1 <1>  -0.1600 
  7 C       -5.5550    -1.7040     0.0860 C.2   1 <1>   0.2980 
  8 C       -7.0720     0.3230    -0.2620 C.3   1 <1>  -0.2400 
  9 C       -0.5580     1.6230     0.8380 C.3   1 <1>  -0.1600 
 10 O       -4.4190    -2.1940     0.5090 O.3   1 <1>  -0.0190 
 11 N       -6.4730    -2.5620    -0.1150 N.2   1 <1>  -0.5650 
 12 C        0.8800     2.0530     0.5360 C.3   1 <1>  -0.2400 
 13 N       -4.6310    -3.4690     0.5850 N.2   1 <1>  -0.4100 
 14 C       -5.8410    -3.6940     0.2120 C.2   1 <1>   0.4620 
 15 C       -6.4790    -4.9990     0.1430 C.ar  1 <1>   0.0540 
 16 C       -7.8050    -5.1490    -0.2670 C.ar  1 <1>  -0.1500 
 17 C       -5.7890    -6.1620     0.4870 C.ar  1 <1>  -0.1500 
 18 C       -8.4090    -6.3910    -0.3320 C.ar  1 <1>  -0.1500 
 19 C       -6.3870    -7.4070     0.4240 C.ar  1 <1>  -0.1500 
 20 C       -7.7030    -7.5310     0.0120 C.ar  1 <1>  -0.1440 
 21 C       -8.3630    -8.8960    -0.0570 C.3   1 <1>  -0.0970 
 22 H       -5.3550     0.0300    -2.2000 H     1 <1>   0.3700 
 23 H       -2.7750     0.0720     0.4090 H     1 <1>   0.0800 
 24 H       -3.2810     1.7410     0.4180 H     1 <1>   0.0800 
 25 H       -5.2100     0.2810     0.7620 H     1 <1>   0.0800 
 26 H       -1.3630     2.3270    -1.0270 H     1 <1>   0.0800 
 27 H       -0.8710     0.6580    -1.0570 H     1 <1>   0.0800 
 28 H       -7.5400    -0.1230    -1.1220 H     1 <1>   0.0800 
 29 H       -7.0790     1.3940    -0.3650 H     1 <1>   0.0800 
 30 H       -7.6450     0.0600     0.6080 H     1 <1>   0.0800 
 31 H       -0.5400     0.7080     1.4060 H     1 <1>   0.0800 
 32 H       -1.0340     2.3810     1.4380 H     1 <1>   0.0800 
 33 H        1.3820     1.3000    -0.0460 H     1 <1>   0.0800 
 34 H        1.4230     2.1960     1.4530 H     1 <1>   0.0800 
 35 H        0.8880     2.9780    -0.0150 H     1 <1>   0.0800 
 36 H       -8.3750    -4.2780    -0.5410 H     1 <1>   0.1500 
 37 H       -4.7640    -6.0920     0.8090 H     1 <1>   0.1500 
 38 H       -9.4330    -6.4680    -0.6520 H     1 <1>   0.1500 
 39 H       -5.8230    -8.2820     0.6980 H     1 <1>   0.1500 
 40 H       -9.1090    -8.9140    -0.8300 H     1 <1>   0.0800 
 41 H       -8.8320    -9.1200     0.8840 H     1 <1>   0.0800 
 42 H       -7.6340    -9.6560    -0.2720 H     1 <1>   0.0800 
@<TRIPOS>BOND
  1   1   2  2   
  2   2   3  am  
  3   2   4  1   
  4   3   5  1   
  5   3  22  1   
  6   4   6  1   
  7   4  23  1   
  8   4  24  1   
  9   5   7  1   
 10   5   8  1   
 11   5  25  1   
 12   6   9  1   
 13   6  26  1   
 14   6  27  1   
 15   7  10  1   
 16   7  11  2   
 17   8  28  1   
 18   8  29  1   
 19   8  30  1   
 20   9  12  1   
 21   9  31  1   
 22   9  32  1   
 23  10  13  1   
 24  11  14  1   
 25  12  33  1   
 26  12  34  1   
 27  12  35  1   
 28  13  14  2   
 29  14  15  1   
 30  15  16  ar  
 31  15  17  ar  
 32  16  18  ar  
 33  16  36  1   
 34  17  19  ar  
 35  17  37  1   
 36  18  20  ar  
 37  18  38  1   
 38  19  20  ar  
 39  19  39  1   
 40  20  21  1   
 41  21  40  1   
 42  21  41  1   
 43  21  42  1   
@<TRIPOS>SUBSTRUCTURE
  1 ****   7 GROUP 4 **** **** 0

# MOE 2024.06 (io_trps.svl 2023.06)
