@<TRIPOS>MOLECULE
3-(2-Methoxy-ethyl)-8-(2-methoxy-phenyl)-1-methyl-5,6,7,8-tetrahydro-1H-1,3,4b,8
52 55 1 0 0 
SMALL
USER_CHARGES


@<TRIPOS>ATOM
  1 O        1.3310     0.8500     2.1180 O.2   1 <1>  -0.5740 
  2 C        2.1730     1.3800     1.4240 C.2   1 <1>   0.6860 
  3 N        1.8950     2.5860     0.7880 N.am  1 <1>  -0.4250 
  4 N        3.4120     0.7750     1.2610 N.am  1 <1>  -0.4410 
  5 C        2.8240     3.1910    -0.0460 C.2   1 <1>   0.7000 
  6 C        0.5690     3.2440     1.0170 C.3   1 <1>   0.1330 
  7 C        4.3420     1.4070     0.4590 C.2   1 <1>   0.4210 
  8 C        3.7410    -0.5120     1.9420 C.3   1 <1>   0.0530 
  9 O        2.5580     4.2170    -0.6480 O.2   1 <1>  -0.5740 
 10 C        4.1040     2.5690    -0.1870 C.2   1 <1>   0.2710 
 11 C       -0.4840     2.6860     0.0590 C.3   1 <1>   0.1130 
 12 N        5.6140     1.0120     0.1850 N.pl3 1 <1>  -0.7030 
 13 N        5.2870     2.8820    -0.8720 N.pl3 1 <1>  -0.7670 
 14 O       -1.6680     3.3800     0.2720 O.3   1 <1>  -0.5640 
 15 C        6.1680     1.9210    -0.6140 C.cat 1 <1>   1.0690 
 16 C        5.5620     4.0780    -1.6920 C.3   1 <1>   0.3480 
 17 C       -2.7250     2.9450    -0.5200 C.3   1 <1>   0.0320 
 18 N        7.4180     1.9080    -1.1190 N.pl3 1 <1>  -0.5800 
 19 C        7.0760     4.3040    -1.7230 C.3   1 <1>  -0.1670 
 20 C        8.3600     0.8950    -0.8340 C.ar  1 <1>   0.3050 
 21 C        7.8490     3.0120    -2.0240 C.3   1 <1>   0.1610 
 22 C        8.7350     0.5740     0.4800 C.ar  1 <1>   0.0750 
 23 C        8.9300     0.1870    -1.8850 C.ar  1 <1>  -0.1570 
 24 O        8.1630     1.2720     1.5050 O.3   1 <1>  -0.3680 
 25 C        9.6630    -0.4370     0.7090 C.ar  1 <1>  -0.1570 
 26 C        9.8520    -0.8170    -1.6500 C.ar  1 <1>  -0.1570 
 27 C        8.7720     1.3140     2.7810 C.3   1 <1>   0.0320 
 28 C       10.2170    -1.1270    -0.3540 C.ar  1 <1>  -0.1570 
 29 H        0.6520     4.3070     0.8710 H     1 <1>   0.0730 
 30 H        0.2480     3.0730     2.0310 H     1 <1>   0.0730 
 31 H        2.8430    -1.0250     2.2450 H     1 <1>   0.0730 
 32 H        4.3350    -0.3170     2.8180 H     1 <1>   0.0730 
 33 H        4.2850    -1.1580     1.2760 H     1 <1>   0.0730 
 34 H       -0.6570     1.6420     0.2570 H     1 <1>   0.0730 
 35 H       -0.1830     2.8370    -0.9630 H     1 <1>   0.0730 
 36 H        6.1520     0.2560     0.6020 H     1 <1>   0.4450 
 37 H        5.0680     4.9390    -1.2730 H     1 <1>   0.0730 
 38 H        5.1860     3.9180    -2.6890 H     1 <1>   0.0730 
 39 H       -3.5890     3.5400    -0.2810 H     1 <1>   0.0730 
 40 H       -2.9270     1.9100    -0.3060 H     1 <1>   0.0730 
 41 H       -2.4700     3.0770    -1.5570 H     1 <1>   0.0730 
 42 H        7.3970     4.6980    -0.7740 H     1 <1>   0.0730 
 43 H        7.3100     5.0440    -2.4680 H     1 <1>   0.0730 
 44 H        7.6780     2.7140    -3.0450 H     1 <1>   0.0730 
 45 H        8.9050     3.1900    -1.8980 H     1 <1>   0.0730 
 46 H        8.6550     0.4120    -2.9000 H     1 <1>   0.1430 
 47 H        9.9690    -0.7080     1.7030 H     1 <1>   0.1430 
 48 H       10.2880    -1.3590    -2.4740 H     1 <1>   0.1430 
 49 H        8.2560     2.0450     3.3780 H     1 <1>   0.0730 
 50 H        9.8040     1.6000     2.6690 H     1 <1>   0.0730 
 51 H        8.6920     0.3460     3.2440 H     1 <1>   0.0730 
 52 H       10.9360    -1.9090    -0.1720 H     1 <1>   0.1430 
@<TRIPOS>BOND
  1   1   2  2   
  2   2   3  am  
  3   2   4  am  
  4   3   5  am  
  5   3   6  1   
  6   4   7  1   
  7   4   8  1   
  8   5   9  2   
  9   5  10  1   
 10   6  11  1   
 11   6  29  1   
 12   6  30  1   
 13   7  10  2   
 14   7  12  1   
 15   8  31  1   
 16   8  32  1   
 17   8  33  1   
 18  10  13  1   
 19  11  14  1   
 20  11  34  1   
 21  11  35  1   
 22  12  15  ar  
 23  12  36  1   
 24  13  15  ar  
 25  13  16  1   
 26  14  17  1   
 27  15  18  ar  
 28  16  19  1   
 29  16  37  1   
 30  16  38  1   
 31  17  39  1   
 32  17  40  1   
 33  17  41  1   
 34  18  20  1   
 35  18  21  1   
 36  19  21  1   
 37  19  42  1   
 38  19  43  1   
 39  20  22  ar  
 40  20  23  ar  
 41  21  44  1   
 42  21  45  1   
 43  22  24  1   
 44  22  25  ar  
 45  23  26  ar  
 46  23  46  1   
 47  24  27  1   
 48  25  28  ar  
 49  25  47  1   
 50  26  28  ar  
 51  26  48  1   
 52  27  49  1   
 53  27  50  1   
 54  27  51  1   
 55  28  52  1   
@<TRIPOS>SUBSTRUCTURE
  1 ****   7 GROUP 4 **** **** 0

# MOE 2024.06 (io_trps.svl 2023.06)
