@<TRIPOS>MOLECULE
Cyclohexanecarboxylic acid [1-(3-o-tolyl-[1,2,4]oxadiazol-5-yl)-ethyl]-amide
46 48 1 0 0 
SMALL
USER_CHARGES


@<TRIPOS>ATOM
  1 O       -1.2380    -0.9790     1.4720 O.2   1 <1>  -0.5700 
  2 C       -2.2200    -0.5690     0.9080 C.2   1 <1>   0.5690 
  3 N       -2.9260    -1.4710     0.1840 N.am  1 <1>  -0.7300 
  4 C       -2.5170     0.9340     1.0460 C.3   1 <1>  -0.0190 
  5 C       -4.2880    -1.4810    -0.3920 C.3   1 <1>   0.4000 
  6 C       -3.9910     1.3610     1.1980 C.3   1 <1>  -0.1600 
  7 C       -1.8390     1.7440    -0.0770 C.3   1 <1>  -0.1600 
  8 C       -4.8800    -2.8900    -0.3520 C.2   1 <1>   0.2980 
  9 C       -4.2220    -0.9550    -1.8260 C.3   1 <1>  -0.2400 
 10 C       -4.0990     2.8660     1.4820 C.3   1 <1>  -0.1600 
 11 C       -1.9680     3.2560     0.1630 C.3   1 <1>  -0.1600 
 12 O       -4.2090    -3.8690    -0.9030 O.3   1 <1>  -0.0190 
 13 N       -5.9870    -3.2200     0.1760 N.2   1 <1>  -0.5650 
 14 C       -3.4310     3.6770     0.3630 C.3   1 <1>  -0.1600 
 15 N       -4.9500    -4.9120    -0.7020 N.2   1 <1>  -0.4100 
 16 C       -6.0020    -4.5350    -0.0670 C.2   1 <1>   0.4620 
 17 C       -7.0720    -5.4150     0.3710 C.ar  1 <1>   0.0540 
 18 C       -8.4340    -5.1510     0.1630 C.ar  1 <1>  -0.1440 
 19 C       -6.7340    -6.5950     1.0340 C.ar  1 <1>  -0.1500 
 20 C       -9.3960    -6.0370     0.6240 C.ar  1 <1>  -0.1500 
 21 C       -8.9020    -3.9040    -0.5760 C.3   1 <1>  -0.0970 
 22 C       -7.6960    -7.4760     1.4890 C.ar  1 <1>  -0.1500 
 23 C       -9.0330    -7.1960     1.2860 C.ar  1 <1>  -0.1500 
 24 H       -2.4950    -2.3990     0.1870 H     1 <1>   0.3700 
 25 H       -2.0310     1.2240     1.9620 H     1 <1>   0.0800 
 26 H       -4.9380    -0.8640     0.1970 H     1 <1>   0.0800 
 27 H       -4.4520     0.8070     1.9980 H     1 <1>   0.0800 
 28 H       -4.5270     1.1740     0.2880 H     1 <1>   0.0800 
 29 H       -2.2780     1.4940    -1.0250 H     1 <1>   0.0800 
 30 H       -0.7950     1.4840    -0.1210 H     1 <1>   0.0800 
 31 H       -3.5570    -1.5590    -2.4170 H     1 <1>   0.0800 
 32 H       -3.8850     0.0630    -1.8400 H     1 <1>   0.0800 
 33 H       -5.2010    -0.9910    -2.2690 H     1 <1>   0.0800 
 34 H       -3.6250     3.0920     2.4220 H     1 <1>   0.0800 
 35 H       -5.1350     3.1460     1.5600 H     1 <1>   0.0800 
 36 H       -1.5500     3.7910    -0.6720 H     1 <1>   0.0800 
 37 H       -1.4020     3.5250     1.0390 H     1 <1>   0.0800 
 38 H       -3.4730     4.7250     0.6050 H     1 <1>   0.0800 
 39 H       -3.9720     3.5300    -0.5560 H     1 <1>   0.0800 
 40 H       -5.6950    -6.8230     1.1960 H     1 <1>   0.1500 
 41 H      -10.4410    -5.8320     0.4710 H     1 <1>   0.1500 
 42 H       -8.3310    -3.7680    -1.4770 H     1 <1>   0.0800 
 43 H       -8.7760    -3.0390     0.0510 H     1 <1>   0.0800 
 44 H       -9.9400    -3.9800    -0.8470 H     1 <1>   0.0800 
 45 H       -7.4060    -8.3780     1.9990 H     1 <1>   0.1500 
 46 H       -9.7890    -7.8760     1.6390 H     1 <1>   0.1500 
@<TRIPOS>BOND
  1   1   2  2   
  2   2   3  am  
  3   2   4  1   
  4   3   5  1   
  5   3  24  1   
  6   4   6  1   
  7   4   7  1   
  8   4  25  1   
  9   5   8  1   
 10   5   9  1   
 11   5  26  1   
 12   6  10  1   
 13   6  27  1   
 14   6  28  1   
 15   7  11  1   
 16   7  29  1   
 17   7  30  1   
 18   8  12  1   
 19   8  13  2   
 20   9  31  1   
 21   9  32  1   
 22   9  33  1   
 23  10  14  1   
 24  10  34  1   
 25  10  35  1   
 26  11  14  1   
 27  11  36  1   
 28  11  37  1   
 29  12  15  1   
 30  13  16  1   
 31  14  38  1   
 32  14  39  1   
 33  15  16  2   
 34  16  17  1   
 35  17  18  ar  
 36  17  19  ar  
 37  18  20  ar  
 38  18  21  1   
 39  19  22  ar  
 40  19  40  1   
 41  20  23  ar  
 42  20  41  1   
 43  21  42  1   
 44  21  43  1   
 45  21  44  1   
 46  22  23  ar  
 47  22  45  1   
 48  23  46  1   
@<TRIPOS>SUBSTRUCTURE
  1 ****   8 GROUP 4 **** **** 0

# MOE 2024.06 (io_trps.svl 2023.06)
