@<TRIPOS>MOLECULE
N-tert-Butyl-4-(3-p-tolyl-[1,2,4]oxadiazol-5-yl)-butyramide
45 46 1 0 0 
SMALL
USER_CHARGES


@<TRIPOS>ATOM
  1 O       -1.4960    -1.5780    -2.5640 O.2   1 <1>  -0.5700 
  2 C       -1.4650    -2.2220    -1.5460 C.2   1 <1>   0.5690 
  3 N       -0.4330    -3.0790    -1.3620 N.am  1 <1>  -0.7300 
  4 C       -2.5790    -2.0460    -0.5220 C.3   1 <1>  -0.0990 
  5 C       -0.0300    -4.0150    -0.3060 C.3   1 <1>   0.3000 
  6 C       -3.4850    -0.8230    -0.7750 C.3   1 <1>  -0.1600 
  7 C        1.0470    -4.9030    -0.9250 C.3   1 <1>  -0.2400 
  8 C       -1.1990    -4.8920     0.1470 C.3   1 <1>  -0.2400 
  9 C        0.5680    -3.2300     0.8600 C.3   1 <1>  -0.2400 
 10 C       -4.4950    -0.5650     0.3570 C.3   1 <1>   0.0200 
 11 C       -5.3760    -1.7660     0.6520 C.2   1 <1>   0.2980 
 12 O       -4.9400    -2.6750     1.4850 O.3   1 <1>  -0.0190 
 13 N       -6.5220    -1.9840     0.1580 N.2   1 <1>  -0.5650 
 14 N       -5.8890    -3.5560     1.5150 N.2   1 <1>  -0.4100 
 15 C       -6.8280    -3.1530     0.7320 C.2   1 <1>   0.4620 
 16 C       -8.0760    -3.8520     0.4750 C.ar  1 <1>   0.0540 
 17 C       -9.0290    -3.3530    -0.4160 C.ar  1 <1>  -0.1500 
 18 C       -8.3750    -5.0590     1.1090 C.ar  1 <1>  -0.1500 
 19 C      -10.2150    -4.0220    -0.6590 C.ar  1 <1>  -0.1500 
 20 C       -9.5600    -5.7310     0.8700 C.ar  1 <1>  -0.1500 
 21 C      -10.4900    -5.2160    -0.0160 C.ar  1 <1>  -0.1440 
 22 C      -11.7900    -5.9520    -0.2830 C.3   1 <1>  -0.0970 
 23 H        0.2290    -3.0650    -2.1380 H     1 <1>   0.3700 
 24 H       -2.1390    -1.9550     0.4510 H     1 <1>   0.0800 
 25 H       -3.1800    -2.9350    -0.5500 H     1 <1>   0.0800 
 26 H       -4.0210    -0.9720    -1.6980 H     1 <1>   0.0800 
 27 H       -2.8710     0.0540    -0.8970 H     1 <1>   0.0800 
 28 H        0.6480    -5.4520    -1.7600 H     1 <1>   0.0800 
 29 H        1.4080    -5.6120    -0.2010 H     1 <1>   0.0800 
 30 H        1.8830    -4.3130    -1.2580 H     1 <1>   0.0800 
 31 H       -0.8360    -5.7010     0.7550 H     1 <1>   0.0800 
 32 H       -1.7070    -5.3120    -0.7030 H     1 <1>   0.0800 
 33 H       -1.8980    -4.3410     0.7460 H     1 <1>   0.0800 
 34 H        0.9460    -3.9070     1.6040 H     1 <1>   0.0800 
 35 H       -0.1690    -2.6060     1.3260 H     1 <1>   0.0800 
 36 H        1.3810    -2.6140     0.5200 H     1 <1>   0.0800 
 37 H       -5.1260     0.2590     0.0770 H     1 <1>   0.0800 
 38 H       -3.9740    -0.2860     1.2550 H     1 <1>   0.0800 
 39 H       -8.8380    -2.4270    -0.9280 H     1 <1>   0.1500 
 40 H       -7.6670    -5.4790     1.8030 H     1 <1>   0.1500 
 41 H      -10.9250    -3.6070    -1.3540 H     1 <1>   0.1500 
 42 H       -9.7540    -6.6600     1.3770 H     1 <1>   0.1500 
 43 H      -12.5730    -5.2570    -0.5260 H     1 <1>   0.0800 
 44 H      -12.0910    -6.5110     0.5860 H     1 <1>   0.0800 
 45 H      -11.6600    -6.6320    -1.1050 H     1 <1>   0.0800 
@<TRIPOS>BOND
  1   1   2  2   
  2   2   3  am  
  3   2   4  1   
  4   3   5  1   
  5   3  23  1   
  6   4   6  1   
  7   4  24  1   
  8   4  25  1   
  9   5   7  1   
 10   5   8  1   
 11   5   9  1   
 12   6  10  1   
 13   6  26  1   
 14   6  27  1   
 15   7  28  1   
 16   7  29  1   
 17   7  30  1   
 18   8  31  1   
 19   8  32  1   
 20   8  33  1   
 21   9  34  1   
 22   9  35  1   
 23   9  36  1   
 24  10  11  1   
 25  10  37  1   
 26  10  38  1   
 27  11  12  1   
 28  11  13  2   
 29  12  14  1   
 30  13  15  1   
 31  14  15  2   
 32  15  16  1   
 33  16  17  ar  
 34  16  18  ar  
 35  17  19  ar  
 36  17  39  1   
 37  18  20  ar  
 38  18  40  1   
 39  19  21  ar  
 40  19  41  1   
 41  20  21  ar  
 42  20  42  1   
 43  21  22  1   
 44  22  43  1   
 45  22  44  1   
 46  22  45  1   
@<TRIPOS>SUBSTRUCTURE
  1 ****  12 GROUP 4 **** **** 0

# MOE 2024.06 (io_trps.svl 2023.06)
