@<TRIPOS>MOLECULE
N-(4-Methoxy-2,5-dimethyl-phenyl)-2-(4-methyl-6-oxo-1,6-dihydro-pyrimidin-2-ylsu
42 43 1 0 0 
SMALL
USER_CHARGES


@<TRIPOS>ATOM
  1 S        0.1280    -1.0170     0.7450 S.3   1 <1>  -0.3710 
  2 C       -1.3940    -0.1130     0.9240 C.2   1 <1>   0.6410 
  3 C       -0.2570    -2.5450    -0.2470 C.3   1 <1>   0.1310 
  4 N       -2.5040    -0.6380     0.3300 N.pl3 1 <1>  -0.5500 
  5 N       -1.3520     0.9730     1.5980 N.2   1 <1>  -0.6610 
  6 C        0.9810    -3.3970    -0.4810 C.2   1 <1>   0.5690 
  7 C       -3.7070     0.0030     0.4270 C.2   1 <1>  -0.0380 
  8 C       -2.5310     1.6510     1.7240 C.2   1 <1>   0.7670 
  9 O        0.8580    -4.3490    -1.2120 O.2   1 <1>  -0.5700 
 10 N        2.1490    -3.0420     0.1360 N.am  1 <1>  -0.5470 
 11 C       -3.7240     1.1570     1.1300 C.2   1 <1>  -0.1360 
 12 C       -4.9100    -0.6210    -0.2500 C.3   1 <1>  -0.1020 
 13 O       -2.5420     2.6930     2.3580 O.2   1 <1>  -0.5700 
 14 C        3.4480    -3.5840     0.1290 C.ar  1 <1>   0.1170 
 15 C        4.5050    -2.8150     0.6180 C.ar  1 <1>  -0.1430 
 16 C        3.7160    -4.8680    -0.3360 C.ar  1 <1>  -0.1500 
 17 C        5.7900    -3.3340     0.6280 C.ar  1 <1>  -0.1500 
 18 C        4.2770    -1.4010     1.1440 C.3   1 <1>  -0.0970 
 19 C        4.9980    -5.3890    -0.3290 C.ar  1 <1>  -0.1430 
 20 C        6.0480    -4.6180     0.1570 C.ar  1 <1>   0.0830 
 21 C        5.2450    -6.7970    -0.8510 C.3   1 <1>  -0.0970 
 22 O        7.2950    -5.1700     0.1460 O.3   1 <1>  -0.3630 
 23 C        8.4210    -4.4540     0.6000 C.3   1 <1>   0.0400 
 24 H       -0.6560    -2.2260    -1.1920 H     1 <1>   0.0800 
 25 H       -0.9870    -3.1120     0.3000 H     1 <1>   0.0800 
 26 H       -2.4220    -1.5100    -0.1890 H     1 <1>   0.4000 
 27 H        2.0770    -2.1790     0.6780 H     1 <1>   0.3700 
 28 H       -4.6080     1.7470     1.2740 H     1 <1>   0.1500 
 29 H       -4.7390    -0.7050    -1.3090 H     1 <1>   0.0800 
 30 H       -5.7850    -0.0150    -0.0940 H     1 <1>   0.0800 
 31 H       -5.0980    -1.6000     0.1540 H     1 <1>   0.0800 
 32 H        2.9120    -5.4740    -0.7070 H     1 <1>   0.1500 
 33 H        6.5880    -2.7260     1.0070 H     1 <1>   0.1500 
 34 H        3.6300    -1.4260     2.0020 H     1 <1>   0.0800 
 35 H        3.8290    -0.7900     0.3800 H     1 <1>   0.0800 
 36 H        5.2040    -0.9420     1.4360 H     1 <1>   0.0800 
 37 H        4.3340    -7.2500    -1.1950 H     1 <1>   0.0800 
 38 H        5.6590    -7.4060    -0.0680 H     1 <1>   0.0800 
 39 H        5.9420    -6.7630    -1.6680 H     1 <1>   0.0800 
 40 H        9.2840    -5.0850     0.4880 H     1 <1>   0.0800 
 41 H        8.2810    -4.2070     1.6380 H     1 <1>   0.0800 
 42 H        8.5350    -3.5680     0.0020 H     1 <1>   0.0800 
@<TRIPOS>BOND
  1   1   2  1   
  2   1   3  1   
  3   2   4  1   
  4   2   5  2   
  5   3   6  1   
  6   3  24  1   
  7   3  25  1   
  8   4   7  1   
  9   4  26  1   
 10   5   8  1   
 11   6   9  2   
 12   6  10  am  
 13   7  11  2   
 14   7  12  1   
 15   8  11  1   
 16   8  13  2   
 17  10  14  1   
 18  10  27  1   
 19  11  28  1   
 20  12  29  1   
 21  12  30  1   
 22  12  31  1   
 23  14  15  ar  
 24  14  16  ar  
 25  15  17  ar  
 26  15  18  1   
 27  16  19  ar  
 28  16  32  1   
 29  17  20  ar  
 30  17  33  1   
 31  18  34  1   
 32  18  35  1   
 33  18  36  1   
 34  19  20  ar  
 35  19  21  1   
 36  20  22  1   
 37  21  37  1   
 38  21  38  1   
 39  21  39  1   
 40  22  23  1   
 41  23  40  1   
 42  23  41  1   
 43  23  42  1   
@<TRIPOS>SUBSTRUCTURE
  1 ****  10 GROUP 4 **** **** 0

# MOE 2024.06 (io_trps.svl 2023.06)
