@<TRIPOS>MOLECULE
2-(8-Cyclohexyl-1,6,7-trimethyl-2,4-dioxo-1,2,4,8-tetrahydro-imidazo[2,1-f]purin
52 55 1 0 0 
SMALL
USER_CHARGES


@<TRIPOS>ATOM
  1 O        0.7010    -0.0060     0.3390 O.2   1 <1>  -0.5740 
  2 C        1.6540     0.7100     0.1090 C.2   1 <1>   0.6860 
  3 N        1.4500     2.0410    -0.2200 N.am  1 <1>  -0.4260 
  4 N        2.9440     0.1980     0.1820 N.am  1 <1>  -0.4410 
  5 C        2.5100     2.8780    -0.5320 C.2   1 <1>   0.6990 
  6 C        0.1910     2.6880     0.2710 C.3   1 <1>   0.1940 
  7 C        3.9980     1.0670    -0.0170 C.2   1 <1>   0.4210 
  8 C        3.1730    -1.2290     0.5560 C.3   1 <1>   0.0520 
  9 O        2.2990     4.0080    -0.9400 O.2   1 <1>  -0.5740 
 10 C        3.8320     2.3660    -0.3700 C.2   1 <1>   0.2710 
 11 C        0.3190     3.0710     1.7480 C.2   1 <1>   0.5650 
 12 N        5.3300     0.7970     0.0990 N.pl3 1 <1>  -0.7040 
 13 N        5.1230     2.9100    -0.4800 N.pl3 1 <1>  -0.6330 
 14 O        1.4120     3.1250     2.2610 O.2   1 <1>  -0.5740 
 15 N       -0.7770     3.3470     2.4820 N.am  1 <1>  -0.8030 
 16 C        5.9730     1.9380    -0.1800 C.cat 1 <1>   1.0690 
 17 C        5.8760     4.0370    -0.7270 C.2   1 <1>   0.2340 
 18 N        7.2430     2.3530    -0.2280 N.pl3 1 <1>  -0.5720 
 19 C        7.1790     3.6960    -0.5750 C.2   1 <1>   0.1580 
 20 C        5.2040     5.3470    -1.0890 C.3   1 <1>  -0.1090 
 21 C        8.4610     1.5530     0.0510 C.3   1 <1>   0.2410 
 22 C        8.4270     4.5490    -0.7280 C.3   1 <1>  -0.1090 
 23 C        8.5710     0.3870    -0.9440 C.3   1 <1>  -0.1670 
 24 C        8.4540     1.0680     1.5080 C.3   1 <1>  -0.1670 
 25 C        9.8000    -0.4790    -0.6380 C.3   1 <1>  -0.1670 
 26 C        9.6830     0.1970     1.8010 C.3   1 <1>  -0.1670 
 27 C        9.7830    -0.9730     0.8140 C.3   1 <1>  -0.1670 
 28 H       -0.6390     2.0150     0.1490 H     1 <1>   0.0720 
 29 H       -0.0190     3.5720    -0.3020 H     1 <1>   0.0720 
 30 H        2.3260    -1.8320     0.2730 H     1 <1>   0.0720 
 31 H        3.3080    -1.3070     1.6210 H     1 <1>   0.0720 
 32 H        4.0400    -1.6160     0.0530 H     1 <1>   0.0720 
 33 H        5.7840    -0.0680     0.3820 H     1 <1>   0.4450 
 34 H       -0.6660     3.5910     3.4690 H     1 <1>   0.3640 
 35 H       -1.7390     3.3000     2.1430 H     1 <1>   0.3640 
 36 H        4.6300     5.2290    -1.9910 H     1 <1>   0.0720 
 37 H        5.9290     6.1250    -1.2450 H     1 <1>   0.0720 
 38 H        4.5410     5.6500    -0.2990 H     1 <1>   0.0720 
 39 H        9.3300     2.1750    -0.0810 H     1 <1>   0.0720 
 40 H        8.9730     4.5750     0.1980 H     1 <1>   0.0720 
 41 H        8.1740     5.5580    -0.9990 H     1 <1>   0.0720 
 42 H        9.0610     4.1420    -1.4960 H     1 <1>   0.0720 
 43 H        8.6590     0.7740    -1.9440 H     1 <1>   0.0720 
 44 H        7.7010    -0.2410    -0.8950 H     1 <1>   0.0720 
 45 H        7.5760     0.4850     1.7130 H     1 <1>   0.0720 
 46 H        8.4650     1.9160     2.1710 H     1 <1>   0.0720 
 47 H       10.6960     0.0940    -0.8070 H     1 <1>   0.0720 
 48 H        9.8250    -1.3240    -1.3050 H     1 <1>   0.0720 
 49 H        9.6280    -0.1850     2.8070 H     1 <1>   0.0720 
 50 H       10.5760     0.7970     1.7300 H     1 <1>   0.0720 
 51 H       10.6840    -1.5300     1.0110 H     1 <1>   0.0720 
 52 H        8.9510    -1.6400     0.9590 H     1 <1>   0.0720 
@<TRIPOS>BOND
  1   1   2  2   
  2   2   3  am  
  3   2   4  am  
  4   3   5  am  
  5   3   6  1   
  6   4   7  1   
  7   4   8  1   
  8   5   9  2   
  9   5  10  1   
 10   6  11  1   
 11   6  28  1   
 12   6  29  1   
 13   7  10  2   
 14   7  12  1   
 15   8  30  1   
 16   8  31  1   
 17   8  32  1   
 18  10  13  1   
 19  11  14  2   
 20  11  15  am  
 21  12  16  ar  
 22  12  33  1   
 23  13  16  ar  
 24  13  17  1   
 25  15  34  1   
 26  15  35  1   
 27  16  18  ar  
 28  17  19  2   
 29  17  20  1   
 30  18  19  1   
 31  18  21  1   
 32  19  22  1   
 33  20  36  1   
 34  20  37  1   
 35  20  38  1   
 36  21  23  1   
 37  21  24  1   
 38  21  39  1   
 39  22  40  1   
 40  22  41  1   
 41  22  42  1   
 42  23  25  1   
 43  23  43  1   
 44  23  44  1   
 45  24  26  1   
 46  24  45  1   
 47  24  46  1   
 48  25  27  1   
 49  25  47  1   
 50  25  48  1   
 51  26  27  1   
 52  26  49  1   
 53  26  50  1   
 54  27  51  1   
 55  27  52  1   
@<TRIPOS>SUBSTRUCTURE
  1 ****   7 GROUP 4 **** **** 0

# MOE 2024.06 (io_trps.svl 2023.06)
