@<TRIPOS>MOLECULE
2-Oxo-1-oxa-spiro[4.4]nonane-4-carboxylic acid (4-chloro-phenyl)-amide
36 38 1 0 0 
SMALL
USER_CHARGES


@<TRIPOS>ATOM
  1 CL      -0.3970    -0.0100     1.5960 Cl    1 <1>  -0.1770 
  2 C       -2.0000    -0.0560     0.9030 C.ar  1 <1>   0.1770 
  3 C       -2.1850     0.3600    -0.4030 C.ar  1 <1>  -0.1500 
  4 C       -3.0600    -0.4990     1.6700 C.ar  1 <1>  -0.1500 
  5 C       -3.4570     0.3270    -0.9480 C.ar  1 <1>  -0.1500 
  6 C       -4.3290    -0.5270     1.1180 C.ar  1 <1>  -0.1500 
  7 C       -4.5370    -0.1270    -0.1980 C.ar  1 <1>   0.1170 
  8 N       -5.8120    -0.1510    -0.7650 N.am  1 <1>  -0.5470 
  9 C       -6.5570    -1.1240    -1.3630 C.2   1 <1>   0.5690 
 10 O       -7.6260    -0.8080    -1.8150 O.2   1 <1>  -0.5700 
 11 C       -6.1560    -2.5940    -1.5160 C.3   1 <1>  -0.0190 
 12 C       -6.4050    -3.4120    -0.2360 C.3   1 <1>   0.2800 
 13 C       -4.6770    -2.8570    -1.8190 C.3   1 <1>  -0.0990 
 14 O       -5.1410    -3.5060     0.3740 O.3   1 <1>  -0.4300 
 15 C       -6.8820    -4.8450    -0.4900 C.3   1 <1>  -0.1600 
 16 C       -7.4210    -2.8960     0.7850 C.3   1 <1>  -0.1600 
 17 C       -4.1570    -3.2870    -0.4760 C.2   1 <1>   0.6590 
 18 C       -7.4020    -5.3470     0.8620 C.3   1 <1>  -0.1600 
 19 C       -7.7480    -4.0960     1.6790 C.3   1 <1>  -0.1600 
 20 O       -2.9960    -3.4210    -0.2060 O.2   1 <1>  -0.5700 
 21 H       -1.3430     0.7030    -0.9770 H     1 <1>   0.1500 
 22 H       -2.8890    -0.8200     2.6820 H     1 <1>   0.1500 
 23 H       -3.6130     0.6520    -1.9620 H     1 <1>   0.1500 
 24 H       -5.1560    -0.8680     1.7120 H     1 <1>   0.1500 
 25 H       -6.2870     0.7530    -0.7950 H     1 <1>   0.3700 
 26 H       -6.7550    -2.9890    -2.3170 H     1 <1>   0.0800 
 27 H       -4.1550    -2.0010    -2.1990 H     1 <1>   0.0800 
 28 H       -4.5680    -3.6780    -2.5030 H     1 <1>   0.0800 
 29 H       -6.1070    -5.4770    -0.8870 H     1 <1>   0.0800 
 30 H       -7.7050    -4.8270    -1.1830 H     1 <1>   0.0800 
 31 H       -8.3190    -2.6010     0.2690 H     1 <1>   0.0800 
 32 H       -7.0570    -2.0580     1.3490 H     1 <1>   0.0800 
 33 H       -6.6260    -5.8990     1.3660 H     1 <1>   0.0800 
 34 H       -8.2580    -5.9870     0.7350 H     1 <1>   0.0800 
 35 H       -8.7830    -4.0890     1.9740 H     1 <1>   0.0800 
 36 H       -7.1330    -4.0670     2.5630 H     1 <1>   0.0800 
@<TRIPOS>BOND
  1   1   2  1   
  2   2   3  ar  
  3   2   4  ar  
  4   3   5  ar  
  5   3  21  1   
  6   4   6  ar  
  7   4  22  1   
  8   5   7  ar  
  9   5  23  1   
 10   6   7  ar  
 11   6  24  1   
 12   7   8  1   
 13   8   9  am  
 14   8  25  1   
 15   9  10  2   
 16   9  11  1   
 17  11  12  1   
 18  11  13  1   
 19  11  26  1   
 20  12  14  1   
 21  12  15  1   
 22  12  16  1   
 23  13  17  1   
 24  13  27  1   
 25  13  28  1   
 26  14  17  1   
 27  15  18  1   
 28  15  29  1   
 29  15  30  1   
 30  16  19  1   
 31  16  31  1   
 32  16  32  1   
 33  17  20  2   
 34  18  19  1   
 35  18  33  1   
 36  18  34  1   
 37  19  35  1   
 38  19  36  1   
@<TRIPOS>SUBSTRUCTURE
  1 ****  17 GROUP 4 **** **** 0

# MOE 2024.06 (io_trps.svl 2023.06)
