@<TRIPOS>MOLECULE
Methyl-(2-piperidin-1-yl-ethyl)-amine
30 30 1 0 0 
SMALL
USER_CHARGES


@<TRIPOS>ATOM
  1 N        0.0240     0.1430    -0.1600 N.4   1 <1>  -0.9590 
  2 C       -0.1170     1.4500     0.5680 C.3   1 <1>   0.3430 
  3 C       -1.1940    -0.7030     0.0700 C.3   1 <1>   0.3430 
  4 C        1.2670    -0.6270     0.2100 C.3   1 <1>   0.3430 
  5 C       -1.3240     2.2160     0.0230 C.3   1 <1>  -0.1600 
  6 C       -2.4290     0.0080    -0.4860 C.3   1 <1>  -0.1600 
  7 C        2.6030     0.0580    -0.2060 C.3   1 <1>   0.3430 
  8 C       -2.6150     1.3960     0.1380 C.3   1 <1>  -0.1600 
  9 N        3.8350    -0.7490     0.1160 N.4   1 <1>  -0.9060 
 10 C        5.0940    -0.0500    -0.3080 C.3   1 <1>   0.2630 
 11 H        0.0080     0.3610    -1.1690 H     1 <1>   0.4500 
 12 H        0.7650     2.0540     0.4400 H     1 <1>   0.0800 
 13 H       -0.2580     1.2700     1.6230 H     1 <1>   0.0800 
 14 H       -1.3300    -0.8780     1.1260 H     1 <1>   0.0800 
 15 H       -1.0870    -1.6570    -0.4220 H     1 <1>   0.0800 
 16 H        1.2210    -1.5930    -0.2680 H     1 <1>   0.0800 
 17 H        1.2700    -0.7850     1.2760 H     1 <1>   0.0800 
 18 H       -1.1500     2.4850    -1.0040 H     1 <1>   0.0800 
 19 H       -1.4390     3.1320     0.5770 H     1 <1>   0.0800 
 20 H       -3.3010    -0.5900    -0.2810 H     1 <1>   0.0800 
 21 H       -2.3480     0.0930    -1.5560 H     1 <1>   0.0800 
 22 H        2.6730     1.0100     0.2950 H     1 <1>   0.0800 
 23 H        2.5780     0.2400    -1.2680 H     1 <1>   0.0800 
 24 H       -3.4230     1.9140    -0.3530 H     1 <1>   0.0800 
 25 H       -2.8820     1.2900     1.1770 H     1 <1>   0.0800 
 26 H        3.8190    -1.6700    -0.3540 H     1 <1>   0.4500 
 27 H        3.9110    -0.9430     1.1280 H     1 <1>   0.4500 
 28 H        5.0910     0.1260    -1.3720 H     1 <1>   0.0800 
 29 H        5.9570    -0.6520    -0.0670 H     1 <1>   0.0800 
 30 H        5.1910     0.8980     0.1980 H     1 <1>   0.0800 
@<TRIPOS>BOND
  1   1   2  1   
  2   1   3  1   
  3   1   4  1   
  4   1  11  1   
  5   2   5  1   
  6   2  12  1   
  7   2  13  1   
  8   3   6  1   
  9   3  14  1   
 10   3  15  1   
 11   4   7  1   
 12   4  16  1   
 13   4  17  1   
 14   5   8  1   
 15   5  18  1   
 16   5  19  1   
 17   6   8  1   
 18   6  20  1   
 19   6  21  1   
 20   7   9  1   
 21   7  22  1   
 22   7  23  1   
 23   8  24  1   
 24   8  25  1   
 25   9  10  1   
 26   9  26  1   
 27   9  27  1   
 28  10  28  1   
 29  10  29  1   
 30  10  30  1   
@<TRIPOS>SUBSTRUCTURE
  1 ****   1 GROUP 4 **** **** 0

# MOE 2024.06 (io_trps.svl 2023.06)
