@<TRIPOS>MOLECULE
N-{1-[3-(4-tert-Butyl-phenyl)-[1,2,4]oxadiazol-5-yl]-ethyl}-4-methoxy-benzenesul
54 56 1 0 0 
SMALL
USER_CHARGES


@<TRIPOS>ATOM
  1 S       -0.2990    -1.2580    -0.5800 S.o2  1 <1>   1.4470 
  2 O        0.9020    -1.7850    -1.1790 O.2   1 <1>  -0.6500 
  3 O       -1.5830    -1.7070    -1.0630 O.2   1 <1>  -0.6500 
  4 N       -0.1510    -1.7180     1.0260 N.am  1 <1>  -0.9140 
  5 C       -0.2210     0.5540    -0.5340 C.ar  1 <1>  -0.0090 
  6 C       -1.3770    -1.8640     1.8110 C.3   1 <1>   0.4560 
  7 C       -1.2120     1.3340    -1.1200 C.ar  1 <1>  -0.1500 
  8 C        0.8340     1.2080     0.0930 C.ar  1 <1>  -0.1500 
  9 C       -2.2740    -3.0390     1.3840 C.2   1 <1>   0.2980 
 10 C       -2.1140    -0.5240     1.9200 C.3   1 <1>  -0.2400 
 11 C       -1.1630     2.7170    -1.0780 C.ar  1 <1>  -0.1500 
 12 C        0.8930     2.5900     0.1410 C.ar  1 <1>  -0.1500 
 13 O       -1.6890    -4.1780     1.1190 O.3   1 <1>  -0.0190 
 14 N       -3.5410    -3.0450     1.2760 N.2   1 <1>  -0.5650 
 15 C       -0.1030     3.3550    -0.4420 C.ar  1 <1>   0.0830 
 16 N       -2.6620    -4.9710     0.8040 N.2   1 <1>  -0.4100 
 17 C       -3.7590    -4.3040     0.8820 C.2   1 <1>   0.4620 
 18 O        0.0260     4.7000    -0.3500 O.3   1 <1>  -0.3630 
 19 C       -5.0870    -4.8180     0.5910 C.ar  1 <1>   0.0540 
 20 C       -0.9190     5.5720    -0.9310 C.3   1 <1>   0.0400 
 21 C       -5.2830    -6.1350     0.1820 C.ar  1 <1>  -0.1500 
 22 C       -6.2270    -4.0240     0.7050 C.ar  1 <1>  -0.1500 
 23 C       -6.5430    -6.6290    -0.0980 C.ar  1 <1>  -0.1500 
 24 C       -7.4900    -4.5160     0.4260 C.ar  1 <1>  -0.1500 
 25 C       -7.6760    -5.8320     0.0170 C.ar  1 <1>  -0.1430 
 26 C       -9.0640    -6.4280    -0.3090 C.3   1 <1>   0.1440 
 27 C       -9.0860    -6.9060    -1.7680 C.3   1 <1>  -0.2400 
 28 C      -10.2120    -5.4190    -0.1340 C.3   1 <1>  -0.2400 
 29 C       -9.3450    -7.6160     0.6230 C.3   1 <1>  -0.2400 
 30 H        0.2680    -2.6440     0.9490 H     1 <1>   0.4200 
 31 H       -1.0580    -2.1080     2.8100 H     1 <1>   0.0800 
 32 H       -2.0380     0.8510    -1.6170 H     1 <1>   0.1500 
 33 H        1.6180     0.6280     0.5480 H     1 <1>   0.1500 
 34 H       -2.5970    -0.2720     0.9930 H     1 <1>   0.0800 
 35 H       -1.4360     0.2590     2.2070 H     1 <1>   0.0800 
 36 H       -2.8790    -0.6010     2.6710 H     1 <1>   0.0800 
 37 H       -1.9510     3.2780    -1.5440 H     1 <1>   0.1500 
 38 H        1.7130     3.0850     0.6290 H     1 <1>   0.1500 
 39 H       -0.6040     6.5810    -0.7360 H     1 <1>   0.0800 
 40 H       -1.8800     5.3960    -0.4810 H     1 <1>   0.0800 
 41 H       -0.9500     5.3980    -1.9920 H     1 <1>   0.0800 
 42 H       -4.4320    -6.7860     0.0780 H     1 <1>   0.1500 
 43 H       -6.1250    -2.9990     1.0150 H     1 <1>   0.1500 
 44 H       -6.6310    -7.6540    -0.4100 H     1 <1>   0.1500 
 45 H       -8.3180    -3.8420     0.5370 H     1 <1>   0.1500 
 46 H       -8.8520    -6.0870    -2.4250 H     1 <1>   0.0800 
 47 H      -10.0560    -7.2890    -2.0290 H     1 <1>   0.0800 
 48 H       -8.3650    -7.6850    -1.9320 H     1 <1>   0.0800 
 49 H      -11.1560    -5.8750    -0.3720 H     1 <1>   0.0800 
 50 H      -10.0750    -4.5760    -0.7870 H     1 <1>   0.0800 
 51 H      -10.2570    -5.0720     0.8830 H     1 <1>   0.0800 
 52 H      -10.3220    -8.0230     0.4360 H     1 <1>   0.0800 
 53 H       -9.2960    -7.2970     1.6490 H     1 <1>   0.0800 
 54 H       -8.6250    -8.4000     0.4800 H     1 <1>   0.0800 
@<TRIPOS>BOND
  1   1   2  2   
  2   1   3  2   
  3   1   4  am  
  4   1   5  1   
  5   4   6  1   
  6   4  30  1   
  7   5   7  ar  
  8   5   8  ar  
  9   6   9  1   
 10   6  10  1   
 11   6  31  1   
 12   7  11  ar  
 13   7  32  1   
 14   8  12  ar  
 15   8  33  1   
 16   9  13  1   
 17   9  14  2   
 18  10  34  1   
 19  10  35  1   
 20  10  36  1   
 21  11  15  ar  
 22  11  37  1   
 23  12  15  ar  
 24  12  38  1   
 25  13  16  1   
 26  14  17  1   
 27  15  18  1   
 28  16  17  2   
 29  17  19  1   
 30  18  20  1   
 31  19  21  ar  
 32  19  22  ar  
 33  20  39  1   
 34  20  40  1   
 35  20  41  1   
 36  21  23  ar  
 37  21  42  1   
 38  22  24  ar  
 39  22  43  1   
 40  23  25  ar  
 41  23  44  1   
 42  24  25  ar  
 43  24  45  1   
 44  25  26  1   
 45  26  27  1   
 46  26  28  1   
 47  26  29  1   
 48  27  46  1   
 49  27  47  1   
 50  27  48  1   
 51  28  49  1   
 52  28  50  1   
 53  28  51  1   
 54  29  52  1   
 55  29  53  1   
 56  29  54  1   
@<TRIPOS>SUBSTRUCTURE
  1 ****  14 GROUP 4 **** **** 0

# MOE 2024.06 (io_trps.svl 2023.06)
