@<TRIPOS>MOLECULE
1-(1-Chloro-naphthalen-2-yloxy)-3-(3,4,5-trimethyl-pyrazol-1-yl)-propan-2-ol
45 47 1 0 0 
SMALL
USER_CHARGES


@<TRIPOS>ATOM
  1 CL      -0.1360     2.6540    -2.0670 Cl    1 <1>  -0.1770 
  2 C        1.1730     2.3780    -0.9290 C.ar  1 <1>   0.1770 
  3 C        1.3290     3.2460     0.1240 C.ar  1 <1>   0.0830 
  4 C        2.0190     1.2640    -1.1220 C.ar  1 <1>   0.0000 
  5 O        0.4860     4.2970     0.2600 O.3   1 <1>  -0.3620 
  6 C        2.3680     3.0340     1.0450 C.ar  1 <1>  -0.1500 
  7 C        3.0550     1.0570    -0.1820 C.ar  1 <1>   0.0000 
  8 C        1.8910     0.3450    -2.1890 C.ar  1 <1>  -0.1500 
  9 C       -0.0020     4.6450     1.5410 C.3   1 <1>   0.1200 
 10 C        3.2040     1.9630     0.8890 C.ar  1 <1>  -0.1500 
 11 C        3.9130    -0.0490    -0.3450 C.ar  1 <1>  -0.1500 
 12 C        2.7390    -0.7190    -2.3200 C.ar  1 <1>  -0.1500 
 13 C       -1.3470     5.3510     1.3700 C.3   1 <1>   0.2000 
 14 C        3.7610    -0.9200    -1.3880 C.ar  1 <1>  -0.1500 
 15 O       -1.8440     5.6450     2.6300 O.3   1 <1>  -0.6800 
 16 C       -2.3670     4.4870     0.6170 C.3   1 <1>   0.0960 
 17 N       -3.6130     5.2440     0.3800 N.pl3 1 <1>   0.3140 
 18 N       -4.3850     5.6470     1.4080 N.2   1 <1>  -0.7070 
 19 C       -4.1210     5.6500    -0.8080 C.2   1 <1>  -0.3320 
 20 C       -5.3640     6.2890     0.8570 C.2   1 <1>   0.1080 
 21 C       -5.2570     6.3290    -0.5300 C.2   1 <1>  -0.1810 
 22 C       -3.4690     5.3560    -2.1530 C.3   1 <1>  -0.0600 
 23 C       -6.4750     6.9120     1.6700 C.3   1 <1>  -0.0590 
 24 C       -6.2390     7.0060    -1.4690 C.3   1 <1>  -0.0590 
 25 H        2.5060     3.7180     1.8620 H     1 <1>   0.1500 
 26 H        1.1090     0.4900    -2.9120 H     1 <1>   0.1500 
 27 H        0.7120     5.3000     2.0090 H     1 <1>   0.0800 
 28 H       -0.1270     3.7460     2.1190 H     1 <1>   0.0800 
 29 H        4.0030     1.7940     1.5900 H     1 <1>   0.1500 
 30 H        4.6990    -0.2000     0.3730 H     1 <1>   0.1500 
 31 H        2.6330    -1.4130    -3.1370 H     1 <1>   0.1500 
 32 H       -1.2000     6.2830     0.8510 H     1 <1>   0.0800 
 33 H        4.4200    -1.7630    -1.5070 H     1 <1>   0.1500 
 34 H       -2.8130     5.8460     2.5320 H     1 <1>   0.4000 
 35 H       -2.5990     3.6070     1.1870 H     1 <1>   0.0800 
 36 H       -1.9620     4.1800    -0.3270 H     1 <1>   0.0800 
 37 H       -3.4090     4.2940    -2.3110 H     1 <1>   0.0800 
 38 H       -2.4760     5.7700    -2.1820 H     1 <1>   0.0800 
 39 H       -4.0340     5.7840    -2.9590 H     1 <1>   0.0800 
 40 H       -6.3520     6.6630     2.7080 H     1 <1>   0.0800 
 41 H       -7.4250     6.5410     1.3340 H     1 <1>   0.0800 
 42 H       -6.4480     7.9800     1.5630 H     1 <1>   0.0800 
 43 H       -5.9260     6.9140    -2.4910 H     1 <1>   0.0800 
 44 H       -6.3120     8.0510    -1.2260 H     1 <1>   0.0800 
 45 H       -7.2090     6.5550    -1.3660 H     1 <1>   0.0800 
@<TRIPOS>BOND
  1   1   2  1   
  2   2   3  ar  
  3   2   4  ar  
  4   3   5  1   
  5   3   6  ar  
  6   4   7  ar  
  7   4   8  ar  
  8   5   9  1   
  9   6  10  ar  
 10   6  25  1   
 11   7  10  ar  
 12   7  11  ar  
 13   8  12  ar  
 14   8  26  1   
 15   9  13  1   
 16   9  27  1   
 17   9  28  1   
 18  10  29  1   
 19  11  14  ar  
 20  11  30  1   
 21  12  14  ar  
 22  12  31  1   
 23  13  15  1   
 24  13  16  1   
 25  13  32  1   
 26  14  33  1   
 27  15  34  1   
 28  16  17  1   
 29  16  35  1   
 30  16  36  1   
 31  17  18  1   
 32  17  19  1   
 33  18  20  2   
 34  19  21  2   
 35  19  22  1   
 36  20  21  1   
 37  20  23  1   
 38  21  24  1   
 39  22  37  1   
 40  22  38  1   
 41  22  39  1   
 42  23  40  1   
 43  23  41  1   
 44  23  42  1   
 45  24  43  1   
 46  24  44  1   
 47  24  45  1   
@<TRIPOS>SUBSTRUCTURE
  1 ****   5 GROUP 4 **** **** 0

# MOE 2024.06 (io_trps.svl 2023.06)
