@<TRIPOS>MOLECULE
1-(3-Chloro-benzyl)-piperidine-4-carboxylic acid diallylamide
49 50 1 0 0 
SMALL
USER_CHARGES


@<TRIPOS>ATOM
  1 CL      -4.0860     2.2790     3.0730 Cl    1 <1>  -0.1770 
  2 C       -2.9300     2.4690     1.7820 C.ar  1 <1>   0.1770 
  3 C       -3.1940     3.3750     0.7730 C.ar  1 <1>  -0.1500 
  4 C       -1.7720     1.7170     1.7890 C.ar  1 <1>  -0.1500 
  5 C       -2.2760     3.5440    -0.2550 C.ar  1 <1>  -0.1440 
  6 C       -0.8590     1.8770     0.7610 C.ar  1 <1>  -0.1500 
  7 C       -1.1110     2.7850    -0.2560 C.ar  1 <1>  -0.1500 
  8 C       -2.5420     4.5470    -1.3620 C.3   1 <1>   0.4870 
  9 N       -1.6890     5.7470    -1.1390 N.4   1 <1>  -0.9590 
 10 C       -2.0330     6.4520     0.1310 C.3   1 <1>   0.3430 
 11 C       -1.7140     6.6630    -2.3120 C.3   1 <1>   0.3430 
 12 C       -1.0160     7.5600     0.3870 C.3   1 <1>  -0.1600 
 13 C       -0.6900     7.7770    -2.1080 C.3   1 <1>  -0.1600 
 14 C       -0.9230     8.5470    -0.7920 C.3   1 <1>  -0.0190 
 15 C        0.1950     9.5660    -0.5330 C.2   1 <1>   0.5690 
 16 O        1.3250     9.1460    -0.6200 O.2   1 <1>  -0.5700 
 17 N       -0.0590    10.8730    -0.2040 N.am  1 <1>  -0.6600 
 18 C       -1.4060    11.4810    -0.0520 C.3   1 <1>   0.2780 
 19 C        1.0630    11.8180     0.0430 C.3   1 <1>   0.2780 
 20 C       -2.0780    10.9150     1.1840 C.2   1 <1>  -0.2880 
 21 C        1.0990    12.8390    -1.0780 C.2   1 <1>  -0.2880 
 22 C       -3.2980    10.3690     1.2310 C.2   1 <1>  -0.3000 
 23 C        0.9260    14.1580    -0.9380 C.2   1 <1>  -0.3000 
 24 H       -4.1150     3.9310     0.8100 H     1 <1>   0.1500 
 25 H       -1.5920     1.0170     2.5860 H     1 <1>   0.1500 
 26 H        0.0460     1.2910     0.7540 H     1 <1>   0.1500 
 27 H       -0.3850     2.8840    -1.0470 H     1 <1>   0.1500 
 28 H       -3.5840     4.8240    -1.3660 H     1 <1>   0.0800 
 29 H       -2.3050     4.0950    -2.3110 H     1 <1>   0.0800 
 30 H       -0.7250     5.4060    -1.0250 H     1 <1>   0.4500 
 31 H       -2.0140     5.7600     0.9590 H     1 <1>   0.0800 
 32 H       -3.0220     6.8750     0.0630 H     1 <1>   0.0800 
 33 H       -2.6970     7.0910    -2.4230 H     1 <1>   0.0800 
 34 H       -1.4740     6.1200    -3.2130 H     1 <1>   0.0800 
 35 H       -0.0520     7.1190     0.5740 H     1 <1>   0.0800 
 36 H       -1.2960     8.0940     1.2780 H     1 <1>   0.0800 
 37 H       -0.7440     8.4640    -2.9340 H     1 <1>   0.0800 
 38 H        0.2970     7.3470    -2.1180 H     1 <1>   0.0800 
 39 H       -1.8640     9.0530    -0.8830 H     1 <1>   0.0800 
 40 H       -1.9950    11.2940    -0.9330 H     1 <1>   0.0800 
 41 H       -1.3190    12.5490     0.0560 H     1 <1>   0.0800 
 42 H        2.0070    11.3010     0.0850 H     1 <1>   0.0800 
 43 H        0.9160    12.3070     0.9900 H     1 <1>   0.0800 
 44 H       -1.4550    11.0090     2.0580 H     1 <1>   0.1500 
 45 H        1.2880    12.3770    -2.0330 H     1 <1>   0.1500 
 46 H       -3.7460     9.9860     2.1330 H     1 <1>   0.1500 
 47 H       -3.9580    10.2710     0.3850 H     1 <1>   0.1500 
 48 H        0.7390    14.6530    -0.0010 H     1 <1>   0.1500 
 49 H        0.9600    14.8560    -1.7580 H     1 <1>   0.1500 
@<TRIPOS>BOND
  1   1   2  1   
  2   2   3  ar  
  3   2   4  ar  
  4   3   5  ar  
  5   3  24  1   
  6   4   6  ar  
  7   4  25  1   
  8   5   7  ar  
  9   5   8  1   
 10   6   7  ar  
 11   6  26  1   
 12   7  27  1   
 13   8   9  1   
 14   8  28  1   
 15   8  29  1   
 16   9  10  1   
 17   9  11  1   
 18   9  30  1   
 19  10  12  1   
 20  10  31  1   
 21  10  32  1   
 22  11  13  1   
 23  11  33  1   
 24  11  34  1   
 25  12  14  1   
 26  12  35  1   
 27  12  36  1   
 28  13  14  1   
 29  13  37  1   
 30  13  38  1   
 31  14  15  1   
 32  14  39  1   
 33  15  16  2   
 34  15  17  am  
 35  17  18  1   
 36  17  19  1   
 37  18  20  1   
 38  18  40  1   
 39  18  41  1   
 40  19  21  1   
 41  19  42  1   
 42  19  43  1   
 43  20  22  2   
 44  20  44  1   
 45  21  23  2   
 46  21  45  1   
 47  22  46  1   
 48  22  47  1   
 49  23  48  1   
 50  23  49  1   
@<TRIPOS>SUBSTRUCTURE
  1 ****  12 GROUP 4 **** **** 0

# MOE 2024.06 (io_trps.svl 2023.06)
