@<TRIPOS>MOLECULE
1-(4-Methoxy-3-methyl-benzenesulfonyl)-piperidine-4-carboxylic acid (2-ethyl-6-m
60 62 1 0 0 
SMALL
USER_CHARGES


@<TRIPOS>ATOM
  1 S        0.3040    -0.2280    -2.2800 S.o2  1 <1>   1.4470 
  2 O        0.7840    -1.4230    -2.9400 O.2   1 <1>  -0.6500 
  3 O       -0.0940     0.9110    -3.0820 O.2   1 <1>  -0.6500 
  4 N        1.5540     0.3180    -1.2720 N.am  1 <1>  -0.8490 
  5 C       -1.0070    -0.6730    -1.1090 C.ar  1 <1>  -0.0090 
  6 C        1.2220     1.5950    -0.6320 C.3   1 <1>   0.1960 
  7 C        2.8240     0.3910    -1.9960 C.3   1 <1>   0.1960 
  8 C       -2.2930    -0.1590    -1.2330 C.ar  1 <1>  -0.1500 
  9 C       -0.7540    -1.5380    -0.0520 C.ar  1 <1>  -0.1500 
 10 C        2.3040     1.9720     0.3820 C.3   1 <1>  -0.1600 
 11 C        3.9640     0.7410    -1.0360 C.3   1 <1>  -0.1600 
 12 C       -3.2970    -0.4850    -0.3360 C.ar  1 <1>  -0.1430 
 13 C       -1.7430    -1.8770     0.8530 C.ar  1 <1>  -0.1500 
 14 C        3.6890     2.0550    -0.2860 C.3   1 <1>  -0.0190 
 15 C       -3.0240    -1.3500     0.7190 C.ar  1 <1>   0.0830 
 16 C       -4.6900     0.1040    -0.5130 C.3   1 <1>  -0.0970 
 17 C        4.8140     2.3650     0.7010 C.2   1 <1>   0.5690 
 18 O       -4.0360    -1.6420     1.5770 O.3   1 <1>  -0.3630 
 19 O        4.6900     2.0750     1.8660 O.2   1 <1>  -0.5700 
 20 N        5.9390     2.9550     0.2030 N.am  1 <1>  -0.5470 
 21 C       -3.8590    -2.5230     2.6640 C.3   1 <1>   0.0400 
 22 C        7.1130     3.2920     0.8930 C.ar  1 <1>   0.1170 
 23 C        8.0520     2.3160     1.2410 C.ar  1 <1>  -0.1430 
 24 C        7.3640     4.6310     1.2040 C.ar  1 <1>  -0.1430 
 25 C        9.2230     2.6900     1.8800 C.ar  1 <1>  -0.1500 
 26 C        7.8400     0.8330     0.9420 C.3   1 <1>  -0.0170 
 27 C        8.5400     4.9820     1.8430 C.ar  1 <1>  -0.1500 
 28 C        6.3570     5.7220     0.8630 C.3   1 <1>  -0.0970 
 29 C        9.4700     4.0170     2.1790 C.ar  1 <1>  -0.1500 
 30 C        8.2300     0.5000    -0.5000 C.3   1 <1>  -0.2400 
 31 H        0.2790     1.5120    -0.1170 H     1 <1>   0.0800 
 32 H        1.1310     2.3700    -1.3760 H     1 <1>   0.0800 
 33 H        2.7550     1.1270    -2.7810 H     1 <1>   0.0800 
 34 H        3.0400    -0.5630    -2.4490 H     1 <1>   0.0800 
 35 H       -2.5060     0.5090    -2.0500 H     1 <1>   0.1500 
 36 H        0.2350    -1.9500     0.0600 H     1 <1>   0.1500 
 37 H        2.3140     1.2320     1.1640 H     1 <1>   0.0800 
 38 H        2.0610     2.9180     0.8320 H     1 <1>   0.0800 
 39 H        4.8820     0.8180    -1.5910 H     1 <1>   0.0800 
 40 H        4.0770    -0.0620    -0.3270 H     1 <1>   0.0800 
 41 H       -1.4960    -2.5490     1.6530 H     1 <1>   0.1500 
 42 H        3.6560     2.8540    -1.0040 H     1 <1>   0.0800 
 43 H       -4.7360     0.7490    -1.3710 H     1 <1>   0.0800 
 44 H       -4.9580     0.6720     0.3600 H     1 <1>   0.0800 
 45 H       -5.4050    -0.6890    -0.6400 H     1 <1>   0.0800 
 46 H        5.9340     3.2140    -0.7790 H     1 <1>   0.3700 
 47 H       -4.7940    -2.5970     3.1890 H     1 <1>   0.0800 
 48 H       -3.1040    -2.1230     3.3180 H     1 <1>   0.0800 
 49 H       -3.5730    -3.4890     2.2880 H     1 <1>   0.0800 
 50 H        9.9540     1.9490     2.1500 H     1 <1>   0.1500 
 51 H        6.8160     0.5580     1.1200 H     1 <1>   0.0800 
 52 H        8.4370     0.2410     1.6130 H     1 <1>   0.0800 
 53 H        8.7430     6.0100     2.0880 H     1 <1>   0.1500 
 54 H        6.2380     5.7960    -0.2020 H     1 <1>   0.0800 
 55 H        6.6790     6.6760     1.2370 H     1 <1>   0.0800 
 56 H        5.4060     5.4900     1.3090 H     1 <1>   0.0800 
 57 H       10.3820     4.2960     2.6760 H     1 <1>   0.1500 
 58 H        7.6260     1.0610    -1.1900 H     1 <1>   0.0800 
 59 H        8.0870    -0.5490    -0.6880 H     1 <1>   0.0800 
 60 H        9.2630     0.7450    -0.6680 H     1 <1>   0.0800 
@<TRIPOS>BOND
  1   1   2  2   
  2   1   3  2   
  3   1   4  am  
  4   1   5  1   
  5   4   6  1   
  6   4   7  1   
  7   5   8  ar  
  8   5   9  ar  
  9   6  10  1   
 10   6  31  1   
 11   6  32  1   
 12   7  11  1   
 13   7  33  1   
 14   7  34  1   
 15   8  12  ar  
 16   8  35  1   
 17   9  13  ar  
 18   9  36  1   
 19  10  14  1   
 20  10  37  1   
 21  10  38  1   
 22  11  14  1   
 23  11  39  1   
 24  11  40  1   
 25  12  15  ar  
 26  12  16  1   
 27  13  15  ar  
 28  13  41  1   
 29  14  17  1   
 30  14  42  1   
 31  15  18  1   
 32  16  43  1   
 33  16  44  1   
 34  16  45  1   
 35  17  19  2   
 36  17  20  am  
 37  18  21  1   
 38  20  22  1   
 39  20  46  1   
 40  21  47  1   
 41  21  48  1   
 42  21  49  1   
 43  22  23  ar  
 44  22  24  ar  
 45  23  25  ar  
 46  23  26  1   
 47  24  27  ar  
 48  24  28  1   
 49  25  29  ar  
 50  25  50  1   
 51  26  30  1   
 52  26  51  1   
 53  26  52  1   
 54  27  29  ar  
 55  27  53  1   
 56  28  54  1   
 57  28  55  1   
 58  28  56  1   
 59  29  57  1   
 60  30  58  1   
 61  30  59  1   
 62  30  60  1   
@<TRIPOS>SUBSTRUCTURE
  1 ****  10 GROUP 4 **** **** 0

# MOE 2024.06 (io_trps.svl 2023.06)
