@<TRIPOS>MOLECULE
4-Fluoro-N-[2-(4-isobutyryl-piperazin-1-yl)-phenyl]-benzamide
51 53 1 0 0 
SMALL
USER_CHARGES


@<TRIPOS>ATOM
  1 F        0.3680     1.1000     1.9640 F     1 <1>  -0.1900 
  2 C        1.4680     1.6740     1.5660 C.ar  1 <1>   0.1900 
  3 C        1.3870     2.7680     0.7270 C.ar  1 <1>  -0.1500 
  4 C        2.6800     1.1720     1.9980 C.ar  1 <1>  -0.1500 
  5 C        2.5620     3.3680     0.3080 C.ar  1 <1>  -0.1500 
  6 C        3.8440     1.7850     1.5690 C.ar  1 <1>  -0.1500 
  7 C        3.8150     2.8920     0.7090 C.ar  1 <1>   0.0860 
  8 C        5.0330     3.5310     0.2420 C.2   1 <1>   0.5440 
  9 O        5.0240     4.6990    -0.0940 O.2   1 <1>  -0.5700 
 10 N        6.1890     2.7980     0.1640 N.am  1 <1>  -0.5470 
 11 C        7.5220     3.0730    -0.1770 C.ar  1 <1>   0.1170 
 12 C        8.3950     1.9750    -0.1800 C.ar  1 <1>   0.1000 
 13 C        8.0060     4.3350    -0.4960 C.ar  1 <1>  -0.1500 
 14 N        7.9090     0.6930     0.1440 N.pl3 1 <1>  -0.8380 
 15 C        9.7300     2.1730    -0.5070 C.ar  1 <1>  -0.1500 
 16 C        9.3400     4.5160    -0.8190 C.ar  1 <1>  -0.1500 
 17 C        7.7290    -0.2760    -0.9850 C.3   1 <1>   0.2090 
 18 C        8.3530     0.0880     1.4440 C.3   1 <1>   0.2090 
 19 C       10.2030     3.4350    -0.8240 C.ar  1 <1>  -0.1500 
 20 C        8.8810    -1.2920    -1.1010 C.3   1 <1>   0.1400 
 21 C        9.4930    -0.9300     1.2730 C.3   1 <1>   0.1400 
 22 N        9.1610    -1.9370     0.2190 N.am  1 <1>  -0.6600 
 23 C        8.9510    -3.2560     0.5430 C.2   1 <1>   0.5690 
 24 O        8.9570    -3.6160     1.6980 O.2   1 <1>  -0.5700 
 25 C        8.6830    -4.3120    -0.5450 C.3   1 <1>  -0.0190 
 26 C        7.1810    -4.4110    -0.8650 C.3   1 <1>  -0.2400 
 27 C        9.2160    -5.7060    -0.1640 C.3   1 <1>  -0.2400 
 28 H        0.4280     3.1370     0.4130 H     1 <1>   0.1500 
 29 H        2.7030     0.3220     2.6560 H     1 <1>   0.1500 
 30 H        2.5160     4.2240    -0.3450 H     1 <1>   0.1500 
 31 H        4.7870     1.4020     1.9170 H     1 <1>   0.1500 
 32 H        6.1070     1.7970     0.3550 H     1 <1>   0.3700 
 33 H        7.3470     5.1830    -0.4940 H     1 <1>   0.1500 
 34 H       10.4030     1.3390    -0.5140 H     1 <1>   0.1500 
 35 H        9.7020     5.5000    -1.0640 H     1 <1>   0.1500 
 36 H        7.6420     0.2680    -1.9110 H     1 <1>   0.0800 
 37 H        6.8080    -0.8110    -0.8360 H     1 <1>   0.0800 
 38 H        7.5150    -0.4090     1.9010 H     1 <1>   0.0800 
 39 H        8.6730     0.8690     2.1120 H     1 <1>   0.0800 
 40 H       11.2390     3.5760    -1.0760 H     1 <1>   0.1500 
 41 H        9.7660    -0.7820    -1.4370 H     1 <1>   0.0800 
 42 H        8.6230    -2.0170    -1.8470 H     1 <1>   0.0800 
 43 H        9.6770    -1.4110     2.2180 H     1 <1>   0.0800 
 44 H       10.3940    -0.4130     0.9980 H     1 <1>   0.0800 
 45 H        9.2100    -4.0220    -1.4340 H     1 <1>   0.0800 
 46 H        6.6400    -4.7330     0.0080 H     1 <1>   0.0800 
 47 H        7.0110    -5.1200    -1.6560 H     1 <1>   0.0800 
 48 H        6.7940    -3.4570    -1.1690 H     1 <1>   0.0800 
 49 H        8.7050    -6.0790     0.7080 H     1 <1>   0.0800 
 50 H       10.2660    -5.6500     0.0600 H     1 <1>   0.0800 
 51 H        9.0730    -6.4010    -0.9710 H     1 <1>   0.0800 
@<TRIPOS>BOND
  1   1   2  1   
  2   2   3  ar  
  3   2   4  ar  
  4   3   5  ar  
  5   3  28  1   
  6   4   6  ar  
  7   4  29  1   
  8   5   7  ar  
  9   5  30  1   
 10   6   7  ar  
 11   6  31  1   
 12   7   8  1   
 13   8   9  2   
 14   8  10  am  
 15  10  11  1   
 16  10  32  1   
 17  11  12  ar  
 18  11  13  ar  
 19  12  14  1   
 20  12  15  ar  
 21  13  16  ar  
 22  13  33  1   
 23  14  17  1   
 24  14  18  1   
 25  15  19  ar  
 26  15  34  1   
 27  16  19  ar  
 28  16  35  1   
 29  17  20  1   
 30  17  36  1   
 31  17  37  1   
 32  18  21  1   
 33  18  38  1   
 34  18  39  1   
 35  19  40  1   
 36  20  22  1   
 37  20  41  1   
 38  20  42  1   
 39  21  22  1   
 40  21  43  1   
 41  21  44  1   
 42  22  23  am  
 43  23  24  2   
 44  23  25  1   
 45  25  26  1   
 46  25  27  1   
 47  25  45  1   
 48  26  46  1   
 49  26  47  1   
 50  26  48  1   
 51  27  49  1   
 52  27  50  1   
 53  27  51  1   
@<TRIPOS>SUBSTRUCTURE
  1 ****  14 GROUP 4 **** **** 0

# MOE 2024.06 (io_trps.svl 2023.06)
