@<TRIPOS>MOLECULE
N-(3-Chloro-2-methyl-phenyl)-2-[2-methyl-4-(pyrrolidine-1-sulfonyl)-phenoxy]-ace
51 53 1 0 0 
SMALL
USER_CHARGES


@<TRIPOS>ATOM
  1 CL      -3.6120    -0.4420     3.6940 Cl    1 <1>  -0.1770 
  2 C       -3.9410     0.4260     2.2100 C.ar  1 <1>   0.1770 
  3 C       -4.9180    -0.0070     1.3210 C.ar  1 <1>  -0.1440 
  4 C       -3.1790     1.5530     1.9670 C.ar  1 <1>  -0.1500 
  5 C       -5.1200     0.7210     0.1430 C.ar  1 <1>   0.1170 
  6 C       -5.7560    -1.2560     1.6130 C.3   1 <1>  -0.0970 
  7 C       -3.3840     2.2730     0.8060 C.ar  1 <1>  -0.1500 
  8 N       -6.0840     0.2870    -0.7820 N.am  1 <1>  -0.5470 
  9 C       -4.3440     1.8540    -0.0950 C.ar  1 <1>  -0.1500 
 10 C       -6.7720     0.9260    -1.7780 C.2   1 <1>   0.5690 
 11 O       -6.6240     2.0890    -2.0640 O.2   1 <1>  -0.5700 
 12 C       -7.8030     0.1180    -2.5500 C.3   1 <1>   0.1810 
 13 O       -8.2200    -1.0130    -1.7930 O.3   1 <1>  -0.3630 
 14 C       -9.5460    -1.1590    -1.5980 C.ar  1 <1>   0.0830 
 15 C      -10.2550    -0.3460    -0.7170 C.ar  1 <1>  -0.1430 
 16 C      -10.1950    -2.1570    -2.3030 C.ar  1 <1>  -0.1500 
 17 C      -11.6200    -0.5430    -0.5850 C.ar  1 <1>  -0.1500 
 18 C       -9.5850     0.7440     0.1110 C.3   1 <1>  -0.0970 
 19 C      -11.5570    -2.3380    -2.1520 C.ar  1 <1>  -0.1500 
 20 C      -12.2940    -1.5320    -1.2920 C.ar  1 <1>  -0.0090 
 21 S      -14.0810    -1.7580    -1.0880 S.o2  1 <1>   1.4470 
 22 O      -14.4960    -3.0060    -1.6940 O.2   1 <1>  -0.6500 
 23 O      -14.7660    -0.5350    -1.4470 O.2   1 <1>  -0.6500 
 24 N      -14.2530    -1.9370     0.5870 N.am  1 <1>  -0.8490 
 25 C      -15.6330    -1.8350     1.0250 C.3   1 <1>   0.1960 
 26 C      -13.7700    -3.2000     1.1180 C.3   1 <1>   0.1960 
 27 C      -15.6300    -2.4040     2.4400 C.3   1 <1>  -0.1600 
 28 C      -14.3730    -3.2720     2.5140 C.3   1 <1>  -0.1600 
 29 H       -2.4340     1.8600     2.6790 H     1 <1>   0.1500 
 30 H       -5.7070    -1.5420     2.6470 H     1 <1>   0.0800 
 31 H       -5.4020    -2.0790     1.0190 H     1 <1>   0.0800 
 32 H       -6.7920    -1.0800     1.3880 H     1 <1>   0.0800 
 33 H       -2.7980     3.1530     0.6010 H     1 <1>   0.1500 
 34 H       -6.4150    -0.6680    -0.6320 H     1 <1>   0.3700 
 35 H       -4.4840     2.4200    -0.9980 H     1 <1>   0.1500 
 36 H       -7.3720    -0.2380    -3.4670 H     1 <1>   0.0800 
 37 H       -8.6530     0.7360    -2.7760 H     1 <1>   0.0800 
 38 H       -9.6330    -2.7870    -2.9700 H     1 <1>   0.1500 
 39 H      -12.1900     0.0810     0.0850 H     1 <1>   0.1500 
 40 H       -9.3860     1.6060    -0.5000 H     1 <1>   0.0800 
 41 H       -8.6610     0.3870     0.5250 H     1 <1>   0.0800 
 42 H      -10.2170     1.0470     0.9270 H     1 <1>   0.0800 
 43 H      -12.0560    -3.1140    -2.7080 H     1 <1>   0.1500 
 44 H      -16.2640    -2.4360     0.3890 H     1 <1>   0.0800 
 45 H      -15.9710    -0.8120     1.0000 H     1 <1>   0.0800 
 46 H      -12.6930    -3.2270     1.1420 H     1 <1>   0.0800 
 47 H      -14.1390    -4.0230     0.5270 H     1 <1>   0.0800 
 48 H      -16.5250    -2.9730     2.6200 H     1 <1>   0.0800 
 49 H      -15.5740    -1.6020     3.1540 H     1 <1>   0.0800 
 50 H      -13.6800    -2.8610     3.2270 H     1 <1>   0.0800 
 51 H      -14.5950    -4.2890     2.7850 H     1 <1>   0.0800 
@<TRIPOS>BOND
  1   1   2  1   
  2   2   3  ar  
  3   2   4  ar  
  4   3   5  ar  
  5   3   6  1   
  6   4   7  ar  
  7   4  29  1   
  8   5   8  1   
  9   5   9  ar  
 10   6  30  1   
 11   6  31  1   
 12   6  32  1   
 13   7   9  ar  
 14   7  33  1   
 15   8  10  am  
 16   8  34  1   
 17   9  35  1   
 18  10  11  2   
 19  10  12  1   
 20  12  13  1   
 21  12  36  1   
 22  12  37  1   
 23  13  14  1   
 24  14  15  ar  
 25  14  16  ar  
 26  15  17  ar  
 27  15  18  1   
 28  16  19  ar  
 29  16  38  1   
 30  17  20  ar  
 31  17  39  1   
 32  18  40  1   
 33  18  41  1   
 34  18  42  1   
 35  19  20  ar  
 36  19  43  1   
 37  20  21  1   
 38  21  22  2   
 39  21  23  2   
 40  21  24  am  
 41  24  25  1   
 42  24  26  1   
 43  25  27  1   
 44  25  44  1   
 45  25  45  1   
 46  26  28  1   
 47  26  46  1   
 48  26  47  1   
 49  27  28  1   
 50  27  48  1   
 51  27  49  1   
 52  28  50  1   
 53  28  51  1   
@<TRIPOS>SUBSTRUCTURE
  1 ****  15 GROUP 4 **** **** 0

# MOE 2024.06 (io_trps.svl 2023.06)
