@<TRIPOS>MOLECULE
(8,8-Dimethyl-8,9-dihydro-6H-7-oxa-11-thia-2,4,10-triaza-benzo[b]fluoren-1-yl)-(
47 50 1 0 0 
SMALL
USER_CHARGES


@<TRIPOS>ATOM
  1 S       -0.7950    -0.5970     0.6400 S.3   1 <1>  -0.0800 
  2 C       -2.2290     0.2850     0.1020 C.ar  1 <1>   0.2970 
  3 C        0.2740     0.7560     0.1990 C.ar  1 <1>   0.0400 
  4 N       -3.4350    -0.2470     0.1750 N.ar  1 <1>  -0.5670 
  5 C       -1.8730     1.5380    -0.3740 C.ar  1 <1>   0.0000 
  6 C        1.6500     0.8740     0.3140 C.ar  1 <1>   0.4100 
  7 C       -0.4580     1.7950    -0.3110 C.ar  1 <1>   0.2560 
  8 C       -4.3900     0.5550    -0.2700 C.ar  1 <1>   0.1660 
  9 C       -2.8970     2.3500    -0.8310 C.ar  1 <1>  -0.1500 
 10 N        2.2440     1.9870    -0.0580 N.ar  1 <1>  -0.6200 
 11 N        2.4970    -0.0810     0.8000 N.pl3 1 <1>  -0.8690 
 12 N        0.1370     2.9210    -0.6960 N.ar  1 <1>  -0.5660 
 13 C       -4.1800     1.8400    -0.7730 C.ar  1 <1>  -0.1430 
 14 C       -5.7980    -0.0030    -0.2280 C.3   1 <1>  -0.0170 
 15 C        1.4490     2.9370    -0.5380 C.ar  1 <1>   0.4700 
 16 C        2.3510    -1.5210     0.5190 C.3   1 <1>   0.2090 
 17 C       -5.3490     2.6970    -1.2450 C.3   1 <1>   0.2630 
 18 C       -6.8660     1.0990    -0.3080 C.3   1 <1>   0.2800 
 19 C        3.7360    -2.1360     0.3470 C.3   1 <1>  -0.1600 
 20 O       -6.5370     1.9640    -1.3500 O.3   1 <1>  -0.5600 
 21 C       -8.2230     0.5020    -0.6830 C.3   1 <1>  -0.2400 
 22 C       -7.0080     1.8850     1.0060 C.3   1 <1>  -0.2400 
 23 C        3.6280    -3.6310     0.0590 C.3   1 <1>   0.1200 
 24 O        4.9160    -4.1240    -0.0900 O.3   1 <1>  -0.5600 
 25 C        4.9750    -5.4870    -0.3580 C.3   1 <1>   0.0400 
 26 H       -2.6800     3.3340    -1.2100 H     1 <1>   0.1500 
 27 H        3.4700     0.2380     0.8040 H     1 <1>   0.4000 
 28 H       -5.9350    -0.5700     0.6740 H     1 <1>   0.0800 
 29 H       -5.9120    -0.6780    -1.0560 H     1 <1>   0.0800 
 30 H        1.9460     3.8440    -0.8410 H     1 <1>   0.1500 
 31 H        1.7740    -1.6620    -0.3800 H     1 <1>   0.0800 
 32 H        1.8370    -1.9900     1.3420 H     1 <1>   0.0800 
 33 H       -5.1400     3.1030    -2.2180 H     1 <1>   0.0800 
 34 H       -5.5140     3.5130    -0.5640 H     1 <1>   0.0800 
 35 H        4.3030    -1.9950     1.2500 H     1 <1>   0.0800 
 36 H        4.2390    -1.6580    -0.4740 H     1 <1>   0.0800 
 37 H       -8.1600    -0.0040    -1.6300 H     1 <1>   0.0800 
 38 H       -8.9640     1.2790    -0.7550 H     1 <1>   0.0800 
 39 H       -8.5410    -0.2050     0.0610 H     1 <1>   0.0800 
 40 H       -6.0590     2.2470     1.3560 H     1 <1>   0.0800 
 41 H       -7.4090     1.2450     1.7710 H     1 <1>   0.0800 
 42 H       -7.6820     2.7120     0.8740 H     1 <1>   0.0800 
 43 H        3.0840    -3.8060    -0.8550 H     1 <1>   0.0800 
 44 H        3.1540    -4.1450     0.8780 H     1 <1>   0.0800 
 45 H        6.0100    -5.7630    -0.4530 H     1 <1>   0.0800 
 46 H        4.4590    -5.6910    -1.2800 H     1 <1>   0.0800 
 47 H        4.5280    -6.0290     0.4570 H     1 <1>   0.0800 
@<TRIPOS>BOND
  1   1   2  1   
  2   1   3  1   
  3   2   4  ar  
  4   2   5  ar  
  5   3   6  ar  
  6   3   7  ar  
  7   4   8  ar  
  8   5   7  1   
  9   5   9  ar  
 10   6  10  ar  
 11   6  11  1   
 12   7  12  ar  
 13   8  13  ar  
 14   8  14  1   
 15   9  13  ar  
 16   9  26  1   
 17  10  15  ar  
 18  11  16  1   
 19  11  27  1   
 20  12  15  ar  
 21  13  17  1   
 22  14  18  1   
 23  14  28  1   
 24  14  29  1   
 25  15  30  1   
 26  16  19  1   
 27  16  31  1   
 28  16  32  1   
 29  17  20  1   
 30  17  33  1   
 31  17  34  1   
 32  18  20  1   
 33  18  21  1   
 34  18  22  1   
 35  19  23  1   
 36  19  35  1   
 37  19  36  1   
 38  21  37  1   
 39  21  38  1   
 40  21  39  1   
 41  22  40  1   
 42  22  41  1   
 43  22  42  1   
 44  23  24  1   
 45  23  43  1   
 46  23  44  1   
 47  24  25  1   
 48  25  45  1   
 49  25  46  1   
 50  25  47  1   
@<TRIPOS>SUBSTRUCTURE
  1 ****   2 GROUP 4 **** **** 0

# MOE 2024.06 (io_trps.svl 2023.06)
