@<TRIPOS>MOLECULE
8-(3-Ethoxy-propyl)-1,3,7-trimethyl-1H,8H-imidazo[2,1-f]purine-2,4-dione
45 47 1 0 0 
SMALL
USER_CHARGES


@<TRIPOS>ATOM
  1 O        0.9810    -0.1840    -0.0980 O.2   1 <1>  -0.5750 
  2 C        1.9310     0.5680    -0.0130 C.2   1 <1>   0.6860 
  3 N        1.7270     1.9440     0.0470 N.am  1 <1>  -0.4260 
  4 N        3.2220     0.0510     0.0140 N.am  1 <1>  -0.4420 
  5 C        2.7970     2.8290     0.0730 C.2   1 <1>   0.6990 
  6 C        0.3260     2.4720     0.0410 C.3   1 <1>   0.0510 
  7 C        4.2790     0.9380     0.0420 C.2   1 <1>   0.4200 
  8 C        3.4530    -1.4250    -0.0270 C.3   1 <1>   0.0510 
  9 O        2.6190     4.0360     0.0910 O.2   1 <1>  -0.5750 
 10 C        4.1130     2.2820     0.0720 C.2   1 <1>   0.2700 
 11 N        5.6130     0.6500     0.0400 N.pl3 1 <1>  -0.7040 
 12 N        5.4020     2.8360     0.0910 N.pl3 1 <1>  -0.6340 
 13 C        6.2610     1.8240     0.0700 C.cat 1 <1>   1.0690 
 14 C        6.1420     3.9990     0.1190 C.2   1 <1>   0.2210 
 15 N        7.5340     2.2590     0.0830 N.pl3 1 <1>  -0.5720 
 16 C        7.4460     3.6460     0.1150 C.2   1 <1>   0.1570 
 17 C        8.8160     1.4970     0.0690 C.3   1 <1>   0.1600 
 18 C        8.6730     4.5400     0.1380 C.3   1 <1>  -0.1100 
 19 C        8.5920    -0.0140     0.0340 C.3   1 <1>  -0.1680 
 20 C        9.9020    -0.7900     0.0200 C.3   1 <1>   0.1120 
 21 O        9.5460    -2.1270    -0.0120 O.3   1 <1>  -0.5650 
 22 C       10.6270    -2.9980    -0.0280 C.3   1 <1>   0.1120 
 23 C       10.0750    -4.4180    -0.0630 C.3   1 <1>  -0.2470 
 24 H       -0.3200     1.8200     0.6040 H     1 <1>   0.0710 
 25 H       -0.0330     2.5270    -0.9720 H     1 <1>   0.0710 
 26 H        0.2820     3.4520     0.4840 H     1 <1>   0.0710 
 27 H        2.5950    -1.9520     0.3570 H     1 <1>   0.0710 
 28 H        4.3020    -1.6900     0.5770 H     1 <1>   0.0710 
 29 H        3.6210    -1.7380    -1.0420 H     1 <1>   0.0710 
 30 H        6.0680    -0.2620     0.0120 H     1 <1>   0.4440 
 31 H        5.6840     4.9770     0.1400 H     1 <1>   0.1420 
 32 H        9.3830     1.7510     0.9500 H     1 <1>   0.0710 
 33 H        9.3890     1.7920    -0.7950 H     1 <1>   0.0710 
 34 H        9.2670     4.3350     1.0110 H     1 <1>   0.0710 
 35 H        8.3810     5.5750     0.1610 H     1 <1>   0.0710 
 36 H        9.2720     4.3750    -0.7400 H     1 <1>   0.0710 
 37 H        8.0540    -0.2780    -0.8600 H     1 <1>   0.0710 
 38 H        8.0480    -0.3190     0.9100 H     1 <1>   0.0710 
 39 H       10.4790    -0.6050     0.9120 H     1 <1>   0.0710 
 40 H       10.4850    -0.5640    -0.8580 H     1 <1>   0.0710 
 41 H       11.2150    -2.8430     0.8610 H     1 <1>   0.0710 
 42 H       11.2220    -2.8020    -0.9050 H     1 <1>   0.0710 
 43 H        9.4740    -4.6020     0.8090 H     1 <1>   0.0710 
 44 H       10.8860    -5.1230    -0.0770 H     1 <1>   0.0710 
 45 H        9.4810    -4.5610    -0.9480 H     1 <1>   0.0710 
@<TRIPOS>BOND
  1   1   2  2   
  2   2   3  am  
  3   2   4  am  
  4   3   5  am  
  5   3   6  1   
  6   4   7  1   
  7   4   8  1   
  8   5   9  2   
  9   5  10  1   
 10   6  24  1   
 11   6  25  1   
 12   6  26  1   
 13   7  10  2   
 14   7  11  1   
 15   8  27  1   
 16   8  28  1   
 17   8  29  1   
 18  10  12  1   
 19  11  13  ar  
 20  11  30  1   
 21  12  13  ar  
 22  12  14  1   
 23  13  15  ar  
 24  14  16  2   
 25  14  31  1   
 26  15  16  1   
 27  15  17  1   
 28  16  18  1   
 29  17  19  1   
 30  17  32  1   
 31  17  33  1   
 32  18  34  1   
 33  18  35  1   
 34  18  36  1   
 35  19  20  1   
 36  19  37  1   
 37  19  38  1   
 38  20  21  1   
 39  20  39  1   
 40  20  40  1   
 41  21  22  1   
 42  22  23  1   
 43  22  41  1   
 44  22  42  1   
 45  23  43  1   
 46  23  44  1   
 47  23  45  1   
@<TRIPOS>SUBSTRUCTURE
  1 ****  11 GROUP 4 **** **** 0

# MOE 2024.06 (io_trps.svl 2023.06)
