@<TRIPOS>MOLECULE
N-(5-Methoxymethyl-[1,3,4]thiadiazol-2-yl)-4-o-tolyloxy-butyramide
41 42 1 0 0 
SMALL
USER_CHARGES


@<TRIPOS>ATOM
  1 S       -0.1090    -0.9820    -0.3780 S.3   1 <1>  -0.0800 
  2 C        0.9800     0.3060     0.0380 C.2   1 <1>   0.4420 
  3 C        1.1600    -2.0880     0.0290 C.2   1 <1>   0.1980 
  4 N        2.1270    -0.1330     0.4040 N.2   1 <1>  -0.3380 
  5 N        0.6220     1.6340    -0.0590 N.am  1 <1>  -0.4940 
  6 N        2.2220    -1.4960     0.4020 N.2   1 <1>  -0.3380 
  7 C        0.9000    -3.5790    -0.1060 C.3   1 <1>   0.3000 
  8 C       -0.5340     2.3290    -0.2340 C.2   1 <1>   0.5690 
  9 O       -0.3070    -3.9210     0.5120 O.3   1 <1>  -0.5600 
 10 O       -0.4620     3.5210    -0.3810 O.2   1 <1>  -0.5700 
 11 C       -1.9010     1.6520    -0.2270 C.3   1 <1>  -0.0990 
 12 C       -0.5870    -5.2850     0.5010 C.3   1 <1>   0.0400 
 13 C       -3.0890     2.6280    -0.1180 C.3   1 <1>  -0.1600 
 14 C       -4.4240     1.8830    -0.0850 C.3   1 <1>   0.1200 
 15 O       -5.4560     2.8360     0.0150 O.3   1 <1>  -0.3630 
 16 C       -6.7650     2.4720     0.0640 C.ar  1 <1>   0.0820 
 17 C       -7.7140     3.4880     0.1490 C.ar  1 <1>  -0.1430 
 18 C       -7.1820     1.1420     0.0320 C.ar  1 <1>  -0.1500 
 19 C       -9.0610     3.1660     0.2010 C.ar  1 <1>  -0.1500 
 20 C       -7.2830     4.9470     0.1850 C.3   1 <1>  -0.0970 
 21 C       -8.5290     0.8330     0.0840 C.ar  1 <1>  -0.1500 
 22 C       -9.4690     1.8440     0.1690 C.ar  1 <1>  -0.1500 
 23 H        1.4180     2.2630     0.0310 H     1 <1>   0.3700 
 24 H        1.6980    -4.1260     0.3660 H     1 <1>   0.0800 
 25 H        0.8410    -3.8460    -1.1460 H     1 <1>   0.0800 
 26 H       -1.9400     0.9760     0.6070 H     1 <1>   0.0800 
 27 H       -2.0000     1.0860    -1.1360 H     1 <1>   0.0800 
 28 H       -1.5330    -5.4370     0.9910 H     1 <1>   0.0800 
 29 H        0.1840    -5.8120     1.0360 H     1 <1>   0.0800 
 30 H       -0.6480    -5.6300    -0.5170 H     1 <1>   0.0800 
 31 H       -3.0800     3.2970    -0.9610 H     1 <1>   0.0800 
 32 H       -2.9880     3.2120     0.7810 H     1 <1>   0.0800 
 33 H       -4.4790     1.2360     0.7730 H     1 <1>   0.0800 
 34 H       -4.5710     1.3210    -0.9910 H     1 <1>   0.0800 
 35 H       -6.4780     0.3360    -0.0330 H     1 <1>   0.1500 
 36 H       -9.8010     3.9430     0.2670 H     1 <1>   0.1500 
 37 H       -6.7290     5.1840    -0.7050 H     1 <1>   0.0800 
 38 H       -6.6520     5.1180     1.0390 H     1 <1>   0.0800 
 39 H       -8.1320     5.6030     0.2470 H     1 <1>   0.0800 
 40 H       -8.8490    -0.1950     0.0600 H     1 <1>   0.1500 
 41 H      -10.5170     1.6040     0.2100 H     1 <1>   0.1500 
@<TRIPOS>BOND
  1   1   2  1   
  2   1   3  1   
  3   2   4  2   
  4   2   5  1   
  5   3   6  2   
  6   3   7  1   
  7   4   6  1   
  8   5   8  am  
  9   5  23  1   
 10   7   9  1   
 11   7  24  1   
 12   7  25  1   
 13   8  10  2   
 14   8  11  1   
 15   9  12  1   
 16  11  13  1   
 17  11  26  1   
 18  11  27  1   
 19  12  28  1   
 20  12  29  1   
 21  12  30  1   
 22  13  14  1   
 23  13  31  1   
 24  13  32  1   
 25  14  15  1   
 26  14  33  1   
 27  14  34  1   
 28  15  16  1   
 29  16  17  ar  
 30  16  18  ar  
 31  17  19  ar  
 32  17  20  1   
 33  18  21  ar  
 34  18  35  1   
 35  19  22  ar  
 36  19  36  1   
 37  20  37  1   
 38  20  38  1   
 39  20  39  1   
 40  21  22  ar  
 41  21  40  1   
 42  22  41  1   
@<TRIPOS>SUBSTRUCTURE
  1 ****  11 GROUP 4 **** **** 0

# MOE 2024.06 (io_trps.svl 2023.06)
