@<TRIPOS>MOLECULE
1-(4-Methyl-benzyl)-piperidine-4-carboxylic acid isopropylamide
47 48 1 0 0 
SMALL
USER_CHARGES


@<TRIPOS>ATOM
  1 O        2.2010     0.0000    -1.9760 O.2   1 <1>  -0.5700 
  2 C        1.9300    -0.7620    -1.0830 C.2   1 <1>   0.5690 
  3 N        1.7740    -0.3540     0.2020 N.am  1 <1>  -0.7300 
  4 C        1.7700    -2.2390    -1.4330 C.3   1 <1>  -0.0190 
  5 C        1.9050     1.0340     0.6620 C.3   1 <1>   0.2200 
  6 C        0.3920    -2.7980    -1.0390 C.3   1 <1>  -0.1600 
  7 C        2.8870    -3.1000    -0.8190 C.3   1 <1>  -0.1600 
  8 C        3.0260     1.0890     1.6940 C.3   1 <1>  -0.2400 
  9 C        0.5730     1.4630     1.2650 C.3   1 <1>  -0.2400 
 10 C        0.2650    -4.2720    -1.4200 C.3   1 <1>   0.3430 
 11 C        2.7260    -4.5700    -1.2040 C.3   1 <1>   0.3430 
 12 N        1.3760    -5.0550    -0.7960 N.4   1 <1>  -0.9590 
 13 C        1.2240    -6.5120    -1.0600 C.3   1 <1>   0.4860 
 14 C       -0.0470    -6.9900    -0.3880 C.ar  1 <1>  -0.1440 
 15 C       -1.1710    -7.2820    -1.1460 C.ar  1 <1>  -0.1500 
 16 C       -0.1000    -7.1330     0.9920 C.ar  1 <1>  -0.1500 
 17 C       -2.3380    -7.6970    -0.5300 C.ar  1 <1>  -0.1500 
 18 C       -1.2700    -7.5470     1.6030 C.ar  1 <1>  -0.1500 
 19 C       -2.3950    -7.8270     0.8470 C.ar  1 <1>  -0.1440 
 20 C       -3.6760    -8.2860     1.5200 C.3   1 <1>  -0.0970 
 21 H        1.5380    -1.0130     0.9390 H     1 <1>   0.3700 
 22 H        1.8560    -2.3070    -2.5050 H     1 <1>   0.0800 
 23 H        2.1490     1.6780    -0.1690 H     1 <1>   0.0800 
 24 H       -0.3750    -2.2390    -1.5490 H     1 <1>   0.0800 
 25 H        0.2220    -2.6870     0.0170 H     1 <1>   0.0800 
 26 H        2.8910    -3.0060     0.2530 H     1 <1>   0.0800 
 27 H        3.8390    -2.7470    -1.1760 H     1 <1>   0.0800 
 28 H        2.8050     0.4610     2.5380 H     1 <1>   0.0800 
 29 H        3.1480     2.0990     2.0430 H     1 <1>   0.0800 
 30 H        3.9520     0.7770     1.2460 H     1 <1>   0.0800 
 31 H        0.3090     0.8420     2.1010 H     1 <1>   0.0800 
 32 H       -0.2000     1.4090     0.5190 H     1 <1>   0.0800 
 33 H        0.6390     2.4810     1.6030 H     1 <1>   0.0800 
 34 H        0.3050    -4.3710    -2.4930 H     1 <1>   0.0800 
 35 H       -0.6890    -4.6460    -1.0810 H     1 <1>   0.0800 
 36 H        3.4930    -5.1530    -0.7200 H     1 <1>   0.0800 
 37 H        2.8430    -4.6740    -2.2710 H     1 <1>   0.0800 
 38 H        1.2780    -4.9430     0.2200 H     1 <1>   0.4500 
 39 H        2.0620    -7.0550    -0.6530 H     1 <1>   0.0800 
 40 H        1.1750    -6.7000    -2.1200 H     1 <1>   0.0800 
 41 H       -1.1580    -7.1960    -2.2190 H     1 <1>   0.1500 
 42 H        0.7590    -6.9320     1.6080 H     1 <1>   0.1500 
 43 H       -3.2070    -7.9250    -1.1250 H     1 <1>   0.1500 
 44 H       -1.3030    -7.6590     2.6740 H     1 <1>   0.1500 
 45 H       -3.7460    -7.8870     2.5160 H     1 <1>   0.0800 
 46 H       -3.6940    -9.3600     1.5760 H     1 <1>   0.0800 
 47 H       -4.5350    -7.9550     0.9630 H     1 <1>   0.0800 
@<TRIPOS>BOND
  1   1   2  2   
  2   2   3  am  
  3   2   4  1   
  4   3   5  1   
  5   3  21  1   
  6   4   6  1   
  7   4   7  1   
  8   4  22  1   
  9   5   8  1   
 10   5   9  1   
 11   5  23  1   
 12   6  10  1   
 13   6  24  1   
 14   6  25  1   
 15   7  11  1   
 16   7  26  1   
 17   7  27  1   
 18   8  28  1   
 19   8  29  1   
 20   8  30  1   
 21   9  31  1   
 22   9  32  1   
 23   9  33  1   
 24  10  12  1   
 25  10  34  1   
 26  10  35  1   
 27  11  12  1   
 28  11  36  1   
 29  11  37  1   
 30  12  13  1   
 31  12  38  1   
 32  13  14  1   
 33  13  39  1   
 34  13  40  1   
 35  14  15  ar  
 36  14  16  ar  
 37  15  17  ar  
 38  15  41  1   
 39  16  18  ar  
 40  16  42  1   
 41  17  19  ar  
 42  17  43  1   
 43  18  19  ar  
 44  18  44  1   
 45  19  20  1   
 46  20  45  1   
 47  20  46  1   
 48  20  47  1   
@<TRIPOS>SUBSTRUCTURE
  1 ****  10 GROUP 4 **** **** 0

# MOE 2024.06 (io_trps.svl 2023.06)
