@<TRIPOS>MOLECULE
5-Acetyl-2-(2-azepan-1-yl-acetylamino)-4-methyl-thiophene-3-carboxylic acid ethy
52 53 1 0 0 
SMALL
USER_CHARGES


@<TRIPOS>ATOM
  1 S        0.3860    -0.4810     0.2520 S.3   1 <1>  -0.0800 
  2 C        1.5190     0.6810    -0.3830 C.2   1 <1>   0.1040 
  3 C       -0.9960     0.6140     0.0990 C.2   1 <1>  -0.0450 
  4 N        2.8310     0.2950    -0.5740 N.am  1 <1>  -0.4940 
  5 C        0.8780     1.8540    -0.6680 C.2   1 <1>  -0.0860 
  6 C       -0.5290     1.8090    -0.3810 C.2   1 <1>  -0.1810 
  7 C       -2.2660     0.0530     0.4770 C.2   1 <1>   0.5940 
  8 C        3.5210    -0.6780     0.1080 C.2   1 <1>   0.5690 
  9 C        1.5690     2.9910    -1.2130 C.2   1 <1>   0.8060 
 10 C       -1.3670     3.0640    -0.6130 C.3   1 <1>  -0.0590 
 11 O       -2.3750    -0.9850     1.0820 O.2   1 <1>  -0.5700 
 12 C       -3.5650     0.7310     0.1000 C.3   1 <1>  -0.1790 
 13 O        3.3090    -0.9380     1.2660 O.2   1 <1>  -0.5700 
 14 C        4.5830    -1.5230    -0.6110 C.3   1 <1>   0.4040 
 15 O        1.1940     3.5910    -2.1960 O.2   1 <1>  -0.5700 
 16 O        2.7120     3.3980    -0.6540 O.3   1 <1>  -0.4300 
 17 N        4.5720    -2.9640    -0.1500 N.4   1 <1>  -0.9590 
 18 C        2.8510     3.4730     0.7490 C.3   1 <1>   0.1200 
 19 C        5.8100    -3.6840    -0.5510 C.3   1 <1>   0.3430 
 20 C        3.2950    -3.6430    -0.5260 C.3   1 <1>   0.3430 
 21 C        4.2170     4.0800     1.0500 C.3   1 <1>  -0.2400 
 22 C        5.9490    -5.0320     0.1590 C.3   1 <1>  -0.1600 
 23 C        2.9390    -4.6850     0.5320 C.3   1 <1>  -0.1600 
 24 C        4.9600    -6.0910    -0.3500 C.3   1 <1>  -0.1600 
 25 C        3.5910    -6.0660     0.3440 C.3   1 <1>  -0.1600 
 26 H        3.3550     0.8410    -1.2640 H     1 <1>   0.3700 
 27 H       -2.2860     3.0440    -0.0610 H     1 <1>   0.0800 
 28 H       -1.5890     3.1700    -1.6600 H     1 <1>   0.0800 
 29 H       -0.8320     3.9400    -0.2910 H     1 <1>   0.0800 
 30 H       -3.4910     1.1650    -0.8790 H     1 <1>   0.0800 
 31 H       -3.8040     1.4860     0.8240 H     1 <1>   0.0800 
 32 H       -4.3580     0.0050     0.0880 H     1 <1>   0.0800 
 33 H        5.5450    -1.0880    -0.4030 H     1 <1>   0.0800 
 34 H        4.4110    -1.4800    -1.6730 H     1 <1>   0.0800 
 35 H        4.5480    -2.9080     0.8830 H     1 <1>   0.4500 
 36 H        2.7750     2.4870     1.1750 H     1 <1>   0.0800 
 37 H        2.0650     4.0990     1.1370 H     1 <1>   0.0800 
 38 H        6.6670    -3.0810    -0.2960 H     1 <1>   0.0800 
 39 H        5.8170    -3.8380    -1.6180 H     1 <1>   0.0800 
 40 H        3.3690    -4.0990    -1.5000 H     1 <1>   0.0800 
 41 H        2.4970    -2.9190    -0.5500 H     1 <1>   0.0800 
 42 H        5.0000     3.4580     0.6560 H     1 <1>   0.0800 
 43 H        4.3500     4.1640     2.1140 H     1 <1>   0.0800 
 44 H        4.2890     5.0640     0.6200 H     1 <1>   0.0800 
 45 H        5.8780    -4.9160     1.2270 H     1 <1>   0.0800 
 46 H        6.9410    -5.3930    -0.0500 H     1 <1>   0.0800 
 47 H        1.8720    -4.8280     0.5090 H     1 <1>   0.0800 
 48 H        3.1680    -4.2990     1.5110 H     1 <1>   0.0800 
 49 H        5.3880    -7.0670    -0.1830 H     1 <1>   0.0800 
 50 H        4.8330    -5.9920    -1.4150 H     1 <1>   0.0800 
 51 H        2.9240    -6.6890    -0.2280 H     1 <1>   0.0800 
 52 H        3.6820    -6.5280     1.3130 H     1 <1>   0.0800 
@<TRIPOS>BOND
  1   1   2  1   
  2   1   3  1   
  3   2   4  1   
  4   2   5  2   
  5   3   6  2   
  6   3   7  1   
  7   4   8  am  
  8   4  26  1   
  9   5   6  1   
 10   5   9  1   
 11   6  10  1   
 12   7  11  2   
 13   7  12  1   
 14   8  13  2   
 15   8  14  1   
 16   9  15  2   
 17   9  16  1   
 18  10  27  1   
 19  10  28  1   
 20  10  29  1   
 21  12  30  1   
 22  12  31  1   
 23  12  32  1   
 24  14  17  1   
 25  14  33  1   
 26  14  34  1   
 27  16  18  1   
 28  17  19  1   
 29  17  20  1   
 30  17  35  1   
 31  18  21  1   
 32  18  36  1   
 33  18  37  1   
 34  19  22  1   
 35  19  38  1   
 36  19  39  1   
 37  20  23  1   
 38  20  40  1   
 39  20  41  1   
 40  21  42  1   
 41  21  43  1   
 42  21  44  1   
 43  22  24  1   
 44  22  45  1   
 45  22  46  1   
 46  23  25  1   
 47  23  47  1   
 48  23  48  1   
 49  24  25  1   
 50  24  49  1   
 51  24  50  1   
 52  25  51  1   
 53  25  52  1   
@<TRIPOS>SUBSTRUCTURE
  1 ****   4 GROUP 4 **** **** 0

# MOE 2024.06 (io_trps.svl 2023.06)
