@<TRIPOS>MOLECULE
8-(4-Ethyl-piperazin-1-yl)-1,3-dimethyl-7-(3-phenoxy-propyl)-3,7-dihydro-purine-
63 66 1 0 0 
SMALL
USER_CHARGES


@<TRIPOS>ATOM
  1 O        1.1580     0.5290    -1.9020 O.2   1 <1>  -0.5740 
  2 C        2.0490     1.0270    -1.2470 C.2   1 <1>   0.6870 
  3 N        1.7770     2.0860    -0.3880 N.am  1 <1>  -0.4240 
  4 N        3.3460     0.5450    -1.3650 N.am  1 <1>  -0.4400 
  5 C        2.7920     2.7280     0.3060 C.2   1 <1>   0.7000 
  6 C        0.3620     2.5590    -0.2500 C.3   1 <1>   0.0540 
  7 C        4.3450     1.1940    -0.6660 C.2   1 <1>   0.4220 
  8 C        3.6400    -0.6190    -2.2550 C.3   1 <1>   0.0540 
  9 O        2.5450     3.6830     1.0230 O.2   1 <1>  -0.5740 
 10 C        4.1340     2.2450     0.1500 C.2   1 <1>   0.2720 
 11 N        5.6750     0.9100    -0.6720 N.pl3 1 <1>  -0.7030 
 12 N        5.4010     2.6170     0.6600 N.pl3 1 <1>  -0.7670 
 13 C        6.3000     1.7580     0.1470 C.cat 1 <1>   1.0690 
 14 C        5.5540     3.8780     1.4530 C.3   1 <1>   0.3490 
 15 N        7.6400     1.6880     0.3620 N.pl3 1 <1>  -0.5950 
 16 C        5.5280     5.1170     0.5450 C.3   1 <1>  -0.1660 
 17 C        8.2740     2.1240     1.6580 C.3   1 <1>   0.1620 
 18 C        8.5830     1.4030    -0.7860 C.3   1 <1>   0.1620 
 19 C        6.6560     5.1670    -0.4900 C.3   1 <1>   0.1140 
 20 C        9.6450     1.4830     1.9520 C.3   1 <1>   0.3380 
 21 C        9.9720     0.8560    -0.3900 C.3   1 <1>   0.3380 
 22 O        7.8800     4.9710     0.1810 O.3   1 <1>  -0.3670 
 23 N       10.5640     1.5800     0.7730 N.4   1 <1>  -0.9610 
 24 C        9.0570     4.8710    -0.4830 C.ar  1 <1>   0.0760 
 25 C       11.9270     1.0540     1.0620 C.3   1 <1>   0.3380 
 26 C       10.2090     4.8560     0.2900 C.ar  1 <1>  -0.1560 
 27 C        9.1570     4.7620    -1.8670 C.ar  1 <1>  -0.1560 
 28 C       12.6150     1.9090     2.1200 C.3   1 <1>  -0.2450 
 29 C       11.4480     4.6960    -0.3040 C.ar  1 <1>  -0.1560 
 30 C       10.3970     4.5910    -2.4560 C.ar  1 <1>  -0.1560 
 31 C       11.5400     4.5510    -1.6770 C.ar  1 <1>  -0.1560 
 32 H       -0.3160     1.7240    -0.2980 H     1 <1>   0.0740 
 33 H        0.1300     3.2410    -1.0490 H     1 <1>   0.0740 
 34 H        0.2120     3.0580     0.6920 H     1 <1>   0.0740 
 35 H        2.7570    -1.2200    -2.3970 H     1 <1>   0.0740 
 36 H        4.3970    -1.2460    -1.8200 H     1 <1>   0.0740 
 37 H        3.9700    -0.2670    -3.2170 H     1 <1>   0.0740 
 38 H        6.0990     0.1310    -1.1630 H     1 <1>   0.4460 
 39 H        6.4610     3.8750     2.0230 H     1 <1>   0.0740 
 40 H        4.7490     3.9500     2.1660 H     1 <1>   0.0740 
 41 H        5.6070     5.9920     1.1660 H     1 <1>   0.0740 
 42 H        4.5800     5.1860     0.0430 H     1 <1>   0.0740 
 43 H        7.6110     1.8940     2.4760 H     1 <1>   0.0740 
 44 H        8.4200     3.1850     1.6520 H     1 <1>   0.0740 
 45 H        8.7340     2.3120    -1.3350 H     1 <1>   0.0740 
 46 H        8.1380     0.7030    -1.4710 H     1 <1>   0.0740 
 47 H        6.6870     6.1270    -0.9790 H     1 <1>   0.0740 
 48 H        6.5300     4.3900    -1.2210 H     1 <1>   0.0740 
 49 H        9.5060     0.4480     2.2190 H     1 <1>   0.0740 
 50 H       10.0830     1.9830     2.8000 H     1 <1>   0.0740 
 51 H       10.6330     0.9360    -1.2390 H     1 <1>   0.0740 
 52 H        9.8790    -0.1900    -0.1480 H     1 <1>   0.0740 
 53 H       10.6720     2.5770     0.5090 H     1 <1>   0.4460 
 54 H       12.5190     1.0770     0.1610 H     1 <1>   0.0740 
 55 H       11.8700     0.0310     1.4000 H     1 <1>   0.0740 
 56 H       10.1330     4.9950     1.3540 H     1 <1>   0.1440 
 57 H        8.2930     4.8140    -2.5030 H     1 <1>   0.1440 
 58 H       12.6270     2.9450     1.8370 H     1 <1>   0.0740 
 59 H       13.6360     1.5840     2.2180 H     1 <1>   0.0740 
 60 H       12.1520     1.7980     3.0830 H     1 <1>   0.0740 
 61 H       12.3460     4.7110     0.2910 H     1 <1>   0.1440 
 62 H       10.4800     4.5070    -3.5280 H     1 <1>   0.1440 
 63 H       12.5040     4.4350    -2.1450 H     1 <1>   0.1440 
@<TRIPOS>BOND
  1   1   2  2   
  2   2   3  am  
  3   2   4  am  
  4   3   5  am  
  5   3   6  1   
  6   4   7  1   
  7   4   8  1   
  8   5   9  2   
  9   5  10  1   
 10   6  32  1   
 11   6  33  1   
 12   6  34  1   
 13   7  10  2   
 14   7  11  1   
 15   8  35  1   
 16   8  36  1   
 17   8  37  1   
 18  10  12  1   
 19  11  13  ar  
 20  11  38  1   
 21  12  13  ar  
 22  12  14  1   
 23  13  15  ar  
 24  14  16  1   
 25  14  39  1   
 26  14  40  1   
 27  15  17  1   
 28  15  18  1   
 29  16  19  1   
 30  16  41  1   
 31  16  42  1   
 32  17  20  1   
 33  17  43  1   
 34  17  44  1   
 35  18  21  1   
 36  18  45  1   
 37  18  46  1   
 38  19  22  1   
 39  19  47  1   
 40  19  48  1   
 41  20  23  1   
 42  20  49  1   
 43  20  50  1   
 44  21  23  1   
 45  21  51  1   
 46  21  52  1   
 47  22  24  1   
 48  23  25  1   
 49  23  53  1   
 50  24  26  ar  
 51  24  27  ar  
 52  25  28  1   
 53  25  54  1   
 54  25  55  1   
 55  26  29  ar  
 56  26  56  1   
 57  27  30  ar  
 58  27  57  1   
 59  28  58  1   
 60  28  59  1   
 61  28  60  1   
 62  29  31  ar  
 63  29  61  1   
 64  30  31  ar  
 65  30  62  1   
 66  31  63  1   
@<TRIPOS>SUBSTRUCTURE
  1 ****  13 GROUP 4 **** **** 0

# MOE 2024.06 (io_trps.svl 2023.06)
