@<TRIPOS>MOLECULE
5-(4-Ethoxy-phenyl)-8,8-dimethyl-5,8,9,10-tetrahydro-1H,7H-pyrimido[4,5-b]quinol
51 54 1 0 0 
SMALL
USER_CHARGES


@<TRIPOS>ATOM
  1 O       -0.9320    -0.0810    -0.2050 O.2   1 <1>  -0.5700 
  2 C       -1.9420    -0.7040    -0.4350 C.2   1 <1>   0.6900 
  3 N       -3.1090    -0.3920     0.1960 N.am  1 <1>  -0.5390 
  4 N       -1.9450    -1.7230    -1.3300 N.am  1 <1>  -0.4900 
  5 C       -4.2680    -1.0910    -0.0380 C.2   1 <1>   0.2090 
  6 C       -3.0670    -2.4440    -1.6190 C.2   1 <1>   0.6160 
  7 N       -5.4100    -0.7030     0.6130 N.pl3 1 <1>  -0.6000 
  8 C       -4.2550    -2.1310    -0.9160 C.2   1 <1>  -0.1240 
  9 O       -2.9820    -3.2950    -2.4860 O.2   1 <1>  -0.5700 
 10 C       -6.6330    -1.2660     0.3140 C.2   1 <1>  -0.0380 
 11 C       -5.5030    -2.9790    -1.1320 C.3   1 <1>   0.3400 
 12 C       -6.7510    -2.3270    -0.5270 C.2   1 <1>  -0.1240 
 13 C       -7.8510    -0.6330     0.9750 C.3   1 <1>  -0.0220 
 14 C       -5.2820    -4.3420    -0.4730 C.ar  1 <1>  -0.1430 
 15 C       -8.0020    -2.9070    -0.8840 C.2   1 <1>   0.4950 
 16 C       -9.1620    -0.9230     0.2080 C.3   1 <1>   0.0000 
 17 C       -5.2880    -5.5010    -1.2360 C.ar  1 <1>  -0.1500 
 18 C       -5.0710    -4.4390     0.8960 C.ar  1 <1>  -0.1500 
 19 O       -8.1450    -3.7500    -1.7380 O.2   1 <1>  -0.5700 
 20 C       -9.2420    -2.4220    -0.1550 C.3   1 <1>  -0.0990 
 21 C       -9.2180    -0.0710    -1.0750 C.3   1 <1>  -0.2400 
 22 C      -10.3670    -0.5460     1.0840 C.3   1 <1>  -0.2400 
 23 C       -5.0830    -6.7350    -0.6460 C.ar  1 <1>  -0.1500 
 24 C       -4.8660    -5.6710     1.4880 C.ar  1 <1>  -0.1500 
 25 C       -4.8670    -6.8280     0.7260 C.ar  1 <1>   0.0830 
 26 O       -4.6550    -7.9930     1.3910 O.3   1 <1>  -0.3620 
 27 C       -4.5270    -9.2360     0.7370 C.3   1 <1>   0.1200 
 28 C       -3.1190    -9.3600     0.1500 C.3   1 <1>  -0.2400 
 29 H       -3.0580     0.3830     0.8510 H     1 <1>   0.3700 
 30 H       -1.0850    -1.9510    -1.8150 H     1 <1>   0.3700 
 31 H       -5.3620     0.0800     1.2710 H     1 <1>   0.4000 
 32 H       -5.6540    -3.0980    -2.1920 H     1 <1>   0.0800 
 33 H       -7.7140     0.4320     1.0490 H     1 <1>   0.0800 
 34 H       -7.9210    -1.0220     1.9760 H     1 <1>   0.0800 
 35 H       -5.4530    -5.4460    -2.2980 H     1 <1>   0.1500 
 36 H       -5.0640    -3.5540     1.5090 H     1 <1>   0.1500 
 37 H       -9.3450    -3.0120     0.7370 H     1 <1>   0.0800 
 38 H      -10.1040    -2.6070    -0.7710 H     1 <1>   0.0800 
 39 H       -8.3820    -0.2750    -1.7200 H     1 <1>   0.0800 
 40 H       -9.2040     0.9770    -0.8350 H     1 <1>   0.0800 
 41 H      -10.1200    -0.2750    -1.6250 H     1 <1>   0.0800 
 42 H      -10.3760    -1.1250     1.9920 H     1 <1>   0.0800 
 43 H      -11.2890    -0.7310     0.5600 H     1 <1>   0.0800 
 44 H      -10.3340     0.4960     1.3490 H     1 <1>   0.0800 
 45 H       -5.0940    -7.6060    -1.2710 H     1 <1>   0.1500 
 46 H       -4.7010    -5.7460     2.5470 H     1 <1>   0.1500 
 47 H       -5.2950    -9.3290    -0.0090 H     1 <1>   0.0800 
 48 H       -4.6800   -10.0000     1.4790 H     1 <1>   0.0800 
 49 H       -2.9410    -8.5940    -0.5820 H     1 <1>   0.0800 
 50 H       -3.0070   -10.3170    -0.3240 H     1 <1>   0.0800 
 51 H       -2.3880    -9.2780     0.9340 H     1 <1>   0.0800 
@<TRIPOS>BOND
  1   1   2  2   
  2   2   3  am  
  3   2   4  am  
  4   3   5  1   
  5   3  29  1   
  6   4   6  am  
  7   4  30  1   
  8   5   7  1   
  9   5   8  2   
 10   6   8  1   
 11   6   9  2   
 12   7  10  1   
 13   7  31  1   
 14   8  11  1   
 15  10  12  2   
 16  10  13  1   
 17  11  12  1   
 18  11  14  1   
 19  11  32  1   
 20  12  15  1   
 21  13  16  1   
 22  13  33  1   
 23  13  34  1   
 24  14  17  ar  
 25  14  18  ar  
 26  15  19  2   
 27  15  20  1   
 28  16  20  1   
 29  16  21  1   
 30  16  22  1   
 31  17  23  ar  
 32  17  35  1   
 33  18  24  ar  
 34  18  36  1   
 35  20  37  1   
 36  20  38  1   
 37  21  39  1   
 38  21  40  1   
 39  21  41  1   
 40  22  42  1   
 41  22  43  1   
 42  22  44  1   
 43  23  25  ar  
 44  23  45  1   
 45  24  25  ar  
 46  24  46  1   
 47  25  26  1   
 48  26  27  1   
 49  27  28  1   
 50  27  47  1   
 51  27  48  1   
 52  28  49  1   
 53  28  50  1   
 54  28  51  1   
@<TRIPOS>SUBSTRUCTURE
  1 ****  11 GROUP 4 **** **** 0

# MOE 2024.06 (io_trps.svl 2023.06)
