@<TRIPOS>MOLECULE
8-Methoxy-3-(2-methyl-piperidine-1-carbonyl)-chromen-2-one
41 43 1 0 0 
SMALL
USER_CHARGES


@<TRIPOS>ATOM
  1 O       -0.4700     1.3400    -1.8450 O.2   1 <1>  -0.5700 
  2 C       -1.3610     1.6360    -1.0750 C.2   1 <1>   0.7060 
  3 O       -2.3380     0.7380    -0.9190 O.3   1 <1>  -0.2320 
  4 C       -1.4500     2.8670    -0.3480 C.2   1 <1>   0.0290 
  5 C       -3.4560     0.9350    -0.1780 C.ar  1 <1>   0.0830 
  6 C       -0.3640     3.7960    -0.4700 C.2   1 <1>   0.6160 
  7 C       -2.5560     3.1140     0.4050 C.2   1 <1>  -0.1780 
  8 C       -4.4540    -0.0470    -0.0840 C.ar  1 <1>   0.0830 
  9 C       -3.5930     2.1460     0.5140 C.ar  1 <1>   0.0280 
 10 O       -0.6160     4.9130    -0.8820 O.2   1 <1>  -0.5700 
 11 N        0.9400     3.5030    -0.1300 N.am  1 <1>  -0.6600 
 12 O       -4.4410    -1.2560    -0.7120 O.3   1 <1>  -0.3630 
 13 C       -5.5620     0.1900     0.7090 C.ar  1 <1>  -0.1500 
 14 C       -4.7290     2.3560     1.2950 C.ar  1 <1>  -0.1500 
 15 C        1.4430     2.6450     0.9850 C.3   1 <1>   0.2200 
 16 C        2.0410     4.0580    -0.9640 C.3   1 <1>   0.1400 
 17 C       -3.7560    -1.4680    -1.9280 C.3   1 <1>   0.0400 
 18 C       -5.7040     1.3860     1.3950 C.ar  1 <1>  -0.1500 
 19 C        2.2170     1.4570     0.3990 C.3   1 <1>  -0.1600 
 20 C        0.3700     2.1820     1.9750 C.3   1 <1>  -0.2400 
 21 C        2.8350     2.9020    -1.5830 C.3   1 <1>  -0.1600 
 22 C        3.3590     1.9310    -0.5150 C.3   1 <1>  -0.1600 
 23 H       -2.6690     4.0440     0.9360 H     1 <1>   0.1500 
 24 H       -6.3220    -0.5680     0.7870 H     1 <1>   0.1500 
 25 H       -4.8430     3.2840     1.8270 H     1 <1>   0.1500 
 26 H        2.1400     3.2440     1.5480 H     1 <1>   0.0800 
 27 H        2.6820     4.6650    -0.3480 H     1 <1>   0.0800 
 28 H        1.6450     4.6790    -1.7500 H     1 <1>   0.0800 
 29 H       -4.1330    -2.3720    -2.3710 H     1 <1>   0.0800 
 30 H       -2.7060    -1.5770    -1.7250 H     1 <1>   0.0800 
 31 H       -3.9370    -0.6350    -2.5850 H     1 <1>   0.0800 
 32 H       -6.5770     1.5520     2.0030 H     1 <1>   0.1500 
 33 H        1.5440     0.8320    -0.1610 H     1 <1>   0.0800 
 34 H        2.6270     0.8640     1.1960 H     1 <1>   0.0800 
 35 H       -0.2650     1.4310     1.5450 H     1 <1>   0.0800 
 36 H       -0.2130     3.0180     2.3160 H     1 <1>   0.0800 
 37 H        0.8490     1.7440     2.8320 H     1 <1>   0.0800 
 38 H        3.6590     3.2980    -2.1490 H     1 <1>   0.0800 
 39 H        2.1920     2.3730    -2.2670 H     1 <1>   0.0800 
 40 H        3.8200     1.0830    -0.9900 H     1 <1>   0.0800 
 41 H        4.1070     2.4270     0.0790 H     1 <1>   0.0800 
@<TRIPOS>BOND
  1   1   2  2   
  2   2   3  1   
  3   2   4  1   
  4   3   5  1   
  5   4   6  1   
  6   4   7  2   
  7   5   8  ar  
  8   5   9  ar  
  9   6  10  2   
 10   6  11  am  
 11   7   9  1   
 12   7  23  1   
 13   8  12  1   
 14   8  13  ar  
 15   9  14  ar  
 16  11  15  1   
 17  11  16  1   
 18  12  17  1   
 19  13  18  ar  
 20  13  24  1   
 21  14  18  ar  
 22  14  25  1   
 23  15  19  1   
 24  15  20  1   
 25  15  26  1   
 26  16  21  1   
 27  16  27  1   
 28  16  28  1   
 29  17  29  1   
 30  17  30  1   
 31  17  31  1   
 32  18  32  1   
 33  19  22  1   
 34  19  33  1   
 35  19  34  1   
 36  20  35  1   
 37  20  36  1   
 38  20  37  1   
 39  21  22  1   
 40  21  38  1   
 41  21  39  1   
 42  22  40  1   
 43  22  41  1   
@<TRIPOS>SUBSTRUCTURE
  1 ****   2 GROUP 4 **** **** 0

# MOE 2024.06 (io_trps.svl 2023.06)
