@<TRIPOS>MOLECULE
N-(4-Methoxy-phenyl)-2-[4-(morpholine-4-carbonyl)-piperazin-1-yl]-acetamide
52 54 1 0 0 
SMALL
USER_CHARGES


@<TRIPOS>ATOM
  1 O       -0.2700     0.4350    -0.2440 O.2   1 <1>  -0.5700 
  2 C       -0.9390     1.3620     0.1790 C.2   1 <1>   0.6900 
  3 N       -0.3190     2.5160     0.5790 N.am  1 <1>  -0.6600 
  4 N       -2.3040     1.2460     0.2370 N.am  1 <1>  -0.6600 
  5 C        1.1160     2.4970     0.9850 C.3   1 <1>   0.1400 
  6 C       -0.7500     3.8330     0.0310 C.3   1 <1>   0.1400 
  7 C       -2.9990     0.1230    -0.4530 C.3   1 <1>   0.1400 
  8 C       -3.1110     1.8620     1.3290 C.3   1 <1>   0.1400 
  9 C        2.0020     3.0640    -0.1360 C.3   1 <1>   0.1200 
 10 C        0.2480     4.3330    -1.0280 C.3   1 <1>   0.1200 
 11 C       -4.4130     0.5380    -0.8950 C.3   1 <1>   0.1100 
 12 C       -4.5180     2.2360     0.8300 C.3   1 <1>   0.1100 
 13 O        1.5520     4.3340    -0.5210 O.3   1 <1>  -0.5600 
 14 N       -5.2120     1.0740     0.2360 N.3   1 <1>  -0.8100 
 15 C       -6.5900     1.4440    -0.2110 C.3   1 <1>   0.1710 
 16 C       -7.5020     0.2410    -0.4620 C.2   1 <1>   0.5690 
 17 O       -8.4500     0.3670    -1.1990 O.2   1 <1>  -0.5700 
 18 N       -7.1640    -0.9170     0.1790 N.am  1 <1>  -0.5470 
 19 C       -7.7130    -2.2090     0.1910 C.ar  1 <1>   0.1170 
 20 C       -6.9840    -3.2310     0.7870 C.ar  1 <1>  -0.1500 
 21 C       -8.9540    -2.5170    -0.3600 C.ar  1 <1>  -0.1500 
 22 C       -7.4750    -4.5230     0.8270 C.ar  1 <1>  -0.1500 
 23 C       -9.4500    -3.8080    -0.3230 C.ar  1 <1>  -0.1500 
 24 C       -8.7090    -4.8230     0.2730 C.ar  1 <1>   0.0820 
 25 O       -9.1170    -6.1170     0.3530 O.3   1 <1>  -0.3630 
 26 C      -10.3540    -6.5190    -0.1920 C.3   1 <1>   0.0400 
 27 H        1.4250     1.4910     1.2140 H     1 <1>   0.0800 
 28 H        1.2420     3.0910     1.8720 H     1 <1>   0.0800 
 29 H       -0.8080     4.5490     0.8320 H     1 <1>   0.0800 
 30 H       -1.7240     3.7480    -0.4170 H     1 <1>   0.0800 
 31 H       -3.0630    -0.7170     0.2160 H     1 <1>   0.0800 
 32 H       -2.4330    -0.1810    -1.3160 H     1 <1>   0.0800 
 33 H       -2.6210     2.7370     1.7150 H     1 <1>   0.0800 
 34 H       -3.2020     1.1550     2.1350 H     1 <1>   0.0800 
 35 H        1.9860     2.4130    -0.9930 H     1 <1>   0.0800 
 36 H        3.0170     3.1630     0.2060 H     1 <1>   0.0800 
 37 H        0.0090     5.3400    -1.3200 H     1 <1>   0.0800 
 38 H        0.2190     3.7030    -1.9010 H     1 <1>   0.0800 
 39 H       -4.9050    -0.3210    -1.3180 H     1 <1>   0.0800 
 40 H       -4.3270     1.2820    -1.6690 H     1 <1>   0.0800 
 41 H       -4.4340     3.0260     0.1030 H     1 <1>   0.0800 
 42 H       -5.0900     2.6060     1.6630 H     1 <1>   0.0800 
 43 H       -6.5410     2.0370    -1.1070 H     1 <1>   0.0800 
 44 H       -7.0630     2.0380     0.5510 H     1 <1>   0.0800 
 45 H       -6.2890    -0.7990     0.6990 H     1 <1>   0.3700 
 46 H       -6.0250    -3.0180     1.2220 H     1 <1>   0.1500 
 47 H       -9.5430    -1.7470    -0.8220 H     1 <1>   0.1500 
 48 H       -6.9060    -5.3100     1.2880 H     1 <1>   0.1500 
 49 H      -10.4110    -4.0000    -0.7610 H     1 <1>   0.1500 
 50 H      -10.4670    -7.5750    -0.0190 H     1 <1>   0.0800 
 51 H      -10.3520    -6.3200    -1.2490 H     1 <1>   0.0800 
 52 H      -11.1440    -5.9820     0.3020 H     1 <1>   0.0800 
@<TRIPOS>BOND
  1   1   2  2   
  2   2   3  am  
  3   2   4  am  
  4   3   5  1   
  5   3   6  1   
  6   4   7  1   
  7   4   8  1   
  8   5   9  1   
  9   5  27  1   
 10   5  28  1   
 11   6  10  1   
 12   6  29  1   
 13   6  30  1   
 14   7  11  1   
 15   7  31  1   
 16   7  32  1   
 17   8  12  1   
 18   8  33  1   
 19   8  34  1   
 20   9  13  1   
 21   9  35  1   
 22   9  36  1   
 23  10  13  1   
 24  10  37  1   
 25  10  38  1   
 26  11  14  1   
 27  11  39  1   
 28  11  40  1   
 29  12  14  1   
 30  12  41  1   
 31  12  42  1   
 32  14  15  1   
 33  15  16  1   
 34  15  43  1   
 35  15  44  1   
 36  16  17  2   
 37  16  18  am  
 38  18  19  1   
 39  18  45  1   
 40  19  20  ar  
 41  19  21  ar  
 42  20  22  ar  
 43  20  46  1   
 44  21  23  ar  
 45  21  47  1   
 46  22  24  ar  
 47  22  48  1   
 48  23  24  ar  
 49  23  49  1   
 50  24  25  1   
 51  25  26  1   
 52  26  50  1   
 53  26  51  1   
 54  26  52  1   
@<TRIPOS>SUBSTRUCTURE
  1 ****  11 GROUP 4 **** **** 0

# MOE 2024.06 (io_trps.svl 2023.06)
