@<TRIPOS>MOLECULE
1-Methanesulfonyl-piperidine-3-carboxylic acid (4-ethoxy-phenyl)-amide
44 45 1 0 0 
SMALL
USER_CHARGES


@<TRIPOS>ATOM
  1 S        0.1150    -0.1580     1.0010 S.o2  1 <1>   1.3330 
  2 O        0.4810     0.7830     2.0340 O.2   1 <1>  -0.6500 
  3 O       -0.9110    -1.1460     1.2360 O.2   1 <1>  -0.6500 
  4 N        1.5230    -0.9710     0.5210 N.am  1 <1>  -0.8490 
  5 C       -0.3640     0.7810    -0.4370 C.3   1 <1>  -0.1350 
  6 C        2.6580    -0.0900     0.2240 C.3   1 <1>   0.1960 
  7 C        1.3120    -2.0130    -0.4870 C.3   1 <1>   0.1960 
  8 C        3.9550    -0.9030     0.1220 C.3   1 <1>  -0.0190 
  9 C        2.5710    -2.8760    -0.6200 C.3   1 <1>  -0.1600 
 10 C        5.1170     0.0200    -0.2120 C.2   1 <1>   0.5690 
 11 C        3.8150    -2.0280    -0.9200 C.3   1 <1>  -0.1600 
 12 O        4.9660     0.8410    -1.0840 O.2   1 <1>  -0.5700 
 13 N        6.2820    -0.1430     0.4870 N.am  1 <1>  -0.5470 
 14 C        7.5010     0.5510     0.4180 C.ar  1 <1>   0.1170 
 15 C        7.6110     1.8460    -0.0810 C.ar  1 <1>  -0.1500 
 16 C        8.6510    -0.0740     0.8870 C.ar  1 <1>  -0.1500 
 17 C        8.8320     2.4950    -0.1190 C.ar  1 <1>  -0.1500 
 18 C        9.8740     0.5710     0.8540 C.ar  1 <1>  -0.1500 
 19 C        9.9760     1.8570     0.3510 C.ar  1 <1>   0.0820 
 20 O       11.2140     2.4170     0.3530 O.3   1 <1>  -0.3620 
 21 C       11.4240     3.7090    -0.1670 C.3   1 <1>   0.1200 
 22 C       12.9080     4.0350    -0.0360 C.3   1 <1>  -0.2400 
 23 H       -0.5540     0.1290    -1.2660 H     1 <1>   0.0800 
 24 H        0.4030     1.4800    -0.7040 H     1 <1>   0.0800 
 25 H       -1.2610     1.3290    -0.2250 H     1 <1>   0.0800 
 26 H        2.7690     0.6390     1.0110 H     1 <1>   0.0800 
 27 H        2.4830     0.4350    -0.7000 H     1 <1>   0.0800 
 28 H        1.0740    -1.5650    -1.4370 H     1 <1>   0.0800 
 29 H        0.4890    -2.6450    -0.1910 H     1 <1>   0.0800 
 30 H        4.1320    -1.3420     1.0880 H     1 <1>   0.0800 
 31 H        2.4260    -3.5980    -1.4040 H     1 <1>   0.0800 
 32 H        2.7120    -3.4180     0.3000 H     1 <1>   0.0800 
 33 H        4.6930    -2.6500    -0.9140 H     1 <1>   0.0800 
 34 H        3.7220    -1.5940    -1.9020 H     1 <1>   0.0800 
 35 H        6.2850    -0.9200     1.1440 H     1 <1>   0.3700 
 36 H        6.7390     2.3580    -0.4430 H     1 <1>   0.1500 
 37 H        8.5970    -1.0730     1.2790 H     1 <1>   0.1500 
 38 H        8.8690     3.4920    -0.5150 H     1 <1>   0.1500 
 39 H       10.7610     0.0820     1.2160 H     1 <1>   0.1500 
 40 H       10.8300     4.4050     0.3990 H     1 <1>   0.0800 
 41 H       11.1230     3.7130    -1.2010 H     1 <1>   0.0800 
 42 H       13.2010     4.0110     0.9990 H     1 <1>   0.0800 
 43 H       13.1010     5.0180    -0.4250 H     1 <1>   0.0800 
 44 H       13.4930     3.3240    -0.5910 H     1 <1>   0.0800 
@<TRIPOS>BOND
  1   1   2  2   
  2   1   3  2   
  3   1   4  am  
  4   1   5  1   
  5   4   6  1   
  6   4   7  1   
  7   5  23  1   
  8   5  24  1   
  9   5  25  1   
 10   6   8  1   
 11   6  26  1   
 12   6  27  1   
 13   7   9  1   
 14   7  28  1   
 15   7  29  1   
 16   8  10  1   
 17   8  11  1   
 18   8  30  1   
 19   9  11  1   
 20   9  31  1   
 21   9  32  1   
 22  10  12  2   
 23  10  13  am  
 24  11  33  1   
 25  11  34  1   
 26  13  14  1   
 27  13  35  1   
 28  14  15  ar  
 29  14  16  ar  
 30  15  17  ar  
 31  15  36  1   
 32  16  18  ar  
 33  16  37  1   
 34  17  19  ar  
 35  17  38  1   
 36  18  19  ar  
 37  18  39  1   
 38  19  20  1   
 39  20  21  1   
 40  21  22  1   
 41  21  40  1   
 42  21  41  1   
 43  22  42  1   
 44  22  43  1   
 45  22  44  1   
@<TRIPOS>SUBSTRUCTURE
  1 ****  10 GROUP 4 **** **** 0

# MOE 2024.06 (io_trps.svl 2023.06)
