@<TRIPOS>MOLECULE
3-[5-Hydroxy-5-(3-methoxy-phenyl)-3-methyl-4,5-dihydro-pyrazol-1-yl]-3-oxo-propi
35 36 1 0 0 
SMALL
USER_CHARGES


@<TRIPOS>ATOM
  1 O       -0.3310     1.0740    -0.4430 O.2   1 <1>  -0.5700 
  2 C       -1.4050     1.6210    -0.5590 C.2   1 <1>   0.5690 
  3 N       -1.6660     2.8550    -0.0070 N.am  1 <1>  -0.2980 
  4 C       -2.4920     0.9130    -1.3320 C.3   1 <1>   0.1010 
  5 N       -2.8840     3.5090     0.0190 N.2   1 <1>  -0.5120 
  6 C       -0.6370     3.6150     0.7400 C.3   1 <1>   0.7240 
  7 C       -3.3620     0.1700    -0.3910 C.1   1 <1>   0.3570 
  8 C       -2.7890     4.5330     0.7420 C.2   1 <1>   0.3280 
  9 O       -0.1850     2.7960     1.7470 O.3   1 <1>  -0.6800 
 10 C        0.5190     4.1010    -0.1520 C.ar  1 <1>  -0.1440 
 11 C       -1.4280     4.7730     1.3430 C.3   1 <1>  -0.0990 
 12 N       -4.0400    -0.4190     0.3070 N.1   1 <1>  -0.5570 
 13 C       -3.9070     5.5080     1.0370 C.3   1 <1>  -0.1790 
 14 C        1.8360     4.1100     0.3000 C.ar  1 <1>  -0.1500 
 15 C        0.2560     4.5650    -1.4380 C.ar  1 <1>  -0.1500 
 16 C        2.8680     4.5630    -0.5170 C.ar  1 <1>   0.0820 
 17 C        1.2780     5.0190    -2.2530 C.ar  1 <1>  -0.1500 
 18 O        4.1710     4.5910    -0.1410 O.3   1 <1>  -0.3630 
 19 C        2.5800     5.0160    -1.7920 C.ar  1 <1>  -0.1500 
 20 C        4.5910     4.0690     1.0990 C.3   1 <1>   0.0400 
 21 H       -2.0480     0.2210    -2.0210 H     1 <1>   0.0800 
 22 H       -3.0800     1.6210    -1.8840 H     1 <1>   0.0800 
 23 H        0.1180     1.9770     1.2980 H     1 <1>   0.4000 
 24 H       -1.0350     5.7200     1.0250 H     1 <1>   0.0800 
 25 H       -1.4600     4.7220     2.4150 H     1 <1>   0.0800 
 26 H       -3.6420     6.4890     0.6890 H     1 <1>   0.0800 
 27 H       -4.0910     5.5430     2.0950 H     1 <1>   0.0800 
 28 H       -4.8070     5.1930     0.5400 H     1 <1>   0.0800 
 29 H        2.0530     3.7670     1.2930 H     1 <1>   0.1500 
 30 H       -0.7520     4.5810    -1.8190 H     1 <1>   0.1500 
 31 H        1.0610     5.3730    -3.2460 H     1 <1>   0.1500 
 32 H        3.3820     5.3650    -2.4180 H     1 <1>   0.1500 
 33 H        5.6610     4.1630     1.1560 H     1 <1>   0.0800 
 34 H        4.3120     3.0320     1.1540 H     1 <1>   0.0800 
 35 H        4.1320     4.6350     1.8900 H     1 <1>   0.0800 
@<TRIPOS>BOND
  1   1   2  2   
  2   2   3  am  
  3   2   4  1   
  4   3   5  1   
  5   3   6  1   
  6   4   7  1   
  7   4  21  1   
  8   4  22  1   
  9   5   8  2   
 10   6   9  1   
 11   6  10  1   
 12   6  11  1   
 13   7  12  3   
 14   8  11  1   
 15   8  13  1   
 16   9  23  1   
 17  10  14  ar  
 18  10  15  ar  
 19  11  24  1   
 20  11  25  1   
 21  13  26  1   
 22  13  27  1   
 23  13  28  1   
 24  14  16  ar  
 25  14  29  1   
 26  15  17  ar  
 27  15  30  1   
 28  16  18  1   
 29  16  19  ar  
 30  17  19  ar  
 31  17  31  1   
 32  18  20  1   
 33  19  32  1   
 34  20  33  1   
 35  20  34  1   
 36  20  35  1   
@<TRIPOS>SUBSTRUCTURE
  1 ****   6 GROUP 4 **** **** 0

# MOE 2024.06 (io_trps.svl 2023.06)
