@<TRIPOS>MOLECULE
2-(3-Ethoxy-propylamino)-6-methyl-10-oxo-10H-1,9,10a-triaza-anthracene-3-carboxy
51 53 1 0 0 
SMALL
USER_CHARGES


@<TRIPOS>ATOM
  1 O       -0.0440    -0.3520     0.0360 O.2   1 <1>  -0.5700 
  2 C        0.0210    -1.5580    -0.0240 C.2   1 <1>   0.8650 
  3 N       -1.1720    -2.3010     0.0340 N.pl3 1 <1>  -0.5760 
  4 C        1.2850    -2.2120    -0.1440 C.ar  1 <1>   0.0860 
  5 C       -1.1270    -3.6540    -0.0030 C.cat 1 <1>   0.7390 
  6 C       -2.3950    -1.6730     0.1320 C.2   1 <1>   0.1910 
  7 C        1.2600    -3.6010    -0.1750 C.ar  1 <1>   0.6590 
  8 C        2.5220    -1.5890    -0.2330 C.ar  1 <1>  -0.1500 
  9 N        0.0700    -4.2520    -0.0990 N.pl3 1 <1>  -0.6530 
 10 C       -2.3120    -4.3980     0.0580 C.2   1 <1>  -0.1800 
 11 C       -3.5660    -2.3810     0.1920 C.2   1 <1>  -0.1380 
 12 N        2.3070    -4.3820    -0.2740 N.ar  1 <1>  -0.6200 
 13 C        3.6600    -2.3710    -0.3460 C.ar  1 <1>   0.0860 
 14 C       -3.5280    -3.7790     0.1550 C.2   1 <1>  -0.1500 
 15 C       -4.9170    -1.6910     0.3000 C.3   1 <1>  -0.1020 
 16 C        3.4870    -3.7770    -0.3640 C.ar  1 <1>   0.4100 
 17 C        4.9670    -1.7660    -0.4450 C.2   1 <1>   0.5440 
 18 N        4.5670    -4.6020    -0.4770 N.pl3 1 <1>  -0.8690 
 19 O        5.7980    -2.1990    -1.2210 O.2   1 <1>  -0.5700 
 20 N        5.2940    -0.6810     0.3260 N.am  1 <1>  -0.7300 
 21 C        4.5980    -6.0790    -0.5220 C.3   1 <1>   0.2090 
 22 C        6.5960     0.0380     0.2810 C.3   1 <1>   0.0600 
 23 C        5.9980    -6.5500    -0.1370 C.3   1 <1>  -0.1600 
 24 C        6.1000    -8.0740    -0.1830 C.3   1 <1>   0.1200 
 25 O        7.3950    -8.4220     0.1720 O.3   1 <1>  -0.5600 
 26 C        7.6380    -9.7880     0.1720 C.3   1 <1>   0.1200 
 27 C        9.0910    -9.9960     0.5810 C.3   1 <1>  -0.2400 
 28 H       -2.4210    -0.5930     0.1600 H     1 <1>   0.1500 
 29 H        2.5950    -0.5120    -0.2260 H     1 <1>   0.1500 
 30 H        0.1540    -5.2680    -0.1320 H     1 <1>   0.4500 
 31 H       -2.2580    -5.4710     0.0270 H     1 <1>   0.1500 
 32 H       -4.4480    -4.3430     0.2030 H     1 <1>   0.1500 
 33 H       -5.4180    -1.9970     1.2020 H     1 <1>   0.0800 
 34 H       -5.5350    -1.9530    -0.5410 H     1 <1>   0.0800 
 35 H       -4.8090    -0.6200     0.3190 H     1 <1>   0.0800 
 36 H        5.4540    -4.1510    -0.7680 H     1 <1>   0.4000 
 37 H        4.6720    -0.3900     1.0820 H     1 <1>   0.3700 
 38 H        4.3570    -6.4070    -1.5190 H     1 <1>   0.0800 
 39 H        3.8710    -6.4800     0.1640 H     1 <1>   0.0800 
 40 H        7.1750    -0.2790    -0.5700 H     1 <1>   0.0800 
 41 H        7.1560    -0.1690     1.1760 H     1 <1>   0.0800 
 42 H        6.4250     1.0970     0.2050 H     1 <1>   0.0800 
 43 H        6.2230    -6.2160     0.8600 H     1 <1>   0.0800 
 44 H        6.7160    -6.1360    -0.8230 H     1 <1>   0.0800 
 45 H        5.9060    -8.4400    -1.1780 H     1 <1>   0.0800 
 46 H        5.4170    -8.5240     0.5180 H     1 <1>   0.0800 
 47 H        7.4640   -10.1740    -0.8190 H     1 <1>   0.0800 
 48 H        6.9750   -10.2610     0.8760 H     1 <1>   0.0800 
 49 H        9.7430    -9.5070    -0.1210 H     1 <1>   0.0800 
 50 H        9.3210   -11.0450     0.5940 H     1 <1>   0.0800 
 51 H        9.2570    -9.5930     1.5640 H     1 <1>   0.0800 
@<TRIPOS>BOND
  1   1   2  2   
  2   2   3  1   
  3   2   4  1   
  4   3   5  ar  
  5   3   6  1   
  6   4   7  ar  
  7   4   8  ar  
  8   5   9  ar  
  9   5  10  1   
 10   6  11  2   
 11   6  28  1   
 12   7   9  1   
 13   7  12  ar  
 14   8  13  ar  
 15   8  29  1   
 16   9  30  1   
 17  10  14  2   
 18  10  31  1   
 19  11  14  1   
 20  11  15  1   
 21  12  16  ar  
 22  13  16  ar  
 23  13  17  1   
 24  14  32  1   
 25  15  33  1   
 26  15  34  1   
 27  15  35  1   
 28  16  18  1   
 29  17  19  2   
 30  17  20  am  
 31  18  21  1   
 32  18  36  1   
 33  20  22  1   
 34  20  37  1   
 35  21  23  1   
 36  21  38  1   
 37  21  39  1   
 38  22  40  1   
 39  22  41  1   
 40  22  42  1   
 41  23  24  1   
 42  23  43  1   
 43  23  44  1   
 44  24  25  1   
 45  24  45  1   
 46  24  46  1   
 47  25  26  1   
 48  26  27  1   
 49  26  47  1   
 50  26  48  1   
 51  27  49  1   
 52  27  50  1   
 53  27  51  1   
@<TRIPOS>SUBSTRUCTURE
  1 ****  12 GROUP 4 **** **** 0

# MOE 2024.06 (io_trps.svl 2023.06)
