@<TRIPOS>MOLECULE
3-tert-Butyl-6-p-tolyloxymethyl-[1,2,4]triazolo[3,4-b][1,3,4]thiadiazole
39 41 1 0 0 
SMALL
USER_CHARGES


@<TRIPOS>ATOM
  1 S       -0.0490    -0.1400    -1.3770 S.3   1 <1>  -0.1970 
  2 C        0.9580     1.2430    -1.0090 C.2   1 <1>   0.2420 
  3 C       -1.4640     0.8370    -0.9320 C.2   1 <1>   0.5300 
  4 N        2.2160     1.4980    -1.0390 N.2   1 <1>  -0.3380 
  5 N        0.1900     2.2440    -0.6120 N.pl3 1 <1>   0.5050 
  6 N       -1.1950     2.0290    -0.5730 N.2   1 <1>  -0.6520 
  7 C       -2.8200     0.1610    -1.0430 C.3   1 <1>   0.1810 
  8 N        2.3060     2.7760    -0.6270 N.2   1 <1>  -0.3380 
  9 C        1.1010     3.2080    -0.3770 C.2   1 <1>   0.0060 
 10 O       -2.8890    -0.9340    -0.1510 O.3   1 <1>  -0.3630 
 11 C        0.7300     4.6130     0.1190 C.3   1 <1>   0.1800 
 12 C       -3.9940    -1.7170    -0.0840 C.ar  1 <1>   0.0820 
 13 C        0.0140     4.5220     1.4740 C.3   1 <1>  -0.2400 
 14 C       -0.1860     5.3080    -0.9000 C.3   1 <1>  -0.2400 
 15 C        1.9890     5.4790     0.2990 C.3   1 <1>  -0.2400 
 16 C       -3.9400    -2.7970     0.7810 C.ar  1 <1>  -0.1500 
 17 C       -5.1520    -1.4920    -0.8240 C.ar  1 <1>  -0.1500 
 18 C       -5.0230    -3.6490     0.9100 C.ar  1 <1>  -0.1500 
 19 C       -6.2330    -2.3470    -0.6920 C.ar  1 <1>  -0.1500 
 20 C       -6.1750    -3.4290     0.1720 C.ar  1 <1>  -0.1430 
 21 C       -7.3640    -4.3620     0.3140 C.3   1 <1>  -0.0970 
 22 H       -2.9650    -0.2040    -2.0430 H     1 <1>   0.0800 
 23 H       -3.5950     0.8590    -0.7830 H     1 <1>   0.0800 
 24 H        0.6390     4.0160     2.1890 H     1 <1>   0.0800 
 25 H       -0.9100     3.9790     1.3860 H     1 <1>   0.0800 
 26 H       -0.2090     5.5040     1.8510 H     1 <1>   0.0800 
 27 H       -1.1120     4.7730    -1.0110 H     1 <1>   0.0800 
 28 H        0.2980     5.3550    -1.8600 H     1 <1>   0.0800 
 29 H       -0.4130     6.3100    -0.5820 H     1 <1>   0.0800 
 30 H        2.6540     5.0260     1.0140 H     1 <1>   0.0800 
 31 H        1.7330     6.4630     0.6470 H     1 <1>   0.0800 
 32 H        2.5150     5.5730    -0.6350 H     1 <1>   0.0800 
 33 H       -3.0460    -2.9690     1.3530 H     1 <1>   0.1500 
 34 H       -5.2380    -0.6660    -1.5020 H     1 <1>   0.1500 
 35 H       -4.9640    -4.4830     1.5870 H     1 <1>   0.1500 
 36 H       -7.1260    -2.1670    -1.2650 H     1 <1>   0.1500 
 37 H       -7.0350    -5.3560     0.5590 H     1 <1>   0.0800 
 38 H       -7.9190    -4.4070    -0.6050 H     1 <1>   0.0800 
 39 H       -8.0120    -4.0080     1.0950 H     1 <1>   0.0800 
@<TRIPOS>BOND
  1   1   2  1   
  2   1   3  1   
  3   2   4  2   
  4   2   5  1   
  5   3   6  2   
  6   3   7  1   
  7   4   8  1   
  8   5   6  1   
  9   5   9  1   
 10   7  10  1   
 11   7  22  1   
 12   7  23  1   
 13   8   9  2   
 14   9  11  1   
 15  10  12  1   
 16  11  13  1   
 17  11  14  1   
 18  11  15  1   
 19  12  16  ar  
 20  12  17  ar  
 21  13  24  1   
 22  13  25  1   
 23  13  26  1   
 24  14  27  1   
 25  14  28  1   
 26  14  29  1   
 27  15  30  1   
 28  15  31  1   
 29  15  32  1   
 30  16  18  ar  
 31  16  33  1   
 32  17  19  ar  
 33  17  34  1   
 34  18  20  ar  
 35  18  35  1   
 36  19  20  ar  
 37  19  36  1   
 38  20  21  1   
 39  21  37  1   
 40  21  38  1   
 41  21  39  1   
@<TRIPOS>SUBSTRUCTURE
  1 ****   3 GROUP 4 **** **** 0

# MOE 2024.06 (io_trps.svl 2023.06)
