@<TRIPOS>MOLECULE
4-Phenyl-tetrahydro-pyran-4-carboxylic acid
28 29 1 0 0 
SMALL
USER_CHARGES


@<TRIPOS>ATOM
  1 O       -0.0940    -0.4350    -1.8900 O.co2 1 <1>  -0.9000 
  2 C       -0.3780    -1.6430    -1.9020 C.2   1 <1>   0.9060 
  3 O       -0.2150    -2.3090    -2.9380 O.co2 1 <1>  -0.9000 
  4 C       -0.9920    -2.3200    -0.6360 C.3   1 <1>   0.0370 
  5 C        0.0950    -3.1940     0.0560 C.ar  1 <1>  -0.1440 
  6 C       -2.1940    -3.2200    -1.0820 C.3   1 <1>  -0.1600 
  7 C       -1.5660    -1.2370     0.3280 C.3   1 <1>  -0.1600 
  8 C        0.5590    -2.9860     1.3540 C.ar  1 <1>  -0.1500 
  9 C        0.6610    -4.2430    -0.6620 C.ar  1 <1>  -0.1500 
 10 C       -3.4430    -3.0700    -0.2050 C.3   1 <1>   0.1200 
 11 C       -2.9070    -0.7230    -0.2010 C.3   1 <1>   0.1200 
 12 C        1.5200    -3.8100     1.9160 C.ar  1 <1>  -0.1500 
 13 C        1.6220    -5.0690    -0.1080 C.ar  1 <1>  -0.1500 
 14 O       -3.8810    -1.7360    -0.1550 O.3   1 <1>  -0.5600 
 15 C        2.0510    -4.8580     1.1880 C.ar  1 <1>  -0.1500 
 16 H       -1.9110    -4.2540    -1.1030 H     1 <1>   0.0800 
 17 H       -2.4870    -2.9650    -2.0860 H     1 <1>   0.0800 
 18 H       -0.8730    -0.4210     0.4290 H     1 <1>   0.0800 
 19 H       -1.7490    -1.6310     1.3090 H     1 <1>   0.0800 
 20 H        0.1980    -2.1750     1.9540 H     1 <1>   0.1500 
 21 H        0.3560    -4.4130    -1.6820 H     1 <1>   0.1500 
 22 H       -3.2320    -3.3880     0.8010 H     1 <1>   0.0800 
 23 H       -4.2520    -3.6640    -0.5930 H     1 <1>   0.0800 
 24 H       -2.8070    -0.3970    -1.2230 H     1 <1>   0.0800 
 25 H       -3.2620     0.1010     0.3920 H     1 <1>   0.0800 
 26 H        1.8570    -3.6290     2.9210 H     1 <1>   0.1500 
 27 H        2.0360    -5.8700    -0.6940 H     1 <1>   0.1500 
 28 H        2.7970    -5.4980     1.6230 H     1 <1>   0.1500 
@<TRIPOS>BOND
  1   1   2  ar  
  2   2   3  ar  
  3   2   4  1   
  4   4   5  1   
  5   4   6  1   
  6   4   7  1   
  7   5   8  ar  
  8   5   9  ar  
  9   6  10  1   
 10   6  16  1   
 11   6  17  1   
 12   7  11  1   
 13   7  18  1   
 14   7  19  1   
 15   8  12  ar  
 16   8  20  1   
 17   9  13  ar  
 18   9  21  1   
 19  10  14  1   
 20  10  22  1   
 21  10  23  1   
 22  11  14  1   
 23  11  24  1   
 24  11  25  1   
 25  12  15  ar  
 26  12  26  1   
 27  13  15  ar  
 28  13  27  1   
 29  15  28  1   
@<TRIPOS>SUBSTRUCTURE
  1 ****   4 GROUP 4 **** **** 0

# MOE 2024.06 (io_trps.svl 2023.06)
