@<TRIPOS>MOLECULE
4-(4-Methoxy-phenyl)-1-methyl-1,4-dihydro-pyridine-3,5-dicarboxylic acid diethyl
48 49 1 0 0 
SMALL
USER_CHARGES


@<TRIPOS>ATOM
  1 O       -0.3310    -1.1170     2.0360 O.2   1 <1>  -0.5700 
  2 C       -0.2750    -1.8510     1.0660 C.2   1 <1>   0.7060 
  3 O        0.9150    -2.3510     0.7120 O.3   1 <1>  -0.4300 
  4 C       -1.4100    -2.2400     0.2920 C.2   1 <1>  -0.1240 
  5 C        2.0900    -2.0140     1.4150 C.3   1 <1>   0.1200 
  6 C       -1.4100    -3.2100    -0.6560 C.2   1 <1>  -0.0500 
  7 C       -2.6980    -1.4670     0.5810 C.3   1 <1>   0.3400 
  8 C        3.2580    -2.7450     0.7610 C.3   1 <1>  -0.2400 
  9 N       -2.5440    -3.5860    -1.3510 N.pl3 1 <1>  -0.5690 
 10 C       -3.9330    -2.0960    -0.0680 C.2   1 <1>  -0.1240 
 11 C       -2.5420    -0.0370     0.0550 C.ar  1 <1>  -0.1440 
 12 C       -3.7770    -3.0750    -0.9940 C.2   1 <1>  -0.0500 
 13 C       -2.4530    -4.6290    -2.4020 C.3   1 <1>   0.1290 
 14 C       -5.1880    -1.5700     0.3650 C.2   1 <1>   0.7060 
 15 C       -2.6030     1.0450     0.9220 C.ar  1 <1>  -0.1500 
 16 C       -2.3370     0.1960    -1.2980 C.ar  1 <1>  -0.1500 
 17 O       -5.3200    -0.8380     1.3290 O.2   1 <1>  -0.5700 
 18 O       -6.2790    -1.9320    -0.3240 O.3   1 <1>  -0.4300 
 19 C       -2.4630     2.3380     0.4490 C.ar  1 <1>  -0.1500 
 20 C       -2.1970     1.4870    -1.7750 C.ar  1 <1>  -0.1500 
 21 C       -7.5790    -1.4990     0.0170 C.3   1 <1>   0.1200 
 22 C       -2.2580     2.5660    -0.9090 C.ar  1 <1>   0.0830 
 23 C       -8.1520    -2.4400     1.0750 C.3   1 <1>  -0.2400 
 24 O       -2.1110     3.7990    -1.4560 O.3   1 <1>  -0.3630 
 25 C       -2.1590     4.9600    -0.6570 C.3   1 <1>   0.0400 
 26 H        1.9710    -2.3140     2.4430 H     1 <1>   0.0800 
 27 H        2.2230    -0.9460     1.3630 H     1 <1>   0.0800 
 28 H       -0.5040    -3.7430    -0.8980 H     1 <1>   0.1500 
 29 H       -2.8500    -1.4540     1.6470 H     1 <1>   0.0800 
 30 H        3.1050    -3.8080     0.8120 H     1 <1>   0.0800 
 31 H        4.1700    -2.5050     1.2770 H     1 <1>   0.0800 
 32 H        3.3560    -2.4420    -0.2660 H     1 <1>   0.0800 
 33 H       -4.6330    -3.5080    -1.4870 H     1 <1>   0.1500 
 34 H       -1.4960    -4.5750    -2.8910 H     1 <1>   0.0800 
 35 H       -3.2250    -4.4790    -3.1360 H     1 <1>   0.0800 
 36 H       -2.5700    -5.6000    -1.9560 H     1 <1>   0.0800 
 37 H       -2.7620     0.8830     1.9750 H     1 <1>   0.1500 
 38 H       -2.2870    -0.6310    -1.9860 H     1 <1>   0.1500 
 39 H       -2.5160     3.1480     1.1500 H     1 <1>   0.1500 
 40 H       -2.0390     1.6650    -2.8220 H     1 <1>   0.1500 
 41 H       -8.1770    -1.5330    -0.8770 H     1 <1>   0.0800 
 42 H       -7.5370    -0.4810     0.3700 H     1 <1>   0.0800 
 43 H       -8.1700    -3.4490     0.7060 H     1 <1>   0.0800 
 44 H       -9.1570    -2.1440     1.3150 H     1 <1>   0.0800 
 45 H       -7.5630    -2.3930     1.9740 H     1 <1>   0.0800 
 46 H       -2.0210     5.8120    -1.2980 H     1 <1>   0.0800 
 47 H       -1.3670     4.9150     0.0700 H     1 <1>   0.0800 
 48 H       -3.1210     5.0130    -0.1780 H     1 <1>   0.0800 
@<TRIPOS>BOND
  1   1   2  2   
  2   2   3  1   
  3   2   4  1   
  4   3   5  1   
  5   4   6  2   
  6   4   7  1   
  7   5   8  1   
  8   5  26  1   
  9   5  27  1   
 10   6   9  1   
 11   6  28  1   
 12   7  10  1   
 13   7  11  1   
 14   7  29  1   
 15   8  30  1   
 16   8  31  1   
 17   8  32  1   
 18   9  12  1   
 19   9  13  1   
 20  10  12  2   
 21  10  14  1   
 22  11  15  ar  
 23  11  16  ar  
 24  12  33  1   
 25  13  34  1   
 26  13  35  1   
 27  13  36  1   
 28  14  17  2   
 29  14  18  1   
 30  15  19  ar  
 31  15  37  1   
 32  16  20  ar  
 33  16  38  1   
 34  18  21  1   
 35  19  22  ar  
 36  19  39  1   
 37  20  22  ar  
 38  20  40  1   
 39  21  23  1   
 40  21  41  1   
 41  21  42  1   
 42  22  24  1   
 43  23  43  1   
 44  23  44  1   
 45  23  45  1   
 46  24  25  1   
 47  25  46  1   
 48  25  47  1   
 49  25  48  1   
@<TRIPOS>SUBSTRUCTURE
  1 ****   7 GROUP 4 **** **** 0

# MOE 2024.06 (io_trps.svl 2023.06)
