@<TRIPOS>MOLECULE
7-(2-Hydroxy-3-m-tolyloxy-propyl)-1,3-dimethyl-8-methylamino-3,7-dihydro-purine-
51 53 1 0 0 
SMALL
USER_CHARGES


@<TRIPOS>ATOM
  1 O        5.2220     0.8180     2.5860 O.2   1 <1>  -0.5750 
  2 C        5.3250     1.4520     1.5540 C.2   1 <1>   0.6860 
  3 N        4.4570     2.5080     1.2990 N.am  1 <1>  -0.4260 
  4 N        6.3060     1.1180     0.6300 N.am  1 <1>  -0.4420 
  5 C        4.6300     3.3240     0.1910 C.2   1 <1>   0.6990 
  6 C        3.3510     2.7860     2.2670 C.3   1 <1>   0.0520 
  7 C        6.4340     1.9120    -0.4940 C.2   1 <1>   0.4210 
  8 C        7.2550    -0.0010     0.8940 C.3   1 <1>   0.0520 
  9 O        3.9440     4.3240     0.0410 O.2   1 <1>  -0.5750 
 10 C        5.6410     2.9710    -0.7610 C.2   1 <1>   0.2710 
 11 N        7.3500     1.7950    -1.4920 N.pl3 1 <1>  -0.7040 
 12 N        6.0830     3.5020    -1.9910 N.pl3 1 <1>  -0.7670 
 13 C        7.1480     2.7880    -2.3510 C.cat 1 <1>   1.0690 
 14 C        5.4600     4.6720    -2.6890 C.3   1 <1>   0.3480 
 15 N        7.9140     3.0360    -3.4070 N.pl3 1 <1>  -0.7180 
 16 C        6.3300     5.9510    -2.7110 C.3   1 <1>   0.1930 
 17 C        9.0940     2.2950    -3.9220 C.3   1 <1>   0.0800 
 18 O        7.4020     5.7750    -3.5930 O.3   1 <1>  -0.6840 
 19 C        6.8380     6.3610    -1.3140 C.3   1 <1>   0.1130 
 20 O        8.0020     5.6210    -0.9730 O.3   1 <1>  -0.3680 
 21 C        8.1350     4.8880     0.1590 C.ar  1 <1>   0.0750 
 22 C        7.2990     4.9890     1.2680 C.ar  1 <1>  -0.1570 
 23 C        9.1740     3.9710     0.1710 C.ar  1 <1>  -0.1570 
 24 C        7.4740     4.1430     2.3510 C.ar  1 <1>  -0.1510 
 25 C        9.3540     3.1300     1.2530 C.ar  1 <1>  -0.1570 
 26 C        8.4980     3.2110     2.3370 C.ar  1 <1>  -0.1570 
 27 C        6.5710     4.2400     3.5680 C.3   1 <1>  -0.1040 
 28 H        2.9510     1.8630     2.6490 H     1 <1>   0.0720 
 29 H        2.5510     3.3270     1.7910 H     1 <1>   0.0720 
 30 H        3.7270     3.3680     3.0890 H     1 <1>   0.0720 
 31 H        7.4760    -0.5270    -0.0170 H     1 <1>   0.0720 
 32 H        6.8280    -0.7040     1.5900 H     1 <1>   0.0720 
 33 H        8.1650     0.3890     1.3160 H     1 <1>   0.0720 
 34 H        8.1330     1.1550    -1.5300 H     1 <1>   0.4450 
 35 H        4.5240     4.9120    -2.2180 H     1 <1>   0.0720 
 36 H        5.2270     4.3960    -3.7040 H     1 <1>   0.0720 
 37 H        7.7800     3.9810    -3.8030 H     1 <1>   0.4450 
 38 H        5.7280     6.7530    -3.1040 H     1 <1>   0.0720 
 39 H        9.1530     1.3120    -3.4890 H     1 <1>   0.0720 
 40 H        9.9950     2.8380    -3.6880 H     1 <1>   0.0720 
 41 H        9.0190     2.1950    -4.9920 H     1 <1>   0.0720 
 42 H        8.0420     6.5130    -3.4790 H     1 <1>   0.3940 
 43 H        6.0560     6.2080    -0.5960 H     1 <1>   0.0720 
 44 H        7.1060     7.4030    -1.3050 H     1 <1>   0.0720 
 45 H        6.5190     5.7240     1.3190 H     1 <1>   0.1430 
 46 H        9.8430     3.9240    -0.6690 H     1 <1>   0.1430 
 47 H       10.1650     2.4230     1.2630 H     1 <1>   0.1430 
 48 H        8.6410     2.5570     3.1810 H     1 <1>   0.1430 
 49 H        5.6970     4.8290     3.3550 H     1 <1>   0.0720 
 50 H        7.1060     4.7040     4.3780 H     1 <1>   0.0720 
 51 H        6.2580     3.2600     3.8810 H     1 <1>   0.0720 
@<TRIPOS>BOND
  1   1   2  2   
  2   2   3  am  
  3   2   4  am  
  4   3   5  am  
  5   3   6  1   
  6   4   7  1   
  7   4   8  1   
  8   5   9  2   
  9   5  10  1   
 10   6  28  1   
 11   6  29  1   
 12   6  30  1   
 13   7  10  2   
 14   7  11  1   
 15   8  31  1   
 16   8  32  1   
 17   8  33  1   
 18  10  12  1   
 19  11  13  ar  
 20  11  34  1   
 21  12  13  ar  
 22  12  14  1   
 23  13  15  ar  
 24  14  16  1   
 25  14  35  1   
 26  14  36  1   
 27  15  17  1   
 28  15  37  1   
 29  16  18  1   
 30  16  19  1   
 31  16  38  1   
 32  17  39  1   
 33  17  40  1   
 34  17  41  1   
 35  18  42  1   
 36  19  20  1   
 37  19  43  1   
 38  19  44  1   
 39  20  21  1   
 40  21  22  ar  
 41  21  23  ar  
 42  22  24  ar  
 43  22  45  1   
 44  23  25  ar  
 45  23  46  1   
 46  24  26  ar  
 47  24  27  1   
 48  25  26  ar  
 49  25  47  1   
 50  26  48  1   
 51  27  49  1   
 52  27  50  1   
 53  27  51  1   
@<TRIPOS>SUBSTRUCTURE
  1 ****  10 GROUP 4 **** **** 0

# MOE 2024.06 (io_trps.svl 2023.06)
