@<TRIPOS>MOLECULE
3,7-Dimethyl-1-(4-methyl-benzyl)-8-(4-methyl-piperazin-1-yl)-3,7-dihydro-purine-
56 59 1 0 0 
SMALL
USER_CHARGES


@<TRIPOS>ATOM
  1 O        0.6290     1.8510     3.0220 O.2   1 <1>  -0.5740 
  2 C        1.4020     2.0750     2.1130 C.2   1 <1>   0.6870 
  3 N        1.1620     3.1170     1.2320 N.am  1 <1>  -0.4250 
  4 N        2.5370     1.2880     1.9630 N.am  1 <1>  -0.4410 
  5 C        2.0930     3.4850     0.2790 C.2   1 <1>   0.7000 
  6 C       -0.2250     3.6310     1.0950 C.3   1 <1>   0.2780 
  7 C        3.4220     1.6150     0.9540 C.2   1 <1>   0.4210 
  8 C        2.7730     0.1240     2.8700 C.3   1 <1>   0.0530 
  9 O        1.9380     4.4910    -0.3940 O.2   1 <1>  -0.5740 
 10 C        3.2540     2.6590     0.1190 C.2   1 <1>   0.2710 
 11 C       -0.9140     2.8090     0.0180 C.ar  1 <1>  -0.1500 
 12 N        4.5830     0.9850     0.6300 N.pl3 1 <1>  -0.7030 
 13 N        4.3590     2.6540    -0.7600 N.pl3 1 <1>  -0.7670 
 14 C       -1.4870     1.5870     0.3320 C.ar  1 <1>  -0.1570 
 15 C       -0.9550     3.2600    -1.2930 C.ar  1 <1>  -0.1570 
 16 C        5.1490     1.6310    -0.3940 C.cat 1 <1>   1.0690 
 17 C        4.3590     3.5510    -1.9570 C.3   1 <1>   0.2680 
 18 C       -2.0860     0.8210    -0.6530 C.ar  1 <1>  -0.1570 
 19 C       -1.5540     2.4930    -2.2770 C.ar  1 <1>  -0.1570 
 20 N        6.3510     1.2710    -0.9260 N.pl3 1 <1>  -0.5960 
 21 C       -2.1210     1.2700    -1.9620 C.ar  1 <1>  -0.1500 
 22 C        7.2400     2.2190    -1.6860 C.3   1 <1>   0.1610 
 23 C        6.8890    -0.1360    -0.8550 C.3   1 <1>   0.1610 
 24 C       -2.7750     0.4320    -3.0460 C.3   1 <1>  -0.1030 
 25 C        8.7270     2.1220    -1.2670 C.3   1 <1>   0.3380 
 26 C        8.3780    -0.1950    -0.4400 C.3   1 <1>   0.3380 
 27 N        9.2350     0.7090    -1.2760 N.4   1 <1>  -0.9610 
 28 C       10.6590     0.6610    -0.8130 C.3   1 <1>   0.2570 
 29 H       -0.2130     4.6720     0.8220 H     1 <1>   0.0730 
 30 H       -0.7610     3.5450     2.0250 H     1 <1>   0.0730 
 31 H        1.8390    -0.2400     3.2650 H     1 <1>   0.0730 
 32 H        3.3960     0.4260     3.6940 H     1 <1>   0.0730 
 33 H        3.2410    -0.6830     2.3380 H     1 <1>   0.0730 
 34 H        4.9540     0.1830     1.1270 H     1 <1>   0.4450 
 35 H       -1.4710     1.2220     1.3460 H     1 <1>   0.1430 
 36 H       -0.5210     4.2090    -1.5570 H     1 <1>   0.1430 
 37 H        3.3590     3.6440    -2.3500 H     1 <1>   0.0730 
 38 H        4.9780     3.1550    -2.7410 H     1 <1>   0.0730 
 39 H        4.7070     4.5330    -1.6820 H     1 <1>   0.0730 
 40 H       -2.5260    -0.1260    -0.3940 H     1 <1>   0.1430 
 41 H       -1.5790     2.8540    -3.2900 H     1 <1>   0.1430 
 42 H        6.9280     3.2350    -1.5210 H     1 <1>   0.0730 
 43 H        7.1590     2.0140    -2.7410 H     1 <1>   0.0730 
 44 H        6.7870    -0.5930    -1.8260 H     1 <1>   0.0730 
 45 H        6.3170    -0.7340    -0.1680 H     1 <1>   0.0730 
 46 H       -3.2760     1.0650    -3.7550 H     1 <1>   0.0730 
 47 H       -3.4990    -0.2390    -2.6190 H     1 <1>   0.0730 
 48 H       -2.0280    -0.1450    -3.5600 H     1 <1>   0.0730 
 49 H        8.8340     2.5340    -0.2770 H     1 <1>   0.0730 
 50 H        9.3220     2.7240    -1.9350 H     1 <1>   0.0730 
 51 H        8.7310    -1.2110    -0.5310 H     1 <1>   0.0730 
 52 H        8.4640     0.0870     0.5970 H     1 <1>   0.0730 
 53 H        9.2240     0.3640    -2.2490 H     1 <1>   0.4450 
 54 H       10.7380     1.0120     0.2030 H     1 <1>   0.0730 
 55 H       11.2780     1.2820    -1.4410 H     1 <1>   0.0730 
 56 H       11.0340    -0.3490    -0.8580 H     1 <1>   0.0730 
@<TRIPOS>BOND
  1   1   2  2   
  2   2   3  am  
  3   2   4  am  
  4   3   5  am  
  5   3   6  1   
  6   4   7  1   
  7   4   8  1   
  8   5   9  2   
  9   5  10  1   
 10   6  11  1   
 11   6  29  1   
 12   6  30  1   
 13   7  10  2   
 14   7  12  1   
 15   8  31  1   
 16   8  32  1   
 17   8  33  1   
 18  10  13  1   
 19  11  14  ar  
 20  11  15  ar  
 21  12  16  ar  
 22  12  34  1   
 23  13  16  ar  
 24  13  17  1   
 25  14  18  ar  
 26  14  35  1   
 27  15  19  ar  
 28  15  36  1   
 29  16  20  ar  
 30  17  37  1   
 31  17  38  1   
 32  17  39  1   
 33  18  21  ar  
 34  18  40  1   
 35  19  21  ar  
 36  19  41  1   
 37  20  22  1   
 38  20  23  1   
 39  21  24  1   
 40  22  25  1   
 41  22  42  1   
 42  22  43  1   
 43  23  26  1   
 44  23  44  1   
 45  23  45  1   
 46  24  46  1   
 47  24  47  1   
 48  24  48  1   
 49  25  27  1   
 50  25  49  1   
 51  25  50  1   
 52  26  27  1   
 53  26  51  1   
 54  26  52  1   
 55  27  28  1   
 56  27  53  1   
 57  28  54  1   
 58  28  55  1   
 59  28  56  1   
@<TRIPOS>SUBSTRUCTURE
  1 ****  10 GROUP 4 **** **** 0

# MOE 2024.06 (io_trps.svl 2023.06)
