@<TRIPOS>MOLECULE
3-(4-Fluoro-benzyl)-1,6,7-trimethyl-8-(tetrahydro-furan-2-ylmethyl)-1H,8H-imidaz
56 60 1 0 0 
SMALL
USER_CHARGES


@<TRIPOS>ATOM
  1 F        3.9120    -0.7550    -3.7360 F     1 <1>  -0.1960 
  2 C        4.3500    -0.7850    -2.5070 C.ar  1 <1>   0.1840 
  3 C        4.4260    -2.0010    -1.8560 C.ar  1 <1>  -0.1560 
  4 C        4.7230     0.3990    -1.9010 C.ar  1 <1>  -0.1560 
  5 C        4.8930    -2.0270    -0.5520 C.ar  1 <1>  -0.1560 
  6 C        5.1870     0.3610    -0.5970 C.ar  1 <1>  -0.1560 
  7 C        5.2740    -0.8500     0.0810 C.ar  1 <1>  -0.1500 
  8 C        5.7870    -0.8890     1.5130 C.3   1 <1>   0.2780 
  9 N        7.2520    -1.1500     1.4990 N.am  1 <1>  -0.4250 
 10 C        7.7040    -2.4620     1.5260 C.2   1 <1>   0.6870 
 11 C        8.1250    -0.0850     1.3380 C.2   1 <1>   0.7000 
 12 O        6.9310    -3.3720     1.7490 O.2   1 <1>  -0.5740 
 13 N        9.0490    -2.7370     1.3140 N.am  1 <1>  -0.4410 
 14 O        7.7200     1.0650     1.3880 O.2   1 <1>  -0.5740 
 15 C        9.5060    -0.3800     1.1340 C.2   1 <1>   0.2710 
 16 C        9.9120    -1.6740     1.1380 C.2   1 <1>   0.4210 
 17 C        9.5540    -4.1420     1.3140 C.3   1 <1>   0.0530 
 18 N       10.6600     0.3920     0.9060 N.pl3 1 <1>  -0.6330 
 19 N       11.2580    -1.7190     0.9430 N.pl3 1 <1>  -0.7030 
 20 C       11.6690    -0.4610     0.7950 C.cat 1 <1>   1.0690 
 21 C       11.1870     1.6530     0.7270 C.2   1 <1>   0.2350 
 22 N       12.8320     0.1610     0.5590 N.pl3 1 <1>  -0.5710 
 23 C       12.5190     1.5130     0.5160 C.2   1 <1>   0.1580 
 24 C       10.2930     2.8770     0.7870 C.3   1 <1>  -0.1090 
 25 C       14.1880    -0.4700     0.4720 C.3   1 <1>   0.1610 
 26 C       13.5780     2.5740     0.2680 C.3   1 <1>  -0.1090 
 27 C       14.2920    -1.5770    -0.5950 C.3   1 <1>   0.1940 
 28 O       13.4490    -2.6470    -0.2950 O.3   1 <1>  -0.5640 
 29 C       15.6750    -2.2080    -0.6760 C.3   1 <1>  -0.1660 
 30 C       13.8880    -3.7920    -0.9630 C.3   1 <1>   0.1130 
 31 C       15.3860    -3.6080    -1.1890 C.3   1 <1>  -0.1660 
 32 H        4.1240    -2.9020    -2.3590 H     1 <1>   0.1440 
 33 H        4.6480     1.3260    -2.4400 H     1 <1>   0.1440 
 34 H        4.9560    -2.9700    -0.0330 H     1 <1>   0.1440 
 35 H        5.4790     1.2790    -0.1150 H     1 <1>   0.1440 
 36 H        5.2720    -1.6560     2.0650 H     1 <1>   0.0730 
 37 H        5.5800     0.0470     2.0040 H     1 <1>   0.0730 
 38 H        8.7660    -4.8260     1.0450 H     1 <1>   0.0730 
 39 H        9.9110    -4.3980     2.2960 H     1 <1>   0.0730 
 40 H       10.3520    -4.2560     0.6020 H     1 <1>   0.0730 
 41 H       11.8960    -2.4900     0.7010 H     1 <1>   0.4450 
 42 H        9.5290     2.8110     0.0320 H     1 <1>   0.0730 
 43 H       10.8560     3.7770     0.6260 H     1 <1>   0.0730 
 44 H        9.8180     2.9370     1.7500 H     1 <1>   0.0730 
 45 H       14.4480    -0.8810     1.4320 H     1 <1>   0.0730 
 46 H       14.9180     0.2850     0.2400 H     1 <1>   0.0730 
 47 H       14.3250     2.5400     1.0410 H     1 <1>   0.0730 
 48 H       13.1450     3.5570     0.2620 H     1 <1>   0.0730 
 49 H       14.0520     2.4090    -0.6840 H     1 <1>   0.0730 
 50 H       14.0120    -1.1960    -1.5630 H     1 <1>   0.0730 
 51 H       16.1200    -2.2630     0.3020 H     1 <1>   0.0730 
 52 H       16.3290    -1.6600    -1.3320 H     1 <1>   0.0730 
 53 H       13.3620    -3.8630    -1.9010 H     1 <1>   0.0730 
 54 H       13.6760    -4.6550    -0.3550 H     1 <1>   0.0730 
 55 H       15.9540    -4.3500    -0.6550 H     1 <1>   0.0730 
 56 H       15.6080    -3.6920    -2.2390 H     1 <1>   0.0730 
@<TRIPOS>BOND
  1   1   2  1   
  2   2   3  ar  
  3   2   4  ar  
  4   3   5  ar  
  5   3  32  1   
  6   4   6  ar  
  7   4  33  1   
  8   5   7  ar  
  9   5  34  1   
 10   6   7  ar  
 11   6  35  1   
 12   7   8  1   
 13   8   9  1   
 14   8  36  1   
 15   8  37  1   
 16   9  10  am  
 17   9  11  am  
 18  10  12  2   
 19  10  13  am  
 20  11  14  2   
 21  11  15  1   
 22  13  16  1   
 23  13  17  1   
 24  15  16  2   
 25  15  18  1   
 26  16  19  1   
 27  17  38  1   
 28  17  39  1   
 29  17  40  1   
 30  18  20  ar  
 31  18  21  1   
 32  19  20  ar  
 33  19  41  1   
 34  20  22  ar  
 35  21  23  2   
 36  21  24  1   
 37  22  23  1   
 38  22  25  1   
 39  23  26  1   
 40  24  42  1   
 41  24  43  1   
 42  24  44  1   
 43  25  27  1   
 44  25  45  1   
 45  25  46  1   
 46  26  47  1   
 47  26  48  1   
 48  26  49  1   
 49  27  28  1   
 50  27  29  1   
 51  27  50  1   
 52  28  30  1   
 53  29  31  1   
 54  29  51  1   
 55  29  52  1   
 56  30  31  1   
 57  30  53  1   
 58  30  54  1   
 59  31  55  1   
 60  31  56  1   
@<TRIPOS>SUBSTRUCTURE
  1 ****  15 GROUP 4 **** **** 0

# MOE 2024.06 (io_trps.svl 2023.06)
