@<TRIPOS>MOLECULE
3-(4-Benzyl-piperidin-1-yl)-propylamine
43 44 1 0 0 
SMALL
USER_CHARGES


@<TRIPOS>ATOM
  1 N        0.1570     0.2380    -0.1320 N.4   1 <1>  -0.9590 
  2 C       -1.1260     0.9880    -0.3320 C.3   1 <1>   0.3430 
  3 C        1.2920     1.0360    -0.6950 C.3   1 <1>   0.3430 
  4 C        0.0260    -1.1280    -0.7240 C.3   1 <1>   0.3430 
  5 C       -1.0760     2.3190     0.4200 C.3   1 <1>  -0.1600 
  6 C        1.4120     2.3610     0.0530 C.3   1 <1>  -0.1600 
  7 C        0.8340    -2.1910     0.0410 C.3   1 <1>  -0.1600 
  8 C        0.1130     3.1810    -0.0330 C.3   1 <1>  -0.0800 
  9 C        2.3370    -2.2000    -0.2620 C.3   1 <1>   0.3430 
 10 C        0.1950     4.4850     0.7860 C.3   1 <1>  -0.0170 
 11 N        2.9830    -3.3680     0.3950 N.4   1 <1>  -0.8530 
 12 C        1.3660     5.3470     0.3400 C.ar  1 <1>  -0.1430 
 13 C        2.5050     5.4490     1.1250 C.ar  1 <1>  -0.1500 
 14 C        1.3070     6.0350    -0.8630 C.ar  1 <1>  -0.1500 
 15 C        3.5770     6.2180     0.7070 C.ar  1 <1>  -0.1500 
 16 C        2.3790     6.8040    -1.2820 C.ar  1 <1>  -0.1500 
 17 C        3.5150     6.8940    -0.4980 C.ar  1 <1>  -0.1500 
 18 H        0.2750     0.1800     0.8890 H     1 <1>   0.4500 
 19 H       -1.9590     0.4080     0.0360 H     1 <1>   0.0800 
 20 H       -1.2840     1.1760    -1.3820 H     1 <1>   0.0800 
 21 H        1.1190     1.2340    -1.7410 H     1 <1>   0.0800 
 22 H        2.2190     0.4970    -0.6000 H     1 <1>   0.0800 
 23 H        0.3030    -1.1120    -1.7670 H     1 <1>   0.0800 
 24 H       -1.0130    -1.4200    -0.6780 H     1 <1>   0.0800 
 25 H       -1.0220     2.1310     1.4790 H     1 <1>   0.0800 
 26 H       -1.9920     2.8540     0.2370 H     1 <1>   0.0800 
 27 H        2.2190     2.9230    -0.3880 H     1 <1>   0.0800 
 28 H        1.6730     2.1800     1.0810 H     1 <1>   0.0800 
 29 H        0.4320    -3.1450    -0.2550 H     1 <1>   0.0800 
 30 H        0.6580    -2.0800     1.0970 H     1 <1>   0.0800 
 31 H       -0.0430     3.4540    -1.0640 H     1 <1>   0.0800 
 32 H        2.7900    -1.2880     0.0960 H     1 <1>   0.0800 
 33 H        2.4930    -2.2590    -1.3290 H     1 <1>   0.0800 
 34 H        0.2920     4.2600     1.8340 H     1 <1>   0.0800 
 35 H       -0.7130     5.0490     0.6630 H     1 <1>   0.0800 
 36 H        2.8770    -3.3530     1.4180 H     1 <1>   0.4500 
 37 H        3.9950    -3.3960     0.2020 H     1 <1>   0.4500 
 38 H        2.5990    -4.2620     0.0600 H     1 <1>   0.4500 
 39 H        2.5670     4.9330     2.0670 H     1 <1>   0.1500 
 40 H        0.4280     5.9800    -1.4800 H     1 <1>   0.1500 
 41 H        4.4580     6.2940     1.3190 H     1 <1>   0.1500 
 42 H        2.3280     7.3360    -2.2170 H     1 <1>   0.1500 
 43 H        4.3480     7.4930    -0.8240 H     1 <1>   0.1500 
@<TRIPOS>BOND
  1   1   2  1   
  2   1   3  1   
  3   1   4  1   
  4   1  18  1   
  5   2   5  1   
  6   2  19  1   
  7   2  20  1   
  8   3   6  1   
  9   3  21  1   
 10   3  22  1   
 11   4   7  1   
 12   4  23  1   
 13   4  24  1   
 14   5   8  1   
 15   5  25  1   
 16   5  26  1   
 17   6   8  1   
 18   6  27  1   
 19   6  28  1   
 20   7   9  1   
 21   7  29  1   
 22   7  30  1   
 23   8  10  1   
 24   8  31  1   
 25   9  11  1   
 26   9  32  1   
 27   9  33  1   
 28  10  12  1   
 29  10  34  1   
 30  10  35  1   
 31  11  36  1   
 32  11  37  1   
 33  11  38  1   
 34  12  13  ar  
 35  12  14  ar  
 36  13  15  ar  
 37  13  39  1   
 38  14  16  ar  
 39  14  40  1   
 40  15  17  ar  
 41  15  41  1   
 42  16  17  ar  
 43  16  42  1   
 44  17  43  1   
@<TRIPOS>SUBSTRUCTURE
  1 ****   6 GROUP 4 **** **** 0

# MOE 2024.06 (io_trps.svl 2023.06)
