@<TRIPOS>MOLECULE
NONAME
37 41 1 0 0 
SMALL
USER_CHARGES


@<TRIPOS>ATOM
  1 O        0.2430     1.6850    -1.7150 O.2   1 <1>  -0.5700 
  2 C        0.1630     2.4380    -0.7670 C.2   1 <1>   0.5690 
  3 N        1.0180     2.3710     0.3120 N.am  1 <1>  -0.1770 
  4 C       -0.9040     3.5280    -0.8490 C.3   1 <1>  -0.0190 
  5 N        0.8120     3.2450     1.4510 N.am  1 <1>  -0.4300 
  6 C        2.2130     1.6260     0.3190 C.ar  1 <1>   0.1170 
  7 C       -0.9310     4.6030     0.3150 C.3   1 <1>  -0.0190 
  8 C       -2.3050     2.8810    -1.0190 C.3   1 <1>   0.1530 
  9 C        0.0260     4.3360     1.4670 C.2   1 <1>   0.5690 
 10 C        2.2050     0.2550     0.0770 C.ar  1 <1>  -0.1500 
 11 C        3.4340     2.2420     0.5880 C.ar  1 <1>  -0.1500 
 12 C       -2.3690     4.7210     0.8880 C.3   1 <1>   0.1530 
 13 C       -2.6990     2.3760     0.3670 C.2   1 <1>  -0.2880 
 14 C       -3.2530     4.0510    -1.3850 C.3   1 <1>  -0.1950 
 15 O        0.0610     5.1030     2.4020 O.2   1 <1>  -0.5700 
 16 C        3.3760    -0.4790     0.1080 C.ar  1 <1>  -0.1500 
 17 C        4.6070     1.5110     0.6210 C.ar  1 <1>  -0.1500 
 18 C       -2.7370     3.3050     1.3280 C.2   1 <1>  -0.2880 
 19 C       -3.2790     5.1000    -0.3070 C.3   1 <1>  -0.1950 
 20 C       -4.5490     4.4010    -0.7070 C.3   1 <1>  -0.2000 
 21 C        4.5800     0.1480     0.3820 C.ar  1 <1>  -0.1500 
 22 H       -0.6920     4.0570    -1.7600 H     1 <1>   0.0800 
 23 H        1.2810     2.9840     2.3230 H     1 <1>   0.3700 
 24 H       -0.6550     5.5570    -0.0960 H     1 <1>   0.0800 
 25 H       -2.3340     2.1020    -1.7620 H     1 <1>   0.0800 
 26 H        1.2730    -0.2360    -0.1410 H     1 <1>   0.1500 
 27 H        3.4660     3.3020     0.7680 H     1 <1>   0.1500 
 28 H       -2.4540     5.4310     1.6940 H     1 <1>   0.0800 
 29 H       -2.9190     1.3270     0.4620 H     1 <1>   0.1500 
 30 H       -3.1270     4.3850    -2.4010 H     1 <1>   0.1000 
 31 H        3.3530    -1.5380    -0.0830 H     1 <1>   0.1500 
 32 H        5.5430     1.9990     0.8300 H     1 <1>   0.1500 
 33 H       -2.9940     3.1650     2.3640 H     1 <1>   0.1500 
 34 H       -3.1640     6.1270    -0.6100 H     1 <1>   0.1000 
 35 H       -5.0090     3.6970    -0.0360 H     1 <1>   0.1000 
 36 H       -5.2830     4.9560    -1.2640 H     1 <1>   0.1000 
 37 H        5.4920    -0.4240     0.4060 H     1 <1>   0.1500 
@<TRIPOS>BOND
  1   1   2  2   
  2   2   3  am  
  3   2   4  1   
  4   3   5  1   
  5   3   6  1   
  6   4   7  1   
  7   4   8  1   
  8   4  22  1   
  9   5   9  am  
 10   5  23  1   
 11   6  10  ar  
 12   6  11  ar  
 13   7   9  1   
 14   7  12  1   
 15   7  24  1   
 16   8  13  1   
 17   8  14  1   
 18   8  25  1   
 19   9  15  2   
 20  10  16  ar  
 21  10  26  1   
 22  11  17  ar  
 23  11  27  1   
 24  12  18  1   
 25  12  19  1   
 26  12  28  1   
 27  13  18  2   
 28  13  29  1   
 29  14  19  1   
 30  14  20  1   
 31  14  30  1   
 32  16  21  ar  
 33  16  31  1   
 34  17  21  ar  
 35  17  32  1   
 36  18  33  1   
 37  19  20  1   
 38  19  34  1   
 39  20  35  1   
 40  20  36  1   
 41  21  37  1   
@<TRIPOS>SUBSTRUCTURE
  1 ****   2 GROUP 4 **** **** 0

# MOE 2024.06 (io_trps.svl 2023.06)
