@<TRIPOS>MOLECULE
8-(3,4-Dimethyl-phenyl)-1,7-dimethyl-3-(2-oxo-propyl)-1H,8H-imidazo[2,1-f]purine
50 53 1 0 0 
SMALL
USER_CHARGES


@<TRIPOS>ATOM
  1 O        0.6840    -0.0220     0.1770 O.2   1 <1>  -0.5750 
  2 C        1.6510     0.6320    -0.1560 C.2   1 <1>   0.6860 
  3 N        1.4760     1.9190    -0.6440 N.am  1 <1>  -0.4260 
  4 N        2.9280     0.0950    -0.0390 N.am  1 <1>  -0.4420 
  5 C        2.5520     2.6790    -1.0730 C.2   1 <1>   0.6990 
  6 C        0.2520     2.6640    -0.2120 C.3   1 <1>   0.1940 
  7 C        4.0020     0.9030    -0.3580 C.2   1 <1>   0.4200 
  8 C        3.1260    -1.2790     0.5080 C.3   1 <1>   0.0520 
  9 O        2.3740     3.7640    -1.6020 O.2   1 <1>  -0.5750 
 10 C        3.8600     2.1510    -0.8690 C.2   1 <1>   0.2700 
 11 C        0.4750     3.2950     1.1620 C.2   1 <1>   0.4430 
 12 N        5.3320     0.6190    -0.2250 N.pl3 1 <1>  -0.7040 
 13 N        5.1570     2.6470    -1.0650 N.pl3 1 <1>  -0.6330 
 14 O        1.5470     3.2780     1.6980 O.2   1 <1>  -0.5750 
 15 C       -0.7200     3.9500     1.8190 C.3   1 <1>  -0.1860 
 16 C        5.9870     1.7010    -0.6530 C.cat 1 <1>   1.0690 
 17 C        5.9350     3.7200    -1.4580 C.2   1 <1>   0.2220 
 18 N        7.2660     2.0760    -0.7610 N.pl3 1 <1>  -0.5550 
 19 C        7.2260     3.3680    -1.2720 C.2   1 <1>   0.1580 
 20 C        8.3760     1.3090    -0.3870 C.ar  1 <1>   0.3050 
 21 C        8.4960     4.1560    -1.5320 C.3   1 <1>  -0.1090 
 22 C        8.7980     1.2930     0.9330 C.ar  1 <1>  -0.1570 
 23 C        9.0410     0.5380    -1.3250 C.ar  1 <1>  -0.1570 
 24 C        9.8670     0.5050     1.3270 C.ar  1 <1>  -0.1510 
 25 C       10.1090    -0.2500    -0.9410 C.ar  1 <1>  -0.1570 
 26 C       10.5260    -0.2740     0.3810 C.ar  1 <1>  -0.1510 
 27 C       10.3000     0.5160     2.7870 C.3   1 <1>  -0.1040 
 28 C       11.7070    -1.1560     0.7640 C.3   1 <1>  -0.1040 
 29 H       -0.5920     1.9970    -0.1670 H     1 <1>   0.0720 
 30 H        0.0200     3.4350    -0.9250 H     1 <1>   0.0720 
 31 H        2.2620    -1.8910     0.3050 H     1 <1>   0.0720 
 32 H        3.2670    -1.2280     1.5740 H     1 <1>   0.0720 
 33 H        3.9800    -1.7480     0.0530 H     1 <1>   0.0720 
 34 H        5.7750    -0.2150     0.1560 H     1 <1>   0.4450 
 35 H       -1.4960     3.2240     1.9780 H     1 <1>   0.0720 
 36 H       -1.0930     4.7440     1.1990 H     1 <1>   0.0720 
 37 H       -0.4320     4.3600     2.7700 H     1 <1>   0.0720 
 38 H        5.5080     4.6390    -1.8320 H     1 <1>   0.1430 
 39 H        9.1120     3.6410    -2.2480 H     1 <1>   0.0720 
 40 H        9.0520     4.2740    -0.6190 H     1 <1>   0.0720 
 41 H        8.2620     5.1320    -1.9200 H     1 <1>   0.0720 
 42 H        8.2900     1.9030     1.6570 H     1 <1>   0.1430 
 43 H        8.7300     0.5500    -2.3540 H     1 <1>   0.1430 
 44 H       10.6210    -0.8460    -1.6780 H     1 <1>   0.1430 
 45 H        9.6860     1.1750     3.3730 H     1 <1>   0.0720 
 46 H       11.3200     0.8490     2.8660 H     1 <1>   0.0720 
 47 H       10.2250    -0.4730     3.2020 H     1 <1>   0.0720 
 48 H       12.5030    -0.5540     1.1640 H     1 <1>   0.0720 
 49 H       12.0860    -1.6890    -0.0890 H     1 <1>   0.0720 
 50 H       11.4070    -1.8760     1.5040 H     1 <1>   0.0720 
@<TRIPOS>BOND
  1   1   2  2   
  2   2   3  am  
  3   2   4  am  
  4   3   5  am  
  5   3   6  1   
  6   4   7  1   
  7   4   8  1   
  8   5   9  2   
  9   5  10  1   
 10   6  11  1   
 11   6  29  1   
 12   6  30  1   
 13   7  10  2   
 14   7  12  1   
 15   8  31  1   
 16   8  32  1   
 17   8  33  1   
 18  10  13  1   
 19  11  14  2   
 20  11  15  1   
 21  12  16  ar  
 22  12  34  1   
 23  13  16  ar  
 24  13  17  1   
 25  15  35  1   
 26  15  36  1   
 27  15  37  1   
 28  16  18  ar  
 29  17  19  2   
 30  17  38  1   
 31  18  19  1   
 32  18  20  1   
 33  19  21  1   
 34  20  22  ar  
 35  20  23  ar  
 36  21  39  1   
 37  21  40  1   
 38  21  41  1   
 39  22  24  ar  
 40  22  42  1   
 41  23  25  ar  
 42  23  43  1   
 43  24  26  ar  
 44  24  27  1   
 45  25  26  ar  
 46  25  44  1   
 47  26  28  1   
 48  27  45  1   
 49  27  46  1   
 50  27  47  1   
 51  28  48  1   
 52  28  49  1   
 53  28  50  1   
@<TRIPOS>SUBSTRUCTURE
  1 ****  16 GROUP 4 **** **** 0

# MOE 2024.06 (io_trps.svl 2023.06)
