@<TRIPOS>MOLECULE
N-Ethyl-4-[3-(4-methoxy-phenyl)-[1,2,4]oxadiazol-5-yl]-butyramide
40 41 1 0 0 
SMALL
USER_CHARGES


@<TRIPOS>ATOM
  1 O       -1.1360    -0.7760     1.7040 O.2   1 <1>  -0.5700 
  2 C       -1.3420    -1.7570     1.0350 C.2   1 <1>   0.5690 
  3 N       -0.5400    -2.8370     1.1810 N.am  1 <1>  -0.7300 
  4 C       -2.4860    -1.7710     0.0300 C.3   1 <1>  -0.0990 
  5 C       -0.5560    -4.1250     0.4610 C.3   1 <1>   0.1400 
  6 C       -3.5050    -0.6270     0.2190 C.3   1 <1>  -0.1600 
  7 C        0.8670    -4.4480     0.0210 C.3   1 <1>  -0.2400 
  8 C       -4.5950    -0.5910    -0.8660 C.3   1 <1>   0.0200 
  9 C       -5.4020    -1.8750    -0.9390 C.2   1 <1>   0.2980 
 10 O       -4.9600    -2.8560    -1.6820 O.3   1 <1>  -0.0190 
 11 N       -6.4930    -2.0990    -0.3340 N.2   1 <1>  -0.5650 
 12 N       -5.8420    -3.7910    -1.5270 N.2   1 <1>  -0.4100 
 13 C       -6.7530    -3.3490    -0.7330 C.2   1 <1>   0.4620 
 14 C       -7.9280    -4.0850    -0.2960 C.ar  1 <1>   0.0540 
 15 C       -8.8510    -3.5350     0.5970 C.ar  1 <1>  -0.1500 
 16 C       -8.1820    -5.3810    -0.7520 C.ar  1 <1>  -0.1500 
 17 C       -9.9650    -4.2410     1.0120 C.ar  1 <1>  -0.1500 
 18 C       -9.2940    -6.0940    -0.3420 C.ar  1 <1>  -0.1500 
 19 C      -10.1980    -5.5240     0.5480 C.ar  1 <1>   0.0820 
 20 O      -11.3110    -6.1490     1.0020 O.3   1 <1>  -0.3620 
 21 C      -11.6390    -7.4570     0.5910 C.3   1 <1>   0.0400 
 22 H        0.1920    -2.7340     1.8860 H     1 <1>   0.3700 
 23 H       -2.9960    -2.7110     0.1270 H     1 <1>   0.0800 
 24 H       -2.0600    -1.7140    -0.9550 H     1 <1>   0.0800 
 25 H       -1.1980    -4.0730    -0.4010 H     1 <1>   0.0800 
 26 H       -0.9240    -4.8960     1.1180 H     1 <1>   0.0800 
 27 H       -2.9840     0.3150     0.2110 H     1 <1>   0.0800 
 28 H       -3.9700    -0.7300     1.1850 H     1 <1>   0.0800 
 29 H        1.2390    -3.6780    -0.6310 H     1 <1>   0.0800 
 30 H        0.8780    -5.3810    -0.5130 H     1 <1>   0.0800 
 31 H        1.5140    -4.5380     0.8760 H     1 <1>   0.0800 
 32 H       -4.1520    -0.4000    -1.8260 H     1 <1>   0.0800 
 33 H       -5.2690     0.2200    -0.6510 H     1 <1>   0.0800 
 34 H       -8.6940    -2.5390     0.9730 H     1 <1>   0.1500 
 35 H       -7.4940    -5.8390    -1.4410 H     1 <1>   0.1500 
 36 H      -10.6640    -3.8000     1.7000 H     1 <1>   0.1500 
 37 H       -9.4410    -7.0860    -0.7240 H     1 <1>   0.1500 
 38 H      -12.5550    -7.7400     1.0770 H     1 <1>   0.0800 
 39 H      -10.8480    -8.1240     0.8860 H     1 <1>   0.0800 
 40 H      -11.7730    -7.4650    -0.4760 H     1 <1>   0.0800 
@<TRIPOS>BOND
  1   1   2  2   
  2   2   3  am  
  3   2   4  1   
  4   3   5  1   
  5   3  22  1   
  6   4   6  1   
  7   4  23  1   
  8   4  24  1   
  9   5   7  1   
 10   5  25  1   
 11   5  26  1   
 12   6   8  1   
 13   6  27  1   
 14   6  28  1   
 15   7  29  1   
 16   7  30  1   
 17   7  31  1   
 18   8   9  1   
 19   8  32  1   
 20   8  33  1   
 21   9  10  1   
 22   9  11  2   
 23  10  12  1   
 24  11  13  1   
 25  12  13  2   
 26  13  14  1   
 27  14  15  ar  
 28  14  16  ar  
 29  15  17  ar  
 30  15  34  1   
 31  16  18  ar  
 32  16  35  1   
 33  17  19  ar  
 34  17  36  1   
 35  18  19  ar  
 36  18  37  1   
 37  19  20  1   
 38  20  21  1   
 39  21  38  1   
 40  21  39  1   
 41  21  40  1   
@<TRIPOS>SUBSTRUCTURE
  1 ****  13 GROUP 4 **** **** 0

# MOE 2024.06 (io_trps.svl 2023.06)
