@<TRIPOS>MOLECULE
N-[5-Chloro-2-(4-propionyl-piperazin-1-yl)-phenyl]-2-fluoro-benzamide
48 50 1 0 0 
SMALL
USER_CHARGES


@<TRIPOS>ATOM
  1 CL      -1.4050     0.5250     1.8830 Cl    1 <1>  -0.1770 
  2 C       -3.0180     0.1660     1.3150 C.ar  1 <1>   0.1770 
  3 C       -3.3230    -1.1170     0.9040 C.ar  1 <1>  -0.1500 
  4 C       -3.9610     1.1750     1.2880 C.ar  1 <1>  -0.1500 
  5 C       -4.6030    -1.4090     0.4520 C.ar  1 <1>   0.1170 
  6 C       -5.2380     0.8910     0.8350 C.ar  1 <1>  -0.1500 
  7 N       -5.0130    -2.6780     0.0110 N.am  1 <1>  -0.5470 
  8 C       -5.5710    -0.3910     0.4120 C.ar  1 <1>   0.1000 
  9 C       -4.4590    -3.9340     0.0360 C.2   1 <1>   0.5440 
 10 N       -6.8710    -0.6770    -0.0450 N.pl3 1 <1>  -0.8380 
 11 O       -3.3650    -4.0930     0.5410 O.2   1 <1>  -0.5700 
 12 C       -5.1500    -5.0700    -0.5500 C.ar  1 <1>   0.0860 
 13 C       -7.3340     0.0620    -1.2680 C.3   1 <1>   0.2090 
 14 C       -7.9040    -0.8720     1.0240 C.3   1 <1>   0.2090 
 15 C       -6.5370    -5.1530    -0.7150 C.ar  1 <1>   0.1900 
 16 C       -4.4240    -6.1800    -0.9940 C.ar  1 <1>  -0.1500 
 17 C       -8.8650     0.0650    -1.4200 C.3   1 <1>   0.1400 
 18 C       -8.9000     0.3000     1.1080 C.3   1 <1>   0.1400 
 19 F       -7.3060    -4.1760    -0.3160 F     1 <1>  -0.1900 
 20 C       -7.1720    -6.2420    -1.2840 C.ar  1 <1>  -0.1500 
 21 C       -5.0400    -7.2810    -1.5660 C.ar  1 <1>  -0.1500 
 22 N       -9.5540     0.6120    -0.2060 N.am  1 <1>  -0.6600 
 23 C       -6.4160    -7.3150    -1.7140 C.ar  1 <1>  -0.1500 
 24 C      -10.7070     1.3410    -0.3360 C.2   1 <1>   0.5690 
 25 O      -11.2210     1.5120    -1.4170 O.2   1 <1>  -0.5700 
 26 C      -11.3690     1.9490     0.9000 C.3   1 <1>  -0.0990 
 27 C      -12.4800     2.9720     0.6000 C.3   1 <1>  -0.2400 
 28 H       -2.5600    -1.8700     0.9400 H     1 <1>   0.1500 
 29 H       -3.6950     2.1640     1.6160 H     1 <1>   0.1500 
 30 H       -5.9800     1.6670     0.8110 H     1 <1>   0.1500 
 31 H       -5.9820    -2.6230    -0.3220 H     1 <1>   0.3700 
 32 H       -6.8970    -0.4000    -2.1350 H     1 <1>   0.0800 
 33 H       -6.9900     1.0810    -1.2350 H     1 <1>   0.0800 
 34 H       -7.4180    -0.9930     1.9770 H     1 <1>   0.0800 
 35 H       -8.4470    -1.7790     0.8210 H     1 <1>   0.0800 
 36 H       -3.3510    -6.1760    -0.8870 H     1 <1>   0.1500 
 37 H       -9.2040    -0.9410    -1.5930 H     1 <1>   0.0800 
 38 H       -9.1240     0.6510    -2.2850 H     1 <1>   0.0800 
 39 H       -8.3730     1.1730     1.4510 H     1 <1>   0.0800 
 40 H       -9.6520     0.0550     1.8360 H     1 <1>   0.0800 
 41 H       -8.2430    -6.2480    -1.3850 H     1 <1>   0.1500 
 42 H       -4.4450    -8.1160    -1.8970 H     1 <1>   0.1500 
 43 H       -6.8910    -8.1730    -2.1600 H     1 <1>   0.1500 
 44 H      -10.6140     2.4390     1.4870 H     1 <1>   0.0800 
 45 H      -11.7850     1.1490     1.4830 H     1 <1>   0.0800 
 46 H      -12.0870     3.7850     0.0160 H     1 <1>   0.0800 
 47 H      -12.8850     3.3650     1.5150 H     1 <1>   0.0800 
 48 H      -13.2730     2.5040     0.0430 H     1 <1>   0.0800 
@<TRIPOS>BOND
  1   1   2  1   
  2   2   3  ar  
  3   2   4  ar  
  4   3   5  ar  
  5   3  28  1   
  6   4   6  ar  
  7   4  29  1   
  8   5   7  1   
  9   5   8  ar  
 10   6   8  ar  
 11   6  30  1   
 12   7   9  am  
 13   7  31  1   
 14   8  10  1   
 15   9  11  2   
 16   9  12  1   
 17  10  13  1   
 18  10  14  1   
 19  12  15  ar  
 20  12  16  ar  
 21  13  17  1   
 22  13  32  1   
 23  13  33  1   
 24  14  18  1   
 25  14  34  1   
 26  14  35  1   
 27  15  19  1   
 28  15  20  ar  
 29  16  21  ar  
 30  16  36  1   
 31  17  22  1   
 32  17  37  1   
 33  17  38  1   
 34  18  22  1   
 35  18  39  1   
 36  18  40  1   
 37  20  23  ar  
 38  20  41  1   
 39  21  23  ar  
 40  21  42  1   
 41  22  24  am  
 42  23  43  1   
 43  24  25  2   
 44  24  26  1   
 45  26  27  1   
 46  26  44  1   
 47  26  45  1   
 48  27  46  1   
 49  27  47  1   
 50  27  48  1   
@<TRIPOS>SUBSTRUCTURE
  1 ****  10 GROUP 4 **** **** 0

# MOE 2024.06 (io_trps.svl 2023.06)
