@<TRIPOS>MOLECULE
Diethyl-[2-(8-fluoro-5-methyl-5H-[1,2,4]triazino[5,6-b]indol-3-ylsulfanyl)-ethyl
44 46 1 0 0 
SMALL
USER_CHARGES


@<TRIPOS>ATOM
  1 S       -0.3910    -0.5490     0.6060 S.3   1 <1>  -0.3320 
  2 C       -1.9970     0.1680     0.2740 C.ar  1 <1>   0.7220 
  3 C        0.8110     0.7590     0.1070 C.3   1 <1>   0.0700 
  4 N       -1.9780     1.4260    -0.2270 N.ar  1 <1>  -0.3100 
  5 N       -3.0290    -0.5850     0.5480 N.ar  1 <1>  -0.5670 
  6 C        2.2140     0.2230     0.4000 C.3   1 <1>   0.3430 
  7 N       -3.0990     2.0290    -0.4970 N.ar  1 <1>  -0.2560 
  8 C       -4.1720     0.0460     0.2650 C.ar  1 <1>   0.1050 
  9 N        3.2910     1.1820    -0.0210 N.4   1 <1>  -0.9590 
 10 C       -4.2140     1.3300    -0.2490 C.ar  1 <1>   0.2560 
 11 N       -5.4510    -0.4230     0.4180 N.pl3 1 <1>   0.0480 
 12 C        4.6240     0.5160    -0.0230 C.3   1 <1>   0.3430 
 13 C        3.3040     2.4020     0.8360 C.3   1 <1>   0.3430 
 14 C       -5.5820     1.6690    -0.4210 C.ar  1 <1>   0.0000 
 15 C       -6.3260     0.5650     0.0000 C.ar  1 <1>  -0.1520 
 16 C       -5.8340    -1.7510     0.9370 C.3   1 <1>   0.0160 
 17 C        4.7430    -0.3900    -1.2430 C.3   1 <1>  -0.2400 
 18 C        4.0080     3.5350     0.0980 C.3   1 <1>  -0.2400 
 19 C       -6.2340     2.8100    -0.8930 C.ar  1 <1>  -0.1500 
 20 C       -7.7240     0.5770    -0.0420 C.ar  1 <1>  -0.1500 
 21 C       -7.6080     2.7970    -0.9250 C.ar  1 <1>   0.1900 
 22 C       -8.3680     1.7030    -0.5090 C.ar  1 <1>  -0.1500 
 23 F       -8.2420     3.8540    -1.3640 F     1 <1>  -0.1900 
 24 H        0.5760     1.6330     0.6870 H     1 <1>   0.0800 
 25 H        0.6600     0.9390    -0.9430 H     1 <1>   0.0800 
 26 H        2.3290    -0.7080    -0.1300 H     1 <1>   0.0800 
 27 H        2.3020     0.0150     1.4540 H     1 <1>   0.0800 
 28 H        3.1010     1.4820    -0.9880 H     1 <1>   0.4500 
 29 H        4.7590    -0.0560     0.8830 H     1 <1>   0.0800 
 30 H        5.4060     1.2560    -0.0690 H     1 <1>   0.0800 
 31 H        3.8010     2.1980     1.7710 H     1 <1>   0.0800 
 32 H        2.2950     2.7130     1.0540 H     1 <1>   0.0800 
 33 H       -4.9520    -2.3130     1.1860 H     1 <1>   0.0800 
 34 H       -6.3920    -2.2790     0.1860 H     1 <1>   0.0800 
 35 H       -6.4370    -1.6270     1.8180 H     1 <1>   0.0800 
 36 H        4.0430    -1.2050    -1.2040 H     1 <1>   0.0800 
 37 H        5.7310    -0.8140    -1.2680 H     1 <1>   0.0800 
 38 H        4.6010     0.1680    -2.1500 H     1 <1>   0.0800 
 39 H        5.0440     3.3120    -0.0780 H     1 <1>   0.0800 
 40 H        3.9650     4.4250     0.7010 H     1 <1>   0.0800 
 41 H        3.5180     3.7470    -0.8360 H     1 <1>   0.0800 
 42 H       -5.6730     3.6660    -1.2200 H     1 <1>   0.1500 
 43 H       -8.2870    -0.2800     0.2850 H     1 <1>   0.1500 
 44 H       -9.4400     1.7570    -0.5590 H     1 <1>   0.1500 
@<TRIPOS>BOND
  1   1   2  1   
  2   1   3  1   
  3   2   4  ar  
  4   2   5  ar  
  5   3   6  1   
  6   3  24  1   
  7   3  25  1   
  8   4   7  ar  
  9   5   8  ar  
 10   6   9  1   
 11   6  26  1   
 12   6  27  1   
 13   7  10  ar  
 14   8  10  ar  
 15   8  11  1   
 16   9  12  1   
 17   9  13  1   
 18   9  28  1   
 19  10  14  1   
 20  11  15  1   
 21  11  16  1   
 22  12  17  1   
 23  12  29  1   
 24  12  30  1   
 25  13  18  1   
 26  13  31  1   
 27  13  32  1   
 28  14  15  ar  
 29  14  19  ar  
 30  15  20  ar  
 31  16  33  1   
 32  16  34  1   
 33  16  35  1   
 34  17  36  1   
 35  17  37  1   
 36  17  38  1   
 37  18  39  1   
 38  18  40  1   
 39  18  41  1   
 40  19  21  ar  
 41  19  42  1   
 42  20  22  ar  
 43  20  43  1   
 44  21  22  ar  
 45  21  23  1   
 46  22  44  1   
@<TRIPOS>SUBSTRUCTURE
  1 ****   4 GROUP 4 **** **** 0

# MOE 2024.06 (io_trps.svl 2023.06)
