@<TRIPOS>MOLECULE
3-(3-Morpholin-4-yl-propyl)-5,6,7,8-tetrahydro-3H-benzo[4,5]thieno[2,3-d]pyrimid
49 52 1 0 0 
SMALL
USER_CHARGES


@<TRIPOS>ATOM
  1 S       -0.4440    -0.0580     1.9360 S.3   1 <1>  -0.0800 
  2 C        1.0700     0.8140     1.9680 C.ar  1 <1>   0.2970 
  3 C       -0.9520     0.8170     0.5030 C.2   1 <1>  -0.1400 
  4 N        1.9940     0.5800     2.9100 N.ar  1 <1>  -0.5670 
  5 C        1.1590     1.7210     0.9400 C.ar  1 <1>   0.0000 
  6 C       -0.0160     1.6890     0.0930 C.2   1 <1>  -0.1810 
  7 C       -2.3080     0.5250    -0.1040 C.3   1 <1>   0.0200 
  8 C        3.0620     1.2960     2.8050 C.ar  1 <1>   0.5210 
  9 C        2.3370     2.5030     0.8980 C.ar  1 <1>   0.4610 
 10 C       -0.2510     2.5300    -1.1590 C.3   1 <1>   0.0210 
 11 C       -2.6480     1.6240    -1.1240 C.3   1 <1>  -0.1600 
 12 N        3.2950     2.2380     1.8300 N.ar  1 <1>  -0.2100 
 13 N        2.4990     3.4780    -0.0170 N.pl3 1 <1>  -0.9000 
 14 C       -1.4310     1.9900    -1.9930 C.3   1 <1>  -0.1600 
 15 C        4.6130     2.9360     1.8390 C.3   1 <1>   0.3280 
 16 C        5.6170     2.2210     0.9100 C.3   1 <1>  -0.1600 
 17 C        6.9870     2.9180     0.8910 C.3   1 <1>   0.3430 
 18 N        7.9790     2.1230     0.1130 N.4   1 <1>  -0.9590 
 19 C        9.3980     2.5790     0.3470 C.3   1 <1>   0.3430 
 20 C        7.7320     2.0360    -1.3740 C.3   1 <1>   0.3430 
 21 C       10.4050     1.6820    -0.4120 C.3   1 <1>   0.1200 
 22 C        8.8170     1.1830    -2.0730 C.3   1 <1>   0.1200 
 23 O        9.7380     0.6870    -1.1400 O.3   1 <1>  -0.5600 
 24 H       -3.0610     0.4910     0.6630 H     1 <1>   0.0800 
 25 H       -2.2730    -0.4350    -0.5910 H     1 <1>   0.0800 
 26 H        3.8320     1.1380     3.5430 H     1 <1>   0.1500 
 27 H        0.6250     2.5220    -1.7820 H     1 <1>   0.0800 
 28 H       -0.4620     3.5430    -0.8640 H     1 <1>   0.0800 
 29 H       -2.9760     2.5020    -0.5940 H     1 <1>   0.0800 
 30 H       -3.4610     1.2940    -1.7470 H     1 <1>   0.0800 
 31 H        3.2540     4.1610    -0.0950 H     1 <1>   0.4000 
 32 H        1.7490     3.6770    -0.6910 H     1 <1>   0.4000 
 33 H       -1.1100     1.1100    -2.5240 H     1 <1>   0.0800 
 34 H       -1.7170     2.7250    -2.7260 H     1 <1>   0.0800 
 35 H        4.9970     2.9570     2.8460 H     1 <1>   0.0800 
 36 H        4.4820     3.9600     1.5320 H     1 <1>   0.0800 
 37 H        5.2140     2.2030    -0.0870 H     1 <1>   0.0800 
 38 H        5.7480     1.2090     1.2540 H     1 <1>   0.0800 
 39 H        7.3440     3.0240     1.9040 H     1 <1>   0.0800 
 40 H        6.9000     3.9050     0.4640 H     1 <1>   0.0800 
 41 H        7.9940     1.1370     0.4260 H     1 <1>   0.4500 
 42 H        9.6330     2.5470     1.3990 H     1 <1>   0.0800 
 43 H        9.5220     3.5970     0.0180 H     1 <1>   0.0800 
 44 H        7.7310     3.0210    -1.8100 H     1 <1>   0.0800 
 45 H        6.7700     1.5920    -1.5680 H     1 <1>   0.0800 
 46 H       11.0670     1.1930     0.2820 H     1 <1>   0.0800 
 47 H       11.0040     2.2660    -1.0910 H     1 <1>   0.0800 
 48 H        9.3480     1.7620    -2.8100 H     1 <1>   0.0800 
 49 H        8.3670     0.3400    -2.5700 H     1 <1>   0.0800 
@<TRIPOS>BOND
  1   1   2  1   
  2   1   3  1   
  3   2   4  ar  
  4   2   5  ar  
  5   3   6  2   
  6   3   7  1   
  7   4   8  ar  
  8   5   6  1   
  9   5   9  ar  
 10   6  10  1   
 11   7  11  1   
 12   7  24  1   
 13   7  25  1   
 14   8  12  ar  
 15   8  26  1   
 16   9  12  ar  
 17   9  13  1   
 18  10  14  1   
 19  10  27  1   
 20  10  28  1   
 21  11  14  1   
 22  11  29  1   
 23  11  30  1   
 24  12  15  1   
 25  13  31  1   
 26  13  32  1   
 27  14  33  1   
 28  14  34  1   
 29  15  16  1   
 30  15  35  1   
 31  15  36  1   
 32  16  17  1   
 33  16  37  1   
 34  16  38  1   
 35  17  18  1   
 36  17  39  1   
 37  17  40  1   
 38  18  19  1   
 39  18  20  1   
 40  18  41  1   
 41  19  21  1   
 42  19  42  1   
 43  19  43  1   
 44  20  22  1   
 45  20  44  1   
 46  20  45  1   
 47  21  23  1   
 48  21  46  1   
 49  21  47  1   
 50  22  23  1   
 51  22  48  1   
 52  22  49  1   
@<TRIPOS>SUBSTRUCTURE
  1 ****   9 GROUP 4 **** **** 0

# MOE 2024.06 (io_trps.svl 2023.06)
