@<TRIPOS>MOLECULE
(4-Ethylamino-6-methoxy-[1,3,5]triazin-2-ylsulfanyl)-acetic acid methyl ester
31 31 1 0 0 
SMALL
USER_CHARGES


@<TRIPOS>ATOM
  1 S       -0.2520     0.1680     0.0000 S.3   1 <1>  -0.3320 
  2 C       -0.1470    -1.6100    -0.0620 C.ar  1 <1>   0.7220 
  3 C        1.4620     0.7550    -0.4190 C.3   1 <1>   0.1310 
  4 N       -1.2040    -2.2390     0.3610 N.ar  1 <1>  -0.6200 
  5 N        0.9580    -2.1060    -0.5280 N.ar  1 <1>  -0.6200 
  6 C        2.4720     0.3190     0.6300 C.2   1 <1>   0.6590 
  7 C       -1.0620    -3.5420     0.2930 C.ar  1 <1>   0.7020 
  8 C        0.9570    -3.4140    -0.5340 C.ar  1 <1>   0.7200 
  9 O        2.2970     0.5030     1.8080 O.2   1 <1>  -0.5700 
 10 O        3.5780    -0.2550     0.1670 O.3   1 <1>  -0.4300 
 11 O       -2.0770    -4.3150     0.7050 O.3   1 <1>  -0.3630 
 12 N       -0.0150    -4.1870    -0.1410 N.ar  1 <1>  -0.6200 
 13 N        2.0500    -4.0620    -0.9870 N.pl3 1 <1>  -0.8690 
 14 C        4.5800    -0.7320     1.0410 C.3   1 <1>   0.0400 
 15 C       -3.2800    -3.7760     1.2210 C.3   1 <1>   0.0400 
 16 C        3.3140    -3.4840    -1.4760 C.3   1 <1>   0.2090 
 17 C        4.4550    -4.0920    -0.6730 C.3   1 <1>  -0.2400 
 18 H        1.4220     1.8260    -0.4690 H     1 <1>   0.0800 
 19 H        1.7120     0.3490    -1.3820 H     1 <1>   0.0800 
 20 H        1.9830    -5.0790    -0.9580 H     1 <1>   0.4000 
 21 H        5.3790    -1.1460     0.4520 H     1 <1>   0.0800 
 22 H        4.1530    -1.4900     1.6750 H     1 <1>   0.0800 
 23 H        4.9430     0.0880     1.6360 H     1 <1>   0.0800 
 24 H       -3.9290    -4.5910     1.4830 H     1 <1>   0.0800 
 25 H       -3.7400    -3.1650     0.4650 H     1 <1>   0.0800 
 26 H       -3.0530    -3.1890     2.0930 H     1 <1>   0.0800 
 27 H        3.3140    -2.4130    -1.3610 H     1 <1>   0.0800 
 28 H        3.4300    -3.7140    -2.5210 H     1 <1>   0.0800 
 29 H        4.3270    -3.8740     0.3720 H     1 <1>   0.0800 
 30 H        5.3900    -3.6740    -1.0000 H     1 <1>   0.0800 
 31 H        4.4880    -5.1570    -0.8150 H     1 <1>   0.0800 
@<TRIPOS>BOND
  1   1   2  1   
  2   1   3  1   
  3   2   4  ar  
  4   2   5  ar  
  5   3   6  1   
  6   3  18  1   
  7   3  19  1   
  8   4   7  ar  
  9   5   8  ar  
 10   6   9  2   
 11   6  10  1   
 12   7  11  1   
 13   7  12  ar  
 14   8  12  ar  
 15   8  13  1   
 16  10  14  1   
 17  11  15  1   
 18  13  16  1   
 19  13  20  1   
 20  14  21  1   
 21  14  22  1   
 22  14  23  1   
 23  15  24  1   
 24  15  25  1   
 25  15  26  1   
 26  16  17  1   
 27  16  27  1   
 28  16  28  1   
 29  17  29  1   
 30  17  30  1   
 31  17  31  1   
@<TRIPOS>SUBSTRUCTURE
  1 ****   5 GROUP 4 **** **** 0

# MOE 2024.06 (io_trps.svl 2023.06)
