@<TRIPOS>MOLECULE
N-[2-(4-Isobutyryl-piperazin-1-yl)-phenyl]-2-(4-methoxy-phenoxy)-acetamide
59 61 1 0 0 
SMALL
USER_CHARGES


@<TRIPOS>ATOM
  1 O       -3.0480     1.6440    -2.2740 O.2   1 <1>  -0.5700 
  2 C       -3.2890     1.8200    -1.1020 C.2   1 <1>   0.5690 
  3 N       -2.7000     2.8550    -0.4130 N.am  1 <1>  -0.6600 
  4 C       -4.2850     0.8660    -0.4170 C.3   1 <1>  -0.0190 
  5 C       -3.0600     3.3320     0.9580 C.3   1 <1>   0.1400 
  6 C       -1.7490     3.7900    -1.0910 C.3   1 <1>   0.1400 
  7 C       -4.2950    -0.5400    -1.0470 C.3   1 <1>  -0.2400 
  8 C       -5.7120     1.4420    -0.4380 C.3   1 <1>  -0.2400 
  9 C       -3.6950     4.7330     0.9030 C.3   1 <1>   0.2090 
 10 C       -2.3460     5.2040    -1.1960 C.3   1 <1>   0.2090 
 11 N       -2.8700     5.7050     0.1160 N.pl3 1 <1>  -0.8380 
 12 C       -2.1830     6.7130     0.8210 C.ar  1 <1>   0.1000 
 13 C       -2.8830     7.8260     1.3130 C.ar  1 <1>   0.1170 
 14 C       -0.8180     6.6220     1.0570 C.ar  1 <1>  -0.1500 
 15 N       -4.2580     7.8760     1.0370 N.am  1 <1>  -0.5470 
 16 C       -2.2090     8.8090     2.0220 C.ar  1 <1>  -0.1500 
 17 C       -0.1510     7.6080     1.7640 C.ar  1 <1>  -0.1500 
 18 C       -5.3150     8.5320     1.5910 C.2   1 <1>   0.5690 
 19 C       -0.8470     8.7020     2.2470 C.ar  1 <1>  -0.1500 
 20 O       -5.2050     9.4070     2.4170 O.2   1 <1>  -0.5700 
 21 C       -6.7160     8.1180     1.1570 C.3   1 <1>   0.1810 
 22 O       -6.6880     6.8900     0.4350 O.3   1 <1>  -0.3630 
 23 C       -7.8310     6.3090    -0.0110 C.ar  1 <1>   0.0820 
 24 C       -9.1080     6.7850     0.2780 C.ar  1 <1>  -0.1500 
 25 C       -7.6870     5.1760    -0.7970 C.ar  1 <1>  -0.1500 
 26 C      -10.2230     6.1250    -0.2120 C.ar  1 <1>  -0.1500 
 27 C       -8.8020     4.5180    -1.2850 C.ar  1 <1>  -0.1500 
 28 C      -10.0740     4.9850    -0.9970 C.ar  1 <1>   0.0820 
 29 O      -11.1150     4.2800    -1.5130 O.3   1 <1>  -0.3620 
 30 C      -12.4500     4.6740    -1.2870 C.3   1 <1>   0.0400 
 31 H       -3.9780     0.7340     0.6040 H     1 <1>   0.0800 
 32 H       -2.1680     3.3810     1.5580 H     1 <1>   0.0800 
 33 H       -3.7430     2.6640     1.4450 H     1 <1>   0.0800 
 34 H       -1.5020     3.4380    -2.0770 H     1 <1>   0.0800 
 35 H       -0.8350     3.8300    -0.5260 H     1 <1>   0.0800 
 36 H       -4.6290    -0.4910    -2.0690 H     1 <1>   0.0800 
 37 H       -4.9490    -1.1960    -0.5010 H     1 <1>   0.0800 
 38 H       -3.3030    -0.9550    -1.0350 H     1 <1>   0.0800 
 39 H       -6.0440     1.5640    -1.4550 H     1 <1>   0.0800 
 40 H       -5.7430     2.4010     0.0440 H     1 <1>   0.0800 
 41 H       -6.3930     0.7820     0.0700 H     1 <1>   0.0800 
 42 H       -3.8240     5.1000     1.9070 H     1 <1>   0.0800 
 43 H       -4.6690     4.6600     0.4540 H     1 <1>   0.0800 
 44 H       -3.1530     5.1850    -1.9080 H     1 <1>   0.0800 
 45 H       -1.5990     5.8820    -1.5710 H     1 <1>   0.0800 
 46 H       -0.2740     5.7730     0.6920 H     1 <1>   0.1500 
 47 H       -4.5080     7.1330     0.3760 H     1 <1>   0.3700 
 48 H       -2.7430     9.6620     2.3970 H     1 <1>   0.1500 
 49 H        0.9070     7.5240     1.9390 H     1 <1>   0.1500 
 50 H       -0.3330     9.4700     2.7980 H     1 <1>   0.1500 
 51 H       -7.1360     8.8770     0.5240 H     1 <1>   0.0800 
 52 H       -7.3250     7.9860     2.0320 H     1 <1>   0.0800 
 53 H       -9.2570     7.6600     0.8810 H     1 <1>   0.1500 
 54 H       -6.7020     4.8120    -1.0280 H     1 <1>   0.1500 
 55 H      -11.1950     6.5110     0.0270 H     1 <1>   0.1500 
 56 H       -8.6930     3.6390    -1.8940 H     1 <1>   0.1500 
 57 H      -13.0940     3.9760    -1.7900 H     1 <1>   0.0800 
 58 H      -12.5960     5.6610    -1.6900 H     1 <1>   0.0800 
 59 H      -12.6460     4.6540    -0.2300 H     1 <1>   0.0800 
@<TRIPOS>BOND
  1   1   2  2   
  2   2   3  am  
  3   2   4  1   
  4   3   5  1   
  5   3   6  1   
  6   4   7  1   
  7   4   8  1   
  8   4  31  1   
  9   5   9  1   
 10   5  32  1   
 11   5  33  1   
 12   6  10  1   
 13   6  34  1   
 14   6  35  1   
 15   7  36  1   
 16   7  37  1   
 17   7  38  1   
 18   8  39  1   
 19   8  40  1   
 20   8  41  1   
 21   9  11  1   
 22   9  42  1   
 23   9  43  1   
 24  10  11  1   
 25  10  44  1   
 26  10  45  1   
 27  11  12  1   
 28  12  13  ar  
 29  12  14  ar  
 30  13  15  1   
 31  13  16  ar  
 32  14  17  ar  
 33  14  46  1   
 34  15  18  am  
 35  15  47  1   
 36  16  19  ar  
 37  16  48  1   
 38  17  19  ar  
 39  17  49  1   
 40  18  20  2   
 41  18  21  1   
 42  19  50  1   
 43  21  22  1   
 44  21  51  1   
 45  21  52  1   
 46  22  23  1   
 47  23  24  ar  
 48  23  25  ar  
 49  24  26  ar  
 50  24  53  1   
 51  25  27  ar  
 52  25  54  1   
 53  26  28  ar  
 54  26  55  1   
 55  27  28  ar  
 56  27  56  1   
 57  28  29  1   
 58  29  30  1   
 59  30  57  1   
 60  30  58  1   
 61  30  59  1   
@<TRIPOS>SUBSTRUCTURE
  1 ****   9 GROUP 4 **** **** 0

# MOE 2024.06 (io_trps.svl 2023.06)
