@<TRIPOS>MOLECULE
5-Benzyl-4-propyl-4H-[1,2,4]triazole-3-thiol
31 32 1 0 0 
SMALL
USER_CHARGES


@<TRIPOS>ATOM
  1 S       -0.6240    -0.3040     1.7460 S.3   1 <1>  -0.9360 
  2 C       -2.0840     0.2680     1.3270 C.cat 1 <1>   0.7360 
  3 N       -2.6150     1.3790     1.7830 N.pl3 1 <1>  -0.3930 
  4 N       -2.9340    -0.2890     0.4840 N.pl3 1 <1>  -0.7640 
  5 N       -3.8500     1.5800     1.2380 N.2   1 <1>  -0.2600 
  6 C       -4.0150     0.5650     0.4640 C.2   1 <1>   0.4850 
  7 C       -2.6760    -1.5580    -0.2230 C.3   1 <1>   0.3540 
  8 C       -5.2400     0.2900    -0.4010 C.3   1 <1>   0.1520 
  9 C       -3.2440    -2.7230     0.5920 C.3   1 <1>  -0.1600 
 10 C       -6.3490     1.3230    -0.2380 C.ar  1 <1>  -0.1440 
 11 C       -3.0540    -4.0670    -0.1230 C.3   1 <1>  -0.2400 
 12 C       -6.4030     2.4330    -1.0680 C.ar  1 <1>  -0.1500 
 13 C       -7.3170     1.1610     0.7440 C.ar  1 <1>  -0.1500 
 14 C       -7.4140     3.3670    -0.9220 C.ar  1 <1>  -0.1500 
 15 C       -8.3270     2.0950     0.8900 C.ar  1 <1>  -0.1500 
 16 C       -8.3770     3.1990     0.0560 C.ar  1 <1>  -0.1500 
 17 H       -2.1200     1.9670     2.4520 H     1 <1>   0.4500 
 18 H       -1.6140    -1.6920    -0.3550 H     1 <1>   0.0800 
 19 H       -3.1280    -1.5270    -1.1980 H     1 <1>   0.0800 
 20 H       -5.6260    -0.6800    -0.1500 H     1 <1>   0.0800 
 21 H       -4.9310     0.2620    -1.4290 H     1 <1>   0.0800 
 22 H       -4.2920    -2.5650     0.7740 H     1 <1>   0.0800 
 23 H       -2.7350    -2.7570     1.5410 H     1 <1>   0.0800 
 24 H       -3.5630    -4.0720    -1.0710 H     1 <1>   0.0800 
 25 H       -3.4510    -4.8630     0.4820 H     1 <1>   0.0800 
 26 H       -2.0070    -4.2590    -0.2870 H     1 <1>   0.0800 
 27 H       -5.6600     2.5830    -1.8320 H     1 <1>   0.1500 
 28 H       -7.2920     0.3110     1.4030 H     1 <1>   0.1500 
 29 H       -7.4510     4.2270    -1.5680 H     1 <1>   0.1500 
 30 H       -9.0760     1.9650     1.6520 H     1 <1>   0.1500 
 31 H       -9.1630     3.9250     0.1700 H     1 <1>   0.1500 
@<TRIPOS>BOND
  1   1   2  1   
  2   2   3  ar  
  3   2   4  ar  
  4   3   5  1   
  5   3  17  1   
  6   4   6  1   
  7   4   7  1   
  8   5   6  2   
  9   6   8  1   
 10   7   9  1   
 11   7  18  1   
 12   7  19  1   
 13   8  10  1   
 14   8  20  1   
 15   8  21  1   
 16   9  11  1   
 17   9  22  1   
 18   9  23  1   
 19  10  12  ar  
 20  10  13  ar  
 21  11  24  1   
 22  11  25  1   
 23  11  26  1   
 24  12  14  ar  
 25  12  27  1   
 26  13  15  ar  
 27  13  28  1   
 28  14  16  ar  
 29  14  29  1   
 30  15  16  ar  
 31  15  30  1   
 32  16  31  1   
@<TRIPOS>SUBSTRUCTURE
  1 ****   6 GROUP 4 **** **** 0

# MOE 2024.06 (io_trps.svl 2023.06)
