@<TRIPOS>MOLECULE
Azepan-1-yl-[1-(toluene-4-sulfonyl)-pyrrolidin-2-yl]-methanone
50 52 1 0 0 
SMALL
USER_CHARGES


@<TRIPOS>ATOM
  1 S        0.3220     0.8730    -0.2830 S.o2  1 <1>   1.4470 
  2 O        0.5700     0.9560    -1.7080 O.2   1 <1>  -0.6500 
  3 O        1.4060     1.1130     0.6390 O.2   1 <1>  -0.6500 
  4 N       -0.9020     1.9940     0.0390 N.am  1 <1>  -0.8490 
  5 C       -0.4590    -0.7140     0.1240 C.ar  1 <1>  -0.0090 
  6 C       -0.5180     3.3670    -0.3270 C.3   1 <1>   0.3370 
  7 C       -2.1440     1.7420    -0.6770 C.3   1 <1>   0.1960 
  8 C       -0.6400    -1.7030    -0.8360 C.ar  1 <1>  -0.1500 
  9 C       -0.9090    -0.9720     1.4120 C.ar  1 <1>  -0.1500 
 10 C        0.6000     4.0540     0.5130 C.2   1 <1>   0.5690 
 11 C       -1.8540     4.1140    -0.2760 C.3   1 <1>  -0.1600 
 12 C       -2.9040     3.0630    -0.6380 C.3   1 <1>  -0.1600 
 13 C       -1.2530    -2.9040    -0.5220 C.ar  1 <1>  -0.1500 
 14 C       -1.5220    -2.1700     1.7330 C.ar  1 <1>  -0.1500 
 15 O        0.3120     4.3910     1.6430 O.2   1 <1>  -0.5700 
 16 N        1.8550     4.3400    -0.0030 N.am  1 <1>  -0.6600 
 17 C       -1.6970    -3.1440     0.7660 C.ar  1 <1>  -0.1430 
 18 C        2.3870     3.8870    -1.3260 C.3   1 <1>   0.1400 
 19 C        2.8130     5.1370     0.8190 C.3   1 <1>   0.1400 
 20 C       -2.3700    -4.4600     1.1140 C.3   1 <1>  -0.0970 
 21 C        3.6250     2.9860    -1.2040 C.3   1 <1>  -0.1600 
 22 C        3.7750     4.2000     1.5530 C.3   1 <1>  -0.1600 
 23 C        4.8930     3.7280    -0.7570 C.3   1 <1>  -0.1600 
 24 C        5.0480     3.8410     0.7670 C.3   1 <1>  -0.1600 
 25 H       -0.2310     3.3680    -1.3600 H     1 <1>   0.0800 
 26 H       -2.7050     0.9500    -0.2070 H     1 <1>   0.0800 
 27 H       -1.9380     1.4760    -1.7020 H     1 <1>   0.0800 
 28 H       -0.2980    -1.5330    -1.8440 H     1 <1>   0.1500 
 29 H       -0.7760    -0.2190     2.1730 H     1 <1>   0.1500 
 30 H       -1.8570     4.9500    -0.9510 H     1 <1>   0.0800 
 31 H       -2.0360     4.4730     0.7220 H     1 <1>   0.0800 
 32 H       -3.6720     3.0270     0.1140 H     1 <1>   0.0800 
 33 H       -3.3570     3.2630    -1.5930 H     1 <1>   0.0800 
 34 H       -1.3810    -3.6510    -1.2870 H     1 <1>   0.1500 
 35 H       -1.8610    -2.3390     2.7410 H     1 <1>   0.1500 
 36 H        2.6300     4.7530    -1.9160 H     1 <1>   0.0800 
 37 H        1.6500     3.3320    -1.8700 H     1 <1>   0.0800 
 38 H        2.2700     5.7150     1.5480 H     1 <1>   0.0800 
 39 H        3.3490     5.8340     0.2000 H     1 <1>   0.0800 
 40 H       -3.4300    -4.3800     0.9590 H     1 <1>   0.0800 
 41 H       -2.1870    -4.7160     2.1420 H     1 <1>   0.0800 
 42 H       -1.9870    -5.2530     0.4960 H     1 <1>   0.0800 
 43 H        3.8130     2.5780    -2.1810 H     1 <1>   0.0800 
 44 H        3.4230     2.1550    -0.5540 H     1 <1>   0.0800 
 45 H        3.2440     3.3010     1.8200 H     1 <1>   0.0800 
 46 H        4.0730     4.6680     2.4740 H     1 <1>   0.0800 
 47 H        4.9120     4.7080    -1.2000 H     1 <1>   0.0800 
 48 H        5.7520     3.1990    -1.1340 H     1 <1>   0.0800 
 49 H        5.4170     2.9040     1.1500 H     1 <1>   0.0800 
 50 H        5.8020     4.5820     0.9700 H     1 <1>   0.0800 
@<TRIPOS>BOND
  1   1   2  2   
  2   1   3  2   
  3   1   4  am  
  4   1   5  1   
  5   4   6  1   
  6   4   7  1   
  7   5   8  ar  
  8   5   9  ar  
  9   6  10  1   
 10   6  11  1   
 11   6  25  1   
 12   7  12  1   
 13   7  26  1   
 14   7  27  1   
 15   8  13  ar  
 16   8  28  1   
 17   9  14  ar  
 18   9  29  1   
 19  10  15  2   
 20  10  16  am  
 21  11  12  1   
 22  11  30  1   
 23  11  31  1   
 24  12  32  1   
 25  12  33  1   
 26  13  17  ar  
 27  13  34  1   
 28  14  17  ar  
 29  14  35  1   
 30  16  18  1   
 31  16  19  1   
 32  17  20  1   
 33  18  21  1   
 34  18  36  1   
 35  18  37  1   
 36  19  22  1   
 37  19  38  1   
 38  19  39  1   
 39  20  40  1   
 40  20  41  1   
 41  20  42  1   
 42  21  23  1   
 43  21  43  1   
 44  21  44  1   
 45  22  24  1   
 46  22  45  1   
 47  22  46  1   
 48  23  24  1   
 49  23  47  1   
 50  23  48  1   
 51  24  49  1   
 52  24  50  1   
@<TRIPOS>SUBSTRUCTURE
  1 ****   1 GROUP 4 **** **** 0

# MOE 2024.06 (io_trps.svl 2023.06)
