@<TRIPOS>MOLECULE
[1-(5-Chloro-2-ethoxy-benzenesulfonyl)-piperidin-4-yl]-morpholin-4-yl-methanone
52 54 1 0 0 
SMALL
USER_CHARGES


@<TRIPOS>ATOM
  1 CL      -0.7320     0.2640     0.8900 Cl    1 <1>  -0.1770 
  2 C       -0.0540     1.8660     1.0300 C.ar  1 <1>   0.1770 
  3 C        0.5770     2.4320    -0.0610 C.ar  1 <1>  -0.1500 
  4 C       -0.1580     2.5420     2.2290 C.ar  1 <1>  -0.1500 
  5 C        1.1310     3.7060     0.0140 C.ar  1 <1>  -0.0090 
  6 C        0.3820     3.8100     2.3250 C.ar  1 <1>  -0.1500 
  7 S        1.9230     4.4110    -1.4600 S.o2  1 <1>   1.4470 
  8 C        1.0110     4.3860     1.2290 C.ar  1 <1>   0.0830 
  9 O        2.5140     3.3330    -2.2240 O.2   1 <1>  -0.6500 
 10 O        0.9710     5.2760    -2.1230 O.2   1 <1>  -0.6500 
 11 N        3.2230     5.3790    -0.9640 N.am  1 <1>  -0.8490 
 12 O        1.5320     5.6130     1.4060 O.3   1 <1>  -0.3630 
 13 C        3.7640     6.1560    -2.0800 C.3   1 <1>   0.1960 
 14 C        4.2630     4.6130    -0.2790 C.3   1 <1>   0.1960 
 15 C        0.7360     6.7140     1.0350 C.3   1 <1>   0.1200 
 16 C        4.8160     7.1460    -1.5750 C.3   1 <1>  -0.1600 
 17 C        5.3150     5.5630     0.2980 C.3   1 <1>  -0.1600 
 18 C        1.5610     7.9780     1.2480 C.3   1 <1>  -0.2400 
 19 C        5.9440     6.4340    -0.8030 C.3   1 <1>  -0.0190 
 20 C        6.9800     7.4070    -0.2210 C.2   1 <1>   0.5690 
 21 O        6.6090     8.5200     0.0740 O.2   1 <1>  -0.5700 
 22 N        8.2880     7.0280    -0.0350 N.am  1 <1>  -0.6600 
 23 C        9.3110     8.0030     0.4590 C.3   1 <1>   0.1400 
 24 C        8.8610     5.6610    -0.2440 C.3   1 <1>   0.1400 
 25 C       10.0880     7.4230     1.6510 C.3   1 <1>   0.1200 
 26 C        9.6660     5.2140     0.9890 C.3   1 <1>   0.1200 
 27 O       10.6270     6.1720     1.3270 O.3   1 <1>  -0.5600 
 28 H        0.6350     1.8710    -0.9790 H     1 <1>   0.1500 
 29 H       -0.6510     2.0800     3.0670 H     1 <1>   0.1500 
 30 H        0.3220     4.3600     3.2480 H     1 <1>   0.1500 
 31 H        2.9710     6.7110    -2.5550 H     1 <1>   0.0800 
 32 H        4.1950     5.4920    -2.8130 H     1 <1>   0.0800 
 33 H        4.7230     3.9200    -0.9650 H     1 <1>   0.0800 
 34 H        3.8260     4.0510     0.5290 H     1 <1>   0.0800 
 35 H       -0.1470     6.7200     1.6500 H     1 <1>   0.0800 
 36 H        0.4580     6.6130     0.0000 H     1 <1>   0.0800 
 37 H        4.3300     7.8640    -0.9380 H     1 <1>   0.0800 
 38 H        5.2320     7.6830    -2.4090 H     1 <1>   0.0800 
 39 H        6.0740     4.9910     0.7990 H     1 <1>   0.0800 
 40 H        4.8440     6.1940     1.0330 H     1 <1>   0.0800 
 41 H        1.8370     8.0730     2.2830 H     1 <1>   0.0800 
 42 H        0.9870     8.8410     0.9630 H     1 <1>   0.0800 
 43 H        2.4480     7.9420     0.6420 H     1 <1>   0.0800 
 44 H        6.4410     5.7970    -1.5100 H     1 <1>   0.0800 
 45 H        8.8480     8.9270     0.7600 H     1 <1>   0.0800 
 46 H        9.9990     8.2270    -0.3370 H     1 <1>   0.0800 
 47 H        9.5130     5.6800    -1.0990 H     1 <1>   0.0800 
 48 H        8.0910     4.9370    -0.4280 H     1 <1>   0.0800 
 49 H        9.4430     7.3140     2.5060 H     1 <1>   0.0800 
 50 H       10.9030     8.0740     1.9140 H     1 <1>   0.0800 
 51 H       10.1820     4.2930     0.7830 H     1 <1>   0.0800 
 52 H        9.0160     5.0660     1.8340 H     1 <1>   0.0800 
@<TRIPOS>BOND
  1   1   2  1   
  2   2   3  ar  
  3   2   4  ar  
  4   3   5  ar  
  5   3  28  1   
  6   4   6  ar  
  7   4  29  1   
  8   5   7  1   
  9   5   8  ar  
 10   6   8  ar  
 11   6  30  1   
 12   7   9  2   
 13   7  10  2   
 14   7  11  am  
 15   8  12  1   
 16  11  13  1   
 17  11  14  1   
 18  12  15  1   
 19  13  16  1   
 20  13  31  1   
 21  13  32  1   
 22  14  17  1   
 23  14  33  1   
 24  14  34  1   
 25  15  18  1   
 26  15  35  1   
 27  15  36  1   
 28  16  19  1   
 29  16  37  1   
 30  16  38  1   
 31  17  19  1   
 32  17  39  1   
 33  17  40  1   
 34  18  41  1   
 35  18  42  1   
 36  18  43  1   
 37  19  20  1   
 38  19  44  1   
 39  20  21  2   
 40  20  22  am  
 41  22  23  1   
 42  22  24  1   
 43  23  25  1   
 44  23  45  1   
 45  23  46  1   
 46  24  26  1   
 47  24  47  1   
 48  24  48  1   
 49  25  27  1   
 50  25  49  1   
 51  25  50  1   
 52  26  27  1   
 53  26  51  1   
 54  26  52  1   
@<TRIPOS>SUBSTRUCTURE
  1 ****  14 GROUP 4 **** **** 0

# MOE 2024.06 (io_trps.svl 2023.06)
