@<TRIPOS>MOLECULE
(Methyl-pyridin-3-ylmethyl-amino)-acetic acid
25 25 1 0 0 
SMALL
USER_CHARGES


@<TRIPOS>ATOM
  1 O        2.1430     1.9890    -0.8120 O.co2 1 <1>  -0.9000 
  2 C        0.9540     2.2080    -1.0260 C.2   1 <1>   0.9060 
  3 O        0.5310     3.0530    -1.8290 O.co2 1 <1>  -0.9000 
  4 C       -0.1090     1.4880    -0.1910 C.3   1 <1>   0.2370 
  5 N       -1.4120     2.2680    -0.1600 N.4   1 <1>  -0.9590 
  6 C       -1.2350     3.5440     0.5810 C.3   1 <1>   0.4860 
  7 C       -2.6100     1.4710     0.2140 C.3   1 <1>   0.2630 
  8 C       -2.3440     4.4840     0.1710 C.ar  1 <1>  -0.1440 
  9 C       -3.4090     4.7410     1.0200 C.ar  1 <1>   0.1600 
 10 C       -2.3100     5.0960    -1.0670 C.ar  1 <1>  -0.1500 
 11 N       -4.4300     5.5280     0.7310 N.ar  1 <1>  -0.6200 
 12 C       -3.3640     5.9270    -1.3800 C.ar  1 <1>  -0.1500 
 13 C       -4.3840     6.1050    -0.4600 C.ar  1 <1>   0.1600 
 14 H        0.2790     1.3470     0.8010 H     1 <1>   0.0800 
 15 H       -0.2650     0.5260    -0.6420 H     1 <1>   0.0800 
 16 H       -1.4760     2.5970    -1.1470 H     1 <1>   0.4500 
 17 H       -0.2880     3.9920     0.3170 H     1 <1>   0.0800 
 18 H       -1.2500     3.3690     1.6430 H     1 <1>   0.0800 
 19 H       -2.5310     1.1360     1.2350 H     1 <1>   0.0800 
 20 H       -2.6960     0.6100    -0.4280 H     1 <1>   0.0800 
 21 H       -3.5010     2.0680     0.1090 H     1 <1>   0.0800 
 22 H       -3.4330     4.2760     1.9910 H     1 <1>   0.1500 
 23 H       -1.4960     4.9380    -1.7610 H     1 <1>   0.1500 
 24 H       -3.3960     6.4350    -2.3270 H     1 <1>   0.1500 
 25 H       -5.2030     6.7560    -0.7170 H     1 <1>   0.1500 
@<TRIPOS>BOND
  1   1   2  ar  
  2   2   3  ar  
  3   2   4  1   
  4   4   5  1   
  5   4  14  1   
  6   4  15  1   
  7   5   6  1   
  8   5   7  1   
  9   5  16  1   
 10   6   8  1   
 11   6  17  1   
 12   6  18  1   
 13   7  19  1   
 14   7  20  1   
 15   7  21  1   
 16   8   9  ar  
 17   8  10  ar  
 18   9  11  ar  
 19   9  22  1   
 20  10  12  ar  
 21  10  23  1   
 22  11  13  ar  
 23  12  13  ar  
 24  12  24  1   
 25  13  25  1   
@<TRIPOS>SUBSTRUCTURE
  1 ****   6 GROUP 4 **** **** 0

# MOE 2024.06 (io_trps.svl 2023.06)
