@<TRIPOS>MOLECULE
1-Cyclopropyl-4-hydroxy-2-oxo-1,2,5,6,7,8-hexahydro-quinoline-3-carboxylic acid
41 44 1 0 0 
SMALL
USER_CHARGES


@<TRIPOS>ATOM
  1 O       -0.2870     0.4440     0.9760 O.3   1 <1>  -0.8500 
  2 C       -1.2740     1.0220     0.5070 C.2   1 <1>  -0.0500 
  3 N       -2.4470     0.2820     0.3410 N.pl3 1 <1>  -0.3690 
  4 C       -1.2410     2.4050     0.1690 C.2   1 <1>   0.0290 
  5 C       -3.6650     0.9440     0.1900 C.2   1 <1>  -0.0380 
  6 C       -2.3620    -1.2070     0.4320 C.3   1 <1>   0.0690 
  7 C       -2.4510     3.0020    -0.2390 C.2   1 <1>   0.5410 
  8 C       -0.0380     3.1570     0.2430 C.2   1 <1>   0.6160 
  9 C       -3.6780     2.2760    -0.0780 C.2   1 <1>  -0.1240 
 10 C       -4.9590     0.1470     0.3870 C.3   1 <1>  -0.0220 
 11 C       -1.3430    -1.9390    -0.3940 C.3   1 <1>  -0.2000 
 12 C       -2.7870    -2.0530    -0.7360 C.3   1 <1>  -0.2000 
 13 O       -2.5200     4.1280    -0.7620 O.2   1 <1>  -0.5700 
 14 O       -0.0060     4.3760     0.4180 O.2   1 <1>  -0.5700 
 15 N        1.1610     2.4960     0.1910 N.am  1 <1>  -0.5470 
 16 C       -4.9780     3.0710    -0.2140 C.3   1 <1>  -0.0220 
 17 C       -6.2220     0.9020    -0.0490 C.3   1 <1>  -0.1600 
 18 C        2.4460     2.9090     0.0590 C.ar  1 <1>   0.7370 
 19 C       -6.1760     2.3560     0.4180 C.3   1 <1>  -0.1600 
 20 N        2.7070     3.9690    -0.7060 N.ar  1 <1>  -0.6200 
 21 N        3.3510     2.1630     0.6910 N.ar  1 <1>  -0.6200 
 22 C        3.9630     4.3210    -0.8070 C.ar  1 <1>   0.1600 
 23 C        4.6010     2.5360     0.5690 C.ar  1 <1>   0.1600 
 24 C        4.9680     3.6280    -0.1790 C.ar  1 <1>  -0.1500 
 25 H       -2.4860    -1.5490     1.4430 H     1 <1>   0.1000 
 26 H       -5.0330    -0.1020     1.4300 H     1 <1>   0.0800 
 27 H       -4.9360    -0.7690    -0.1680 H     1 <1>   0.0800 
 28 H       -0.8310    -2.7560     0.0780 H     1 <1>   0.1000 
 29 H       -0.6830    -1.3250    -0.9810 H     1 <1>   0.1000 
 30 H       -3.1290    -1.5630    -1.6290 H     1 <1>   0.1000 
 31 H       -3.2820    -2.9870    -0.5460 H     1 <1>   0.1000 
 32 H        1.0160     1.5180     0.4990 H     1 <1>   0.3700 
 33 H       -5.1630     3.2440    -1.2600 H     1 <1>   0.0800 
 34 H       -4.8660     4.0310     0.2610 H     1 <1>   0.0800 
 35 H       -7.0910     0.4110     0.3520 H     1 <1>   0.0800 
 36 H       -6.2910     0.8800    -1.1230 H     1 <1>   0.0800 
 37 H       -7.0840     2.8630     0.1460 H     1 <1>   0.0800 
 38 H       -6.0810     2.3840     1.4900 H     1 <1>   0.0800 
 39 H        4.1930     5.1840    -1.4090 H     1 <1>   0.1500 
 40 H        5.3480     1.9530     1.0790 H     1 <1>   0.1500 
 41 H        5.9950     3.9250    -0.2690 H     1 <1>   0.1500 
@<TRIPOS>BOND
  1   1   2  1   
  2   2   3  1   
  3   2   4  2   
  4   3   5  1   
  5   3   6  1   
  6   4   7  1   
  7   4   8  1   
  8   5   9  2   
  9   5  10  1   
 10   6  11  1   
 11   6  12  1   
 12   6  25  1   
 13   7   9  1   
 14   7  13  2   
 15   8  14  2   
 16   8  15  am  
 17   9  16  1   
 18  10  17  1   
 19  10  26  1   
 20  10  27  1   
 21  11  12  1   
 22  11  28  1   
 23  11  29  1   
 24  12  30  1   
 25  12  31  1   
 26  15  18  1   
 27  15  32  1   
 28  16  19  1   
 29  16  33  1   
 30  16  34  1   
 31  17  19  1   
 32  17  35  1   
 33  17  36  1   
 34  18  20  ar  
 35  18  21  ar  
 36  19  37  1   
 37  19  38  1   
 38  20  22  ar  
 39  21  23  ar  
 40  22  24  ar  
 41  22  39  1   
 42  23  24  ar  
 43  23  40  1   
 44  24  41  1   
@<TRIPOS>SUBSTRUCTURE
  1 ****   4 GROUP 4 **** **** 0

# MOE 2024.06 (io_trps.svl 2023.06)
