@<TRIPOS>MOLECULE
[1-(2,4-Dichloro-benzyl)-pyrrolidin-2-yl]-methanol
32 33 1 0 0 
SMALL
USER_CHARGES


@<TRIPOS>ATOM
  1 CL      -1.6520     0.8190     1.5850 Cl    1 <1>  -0.1770 
  2 C       -0.8110     2.1050     0.7520 C.ar  1 <1>   0.1770 
  3 C       -1.3580     2.6450    -0.4050 C.ar  1 <1>  -0.1440 
  4 C        0.3840     2.5630     1.2740 C.ar  1 <1>  -0.1500 
  5 C       -0.6830     3.6720    -1.0530 C.ar  1 <1>  -0.1500 
  6 C       -2.6690     2.1090    -0.9470 C.3   1 <1>   0.4870 
  7 C        1.0350     3.5860     0.6150 C.ar  1 <1>   0.1770 
  8 C        0.5160     4.1440    -0.5400 C.ar  1 <1>  -0.1500 
  9 N       -3.7710     2.5140    -0.0340 N.4   1 <1>  -0.9590 
 10 CL       2.5420     4.1880     1.2510 Cl    1 <1>  -0.1770 
 11 C       -5.0720     1.8670    -0.3310 C.3   1 <1>   0.4230 
 12 C       -4.0220     3.9760    -0.0210 C.3   1 <1>   0.3430 
 13 C       -6.0850     2.7450     0.4020 C.3   1 <1>  -0.1600 
 14 C       -5.1250     0.3820     0.0920 C.3   1 <1>   0.1200 
 15 C       -5.4310     4.1230     0.5360 C.3   1 <1>  -0.1600 
 16 O       -6.3600    -0.1420    -0.2590 O.3   1 <1>  -0.6800 
 17 H        0.8000     2.1380     2.1690 H     1 <1>   0.1500 
 18 H       -1.0710     4.1130    -1.9580 H     1 <1>   0.1500 
 19 H       -2.6110     1.0340    -1.0050 H     1 <1>   0.0800 
 20 H       -2.8470     2.4930    -1.9390 H     1 <1>   0.0800 
 21 H        1.0530     4.9390    -1.0300 H     1 <1>   0.1500 
 22 H       -3.5020     2.2400     0.9210 H     1 <1>   0.4500 
 23 H       -5.2600     1.9330    -1.3900 H     1 <1>   0.0800 
 24 H       -3.9940     4.3630    -1.0270 H     1 <1>   0.0800 
 25 H       -3.2970     4.5000     0.5830 H     1 <1>   0.0800 
 26 H       -6.2990     2.3400     1.3770 H     1 <1>   0.0800 
 27 H       -7.0080     2.7880    -0.1510 H     1 <1>   0.0800 
 28 H       -5.0090     0.2790     1.1570 H     1 <1>   0.0800 
 29 H       -4.3710    -0.1920    -0.4170 H     1 <1>   0.0800 
 30 H       -5.9720     4.8740    -0.0140 H     1 <1>   0.0800 
 31 H       -5.3910     4.4230     1.5700 H     1 <1>   0.0800 
 32 H       -6.4540    -1.0770     0.0250 H     1 <1>   0.4000 
@<TRIPOS>BOND
  1   1   2  1   
  2   2   3  ar  
  3   2   4  ar  
  4   3   5  ar  
  5   3   6  1   
  6   4   7  ar  
  7   4  17  1   
  8   5   8  ar  
  9   5  18  1   
 10   6   9  1   
 11   6  19  1   
 12   6  20  1   
 13   7   8  ar  
 14   7  10  1   
 15   8  21  1   
 16   9  11  1   
 17   9  12  1   
 18   9  22  1   
 19  11  13  1   
 20  11  14  1   
 21  11  23  1   
 22  12  15  1   
 23  12  24  1   
 24  12  25  1   
 25  13  15  1   
 26  13  26  1   
 27  13  27  1   
 28  14  16  1   
 29  14  28  1   
 30  14  29  1   
 31  15  30  1   
 32  15  31  1   
 33  16  32  1   
@<TRIPOS>SUBSTRUCTURE
  1 ****   3 GROUP 4 **** **** 0

# MOE 2024.06 (io_trps.svl 2023.06)
