@<TRIPOS>MOLECULE
2-(4-Chloro-3-methyl-phenoxy)-N-(2-ethyl-2H-tetrazol-5-yl)-acetamide
34 35 1 0 0 
SMALL
USER_CHARGES


@<TRIPOS>ATOM
  1 CL      -0.9820     0.4210     1.8700 Cl    1 <1>  -0.1770 
  2 C       -2.4680     1.0980     1.2410 C.ar  1 <1>   0.1770 
  3 C       -2.4310     2.0610     0.2410 C.ar  1 <1>  -0.1440 
  4 C       -3.6640     0.6470     1.7670 C.ar  1 <1>  -0.1500 
  5 C       -3.6300     2.5740    -0.2330 C.ar  1 <1>  -0.1500 
  6 C       -1.1060     2.5460    -0.3280 C.3   1 <1>  -0.0960 
  7 C       -4.8540     1.1660     1.2870 C.ar  1 <1>  -0.1500 
  8 C       -4.8440     2.1280     0.2890 C.ar  1 <1>   0.0830 
  9 O       -6.0540     2.5830    -0.1230 O.3   1 <1>  -0.3630 
 10 C       -6.1630     3.5690    -1.1430 C.3   1 <1>   0.1810 
 11 C       -7.6190     3.9110    -1.4270 C.2   1 <1>   0.5690 
 12 O       -7.8460     4.7370    -2.2780 O.2   1 <1>  -0.5700 
 13 N       -8.5820     3.2720    -0.7130 N.am  1 <1>  -0.4930 
 14 C       -9.9620     3.3730    -0.7460 C.2   1 <1>   0.5790 
 15 N      -10.6660     4.1770    -1.5410 N.2   1 <1>  -0.2270 
 16 N      -10.6650     2.6500     0.0380 N.2   1 <1>  -0.7070 
 17 N      -11.8900     3.9620    -1.2550 N.2   1 <1>  -0.4180 
 18 N      -11.8790     3.0450    -0.3040 N.pl3 1 <1>   0.5800 
 19 C      -13.1060     2.5050     0.3180 C.3   1 <1>   0.0960 
 20 C      -13.4470     3.2350     1.6260 C.3   1 <1>  -0.2400 
 21 H       -3.6600    -0.0990     2.5400 H     1 <1>   0.1500 
 22 H       -3.6000     3.3180    -1.0060 H     1 <1>   0.1500 
 23 H       -0.5070     2.9790     0.4540 H     1 <1>   0.0800 
 24 H       -1.2560     3.2890    -1.0910 H     1 <1>   0.0800 
 25 H       -0.5670     1.7210    -0.7590 H     1 <1>   0.0800 
 26 H       -5.7920     0.8250     1.6860 H     1 <1>   0.1500 
 27 H       -5.7090     3.1870    -2.0390 H     1 <1>   0.0800 
 28 H       -5.6490     4.4550    -0.8180 H     1 <1>   0.0800 
 29 H       -8.2590     2.5970    -0.0260 H     1 <1>   0.3700 
 30 H      -12.9510     1.4590     0.5080 H     1 <1>   0.0800 
 31 H      -13.9120     2.6100    -0.3840 H     1 <1>   0.0800 
 32 H      -12.6460     3.1230     2.3360 H     1 <1>   0.0800 
 33 H      -14.3430     2.8200     2.0530 H     1 <1>   0.0800 
 34 H      -13.6110     4.2820     1.4370 H     1 <1>   0.0800 
@<TRIPOS>BOND
  1   1   2  1   
  2   2   3  ar  
  3   2   4  ar  
  4   3   5  ar  
  5   3   6  1   
  6   4   7  ar  
  7   4  21  1   
  8   5   8  ar  
  9   5  22  1   
 10   6  23  1   
 11   6  24  1   
 12   6  25  1   
 13   7   8  ar  
 14   7  26  1   
 15   8   9  1   
 16   9  10  1   
 17  10  11  1   
 18  10  27  1   
 19  10  28  1   
 20  11  12  2   
 21  11  13  am  
 22  13  14  1   
 23  13  29  1   
 24  14  15  1   
 25  14  16  2   
 26  15  17  2   
 27  16  18  1   
 28  17  18  1   
 29  18  19  1   
 30  19  20  1   
 31  19  30  1   
 32  19  31  1   
 33  20  32  1   
 34  20  33  1   
 35  20  34  1   
@<TRIPOS>SUBSTRUCTURE
  1 ****   9 GROUP 4 **** **** 0

# MOE 2024.06 (io_trps.svl 2023.06)
