@<TRIPOS>MOLECULE
[3-(3,4-Dimethoxy-phenyl)-2-methyl-7-oxo-4,7-dihydro-pyrazolo[1,5-a]pyrimidin-5-
48 50 1 0 0 
SMALL
USER_CHARGES


@<TRIPOS>ATOM
  1 O        0.5130     0.5460     0.6570 O.2   1 <1>  -0.5700 
  2 C        0.5900     1.7200     0.3190 C.2   1 <1>   0.5650 
  3 N       -0.4900     2.6350     0.4490 N.pl3 1 <1>   0.5610 
  4 C        1.8020     2.2310    -0.2330 C.2   1 <1>  -0.1360 
  5 N       -1.7660     2.4520     0.9280 N.2   1 <1>  -0.7070 
  6 C       -0.3340     3.9390     0.0580 C.2   1 <1>  -0.0680 
  7 C        1.9450     3.5300    -0.6210 C.2   1 <1>  -0.0380 
  8 C       -2.3390     3.6060     0.8270 C.2   1 <1>   0.1080 
  9 N        0.8780     4.3890    -0.4800 N.pl3 1 <1>  -0.5840 
 10 C       -1.5060     4.5930     0.2850 C.2   1 <1>  -0.0540 
 11 C        3.2150     4.1340    -1.2180 C.3   1 <1>   0.0390 
 12 C       -3.7680     3.8250     1.2720 C.3   1 <1>  -0.0590 
 13 C       -1.8120     5.9760     0.0270 C.ar  1 <1>   0.0540 
 14 C        4.3890     3.1790    -1.3010 C.2   1 <1>   0.6590 
 15 C       -1.0490     6.9900     0.5990 C.ar  1 <1>  -0.1500 
 16 C       -2.8660     6.3380    -0.8080 C.ar  1 <1>  -0.1500 
 17 O        4.7540     2.7150    -2.3490 O.2   1 <1>  -0.5700 
 18 O        4.9860     2.8880    -0.1520 O.3   1 <1>  -0.4300 
 19 C       -1.3220     8.3230     0.3530 C.ar  1 <1>   0.0830 
 20 C       -3.1630     7.6670    -1.0480 C.ar  1 <1>  -0.1500 
 21 C        6.0830     2.0060    -0.0960 C.3   1 <1>   0.1200 
 22 O       -0.4990     9.2380     0.9280 O.3   1 <1>  -0.3630 
 23 C       -2.4090     8.6670    -0.4580 C.ar  1 <1>   0.0830 
 24 C        6.5000     1.8640     1.3650 C.3   1 <1>  -0.2400 
 25 C        0.1840    10.1240     0.0660 C.3   1 <1>   0.0400 
 26 O       -2.7760     9.9500    -0.6960 O.3   1 <1>  -0.3630 
 27 C       -3.3180    10.6480     0.4040 C.3   1 <1>   0.0400 
 28 H        2.5930     1.5100    -0.3190 H     1 <1>   0.1500 
 29 H        0.9310     5.3730    -0.7820 H     1 <1>   0.4000 
 30 H        3.5170     4.9780    -0.6270 H     1 <1>   0.0800 
 31 H        2.9990     4.4850    -2.2110 H     1 <1>   0.0800 
 32 H       -4.0250     3.1080     2.0320 H     1 <1>   0.0800 
 33 H       -4.4320     3.6970     0.4380 H     1 <1>   0.0800 
 34 H       -3.8870     4.8130     1.6750 H     1 <1>   0.0800 
 35 H       -0.2310     6.7350     1.2470 H     1 <1>   0.1500 
 36 H       -3.4550     5.5670    -1.2730 H     1 <1>   0.1500 
 37 H       -3.9820     7.9370    -1.6890 H     1 <1>   0.1500 
 38 H        6.8830     2.4170    -0.6890 H     1 <1>   0.0800 
 39 H        5.7820     1.0560    -0.5060 H     1 <1>   0.0800 
 40 H        6.7870     2.8200     1.7640 H     1 <1>   0.0800 
 41 H        7.3390     1.1960     1.4380 H     1 <1>   0.0800 
 42 H        5.6890     1.4590     1.9440 H     1 <1>   0.0800 
 43 H        0.9480    10.6230     0.6350 H     1 <1>   0.0800 
 44 H       -0.5060    10.8490    -0.3250 H     1 <1>   0.0800 
 45 H        0.6290     9.5610    -0.7350 H     1 <1>   0.0800 
 46 H       -3.6040    11.6290     0.0720 H     1 <1>   0.0800 
 47 H       -2.5760    10.7240     1.1790 H     1 <1>   0.0800 
 48 H       -4.1790    10.1130     0.7640 H     1 <1>   0.0800 
@<TRIPOS>BOND
  1   1   2  2   
  2   2   3  1   
  3   2   4  1   
  4   3   5  1   
  5   3   6  1   
  6   4   7  2   
  7   4  28  1   
  8   5   8  2   
  9   6   9  1   
 10   6  10  2   
 11   7   9  1   
 12   7  11  1   
 13   8  10  1   
 14   8  12  1   
 15   9  29  1   
 16  10  13  1   
 17  11  14  1   
 18  11  30  1   
 19  11  31  1   
 20  12  32  1   
 21  12  33  1   
 22  12  34  1   
 23  13  15  ar  
 24  13  16  ar  
 25  14  17  2   
 26  14  18  1   
 27  15  19  ar  
 28  15  35  1   
 29  16  20  ar  
 30  16  36  1   
 31  18  21  1   
 32  19  22  1   
 33  19  23  ar  
 34  20  23  ar  
 35  20  37  1   
 36  21  24  1   
 37  21  38  1   
 38  21  39  1   
 39  22  25  1   
 40  23  26  1   
 41  24  40  1   
 42  24  41  1   
 43  24  42  1   
 44  25  43  1   
 45  25  44  1   
 46  25  45  1   
 47  26  27  1   
 48  27  46  1   
 49  27  47  1   
 50  27  48  1   
@<TRIPOS>SUBSTRUCTURE
  1 ****   9 GROUP 4 **** **** 0

# MOE 2024.06 (io_trps.svl 2023.06)
