@<TRIPOS>MOLECULE
3-[3-(4-Methoxy-phenyl)-[1,2,4]oxadiazol-5-yl]-N-methyl-propionamide
34 35 1 0 0 
SMALL
USER_CHARGES


@<TRIPOS>ATOM
  1 O        0.2890    -0.5340     0.5600 O.2   1 <1>  -0.5700 
  2 C        0.7170    -1.5660     0.1100 C.2   1 <1>   0.5690 
  3 N        1.9150    -1.5710    -0.5180 N.am  1 <1>  -0.7300 
  4 C       -0.0860    -2.8470     0.2550 C.3   1 <1>  -0.0990 
  5 C        2.6590    -2.7000    -1.1340 C.3   1 <1>   0.0600 
  6 C       -1.4610    -2.6270     0.9050 C.3   1 <1>   0.0200 
  7 C       -2.2210    -3.9320     1.0240 C.2   1 <1>   0.2980 
  8 O       -1.8110    -4.8220     1.8890 O.3   1 <1>  -0.0190 
  9 N       -3.2400    -4.2610     0.3450 N.2   1 <1>  -0.5650 
 10 N       -2.6420    -5.8060     1.7460 N.2   1 <1>  -0.4100 
 11 C       -3.4910    -5.4790     0.8370 C.2   1 <1>   0.4620 
 12 C       -4.5950    -6.3020     0.3720 C.ar  1 <1>   0.0540 
 13 C       -5.4830    -5.8580    -0.6110 C.ar  1 <1>  -0.1500 
 14 C       -4.8160    -7.5800     0.8940 C.ar  1 <1>  -0.1500 
 15 C       -6.5310    -6.6450    -1.0500 C.ar  1 <1>  -0.1500 
 16 C       -5.8630    -8.3740     0.4610 C.ar  1 <1>  -0.1500 
 17 C       -6.7320    -7.9080    -0.5200 C.ar  1 <1>   0.0820 
 18 O       -7.7800    -8.6180    -1.0020 O.3   1 <1>  -0.3630 
 19 C       -8.0710    -9.9140    -0.5290 C.3   1 <1>   0.0400 
 20 H        2.3720    -0.6560    -0.5660 H     1 <1>   0.3700 
 21 H        0.4830    -3.5360     0.8500 H     1 <1>   0.0800 
 22 H       -0.2290    -3.2740    -0.7210 H     1 <1>   0.0800 
 23 H        2.1340    -3.6300    -1.0020 H     1 <1>   0.0800 
 24 H        3.6300    -2.7840    -0.6770 H     1 <1>   0.0800 
 25 H        2.7840    -2.5180    -2.1880 H     1 <1>   0.0800 
 26 H       -2.0360    -1.9400     0.3090 H     1 <1>   0.0800 
 27 H       -1.3440    -2.1990     1.8850 H     1 <1>   0.0800 
 28 H       -5.3500    -4.8800    -1.0390 H     1 <1>   0.1500 
 29 H       -4.1540    -7.9570     1.6540 H     1 <1>   0.1500 
 30 H       -7.2030    -6.2850    -1.8080 H     1 <1>   0.1500 
 31 H       -5.9860    -9.3480     0.8960 H     1 <1>   0.1500 
 32 H       -8.9380   -10.2730    -1.0530 H     1 <1>   0.0800 
 33 H       -8.2760    -9.8630     0.5250 H     1 <1>   0.0800 
 34 H       -7.2310   -10.5550    -0.7290 H     1 <1>   0.0800 
@<TRIPOS>BOND
  1   1   2  2   
  2   2   3  am  
  3   2   4  1   
  4   3   5  1   
  5   3  20  1   
  6   4   6  1   
  7   4  21  1   
  8   4  22  1   
  9   5  23  1   
 10   5  24  1   
 11   5  25  1   
 12   6   7  1   
 13   6  26  1   
 14   6  27  1   
 15   7   8  1   
 16   7   9  2   
 17   8  10  1   
 18   9  11  1   
 19  10  11  2   
 20  11  12  1   
 21  12  13  ar  
 22  12  14  ar  
 23  13  15  ar  
 24  13  28  1   
 25  14  16  ar  
 26  14  29  1   
 27  15  17  ar  
 28  15  30  1   
 29  16  17  ar  
 30  16  31  1   
 31  17  18  1   
 32  18  19  1   
 33  19  32  1   
 34  19  33  1   
 35  19  34  1   
@<TRIPOS>SUBSTRUCTURE
  1 ****  11 GROUP 4 **** **** 0

# MOE 2024.06 (io_trps.svl 2023.06)
