@<TRIPOS>MOLECULE
1-(4-Ethoxy-3-methyl-benzenesulfonyl)-piperidine-3-carboxylic acid (3-hydroxy-pr
54 55 1 0 0 
SMALL
USER_CHARGES


@<TRIPOS>ATOM
  1 S       -0.0550    -1.0730     1.8900 S.o2  1 <1>   1.4470 
  2 O       -0.7510    -2.0680     2.6760 O.2   1 <1>  -0.6500 
  3 O        1.0460    -0.3460     2.4900 O.2   1 <1>  -0.6500 
  4 N        0.5820    -1.8720     0.5350 N.am  1 <1>  -0.8490 
  5 C       -1.2570     0.0820     1.1750 C.ar  1 <1>  -0.0090 
  6 C        1.4700    -1.0200    -0.2870 C.3   1 <1>   0.1960 
  7 C        1.1360    -3.1890     0.8960 C.3   1 <1>   0.1960 
  8 C       -2.1560    -0.3330     0.2000 C.ar  1 <1>  -0.1500 
  9 C       -1.3170     1.4070     1.5890 C.ar  1 <1>  -0.1500 
 10 C        2.9500    -1.2920     0.0040 C.3   1 <1>  -0.0190 
 11 C        2.1110    -3.7030    -0.1700 C.3   1 <1>  -0.1600 
 12 C       -3.0810     0.5350    -0.3570 C.ar  1 <1>  -0.1440 
 13 C       -2.2350     2.2890     1.0470 C.ar  1 <1>  -0.1500 
 14 C        3.8150    -0.2830    -0.7320 C.2   1 <1>   0.5690 
 15 C        3.3100    -2.7520    -0.3540 C.3   1 <1>  -0.1600 
 16 C       -3.1250     1.8590     0.0670 C.ar  1 <1>   0.0820 
 17 C       -4.0420     0.0330    -1.4250 C.3   1 <1>  -0.0960 
 18 O        3.7120    -0.1780    -1.9300 O.2   1 <1>  -0.5700 
 19 N        4.6720     0.4870    -0.0130 N.am  1 <1>  -0.7300 
 20 O       -4.0470     2.6760    -0.5050 O.3   1 <1>  -0.3630 
 21 C        5.5880     1.4940    -0.5860 C.3   1 <1>   0.1400 
 22 C       -4.1780     4.0280    -0.1340 C.3   1 <1>   0.1200 
 23 C        6.9770     1.3090     0.0210 C.3   1 <1>  -0.1600 
 24 C       -5.3040     4.6380    -0.9640 C.3   1 <1>  -0.2400 
 25 C        7.9550     2.3230    -0.5690 C.3   1 <1>   0.1200 
 26 O        9.1940     2.1150     0.0030 O.3   1 <1>  -0.6800 
 27 H        1.2480     0.0220    -0.1300 H     1 <1>   0.0800 
 28 H        1.2810    -1.2310    -1.3270 H     1 <1>   0.0800 
 29 H        0.3260    -3.8880     1.0250 H     1 <1>   0.0800 
 30 H        1.6610    -3.1170     1.8360 H     1 <1>   0.0800 
 31 H       -2.1230    -1.3600    -0.1250 H     1 <1>   0.1500 
 32 H       -0.6350     1.7530     2.3480 H     1 <1>   0.1500 
 33 H        3.1050    -1.1490     1.0580 H     1 <1>   0.0800 
 34 H        1.5750    -3.8000    -1.0980 H     1 <1>   0.0800 
 35 H        2.4630    -4.6820     0.1030 H     1 <1>   0.0800 
 36 H       -2.2400     3.3020     1.3990 H     1 <1>   0.1500 
 37 H        4.1290    -3.0690     0.2680 H     1 <1>   0.0800 
 38 H        3.6380    -2.8130    -1.3780 H     1 <1>   0.0800 
 39 H       -3.8790    -1.0080    -1.6410 H     1 <1>   0.0800 
 40 H       -3.9050     0.5970    -2.3300 H     1 <1>   0.0800 
 41 H       -5.0560     0.1600    -1.0910 H     1 <1>   0.0800 
 42 H        4.6920     0.3990     1.0050 H     1 <1>   0.3700 
 43 H        5.2100     2.4790    -0.3670 H     1 <1>   0.0800 
 44 H        5.6350     1.3770    -1.6570 H     1 <1>   0.0800 
 45 H       -3.2450     4.5270    -0.3320 H     1 <1>   0.0800 
 46 H       -4.4120     4.0720     0.9160 H     1 <1>   0.0800 
 47 H        7.3270     0.3160    -0.2040 H     1 <1>   0.0800 
 48 H        6.9200     1.4420     1.0860 H     1 <1>   0.0800 
 49 H       -5.0680     4.5730    -2.0110 H     1 <1>   0.0800 
 50 H       -5.4290     5.6730    -0.7030 H     1 <1>   0.0800 
 51 H       -6.2270     4.1210    -0.7710 H     1 <1>   0.0800 
 52 H        7.6500     3.3350    -0.3600 H     1 <1>   0.0800 
 53 H        8.0540     2.1900    -1.6330 H     1 <1>   0.0800 
 54 H        9.1530     2.2250     0.9720 H     1 <1>   0.4000 
@<TRIPOS>BOND
  1   1   2  2   
  2   1   3  2   
  3   1   4  am  
  4   1   5  1   
  5   4   6  1   
  6   4   7  1   
  7   5   8  ar  
  8   5   9  ar  
  9   6  10  1   
 10   6  27  1   
 11   6  28  1   
 12   7  11  1   
 13   7  29  1   
 14   7  30  1   
 15   8  12  ar  
 16   8  31  1   
 17   9  13  ar  
 18   9  32  1   
 19  10  14  1   
 20  10  15  1   
 21  10  33  1   
 22  11  15  1   
 23  11  34  1   
 24  11  35  1   
 25  12  16  ar  
 26  12  17  1   
 27  13  16  ar  
 28  13  36  1   
 29  14  18  2   
 30  14  19  am  
 31  15  37  1   
 32  15  38  1   
 33  16  20  1   
 34  17  39  1   
 35  17  40  1   
 36  17  41  1   
 37  19  21  1   
 38  19  42  1   
 39  20  22  1   
 40  21  23  1   
 41  21  43  1   
 42  21  44  1   
 43  22  24  1   
 44  22  45  1   
 45  22  46  1   
 46  23  25  1   
 47  23  47  1   
 48  23  48  1   
 49  24  49  1   
 50  24  50  1   
 51  24  51  1   
 52  25  26  1   
 53  25  52  1   
 54  25  53  1   
 55  26  54  1   
@<TRIPOS>SUBSTRUCTURE
  1 ****   6 GROUP 4 **** **** 0

# MOE 2024.06 (io_trps.svl 2023.06)
