@<TRIPOS>MOLECULE
[3-(3,4-Dimethoxy-phenyl)-[1,2,4]oxadiazol-5-ylmethyl]-isopropyl-amine
40 41 1 0 0 
SMALL
USER_CHARGES


@<TRIPOS>ATOM
  1 O       -0.6840    -0.1720     2.3360 O.3   1 <1>  -0.0190 
  2 N       -1.9710    -0.1240     2.2120 N.2   1 <1>  -0.4100 
  3 C       -0.2930    -0.8210     1.2760 C.2   1 <1>   0.2980 
  4 C       -2.2980    -0.7230     1.1210 C.2   1 <1>   0.4620 
  5 N       -1.2150    -1.1920     0.4820 N.2   1 <1>  -0.5650 
  6 C        1.1980    -1.0680     1.0880 C.3   1 <1>   0.5230 
  7 C       -3.6500    -0.8900     0.6150 C.ar  1 <1>   0.0540 
  8 N        1.4440    -1.8830    -0.1450 N.4   1 <1>  -0.9060 
  9 C       -4.7490    -0.4070     1.3220 C.ar  1 <1>  -0.1500 
 10 C       -3.9130    -1.5350    -0.5950 C.ar  1 <1>  -0.1500 
 11 C        2.8510    -2.0960    -0.4980 C.3   1 <1>   0.4230 
 12 C       -6.0470    -0.5470     0.8640 C.ar  1 <1>   0.0830 
 13 C       -5.2020    -1.6960    -1.0680 C.ar  1 <1>  -0.1500 
 14 C        2.8810    -2.7090    -1.8910 C.3   1 <1>  -0.2400 
 15 C        3.4920    -3.0350     0.5210 C.3   1 <1>  -0.2400 
 16 O       -7.0030    -0.0080     1.6700 O.3   1 <1>  -0.3620 
 17 C       -6.2910    -1.2140    -0.3470 C.ar  1 <1>   0.0830 
 18 C       -8.1380     0.6220     1.1170 C.3   1 <1>   0.0400 
 19 O       -7.5700    -1.3940    -0.7820 O.3   1 <1>  -0.3630 
 20 C       -7.8830    -2.2100    -1.8900 C.3   1 <1>   0.0400 
 21 H        1.5760    -1.5840     1.9550 H     1 <1>   0.0800 
 22 H        1.6980    -0.1180     1.0100 H     1 <1>   0.0800 
 23 H        0.9510    -1.4200    -0.9200 H     1 <1>   0.4500 
 24 H        0.9670    -2.7850    -0.0390 H     1 <1>   0.4500 
 25 H       -4.6000     0.0980     2.2600 H     1 <1>   0.1500 
 26 H       -3.0970    -1.9210    -1.1790 H     1 <1>   0.1500 
 27 H        3.3800    -1.1550    -0.5130 H     1 <1>   0.0800 
 28 H       -5.3370    -2.2030    -2.0040 H     1 <1>   0.1500 
 29 H        2.3680    -3.6540    -1.9160 H     1 <1>   0.0800 
 30 H        3.9020    -2.8790    -2.1880 H     1 <1>   0.0800 
 31 H        2.4430    -2.0420    -2.6120 H     1 <1>   0.0800 
 32 H        2.9680    -3.9730     0.5730 H     1 <1>   0.0800 
 33 H        3.5310    -2.5880     1.4970 H     1 <1>   0.0800 
 34 H        4.5060    -3.2420     0.2260 H     1 <1>   0.0800 
 35 H       -8.5350     1.3000     1.8500 H     1 <1>   0.0800 
 36 H       -8.8710    -0.1280     0.8820 H     1 <1>   0.0800 
 37 H       -7.8470     1.1620     0.2330 H     1 <1>   0.0800 
 38 H       -8.9530    -2.2510    -1.9820 H     1 <1>   0.0800 
 39 H       -7.4940    -3.1980    -1.7170 H     1 <1>   0.0800 
 40 H       -7.4570    -1.7740    -2.7760 H     1 <1>   0.0800 
@<TRIPOS>BOND
  1   1   2  1   
  2   1   3  1   
  3   2   4  2   
  4   3   5  2   
  5   3   6  1   
  6   4   5  1   
  7   4   7  1   
  8   6   8  1   
  9   6  21  1   
 10   6  22  1   
 11   7   9  ar  
 12   7  10  ar  
 13   8  11  1   
 14   8  23  1   
 15   8  24  1   
 16   9  12  ar  
 17   9  25  1   
 18  10  13  ar  
 19  10  26  1   
 20  11  14  1   
 21  11  15  1   
 22  11  27  1   
 23  12  16  1   
 24  12  17  ar  
 25  13  17  ar  
 26  13  28  1   
 27  14  29  1   
 28  14  30  1   
 29  14  31  1   
 30  15  32  1   
 31  15  33  1   
 32  15  34  1   
 33  16  18  1   
 34  17  19  1   
 35  18  35  1   
 36  18  36  1   
 37  18  37  1   
 38  19  20  1   
 39  20  38  1   
 40  20  39  1   
 41  20  40  1   
@<TRIPOS>SUBSTRUCTURE
  1 ****   7 GROUP 4 **** **** 0

# MOE 2024.06 (io_trps.svl 2023.06)
