@<TRIPOS>MOLECULE
3-Isopropyl-6-thiophen-2-yl-[1,2,4]triazolo[3,4-b][1,3,4]thiadiazole
26 28 1 0 0 
SMALL
USER_CHARGES


@<TRIPOS>ATOM
  1 S       -0.4680     0.0940     0.9410 S.3   1 <1>  -0.1970 
  2 C        0.7500     1.3410     0.8800 C.2   1 <1>   0.2420 
  3 C       -1.6450     1.2560     0.2610 C.2   1 <1>   0.6760 
  4 N        1.9930     1.4390     1.1840 N.2   1 <1>  -0.3380 
  5 N        0.2040     2.4370     0.3900 N.pl3 1 <1>   0.5050 
  6 N       -1.1420     2.4180     0.0340 N.2   1 <1>  -0.6520 
  7 C       -2.9950     0.8220     0.0340 C.2   1 <1>  -0.0450 
  8 N        2.3130     2.7100     0.8750 N.2   1 <1>  -0.3380 
  9 C        1.2450     3.2870     0.4060 C.2   1 <1>   0.0060 
 10 S       -3.4760    -0.8350     0.4210 S.3   1 <1>  -0.0800 
 11 C       -4.0760     1.4790    -0.4610 C.2   1 <1>  -0.1500 
 12 C        1.1190     4.7310    -0.0700 C.3   1 <1>   0.1000 
 13 C       -5.1230    -0.5600    -0.1070 C.2   1 <1>  -0.1100 
 14 C       -5.2700     0.7050    -0.5400 C.2   1 <1>  -0.1500 
 15 C        2.4620     5.2860    -0.5630 C.3   1 <1>  -0.2400 
 16 C        0.5690     5.6090     1.0590 C.3   1 <1>  -0.2400 
 17 H       -4.0680     2.5080    -0.7790 H     1 <1>   0.1500 
 18 H        0.4260     4.7580    -0.8940 H     1 <1>   0.0800 
 19 H       -5.8140    -1.3820    -0.0360 H     1 <1>   0.1500 
 20 H       -6.1850     1.1300    -0.9180 H     1 <1>   0.1500 
 21 H        3.1790     5.3030     0.2380 H     1 <1>   0.0800 
 22 H        2.3410     6.2850    -0.9410 H     1 <1>   0.0800 
 23 H        2.8490     4.6640    -1.3510 H     1 <1>   0.0800 
 24 H        1.2350     5.5880     1.9040 H     1 <1>   0.0800 
 25 H       -0.3950     5.2510     1.3730 H     1 <1>   0.0800 
 26 H        0.4640     6.6260     0.7250 H     1 <1>   0.0800 
@<TRIPOS>BOND
  1   1   2  1   
  2   1   3  1   
  3   2   4  2   
  4   2   5  1   
  5   3   6  2   
  6   3   7  1   
  7   4   8  1   
  8   5   6  1   
  9   5   9  1   
 10   7  10  1   
 11   7  11  2   
 12   8   9  2   
 13   9  12  1   
 14  10  13  1   
 15  11  14  1   
 16  11  17  1   
 17  12  15  1   
 18  12  16  1   
 19  12  18  1   
 20  13  14  2   
 21  13  19  1   
 22  14  20  1   
 23  15  21  1   
 24  15  22  1   
 25  15  23  1   
 26  16  24  1   
 27  16  25  1   
 28  16  26  1   
@<TRIPOS>SUBSTRUCTURE
  1 ****   6 GROUP 4 **** **** 0

# MOE 2024.06 (io_trps.svl 2023.06)
