@<TRIPOS>MOLECULE
1-(2,5-Dimethoxy-benzenesulfonyl)-piperidine-4-carboxylic acid (2,6-dimethyl-phe
58 60 1 0 0 
SMALL
USER_CHARGES


@<TRIPOS>ATOM
  1 S        0.1710    -0.8640    -1.1330 S.o2  1 <1>   1.4470 
  2 O        0.3560    -2.2830    -1.3550 O.2   1 <1>  -0.6500 
  3 O       -0.1330    -0.0430    -2.2870 O.2   1 <1>  -0.6500 
  4 N        1.6370    -0.2880    -0.5010 N.am  1 <1>  -0.8490 
  5 C       -1.0230    -0.6680     0.2200 C.ar  1 <1>  -0.0090 
  6 C        1.6180     1.1660    -0.3080 C.3   1 <1>   0.1960 
  7 C        2.7620    -0.7080    -1.3430 C.3   1 <1>   0.1960 
  8 C       -1.7630     0.4980     0.4060 C.ar  1 <1>   0.0830 
  9 C       -1.2070    -1.7030     1.1320 C.ar  1 <1>  -0.1500 
 10 C        2.9140     1.6400     0.3530 C.3   1 <1>  -0.1600 
 11 C        4.0920    -0.2910    -0.7130 C.3   1 <1>  -0.1600 
 12 O       -1.6050     1.5540    -0.4180 O.3   1 <1>  -0.3620 
 13 C       -2.6590     0.6210     1.4590 C.ar  1 <1>  -0.1500 
 14 C       -2.1060    -1.5920     2.1880 C.ar  1 <1>   0.0830 
 15 C        4.1440     1.2270    -0.4700 C.3   1 <1>  -0.0190 
 16 C       -2.6180     1.7550    -1.3800 C.3   1 <1>   0.0400 
 17 C       -2.8310    -0.4240     2.3450 C.ar  1 <1>  -0.1500 
 18 O       -2.3260    -2.5740     3.0990 O.3   1 <1>  -0.3630 
 19 C        5.4360     1.6810     0.2100 C.2   1 <1>   0.5690 
 20 C       -1.6400    -3.8050     3.0270 C.3   1 <1>   0.0400 
 21 O        5.9870     0.9510     0.9960 O.2   1 <1>  -0.5700 
 22 N        5.9080     2.9230    -0.1080 N.am  1 <1>  -0.5470 
 23 C        7.0510     3.5720     0.3830 C.ar  1 <1>   0.1170 
 24 C        8.1080     3.8460    -0.4890 C.ar  1 <1>  -0.1430 
 25 C        7.1380     3.9770     1.7180 C.ar  1 <1>  -0.1430 
 26 C        9.2290     4.5150    -0.0260 C.ar  1 <1>  -0.1500 
 27 C        8.0620     3.4130    -1.9490 C.3   1 <1>  -0.0970 
 28 C        8.2700     4.6400     2.1620 C.ar  1 <1>  -0.1500 
 29 C        6.0150     3.7120     2.7140 C.3   1 <1>  -0.0970 
 30 C        9.3120     4.9110     1.2960 C.ar  1 <1>  -0.1500 
 31 H        0.7980     1.4360     0.3350 H     1 <1>   0.0800 
 32 H        1.4820     1.6630    -1.2550 H     1 <1>   0.0800 
 33 H        2.6630    -0.2760    -2.3260 H     1 <1>   0.0800 
 34 H        2.7580    -1.7810    -1.4470 H     1 <1>   0.0800 
 35 H       -0.6300    -2.6000     0.9970 H     1 <1>   0.1500 
 36 H        2.9780     1.2130     1.3400 H     1 <1>   0.0800 
 37 H        2.8860     2.7090     0.4600 H     1 <1>   0.0800 
 38 H        4.9020    -0.5840    -1.3570 H     1 <1>   0.0800 
 39 H        4.2110    -0.8180     0.2190 H     1 <1>   0.0800 
 40 H       -3.2120     1.5340     1.5860 H     1 <1>   0.1500 
 41 H        4.0870     1.7110    -1.4280 H     1 <1>   0.0800 
 42 H       -2.3390     2.5950    -1.9900 H     1 <1>   0.0800 
 43 H       -3.5480     1.9530    -0.8790 H     1 <1>   0.0800 
 44 H       -2.6980     0.8720    -1.9900 H     1 <1>   0.0800 
 45 H       -3.5230    -0.3410     3.1640 H     1 <1>   0.1500 
 46 H       -1.9750    -4.4220     3.8410 H     1 <1>   0.0800 
 47 H       -0.5840    -3.6230     3.1180 H     1 <1>   0.0800 
 48 H       -1.8710    -4.2800     2.0900 H     1 <1>   0.0800 
 49 H        5.4270     3.4200    -0.8520 H     1 <1>   0.3700 
 50 H       10.0490     4.7300    -0.6880 H     1 <1>   0.1500 
 51 H        7.8730     2.3550    -2.0100 H     1 <1>   0.0800 
 52 H        8.9960     3.6140    -2.4400 H     1 <1>   0.0800 
 53 H        7.2840     3.9420    -2.4670 H     1 <1>   0.0800 
 54 H        8.3500     4.9500     3.1890 H     1 <1>   0.1500 
 55 H        6.1350     4.3110     3.5980 H     1 <1>   0.0800 
 56 H        5.0620     3.9450     2.2780 H     1 <1>   0.0800 
 57 H        6.0240     2.6760     3.0020 H     1 <1>   0.0800 
 58 H       10.1870     5.4260     1.6500 H     1 <1>   0.1500 
@<TRIPOS>BOND
  1   1   2  2   
  2   1   3  2   
  3   1   4  am  
  4   1   5  1   
  5   4   6  1   
  6   4   7  1   
  7   5   8  ar  
  8   5   9  ar  
  9   6  10  1   
 10   6  31  1   
 11   6  32  1   
 12   7  11  1   
 13   7  33  1   
 14   7  34  1   
 15   8  12  1   
 16   8  13  ar  
 17   9  14  ar  
 18   9  35  1   
 19  10  15  1   
 20  10  36  1   
 21  10  37  1   
 22  11  15  1   
 23  11  38  1   
 24  11  39  1   
 25  12  16  1   
 26  13  17  ar  
 27  13  40  1   
 28  14  17  ar  
 29  14  18  1   
 30  15  19  1   
 31  15  41  1   
 32  16  42  1   
 33  16  43  1   
 34  16  44  1   
 35  17  45  1   
 36  18  20  1   
 37  19  21  2   
 38  19  22  am  
 39  20  46  1   
 40  20  47  1   
 41  20  48  1   
 42  22  23  1   
 43  22  49  1   
 44  23  24  ar  
 45  23  25  ar  
 46  24  26  ar  
 47  24  27  1   
 48  25  28  ar  
 49  25  29  1   
 50  26  30  ar  
 51  26  50  1   
 52  27  51  1   
 53  27  52  1   
 54  27  53  1   
 55  28  30  ar  
 56  28  54  1   
 57  29  55  1   
 58  29  56  1   
 59  29  57  1   
 60  30  58  1   
@<TRIPOS>SUBSTRUCTURE
  1 ****  10 GROUP 4 **** **** 0

# MOE 2024.06 (io_trps.svl 2023.06)
