@<TRIPOS>MOLECULE
7-(3-Allyloxy-2-hydroxy-propyl)-8-cyclohexylamino-3-methyl-3,7-dihydro-purine-2,
55 57 1 0 0 
SMALL
USER_CHARGES


@<TRIPOS>ATOM
  1 O        1.2970     1.2980    -0.4240 O.2   1 <1>  -0.5740 
  2 C        2.4730     1.5760    -0.4220 C.2   1 <1>   0.6860 
  3 N        3.4620     0.6070    -0.3380 N.am  1 <1>  -0.4410 
  4 N        2.8330     2.8890    -0.5100 N.am  1 <1>  -0.4950 
  5 C        4.7820     1.0350    -0.3240 C.2   1 <1>   0.4210 
  6 C        3.1150    -0.8400    -0.2320 C.3   1 <1>   0.0530 
  7 C        4.1260     3.3270    -0.5160 C.2   1 <1>   0.7000 
  8 N        5.9010     0.2700    -0.2160 N.pl3 1 <1>  -0.7030 
  9 C        5.1560     2.3330    -0.4090 C.2   1 <1>   0.2710 
 10 O        4.3330     4.5200    -0.6250 O.2   1 <1>  -0.5740 
 11 C        6.9550     1.0800    -0.2150 C.cat 1 <1>   1.0690 
 12 N        6.5640     2.3440    -0.3450 N.pl3 1 <1>  -0.7670 
 13 N        8.2170     0.6860    -0.0930 N.pl3 1 <1>  -0.7180 
 14 C        7.3480     3.6090    -0.1800 C.3   1 <1>   0.3480 
 15 C        8.7300    -0.6790     0.0920 C.3   1 <1>   0.2410 
 16 C        7.4110     4.0530     1.3020 C.3   1 <1>   0.1930 
 17 C        9.5690    -0.7170     1.3720 C.3   1 <1>  -0.1670 
 18 C        9.5640    -1.0610    -1.1340 C.3   1 <1>  -0.1670 
 19 O        6.1300     4.0960     1.8420 O.3   1 <1>  -0.6840 
 20 C        8.0370     5.4440     1.4440 C.3   1 <1>   0.1130 
 21 C       10.2090    -2.0990     1.5640 C.3   1 <1>  -0.1670 
 22 C       10.2040    -2.4440    -0.9500 C.3   1 <1>  -0.1670 
 23 O        7.2690     6.3440     0.7080 O.3   1 <1>  -0.5640 
 24 C       11.0380    -2.5000     0.3370 C.3   1 <1>  -0.1670 
 25 C        7.7220     7.6620     0.6940 C.3   1 <1>   0.2520 
 26 C        8.9400     7.7700    -0.2090 C.2   1 <1>  -0.2940 
 27 C        8.9480     8.3330    -1.4210 C.2   1 <1>  -0.3060 
 28 H        2.0860     3.5780    -0.5720 H     1 <1>   0.3650 
 29 H        2.0680    -0.9980    -0.4330 H     1 <1>   0.0730 
 30 H        3.3270    -1.1930     0.7620 H     1 <1>   0.0730 
 31 H        3.6830    -1.4100    -0.9460 H     1 <1>   0.0730 
 32 H        5.9430    -0.7390    -0.1180 H     1 <1>   0.4450 
 33 H        8.9520     1.3830    -0.1580 H     1 <1>   0.4450 
 34 H        6.8980     4.3870    -0.7740 H     1 <1>   0.0730 
 35 H        8.3480     3.4730    -0.5510 H     1 <1>   0.0730 
 36 H        7.9180    -1.3790     0.1920 H     1 <1>   0.0730 
 37 H        7.9790     3.3420     1.8740 H     1 <1>   0.0730 
 38 H       10.3550     0.0170     1.3210 H     1 <1>   0.0730 
 39 H        8.9500    -0.4990     2.2250 H     1 <1>   0.0730 
 40 H       10.3490    -0.3400    -1.2850 H     1 <1>   0.0730 
 41 H        8.9430    -1.0800    -2.0120 H     1 <1>   0.0730 
 42 H        5.7160     4.9460     1.5570 H     1 <1>   0.3950 
 43 H        9.0420     5.4380     1.0600 H     1 <1>   0.0730 
 44 H        8.0490     5.7510     2.4770 H     1 <1>   0.0730 
 45 H        9.4420    -2.8360     1.7310 H     1 <1>   0.0730 
 46 H       10.8440    -2.0860     2.4340 H     1 <1>   0.0730 
 47 H        9.4360    -3.1980    -0.9080 H     1 <1>   0.0730 
 48 H       10.8340    -2.6670    -1.7940 H     1 <1>   0.0730 
 49 H       11.4210    -3.4980     0.4730 H     1 <1>   0.0730 
 50 H       11.8830    -1.8390     0.2440 H     1 <1>   0.0730 
 51 H        7.9400     7.9820     1.6990 H     1 <1>   0.0730 
 52 H        6.9220     8.2670     0.3030 H     1 <1>   0.0730 
 53 H        9.8260     7.3470     0.2290 H     1 <1>   0.1430 
 54 H        9.8220     8.4060    -2.0450 H     1 <1>   0.1430 
 55 H        8.0830     8.7670    -1.8920 H     1 <1>   0.1430 
@<TRIPOS>BOND
  1   1   2  2   
  2   2   3  am  
  3   2   4  am  
  4   3   5  1   
  5   3   6  1   
  6   4   7  am  
  7   4  28  1   
  8   5   8  1   
  9   5   9  2   
 10   6  29  1   
 11   6  30  1   
 12   6  31  1   
 13   7   9  1   
 14   7  10  2   
 15   8  11  ar  
 16   8  32  1   
 17   9  12  1   
 18  11  12  ar  
 19  11  13  ar  
 20  12  14  1   
 21  13  15  1   
 22  13  33  1   
 23  14  16  1   
 24  14  34  1   
 25  14  35  1   
 26  15  17  1   
 27  15  18  1   
 28  15  36  1   
 29  16  19  1   
 30  16  20  1   
 31  16  37  1   
 32  17  21  1   
 33  17  38  1   
 34  17  39  1   
 35  18  22  1   
 36  18  40  1   
 37  18  41  1   
 38  19  42  1   
 39  20  23  1   
 40  20  43  1   
 41  20  44  1   
 42  21  24  1   
 43  21  45  1   
 44  21  46  1   
 45  22  24  1   
 46  22  47  1   
 47  22  48  1   
 48  23  25  1   
 49  24  49  1   
 50  24  50  1   
 51  25  26  1   
 52  25  51  1   
 53  25  52  1   
 54  26  27  2   
 55  26  53  1   
 56  27  54  1   
 57  27  55  1   
@<TRIPOS>SUBSTRUCTURE
  1 ****  12 GROUP 4 **** **** 0

# MOE 2024.06 (io_trps.svl 2023.06)
