@<TRIPOS>MOLECULE
2-[1,3-Dimethyl-8-(2-methyl-piperidin-1-ylmethyl)-2,6-dioxo-1,2,3,6-tetrahydro-p
50 52 1 0 0 
SMALL
USER_CHARGES


@<TRIPOS>ATOM
  1 O        1.1120     1.0010    -1.9030 O.2   1 <1>  -0.5700 
  2 C        2.0570     1.4200    -1.2660 C.2   1 <1>   0.6900 
  3 N        1.9550     2.6320    -0.5880 N.am  1 <1>  -0.4200 
  4 N        3.2380     0.6930    -1.2230 N.am  1 <1>  -0.4360 
  5 C        3.0390     3.1670     0.0930 C.2   1 <1>   0.7030 
  6 C        0.6620     3.3830    -0.6500 C.3   1 <1>   0.0600 
  7 C        4.3030     1.2230    -0.5210 C.2   1 <1>   0.4260 
  8 C        3.3690    -0.6090    -1.9430 C.3   1 <1>   0.0600 
  9 O        2.9800     4.2760     0.6030 O.2   1 <1>  -0.5700 
 10 C        4.2460     2.3960     0.1530 C.2   1 <1>   0.2770 
 11 N        5.5570     0.7270    -0.3890 N.pl3 1 <1>  -0.7000 
 12 N        5.5010     2.5820     0.7410 N.pl3 1 <1>  -0.7640 
 13 C        6.2660     1.5670     0.3550 C.cat 1 <1>   0.6560 
 14 C        5.8920     3.7930     1.5390 C.3   1 <1>   0.4150 
 15 C        7.7570     1.3280     0.6450 C.3   1 <1>   0.2540 
 16 C        6.4200     4.9130     0.6380 C.2   1 <1>   0.5690 
 17 N        8.1650    -0.0530     0.2450 N.3   1 <1>  -0.8100 
 18 O        7.5810     4.8880     0.3190 O.2   1 <1>  -0.5700 
 19 N        5.5990     5.8790     0.1700 N.am  1 <1>  -0.8000 
 20 C        8.2480    -1.0020     1.3830 C.3   1 <1>   0.1900 
 21 C        9.4440     0.0020    -0.4930 C.3   1 <1>   0.1100 
 22 C        8.5880    -2.4070     0.8620 C.3   1 <1>  -0.1600 
 23 C        6.9240    -1.0760     2.1530 C.3   1 <1>  -0.2400 
 24 C        9.7920    -1.3710    -1.0700 C.3   1 <1>  -0.1600 
 25 C        9.8790    -2.4210     0.0390 C.3   1 <1>  -0.1600 
 26 H       -0.1670     2.7010    -0.5720 H     1 <1>   0.0800 
 27 H        0.5930     3.9060    -1.5880 H     1 <1>   0.0800 
 28 H        0.5870     4.0940     0.1550 H     1 <1>   0.0800 
 29 H        2.4010    -1.0510    -2.1080 H     1 <1>   0.0800 
 30 H        3.9570    -1.2990    -1.3630 H     1 <1>   0.0800 
 31 H        3.8420    -0.4500    -2.8970 H     1 <1>   0.0800 
 32 H        5.9910    -0.1240    -0.7640 H     1 <1>   0.4500 
 33 H        6.6650     3.5320     2.2400 H     1 <1>   0.0800 
 34 H        5.0500     4.1540     2.1020 H     1 <1>   0.0800 
 35 H        7.9700     1.5000     1.6850 H     1 <1>   0.0800 
 36 H        8.3070     2.0600     0.0790 H     1 <1>   0.0800 
 37 H        5.9740     6.6190    -0.4300 H     1 <1>   0.3700 
 38 H        4.5870     5.9180     0.3460 H     1 <1>   0.3700 
 39 H        9.0300    -0.6850     2.0550 H     1 <1>   0.0800 
 40 H       10.2350     0.3300     0.1620 H     1 <1>   0.0800 
 41 H        9.3670     0.7020    -1.3090 H     1 <1>   0.0800 
 42 H        7.7770    -2.7680     0.2540 H     1 <1>   0.0800 
 43 H        8.6990    -3.0830     1.6920 H     1 <1>   0.0800 
 44 H        6.1170    -1.3490     1.4980 H     1 <1>   0.0800 
 45 H        6.6980    -0.1530     2.6510 H     1 <1>   0.0800 
 46 H        6.9980    -1.8320     2.9150 H     1 <1>   0.0800 
 47 H       10.7340    -1.3140    -1.5860 H     1 <1>   0.0800 
 48 H        9.0410    -1.6540    -1.7860 H     1 <1>   0.0800 
 49 H       10.0340    -3.3970    -0.3890 H     1 <1>   0.0800 
 50 H       10.7160    -2.2000     0.6790 H     1 <1>   0.0800 
@<TRIPOS>BOND
  1   1   2  2   
  2   2   3  am  
  3   2   4  am  
  4   3   5  am  
  5   3   6  1   
  6   4   7  1   
  7   4   8  1   
  8   5   9  2   
  9   5  10  1   
 10   6  26  1   
 11   6  27  1   
 12   6  28  1   
 13   7  10  2   
 14   7  11  1   
 15   8  29  1   
 16   8  30  1   
 17   8  31  1   
 18  10  12  1   
 19  11  13  ar  
 20  11  32  1   
 21  12  13  ar  
 22  12  14  1   
 23  13  15  1   
 24  14  16  1   
 25  14  33  1   
 26  14  34  1   
 27  15  17  1   
 28  15  35  1   
 29  15  36  1   
 30  16  18  2   
 31  16  19  am  
 32  17  20  1   
 33  17  21  1   
 34  19  37  1   
 35  19  38  1   
 36  20  22  1   
 37  20  23  1   
 38  20  39  1   
 39  21  24  1   
 40  21  40  1   
 41  21  41  1   
 42  22  25  1   
 43  22  42  1   
 44  22  43  1   
 45  23  44  1   
 46  23  45  1   
 47  23  46  1   
 48  24  25  1   
 49  24  47  1   
 50  24  48  1   
 51  25  49  1   
 52  25  50  1   
@<TRIPOS>SUBSTRUCTURE
  1 ****  13 GROUP 4 **** **** 0

# MOE 2024.06 (io_trps.svl 2023.06)
