@<TRIPOS>MOLECULE
N-Allyl-4-[3-(2-methoxy-phenyl)-[1,2,4]oxadiazol-5-yl]-butyramide
41 42 1 0 0 
SMALL
USER_CHARGES


@<TRIPOS>ATOM
  1 O        0.0420    -0.3620     0.5730 O.2   1 <1>  -0.5700 
  2 C       -0.8140    -1.2050     0.4700 C.2   1 <1>   0.5690 
  3 N       -0.5530    -2.4460    -0.0020 N.am  1 <1>  -0.7300 
  4 C       -2.2340    -0.8660     0.8710 C.3   1 <1>  -0.0990 
  5 C        0.7620    -2.9070    -0.4600 C.3   1 <1>   0.2780 
  6 C       -3.0540    -0.3650    -0.3310 C.3   1 <1>  -0.1600 
  7 C        0.5270    -3.8330    -1.6330 C.2   1 <1>  -0.2880 
  8 C       -4.4870     0.0500     0.0440 C.3   1 <1>   0.0200 
  9 C        0.8090    -5.1400    -1.6590 C.2   1 <1>  -0.3000 
 10 C       -5.3010    -1.1070     0.5930 C.2   1 <1>   0.2980 
 11 O       -5.2980    -1.3270     1.8820 O.3   1 <1>  -0.0190 
 12 N       -5.9970    -1.9080    -0.0980 N.2   1 <1>  -0.5650 
 13 N       -6.0580    -2.3680     2.0250 N.2   1 <1>  -0.4100 
 14 C       -6.4870    -2.7030     0.8600 C.2   1 <1>   0.4620 
 15 C       -7.3520    -3.8280     0.5840 C.ar  1 <1>   0.0540 
 16 C       -8.5850    -3.6880    -0.0670 C.ar  1 <1>   0.0820 
 17 C       -6.9590    -5.1070     0.9780 C.ar  1 <1>  -0.1500 
 18 O       -8.9780    -2.4340    -0.4140 O.3   1 <1>  -0.3630 
 19 C       -9.3720    -4.8090    -0.3240 C.ar  1 <1>  -0.1500 
 20 C       -7.7440    -6.2150     0.7240 C.ar  1 <1>  -0.1500 
 21 C      -10.1680    -2.1850    -1.1280 C.3   1 <1>   0.0400 
 22 C       -8.9520    -6.0660     0.0680 C.ar  1 <1>  -0.1500 
 23 H       -1.2970    -3.1380    -0.0900 H     1 <1>   0.3700 
 24 H       -2.1970    -0.1060     1.6300 H     1 <1>   0.0800 
 25 H       -2.6860    -1.7420     1.3010 H     1 <1>   0.0800 
 26 H        1.2560    -3.4300     0.3420 H     1 <1>   0.0800 
 27 H        1.3730    -2.0700    -0.7560 H     1 <1>   0.0800 
 28 H       -3.0990    -1.1380    -1.0800 H     1 <1>   0.0800 
 29 H       -2.5510     0.4810    -0.7670 H     1 <1>   0.0800 
 30 H        0.0970    -3.3150    -2.4740 H     1 <1>   0.1500 
 31 H       -4.9820     0.4200    -0.8360 H     1 <1>   0.0800 
 32 H       -4.4670     0.8460     0.7670 H     1 <1>   0.0800 
 33 H        0.6310    -5.7740    -2.5110 H     1 <1>   0.1500 
 34 H        1.2390    -5.6870    -0.8370 H     1 <1>   0.1500 
 35 H       -6.0210    -5.2280     1.4900 H     1 <1>   0.1500 
 36 H      -10.3160    -4.7240    -0.8260 H     1 <1>   0.1500 
 37 H       -7.4170    -7.1930     1.0350 H     1 <1>   0.1500 
 38 H      -10.2330    -1.1260    -1.3040 H     1 <1>   0.0800 
 39 H      -11.0050    -2.5090    -0.5370 H     1 <1>   0.0800 
 40 H      -10.1280    -2.7090    -2.0660 H     1 <1>   0.0800 
 41 H       -9.5650    -6.9280    -0.1330 H     1 <1>   0.1500 
@<TRIPOS>BOND
  1   1   2  2   
  2   2   3  am  
  3   2   4  1   
  4   3   5  1   
  5   3  23  1   
  6   4   6  1   
  7   4  24  1   
  8   4  25  1   
  9   5   7  1   
 10   5  26  1   
 11   5  27  1   
 12   6   8  1   
 13   6  28  1   
 14   6  29  1   
 15   7   9  2   
 16   7  30  1   
 17   8  10  1   
 18   8  31  1   
 19   8  32  1   
 20   9  33  1   
 21   9  34  1   
 22  10  11  1   
 23  10  12  2   
 24  11  13  1   
 25  12  14  1   
 26  13  14  2   
 27  14  15  1   
 28  15  16  ar  
 29  15  17  ar  
 30  16  18  1   
 31  16  19  ar  
 32  17  20  ar  
 33  17  35  1   
 34  18  21  1   
 35  19  22  ar  
 36  19  36  1   
 37  20  22  ar  
 38  20  37  1   
 39  21  38  1   
 40  21  39  1   
 41  21  40  1   
 42  22  41  1   
@<TRIPOS>SUBSTRUCTURE
  1 ****  12 GROUP 4 **** **** 0

# MOE 2024.06 (io_trps.svl 2023.06)
