@<TRIPOS>MOLECULE
7-Isopropyl-3-methyl-8-pyrrolidin-1-yl-3,7-dihydro-purine-2,6-dione
40 42 1 0 0 
SMALL
USER_CHARGES


@<TRIPOS>ATOM
  1 O        0.8100     0.2010    -1.6520 O.2   1 <1>  -0.5760 
  2 C        1.7670     0.8610    -1.3190 C.2   1 <1>   0.6850 
  3 N        2.9570     0.2850    -0.9030 N.am  1 <1>  -0.4430 
  4 N        1.6660     2.2200    -1.3600 N.am  1 <1>  -0.4970 
  5 C        3.9960     1.1360    -0.5560 C.2   1 <1>   0.4190 
  6 C        3.1150    -1.1980    -0.8380 C.3   1 <1>   0.0500 
  7 C        2.6790     3.0700    -1.0200 C.2   1 <1>   0.6980 
  8 N        5.2410     0.7870    -0.1490 N.pl3 1 <1>  -0.7050 
  9 C        3.9180     2.4850    -0.5860 C.2   1 <1>   0.2690 
 10 O        2.4790     4.2650    -1.1050 O.2   1 <1>  -0.5760 
 11 C        5.9550     1.8960     0.0520 C.cat 1 <1>   1.0680 
 12 N        5.1740     2.9720    -0.1570 N.pl3 1 <1>  -0.7680 
 13 N        7.2630     1.8280     0.3820 N.pl3 1 <1>  -0.5980 
 14 C        5.3250     4.4010     0.2260 C.3   1 <1>   0.4270 
 15 C        7.8960     0.6450     1.0260 C.3   1 <1>   0.1580 
 16 C        8.3140     2.6830    -0.2260 C.3   1 <1>   0.1580 
 17 C        6.0760     5.1840    -0.8460 C.3   1 <1>  -0.2490 
 18 C        5.9190     4.5520     1.6240 C.3   1 <1>  -0.2490 
 19 C        9.3960     0.9010     0.9660 C.3   1 <1>  -0.1690 
 20 C        9.5730     1.8280    -0.2280 C.3   1 <1>  -0.1690 
 21 H        0.7820     2.6150    -1.6750 H     1 <1>   0.3620 
 22 H        2.1700    -1.6910    -0.9970 H     1 <1>   0.0700 
 23 H        3.4850    -1.4870     0.1290 H     1 <1>   0.0700 
 24 H        3.8010    -1.5240    -1.6000 H     1 <1>   0.0700 
 25 H        5.6140    -0.1520    -0.0750 H     1 <1>   0.4430 
 26 H        4.3430     4.8370     0.2870 H     1 <1>   0.0700 
 27 H        7.6650    -0.2480     0.4700 H     1 <1>   0.0700 
 28 H        7.5640     0.5370     2.0460 H     1 <1>   0.0700 
 29 H        8.4840     3.5520     0.3840 H     1 <1>   0.0700 
 30 H        8.0530     2.9770    -1.2280 H     1 <1>   0.0700 
 31 H        7.1230     4.9640    -0.8550 H     1 <1>   0.0700 
 32 H        5.9720     6.2360    -0.6480 H     1 <1>   0.0700 
 33 H        5.6540     4.9900    -1.8160 H     1 <1>   0.0700 
 34 H        5.3330     4.0020     2.3380 H     1 <1>   0.0700 
 35 H        5.8910     5.5900     1.9080 H     1 <1>   0.0700 
 36 H        6.9390     4.2310     1.6780 H     1 <1>   0.0700 
 37 H        9.9580    -0.0110     0.8630 H     1 <1>   0.0700 
 38 H        9.7070     1.4010     1.8680 H     1 <1>   0.0700 
 39 H       10.4640     2.4260    -0.1510 H     1 <1>   0.0700 
 40 H        9.6170     1.2550    -1.1390 H     1 <1>   0.0700 
@<TRIPOS>BOND
  1   1   2  2   
  2   2   3  am  
  3   2   4  am  
  4   3   5  1   
  5   3   6  1   
  6   4   7  am  
  7   4  21  1   
  8   5   8  1   
  9   5   9  2   
 10   6  22  1   
 11   6  23  1   
 12   6  24  1   
 13   7   9  1   
 14   7  10  2   
 15   8  11  ar  
 16   8  25  1   
 17   9  12  1   
 18  11  12  ar  
 19  11  13  ar  
 20  12  14  1   
 21  13  15  1   
 22  13  16  1   
 23  14  17  1   
 24  14  18  1   
 25  14  26  1   
 26  15  19  1   
 27  15  27  1   
 28  15  28  1   
 29  16  20  1   
 30  16  29  1   
 31  16  30  1   
 32  17  31  1   
 33  17  32  1   
 34  17  33  1   
 35  18  34  1   
 36  18  35  1   
 37  18  36  1   
 38  19  20  1   
 39  19  37  1   
 40  19  38  1   
 41  20  39  1   
 42  20  40  1   
@<TRIPOS>SUBSTRUCTURE
  1 ****  12 GROUP 4 **** **** 0

# MOE 2024.06 (io_trps.svl 2023.06)
