@<TRIPOS>MOLECULE
2-(2-Ethoxy-phenoxy)-N-(5-methoxymethyl-[1,3,4]thiadiazol-2-yl)-acetamide
39 40 1 0 0 
SMALL
USER_CHARGES


@<TRIPOS>ATOM
  1 S       -1.0680     0.5150    -0.4920 S.3   1 <1>  -0.0800 
  2 C       -0.1440     1.2040     0.8050 C.2   1 <1>   0.4420 
  3 C       -1.1300    -0.9450     0.4330 C.2   1 <1>   0.1980 
  4 N        0.0840     0.3620     1.7440 N.2   1 <1>  -0.3380 
  5 N        0.2950     2.5070     0.7340 N.am  1 <1>  -0.4940 
  6 N       -0.4960    -0.8580     1.5340 N.2   1 <1>  -0.3380 
  7 C       -1.9250    -2.1100    -0.1270 C.3   1 <1>   0.3000 
  8 C       -0.3080     3.6440     0.2860 C.2   1 <1>   0.5690 
  9 O       -1.4460    -2.4610    -1.3930 O.3   1 <1>  -0.5600 
 10 O        0.3460     4.6510     0.1930 O.2   1 <1>  -0.5700 
 11 C       -1.7930     3.6990    -0.0620 C.3   1 <1>   0.1810 
 12 C       -2.1170    -3.5280    -1.9820 C.3   1 <1>   0.0400 
 13 O       -2.5830     3.3600     1.0740 O.3   1 <1>  -0.3620 
 14 C       -3.4610     2.3290     0.9800 C.ar  1 <1>   0.0820 
 15 C       -4.3930     2.2020    -0.0570 C.ar  1 <1>   0.0820 
 16 C       -3.4050     1.3590     1.9670 C.ar  1 <1>  -0.1500 
 17 O       -4.5320     3.1420    -1.0220 O.3   1 <1>  -0.3630 
 18 C       -5.2130     1.0870    -0.1150 C.ar  1 <1>  -0.1500 
 19 C       -4.2380     0.2540     1.9120 C.ar  1 <1>  -0.1500 
 20 C       -5.1720     4.3320    -0.6260 C.3   1 <1>   0.1200 
 21 C       -5.1380     0.1150     0.8680 C.ar  1 <1>  -0.1500 
 22 C       -5.1760     5.2860    -1.8160 C.3   1 <1>  -0.2400 
 23 H        1.1820     2.6830     1.2000 H     1 <1>   0.3700 
 24 H       -2.9600    -1.8300    -0.2150 H     1 <1>   0.0800 
 25 H       -1.8300    -2.9590     0.5260 H     1 <1>   0.0800 
 26 H       -2.0100     3.0380    -0.8780 H     1 <1>   0.0800 
 27 H       -2.0570     4.6990    -0.3510 H     1 <1>   0.0800 
 28 H       -1.6710    -3.7130    -2.9430 H     1 <1>   0.0800 
 29 H       -3.1550    -3.2720    -2.1080 H     1 <1>   0.0800 
 30 H       -2.0120    -4.4020    -1.3620 H     1 <1>   0.0800 
 31 H       -2.6980     1.4640     2.7710 H     1 <1>   0.1500 
 32 H       -5.9120     0.9910    -0.9260 H     1 <1>   0.1500 
 33 H       -4.1810    -0.4950     2.6830 H     1 <1>   0.1500 
 34 H       -4.6370     4.7570     0.2050 H     1 <1>   0.0800 
 35 H       -6.1760     4.0900    -0.3220 H     1 <1>   0.0800 
 36 H       -5.7840    -0.7450     0.8240 H     1 <1>   0.1500 
 37 H       -4.1680     5.5110    -2.1140 H     1 <1>   0.0800 
 38 H       -5.6660     6.2040    -1.5440 H     1 <1>   0.0800 
 39 H       -5.7060     4.8460    -2.6410 H     1 <1>   0.0800 
@<TRIPOS>BOND
  1   1   2  1   
  2   1   3  1   
  3   2   4  2   
  4   2   5  1   
  5   3   6  2   
  6   3   7  1   
  7   4   6  1   
  8   5   8  am  
  9   5  23  1   
 10   7   9  1   
 11   7  24  1   
 12   7  25  1   
 13   8  10  2   
 14   8  11  1   
 15   9  12  1   
 16  11  13  1   
 17  11  26  1   
 18  11  27  1   
 19  12  28  1   
 20  12  29  1   
 21  12  30  1   
 22  13  14  1   
 23  14  15  ar  
 24  14  16  ar  
 25  15  17  1   
 26  15  18  ar  
 27  16  19  ar  
 28  16  31  1   
 29  17  20  1   
 30  18  21  ar  
 31  18  32  1   
 32  19  21  ar  
 33  19  33  1   
 34  20  22  1   
 35  20  34  1   
 36  20  35  1   
 37  21  36  1   
 38  22  37  1   
 39  22  38  1   
 40  22  39  1   
@<TRIPOS>SUBSTRUCTURE
  1 ****  14 GROUP 4 **** **** 0

# MOE 2024.06 (io_trps.svl 2023.06)
