@<TRIPOS>MOLECULE
8-Azepan-1-yl-3-methyl-7-[2-(pyrimidin-2-ylsulfanyl)-ethyl]-3,7-dihydro-purine-2
52 55 1 0 0 
SMALL
USER_CHARGES


@<TRIPOS>ATOM
  1 S        0.7710     0.0500     1.1130 S.3   1 <1>  -0.3380 
  2 C        1.3640     0.9710    -0.2970 C.ar  1 <1>   0.7180 
  3 C       -0.3740    -1.1980     0.3850 C.3   1 <1>   0.0620 
  4 N        2.2100     1.9410    -0.0070 N.ar  1 <1>  -0.6240 
  5 N        0.8980     0.5740    -1.4730 N.ar  1 <1>  -0.6240 
  6 C       -0.7650    -2.1850     1.4840 C.3   1 <1>   0.3480 
  7 C        2.6380     2.6160    -1.0510 C.ar  1 <1>   0.1530 
  8 C        1.3480     1.2750    -2.4910 C.ar  1 <1>   0.1530 
  9 N       -1.0800    -3.5190     0.8880 N.pl3 1 <1>  -0.7670 
 10 C        2.2300     2.3190    -2.3300 C.ar  1 <1>  -0.1570 
 11 C       -0.2710    -4.4090     0.2810 C.cat 1 <1>   1.0690 
 12 C       -2.4080    -3.9500     0.6760 C.2   1 <1>   0.2710 
 13 N       -1.0210    -5.3540    -0.2890 N.pl3 1 <1>  -0.7040 
 14 N        1.0790    -4.4080     0.1800 N.pl3 1 <1>  -0.5960 
 15 C       -3.7150    -3.4640     1.0180 C.2   1 <1>   0.6990 
 16 C       -2.3290    -5.0890    -0.0470 C.2   1 <1>   0.4210 
 17 C        1.7640    -5.1020    -0.9530 C.3   1 <1>   0.1610 
 18 C        1.9740    -3.7220     1.1630 C.3   1 <1>   0.1610 
 19 O       -3.9170    -2.4430     1.6430 O.2   1 <1>  -0.5750 
 20 N       -4.7880    -4.1970     0.5980 N.am  1 <1>  -0.4950 
 21 N       -3.4280    -5.8250    -0.4630 N.am  1 <1>  -0.4410 
 22 C        2.0840    -6.5580    -0.5910 C.3   1 <1>  -0.1670 
 23 C        3.3270    -4.4060     1.3990 C.3   1 <1>  -0.1670 
 24 C       -4.6860    -5.3480    -0.1260 C.2   1 <1>   0.6860 
 25 C       -3.2670    -7.0800    -1.2540 C.3   1 <1>   0.0520 
 26 C        3.3090    -6.7210     0.3190 C.3   1 <1>  -0.1670 
 27 C        3.2440    -5.9240     1.6280 C.3   1 <1>  -0.1670 
 28 O       -5.7010    -5.9150    -0.4550 O.2   1 <1>  -0.5750 
 29 H        0.1690    -1.6790    -0.4080 H     1 <1>   0.0720 
 30 H       -1.2250    -0.6690    -0.0040 H     1 <1>   0.0720 
 31 H       -1.6110    -1.7940     2.0220 H     1 <1>   0.0720 
 32 H        0.0310    -2.2770     2.1980 H     1 <1>   0.0720 
 33 H        3.3290     3.4250    -0.8790 H     1 <1>   0.1430 
 34 H        1.0050     1.0120    -3.4790 H     1 <1>   0.1430 
 35 H        2.5880     2.8810    -3.1720 H     1 <1>   0.1430 
 36 H       -0.6340    -6.1530    -0.7820 H     1 <1>   0.4450 
 37 H        2.6650    -4.5770    -1.2250 H     1 <1>   0.0720 
 38 H        1.1250    -5.0870    -1.8200 H     1 <1>   0.0720 
 39 H        1.4800    -3.6980     2.1180 H     1 <1>   0.0720 
 40 H        2.1490    -2.7080     0.8430 H     1 <1>   0.0720 
 41 H       -5.7250    -3.8710     0.8280 H     1 <1>   0.3640 
 42 H        2.2900    -7.0910    -1.5030 H     1 <1>   0.0720 
 43 H        1.2350    -7.0310    -0.1320 H     1 <1>   0.0720 
 44 H        3.7560    -3.9600     2.2800 H     1 <1>   0.0720 
 45 H        4.0060    -4.1820     0.5950 H     1 <1>   0.0720 
 46 H       -2.5690    -7.7370    -0.7660 H     1 <1>   0.0720 
 47 H       -2.9120    -6.8450    -2.2420 H     1 <1>   0.0720 
 48 H       -4.2070    -7.5990    -1.3450 H     1 <1>   0.0720 
 49 H        4.1950    -6.4360    -0.2230 H     1 <1>   0.0720 
 50 H        3.4150    -7.7650     0.5610 H     1 <1>   0.0720 
 51 H        2.3600    -6.1800     2.1860 H     1 <1>   0.0720 
 52 H        4.0920    -6.2160     2.2240 H     1 <1>   0.0720 
@<TRIPOS>BOND
  1   1   2  1   
  2   1   3  1   
  3   2   4  ar  
  4   2   5  ar  
  5   3   6  1   
  6   3  29  1   
  7   3  30  1   
  8   4   7  ar  
  9   5   8  ar  
 10   6   9  1   
 11   6  31  1   
 12   6  32  1   
 13   7  10  ar  
 14   7  33  1   
 15   8  10  ar  
 16   8  34  1   
 17   9  11  ar  
 18   9  12  1   
 19  10  35  1   
 20  11  13  ar  
 21  11  14  ar  
 22  12  15  1   
 23  12  16  2   
 24  13  16  1   
 25  13  36  1   
 26  14  17  1   
 27  14  18  1   
 28  15  19  2   
 29  15  20  am  
 30  16  21  1   
 31  17  22  1   
 32  17  37  1   
 33  17  38  1   
 34  18  23  1   
 35  18  39  1   
 36  18  40  1   
 37  20  24  am  
 38  20  41  1   
 39  21  24  am  
 40  21  25  1   
 41  22  26  1   
 42  22  42  1   
 43  22  43  1   
 44  23  27  1   
 45  23  44  1   
 46  23  45  1   
 47  24  28  2   
 48  25  46  1   
 49  25  47  1   
 50  25  48  1   
 51  26  27  1   
 52  26  49  1   
 53  26  50  1   
 54  27  51  1   
 55  27  52  1   
@<TRIPOS>SUBSTRUCTURE
  1 ****   9 GROUP 4 **** **** 0

# MOE 2024.06 (io_trps.svl 2023.06)
