@<TRIPOS>MOLECULE
2-(6-Methyl-4-trifluoromethyl-5,6,7,8-tetrahydro-quinazolin-2-ylamino)-ethanol
35 36 1 0 0 
SMALL
USER_CHARGES


@<TRIPOS>ATOM
  1 F       -0.4800     0.5230    -0.9970 F     1 <1>  -0.3400 
  2 C       -1.6040    -0.0250    -0.5400 C.3   1 <1>   1.1640 
  3 F       -2.5560     0.3660    -1.3850 F     1 <1>  -0.3400 
  4 F       -1.8630     0.5940     0.6100 F     1 <1>  -0.3400 
  5 C       -1.5440    -1.5730    -0.3780 C.ar  1 <1>   0.1660 
  6 N       -0.3730    -2.1740    -0.5420 N.ar  1 <1>  -0.6200 
  7 C       -2.6780    -2.3220    -0.0720 C.ar  1 <1>  -0.1440 
  8 C       -0.3460    -3.4830    -0.4080 C.ar  1 <1>   0.7200 
  9 C       -2.5210    -3.6950     0.0310 C.ar  1 <1>   0.1660 
 10 C       -4.0610    -1.6850     0.1330 C.3   1 <1>  -0.0160 
 11 N       -1.3630    -4.2790    -0.1350 N.ar  1 <1>  -0.6200 
 12 N        0.8750    -4.0350    -0.5780 N.pl3 1 <1>  -0.8690 
 13 C       -3.6740    -4.6340     0.3580 C.3   1 <1>  -0.0170 
 14 C       -5.0560    -2.6010     0.8610 C.3   1 <1>  -0.0800 
 15 C        1.1190    -5.4670    -0.8750 C.3   1 <1>   0.2090 
 16 C       -5.0540    -3.9860     0.2110 C.3   1 <1>  -0.1600 
 17 C       -6.4660    -1.9970     0.8420 C.3   1 <1>  -0.2400 
 18 C        1.2900    -6.2510     0.4300 C.3   1 <1>   0.1200 
 19 O        1.4500    -7.6030     0.1490 O.3   1 <1>  -0.6800 
 20 H       -4.4610    -1.4340    -0.8350 H     1 <1>   0.0800 
 21 H       -3.9790    -0.7780     0.7030 H     1 <1>   0.0800 
 22 H        1.5750    -3.3680    -0.8980 H     1 <1>   0.4000 
 23 H       -3.5450    -4.9710     1.3710 H     1 <1>   0.0800 
 24 H       -3.6200    -5.4980    -0.2810 H     1 <1>   0.0800 
 25 H       -4.7440    -2.7000     1.8880 H     1 <1>   0.0800 
 26 H        2.0100    -5.5590    -1.4700 H     1 <1>   0.0800 
 27 H        0.2850    -5.8630    -1.4300 H     1 <1>   0.0800 
 28 H       -5.7930    -4.6180     0.6720 H     1 <1>   0.0800 
 29 H       -5.2960    -3.8970    -0.8350 H     1 <1>   0.0800 
 30 H       -6.8250    -1.8930    -0.1680 H     1 <1>   0.0800 
 31 H       -6.4640    -1.0260     1.3070 H     1 <1>   0.0800 
 32 H       -7.1480    -2.6270     1.3830 H     1 <1>   0.0800 
 33 H        0.4260    -6.1350     1.0610 H     1 <1>   0.0800 
 34 H        2.1690    -5.9140     0.9520 H     1 <1>   0.0800 
 35 H        0.6030    -7.9920    -0.1450 H     1 <1>   0.4000 
@<TRIPOS>BOND
  1   1   2  1   
  2   2   3  1   
  3   2   4  1   
  4   2   5  1   
  5   5   6  ar  
  6   5   7  ar  
  7   6   8  ar  
  8   7   9  ar  
  9   7  10  1   
 10   8  11  ar  
 11   8  12  1   
 12   9  11  ar  
 13   9  13  1   
 14  10  14  1   
 15  10  20  1   
 16  10  21  1   
 17  12  15  1   
 18  12  22  1   
 19  13  16  1   
 20  13  23  1   
 21  13  24  1   
 22  14  16  1   
 23  14  17  1   
 24  14  25  1   
 25  15  18  1   
 26  15  26  1   
 27  15  27  1   
 28  16  28  1   
 29  16  29  1   
 30  17  30  1   
 31  17  31  1   
 32  17  32  1   
 33  18  19  1   
 34  18  33  1   
 35  18  34  1   
 36  19  35  1   
@<TRIPOS>SUBSTRUCTURE
  1 ****   7 GROUP 4 **** **** 0

# MOE 2024.06 (io_trps.svl 2023.06)
