@<TRIPOS>MOLECULE
N-[1-Methyl-2-(2-propionylamino-ethyl)-1H-benzoimidazol-5-yl]-butyramide
47 48 1 0 0 
SMALL
USER_CHARGES


@<TRIPOS>ATOM
  1 O        0.0680     0.0940    -0.9930 O.2   1 <1>  -0.5700 
  2 C        0.3340     1.2270    -0.6780 C.2   1 <1>   0.5690 
  3 N        1.5580     1.6330    -0.2260 N.am  1 <1>  -0.5470 
  4 C       -0.7500     2.2820    -0.7980 C.3   1 <1>  -0.0990 
  5 C        2.7530     0.9250     0.0030 C.ar  1 <1>   0.1170 
  6 C       -1.3130     2.6960     0.5720 C.3   1 <1>  -0.1600 
  7 C        3.9380     1.6330     0.0710 C.ar  1 <1>  -0.1500 
  8 C        2.7840    -0.4700     0.1830 C.ar  1 <1>  -0.1500 
  9 C       -2.4090     3.7560     0.4260 C.3   1 <1>  -0.2400 
 10 C        5.1350     0.9660     0.3080 C.ar  1 <1>   0.2270 
 11 C        3.9630    -1.1400     0.4170 C.ar  1 <1>  -0.1500 
 12 N        6.3950     1.4730     0.4030 N.2   1 <1>  -0.5650 
 13 C        5.1480    -0.4040     0.4800 C.ar  1 <1>  -0.1520 
 14 C        7.1350     0.4440     0.6250 C.2   1 <1>   0.0060 
 15 N        6.4510    -0.7350     0.6900 N.pl3 1 <1>   0.0480 
 16 C        8.6410     0.5270     0.7860 C.3   1 <1>   0.0200 
 17 C        6.9810    -2.1000     0.9000 C.3   1 <1>   0.0160 
 18 C        9.3270     0.0990    -0.5130 C.3   1 <1>   0.1400 
 19 N       10.7130    -0.3500    -0.2420 N.am  1 <1>  -0.7300 
 20 C       11.0310    -1.5980     0.1850 C.2   1 <1>   0.5690 
 21 O       10.1830    -2.4220     0.4330 O.2   1 <1>  -0.5700 
 22 C       12.4940    -1.9540     0.3660 C.3   1 <1>  -0.0990 
 23 C       13.2330    -2.1210    -0.9700 C.3   1 <1>  -0.2400 
 24 H        1.6310     2.6330    -0.0500 H     1 <1>   0.3700 
 25 H       -1.5440     1.8840    -1.4050 H     1 <1>   0.0800 
 26 H       -0.3480     3.1380    -1.3070 H     1 <1>   0.0800 
 27 H       -0.5240     3.0840     1.1920 H     1 <1>   0.0800 
 28 H       -1.7220     1.8270     1.0620 H     1 <1>   0.0800 
 29 H        3.9730     2.6960    -0.0580 H     1 <1>   0.1500 
 30 H        1.8660    -1.0280     0.1390 H     1 <1>   0.1500 
 31 H       -2.0200     4.6420    -0.0440 H     1 <1>   0.0800 
 32 H       -2.7930     4.0240     1.3950 H     1 <1>   0.0800 
 33 H       -3.2230     3.3770    -0.1680 H     1 <1>   0.0800 
 34 H        3.9740    -2.2070     0.5490 H     1 <1>   0.1500 
 35 H        8.9420    -0.1050     1.6000 H     1 <1>   0.0800 
 36 H        8.9200     1.5380     1.0210 H     1 <1>   0.0800 
 37 H        6.1940    -2.7480     1.2370 H     1 <1>   0.0800 
 38 H        7.7590    -2.0800     1.6410 H     1 <1>   0.0800 
 39 H        7.3830    -2.4730    -0.0240 H     1 <1>   0.0800 
 40 H        9.3270     0.9140    -1.2170 H     1 <1>   0.0800 
 41 H        8.7840    -0.7190    -0.9560 H     1 <1>   0.0800 
 42 H       11.4550     0.3250    -0.4340 H     1 <1>   0.3700 
 43 H       12.5540    -2.8740     0.9210 H     1 <1>   0.0800 
 44 H       12.9680    -1.1890     0.9520 H     1 <1>   0.0800 
 45 H       12.7670    -2.8960    -1.5540 H     1 <1>   0.0800 
 46 H       14.2590    -2.3950    -0.7950 H     1 <1>   0.0800 
 47 H       13.2120    -1.2050    -1.5340 H     1 <1>   0.0800 
@<TRIPOS>BOND
  1   1   2  2   
  2   2   3  am  
  3   2   4  1   
  4   3   5  1   
  5   3  24  1   
  6   4   6  1   
  7   4  25  1   
  8   4  26  1   
  9   5   7  ar  
 10   5   8  ar  
 11   6   9  1   
 12   6  27  1   
 13   6  28  1   
 14   7  10  ar  
 15   7  29  1   
 16   8  11  ar  
 17   8  30  1   
 18   9  31  1   
 19   9  32  1   
 20   9  33  1   
 21  10  12  1   
 22  10  13  ar  
 23  11  13  ar  
 24  11  34  1   
 25  12  14  2   
 26  13  15  1   
 27  14  15  1   
 28  14  16  1   
 29  15  17  1   
 30  16  18  1   
 31  16  35  1   
 32  16  36  1   
 33  17  37  1   
 34  17  38  1   
 35  17  39  1   
 36  18  19  1   
 37  18  40  1   
 38  18  41  1   
 39  19  20  am  
 40  19  42  1   
 41  20  21  2   
 42  20  22  1   
 43  22  23  1   
 44  22  43  1   
 45  22  44  1   
 46  23  45  1   
 47  23  46  1   
 48  23  47  1   
@<TRIPOS>SUBSTRUCTURE
  1 ****  13 GROUP 4 **** **** 0

# MOE 2024.06 (io_trps.svl 2023.06)
