@<TRIPOS>MOLECULE
3-[3-(3,4-Dimethoxy-phenyl)-[1,2,4]oxadiazol-5-yl]-N,N-dimethyl-propionamide
41 42 1 0 0 
SMALL
USER_CHARGES


@<TRIPOS>ATOM
  1 O        0.3080    -0.7000     1.0690 O.2   1 <1>  -0.5700 
  2 C        0.6190    -1.6060     0.3320 C.2   1 <1>   0.5690 
  3 N        1.6540    -1.4880    -0.5650 N.am  1 <1>  -0.6600 
  4 C       -0.1690    -2.9040     0.4230 C.3   1 <1>  -0.0990 
  5 C        2.1440    -2.5760    -1.4580 C.3   1 <1>   0.0600 
  6 C        2.3930    -0.2030    -0.7240 C.3   1 <1>   0.0600 
  7 C       -1.4330    -2.7910     1.2900 C.3   1 <1>   0.0200 
  8 C       -2.1890    -4.1040     1.3230 C.2   1 <1>   0.2980 
  9 O       -1.6750    -5.1090     1.9820 O.3   1 <1>  -0.0190 
 10 N       -3.2960    -4.3350     0.7530 N.2   1 <1>  -0.5650 
 11 N       -2.5330    -6.0660     1.8150 N.2   1 <1>  -0.4100 
 12 C       -3.4950    -5.6130     1.0910 C.2   1 <1>   0.4620 
 13 C       -4.6660    -6.3650     0.6710 C.ar  1 <1>   0.0540 
 14 C       -5.6580    -5.7980    -0.1280 C.ar  1 <1>  -0.1500 
 15 C       -4.8500    -7.6940     1.0540 C.ar  1 <1>  -0.1500 
 16 C       -6.7800    -6.5010    -0.5300 C.ar  1 <1>   0.0820 
 17 C       -5.9570    -8.4210     0.6550 C.ar  1 <1>  -0.1500 
 18 O       -7.6590    -5.7990    -1.2980 O.3   1 <1>  -0.3630 
 19 C       -6.9350    -7.8430    -0.1490 C.ar  1 <1>   0.0820 
 20 C       -9.0490    -5.9780    -1.1390 C.3   1 <1>   0.0400 
 21 O       -8.0160    -8.5550    -0.5800 O.3   1 <1>  -0.3630 
 22 C       -8.1260    -9.9470    -0.3830 C.3   1 <1>   0.0400 
 23 H        0.4740    -3.6610     0.8310 H     1 <1>   0.0800 
 24 H       -0.4620    -3.1980    -0.5680 H     1 <1>   0.0800 
 25 H        1.8110    -3.5420    -1.1230 H     1 <1>   0.0800 
 26 H        3.2210    -2.5800    -1.4670 H     1 <1>   0.0800 
 27 H        1.7880    -2.4090    -2.4590 H     1 <1>   0.0800 
 28 H        1.9490     0.5760    -0.1280 H     1 <1>   0.0800 
 29 H        2.3720     0.1050    -1.7550 H     1 <1>   0.0800 
 30 H        3.4150    -0.3310    -0.4120 H     1 <1>   0.0800 
 31 H       -2.0770    -2.0270     0.8900 H     1 <1>   0.0800 
 32 H       -1.1710    -2.5130     2.2950 H     1 <1>   0.0800 
 33 H       -5.5610    -4.7760    -0.4460 H     1 <1>   0.1500 
 34 H       -4.1100    -8.1680     1.6750 H     1 <1>   0.1500 
 35 H       -6.0340    -9.4390     0.9840 H     1 <1>   0.1500 
 36 H       -9.5440    -5.0960    -1.5030 H     1 <1>   0.0800 
 37 H       -9.2700    -6.1230    -0.0960 H     1 <1>   0.0800 
 38 H       -9.3570    -6.8310    -1.7170 H     1 <1>   0.0800 
 39 H       -9.0190   -10.2840    -0.8770 H     1 <1>   0.0800 
 40 H       -8.1950   -10.1470     0.6710 H     1 <1>   0.0800 
 41 H       -7.2660   -10.4300    -0.8140 H     1 <1>   0.0800 
@<TRIPOS>BOND
  1   1   2  2   
  2   2   3  am  
  3   2   4  1   
  4   3   5  1   
  5   3   6  1   
  6   4   7  1   
  7   4  23  1   
  8   4  24  1   
  9   5  25  1   
 10   5  26  1   
 11   5  27  1   
 12   6  28  1   
 13   6  29  1   
 14   6  30  1   
 15   7   8  1   
 16   7  31  1   
 17   7  32  1   
 18   8   9  1   
 19   8  10  2   
 20   9  11  1   
 21  10  12  1   
 22  11  12  2   
 23  12  13  1   
 24  13  14  ar  
 25  13  15  ar  
 26  14  16  ar  
 27  14  33  1   
 28  15  17  ar  
 29  15  34  1   
 30  16  18  1   
 31  16  19  ar  
 32  17  19  ar  
 33  17  35  1   
 34  18  20  1   
 35  19  21  1   
 36  20  36  1   
 37  20  37  1   
 38  20  38  1   
 39  21  22  1   
 40  22  39  1   
 41  22  40  1   
 42  22  41  1   
@<TRIPOS>SUBSTRUCTURE
  1 ****  10 GROUP 4 **** **** 0

# MOE 2024.06 (io_trps.svl 2023.06)
