@<TRIPOS>MOLECULE
1-(2,5-Dimethoxy-benzenesulfonyl)-piperidine-4-carboxylic acid (2,6-difluoro-phe
52 54 1 0 0 
SMALL
USER_CHARGES


@<TRIPOS>ATOM
  1 S       -0.2010    -0.1630    -1.5130 S.o2  1 <1>   1.4470 
  2 O        0.0650    -1.3750    -2.2610 O.2   1 <1>  -0.6500 
  3 O       -0.6410     0.9960    -2.2620 O.2   1 <1>  -0.6500 
  4 N        1.2640     0.2640    -0.7700 N.am  1 <1>  -0.8490 
  5 C       -1.3110    -0.5940    -0.1440 C.ar  1 <1>  -0.0090 
  6 C        1.1580     1.5280    -0.0320 C.3   1 <1>   0.1960 
  7 C        2.3490     0.3000    -1.7540 C.3   1 <1>   0.1960 
  8 C       -2.1170     0.3470     0.4950 C.ar  1 <1>   0.0820 
  9 C       -1.3630    -1.9060     0.3160 C.ar  1 <1>  -0.1500 
 10 C        2.4650     1.8340     0.7040 C.3   1 <1>  -0.1600 
 11 C        3.6920     0.5700    -1.0710 C.3   1 <1>  -0.1600 
 12 O       -2.0870     1.6440     0.1260 O.3   1 <1>  -0.3620 
 13 C       -2.9470    -0.0120     1.5470 C.ar  1 <1>  -0.1500 
 14 C       -2.1960    -2.2790     1.3660 C.ar  1 <1>   0.0820 
 15 C        3.6540     1.8790    -0.2680 C.3   1 <1>  -0.0190 
 16 C       -3.1730     2.0980    -0.6520 C.3   1 <1>   0.0400 
 17 C       -2.9880    -1.3230     1.9780 C.ar  1 <1>  -0.1500 
 18 O       -2.2890    -3.5460     1.8440 O.3   1 <1>  -0.3630 
 19 C        4.9750     2.1300     0.4570 C.2   1 <1>   0.5690 
 20 C       -1.5210    -4.5930     1.2920 C.3   1 <1>   0.0400 
 21 O        5.3060     1.4030     1.3610 O.2   1 <1>  -0.5700 
 22 N        5.7580     3.1630     0.0270 N.am  1 <1>  -0.5470 
 23 C        6.9940     3.5770     0.5720 C.ar  1 <1>   0.1170 
 24 C        7.1760     3.9200     1.9130 C.ar  1 <1>   0.1900 
 25 C        8.1310     3.6800    -0.2270 C.ar  1 <1>   0.1900 
 26 F        6.1500     3.9170     2.7270 F     1 <1>  -0.1900 
 27 C        8.4000     4.3040     2.4350 C.ar  1 <1>  -0.1500 
 28 F        8.0320     3.4070    -1.5050 F     1 <1>  -0.1900 
 29 C        9.3700     4.0620     0.2580 C.ar  1 <1>  -0.1500 
 30 C        9.5060     4.3720     1.6020 C.ar  1 <1>  -0.1500 
 31 H        0.3730     1.4570     0.7000 H     1 <1>   0.0800 
 32 H        0.9170     2.3330    -0.7080 H     1 <1>   0.0800 
 33 H        2.1470     1.0590    -2.4920 H     1 <1>   0.0800 
 34 H        2.4120    -0.6500    -2.2610 H     1 <1>   0.0800 
 35 H       -0.7360    -2.6330    -0.1680 H     1 <1>   0.1500 
 36 H        2.6280     1.0740     1.4490 H     1 <1>   0.0800 
 37 H        2.3750     2.7760     1.2140 H     1 <1>   0.0800 
 38 H        4.4660     0.6200    -1.8160 H     1 <1>   0.0800 
 39 H        3.9200    -0.2540    -0.4160 H     1 <1>   0.0800 
 40 H       -3.5510     0.7350     2.0300 H     1 <1>   0.1500 
 41 H        3.4860     2.6890    -0.9550 H     1 <1>   0.0800 
 42 H       -2.9950     3.1270    -0.9090 H     1 <1>   0.0800 
 43 H       -4.0800     2.0110    -0.0800 H     1 <1>   0.0800 
 44 H       -3.2330     1.5050    -1.5470 H     1 <1>   0.0800 
 45 H       -3.6290    -1.6150     2.7910 H     1 <1>   0.1500 
 46 H       -1.7590    -5.4970     1.8240 H     1 <1>   0.0800 
 47 H       -0.4770    -4.3630     1.4120 H     1 <1>   0.0800 
 48 H       -1.7760    -4.7040     0.2530 H     1 <1>   0.0800 
 49 H        5.5200     3.5690    -0.8760 H     1 <1>   0.3700 
 50 H        8.4800     4.5480     3.4800 H     1 <1>   0.1500 
 51 H       10.2140     4.1150    -0.4080 H     1 <1>   0.1500 
 52 H       10.4640     4.6680     1.9970 H     1 <1>   0.1500 
@<TRIPOS>BOND
  1   1   2  2   
  2   1   3  2   
  3   1   4  am  
  4   1   5  1   
  5   4   6  1   
  6   4   7  1   
  7   5   8  ar  
  8   5   9  ar  
  9   6  10  1   
 10   6  31  1   
 11   6  32  1   
 12   7  11  1   
 13   7  33  1   
 14   7  34  1   
 15   8  12  1   
 16   8  13  ar  
 17   9  14  ar  
 18   9  35  1   
 19  10  15  1   
 20  10  36  1   
 21  10  37  1   
 22  11  15  1   
 23  11  38  1   
 24  11  39  1   
 25  12  16  1   
 26  13  17  ar  
 27  13  40  1   
 28  14  17  ar  
 29  14  18  1   
 30  15  19  1   
 31  15  41  1   
 32  16  42  1   
 33  16  43  1   
 34  16  44  1   
 35  17  45  1   
 36  18  20  1   
 37  19  21  2   
 38  19  22  am  
 39  20  46  1   
 40  20  47  1   
 41  20  48  1   
 42  22  23  1   
 43  22  49  1   
 44  23  24  ar  
 45  23  25  ar  
 46  24  26  1   
 47  24  27  ar  
 48  25  28  1   
 49  25  29  ar  
 50  27  30  ar  
 51  27  50  1   
 52  29  30  ar  
 53  29  51  1   
 54  30  52  1   
@<TRIPOS>SUBSTRUCTURE
  1 ****  10 GROUP 4 **** **** 0

# MOE 2024.06 (io_trps.svl 2023.06)
