@<TRIPOS>MOLECULE
2-Adamantan-1-yl-N-(2,4-dihydroxy-6-methyl-pyrimidin-5-yl)-acetamide
46 49 1 0 0 
SMALL
USER_CHARGES


@<TRIPOS>ATOM
  1 O        0.4770     2.3000    -1.9040 O.2   1 <1>  -0.5700 
  2 C        0.7190     2.1710    -0.7290 C.2   1 <1>   0.5690 
  3 N       -0.2360     2.2840     0.2350 N.am  1 <1>  -0.5390 
  4 C        2.1350     1.8300    -0.3040 C.3   1 <1>  -0.0990 
  5 C       -1.6360     2.4880     0.0730 C.2   1 <1>   0.1230 
  6 C        3.0250     3.0500     0.0270 C.3   1 <1>   0.0000 
  7 C       -2.5160     1.5750     0.7700 C.2   1 <1>   0.6160 
  8 C       -2.1980     3.4830    -0.6760 C.2   1 <1>  -0.0290 
  9 C        4.4350     2.5450     0.4170 C.3   1 <1>  -0.1600 
 10 C        2.4590     3.8710     1.2120 C.3   1 <1>  -0.1600 
 11 C        3.1670     3.9870    -1.1960 C.3   1 <1>  -0.1600 
 12 O       -2.1090     0.7170     1.5320 O.2   1 <1>  -0.5700 
 13 N       -3.8630     1.6870     0.5930 N.am  1 <1>  -0.4900 
 14 N       -3.5850     3.5370    -0.7950 N.am  1 <1>  -0.5390 
 15 C       -1.4580     4.5890    -1.4130 C.3   1 <1>  -0.1020 
 16 C        5.3710     3.7220     0.7490 C.3   1 <1>  -0.0800 
 17 C        3.3850     5.0550     1.5470 C.3   1 <1>  -0.0800 
 18 C        4.0950     5.1730    -0.8720 C.3   1 <1>  -0.0800 
 19 C       -4.4170     2.6510    -0.1800 C.2   1 <1>   0.6900 
 20 C        4.7790     4.5210     1.9240 C.3   1 <1>  -0.1600 
 21 C        5.4850     4.6380    -0.4830 C.3   1 <1>  -0.1600 
 22 C        3.5080     5.9660     0.3110 C.3   1 <1>  -0.1600 
 23 O       -5.6170     2.7270    -0.3130 O.2   1 <1>  -0.5700 
 24 H        0.0160     1.8990     1.1490 H     1 <1>   0.3700 
 25 H        2.5870     1.2750    -1.1060 H     1 <1>   0.0800 
 26 H        2.0910     1.1750     0.5460 H     1 <1>   0.0800 
 27 H        4.8570     1.9760    -0.3930 H     1 <1>   0.0800 
 28 H        4.3690     1.8940     1.2720 H     1 <1>   0.0800 
 29 H        2.3550     3.2440     2.0790 H     1 <1>   0.0800 
 30 H        1.4870     4.2600     0.9660 H     1 <1>   0.0800 
 31 H        3.5650     3.4390    -2.0330 H     1 <1>   0.0800 
 32 H        2.2050     4.3680    -1.4900 H     1 <1>   0.0800 
 33 H       -4.4770     1.0360     1.0670 H     1 <1>   0.3700 
 34 H       -4.0500     4.2390    -1.3740 H     1 <1>   0.3700 
 35 H       -1.9250     5.5390    -1.2270 H     1 <1>   0.0800 
 36 H       -1.4690     4.3930    -2.4700 H     1 <1>   0.0800 
 37 H       -0.4350     4.6570    -1.0910 H     1 <1>   0.0800 
 38 H        6.3450     3.3490     1.0170 H     1 <1>   0.0800 
 39 H        2.9770     5.6160     2.3710 H     1 <1>   0.0800 
 40 H        4.1800     5.8130    -1.7330 H     1 <1>   0.0800 
 41 H        4.7060     3.8910     2.7940 H     1 <1>   0.0800 
 42 H        5.4300     5.3420     2.1700 H     1 <1>   0.0800 
 43 H        5.9080     4.0900    -1.3070 H     1 <1>   0.0800 
 44 H        6.1440     5.4610    -0.2650 H     1 <1>   0.0800 
 45 H        4.1440     6.8040     0.5380 H     1 <1>   0.0800 
 46 H        2.5400     6.3530     0.0450 H     1 <1>   0.0800 
@<TRIPOS>BOND
  1   1   2  2   
  2   2   3  am  
  3   2   4  1   
  4   3   5  1   
  5   3  24  1   
  6   4   6  1   
  7   4  25  1   
  8   4  26  1   
  9   5   7  1   
 10   5   8  2   
 11   6   9  1   
 12   6  10  1   
 13   6  11  1   
 14   7  12  2   
 15   7  13  am  
 16   8  14  1   
 17   8  15  1   
 18   9  16  1   
 19   9  27  1   
 20   9  28  1   
 21  10  17  1   
 22  10  29  1   
 23  10  30  1   
 24  11  18  1   
 25  11  31  1   
 26  11  32  1   
 27  13  19  am  
 28  13  33  1   
 29  14  19  am  
 30  14  34  1   
 31  15  35  1   
 32  15  36  1   
 33  15  37  1   
 34  16  20  1   
 35  16  21  1   
 36  16  38  1   
 37  17  20  1   
 38  17  22  1   
 39  17  39  1   
 40  18  21  1   
 41  18  22  1   
 42  18  40  1   
 43  19  23  2   
 44  20  41  1   
 45  20  42  1   
 46  21  43  1   
 47  21  44  1   
 48  22  45  1   
 49  22  46  1   
@<TRIPOS>SUBSTRUCTURE
  1 ****   2 GROUP 4 **** **** 0

# MOE 2024.06 (io_trps.svl 2023.06)
