@<TRIPOS>MOLECULE
8-(4-Ethoxy-phenyl)-3-ethyl-1,6-dimethyl-5,6,7,8-tetrahydro-1H-1,3,4b,8,9-pentaa
54 57 1 0 0 
SMALL
USER_CHARGES


@<TRIPOS>ATOM
  1 O        1.1290    -0.4810    -0.3700 O.2   1 <1>  -0.5740 
  2 C        2.0190     0.3390    -0.2760 C.2   1 <1>   0.6870 
  3 N        1.7180     1.6960    -0.1900 N.am  1 <1>  -0.4250 
  4 N        3.3430    -0.0850    -0.2610 N.am  1 <1>  -0.4410 
  5 C        2.7220     2.6520    -0.1240 C.2   1 <1>   0.7000 
  6 C        0.2900     2.1290    -0.1470 C.3   1 <1>   0.1330 
  7 C        4.3330     0.8760    -0.2020 C.2   1 <1>   0.4210 
  8 C        3.6800    -1.5380    -0.3360 C.3   1 <1>   0.0530 
  9 O        2.4610     3.8420    -0.0600 O.2   1 <1>  -0.5740 
 10 C        4.0800     2.2010    -0.1350 C.2   1 <1>   0.2710 
 11 C       -0.1880     2.1890     1.3030 C.3   1 <1>  -0.2460 
 12 N        5.6850     0.6910    -0.2000 N.pl3 1 <1>  -0.7030 
 13 N        5.3310     2.8340    -0.0910 N.pl3 1 <1>  -0.7670 
 14 C        6.2600     1.8890    -0.1270 C.cat 1 <1>   1.0690 
 15 C        5.6050     4.2850    -0.0110 C.3   1 <1>   0.3490 
 16 N        7.5790     2.1510    -0.0880 N.pl3 1 <1>  -0.5790 
 17 C        7.0370     4.5570    -0.5090 C.3   1 <1>  -0.0870 
 18 C        8.5550     1.1500    -0.1390 C.ar  1 <1>   0.3050 
 19 C        8.0450     3.5560     0.0890 C.3   1 <1>   0.1610 
 20 C        7.4610     6.0000    -0.1940 C.3   1 <1>  -0.2460 
 21 C        9.2160     0.7510     1.0160 C.ar  1 <1>  -0.1570 
 22 C        8.8590     0.5290    -1.3430 C.ar  1 <1>  -0.1570 
 23 C       10.1560    -0.2630     0.9750 C.ar  1 <1>  -0.1570 
 24 C        9.7970    -0.4860    -1.3880 C.ar  1 <1>  -0.1570 
 25 C       10.4480    -0.8910    -0.2340 C.ar  1 <1>   0.0750 
 26 O       11.3470    -1.8960    -0.3680 O.3   1 <1>  -0.3680 
 27 C       12.1260    -2.3320     0.7230 C.3   1 <1>   0.1130 
 28 C       13.0560    -3.4340     0.2290 C.3   1 <1>  -0.2460 
 29 H       -0.3230     1.4390    -0.7030 H     1 <1>   0.0730 
 30 H        0.1820     3.0970    -0.6060 H     1 <1>   0.0730 
 31 H        2.8630    -2.1350     0.0340 H     1 <1>   0.0730 
 32 H        4.5470    -1.7560     0.2620 H     1 <1>   0.0730 
 33 H        3.8700    -1.8130    -1.3590 H     1 <1>   0.0730 
 34 H       -0.1170     1.2190     1.7640 H     1 <1>   0.0730 
 35 H       -1.2190     2.4960     1.3270 H     1 <1>   0.0730 
 36 H        0.3890     2.9020     1.8650 H     1 <1>   0.0730 
 37 H        6.1960    -0.1880    -0.2410 H     1 <1>   0.4450 
 38 H        5.4970     4.6070     1.0110 H     1 <1>   0.0730 
 39 H        4.8970     4.8300    -0.6150 H     1 <1>   0.0730 
 40 H        7.0470     4.4460    -1.5800 H     1 <1>   0.0730 
 41 H        9.0010     3.6810    -0.3920 H     1 <1>   0.0730 
 42 H        8.1730     3.7490     1.1410 H     1 <1>   0.0730 
 43 H        7.4760     6.1770     0.8680 H     1 <1>   0.0730 
 44 H        6.7790     6.7000    -0.6460 H     1 <1>   0.0730 
 45 H        8.4450     6.1960    -0.5850 H     1 <1>   0.0730 
 46 H        8.9960     1.2310     1.9520 H     1 <1>   0.1430 
 47 H        8.3710     0.8390    -2.2510 H     1 <1>   0.1430 
 48 H       10.6520    -0.5530     1.8840 H     1 <1>   0.1430 
 49 H       10.0410    -0.9720    -2.3170 H     1 <1>   0.1430 
 50 H       11.4660    -2.7070     1.4870 H     1 <1>   0.0730 
 51 H       12.6930    -1.4950     1.0950 H     1 <1>   0.0730 
 52 H       12.4820    -4.2590    -0.1530 H     1 <1>   0.0730 
 53 H       13.6650    -3.7870     1.0410 H     1 <1>   0.0730 
 54 H       13.7010    -3.0550    -0.5440 H     1 <1>   0.0730 
@<TRIPOS>BOND
  1   1   2  2   
  2   2   3  am  
  3   2   4  am  
  4   3   5  am  
  5   3   6  1   
  6   4   7  1   
  7   4   8  1   
  8   5   9  2   
  9   5  10  1   
 10   6  11  1   
 11   6  29  1   
 12   6  30  1   
 13   7  10  2   
 14   7  12  1   
 15   8  31  1   
 16   8  32  1   
 17   8  33  1   
 18  10  13  1   
 19  11  34  1   
 20  11  35  1   
 21  11  36  1   
 22  12  14  ar  
 23  12  37  1   
 24  13  14  ar  
 25  13  15  1   
 26  14  16  ar  
 27  15  17  1   
 28  15  38  1   
 29  15  39  1   
 30  16  18  1   
 31  16  19  1   
 32  17  19  1   
 33  17  20  1   
 34  17  40  1   
 35  18  21  ar  
 36  18  22  ar  
 37  19  41  1   
 38  19  42  1   
 39  20  43  1   
 40  20  44  1   
 41  20  45  1   
 42  21  23  ar  
 43  21  46  1   
 44  22  24  ar  
 45  22  47  1   
 46  23  25  ar  
 47  23  48  1   
 48  24  25  ar  
 49  24  49  1   
 50  25  26  1   
 51  26  27  1   
 52  27  28  1   
 53  27  50  1   
 54  27  51  1   
 55  28  52  1   
 56  28  53  1   
 57  28  54  1   
@<TRIPOS>SUBSTRUCTURE
  1 ****  12 GROUP 4 **** **** 0

# MOE 2024.06 (io_trps.svl 2023.06)
