@<TRIPOS>MOLECULE
3-(2-Hydroxy-phenyl)-4,5-dihydro-isoxazole-5-carboxylic acid isopropylamide
34 35 1 0 0 
SMALL
USER_CHARGES


@<TRIPOS>ATOM
  1 O       -0.2210    -0.4620     2.1860 O.2   1 <1>  -0.5700 
  2 C       -0.5720    -1.4540     1.5910 C.2   1 <1>   0.5690 
  3 N       -0.0140    -1.8210     0.4060 N.am  1 <1>  -0.7300 
  4 C       -1.7000    -2.3050     2.1770 C.3   1 <1>   0.2610 
  5 C        1.0490    -1.1180    -0.3120 C.3   1 <1>   0.2200 
  6 O       -1.6120    -3.6320     1.6920 O.3   1 <1>  -0.2170 
  7 C       -3.0750    -1.8640     1.6960 C.3   1 <1>  -0.0990 
  8 C        0.5100    -0.7110    -1.6780 C.3   1 <1>  -0.2400 
  9 C        2.2390    -2.0610    -0.4410 C.3   1 <1>  -0.2400 
 10 N       -2.5750    -3.9320     0.8490 N.2   1 <1>  -0.5130 
 11 C       -3.4430    -3.0050     0.7800 C.2   1 <1>   0.3030 
 12 C       -4.6230    -3.0100    -0.0690 C.ar  1 <1>   0.0860 
 13 C       -5.6830    -2.0830    -0.0090 C.ar  1 <1>   0.0820 
 14 C       -4.7390    -4.0110    -1.0410 C.ar  1 <1>  -0.1500 
 15 O       -5.7050    -1.0840     0.8900 O.3   1 <1>  -0.5320 
 16 C       -6.7660    -2.1600    -0.8720 C.ar  1 <1>  -0.1500 
 17 C       -5.8170    -4.0910    -1.9010 C.ar  1 <1>  -0.1500 
 18 C       -6.8360    -3.1610    -1.8200 C.ar  1 <1>  -0.1500 
 19 H       -0.3420    -2.6970    -0.0140 H     1 <1>   0.3700 
 20 H       -1.6350    -2.3300     3.2480 H     1 <1>   0.0800 
 21 H        1.3420    -0.2380     0.2400 H     1 <1>   0.0800 
 22 H       -3.0320    -0.9250     1.1750 H     1 <1>   0.0800 
 23 H       -3.7560    -1.8010     2.5240 H     1 <1>   0.0800 
 24 H        0.2080    -1.5750    -2.2420 H     1 <1>   0.0800 
 25 H        1.2700    -0.1880    -2.2300 H     1 <1>   0.0800 
 26 H       -0.3320    -0.0530    -1.5570 H     1 <1>   0.0800 
 27 H        1.9670    -2.9470    -0.9860 H     1 <1>   0.0800 
 28 H        2.5910    -2.3390     0.5370 H     1 <1>   0.0800 
 29 H        3.0410    -1.5690    -0.9600 H     1 <1>   0.0800 
 30 H       -3.9600    -4.7500    -1.1270 H     1 <1>   0.1500 
 31 H       -6.5000    -0.5230     0.8310 H     1 <1>   0.4500 
 32 H       -7.5640    -1.4420    -0.8130 H     1 <1>   0.1500 
 33 H       -5.8640    -4.8780    -2.6350 H     1 <1>   0.1500 
 34 H       -7.6770    -3.2220    -2.4900 H     1 <1>   0.1500 
@<TRIPOS>BOND
  1   1   2  2   
  2   2   3  am  
  3   2   4  1   
  4   3   5  1   
  5   3  19  1   
  6   4   6  1   
  7   4   7  1   
  8   4  20  1   
  9   5   8  1   
 10   5   9  1   
 11   5  21  1   
 12   6  10  1   
 13   7  11  1   
 14   7  22  1   
 15   7  23  1   
 16   8  24  1   
 17   8  25  1   
 18   8  26  1   
 19   9  27  1   
 20   9  28  1   
 21   9  29  1   
 22  10  11  2   
 23  11  12  1   
 24  12  13  ar  
 25  12  14  ar  
 26  13  15  1   
 27  13  16  ar  
 28  14  17  ar  
 29  14  30  1   
 30  15  31  1   
 31  16  18  ar  
 32  16  32  1   
 33  17  18  ar  
 34  17  33  1   
 35  18  34  1   
@<TRIPOS>SUBSTRUCTURE
  1 ****  11 GROUP 4 **** **** 0

# MOE 2024.06 (io_trps.svl 2023.06)
