@<TRIPOS>MOLECULE
(1-Methyl-piperidin-2-yl)-acetic acid
26 26 1 0 0 
SMALL
USER_CHARGES


@<TRIPOS>ATOM
  1 O       -1.0610    -0.1310    -0.1660 O.co2 1 <1>  -0.9000 
  2 C       -1.1730     0.8720     0.5350 C.2   1 <1>   0.9060 
  3 O       -1.3790     0.8370     1.7470 O.co2 1 <1>  -0.9000 
  4 C       -1.3040     2.1890    -0.1470 C.3   1 <1>  -0.2660 
  5 C       -2.6120     2.8190     0.3110 C.3   1 <1>   0.4230 
  6 N       -3.8070     2.2580    -0.4110 N.4   1 <1>  -0.9590 
  7 C       -2.5490     4.3350     0.0640 C.3   1 <1>  -0.1600 
  8 C       -5.0700     2.8880     0.0550 C.3   1 <1>   0.3430 
  9 C       -3.9280     0.7690    -0.2560 C.3   1 <1>   0.2630 
 10 C       -3.8430     5.0520     0.4680 C.3   1 <1>  -0.1600 
 11 C       -5.0440     4.3920    -0.2140 C.3   1 <1>  -0.1600 
 12 H       -1.2600     2.0710    -1.2120 H     1 <1>   0.0800 
 13 H       -0.4670     2.7770     0.1750 H     1 <1>   0.0800 
 14 H       -2.7230     2.6470     1.3710 H     1 <1>   0.0800 
 15 H       -3.6680     2.4660    -1.4040 H     1 <1>   0.4500 
 16 H       -2.3380     4.5200    -0.9750 H     1 <1>   0.0800 
 17 H       -1.7360     4.7470     0.6360 H     1 <1>   0.0800 
 18 H       -5.1860     2.7140     1.1130 H     1 <1>   0.0800 
 19 H       -5.9100     2.4470    -0.4550 H     1 <1>   0.0800 
 20 H       -3.8040     0.4890     0.7790 H     1 <1>   0.0800 
 21 H       -3.1640     0.2690    -0.8290 H     1 <1>   0.0800 
 22 H       -4.8870     0.4240    -0.6040 H     1 <1>   0.0800 
 23 H       -3.7870     6.0920     0.1940 H     1 <1>   0.0800 
 24 H       -3.9600     4.9970     1.5380 H     1 <1>   0.0800 
 25 H       -5.9520     4.8320     0.1600 H     1 <1>   0.0800 
 26 H       -5.0110     4.5660    -1.2750 H     1 <1>   0.0800 
@<TRIPOS>BOND
  1   1   2  ar  
  2   2   3  ar  
  3   2   4  1   
  4   4   5  1   
  5   4  12  1   
  6   4  13  1   
  7   5   6  1   
  8   5   7  1   
  9   5  14  1   
 10   6   8  1   
 11   6   9  1   
 12   6  15  1   
 13   7  10  1   
 14   7  16  1   
 15   7  17  1   
 16   8  11  1   
 17   8  18  1   
 18   8  19  1   
 19   9  20  1   
 20   9  21  1   
 21   9  22  1   
 22  10  11  1   
 23  10  23  1   
 24  10  24  1   
 25  11  25  1   
 26  11  26  1   
@<TRIPOS>SUBSTRUCTURE
  1 ****   5 GROUP 4 **** **** 0

# MOE 2024.06 (io_trps.svl 2023.06)
