@<TRIPOS>MOLECULE
3-[3-(3,4-Dimethoxy-phenyl)-[1,2,4]oxadiazol-5-yl]-N-propyl-propionamide
44 45 1 0 0 
SMALL
USER_CHARGES


@<TRIPOS>ATOM
  1 O        0.0700    -0.3570    -0.8270 O.2   1 <1>  -0.5700 
  2 C        0.5440    -1.3540    -0.3460 C.2   1 <1>   0.5690 
  3 N        1.7600    -1.2950     0.2420 N.am  1 <1>  -0.7300 
  4 C       -0.2180    -2.6660    -0.4110 C.3   1 <1>  -0.0990 
  5 C        2.5400    -2.3680     0.8950 C.3   1 <1>   0.1400 
  6 C       -1.5350    -2.5610    -1.1970 C.3   1 <1>   0.0200 
  7 C        3.7000    -2.7650    -0.0170 C.3   1 <1>  -0.1600 
  8 C       -2.2400    -3.9010    -1.2530 C.2   1 <1>   0.2980 
  9 C        4.5350    -3.8910     0.6030 C.3   1 <1>  -0.2400 
 10 O       -1.7270    -4.8520    -1.9880 O.3   1 <1>  -0.0190 
 11 N       -3.3050    -4.2030    -0.6360 N.2   1 <1>  -0.5650 
 12 N       -2.5370    -5.8500    -1.8220 N.2   1 <1>  -0.4100 
 13 C       -3.4740    -5.4710    -1.0260 C.2   1 <1>   0.4620 
 14 C       -4.5910    -6.2890    -0.5830 C.ar  1 <1>   0.0540 
 15 C       -5.5630    -5.7990     0.2890 C.ar  1 <1>  -0.1500 
 16 C       -4.7410    -7.6070    -1.0150 C.ar  1 <1>  -0.1500 
 17 C       -6.6330    -6.5650     0.7150 C.ar  1 <1>   0.0820 
 18 C       -5.7960    -8.3960    -0.5950 C.ar  1 <1>  -0.1500 
 19 O       -7.4990    -5.9340     1.5560 O.3   1 <1>  -0.3630 
 20 C       -6.7540    -7.8950     0.2820 C.ar  1 <1>   0.0820 
 21 C       -8.8880    -6.1650     1.4580 C.3   1 <1>   0.0400 
 22 O       -7.7820    -8.6690     0.7340 O.3   1 <1>  -0.3630 
 23 C       -7.8450   -10.0560     0.4810 C.3   1 <1>   0.0400 
 24 H        2.2090    -0.3760     0.2110 H     1 <1>   0.3700 
 25 H       -0.4350    -2.9850     0.5910 H     1 <1>   0.0800 
 26 H        0.4130    -3.4010    -0.8750 H     1 <1>   0.0800 
 27 H        1.9150    -3.2230     1.0890 H     1 <1>   0.0800 
 28 H        2.9170    -2.0060     1.8370 H     1 <1>   0.0800 
 29 H       -1.3420    -2.2240    -2.2000 H     1 <1>   0.0800 
 30 H       -2.1820    -1.8440    -0.7230 H     1 <1>   0.0800 
 31 H        4.3320    -1.9100    -0.1850 H     1 <1>   0.0800 
 32 H        3.3130    -3.0960    -0.9650 H     1 <1>   0.0800 
 33 H        4.9500    -3.5800     1.5450 H     1 <1>   0.0800 
 34 H        5.3450    -4.1520    -0.0560 H     1 <1>   0.0800 
 35 H        3.9300    -4.7670     0.7610 H     1 <1>   0.0800 
 36 H       -5.4910    -4.7880     0.6480 H     1 <1>   0.1500 
 37 H       -4.0160    -8.0220    -1.6930 H     1 <1>   0.1500 
 38 H       -5.8490    -9.4020    -0.9640 H     1 <1>   0.1500 
 39 H       -9.3980    -5.3210     1.8850 H     1 <1>   0.0800 
 40 H       -9.1310    -7.0540     2.0120 H     1 <1>   0.0800 
 41 H       -9.1550    -6.2750     0.4220 H     1 <1>   0.0800 
 42 H       -8.6970   -10.4510     1.0040 H     1 <1>   0.0800 
 43 H       -6.9460   -10.5190     0.8480 H     1 <1>   0.0800 
 44 H       -7.9600   -10.2140    -0.5760 H     1 <1>   0.0800 
@<TRIPOS>BOND
  1   1   2  2   
  2   2   3  am  
  3   2   4  1   
  4   3   5  1   
  5   3  24  1   
  6   4   6  1   
  7   4  25  1   
  8   4  26  1   
  9   5   7  1   
 10   5  27  1   
 11   5  28  1   
 12   6   8  1   
 13   6  29  1   
 14   6  30  1   
 15   7   9  1   
 16   7  31  1   
 17   7  32  1   
 18   8  10  1   
 19   8  11  2   
 20   9  33  1   
 21   9  34  1   
 22   9  35  1   
 23  10  12  1   
 24  11  13  1   
 25  12  13  2   
 26  13  14  1   
 27  14  15  ar  
 28  14  16  ar  
 29  15  17  ar  
 30  15  36  1   
 31  16  18  ar  
 32  16  37  1   
 33  17  19  1   
 34  17  20  ar  
 35  18  20  ar  
 36  18  38  1   
 37  19  21  1   
 38  20  22  1   
 39  21  39  1   
 40  21  40  1   
 41  21  41  1   
 42  22  23  1   
 43  23  42  1   
 44  23  43  1   
 45  23  44  1   
@<TRIPOS>SUBSTRUCTURE
  1 ****  11 GROUP 4 **** **** 0

# MOE 2024.06 (io_trps.svl 2023.06)
