@<TRIPOS>MOLECULE
4-[3-(4-Ethoxy-3-methoxy-phenyl)-[1,2,4]oxadiazol-5-yl]-1-piperidin-1-yl-butan-1
54 56 1 0 0 
SMALL
USER_CHARGES


@<TRIPOS>ATOM
  1 O        0.2710    -0.0040     0.5690 O.2   1 <1>  -0.5700 
  2 C        1.4720     0.1250     0.5250 C.2   1 <1>   0.5690 
  3 N        2.0660     1.3630     0.5710 N.am  1 <1>  -0.6600 
  4 C        2.3300    -1.1340     0.4180 C.3   1 <1>  -0.0990 
  5 C        3.5340     1.6230     0.5640 C.3   1 <1>   0.1400 
  6 C        1.2440     2.6060     0.6160 C.3   1 <1>   0.1400 
  7 C        1.5320    -2.4500     0.3200 C.3   1 <1>  -0.1600 
  8 C        3.8970     2.4880    -0.6480 C.3   1 <1>  -0.1600 
  9 C        1.5810     3.4900    -0.5900 C.3   1 <1>  -0.1600 
 10 C        2.4560    -3.6750     0.2060 C.3   1 <1>   0.0200 
 11 C        3.0850     3.7910    -0.6720 C.3   1 <1>  -0.1600 
 12 C        1.7090    -4.9970     0.1080 C.2   1 <1>   0.2980 
 13 O        2.4190    -6.0900     0.0030 O.3   1 <1>  -0.0190 
 14 N        0.4520    -5.1680     0.1170 N.2   1 <1>  -0.5650 
 15 N        1.5360    -7.0380    -0.0610 N.2   1 <1>  -0.4100 
 16 C        0.3710    -6.4970     0.0070 C.2   1 <1>   0.4620 
 17 C       -0.8990    -7.2050    -0.0300 C.ar  1 <1>   0.0540 
 18 C       -0.9490    -8.5940    -0.1480 C.ar  1 <1>  -0.1500 
 19 C       -2.1170    -6.5280     0.0520 C.ar  1 <1>  -0.1500 
 20 C       -2.1550    -9.2870    -0.1840 C.ar  1 <1>   0.0820 
 21 C       -3.3260    -7.1980     0.0180 C.ar  1 <1>  -0.1500 
 22 O       -2.2160   -10.6460    -0.2990 O.3   1 <1>  -0.3620 
 23 C       -3.3590    -8.5830    -0.1000 C.ar  1 <1>   0.0820 
 24 C       -1.0540   -11.4390    -0.3890 C.3   1 <1>   0.0400 
 25 O       -4.5240    -9.2900    -0.1380 O.3   1 <1>  -0.3630 
 26 C       -5.7810    -8.6630    -0.0600 C.3   1 <1>   0.1200 
 27 C       -6.8530    -9.7460    -0.1320 C.3   1 <1>  -0.2400 
 28 H        2.9640    -1.1750     1.2840 H     1 <1>   0.0800 
 29 H        2.9470    -1.0380    -0.4560 H     1 <1>   0.0800 
 30 H        4.0980     0.7090     0.5330 H     1 <1>   0.0800 
 31 H        3.7970     2.1420     1.4700 H     1 <1>   0.0800 
 32 H        1.4570     3.1340     1.5300 H     1 <1>   0.0800 
 33 H        0.1930     2.3730     0.6060 H     1 <1>   0.0800 
 34 H        0.8850    -2.4100    -0.5410 H     1 <1>   0.0800 
 35 H        0.9080    -2.5530     1.1920 H     1 <1>   0.0800 
 36 H        3.7080     1.9260    -1.5460 H     1 <1>   0.0800 
 37 H        4.9470     2.7190    -0.6190 H     1 <1>   0.0800 
 38 H        1.0300     4.4110    -0.5200 H     1 <1>   0.0800 
 39 H        1.2610     2.9850    -1.4850 H     1 <1>   0.0800 
 40 H        3.0990    -3.7180     1.0670 H     1 <1>   0.0800 
 41 H        3.0740    -3.5750    -0.6680 H     1 <1>   0.0800 
 42 H        3.2980     4.3370    -1.5750 H     1 <1>   0.0800 
 43 H        3.3700     4.4060     0.1640 H     1 <1>   0.0800 
 44 H       -0.0180    -9.1220    -0.2110 H     1 <1>   0.1500 
 45 H       -2.1180    -5.4550     0.1440 H     1 <1>   0.1500 
 46 H       -4.2280    -6.6210     0.0850 H     1 <1>   0.1500 
 47 H       -1.3590   -12.4660    -0.4710 H     1 <1>   0.0800 
 48 H       -0.4670   -11.3020     0.5020 H     1 <1>   0.0800 
 49 H       -0.5010   -11.1510    -1.2660 H     1 <1>   0.0800 
 50 H       -5.8730    -7.9810    -0.8880 H     1 <1>   0.0800 
 51 H       -5.8390    -8.1320     0.8740 H     1 <1>   0.0800 
 52 H       -6.7710   -10.2820    -1.0610 H     1 <1>   0.0800 
 53 H       -7.8290    -9.3000    -0.0750 H     1 <1>   0.0800 
 54 H       -6.7380   -10.4320     0.6880 H     1 <1>   0.0800 
@<TRIPOS>BOND
  1   1   2  2   
  2   2   3  am  
  3   2   4  1   
  4   3   5  1   
  5   3   6  1   
  6   4   7  1   
  7   4  28  1   
  8   4  29  1   
  9   5   8  1   
 10   5  30  1   
 11   5  31  1   
 12   6   9  1   
 13   6  32  1   
 14   6  33  1   
 15   7  10  1   
 16   7  34  1   
 17   7  35  1   
 18   8  11  1   
 19   8  36  1   
 20   8  37  1   
 21   9  11  1   
 22   9  38  1   
 23   9  39  1   
 24  10  12  1   
 25  10  40  1   
 26  10  41  1   
 27  11  42  1   
 28  11  43  1   
 29  12  13  1   
 30  12  14  2   
 31  13  15  1   
 32  14  16  1   
 33  15  16  2   
 34  16  17  1   
 35  17  18  ar  
 36  17  19  ar  
 37  18  20  ar  
 38  18  44  1   
 39  19  21  ar  
 40  19  45  1   
 41  20  22  1   
 42  20  23  ar  
 43  21  23  ar  
 44  21  46  1   
 45  22  24  1   
 46  23  25  1   
 47  24  47  1   
 48  24  48  1   
 49  24  49  1   
 50  25  26  1   
 51  26  27  1   
 52  26  50  1   
 53  26  51  1   
 54  27  52  1   
 55  27  53  1   
 56  27  54  1   
@<TRIPOS>SUBSTRUCTURE
  1 ****  14 GROUP 4 **** **** 0

# MOE 2024.06 (io_trps.svl 2023.06)
