@<TRIPOS>MOLECULE
9-Benzyl-5-morpholin-4-yl-1,2,3,4-tetrahydro-9H-7-thia-6,9,11-triaza-benzo[c]flu
55 60 1 0 0 
SMALL
USER_CHARGES


@<TRIPOS>ATOM
  1 S       -0.3060    -1.3500     0.1360 S.3   1 <1>  -0.0800 
  2 C       -1.4000     0.0060    -0.1570 C.ar  1 <1>   0.2970 
  3 C        1.1100    -0.3300    -0.1320 C.2   1 <1>  -0.0450 
  4 N       -2.7010    -0.1730    -0.0970 N.ar  1 <1>  -0.5670 
  5 C       -0.6860     1.1680    -0.4320 C.ar  1 <1>   0.0000 
  6 C        2.4570    -0.7400    -0.0750 C.2   1 <1>   0.7150 
  7 C        0.7420     0.9430    -0.4200 C.2   1 <1>   0.1250 
  8 C       -3.4000     0.9250    -0.3430 C.ar  1 <1>   0.4100 
  9 C       -1.4440     2.3180    -0.6730 C.ar  1 <1>  -0.1440 
 10 O        2.8110    -1.8880     0.1640 O.2   1 <1>  -0.5700 
 11 N        3.3850     0.2450    -0.3210 N.am  1 <1>  -0.4200 
 12 N        1.7120     1.8830    -0.6820 N.2   1 <1>  -0.5750 
 13 N       -4.7710     0.7850    -0.2610 N.pl3 1 <1>  -0.8380 
 14 C       -2.8210     2.1750    -0.6440 C.ar  1 <1>  -0.1440 
 15 C       -0.7650     3.6550    -0.9650 C.3   1 <1>  -0.0170 
 16 C        2.9460     1.5180    -0.6240 C.2   1 <1>   0.4500 
 17 C        4.8360    -0.0790    -0.2960 C.3   1 <1>   0.2840 
 18 C       -5.4190    -0.3250    -1.0250 C.3   1 <1>   0.2090 
 19 C       -5.3910     1.0050     1.0770 C.3   1 <1>   0.2090 
 20 C       -3.7420     3.3630    -0.9340 C.3   1 <1>  -0.0160 
 21 C       -1.7220     4.8490    -0.9070 C.3   1 <1>  -0.1600 
 22 C        5.6450     1.0540     0.3190 C.ar  1 <1>  -0.1440 
 23 C       -5.6550    -1.5690    -0.1460 C.3   1 <1>   0.1200 
 24 C       -5.6040    -0.3240     1.8260 C.3   1 <1>   0.1200 
 25 C       -3.0270     4.5240    -1.6330 C.3   1 <1>  -0.1600 
 26 C        5.5340     1.3310     1.6730 C.ar  1 <1>  -0.1500 
 27 C        6.4950     1.8210    -0.4650 C.ar  1 <1>  -0.1500 
 28 O       -6.3240    -1.2310     1.0380 O.3   1 <1>  -0.5600 
 29 C        6.2600     2.3650     2.2380 C.ar  1 <1>  -0.1500 
 30 C        7.2220     2.8550     0.0990 C.ar  1 <1>  -0.1500 
 31 C        7.1040     3.1280     1.4500 C.ar  1 <1>  -0.1500 
 32 H       -0.3220     3.6000    -1.9440 H     1 <1>   0.0800 
 33 H        0.0230     3.8250    -0.2540 H     1 <1>   0.0800 
 34 H        3.7040     2.2530    -0.8310 H     1 <1>   0.0600 
 35 H        5.1660    -0.2720    -1.3010 H     1 <1>   0.0800 
 36 H        5.0110    -0.9700     0.2830 H     1 <1>   0.0800 
 37 H       -4.7990    -0.5950    -1.8620 H     1 <1>   0.0800 
 38 H       -6.3620     0.0190    -1.4110 H     1 <1>   0.0800 
 39 H       -6.3390     1.4970     0.9510 H     1 <1>   0.0800 
 40 H       -4.7580     1.6450     1.6670 H     1 <1>   0.0800 
 41 H       -4.1520     3.7080    -0.0010 H     1 <1>   0.0800 
 42 H       -4.5620     3.0470    -1.5550 H     1 <1>   0.0800 
 43 H       -1.2530     5.7080    -1.3550 H     1 <1>   0.0800 
 44 H       -1.9360     5.0830     0.1220 H     1 <1>   0.0800 
 45 H       -4.7160    -2.0290     0.1080 H     1 <1>   0.0800 
 46 H       -6.2580    -2.2850    -0.6730 H     1 <1>   0.0800 
 47 H       -6.1610    -0.1570     2.7290 H     1 <1>   0.0800 
 48 H       -4.6540    -0.7650     2.0790 H     1 <1>   0.0800 
 49 H       -3.6690     5.3870    -1.6460 H     1 <1>   0.0800 
 50 H       -2.8130     4.2490    -2.6510 H     1 <1>   0.0800 
 51 H        4.8800     0.7450     2.2960 H     1 <1>   0.1500 
 52 H        6.6000     1.6220    -1.5180 H     1 <1>   0.1500 
 53 H        6.1700     2.5760     3.2890 H     1 <1>   0.1500 
 54 H        7.8800     3.4480    -0.5120 H     1 <1>   0.1500 
 55 H        7.6700     3.9320     1.8890 H     1 <1>   0.1500 
@<TRIPOS>BOND
  1   1   2  1   
  2   1   3  1   
  3   2   4  ar  
  4   2   5  ar  
  5   3   6  1   
  6   3   7  2   
  7   4   8  ar  
  8   5   7  1   
  9   5   9  ar  
 10   6  10  2   
 11   6  11  am  
 12   7  12  1   
 13   8  13  1   
 14   8  14  ar  
 15   9  14  ar  
 16   9  15  1   
 17  11  16  1   
 18  11  17  1   
 19  12  16  2   
 20  13  18  1   
 21  13  19  1   
 22  14  20  1   
 23  15  21  1   
 24  15  32  1   
 25  15  33  1   
 26  16  34  1   
 27  17  22  1   
 28  17  35  1   
 29  17  36  1   
 30  18  23  1   
 31  18  37  1   
 32  18  38  1   
 33  19  24  1   
 34  19  39  1   
 35  19  40  1   
 36  20  25  1   
 37  20  41  1   
 38  20  42  1   
 39  21  25  1   
 40  21  43  1   
 41  21  44  1   
 42  22  26  ar  
 43  22  27  ar  
 44  23  28  1   
 45  23  45  1   
 46  23  46  1   
 47  24  28  1   
 48  24  47  1   
 49  24  48  1   
 50  25  49  1   
 51  25  50  1   
 52  26  29  ar  
 53  26  51  1   
 54  27  30  ar  
 55  27  52  1   
 56  29  31  ar  
 57  29  53  1   
 58  30  31  ar  
 59  30  54  1   
 60  31  55  1   
@<TRIPOS>SUBSTRUCTURE
  1 ****   7 GROUP 4 **** **** 0

# MOE 2024.06 (io_trps.svl 2023.06)
