@<TRIPOS>MOLECULE
1-(4-Methoxy-3-methyl-benzenesulfonyl)-piperidine-4-carboxylic acid (3-hydroxy-p
51 52 1 0 0 
SMALL
USER_CHARGES


@<TRIPOS>ATOM
  1 S       -0.1150    -0.1300     2.4000 S.o2  1 <1>   1.4470 
  2 O        0.2150    -1.1370     3.3860 O.2   1 <1>  -0.6500 
  3 O       -0.5520     1.1770     2.8460 O.2   1 <1>  -0.6500 
  4 N        1.2730     0.1260     1.4600 N.am  1 <1>  -0.8490 
  5 C       -1.2960    -0.8230     1.2100 C.ar  1 <1>  -0.0090 
  6 C        2.4550     0.3310     2.2990 C.3   1 <1>   0.1960 
  7 C        1.0920     1.2220     0.5030 C.3   1 <1>   0.1960 
  8 C       -2.5680    -0.2830     1.0560 C.ar  1 <1>  -0.1500 
  9 C       -0.9530    -1.9120     0.4200 C.ar  1 <1>  -0.1500 
 10 C        3.7160     0.4080     1.4330 C.3   1 <1>  -0.1600 
 11 C        2.3020     1.3160    -0.4280 C.3   1 <1>  -0.1600 
 12 C       -3.4720    -0.8000     0.1420 C.ar  1 <1>  -0.1430 
 13 C       -1.8420    -2.4430    -0.4980 C.ar  1 <1>  -0.1500 
 14 C        3.6030     1.5120     0.3690 C.3   1 <1>  -0.0190 
 15 C       -3.1100    -1.8890    -0.6450 C.ar  1 <1>   0.0830 
 16 C       -4.8530    -0.1740     0.0080 C.3   1 <1>  -0.0970 
 17 C        4.8310     1.5360    -0.5390 C.2   1 <1>   0.5690 
 18 O       -4.0250    -2.3640    -1.5290 O.3   1 <1>  -0.3630 
 19 O        5.0180     0.6300    -1.3140 O.2   1 <1>  -0.5700 
 20 N        5.6890     2.5870    -0.4460 N.am  1 <1>  -0.7300 
 21 C       -3.7560    -3.4770    -2.3520 C.3   1 <1>   0.0400 
 22 C        6.9300     2.7330    -1.2350 C.3   1 <1>   0.1400 
 23 C        8.0880     3.0520    -0.2920 C.3   1 <1>  -0.1600 
 24 C        9.3970     3.1680    -1.0720 C.3   1 <1>   0.1200 
 25 O       10.4120     3.4460    -0.1790 O.3   1 <1>  -0.6800 
 26 H        2.5630    -0.4940     2.9850 H     1 <1>   0.0800 
 27 H        2.3410     1.2340     2.8770 H     1 <1>   0.0800 
 28 H        0.9610     2.1540     1.0300 H     1 <1>   0.0800 
 29 H        0.2110     1.0460    -0.0910 H     1 <1>   0.0800 
 30 H       -2.8490     0.5590     1.6650 H     1 <1>   0.1500 
 31 H        0.0270    -2.3470     0.5260 H     1 <1>   0.1500 
 32 H        3.8630    -0.5450     0.9530 H     1 <1>   0.0800 
 33 H        4.5690     0.5930     2.0600 H     1 <1>   0.0800 
 34 H        2.1680     2.1360    -1.1100 H     1 <1>   0.0800 
 35 H        2.3610     0.4120    -1.0110 H     1 <1>   0.0800 
 36 H       -1.5280    -3.2850    -1.0850 H     1 <1>   0.1500 
 37 H        3.5400     2.4580     0.8760 H     1 <1>   0.0800 
 38 H       -4.9750     0.6540     0.6820 H     1 <1>   0.0800 
 39 H       -5.6070    -0.9090     0.2260 H     1 <1>   0.0800 
 40 H       -4.9970     0.1770    -0.9980 H     1 <1>   0.0800 
 41 H        5.4950     3.3400     0.2140 H     1 <1>   0.3700 
 42 H       -4.6270    -3.6640    -2.9540 H     1 <1>   0.0800 
 43 H       -3.5530    -4.3300    -1.7300 H     1 <1>   0.0800 
 44 H       -2.9160    -3.2500    -2.9840 H     1 <1>   0.0800 
 45 H        6.8020     3.5250    -1.9530 H     1 <1>   0.0800 
 46 H        7.1340     1.8200    -1.7700 H     1 <1>   0.0800 
 47 H        8.1820     2.2560     0.4270 H     1 <1>   0.0800 
 48 H        7.8900     3.9790     0.2160 H     1 <1>   0.0800 
 49 H        9.3570     3.9600    -1.8000 H     1 <1>   0.0800 
 50 H        9.6360     2.2390    -1.5640 H     1 <1>   0.0800 
 51 H       10.2570     4.2970     0.2730 H     1 <1>   0.4000 
@<TRIPOS>BOND
  1   1   2  2   
  2   1   3  2   
  3   1   4  am  
  4   1   5  1   
  5   4   6  1   
  6   4   7  1   
  7   5   8  ar  
  8   5   9  ar  
  9   6  10  1   
 10   6  26  1   
 11   6  27  1   
 12   7  11  1   
 13   7  28  1   
 14   7  29  1   
 15   8  12  ar  
 16   8  30  1   
 17   9  13  ar  
 18   9  31  1   
 19  10  14  1   
 20  10  32  1   
 21  10  33  1   
 22  11  14  1   
 23  11  34  1   
 24  11  35  1   
 25  12  15  ar  
 26  12  16  1   
 27  13  15  ar  
 28  13  36  1   
 29  14  17  1   
 30  14  37  1   
 31  15  18  1   
 32  16  38  1   
 33  16  39  1   
 34  16  40  1   
 35  17  19  2   
 36  17  20  am  
 37  18  21  1   
 38  20  22  1   
 39  20  41  1   
 40  21  42  1   
 41  21  43  1   
 42  21  44  1   
 43  22  23  1   
 44  22  45  1   
 45  22  46  1   
 46  23  24  1   
 47  23  47  1   
 48  23  48  1   
 49  24  25  1   
 50  24  49  1   
 51  24  50  1   
 52  25  51  1   
@<TRIPOS>SUBSTRUCTURE
  1 ****   7 GROUP 4 **** **** 0

# MOE 2024.06 (io_trps.svl 2023.06)
