@<TRIPOS>MOLECULE
3-(4-Chloro-phenyl)-1-(2-cyano-ethyl)-1H-pyrazole-4-carboxylic acid isopropyl es
38 39 1 0 0 
SMALL
USER_CHARGES


@<TRIPOS>ATOM
  1 CL      -0.7000    -0.8790     0.8490 Cl    1 <1>  -0.1770 
  2 C        0.5270    -2.0920     0.5900 C.ar  1 <1>   0.1770 
  3 C        1.5480    -2.2340     1.5100 C.ar  1 <1>  -0.1500 
  4 C        0.4600    -2.8990    -0.5300 C.ar  1 <1>  -0.1500 
  5 C        2.5190    -3.1980     1.3000 C.ar  1 <1>  -0.1500 
  6 C        1.4370    -3.8590    -0.7280 C.ar  1 <1>  -0.1500 
  7 C        2.4870    -4.0240     0.1750 C.ar  1 <1>   0.0540 
  8 C        3.4900    -5.0420    -0.0520 C.2   1 <1>   0.2350 
  9 N        3.1680    -6.3030    -0.1870 N.2   1 <1>  -0.7070 
 10 C        4.8830    -4.8590    -0.1590 C.2   1 <1>  -0.0860 
 11 N        4.3180    -6.9580    -0.3640 N.pl3 1 <1>   0.3140 
 12 C        5.6280    -3.6280    -0.1040 C.2   1 <1>   0.8060 
 13 C        5.3590    -6.1210    -0.3500 C.2   1 <1>  -0.3020 
 14 C        4.3560    -8.4210    -0.5370 C.3   1 <1>   0.0960 
 15 O        5.1290    -2.5290     0.0210 O.2   1 <1>  -0.5700 
 16 O        6.9570    -3.7300    -0.1990 O.3   1 <1>  -0.4300 
 17 C        3.6130    -9.1130     0.6090 C.3   1 <1>   0.0400 
 18 C        7.8140    -2.6120    -0.1930 C.3   1 <1>   0.2000 
 19 C        3.7330   -10.5860     0.4670 C.1   1 <1>   0.3570 
 20 C        7.9000    -2.0600    -1.6160 C.3   1 <1>  -0.2400 
 21 C        9.1760    -3.0900     0.3010 C.3   1 <1>  -0.2400 
 22 N        3.8530   -11.7080     0.3360 N.1   1 <1>  -0.5570 
 23 H        1.5810    -1.5960     2.3740 H     1 <1>   0.1500 
 24 H       -0.3450    -2.7750    -1.2310 H     1 <1>   0.1500 
 25 H        3.3160    -3.3120     2.0120 H     1 <1>   0.1500 
 26 H        1.3940    -4.5000    -1.5920 H     1 <1>   0.1500 
 27 H        6.3790    -6.4370    -0.4790 H     1 <1>   0.1500 
 28 H        5.3820    -8.7400    -0.5630 H     1 <1>   0.0800 
 29 H        3.8930    -8.6610    -1.4770 H     1 <1>   0.0800 
 30 H        2.5710    -8.8500     0.5910 H     1 <1>   0.0800 
 31 H        4.0330    -8.8220     1.5540 H     1 <1>   0.0800 
 32 H        7.4230    -1.8690     0.4840 H     1 <1>   0.0800 
 33 H        8.2570    -2.8150    -2.2940 H     1 <1>   0.0800 
 34 H        8.5780    -1.2260    -1.6440 H     1 <1>   0.0800 
 35 H        6.9350    -1.7150    -1.9400 H     1 <1>   0.0800 
 36 H        9.5690    -3.8500    -0.3510 H     1 <1>   0.0800 
 37 H        9.0880    -3.4840     1.2980 H     1 <1>   0.0800 
 38 H        9.8670    -2.2670     0.3240 H     1 <1>   0.0800 
@<TRIPOS>BOND
  1   1   2  1   
  2   2   3  ar  
  3   2   4  ar  
  4   3   5  ar  
  5   3  23  1   
  6   4   6  ar  
  7   4  24  1   
  8   5   7  ar  
  9   5  25  1   
 10   6   7  ar  
 11   6  26  1   
 12   7   8  1   
 13   8   9  2   
 14   8  10  1   
 15   9  11  1   
 16  10  12  1   
 17  10  13  2   
 18  11  13  1   
 19  11  14  1   
 20  12  15  2   
 21  12  16  1   
 22  13  27  1   
 23  14  17  1   
 24  14  28  1   
 25  14  29  1   
 26  16  18  1   
 27  17  19  1   
 28  17  30  1   
 29  17  31  1   
 30  18  20  1   
 31  18  21  1   
 32  18  32  1   
 33  19  22  3   
 34  20  33  1   
 35  20  34  1   
 36  20  35  1   
 37  21  36  1   
 38  21  37  1   
 39  21  38  1   
@<TRIPOS>SUBSTRUCTURE
  1 ****   8 GROUP 4 **** **** 0

# MOE 2024.06 (io_trps.svl 2023.06)
