@<TRIPOS>MOLECULE
4-(4-Ethoxy-phenyl)-3,6-dihydroxy-6-methyl-4,5,6,7-tetrahydro-1H-indazole-5-carb
47 49 1 0 0 
SMALL
USER_CHARGES


@<TRIPOS>ATOM
  1 O       -2.1820     0.6210    -0.8190 O.2   1 <1>  -0.5700 
  2 C       -1.9350     1.1000     0.2610 C.2   1 <1>   0.6590 
  3 O       -1.9660     0.3710     1.3710 O.3   1 <1>  -0.4300 
  4 C       -1.5310     2.5510     0.4280 C.3   1 <1>  -0.0190 
  5 C       -2.2860    -1.0030     1.3500 C.3   1 <1>   0.0400 
  6 C       -2.7320     3.5330     0.3640 C.3   1 <1>   0.2800 
  7 C       -0.4080     2.8960    -0.5760 C.3   1 <1>   0.2440 
  8 O       -3.6590     3.1460     1.3090 O.3   1 <1>  -0.6800 
  9 C       -2.2780     4.9670     0.7300 C.3   1 <1>   0.0200 
 10 C       -3.4780     3.5230    -0.9790 C.3   1 <1>  -0.2400 
 11 C        0.8690     2.1360    -0.2090 C.ar  1 <1>  -0.1440 
 12 C       -0.1950     4.4020    -0.6020 C.2   1 <1>  -0.1810 
 13 C       -1.0080     5.3090    -0.0270 C.2   1 <1>  -0.3320 
 14 C        1.2090     0.9800    -0.8990 C.ar  1 <1>  -0.1500 
 15 C        1.6980     2.5760     0.8140 C.ar  1 <1>  -0.1500 
 16 C        0.7960     5.1740    -1.1910 C.2   1 <1>   0.3510 
 17 N       -0.4750     6.5300    -0.2660 N.pl3 1 <1>   0.3000 
 18 C        2.3570     0.2770    -0.5780 C.ar  1 <1>  -0.1500 
 19 C        2.8450     1.8740     1.1380 C.ar  1 <1>  -0.1500 
 20 O        1.8250     4.7340    -1.9120 O.3   1 <1>  -0.5120 
 21 N        0.6580     6.4420    -1.0020 N.2   1 <1>  -0.7070 
 22 C        3.1860     0.7240     0.4470 C.ar  1 <1>   0.0820 
 23 O        4.3320     0.1010     0.8210 O.3   1 <1>  -0.3620 
 24 C        4.8200    -1.0130     0.1130 C.3   1 <1>   0.1200 
 25 C        6.1450    -1.4290     0.7450 C.3   1 <1>  -0.2400 
 26 H       -1.1090     2.6490     1.4110 H     1 <1>   0.0800 
 27 H       -2.2480    -1.3760     2.3570 H     1 <1>   0.0800 
 28 H       -1.5680    -1.5170     0.7350 H     1 <1>   0.0800 
 29 H       -3.2760    -1.1220     0.9460 H     1 <1>   0.0800 
 30 H       -0.7090     2.6100    -1.5690 H     1 <1>   0.0800 
 31 H       -4.5160     3.5780     1.1350 H     1 <1>   0.4000 
 32 H       -2.0690     5.0230     1.7850 H     1 <1>   0.0800 
 33 H       -3.0520     5.6760     0.4920 H     1 <1>   0.0800 
 34 H       -2.8180     3.8090    -1.7780 H     1 <1>   0.0800 
 35 H       -4.2960     4.2200    -0.9690 H     1 <1>   0.0800 
 36 H       -3.8640     2.5440    -1.2010 H     1 <1>   0.0800 
 37 H        0.5770     0.6190    -1.6920 H     1 <1>   0.1500 
 38 H        1.4570     3.4710     1.3610 H     1 <1>   0.1500 
 39 H       -0.8530     7.4330     0.0460 H     1 <1>   0.2700 
 40 H        2.5860    -0.6120    -1.1340 H     1 <1>   0.1500 
 41 H        3.4870     2.2180     1.9280 H     1 <1>   0.1500 
 42 H        2.3410     5.5240    -2.1410 H     1 <1>   0.4500 
 43 H        4.9610    -0.7270    -0.9150 H     1 <1>   0.0800 
 44 H        4.0970    -1.8060     0.1860 H     1 <1>   0.0800 
 45 H        6.8530    -0.6230     0.6810 H     1 <1>   0.0800 
 46 H        6.5450    -2.2800     0.2240 H     1 <1>   0.0800 
 47 H        5.9940    -1.6950     1.7750 H     1 <1>   0.0800 
@<TRIPOS>BOND
  1   1   2  2   
  2   2   3  1   
  3   2   4  1   
  4   3   5  1   
  5   4   6  1   
  6   4   7  1   
  7   4  26  1   
  8   5  27  1   
  9   5  28  1   
 10   5  29  1   
 11   6   8  1   
 12   6   9  1   
 13   6  10  1   
 14   7  11  1   
 15   7  12  1   
 16   7  30  1   
 17   8  31  1   
 18   9  13  1   
 19   9  32  1   
 20   9  33  1   
 21  10  34  1   
 22  10  35  1   
 23  10  36  1   
 24  11  14  ar  
 25  11  15  ar  
 26  12  13  2   
 27  12  16  1   
 28  13  17  1   
 29  14  18  ar  
 30  14  37  1   
 31  15  19  ar  
 32  15  38  1   
 33  16  20  1   
 34  16  21  2   
 35  17  21  1   
 36  17  39  1   
 37  18  22  ar  
 38  18  40  1   
 39  19  22  ar  
 40  19  41  1   
 41  20  42  1   
 42  22  23  1   
 43  23  24  1   
 44  24  25  1   
 45  24  43  1   
 46  24  44  1   
 47  25  45  1   
 48  25  46  1   
 49  25  47  1   
@<TRIPOS>SUBSTRUCTURE
  1 ****  11 GROUP 4 **** **** 0

# MOE 2024.06 (io_trps.svl 2023.06)
