@<TRIPOS>MOLECULE
1,7,8-Trimethyl-3-(2-oxo-propyl)-1H,8H-imidazo[2,1-f]purine-2,4-dione
37 39 1 0 0 
SMALL
USER_CHARGES


@<TRIPOS>ATOM
  1 O        0.5150    -0.0180    -0.0870 O.2   1 <1>  -0.5770 
  2 C        1.5060     0.6640    -0.2480 C.2   1 <1>   0.6850 
  3 N        1.3910     1.9180    -0.8310 N.am  1 <1>  -0.4280 
  4 N        2.7490     0.1930     0.1600 N.am  1 <1>  -0.4440 
  5 C        2.5060     2.7040    -1.0730 C.2   1 <1>   0.6980 
  6 C        0.0800     2.6260    -0.6980 C.3   1 <1>   0.1910 
  7 C        3.8370     1.0330     0.0220 C.2   1 <1>   0.4180 
  8 C        2.8770    -1.1440     0.8080 C.3   1 <1>   0.0490 
  9 O        2.4030     3.7520    -1.6910 O.2   1 <1>  -0.5770 
 10 C        3.7590     2.2460    -0.5760 C.2   1 <1>   0.2680 
 11 C       -0.0060     3.3310     0.6550 C.2   1 <1>   0.4400 
 12 N        5.1210     0.8160     0.4410 N.pl3 1 <1>  -0.7050 
 13 N        5.0510     2.7910    -0.5300 N.pl3 1 <1>  -0.6350 
 14 O        0.9300     3.3870     1.4010 O.2   1 <1>  -0.5770 
 15 C       -1.3330     3.9640     1.0140 C.3   1 <1>  -0.1890 
 16 C        5.8150     1.9070     0.0950 C.cat 1 <1>   1.0680 
 17 C        5.8470     3.8790    -0.8250 C.2   1 <1>   0.2190 
 18 N        7.0760     2.3470     0.2210 N.pl3 1 <1>  -0.5740 
 19 C        7.0890     3.6050    -0.3660 C.2   1 <1>   0.1550 
 20 C        8.2310     1.6630     0.8590 C.3   1 <1>   0.0770 
 21 C        8.3440     4.4560    -0.4280 C.3   1 <1>  -0.1130 
 22 H       -0.7310     1.9260    -0.7900 H     1 <1>   0.0690 
 23 H       -0.0260     3.3520    -1.4850 H     1 <1>   0.0690 
 24 H        2.1000    -1.8050     0.4610 H     1 <1>   0.0690 
 25 H        2.7860    -1.0390     1.8750 H     1 <1>   0.0690 
 26 H        3.8260    -1.5910     0.5690 H     1 <1>   0.0690 
 27 H        5.4850     0.0200     0.9560 H     1 <1>   0.4420 
 28 H       -2.1010     3.2140     1.0480 H     1 <1>   0.0690 
 29 H       -1.5940     4.7100     0.2870 H     1 <1>   0.0690 
 30 H       -1.2630     4.4320     1.9800 H     1 <1>   0.0690 
 31 H        5.4680     4.7540    -1.3320 H     1 <1>   0.1400 
 32 H        7.9420     0.6950     1.2290 H     1 <1>   0.0690 
 33 H        8.5970     2.2560     1.6800 H     1 <1>   0.0690 
 34 H        9.0230     1.5380     0.1390 H     1 <1>   0.0690 
 35 H        9.1140     3.9440    -0.9770 H     1 <1>   0.0690 
 36 H        8.7010     4.6650     0.5640 H     1 <1>   0.0690 
 37 H        8.1380     5.3900    -0.9210 H     1 <1>   0.0690 
@<TRIPOS>BOND
  1   1   2  2   
  2   2   3  am  
  3   2   4  am  
  4   3   5  am  
  5   3   6  1   
  6   4   7  1   
  7   4   8  1   
  8   5   9  2   
  9   5  10  1   
 10   6  11  1   
 11   6  22  1   
 12   6  23  1   
 13   7  10  2   
 14   7  12  1   
 15   8  24  1   
 16   8  25  1   
 17   8  26  1   
 18  10  13  1   
 19  11  14  2   
 20  11  15  1   
 21  12  16  ar  
 22  12  27  1   
 23  13  16  ar  
 24  13  17  1   
 25  15  28  1   
 26  15  29  1   
 27  15  30  1   
 28  16  18  ar  
 29  17  19  2   
 30  17  31  1   
 31  18  19  1   
 32  18  20  1   
 33  19  21  1   
 34  20  32  1   
 35  20  33  1   
 36  20  34  1   
 37  21  35  1   
 38  21  36  1   
 39  21  37  1   
@<TRIPOS>SUBSTRUCTURE
  1 ****  10 GROUP 4 **** **** 0

# MOE 2024.06 (io_trps.svl 2023.06)
