@<TRIPOS>MOLECULE
2-(8,8-Dimethyl-1-oxo-8,9-dihydro-1H,6H-7-oxa-11-thia-2,4,10-triaza-benzo[b]fluo
50 54 1 0 0 
SMALL
USER_CHARGES


@<TRIPOS>ATOM
  1 S        1.2820    -0.0690    -0.2320 S.3   1 <1>  -0.0800 
  2 C        0.1300     1.2730    -0.2060 C.ar  1 <1>   0.2970 
  3 C        2.4190     0.8200     0.7920 C.2   1 <1>  -0.0450 
  4 N       -1.0260     1.2140    -0.8440 N.ar  1 <1>  -0.5670 
  5 C        0.6320     2.3200     0.5550 C.ar  1 <1>   0.0000 
  6 C        3.6780     0.3800     1.2510 C.2   1 <1>   0.7150 
  7 C        1.9280     2.0420     1.1090 C.2   1 <1>   0.1250 
  8 C       -1.7560     2.3090    -0.7110 C.ar  1 <1>   0.1660 
  9 C       -0.1590     3.4510     0.6720 C.ar  1 <1>  -0.1500 
 10 O        4.1780    -0.7020     0.9700 O.2   1 <1>  -0.5700 
 11 N        4.3510     1.2700     2.0560 N.am  1 <1>  -0.4200 
 12 N        2.6490     2.9070     1.8960 N.2   1 <1>  -0.5750 
 13 C       -1.3780     3.4360     0.0230 C.ar  1 <1>  -0.1440 
 14 C       -3.0880     2.3110    -1.4340 C.3   1 <1>  -0.0170 
 15 C        3.7970     2.5040     2.3200 C.2   1 <1>   0.4500 
 16 C        5.7020     0.9260     2.5850 C.3   1 <1>   0.2010 
 17 C       -2.2990     4.6440     0.1330 C.3   1 <1>   0.2640 
 18 C       -4.0550     3.3640    -0.8730 C.3   1 <1>   0.2800 
 19 C        6.7940     1.1710     1.5520 C.2   1 <1>   0.5690 
 20 O       -3.3770     4.5760    -0.7580 O.3   1 <1>  -0.5600 
 21 C       -5.1940     3.6230    -1.8610 C.3   1 <1>  -0.2400 
 22 C       -4.6500     2.9610     0.4860 C.3   1 <1>  -0.2400 
 23 O        7.5670     2.0800     1.7300 O.2   1 <1>  -0.5700 
 24 N        6.8680     0.3740     0.4590 N.am  1 <1>  -0.7300 
 25 C        7.9000     0.4570    -0.5890 C.3   1 <1>   0.3200 
 26 C        8.2990    -0.9480    -0.9980 C.2   1 <1>  -0.0400 
 27 O        7.3900    -1.7380    -1.5390 O.3   1 <1>  -0.2800 
 28 C        9.4850    -1.5870    -0.9040 C.2   1 <1>  -0.1500 
 29 C        7.9710    -2.8920    -1.8000 C.2   1 <1>  -0.0100 
 30 C        9.2690    -2.8660    -1.4320 C.2   1 <1>  -0.1500 
 31 H        0.1830     4.2910     1.2520 H     1 <1>   0.1500 
 32 H       -3.5370     1.3370    -1.3640 H     1 <1>   0.0800 
 33 H       -2.9000     2.5080    -2.4730 H     1 <1>   0.0800 
 34 H        4.3850     3.1690     2.9300 H     1 <1>   0.0600 
 35 H        5.7260    -0.1080     2.8780 H     1 <1>   0.0800 
 36 H        5.9120     1.5200     3.4560 H     1 <1>   0.0800 
 37 H       -1.7560     5.5440    -0.0940 H     1 <1>   0.0800 
 38 H       -2.6920     4.7260     1.1320 H     1 <1>   0.0800 
 39 H       -4.8010     3.9620    -2.8030 H     1 <1>   0.0800 
 40 H       -5.8590     4.3740    -1.4720 H     1 <1>   0.0800 
 41 H       -5.7570     2.7230    -2.0290 H     1 <1>   0.0800 
 42 H       -3.8840     2.6830     1.1870 H     1 <1>   0.0800 
 43 H       -5.2960     2.1110     0.3630 H     1 <1>   0.0800 
 44 H       -5.2310     3.7690     0.8930 H     1 <1>   0.0800 
 45 H        6.1810    -0.3810     0.3140 H     1 <1>   0.3700 
 46 H        8.7590     0.9930    -0.2230 H     1 <1>   0.0800 
 47 H        7.5020     0.9810    -1.4410 H     1 <1>   0.0800 
 48 H       10.4190    -1.2250    -0.5110 H     1 <1>   0.1500 
 49 H        7.3870    -3.6780    -2.2480 H     1 <1>   0.1500 
 50 H       10.0080    -3.6440    -1.5110 H     1 <1>   0.1500 
@<TRIPOS>BOND
  1   1   2  1   
  2   1   3  1   
  3   2   4  ar  
  4   2   5  ar  
  5   3   6  1   
  6   3   7  2   
  7   4   8  ar  
  8   5   7  1   
  9   5   9  ar  
 10   6  10  2   
 11   6  11  am  
 12   7  12  1   
 13   8  13  ar  
 14   8  14  1   
 15   9  13  ar  
 16   9  31  1   
 17  11  15  1   
 18  11  16  1   
 19  12  15  2   
 20  13  17  1   
 21  14  18  1   
 22  14  32  1   
 23  14  33  1   
 24  15  34  1   
 25  16  19  1   
 26  16  35  1   
 27  16  36  1   
 28  17  20  1   
 29  17  37  1   
 30  17  38  1   
 31  18  20  1   
 32  18  21  1   
 33  18  22  1   
 34  19  23  2   
 35  19  24  am  
 36  21  39  1   
 37  21  40  1   
 38  21  41  1   
 39  22  42  1   
 40  22  43  1   
 41  22  44  1   
 42  24  25  1   
 43  24  45  1   
 44  25  26  1   
 45  25  46  1   
 46  25  47  1   
 47  26  27  1   
 48  26  28  2   
 49  27  29  1   
 50  28  30  1   
 51  28  48  1   
 52  29  30  2   
 53  29  49  1   
 54  30  50  1   
@<TRIPOS>SUBSTRUCTURE
  1 ****   3 GROUP 4 **** **** 0

# MOE 2024.06 (io_trps.svl 2023.06)
