@<TRIPOS>MOLECULE
8-Azepan-1-yl-7-(2-hydroxy-3-m-tolyloxy-propyl)-1,3-dimethyl-3,7-dihydro-purine-
64 67 1 0 0 
SMALL
USER_CHARGES


@<TRIPOS>ATOM
  1 O        0.6620    -0.1030     0.1020 O.2   1 <1>  -0.5730 
  2 C        1.5860     0.6390     0.3670 C.2   1 <1>   0.6870 
  3 N        1.3390     1.8700     0.9650 N.am  1 <1>  -0.4240 
  4 N        2.8870     0.2560     0.0730 N.am  1 <1>  -0.4400 
  5 C        2.3800     2.7270     1.2990 C.2   1 <1>   0.7000 
  6 C       -0.0760     2.2520     1.2710 C.3   1 <1>   0.0540 
  7 C        3.9080     1.1310     0.3910 C.2   1 <1>   0.4220 
  8 C        3.1720    -1.0520    -0.5900 C.3   1 <1>   0.0540 
  9 O        2.1560     3.7990     1.8390 O.2   1 <1>  -0.5730 
 10 C        3.7190     2.3220     0.9890 C.2   1 <1>   0.2720 
 11 N        5.2340     0.9720     0.1640 N.pl3 1 <1>  -0.7030 
 12 N        4.9930     2.9110     1.1340 N.pl3 1 <1>  -0.7660 
 13 C        5.8890     2.0480     0.6120 C.cat 1 <1>   1.0690 
 14 C        5.0960     4.3910     1.3640 C.3   1 <1>   0.3490 
 15 N        7.2420     2.1260     0.5330 N.pl3 1 <1>  -0.5950 
 16 C        4.6270     5.2020     0.1340 C.3   1 <1>   0.1950 
 17 C        8.1090     3.0990     1.2540 C.3   1 <1>   0.1620 
 18 C        8.0570     1.1650    -0.2680 C.3   1 <1>   0.1620 
 19 O        5.0920     4.6110    -1.0390 O.3   1 <1>  -0.6830 
 20 C        5.1030     6.6610     0.1770 C.3   1 <1>   0.1140 
 21 C        8.5700     4.2370     0.3320 C.3   1 <1>  -0.1660 
 22 C        8.1460     1.6060    -1.7330 C.3   1 <1>  -0.1660 
 23 O        4.8720     7.2570    -1.0830 O.3   1 <1>  -0.3670 
 24 C        9.3040     3.7920    -0.9470 C.3   1 <1>  -0.1660 
 25 C        8.3780     3.1100    -1.9670 C.3   1 <1>  -0.1660 
 26 C        5.2850     8.5230    -1.3450 C.ar  1 <1>   0.0770 
 27 C        5.8600     9.3640    -0.3950 C.ar  1 <1>  -0.1560 
 28 C        5.1150     8.9770    -2.6430 C.ar  1 <1>  -0.1560 
 29 C        6.2640    10.6430    -0.7460 C.ar  1 <1>  -0.1490 
 30 C        5.5160    10.2520    -2.9960 C.ar  1 <1>  -0.1560 
 31 C        6.0890    11.0830    -2.0480 C.ar  1 <1>  -0.1560 
 32 C        6.8910    11.5660     0.2830 C.3   1 <1>  -0.1020 
 33 H       -0.7260     1.9390     0.4720 H     1 <1>   0.0740 
 34 H       -0.1750     3.3180     1.3850 H     1 <1>   0.0740 
 35 H       -0.3890     1.7720     2.1820 H     1 <1>   0.0740 
 36 H        2.3390    -1.7260    -0.4800 H     1 <1>   0.0740 
 37 H        4.0340    -1.5160    -0.1460 H     1 <1>   0.0740 
 38 H        3.3470    -0.8950    -1.6400 H     1 <1>   0.0740 
 39 H        5.6810     0.1940    -0.3040 H     1 <1>   0.4460 
 40 H        6.0980     4.6790     1.5970 H     1 <1>   0.0740 
 41 H        4.4970     4.6650     2.2160 H     1 <1>   0.0740 
 42 H        3.5510     5.1990     0.0900 H     1 <1>   0.0740 
 43 H        8.9810     2.5880     1.6290 H     1 <1>   0.0740 
 44 H        7.6060     3.4850     2.1200 H     1 <1>   0.0740 
 45 H        7.6520     0.1700    -0.2100 H     1 <1>   0.0740 
 46 H        9.0550     1.1080     0.1330 H     1 <1>   0.0740 
 47 H        5.0300     5.2840    -1.7570 H     1 <1>   0.3960 
 48 H        6.1580     6.7110     0.3830 H     1 <1>   0.0740 
 49 H        4.5580     7.2160     0.9220 H     1 <1>   0.0740 
 50 H        9.2370     4.8650     0.8960 H     1 <1>   0.0740 
 51 H        7.7320     4.8490     0.0540 H     1 <1>   0.0740 
 52 H        7.2530     1.3110    -2.2550 H     1 <1>   0.0740 
 53 H        8.9590     1.0630    -2.1840 H     1 <1>   0.0740 
 54 H       10.1430     3.1600    -0.7100 H     1 <1>   0.0740 
 55 H        9.7020     4.6790    -1.4120 H     1 <1>   0.0740 
 56 H        7.4320     3.6220    -1.9820 H     1 <1>   0.0740 
 57 H        8.8040     3.2290    -2.9500 H     1 <1>   0.0740 
 58 H        5.9970     9.0450     0.6190 H     1 <1>   0.1440 
 59 H        4.6680     8.3300    -3.3750 H     1 <1>   0.1440 
 60 H        5.3820    10.6000    -4.0050 H     1 <1>   0.1440 
 61 H        6.3980    12.0740    -2.3300 H     1 <1>   0.1440 
 62 H        7.2690    11.0070     1.1190 H     1 <1>   0.0740 
 63 H        6.1570    12.2670     0.6380 H     1 <1>   0.0740 
 64 H        7.7070    12.1120    -0.1570 H     1 <1>   0.0740 
@<TRIPOS>BOND
  1   1   2  2   
  2   2   3  am  
  3   2   4  am  
  4   3   5  am  
  5   3   6  1   
  6   4   7  1   
  7   4   8  1   
  8   5   9  2   
  9   5  10  1   
 10   6  33  1   
 11   6  34  1   
 12   6  35  1   
 13   7  10  2   
 14   7  11  1   
 15   8  36  1   
 16   8  37  1   
 17   8  38  1   
 18  10  12  1   
 19  11  13  ar  
 20  11  39  1   
 21  12  13  ar  
 22  12  14  1   
 23  13  15  ar  
 24  14  16  1   
 25  14  40  1   
 26  14  41  1   
 27  15  17  1   
 28  15  18  1   
 29  16  19  1   
 30  16  20  1   
 31  16  42  1   
 32  17  21  1   
 33  17  43  1   
 34  17  44  1   
 35  18  22  1   
 36  18  45  1   
 37  18  46  1   
 38  19  47  1   
 39  20  23  1   
 40  20  48  1   
 41  20  49  1   
 42  21  24  1   
 43  21  50  1   
 44  21  51  1   
 45  22  25  1   
 46  22  52  1   
 47  22  53  1   
 48  23  26  1   
 49  24  25  1   
 50  24  54  1   
 51  24  55  1   
 52  25  56  1   
 53  25  57  1   
 54  26  27  ar  
 55  26  28  ar  
 56  27  29  ar  
 57  27  58  1   
 58  28  30  ar  
 59  28  59  1   
 60  29  31  ar  
 61  29  32  1   
 62  30  31  ar  
 63  30  60  1   
 64  31  61  1   
 65  32  62  1   
 66  32  63  1   
 67  32  64  1   
@<TRIPOS>SUBSTRUCTURE
  1 ****  19 GROUP 4 **** **** 0

# MOE 2024.06 (io_trps.svl 2023.06)
