@<TRIPOS>MOLECULE
7-[2-(4,6-Dimethyl-pyrimidin-2-ylsulfanyl)-ethyl]-3-methyl-8-pyrrolidin-1-yl-3,7
52 55 1 0 0 
SMALL
USER_CHARGES


@<TRIPOS>ATOM
  1 S       -0.6400     0.7260    -1.0050 S.3   1 <1>  -0.3380 
  2 C        1.0340     0.6680    -0.3860 C.ar  1 <1>   0.7180 
  3 C       -1.1360    -1.0200    -1.3400 C.3   1 <1>   0.0620 
  4 N        1.5760    -0.5380    -0.2660 N.ar  1 <1>  -0.6240 
  5 N        1.5400     1.8540    -0.1120 N.ar  1 <1>  -0.6240 
  6 C       -1.4250    -1.7100    -0.0030 C.3   1 <1>   0.3480 
  7 C        2.8180    -0.5160     0.1730 C.ar  1 <1>   0.1590 
  8 C        2.7710     1.8380     0.3330 C.ar  1 <1>   0.1590 
  9 N       -2.1500    -2.9990    -0.2200 N.pl3 1 <1>  -0.7670 
 10 C        3.4610     0.6590     0.4910 C.ar  1 <1>  -0.1570 
 11 C        3.5410    -1.8370     0.3210 C.3   1 <1>  -0.1040 
 12 C        3.4030     3.1740     0.6630 C.3   1 <1>  -0.1040 
 13 C       -1.7220    -4.2730    -0.2600 C.cat 1 <1>   1.0690 
 14 C       -3.5560    -3.0300    -0.3470 C.2   1 <1>   0.2710 
 15 N       -2.7760    -5.0830    -0.3900 N.pl3 1 <1>  -0.7040 
 16 N       -0.4630    -4.7580    -0.1950 N.pl3 1 <1>  -0.5960 
 17 C       -4.6030    -2.0500    -0.3900 C.2   1 <1>   0.6990 
 18 C       -3.9040    -4.3320    -0.4460 C.2   1 <1>   0.4210 
 19 C        0.7970    -3.9710    -0.2080 C.3   1 <1>   0.1610 
 20 C       -0.1420    -6.2120    -0.1710 C.3   1 <1>   0.1610 
 21 O       -4.4110    -0.8540    -0.3210 O.2   1 <1>  -0.5740 
 22 N       -5.8840    -2.5040    -0.5220 N.am  1 <1>  -0.4950 
 23 N       -5.2110    -4.7780    -0.5840 N.am  1 <1>  -0.4410 
 24 C        1.9020    -4.9870    -0.4740 C.3   1 <1>  -0.1670 
 25 C        1.3570    -6.2960     0.0750 C.3   1 <1>  -0.1670 
 26 C       -6.2160    -3.8230    -0.6190 C.2   1 <1>   0.6860 
 27 C       -5.5250    -6.2340    -0.6870 C.3   1 <1>   0.0520 
 28 O       -7.3830    -4.1160    -0.7340 O.2   1 <1>  -0.5740 
 29 H       -0.3360    -1.4860    -1.8840 H     1 <1>   0.0720 
 30 H       -2.0210    -0.9610    -1.9470 H     1 <1>   0.0720 
 31 H       -2.0390    -1.0580     0.5970 H     1 <1>   0.0720 
 32 H       -0.5150    -1.8700     0.5430 H     1 <1>   0.0720 
 33 H        4.4730     0.6600     0.8520 H     1 <1>   0.1430 
 34 H        3.5000    -2.3760    -0.6080 H     1 <1>   0.0720 
 35 H        3.0800    -2.4190     1.0970 H     1 <1>   0.0720 
 36 H        4.5730    -1.6830     0.5780 H     1 <1>   0.0720 
 37 H        3.4180     3.7910    -0.2170 H     1 <1>   0.0720 
 38 H        4.4080     3.0500     1.0200 H     1 <1>   0.0720 
 39 H        2.8220     3.6680     1.4210 H     1 <1>   0.0720 
 40 H       -2.7190    -6.0940    -0.4500 H     1 <1>   0.4450 
 41 H        0.9450    -3.5200     0.7580 H     1 <1>   0.0720 
 42 H        0.7880    -3.2130    -0.9720 H     1 <1>   0.0720 
 43 H       -0.3750    -6.6460    -1.1290 H     1 <1>   0.0720 
 44 H       -0.6840    -6.7230     0.6070 H     1 <1>   0.0720 
 45 H       -6.6410    -1.8250    -0.5540 H     1 <1>   0.3640 
 46 H        2.8290    -4.7110    -0.0040 H     1 <1>   0.0720 
 47 H        2.0620    -5.0690    -1.5350 H     1 <1>   0.0720 
 48 H        1.7970    -7.1540    -0.4030 H     1 <1>   0.0720 
 49 H        1.5420    -6.3560     1.1340 H     1 <1>   0.0720 
 50 H       -5.1940    -6.7440     0.2010 H     1 <1>   0.0720 
 51 H       -5.0360    -6.6540    -1.5480 H     1 <1>   0.0720 
 52 H       -6.5860    -6.3920    -0.7910 H     1 <1>   0.0720 
@<TRIPOS>BOND
  1   1   2  1   
  2   1   3  1   
  3   2   4  ar  
  4   2   5  ar  
  5   3   6  1   
  6   3  29  1   
  7   3  30  1   
  8   4   7  ar  
  9   5   8  ar  
 10   6   9  1   
 11   6  31  1   
 12   6  32  1   
 13   7  10  ar  
 14   7  11  1   
 15   8  10  ar  
 16   8  12  1   
 17   9  13  ar  
 18   9  14  1   
 19  10  33  1   
 20  11  34  1   
 21  11  35  1   
 22  11  36  1   
 23  12  37  1   
 24  12  38  1   
 25  12  39  1   
 26  13  15  ar  
 27  13  16  ar  
 28  14  17  1   
 29  14  18  2   
 30  15  18  1   
 31  15  40  1   
 32  16  19  1   
 33  16  20  1   
 34  17  21  2   
 35  17  22  am  
 36  18  23  1   
 37  19  24  1   
 38  19  41  1   
 39  19  42  1   
 40  20  25  1   
 41  20  43  1   
 42  20  44  1   
 43  22  26  am  
 44  22  45  1   
 45  23  26  am  
 46  23  27  1   
 47  24  25  1   
 48  24  46  1   
 49  24  47  1   
 50  25  48  1   
 51  25  49  1   
 52  26  28  2   
 53  27  50  1   
 54  27  51  1   
 55  27  52  1   
@<TRIPOS>SUBSTRUCTURE
  1 ****   6 GROUP 4 **** **** 0

# MOE 2024.06 (io_trps.svl 2023.06)
