@<TRIPOS>MOLECULE
(2-Isopropyl-2H-tetrazol-5-yl)-acetic acid
21 21 1 0 0 
SMALL
USER_CHARGES


@<TRIPOS>ATOM
  1 O        0.3200     0.1820    -0.8350 O.co2 1 <1>  -0.9000 
  2 C        0.4080     1.1100    -0.0240 C.2   1 <1>   0.9060 
  3 O       -0.4270     1.2790     0.8730 O.co2 1 <1>  -0.9000 
  4 C        1.4960     2.1320    -0.1900 C.3   1 <1>  -0.0850 
  5 C        2.8420     1.5890     0.2200 C.2   1 <1>   0.3350 
  6 N        3.1000     1.1610     1.4530 N.2   1 <1>  -0.2270 
  7 N        3.8500     1.5480    -0.5740 N.2   1 <1>  -0.7070 
  8 N        4.3240     0.8030     1.4500 N.2   1 <1>  -0.4180 
  9 N        4.7610     1.0260     0.2190 N.pl3 1 <1>   0.5800 
 10 C        6.1450     0.7250    -0.2470 C.3   1 <1>   0.1760 
 11 C        6.4490    -0.7790    -0.1450 C.3   1 <1>  -0.2400 
 12 C        7.1860     1.5460     0.5320 C.3   1 <1>  -0.2400 
 13 H        1.2590     2.9870     0.4100 H     1 <1>   0.0800 
 14 H        1.5200     2.4240    -1.2200 H     1 <1>   0.0800 
 15 H        6.1920     1.0100    -1.2830 H     1 <1>   0.0800 
 16 H        6.4180    -1.1010     0.8810 H     1 <1>   0.0800 
 17 H        7.4260    -0.9900    -0.5430 H     1 <1>   0.0800 
 18 H        5.7230    -1.3380    -0.7100 H     1 <1>   0.0800 
 19 H        7.1710     1.2820     1.5750 H     1 <1>   0.0800 
 20 H        6.9730     2.5960     0.4320 H     1 <1>   0.0800 
 21 H        8.1710     1.3600     0.1440 H     1 <1>   0.0800 
@<TRIPOS>BOND
  1   1   2  ar  
  2   2   3  ar  
  3   2   4  1   
  4   4   5  1   
  5   4  13  1   
  6   4  14  1   
  7   5   6  1   
  8   5   7  2   
  9   6   8  2   
 10   7   9  1   
 11   8   9  1   
 12   9  10  1   
 13  10  11  1   
 14  10  12  1   
 15  10  15  1   
 16  11  16  1   
 17  11  17  1   
 18  11  18  1   
 19  12  19  1   
 20  12  20  1   
 21  12  21  1   
@<TRIPOS>SUBSTRUCTURE
  1 ****   5 GROUP 4 **** **** 0

# MOE 2024.06 (io_trps.svl 2023.06)
