@<TRIPOS>MOLECULE
2-Piperazin-1-yl-cyclohexanol
34 35 1 0 0 
SMALL
USER_CHARGES


@<TRIPOS>ATOM
  1 O        0.7220    -0.9800    -1.5160 O.3   1 <1>  -0.6800 
  2 C        0.1730    -1.4850    -0.3430 C.3   1 <1>   0.2000 
  3 C        1.2370    -2.1940     0.5690 C.3   1 <1>   0.4230 
  4 C       -0.9850    -2.4130    -0.7540 C.3   1 <1>  -0.1600 
  5 N        2.6310    -1.6150     0.5810 N.4   1 <1>  -0.9590 
  6 C        1.2930    -3.7020     0.2850 C.3   1 <1>  -0.1600 
  7 C       -1.2740    -3.4620     0.3290 C.3   1 <1>  -0.1600 
  8 C        2.6230    -0.1440     0.8920 C.3   1 <1>   0.3430 
  9 C        3.4130    -1.8390    -0.6920 C.3   1 <1>   0.3430 
 10 C       -0.0600    -4.3760     0.5830 C.3   1 <1>  -0.1600 
 11 C        4.0580     0.4150     1.0140 C.3   1 <1>   0.1100 
 12 C        4.8480    -1.2810    -0.5760 C.3   1 <1>   0.1100 
 13 N        4.8500     0.1420    -0.1960 N.3   1 <1>  -0.9000 
 14 H        0.0190    -0.6220    -2.0970 H     1 <1>   0.4000 
 15 H       -0.2320    -0.6520     0.2040 H     1 <1>   0.0800 
 16 H        0.8530    -2.1090     1.5720 H     1 <1>   0.0800 
 17 H       -0.7410    -2.9330    -1.6660 H     1 <1>   0.0800 
 18 H       -1.8720    -1.8270    -0.9300 H     1 <1>   0.0800 
 19 H        3.1540    -2.0800     1.3270 H     1 <1>   0.4500 
 20 H        2.0550    -4.1750     0.8780 H     1 <1>   0.0800 
 21 H        1.5220    -3.8560    -0.7560 H     1 <1>   0.0800 
 22 H       -2.1180    -4.0650     0.0360 H     1 <1>   0.0800 
 23 H       -1.5460    -2.9600     1.2430 H     1 <1>   0.0800 
 24 H        2.0930     0.0370     1.8110 H     1 <1>   0.0800 
 25 H        2.1180     0.3880     0.1010 H     1 <1>   0.0800 
 26 H        2.9300    -1.3440    -1.5170 H     1 <1>   0.0800 
 27 H        3.4620    -2.8900    -0.9190 H     1 <1>   0.0800 
 28 H       -0.0880    -4.7050     1.6090 H     1 <1>   0.0800 
 29 H       -0.1450    -5.2570    -0.0320 H     1 <1>   0.0800 
 30 H        4.5440    -0.0150     1.8730 H     1 <1>   0.0800 
 31 H        4.0070     1.4810     1.1620 H     1 <1>   0.0800 
 32 H        5.3420    -1.3870    -1.5270 H     1 <1>   0.0800 
 33 H        5.4020    -1.8530     0.1490 H     1 <1>   0.0800 
 34 H        5.8190     0.4770    -0.0720 H     1 <1>   0.3600 
@<TRIPOS>BOND
  1   1   2  1   
  2   1  14  1   
  3   2   3  1   
  4   2   4  1   
  5   2  15  1   
  6   3   5  1   
  7   3   6  1   
  8   3  16  1   
  9   4   7  1   
 10   4  17  1   
 11   4  18  1   
 12   5   8  1   
 13   5   9  1   
 14   5  19  1   
 15   6  10  1   
 16   6  20  1   
 17   6  21  1   
 18   7  10  1   
 19   7  22  1   
 20   7  23  1   
 21   8  11  1   
 22   8  24  1   
 23   8  25  1   
 24   9  12  1   
 25   9  26  1   
 26   9  27  1   
 27  10  28  1   
 28  10  29  1   
 29  11  13  1   
 30  11  30  1   
 31  11  31  1   
 32  12  13  1   
 33  12  32  1   
 34  12  33  1   
 35  13  34  1   
@<TRIPOS>SUBSTRUCTURE
  1 ****   3 GROUP 4 **** **** 0

# MOE 2024.06 (io_trps.svl 2023.06)
