@<TRIPOS>MOLECULE
3-(3,8,8-Trimethyl-8,9-dihydro-6H-7-oxa-11-thia-2,4,10-triaza-benzo[b]fluoren-1-
47 50 1 0 0 
SMALL
USER_CHARGES


@<TRIPOS>ATOM
  1 S       -0.0450    -1.2770     0.7180 S.3   1 <1>  -0.0800 
  2 C       -1.4400    -0.2530     0.3470 C.ar  1 <1>   0.2970 
  3 C        1.0510     0.1210     0.6900 C.ar  1 <1>   0.0400 
  4 N       -2.6550    -0.7560     0.2270 N.ar  1 <1>  -0.5670 
  5 C       -1.0460     1.0720     0.2170 C.ar  1 <1>   0.0000 
  6 C        2.4150     0.1560     0.9030 C.ar  1 <1>   0.4100 
  7 C        0.3660     1.2720     0.4130 C.ar  1 <1>   0.2560 
  8 C       -3.5760     0.1540    -0.0510 C.ar  1 <1>   0.1660 
  9 C       -2.0350     1.9960    -0.0740 C.ar  1 <1>  -0.1500 
 10 N        3.0490     1.3110     0.8360 N.ar  1 <1>  -0.6200 
 11 N        3.1350    -0.9830     1.1800 N.pl3 1 <1>  -0.8690 
 12 N        1.0030     2.4370     0.3450 N.ar  1 <1>  -0.5660 
 13 C       -3.3250     1.5190    -0.2080 C.ar  1 <1>  -0.1430 
 14 C       -4.9900    -0.3630    -0.2190 C.3   1 <1>  -0.0170 
 15 C        2.3060     2.3760     0.5610 C.ar  1 <1>   0.4770 
 16 C        4.6070    -1.0510     1.2980 C.3   1 <1>   0.2090 
 17 C       -4.4570     2.4930    -0.5090 C.3   1 <1>   0.2630 
 18 C       -6.0400     0.7490    -0.0740 C.3   1 <1>   0.2800 
 19 C        3.0600     3.6830     0.4900 C.3   1 <1>  -0.0960 
 20 C        5.1860    -1.5500    -0.0240 C.3   1 <1>  -0.1600 
 21 O       -5.6470     1.8380    -0.8500 O.3   1 <1>  -0.5600 
 22 C       -7.3820     0.2960    -0.6520 C.3   1 <1>  -0.2400 
 23 C       -6.2440     1.1880     1.3860 C.3   1 <1>  -0.2400 
 24 C        6.7080    -1.6310     0.0550 C.3   1 <1>   0.1200 
 25 O        7.1880    -2.0650    -1.1650 O.3   1 <1>  -0.6800 
 26 H       -1.7870     3.0380    -0.1840 H     1 <1>   0.1500 
 27 H        2.6440    -1.8790     1.1260 H     1 <1>   0.4000 
 28 H       -5.1800    -1.1330     0.5060 H     1 <1>   0.0800 
 29 H       -5.0660    -0.8090    -1.1930 H     1 <1>   0.0800 
 30 H        4.8660    -1.7230     2.0980 H     1 <1>   0.0800 
 31 H        5.0090    -0.0800     1.5340 H     1 <1>   0.0800 
 32 H       -4.1920     3.1210    -1.3400 H     1 <1>   0.0800 
 33 H       -4.6500     3.1190     0.3440 H     1 <1>   0.0800 
 34 H        3.8260     3.6120    -0.2590 H     1 <1>   0.0800 
 35 H        3.5150     3.8840     1.4410 H     1 <1>   0.0800 
 36 H        2.3980     4.4910     0.2390 H     1 <1>   0.0800 
 37 H        4.9100    -0.8590    -0.8020 H     1 <1>   0.0800 
 38 H        4.7810    -2.5210    -0.2420 H     1 <1>   0.0800 
 39 H       -8.1080     1.0840    -0.5640 H     1 <1>   0.0800 
 40 H       -7.2730     0.0390    -1.6900 H     1 <1>   0.0800 
 41 H       -7.7470    -0.5650    -0.1230 H     1 <1>   0.0800 
 42 H       -5.3110     1.4310     1.8610 H     1 <1>   0.0800 
 43 H       -6.6900     0.3880     1.9470 H     1 <1>   0.0800 
 44 H       -6.9000     2.0380     1.4300 H     1 <1>   0.0800 
 45 H        7.0290    -2.3270     0.8120 H     1 <1>   0.0800 
 46 H        7.1380    -0.6620     0.2520 H     1 <1>   0.0800 
 47 H        6.8000    -2.9290    -1.4030 H     1 <1>   0.4000 
@<TRIPOS>BOND
  1   1   2  1   
  2   1   3  1   
  3   2   4  ar  
  4   2   5  ar  
  5   3   6  ar  
  6   3   7  ar  
  7   4   8  ar  
  8   5   7  1   
  9   5   9  ar  
 10   6  10  ar  
 11   6  11  1   
 12   7  12  ar  
 13   8  13  ar  
 14   8  14  1   
 15   9  13  ar  
 16   9  26  1   
 17  10  15  ar  
 18  11  16  1   
 19  11  27  1   
 20  12  15  ar  
 21  13  17  1   
 22  14  18  1   
 23  14  28  1   
 24  14  29  1   
 25  15  19  1   
 26  16  20  1   
 27  16  30  1   
 28  16  31  1   
 29  17  21  1   
 30  17  32  1   
 31  17  33  1   
 32  18  21  1   
 33  18  22  1   
 34  18  23  1   
 35  19  34  1   
 36  19  35  1   
 37  19  36  1   
 38  20  24  1   
 39  20  37  1   
 40  20  38  1   
 41  22  39  1   
 42  22  40  1   
 43  22  41  1   
 44  23  42  1   
 45  23  43  1   
 46  23  44  1   
 47  24  25  1   
 48  24  45  1   
 49  24  46  1   
 50  25  47  1   
@<TRIPOS>SUBSTRUCTURE
  1 ****   5 GROUP 4 **** **** 0

# MOE 2024.06 (io_trps.svl 2023.06)
