@<TRIPOS>MOLECULE
3-tert-Butyl-6-phenyl-[1,2,4]triazolo[3,4-b][1,3,4]thiadiazole
32 34 1 0 0 
SMALL
USER_CHARGES


@<TRIPOS>ATOM
  1 S       -0.0500    -0.1420    -1.2280 S.3   1 <1>  -0.1970 
  2 C        0.7470     1.2710    -0.5840 C.2   1 <1>   0.2420 
  3 C       -1.6190     0.7030    -1.0780 C.2   1 <1>   0.5050 
  4 N        1.9560     1.6050    -0.3140 N.2   1 <1>  -0.3380 
  5 N       -0.1640     2.1920    -0.3290 N.pl3 1 <1>   0.5050 
  6 N       -1.5010     1.8910    -0.6010 N.2   1 <1>  -0.6520 
  7 C       -2.8270     0.0120    -1.4880 C.ar  1 <1>   0.0860 
  8 N        1.8550     2.8590     0.1640 N.2   1 <1>  -0.3380 
  9 C        0.5960     3.1960     0.1510 C.2   1 <1>   0.0060 
 10 C       -2.8360    -1.2920    -1.9980 C.ar  1 <1>  -0.1500 
 11 C       -4.0640     0.6530    -1.3790 C.ar  1 <1>  -0.1500 
 12 C        0.0160     4.5420     0.6100 C.3   1 <1>   0.1800 
 13 C       -4.0110    -1.9140    -2.3760 C.ar  1 <1>  -0.1500 
 14 C       -5.2430     0.0360    -1.7560 C.ar  1 <1>  -0.1500 
 15 C        1.1330     5.4770     1.1040 C.3   1 <1>  -0.2400 
 16 C       -0.9720     4.3240     1.7660 C.3   1 <1>  -0.2400 
 17 C       -0.7040     5.2320    -0.5580 C.3   1 <1>  -0.2400 
 18 C       -5.2190    -1.2520    -2.2560 C.ar  1 <1>  -0.1500 
 19 H       -1.9190    -1.8430    -2.1080 H     1 <1>   0.1500 
 20 H       -4.1040     1.6570    -0.9910 H     1 <1>   0.1500 
 21 H       -3.9900    -2.9180    -2.7660 H     1 <1>   0.1500 
 22 H       -6.1800     0.5570    -1.6600 H     1 <1>   0.1500 
 23 H        1.6570     5.0300     1.9300 H     1 <1>   0.0800 
 24 H        0.7310     6.4210     1.4260 H     1 <1>   0.0800 
 25 H        1.8430     5.6600     0.3170 H     1 <1>   0.0800 
 26 H       -1.3470     5.2660     2.1250 H     1 <1>   0.0800 
 27 H       -1.8080     3.7280     1.4490 H     1 <1>   0.0800 
 28 H       -0.4820     3.8180     2.5790 H     1 <1>   0.0800 
 29 H       -0.0260     5.3670    -1.3820 H     1 <1>   0.0800 
 30 H       -1.0730     6.1970    -0.2580 H     1 <1>   0.0800 
 31 H       -1.5380     4.6450    -0.8960 H     1 <1>   0.0800 
 32 H       -6.1350    -1.7360    -2.5510 H     1 <1>   0.1500 
@<TRIPOS>BOND
  1   1   2  1   
  2   1   3  1   
  3   2   4  2   
  4   2   5  1   
  5   3   6  2   
  6   3   7  1   
  7   4   8  1   
  8   5   6  1   
  9   5   9  1   
 10   7  10  ar  
 11   7  11  ar  
 12   8   9  2   
 13   9  12  1   
 14  10  13  ar  
 15  10  19  1   
 16  11  14  ar  
 17  11  20  1   
 18  12  15  1   
 19  12  16  1   
 20  12  17  1   
 21  13  18  ar  
 22  13  21  1   
 23  14  18  ar  
 24  14  22  1   
 25  15  23  1   
 26  15  24  1   
 27  15  25  1   
 28  16  26  1   
 29  16  27  1   
 30  16  28  1   
 31  17  29  1   
 32  17  30  1   
 33  17  31  1   
 34  18  32  1   
@<TRIPOS>SUBSTRUCTURE
  1 ****   6 GROUP 4 **** **** 0

# MOE 2024.06 (io_trps.svl 2023.06)
