@<TRIPOS>MOLECULE
1-(4-p-Tolyloxy-butyl)-1H-benzotriazole
40 42 1 0 0 
SMALL
USER_CHARGES


@<TRIPOS>ATOM
  1 O        0.4380     0.1160     0.7400 O.3   1 <1>  -0.3630 
  2 C        1.1570    -0.9300     0.2610 C.ar  1 <1>   0.0830 
  3 C        0.7120     1.4350     0.3330 C.3   1 <1>   0.1200 
  4 C        2.2040    -0.8030    -0.6470 C.ar  1 <1>  -0.1500 
  5 C        0.8070    -2.1900     0.7190 C.ar  1 <1>  -0.1500 
  6 C       -0.2690     2.3620     1.0520 C.3   1 <1>  -0.1600 
  7 C        2.8840    -1.9270    -1.0830 C.ar  1 <1>  -0.1500 
  8 C        1.4880    -3.3120     0.2810 C.ar  1 <1>  -0.1500 
  9 C       -0.0530     3.8250     0.6420 C.3   1 <1>  -0.1600 
 10 C        2.5320    -3.1860    -0.6220 C.ar  1 <1>  -0.1430 
 11 C       -1.0280     4.7560     1.3770 C.3   1 <1>   0.0960 
 12 C        3.2790    -4.4160    -1.1040 C.3   1 <1>  -0.0970 
 13 N       -0.8210     6.1570     0.9660 N.pl3 1 <1>   0.3140 
 14 N       -0.0620     7.0150     1.6650 N.2   1 <1>  -0.4180 
 15 C       -1.3130     6.7630    -0.1380 C.ar  1 <1>  -0.1520 
 16 N       -0.0480     8.1430     1.0590 N.2   1 <1>  -0.2270 
 17 C       -0.8060     8.0340    -0.0590 C.ar  1 <1>   0.2270 
 18 C       -2.1340     6.3700    -1.2010 C.ar  1 <1>  -0.1500 
 19 C       -1.1060     8.9700    -1.0510 C.ar  1 <1>  -0.1500 
 20 C       -2.4270     7.2950    -2.1770 C.ar  1 <1>  -0.1500 
 21 C       -1.9130     8.5980    -2.1030 C.ar  1 <1>  -0.1500 
 22 H        0.5830     1.4930    -0.7340 H     1 <1>   0.0800 
 23 H        1.7270     1.6700     0.6020 H     1 <1>   0.0800 
 24 H        2.5050     0.1550    -1.0240 H     1 <1>   0.1500 
 25 H       -0.0030    -2.2860     1.4190 H     1 <1>   0.1500 
 26 H       -0.1270     2.2590     2.1140 H     1 <1>   0.0800 
 27 H       -1.2740     2.0620     0.8060 H     1 <1>   0.0800 
 28 H        3.6910    -1.8190    -1.7860 H     1 <1>   0.1500 
 29 H        1.2010    -4.2820     0.6460 H     1 <1>   0.1500 
 30 H       -0.1970     3.9230    -0.4210 H     1 <1>   0.0800 
 31 H        0.9560     4.1180     0.8800 H     1 <1>   0.0800 
 32 H       -0.8720     4.6910     2.4390 H     1 <1>   0.0800 
 33 H       -2.0450     4.4840     1.1620 H     1 <1>   0.0800 
 34 H        4.3010    -4.1700    -1.3320 H     1 <1>   0.0800 
 35 H        2.8080    -4.8030    -1.9890 H     1 <1>   0.0800 
 36 H        3.2760    -5.1780    -0.3460 H     1 <1>   0.0800 
 37 H       -2.5240     5.3690    -1.2490 H     1 <1>   0.1500 
 38 H       -0.6990     9.9610    -0.9690 H     1 <1>   0.1500 
 39 H       -3.0560     7.0290    -3.0100 H     1 <1>   0.1500 
 40 H       -2.1570     9.3040    -2.8790 H     1 <1>   0.1500 
@<TRIPOS>BOND
  1   1   2  1   
  2   1   3  1   
  3   2   4  ar  
  4   2   5  ar  
  5   3   6  1   
  6   3  22  1   
  7   3  23  1   
  8   4   7  ar  
  9   4  24  1   
 10   5   8  ar  
 11   5  25  1   
 12   6   9  1   
 13   6  26  1   
 14   6  27  1   
 15   7  10  ar  
 16   7  28  1   
 17   8  10  ar  
 18   8  29  1   
 19   9  11  1   
 20   9  30  1   
 21   9  31  1   
 22  10  12  1   
 23  11  13  1   
 24  11  32  1   
 25  11  33  1   
 26  12  34  1   
 27  12  35  1   
 28  12  36  1   
 29  13  14  1   
 30  13  15  1   
 31  14  16  2   
 32  15  17  ar  
 33  15  18  ar  
 34  16  17  1   
 35  17  19  ar  
 36  18  20  ar  
 37  18  37  1   
 38  19  21  ar  
 39  19  38  1   
 40  20  21  ar  
 41  20  39  1   
 42  21  40  1   
@<TRIPOS>SUBSTRUCTURE
  1 ****   9 GROUP 4 **** **** 0

# MOE 2024.06 (io_trps.svl 2023.06)
