@<TRIPOS>MOLECULE
3-Ethyl-3H-imidazole-4-carboxylic acid
18 18 1 0 0 
SMALL
USER_CHARGES


@<TRIPOS>ATOM
  1 O       -0.2170     0.5730    -1.4000 O.co2 1 <1>  -0.9000 
  2 C       -0.6770     1.6500    -0.9820 C.2   1 <1>   1.0200 
  3 O       -1.8830     1.9060    -1.1310 O.co2 1 <1>  -0.9000 
  4 C        0.1720     2.6350    -0.3190 C.2   1 <1>   0.1300 
  5 N        1.5390     2.6120     0.0060 N.pl3 1 <1>  -0.7640 
  6 C       -0.2860     3.8290     0.1180 C.2   1 <1>   0.2000 
  7 C        1.8350     3.7540     0.6010 C.cat 1 <1>   0.6500 
  8 C        2.4260     1.4630    -0.2990 C.3   1 <1>   0.3540 
  9 N        0.7560     4.5160     0.6870 N.pl3 1 <1>  -0.7000 
 10 C        2.2950     0.4250     0.8090 C.3   1 <1>  -0.2400 
 11 H       -1.2980     4.1990     0.0410 H     1 <1>   0.1500 
 12 H        2.8160     4.0240     0.9660 H     1 <1>   0.1500 
 13 H        3.4460     1.7990    -0.3660 H     1 <1>   0.0800 
 14 H        2.1570     1.0300    -1.2490 H     1 <1>   0.0800 
 15 H        0.6900     5.4480     1.0990 H     1 <1>   0.4500 
 16 H        2.5610     0.8450     1.7610 H     1 <1>   0.0800 
 17 H        2.9430    -0.4060     0.6010 H     1 <1>   0.0800 
 18 H        1.2840     0.0560     0.8460 H     1 <1>   0.0800 
@<TRIPOS>BOND
  1   1   2  ar  
  2   2   3  ar  
  3   2   4  1   
  4   4   5  1   
  5   4   6  2   
  6   5   7  ar  
  7   5   8  1   
  8   6   9  1   
  9   6  11  1   
 10   7   9  ar  
 11   7  12  1   
 12   8  10  1   
 13   8  13  1   
 14   8  14  1   
 15   9  15  1   
 16  10  16  1   
 17  10  17  1   
 18  10  18  1   
@<TRIPOS>SUBSTRUCTURE
  1 ****   4 GROUP 4 **** **** 0

# MOE 2024.06 (io_trps.svl 2023.06)
