@<TRIPOS>MOLECULE
1-(3-Ethyl-5-hydroxy-5-trifluoromethyl-4,5-dihydro-pyrazol-1-yl)-3-(2-hydroxy-ph
40 41 1 0 0 
SMALL
USER_CHARGES


@<TRIPOS>ATOM
  1 F       -0.4350    -2.4270    -2.0500 F     1 <1>  -0.3400 
  2 C        0.2160    -2.6910    -0.9180 C.3   1 <1>   1.0200 
  3 F        0.7740    -3.8850    -1.0910 F     1 <1>  -0.3400 
  4 F        1.2300    -1.8270    -0.8890 F     1 <1>  -0.3400 
  5 C       -0.7130    -2.5690     0.3620 C.3   1 <1>   0.5800 
  6 O       -0.0960    -2.9610     1.5560 O.3   1 <1>  -0.6800 
  7 N       -1.9810    -3.3510     0.2730 N.am  1 <1>  -0.2980 
  8 C       -1.2320    -1.1340     0.5600 C.3   1 <1>  -0.0990 
  9 N       -3.0830    -2.5190     0.2710 N.2   1 <1>  -0.5120 
 10 C       -2.0100    -4.7280     0.3270 C.2   1 <1>   0.5690 
 11 C       -2.7210    -1.3250     0.4310 C.2   1 <1>   0.3280 
 12 O       -1.0070    -5.3690     0.5430 O.2   1 <1>  -0.5700 
 13 C       -3.3470    -5.4310     0.1470 C.3   1 <1>  -0.0990 
 14 C       -3.6160    -0.0940     0.5010 C.3   1 <1>  -0.0990 
 15 C       -3.2440    -6.9630     0.0670 C.3   1 <1>  -0.0160 
 16 C       -5.1120    -0.4120     0.3530 C.3   1 <1>  -0.2400 
 17 C       -4.5720    -7.7040    -0.1290 C.ar  1 <1>  -0.1440 
 18 C       -4.5570    -9.0940    -0.2190 C.ar  1 <1>   0.0820 
 19 C       -5.7980    -7.0540    -0.2210 C.ar  1 <1>  -0.1500 
 20 O       -3.3960    -9.7670    -0.1350 O.3   1 <1>  -0.5320 
 21 C       -5.7280    -9.8150    -0.3970 C.ar  1 <1>  -0.1500 
 22 C       -6.9700    -7.7710    -0.3980 C.ar  1 <1>  -0.1500 
 23 C       -6.9370    -9.1510    -0.4860 C.ar  1 <1>  -0.1500 
 24 H       -0.0630    -3.9470     1.5480 H     1 <1>   0.4000 
 25 H       -0.8820    -0.4640    -0.2030 H     1 <1>   0.0800 
 26 H       -0.9780    -0.7440     1.5290 H     1 <1>   0.0800 
 27 H       -3.7960    -5.0610    -0.7560 H     1 <1>   0.0800 
 28 H       -3.9740    -5.1600     0.9770 H     1 <1>   0.0800 
 29 H       -3.3270     0.5880    -0.2780 H     1 <1>   0.0800 
 30 H       -3.4560     0.3930     1.4470 H     1 <1>   0.0800 
 31 H       -2.7870    -7.3270     0.9720 H     1 <1>   0.0800 
 32 H       -2.5890    -7.2220    -0.7470 H     1 <1>   0.0800 
 33 H       -5.3020    -0.8830    -0.5960 H     1 <1>   0.0800 
 34 H       -5.6930     0.4910     0.4120 H     1 <1>   0.0800 
 35 H       -5.4310    -1.0790     1.1350 H     1 <1>   0.0800 
 36 H       -5.8700    -5.9850    -0.1580 H     1 <1>   0.1500 
 37 H       -3.5090   -10.7290    -0.2070 H     1 <1>   0.4500 
 38 H       -5.7040   -10.8860    -0.4650 H     1 <1>   0.1500 
 39 H       -7.9100    -7.2520    -0.4680 H     1 <1>   0.1500 
 40 H       -7.8500    -9.7040    -0.6240 H     1 <1>   0.1500 
@<TRIPOS>BOND
  1   1   2  1   
  2   2   3  1   
  3   2   4  1   
  4   2   5  1   
  5   5   6  1   
  6   5   7  1   
  7   5   8  1   
  8   6  24  1   
  9   7   9  1   
 10   7  10  am  
 11   8  11  1   
 12   8  25  1   
 13   8  26  1   
 14   9  11  2   
 15  10  12  2   
 16  10  13  1   
 17  11  14  1   
 18  13  15  1   
 19  13  27  1   
 20  13  28  1   
 21  14  16  1   
 22  14  29  1   
 23  14  30  1   
 24  15  17  1   
 25  15  31  1   
 26  15  32  1   
 27  16  33  1   
 28  16  34  1   
 29  16  35  1   
 30  17  18  ar  
 31  17  19  ar  
 32  18  20  1   
 33  18  21  ar  
 34  19  22  ar  
 35  19  36  1   
 36  20  37  1   
 37  21  23  ar  
 38  21  38  1   
 39  22  23  ar  
 40  22  39  1   
 41  23  40  1   
@<TRIPOS>SUBSTRUCTURE
  1 ****  10 GROUP 4 **** **** 0

# MOE 2024.06 (io_trps.svl 2023.06)
