@<TRIPOS>MOLECULE
[1-(3-Chloro-4-methoxy-benzenesulfonyl)-piperidin-4-yl]-(4-methyl-piperazin-1-yl
54 56 1 0 0 
SMALL
USER_CHARGES


@<TRIPOS>ATOM
  1 CL       2.2220     0.3280     3.4830 Cl    1 <1>  -0.1770 
  2 C        2.1980     0.5640     1.7490 C.ar  1 <1>   0.1770 
  3 C        1.3590    -0.2010     0.9470 C.ar  1 <1>   0.0830 
  4 C        3.0340     1.5230     1.2110 C.ar  1 <1>  -0.1500 
  5 O        0.5640    -1.1290     1.5390 O.3   1 <1>  -0.3630 
  6 C        1.3770     0.0250    -0.4270 C.ar  1 <1>  -0.1500 
  7 C        3.0620     1.7510    -0.1600 C.ar  1 <1>  -0.0090 
  8 C       -0.3350    -1.9230     0.7970 C.3   1 <1>   0.0400 
  9 C        2.2170     0.9880    -0.9620 C.ar  1 <1>  -0.1500 
 10 S        4.1580     3.0080    -0.8710 S.o2  1 <1>   1.4470 
 11 O        4.3560     2.7520    -2.2820 O.2   1 <1>  -0.6500 
 12 O        3.7140     4.3150    -0.4420 O.2   1 <1>  -0.6500 
 13 N        5.6440     2.6940    -0.1130 N.am  1 <1>  -0.8490 
 14 C        6.5420     3.8480    -0.1960 C.3   1 <1>   0.1960 
 15 C        6.2780     1.4790    -0.6270 C.3   1 <1>   0.1960 
 16 C        7.8060     3.5910     0.6280 C.3   1 <1>  -0.1600 
 17 C        7.5280     1.1450     0.1920 C.3   1 <1>  -0.1600 
 18 C        8.5370     2.3080     0.1810 C.3   1 <1>  -0.0190 
 19 C        9.7700     1.9840     1.0430 C.2   1 <1>   0.5690 
 20 O        9.9090     2.5700     2.0890 O.2   1 <1>  -0.5700 
 21 N       10.7060     1.0500     0.6540 N.am  1 <1>  -0.6600 
 22 C       10.8740     0.4790    -0.7190 C.3   1 <1>   0.1400 
 23 C       11.7610     0.5980     1.6200 C.3   1 <1>   0.1400 
 24 C       12.2990     0.7490    -1.2540 C.3   1 <1>   0.3430 
 25 C       13.1660     0.9010     1.0730 C.3   1 <1>   0.3430 
 26 N       13.3740     0.3010    -0.2950 N.4   1 <1>  -0.9590 
 27 C       14.7360     0.6310    -0.8170 C.3   1 <1>   0.2630 
 28 H        3.6680     2.0980     1.8640 H     1 <1>   0.1500 
 29 H        0.7470    -0.5350    -1.0920 H     1 <1>   0.1500 
 30 H       -0.8550    -2.5670     1.4840 H     1 <1>   0.0800 
 31 H        0.2210    -2.5160     0.0920 H     1 <1>   0.0800 
 32 H       -1.0380    -1.2820     0.2960 H     1 <1>   0.0800 
 33 H        2.2190     1.1530    -2.0280 H     1 <1>   0.1500 
 34 H        6.0520     4.7220     0.1990 H     1 <1>   0.0800 
 35 H        6.7950     4.0430    -1.2260 H     1 <1>   0.0800 
 36 H        6.5420     1.6120    -1.6640 H     1 <1>   0.0800 
 37 H        5.5880     0.6540    -0.5610 H     1 <1>   0.0800 
 38 H        7.5230     3.5120     1.6640 H     1 <1>   0.0800 
 39 H        8.4660     4.4360     0.5380 H     1 <1>   0.0800 
 40 H        7.9800     0.2550    -0.2060 H     1 <1>   0.0800 
 41 H        7.2310     0.9350     1.2050 H     1 <1>   0.0800 
 42 H        8.8640     2.4790    -0.8270 H     1 <1>   0.0800 
 43 H       10.1630     0.9000    -1.4040 H     1 <1>   0.0800 
 44 H       10.6970    -0.5820    -0.6830 H     1 <1>   0.0800 
 45 H       11.6560    -0.4590     1.7920 H     1 <1>   0.0800 
 46 H       11.6480     1.0850     2.5740 H     1 <1>   0.0800 
 47 H       12.3970     1.8070    -1.4320 H     1 <1>   0.0800 
 48 H       12.4210     0.2450    -2.1990 H     1 <1>   0.0800 
 49 H       13.9010     0.5150     1.7600 H     1 <1>   0.0800 
 50 H       13.2860     1.9710     1.0270 H     1 <1>   0.0800 
 51 H       13.2980    -0.7210    -0.1950 H     1 <1>   0.4500 
 52 H       14.8480     1.6970    -0.9270 H     1 <1>   0.0800 
 53 H       14.8920     0.1670    -1.7780 H     1 <1>   0.0800 
 54 H       15.4940     0.2740    -0.1390 H     1 <1>   0.0800 
@<TRIPOS>BOND
  1   1   2  1   
  2   2   3  ar  
  3   2   4  ar  
  4   3   5  1   
  5   3   6  ar  
  6   4   7  ar  
  7   4  28  1   
  8   5   8  1   
  9   6   9  ar  
 10   6  29  1   
 11   7   9  ar  
 12   7  10  1   
 13   8  30  1   
 14   8  31  1   
 15   8  32  1   
 16   9  33  1   
 17  10  11  2   
 18  10  12  2   
 19  10  13  am  
 20  13  14  1   
 21  13  15  1   
 22  14  16  1   
 23  14  34  1   
 24  14  35  1   
 25  15  17  1   
 26  15  36  1   
 27  15  37  1   
 28  16  18  1   
 29  16  38  1   
 30  16  39  1   
 31  17  18  1   
 32  17  40  1   
 33  17  41  1   
 34  18  19  1   
 35  18  42  1   
 36  19  20  2   
 37  19  21  am  
 38  21  22  1   
 39  21  23  1   
 40  22  24  1   
 41  22  43  1   
 42  22  44  1   
 43  23  25  1   
 44  23  45  1   
 45  23  46  1   
 46  24  26  1   
 47  24  47  1   
 48  24  48  1   
 49  25  26  1   
 50  25  49  1   
 51  25  50  1   
 52  26  27  1   
 53  26  51  1   
 54  27  52  1   
 55  27  53  1   
 56  27  54  1   
@<TRIPOS>SUBSTRUCTURE
  1 ****  15 GROUP 4 **** **** 0

# MOE 2024.06 (io_trps.svl 2023.06)
