@<TRIPOS>MOLECULE
2-[5-(4-Methoxy-phenoxymethyl)-4-methyl-4H-[1,2,4]triazol-3-ylsulfanyl]-N-(2-met
56 58 1 0 0 
SMALL
USER_CHARGES


@<TRIPOS>ATOM
  1 S       -1.4920    -0.6430    -1.8980 S.3   1 <1>  -0.2860 
  2 C       -1.4580     0.5830    -0.5790 C.2   1 <1>   0.2420 
  3 C       -3.2490    -0.7420    -2.5050 C.3   1 <1>   0.1310 
  4 N       -1.0250     0.2960     0.5970 N.2   1 <1>  -0.3380 
  5 N       -1.8420     1.8560    -0.7090 N.pl3 1 <1>   0.0480 
  6 C       -4.2770    -0.1630    -1.5400 C.2   1 <1>   0.5690 
  7 N       -1.1430     1.4170     1.3140 N.2   1 <1>  -0.3380 
  8 C       -1.6250     2.3260     0.5310 C.2   1 <1>   0.0060 
  9 C       -2.3000     2.5970    -1.9050 C.3   1 <1>   0.0160 
 10 O       -4.8300     0.8590    -1.8590 O.2   1 <1>  -0.5700 
 11 N       -4.6230    -0.7630    -0.3760 N.am  1 <1>  -0.7300 
 12 C       -1.8830     3.7560     0.9750 C.3   1 <1>   0.3000 
 13 C       -4.0090    -1.9180     0.3100 C.3   1 <1>   0.2200 
 14 O       -3.1500     4.1800     0.5150 O.3   1 <1>  -0.3630 
 15 C       -4.9040    -3.1710     0.1830 C.3   1 <1>  -0.0800 
 16 C       -3.8180    -1.5370     1.7830 C.3   1 <1>  -0.1600 
 17 C       -3.5830     5.4490     0.7240 C.ar  1 <1>   0.0830 
 18 C       -4.3020    -4.3390     0.9880 C.3   1 <1>  -0.1600 
 19 C       -5.1130    -3.6140    -1.2740 C.3   1 <1>  -0.2400 
 20 C       -3.2090    -2.6980     2.5790 C.3   1 <1>  -0.1600 
 21 C       -2.8700     6.4060     1.4420 C.ar  1 <1>  -0.1500 
 22 C       -4.8110     5.7810     0.1750 C.ar  1 <1>  -0.1500 
 23 C       -4.0730    -3.9590     2.4570 C.3   1 <1>  -0.1600 
 24 C       -3.3910     7.6790     1.5950 C.ar  1 <1>  -0.1500 
 25 C       -5.3310     7.0550     0.3290 C.ar  1 <1>  -0.1500 
 26 C       -4.6170     8.0140     1.0430 C.ar  1 <1>   0.0830 
 27 O       -5.0490     9.2860     1.2420 O.3   1 <1>  -0.3630 
 28 C       -6.2890     9.7220     0.7320 C.3   1 <1>   0.0400 
 29 H       -3.4530    -1.7780    -2.6890 H     1 <1>   0.0800 
 30 H       -3.2820    -0.2060    -3.4340 H     1 <1>   0.0800 
 31 H       -2.2160     1.9790    -2.7790 H     1 <1>   0.0800 
 32 H       -1.6950     3.4750    -2.0330 H     1 <1>   0.0800 
 33 H       -3.3250     2.8900    -1.7720 H     1 <1>   0.0800 
 34 H       -5.3300    -0.2740     0.1750 H     1 <1>   0.3700 
 35 H       -1.1330     4.4070     0.5640 H     1 <1>   0.0800 
 36 H       -1.8760     3.8140     2.0490 H     1 <1>   0.0800 
 37 H       -3.0440    -2.1290    -0.1180 H     1 <1>   0.0800 
 38 H       -5.8660    -2.9400     0.6080 H     1 <1>   0.0800 
 39 H       -4.7660    -1.2760     2.2170 H     1 <1>   0.0800 
 40 H       -3.1680    -0.6840     1.8560 H     1 <1>   0.0800 
 41 H       -3.3610    -4.6280     0.5510 H     1 <1>   0.0800 
 42 H       -4.9600    -5.1890     0.9440 H     1 <1>   0.0800 
 43 H       -4.1710    -3.8440    -1.7390 H     1 <1>   0.0800 
 44 H       -5.6050    -2.8410    -1.8380 H     1 <1>   0.0800 
 45 H       -5.7340    -4.4920    -1.3090 H     1 <1>   0.0800 
 46 H       -3.1200    -2.4170     3.6140 H     1 <1>   0.0800 
 47 H       -2.2180    -2.9010     2.2080 H     1 <1>   0.0800 
 48 H       -1.9190     6.1880     1.8890 H     1 <1>   0.1500 
 49 H       -5.3580     5.0350    -0.3730 H     1 <1>   0.1500 
 50 H       -3.5920    -4.7740     2.9700 H     1 <1>   0.0800 
 51 H       -5.0230    -3.7860     2.9330 H     1 <1>   0.0800 
 52 H       -2.8490     8.4260     2.1460 H     1 <1>   0.1500 
 53 H       -6.2850     7.2780    -0.1090 H     1 <1>   0.1500 
 54 H       -6.4220    10.7510     1.0130 H     1 <1>   0.0800 
 55 H       -7.0730     9.1220     1.1600 H     1 <1>   0.0800 
 56 H       -6.2760     9.6340    -0.3400 H     1 <1>   0.0800 
@<TRIPOS>BOND
  1   1   2  1   
  2   1   3  1   
  3   2   4  2   
  4   2   5  1   
  5   3   6  1   
  6   3  29  1   
  7   3  30  1   
  8   4   7  1   
  9   5   8  1   
 10   5   9  1   
 11   6  10  2   
 12   6  11  am  
 13   7   8  2   
 14   8  12  1   
 15   9  31  1   
 16   9  32  1   
 17   9  33  1   
 18  11  13  1   
 19  11  34  1   
 20  12  14  1   
 21  12  35  1   
 22  12  36  1   
 23  13  15  1   
 24  13  16  1   
 25  13  37  1   
 26  14  17  1   
 27  15  18  1   
 28  15  19  1   
 29  15  38  1   
 30  16  20  1   
 31  16  39  1   
 32  16  40  1   
 33  17  21  ar  
 34  17  22  ar  
 35  18  23  1   
 36  18  41  1   
 37  18  42  1   
 38  19  43  1   
 39  19  44  1   
 40  19  45  1   
 41  20  23  1   
 42  20  46  1   
 43  20  47  1   
 44  21  24  ar  
 45  21  48  1   
 46  22  25  ar  
 47  22  49  1   
 48  23  50  1   
 49  23  51  1   
 50  24  26  ar  
 51  24  52  1   
 52  25  26  ar  
 53  25  53  1   
 54  26  27  1   
 55  27  28  1   
 56  28  54  1   
 57  28  55  1   
 58  28  56  1   
@<TRIPOS>SUBSTRUCTURE
  1 ****   5 GROUP 4 **** **** 0

# MOE 2024.06 (io_trps.svl 2023.06)
