@<TRIPOS>MOLECULE
6-Chloro-2-oxo-2H-chromene-3-carboxylic acid (3-morpholin-4-yl-propyl)-amide
44 46 1 0 0 
SMALL
USER_CHARGES


@<TRIPOS>ATOM
  1 CL       2.8520    -2.6520     3.1400 Cl    1 <1>  -0.1770 
  2 C        4.0970    -2.6070     1.9180 C.ar  1 <1>   0.1770 
  3 C        5.0550    -1.6170     1.9640 C.ar  1 <1>  -0.1500 
  4 C        4.0960    -3.5720     0.9230 C.ar  1 <1>  -0.1500 
  5 C        6.0550    -1.5710     0.9920 C.ar  1 <1>   0.0280 
  6 C        5.0810    -3.5390    -0.0470 C.ar  1 <1>  -0.1500 
  7 C        6.0520    -2.5470    -0.0130 C.ar  1 <1>   0.0830 
  8 C        7.0800    -0.5850     0.9650 C.2   1 <1>  -0.1780 
  9 O        7.0050    -2.5320    -0.9680 O.3   1 <1>  -0.2320 
 10 C        8.0280    -0.5900    -0.0130 C.2   1 <1>   0.0290 
 11 C        7.9830    -1.6220    -1.0180 C.2   1 <1>   0.7060 
 12 C        9.0990     0.3740    -0.0640 C.2   1 <1>   0.6160 
 13 O        8.7880    -1.7250    -1.9270 O.2   1 <1>  -0.5700 
 14 O        9.5700     0.8160     0.9640 O.2   1 <1>  -0.5700 
 15 N        9.6770     0.7710    -1.2410 N.am  1 <1>  -0.7300 
 16 C       10.6810     1.8500    -1.4370 C.3   1 <1>   0.1400 
 17 C       12.0640     1.5240    -0.8420 C.3   1 <1>  -0.1600 
 18 C       12.6580     0.1570    -1.2160 C.3   1 <1>   0.3430 
 19 N       11.9080    -0.9250    -0.5380 N.4   1 <1>  -0.9590 
 20 C       12.1260    -1.0260     0.9440 C.3   1 <1>   0.3430 
 21 C       11.9600    -2.2660    -1.2040 C.3   1 <1>   0.3430 
 22 C       11.1740    -2.0660     1.5800 C.3   1 <1>   0.1200 
 23 C       11.1430    -3.3190    -0.4160 C.3   1 <1>   0.1200 
 24 O       10.3950    -2.7240     0.6140 O.3   1 <1>  -0.5600 
 25 H        5.0260    -0.8850     2.7510 H     1 <1>   0.1500 
 26 H        3.3340    -4.3310     0.9170 H     1 <1>   0.1500 
 27 H        5.1010    -4.2780    -0.8290 H     1 <1>   0.1500 
 28 H        7.0830     0.1590     1.7450 H     1 <1>   0.1500 
 29 H        9.2850     0.3780    -2.1090 H     1 <1>   0.3700 
 30 H       10.3070     2.7560    -0.9860 H     1 <1>   0.0800 
 31 H       10.7810     2.0330    -2.4940 H     1 <1>   0.0800 
 32 H       12.0300     1.6430     0.2260 H     1 <1>   0.0800 
 33 H       12.7430     2.2780    -1.1990 H     1 <1>   0.0800 
 34 H       13.6960     0.1150    -0.9300 H     1 <1>   0.0800 
 35 H       12.5960     0.0310    -2.2850 H     1 <1>   0.0800 
 36 H       10.9180    -0.6420    -0.6220 H     1 <1>   0.4500 
 37 H       11.9470    -0.0720     1.4120 H     1 <1>   0.0800 
 38 H       13.1450    -1.3060     1.1500 H     1 <1>   0.0800 
 39 H       12.9800    -2.6020    -1.2910 H     1 <1>   0.0800 
 40 H       11.5530    -2.1910    -2.1990 H     1 <1>   0.0800 
 41 H       10.5000    -1.5740     2.2600 H     1 <1>   0.0800 
 42 H       11.7310    -2.8020     2.1340 H     1 <1>   0.0800 
 43 H       11.7940    -4.0600     0.0160 H     1 <1>   0.0800 
 44 H       10.4560    -3.8190    -1.0770 H     1 <1>   0.0800 
@<TRIPOS>BOND
  1   1   2  1   
  2   2   3  ar  
  3   2   4  ar  
  4   3   5  ar  
  5   3  25  1   
  6   4   6  ar  
  7   4  26  1   
  8   5   7  ar  
  9   5   8  1   
 10   6   7  ar  
 11   6  27  1   
 12   7   9  1   
 13   8  10  2   
 14   8  28  1   
 15   9  11  1   
 16  10  11  1   
 17  10  12  1   
 18  11  13  2   
 19  12  14  2   
 20  12  15  am  
 21  15  16  1   
 22  15  29  1   
 23  16  17  1   
 24  16  30  1   
 25  16  31  1   
 26  17  18  1   
 27  17  32  1   
 28  17  33  1   
 29  18  19  1   
 30  18  34  1   
 31  18  35  1   
 32  19  20  1   
 33  19  21  1   
 34  19  36  1   
 35  20  22  1   
 36  20  37  1   
 37  20  38  1   
 38  21  23  1   
 39  21  39  1   
 40  21  40  1   
 41  22  24  1   
 42  22  41  1   
 43  22  42  1   
 44  23  24  1   
 45  23  43  1   
 46  23  44  1   
@<TRIPOS>SUBSTRUCTURE
  1 ****  10 GROUP 4 **** **** 0

# MOE 2024.06 (io_trps.svl 2023.06)
