@<TRIPOS>MOLECULE
3-[3-(3,4,5-Trimethoxy-phenyl)-[1,2,4]oxadiazol-5-yl]-propionic acid
37 38 1 0 0 
SMALL
USER_CHARGES


@<TRIPOS>ATOM
  1 O       -0.1110    -0.8080     1.0560 O.co2 1 <1>  -0.9000 
  2 C        0.1790    -1.7670     0.3380 C.2   1 <1>   0.9060 
  3 O        1.0300    -1.7140    -0.5520 O.co2 1 <1>  -0.9000 
  4 C       -0.5690    -3.0560     0.5240 C.3   1 <1>  -0.2660 
  5 C       -1.5350    -3.2670    -0.6480 C.3   1 <1>   0.0200 
  6 C       -2.3100    -4.5660    -0.5290 C.2   1 <1>   0.2980 
  7 O       -1.6540    -5.6980    -0.5640 O.3   1 <1>  -0.0190 
  8 N       -3.5690    -4.6740    -0.4040 N.2   1 <1>  -0.5650 
  9 N       -2.5760    -6.6030    -0.4470 N.2   1 <1>  -0.4100 
 10 C       -3.7080    -6.0000    -0.3500 C.2   1 <1>   0.4620 
 11 C       -5.0020    -6.6480    -0.2010 C.ar  1 <1>   0.0540 
 12 C       -5.1110    -8.0390    -0.1600 C.ar  1 <1>  -0.1500 
 13 C       -6.1800    -5.9110    -0.0900 C.ar  1 <1>  -0.1500 
 14 C       -6.3390    -8.6770    -0.0240 C.ar  1 <1>   0.0820 
 15 C       -7.4140    -6.5180     0.0550 C.ar  1 <1>   0.0820 
 16 O       -6.4560   -10.0370     0.0160 O.3   1 <1>  -0.3630 
 17 C       -7.5040    -7.9130     0.0720 C.ar  1 <1>   0.0820 
 18 O       -8.4840    -5.6840     0.1640 O.3   1 <1>  -0.3630 
 19 C       -5.3240   -10.8740     0.1020 C.3   1 <1>   0.0400 
 20 O       -8.7100    -8.5320     0.1730 O.3   1 <1>  -0.3630 
 21 C       -9.4290    -5.9200     1.1850 C.3   1 <1>   0.0400 
 22 C       -9.2590    -8.9820    -1.0430 C.3   1 <1>   0.0400 
 23 H       -1.1080    -3.0120     1.4510 H     1 <1>   0.0800 
 24 H        0.1490    -3.8520     0.5710 H     1 <1>   0.0800 
 25 H       -0.9810    -3.2740    -1.5700 H     1 <1>   0.0800 
 26 H       -2.2260    -2.4440    -0.6850 H     1 <1>   0.0800 
 27 H       -4.2070    -8.6110    -0.2420 H     1 <1>   0.1500 
 28 H       -6.1400    -4.8370    -0.1140 H     1 <1>   0.1500 
 29 H       -5.6670   -11.8890     0.1990 H     1 <1>   0.0800 
 30 H       -4.7420   -10.7710    -0.7960 H     1 <1>   0.0800 
 31 H       -4.7500   -10.5990     0.9700 H     1 <1>   0.0800 
 32 H       -9.9270    -4.9920     1.4010 H     1 <1>   0.0800 
 33 H       -8.9210    -6.2800     2.0620 H     1 <1>   0.0800 
 34 H      -10.1450    -6.6430     0.8390 H     1 <1>   0.0800 
 35 H       -8.5990    -9.7110    -1.4770 H     1 <1>   0.0800 
 36 H      -10.2150    -9.4260    -0.8370 H     1 <1>   0.0800 
 37 H       -9.3750    -8.1390    -1.7020 H     1 <1>   0.0800 
@<TRIPOS>BOND
  1   1   2  ar  
  2   2   3  ar  
  3   2   4  1   
  4   4   5  1   
  5   4  23  1   
  6   4  24  1   
  7   5   6  1   
  8   5  25  1   
  9   5  26  1   
 10   6   7  1   
 11   6   8  2   
 12   7   9  1   
 13   8  10  1   
 14   9  10  2   
 15  10  11  1   
 16  11  12  ar  
 17  11  13  ar  
 18  12  14  ar  
 19  12  27  1   
 20  13  15  ar  
 21  13  28  1   
 22  14  16  1   
 23  14  17  ar  
 24  15  17  ar  
 25  15  18  1   
 26  16  19  1   
 27  17  20  1   
 28  18  21  1   
 29  19  29  1   
 30  19  30  1   
 31  19  31  1   
 32  20  22  1   
 33  21  32  1   
 34  21  33  1   
 35  21  34  1   
 36  22  35  1   
 37  22  36  1   
 38  22  37  1   
@<TRIPOS>SUBSTRUCTURE
  1 ****  11 GROUP 4 **** **** 0

# MOE 2024.06 (io_trps.svl 2023.06)
