@<TRIPOS>MOLECULE
1-(4-Methoxy-3-methyl-benzenesulfonyl)-piperidine-4-carboxylic acid benzo[1,3]di
54 57 1 0 0 
SMALL
USER_CHARGES


@<TRIPOS>ATOM
  1 S       -0.2400     0.2760     2.4140 S.o2  1 <1>   1.4470 
  2 O        0.4070    -0.7030     3.2630 O.2   1 <1>  -0.6500 
  3 O       -1.0280     1.3240     3.0230 O.2   1 <1>  -0.6500 
  4 N        0.9980     1.0260     1.5280 N.am  1 <1>  -0.8490 
  5 C       -1.2260    -0.5550     1.1380 C.ar  1 <1>  -0.0090 
  6 C        1.9430     0.0520     0.9730 C.3   1 <1>   0.1960 
  7 C        1.6780     2.0490     2.3260 C.3   1 <1>   0.1960 
  8 C       -1.5620     0.0960    -0.0430 C.ar  1 <1>  -0.1500 
  9 C       -1.6740    -1.8590     1.3090 C.ar  1 <1>  -0.1500 
 10 C        2.9460     0.7540     0.0560 C.3   1 <1>  -0.1600 
 11 C        2.6840     2.8140     1.4610 C.3   1 <1>  -0.1600 
 12 C       -2.3090    -0.5240    -1.0310 C.ar  1 <1>  -0.1430 
 13 C       -2.4230    -2.4950     0.3360 C.ar  1 <1>  -0.1500 
 14 C        3.7010     1.8660     0.8040 C.3   1 <1>  -0.0190 
 15 C       -2.7450    -1.8320    -0.8450 C.ar  1 <1>   0.0820 
 16 C       -2.6460     0.2310    -2.3090 C.3   1 <1>  -0.0970 
 17 C        4.6580     2.6220    -0.1190 C.2   1 <1>   0.5690 
 18 O       -3.4740    -2.4040    -1.8380 O.3   1 <1>  -0.3630 
 19 O        4.2140     3.1510    -1.1080 O.2   1 <1>  -0.5700 
 20 N        5.9830     2.6510     0.2250 N.am  1 <1>  -0.5470 
 21 C       -3.9850    -3.7140    -1.7260 C.3   1 <1>   0.0400 
 22 C        7.0860     3.2590    -0.4000 C.ar  1 <1>   0.1170 
 23 C        8.3570     2.7640    -0.1120 C.ar  1 <1>  -0.1500 
 24 C        6.9620     4.3440    -1.2770 C.ar  1 <1>  -0.1500 
 25 C        9.4500     3.3580    -0.7070 C.ar  1 <1>   0.0820 
 26 C        8.0740     4.9290    -1.8690 C.ar  1 <1>  -0.1500 
 27 O       10.7420     3.0400    -0.5700 O.3   1 <1>  -0.3620 
 28 C        9.3150     4.4110    -1.5630 C.ar  1 <1>   0.0820 
 29 C       11.4760     3.9450    -1.3930 C.3   1 <1>   0.4000 
 30 O       10.5160     4.8060    -2.0050 O.3   1 <1>  -0.3620 
 31 H        1.4090    -0.6880     0.4010 H     1 <1>   0.0800 
 32 H        2.4650    -0.4520     1.7710 H     1 <1>   0.0800 
 33 H        2.1750     1.5890     3.1640 H     1 <1>   0.0800 
 34 H        0.9550     2.7520     2.7090 H     1 <1>   0.0800 
 35 H       -1.2260     1.1100    -0.1830 H     1 <1>   0.1500 
 36 H       -1.4320    -2.3840     2.2190 H     1 <1>   0.1500 
 37 H        2.4140     1.1720    -0.7820 H     1 <1>   0.0800 
 38 H        3.6460     0.0330    -0.3280 H     1 <1>   0.0800 
 39 H        3.1990     3.5370     2.0690 H     1 <1>   0.0800 
 40 H        2.1450     3.3520     0.7010 H     1 <1>   0.0800 
 41 H       -2.7450    -3.5030     0.5150 H     1 <1>   0.1500 
 42 H        4.2760     1.4040     1.5870 H     1 <1>   0.0800 
 43 H       -2.2190     1.2170    -2.3040 H     1 <1>   0.0800 
 44 H       -3.7130     0.3180    -2.4080 H     1 <1>   0.0800 
 45 H       -2.2650    -0.3040    -3.1600 H     1 <1>   0.0800 
 46 H        6.2250     2.1090     1.0500 H     1 <1>   0.3700 
 47 H       -4.5320    -3.9350    -2.6250 H     1 <1>   0.0800 
 48 H       -4.6430    -3.7600    -0.8770 H     1 <1>   0.0800 
 49 H       -3.1650    -4.4010    -1.6200 H     1 <1>   0.0800 
 50 H        8.5020     1.9350     0.5530 H     1 <1>   0.1500 
 51 H        5.9910     4.7430    -1.5030 H     1 <1>   0.1500 
 52 H        7.9820     5.7600    -2.5450 H     1 <1>   0.1500 
 53 H       12.0030     3.3960    -2.1530 H     1 <1>   0.0800 
 54 H       12.1450     4.5260    -0.7840 H     1 <1>   0.0800 
@<TRIPOS>BOND
  1   1   2  2   
  2   1   3  2   
  3   1   4  am  
  4   1   5  1   
  5   4   6  1   
  6   4   7  1   
  7   5   8  ar  
  8   5   9  ar  
  9   6  10  1   
 10   6  31  1   
 11   6  32  1   
 12   7  11  1   
 13   7  33  1   
 14   7  34  1   
 15   8  12  ar  
 16   8  35  1   
 17   9  13  ar  
 18   9  36  1   
 19  10  14  1   
 20  10  37  1   
 21  10  38  1   
 22  11  14  1   
 23  11  39  1   
 24  11  40  1   
 25  12  15  ar  
 26  12  16  1   
 27  13  15  ar  
 28  13  41  1   
 29  14  17  1   
 30  14  42  1   
 31  15  18  1   
 32  16  43  1   
 33  16  44  1   
 34  16  45  1   
 35  17  19  2   
 36  17  20  am  
 37  18  21  1   
 38  20  22  1   
 39  20  46  1   
 40  21  47  1   
 41  21  48  1   
 42  21  49  1   
 43  22  23  ar  
 44  22  24  ar  
 45  23  25  ar  
 46  23  50  1   
 47  24  26  ar  
 48  24  51  1   
 49  25  27  1   
 50  25  28  ar  
 51  26  28  ar  
 52  26  52  1   
 53  27  29  1   
 54  28  30  1   
 55  29  30  1   
 56  29  53  1   
 57  29  54  1   
@<TRIPOS>SUBSTRUCTURE
  1 ****  10 GROUP 4 **** **** 0

# MOE 2024.06 (io_trps.svl 2023.06)
