@<TRIPOS>MOLECULE
2-(3-Acetyl-7-ethyl-indol-1-yl)-1-pyrrolidin-1-yl-ethanone
44 46 1 0 0 
SMALL
USER_CHARGES


@<TRIPOS>ATOM
  1 O        1.0740     2.3410     1.8630 O.2   1 <1>  -0.5700 
  2 C        1.2880     2.0460     0.7100 C.2   1 <1>   0.5690 
  3 N        2.2900     1.1650     0.3880 N.am  1 <1>  -0.6600 
  4 C        0.4540     2.6930    -0.3860 C.3   1 <1>   0.1570 
  5 C        3.0890     0.4860     1.4320 C.3   1 <1>   0.1400 
  6 C        2.8000     0.8380    -0.9640 C.3   1 <1>   0.1400 
  7 N       -0.9800     2.8190    -0.0320 N.pl3 1 <1>   0.0480 
  8 C        3.9820    -0.4860     0.6710 C.3   1 <1>  -0.1600 
  9 C        4.1280     0.1320    -0.7170 C.3   1 <1>  -0.1600 
 10 C       -2.0340     1.9410    -0.2510 C.ar  1 <1>  -0.1520 
 11 C       -1.5040     4.0030     0.3560 C.2   1 <1>  -0.3020 
 12 C       -2.0780     0.5820    -0.6330 C.ar  1 <1>  -0.1440 
 13 C       -3.2180     2.6500    -0.0200 C.ar  1 <1>   0.0000 
 14 C       -2.8670     3.9640     0.4080 C.2   1 <1>  -0.0860 
 15 C       -3.3160     0.0050    -0.8380 C.ar  1 <1>  -0.1500 
 16 C       -0.7920    -0.2300    -0.7960 C.3   1 <1>  -0.0170 
 17 C       -4.4530     2.0340    -0.2520 C.ar  1 <1>  -0.1500 
 18 C       -3.7160     5.0490     0.8180 C.2   1 <1>   0.5950 
 19 C       -4.4960     0.7250    -0.6580 C.ar  1 <1>  -0.1500 
 20 C       -0.9610    -1.7440    -0.9740 C.3   1 <1>  -0.2400 
 21 O       -3.3550     6.2010     0.8110 O.2   1 <1>  -0.5700 
 22 C       -5.1200     4.7950     1.3220 C.3   1 <1>  -0.1790 
 23 H        0.5310     2.1490    -1.3030 H     1 <1>   0.0800 
 24 H        0.8460     3.6770    -0.5570 H     1 <1>   0.0800 
 25 H        2.4500    -0.0220     2.1340 H     1 <1>   0.0800 
 26 H        3.6810     1.2200     1.9520 H     1 <1>   0.0800 
 27 H        2.9350     1.7260    -1.5580 H     1 <1>   0.0800 
 28 H        2.1140     0.1670    -1.4510 H     1 <1>   0.0800 
 29 H        3.4820    -1.4360     0.5990 H     1 <1>   0.0800 
 30 H        4.9300    -0.6250     1.1610 H     1 <1>   0.0800 
 31 H        4.9180     0.8630    -0.7080 H     1 <1>   0.0800 
 32 H        4.3400    -0.6030    -1.4730 H     1 <1>   0.0800 
 33 H       -0.8890     4.8550     0.5930 H     1 <1>   0.1500 
 34 H       -3.4180    -1.0200    -1.1420 H     1 <1>   0.1500 
 35 H       -0.1950    -0.0840     0.0850 H     1 <1>   0.0800 
 36 H       -0.2550     0.1440    -1.6470 H     1 <1>   0.0800 
 37 H       -5.3680     2.5760    -0.1240 H     1 <1>   0.1500 
 38 H       -5.4390     0.2400    -0.8380 H     1 <1>   0.1500 
 39 H       -1.5140    -2.1560    -0.1480 H     1 <1>   0.0800 
 40 H        0.0040    -2.2170    -1.0060 H     1 <1>   0.0800 
 41 H       -1.4750    -1.9620    -1.8930 H     1 <1>   0.0800 
 42 H       -5.1630     3.8590     1.8460 H     1 <1>   0.0800 
 43 H       -5.8040     4.7910     0.4950 H     1 <1>   0.0800 
 44 H       -5.4030     5.5780     2.0010 H     1 <1>   0.0800 
@<TRIPOS>BOND
  1   1   2  2   
  2   2   3  am  
  3   2   4  1   
  4   3   5  1   
  5   3   6  1   
  6   4   7  1   
  7   4  23  1   
  8   4  24  1   
  9   5   8  1   
 10   5  25  1   
 11   5  26  1   
 12   6   9  1   
 13   6  27  1   
 14   6  28  1   
 15   7  10  1   
 16   7  11  1   
 17   8   9  1   
 18   8  29  1   
 19   8  30  1   
 20   9  31  1   
 21   9  32  1   
 22  10  12  ar  
 23  10  13  ar  
 24  11  14  2   
 25  11  33  1   
 26  12  15  ar  
 27  12  16  1   
 28  13  14  1   
 29  13  17  ar  
 30  14  18  1   
 31  15  19  ar  
 32  15  34  1   
 33  16  20  1   
 34  16  35  1   
 35  16  36  1   
 36  17  19  ar  
 37  17  37  1   
 38  18  21  2   
 39  18  22  1   
 40  19  38  1   
 41  20  39  1   
 42  20  40  1   
 43  20  41  1   
 44  22  42  1   
 45  22  43  1   
 46  22  44  1   
@<TRIPOS>SUBSTRUCTURE
  1 ****   7 GROUP 4 **** **** 0

# MOE 2024.06 (io_trps.svl 2023.06)
