@<TRIPOS>MOLECULE
N-(2-Cyclohexyl-1,2,3,4-tetrahydro-benzo[4,5]imidazo[1,2-a]pyrazin-8-yl)-acetami
48 51 1 0 0 
SMALL
USER_CHARGES


@<TRIPOS>ATOM
  1 O        0.1680     0.8250     1.2430 O.2   1 <1>  -0.5700 
  2 C        0.3770     1.6190     0.3610 C.2   1 <1>   0.5690 
  3 N        1.5960     1.8270    -0.2170 N.am  1 <1>  -0.5470 
  4 C       -0.7740     2.4540    -0.1400 C.3   1 <1>  -0.1790 
  5 C        2.8460     1.2210     0.0130 C.ar  1 <1>   0.1170 
  6 C        3.9910     1.9000    -0.3570 C.ar  1 <1>  -0.1500 
  7 C        2.9680    -0.0570     0.5900 C.ar  1 <1>  -0.1500 
  8 C        5.2390     1.3210    -0.1490 C.ar  1 <1>   0.2270 
  9 C        4.1970    -0.6380     0.8030 C.ar  1 <1>  -0.1500 
 10 N        6.4780     1.8100    -0.4440 N.2   1 <1>  -0.5650 
 11 C        5.3400     0.0700     0.4280 C.ar  1 <1>  -0.1520 
 12 C        7.2820     0.8890    -0.0500 C.2   1 <1>   0.0060 
 13 N        6.6690    -0.1940     0.4920 N.pl3 1 <1>   0.0480 
 14 C        8.7920     0.9540    -0.1650 C.3   1 <1>   0.5230 
 15 C        7.3260    -1.4580     0.8690 C.3   1 <1>   0.0960 
 16 N        9.3520    -0.4340    -0.2650 N.4   1 <1>  -0.9590 
 17 C        8.8570    -1.2930     0.8730 C.3   1 <1>   0.3430 
 18 C       10.8320    -0.4000    -0.4390 C.3   1 <1>   0.4230 
 19 C       11.3250    -1.7570    -0.9580 C.3   1 <1>  -0.1600 
 20 C       11.5710     0.0000     0.8510 C.3   1 <1>  -0.1600 
 21 C       12.8420    -1.7280    -1.1970 C.3   1 <1>  -0.1600 
 22 C       13.0880     0.0350     0.6130 C.3   1 <1>  -0.1600 
 23 C       13.5970    -1.3070     0.0700 C.3   1 <1>  -0.1600 
 24 H        1.6200     2.5820    -0.8990 H     1 <1>   0.3700 
 25 H       -0.5850     3.4910     0.0620 H     1 <1>   0.0800 
 26 H       -1.6780     2.1620     0.3630 H     1 <1>   0.0800 
 27 H       -0.9010     2.3060    -1.1950 H     1 <1>   0.0800 
 28 H        3.9510     2.8750    -0.8020 H     1 <1>   0.1500 
 29 H        2.0790    -0.5940     0.8690 H     1 <1>   0.1500 
 30 H        4.2710    -1.6140     1.2500 H     1 <1>   0.1500 
 31 H        9.1840     1.4550     0.7050 H     1 <1>   0.0800 
 32 H        9.0520     1.5330    -1.0360 H     1 <1>   0.0800 
 33 H        7.0390    -2.2150     0.1620 H     1 <1>   0.0800 
 34 H        6.9830    -1.7590     1.8430 H     1 <1>   0.0800 
 35 H        8.9650    -0.8130    -1.1400 H     1 <1>   0.4500 
 36 H        9.3100    -2.2700     0.8280 H     1 <1>   0.0800 
 37 H        9.1490    -0.8450     1.8090 H     1 <1>   0.0800 
 38 H       11.0720     0.3330    -1.1930 H     1 <1>   0.0800 
 39 H       10.8370    -1.9960    -1.8860 H     1 <1>   0.0800 
 40 H       11.1150    -2.5340    -0.2460 H     1 <1>   0.0800 
 41 H       11.3780    -0.7090     1.6360 H     1 <1>   0.0800 
 42 H       11.2600     0.9750     1.1800 H     1 <1>   0.0800 
 43 H       13.0720    -1.0390    -1.9930 H     1 <1>   0.0800 
 44 H       13.1800    -2.7030    -1.5060 H     1 <1>   0.0800 
 45 H       13.5960     0.2610     1.5360 H     1 <1>   0.0800 
 46 H       13.3300     0.8170    -0.0890 H     1 <1>   0.0800 
 47 H       14.6490    -1.2290    -0.1490 H     1 <1>   0.0800 
 48 H       13.4820    -2.0670     0.8260 H     1 <1>   0.0800 
@<TRIPOS>BOND
  1   1   2  2   
  2   2   3  am  
  3   2   4  1   
  4   3   5  1   
  5   3  24  1   
  6   4  25  1   
  7   4  26  1   
  8   4  27  1   
  9   5   6  ar  
 10   5   7  ar  
 11   6   8  ar  
 12   6  28  1   
 13   7   9  ar  
 14   7  29  1   
 15   8  10  1   
 16   8  11  ar  
 17   9  11  ar  
 18   9  30  1   
 19  10  12  2   
 20  11  13  1   
 21  12  13  1   
 22  12  14  1   
 23  13  15  1   
 24  14  16  1   
 25  14  31  1   
 26  14  32  1   
 27  15  17  1   
 28  15  33  1   
 29  15  34  1   
 30  16  17  1   
 31  16  18  1   
 32  16  35  1   
 33  17  36  1   
 34  17  37  1   
 35  18  19  1   
 36  18  20  1   
 37  18  38  1   
 38  19  21  1   
 39  19  39  1   
 40  19  40  1   
 41  20  22  1   
 42  20  41  1   
 43  20  42  1   
 44  21  23  1   
 45  21  43  1   
 46  21  44  1   
 47  22  23  1   
 48  22  45  1   
 49  22  46  1   
 50  23  47  1   
 51  23  48  1   
@<TRIPOS>SUBSTRUCTURE
  1 ****  13 GROUP 4 **** **** 0

# MOE 2024.06 (io_trps.svl 2023.06)
