@<TRIPOS>MOLECULE
N-[1-(3-Phenyl-[1,2,4]oxadiazol-5-yl)-ethyl]-propionamide
33 34 1 0 0 
SMALL
USER_CHARGES


@<TRIPOS>ATOM
  1 O       -1.7310    -0.2260    -2.1640 O.2   1 <1>  -0.5700 
  2 C       -2.2720    -0.3540    -1.0970 C.2   1 <1>   0.5690 
  3 N       -3.6130    -0.5040    -1.0590 N.am  1 <1>  -0.7300 
  4 C       -1.4520    -0.3440     0.1910 C.3   1 <1>  -0.0990 
  5 C       -4.5000    -0.7120     0.1040 C.3   1 <1>   0.4000 
  6 C        0.0700    -0.2730    -0.0200 C.3   1 <1>  -0.2400 
  7 C       -4.8530    -2.1950     0.2590 C.2   1 <1>   0.2980 
  8 C       -5.7260     0.1800    -0.0940 C.3   1 <1>  -0.2400 
  9 O       -3.9190    -2.9910     0.7110 O.3   1 <1>  -0.0190 
 10 N       -5.9650    -2.7590     0.0020 N.2   1 <1>  -0.5650 
 11 N       -4.4820    -4.1570     0.7460 N.2   1 <1>  -0.4100 
 12 C       -5.6900    -4.0280     0.3230 C.2   1 <1>   0.4620 
 13 C       -6.6640    -5.1000     0.1960 C.ar  1 <1>   0.0540 
 14 C       -6.3410    -6.4150     0.5360 C.ar  1 <1>  -0.1500 
 15 C       -7.9610    -4.8650    -0.2680 C.ar  1 <1>  -0.1500 
 16 C       -7.2600    -7.4420     0.4190 C.ar  1 <1>  -0.1500 
 17 C       -8.8850    -5.8860    -0.3870 C.ar  1 <1>  -0.1500 
 18 C       -8.5360    -7.1790    -0.0430 C.ar  1 <1>  -0.1500 
 19 H       -4.0700    -0.5700    -1.9700 H     1 <1>   0.3700 
 20 H       -1.6760    -1.2380     0.7430 H     1 <1>   0.0800 
 21 H       -1.7570     0.5020     0.7780 H     1 <1>   0.0800 
 22 H       -3.9980    -0.3970     1.0010 H     1 <1>   0.0800 
 23 H        0.4040    -1.1190    -0.5960 H     1 <1>   0.0800 
 24 H        0.5810    -0.2750     0.9260 H     1 <1>   0.0800 
 25 H        0.3300     0.6250    -0.5530 H     1 <1>   0.0800 
 26 H       -6.2600    -0.1040    -0.9830 H     1 <1>   0.0800 
 27 H       -5.4290     1.2110    -0.1680 H     1 <1>   0.0800 
 28 H       -6.3890     0.0760     0.7460 H     1 <1>   0.0800 
 29 H       -5.3520    -6.6390     0.8970 H     1 <1>   0.1500 
 30 H       -8.2510    -3.8650    -0.5410 H     1 <1>   0.1500 
 31 H       -6.9820    -8.4470     0.6880 H     1 <1>   0.1500 
 32 H       -9.8770    -5.6760    -0.7480 H     1 <1>   0.1500 
 33 H       -9.2540    -7.9770    -0.1350 H     1 <1>   0.1500 
@<TRIPOS>BOND
  1   1   2  2   
  2   2   3  am  
  3   2   4  1   
  4   3   5  1   
  5   3  19  1   
  6   4   6  1   
  7   4  20  1   
  8   4  21  1   
  9   5   7  1   
 10   5   8  1   
 11   5  22  1   
 12   6  23  1   
 13   6  24  1   
 14   6  25  1   
 15   7   9  1   
 16   7  10  2   
 17   8  26  1   
 18   8  27  1   
 19   8  28  1   
 20   9  11  1   
 21  10  12  1   
 22  11  12  2   
 23  12  13  1   
 24  13  14  ar  
 25  13  15  ar  
 26  14  16  ar  
 27  14  29  1   
 28  15  17  ar  
 29  15  30  1   
 30  16  18  ar  
 31  16  31  1   
 32  17  18  ar  
 33  17  32  1   
 34  18  33  1   
@<TRIPOS>SUBSTRUCTURE
  1 ****   7 GROUP 4 **** **** 0

# MOE 2024.06 (io_trps.svl 2023.06)
