@<TRIPOS>MOLECULE
3-[3-(4-Chloro-phenyl)-[1,2,4]oxadiazol-5-yl]-N-isopropyl-propionamide
36 37 1 0 0 
SMALL
USER_CHARGES


@<TRIPOS>ATOM
  1 CL       0.0740     0.4700     0.5400 Cl    1 <1>  -0.1770 
  2 C        1.6090     1.2980     0.5250 C.ar  1 <1>   0.1770 
  3 C        1.6440     2.6630     0.3140 C.ar  1 <1>  -0.1500 
  4 C        2.7720     0.5810     0.7230 C.ar  1 <1>  -0.1500 
  5 C        2.8650     3.3150     0.3020 C.ar  1 <1>  -0.1500 
  6 C        3.9870     1.2450     0.7100 C.ar  1 <1>  -0.1500 
  7 C        4.0660     2.6250     0.4990 C.ar  1 <1>   0.0540 
  8 C        5.3490     3.3100     0.4870 C.2   1 <1>   0.4620 
  9 N        6.4980     2.7550     0.6500 N.2   1 <1>  -0.4100 
 10 N        5.4630     4.6290     0.2990 N.2   1 <1>  -0.5650 
 11 O        7.4020     3.6800     0.5760 O.3   1 <1>  -0.0190 
 12 C        6.7200     4.7740     0.3640 C.2   1 <1>   0.2980 
 13 C        7.4730     6.0810     0.2190 C.3   1 <1>   0.0200 
 14 C        8.2890     6.1120    -1.0790 C.3   1 <1>  -0.0990 
 15 C        9.1190     7.3750    -1.1540 C.2   1 <1>   0.5690 
 16 O        8.6600     8.3310    -1.7210 O.2   1 <1>  -0.5700 
 17 N       10.3450     7.4550    -0.5890 N.am  1 <1>  -0.7300 
 18 C       11.1040     6.4610     0.1780 C.3   1 <1>   0.2200 
 19 C       11.5340     7.1060     1.4910 C.3   1 <1>  -0.2400 
 20 C       12.3100     6.0390    -0.6530 C.3   1 <1>  -0.2400 
 21 H        0.7270     3.2030     0.1610 H     1 <1>   0.1500 
 22 H        2.7230    -0.4800     0.8860 H     1 <1>   0.1500 
 23 H        2.8870     4.3790     0.1370 H     1 <1>   0.1500 
 24 H        4.8920     0.6820     0.8650 H     1 <1>   0.1500 
 25 H        8.1190     6.2030     1.0690 H     1 <1>   0.0800 
 26 H        6.7700     6.8960     0.2160 H     1 <1>   0.0800 
 27 H        7.6190     6.0910    -1.9190 H     1 <1>   0.0800 
 28 H        8.9270     5.2520    -1.1520 H     1 <1>   0.0800 
 29 H       10.8200     8.3500    -0.7220 H     1 <1>   0.3700 
 30 H       10.4950     5.5990     0.3910 H     1 <1>   0.0800 
 31 H       12.1590     7.9620     1.3100 H     1 <1>   0.0800 
 32 H       12.0880     6.3990     2.0810 H     1 <1>   0.0800 
 33 H       10.6700     7.4100     2.0540 H     1 <1>   0.0800 
 34 H       12.9410     6.8830    -0.8670 H     1 <1>   0.0800 
 35 H       11.9840     5.5970    -1.5770 H     1 <1>   0.0800 
 36 H       12.8880     5.3080    -0.1160 H     1 <1>   0.0800 
@<TRIPOS>BOND
  1   1   2  1   
  2   2   3  ar  
  3   2   4  ar  
  4   3   5  ar  
  5   3  21  1   
  6   4   6  ar  
  7   4  22  1   
  8   5   7  ar  
  9   5  23  1   
 10   6   7  ar  
 11   6  24  1   
 12   7   8  1   
 13   8   9  2   
 14   8  10  1   
 15   9  11  1   
 16  10  12  2   
 17  11  12  1   
 18  12  13  1   
 19  13  14  1   
 20  13  25  1   
 21  13  26  1   
 22  14  15  1   
 23  14  27  1   
 24  14  28  1   
 25  15  16  2   
 26  15  17  am  
 27  17  18  1   
 28  17  29  1   
 29  18  19  1   
 30  18  20  1   
 31  18  30  1   
 32  19  31  1   
 33  19  32  1   
 34  19  33  1   
 35  20  34  1   
 36  20  35  1   
 37  20  36  1   
@<TRIPOS>SUBSTRUCTURE
  1 ****  12 GROUP 4 **** **** 0

# MOE 2024.06 (io_trps.svl 2023.06)
