@<TRIPOS>MOLECULE
2-Chloro-N-cyclohexyl-N-isopropyl-acetamide
34 34 1 0 0 
SMALL
USER_CHARGES


@<TRIPOS>ATOM
  1 CL      -1.1850    -0.0610     0.5560 Cl    1 <1>  -0.2900 
  2 C       -0.2370     1.4060     0.3160 C.3   1 <1>   0.1910 
  3 C       -0.9770     2.3950    -0.5750 C.2   1 <1>   0.5690 
  4 O       -0.9270     2.2450    -1.7740 O.2   1 <1>  -0.5700 
  5 N       -1.6720     3.4340    -0.0120 N.am  1 <1>  -0.6600 
  6 C       -3.1520     3.5050    -0.3020 C.3   1 <1>   0.2200 
  7 C       -0.9590     4.7380     0.1910 C.3   1 <1>   0.2200 
  8 C       -3.8840     4.4950     0.6300 C.3   1 <1>  -0.1600 
  9 C       -3.7940     2.1060    -0.1720 C.3   1 <1>  -0.1600 
 10 C       -0.9050     5.5190    -1.1240 C.3   1 <1>  -0.2400 
 11 C        0.4560     4.5460     0.7440 C.3   1 <1>  -0.2400 
 12 C       -5.4040     4.5040     0.4120 C.3   1 <1>  -0.1600 
 13 C       -5.3120     2.1250    -0.3960 C.3   1 <1>  -0.1600 
 14 C       -5.9990     3.1020     0.5610 C.3   1 <1>  -0.1600 
 15 H        0.6910     1.1200    -0.1410 H     1 <1>   0.0800 
 16 H       -0.0580     1.8250     1.2870 H     1 <1>   0.0800 
 17 H       -3.2790     3.8340    -1.3200 H     1 <1>   0.0800 
 18 H       -1.4860     5.3210     0.9240 H     1 <1>   0.0800 
 19 H       -3.6780     4.2330     1.6530 H     1 <1>   0.0800 
 20 H       -3.5410     5.4970     0.4520 H     1 <1>   0.0800 
 21 H       -3.5920     1.7150     0.8100 H     1 <1>   0.0800 
 22 H       -3.3710     1.4360    -0.8990 H     1 <1>   0.0800 
 23 H       -0.3820     4.9570    -1.8770 H     1 <1>   0.0800 
 24 H       -0.3910     6.4520    -0.9780 H     1 <1>   0.0800 
 25 H       -1.8950     5.7400    -1.4780 H     1 <1>   0.0800 
 26 H        1.0850     4.0280     0.0430 H     1 <1>   0.0800 
 27 H        0.4220     4.0150     1.6780 H     1 <1>   0.0800 
 28 H        0.8980     5.5070     0.9330 H     1 <1>   0.0800 
 29 H       -5.6210     4.8780    -0.5740 H     1 <1>   0.0800 
 30 H       -5.8670     5.1670     1.1240 H     1 <1>   0.0800 
 31 H       -5.5190     2.4130    -1.4130 H     1 <1>   0.0800 
 32 H       -5.7080     1.1360    -0.2470 H     1 <1>   0.0800 
 33 H       -7.0540     3.1310     0.3530 H     1 <1>   0.0800 
 34 H       -5.8700     2.7620     1.5750 H     1 <1>   0.0800 
@<TRIPOS>BOND
  1   1   2  1   
  2   2   3  1   
  3   2  15  1   
  4   2  16  1   
  5   3   4  2   
  6   3   5  am  
  7   5   6  1   
  8   5   7  1   
  9   6   8  1   
 10   6   9  1   
 11   6  17  1   
 12   7  10  1   
 13   7  11  1   
 14   7  18  1   
 15   8  12  1   
 16   8  19  1   
 17   8  20  1   
 18   9  13  1   
 19   9  21  1   
 20   9  22  1   
 21  10  23  1   
 22  10  24  1   
 23  10  25  1   
 24  11  26  1   
 25  11  27  1   
 26  11  28  1   
 27  12  14  1   
 28  12  29  1   
 29  12  30  1   
 30  13  14  1   
 31  13  31  1   
 32  13  32  1   
 33  14  33  1   
 34  14  34  1   
@<TRIPOS>SUBSTRUCTURE
  1 ****   5 GROUP 4 **** **** 0

# MOE 2024.06 (io_trps.svl 2023.06)
