@<TRIPOS>MOLECULE
N-[4-(8,8-Dimethyl-2,4,6-trioxo-1,2,3,4,5,6,7,8,9,10-decahydro-pyrimido[4,5-b]qu
51 54 1 0 0 
SMALL
USER_CHARGES


@<TRIPOS>ATOM
  1 O       -1.2540    -0.0860     1.5010 O.2   1 <1>  -0.5700 
  2 C       -2.1650    -0.6720     0.9630 C.2   1 <1>   0.6900 
  3 N       -3.4480    -0.4990     1.3870 N.am  1 <1>  -0.5390 
  4 N       -1.9380    -1.5080    -0.0800 N.am  1 <1>  -0.4900 
  5 C       -4.5010    -1.1540     0.7970 C.2   1 <1>   0.2090 
  6 C       -2.9430    -2.1750    -0.7190 C.2   1 <1>   0.6160 
  7 N       -5.7690    -0.8980     1.2510 N.pl3 1 <1>  -0.6000 
  8 C       -4.2620    -2.0130    -0.2310 C.2   1 <1>  -0.1240 
  9 O       -2.6460    -2.8440    -1.6920 O.2   1 <1>  -0.5700 
 10 C       -6.8770    -1.3910     0.5960 C.2   1 <1>  -0.0380 
 11 C       -5.3990    -2.8170    -0.8500 C.3   1 <1>   0.3400 
 12 C       -6.7730    -2.2810    -0.4270 C.2   1 <1>  -0.1240 
 13 C       -8.2310    -0.8820     1.0740 C.3   1 <1>  -0.0220 
 14 C       -5.2650    -4.2730    -0.3980 C.ar  1 <1>  -0.1430 
 15 C       -7.8950    -2.7820    -1.1460 C.2   1 <1>   0.4950 
 16 C       -9.3310    -1.0160    -0.0040 C.3   1 <1>   0.0000 
 17 C       -5.4210    -4.6180     0.9380 C.ar  1 <1>  -0.1500 
 18 C       -4.9810    -5.2720    -1.3160 C.ar  1 <1>  -0.1500 
 19 O       -7.8210    -3.4640    -2.1390 O.2   1 <1>  -0.5700 
 20 C       -9.2810    -2.4230    -0.6380 C.3   1 <1>  -0.0990 
 21 C       -9.1300     0.0550    -1.0940 C.3   1 <1>  -0.2400 
 22 C      -10.7110    -0.7940     0.6360 C.3   1 <1>  -0.2400 
 23 C       -5.3000    -5.9350     1.3420 C.ar  1 <1>  -0.1500 
 24 C       -4.8590    -6.5880    -0.9080 C.ar  1 <1>  -0.1500 
 25 C       -5.0160    -6.9410     0.4280 C.ar  1 <1>   0.1170 
 26 N       -4.9200    -8.2640     0.8890 N.am  1 <1>  -0.5470 
 27 C       -4.2960    -9.3540     0.3550 C.2   1 <1>   0.5690 
 28 O       -3.6530    -9.3440    -0.6630 O.2   1 <1>  -0.5700 
 29 C       -4.4200   -10.6530     1.1100 C.3   1 <1>  -0.1790 
 30 H       -3.5670     0.1460     2.1650 H     1 <1>   0.3700 
 31 H       -0.9890    -1.6280    -0.4150 H     1 <1>   0.3700 
 32 H       -5.8920    -0.2440     2.0290 H     1 <1>   0.4000 
 33 H       -5.3180    -2.7520    -1.9220 H     1 <1>   0.0800 
 34 H       -8.1490     0.1510     1.3670 H     1 <1>   0.0800 
 35 H       -8.5060    -1.4470     1.9480 H     1 <1>   0.0800 
 36 H       -5.6380    -3.8590     1.6690 H     1 <1>   0.1500 
 37 H       -4.8520    -5.0320    -2.3580 H     1 <1>   0.1500 
 38 H       -9.5620    -3.1640     0.0880 H     1 <1>   0.0800 
 39 H       -9.9790    -2.4840    -1.4540 H     1 <1>   0.0800 
 40 H       -8.1670    -0.0360    -1.5630 H     1 <1>   0.0800 
 41 H       -9.2020     1.0420    -0.6730 H     1 <1>   0.0800 
 42 H       -9.8830    -0.0370    -1.8580 H     1 <1>   0.0800 
 43 H      -10.9010    -1.5270     1.4000 H     1 <1>   0.0800 
 44 H      -11.4880    -0.8720    -0.1050 H     1 <1>   0.0800 
 45 H      -10.7700     0.1840     1.0830 H     1 <1>   0.0800 
 46 H       -5.4230    -6.1790     2.3810 H     1 <1>   0.1500 
 47 H       -4.6420    -7.3420    -1.6420 H     1 <1>   0.1500 
 48 H       -5.3690    -8.4290     1.7850 H     1 <1>   0.3700 
 49 H       -5.4550   -10.9170     1.2160 H     1 <1>   0.0800 
 50 H       -3.9680   -10.5560     2.0790 H     1 <1>   0.0800 
 51 H       -3.9160   -11.4350     0.5700 H     1 <1>   0.0800 
@<TRIPOS>BOND
  1   1   2  2   
  2   2   3  am  
  3   2   4  am  
  4   3   5  1   
  5   3  30  1   
  6   4   6  am  
  7   4  31  1   
  8   5   7  1   
  9   5   8  2   
 10   6   8  1   
 11   6   9  2   
 12   7  10  1   
 13   7  32  1   
 14   8  11  1   
 15  10  12  2   
 16  10  13  1   
 17  11  12  1   
 18  11  14  1   
 19  11  33  1   
 20  12  15  1   
 21  13  16  1   
 22  13  34  1   
 23  13  35  1   
 24  14  17  ar  
 25  14  18  ar  
 26  15  19  2   
 27  15  20  1   
 28  16  20  1   
 29  16  21  1   
 30  16  22  1   
 31  17  23  ar  
 32  17  36  1   
 33  18  24  ar  
 34  18  37  1   
 35  20  38  1   
 36  20  39  1   
 37  21  40  1   
 38  21  41  1   
 39  21  42  1   
 40  22  43  1   
 41  22  44  1   
 42  22  45  1   
 43  23  25  ar  
 44  23  46  1   
 45  24  25  ar  
 46  24  47  1   
 47  25  26  1   
 48  26  27  am  
 49  26  48  1   
 50  27  28  2   
 51  27  29  1   
 52  29  49  1   
 53  29  50  1   
 54  29  51  1   
@<TRIPOS>SUBSTRUCTURE
  1 ****  14 GROUP 4 **** **** 0

# MOE 2024.06 (io_trps.svl 2023.06)
