@<TRIPOS>MOLECULE
5-Oxo-1-(toluene-4-sulfonyl)-pyrrolidine-2-carboxylic acid (furan-2-ylmethyl)-am
43 45 1 0 0 
SMALL
USER_CHARGES


@<TRIPOS>ATOM
  1 S        1.0640     0.6210    -1.4590 S.o2  1 <1>   1.4470 
  2 O        2.3680     0.6790    -2.0840 O.2   1 <1>  -0.6500 
  3 O       -0.0270     1.3410    -2.0680 O.2   1 <1>  -0.6500 
  4 N        1.3000     1.3440     0.0790 N.am  1 <1>  -0.7300 
  5 C        0.6430    -1.1000    -1.0790 C.ar  1 <1>  -0.0090 
  6 C        0.3290     1.4320     0.9870 C.2   1 <1>   0.7450 
  7 C        2.3900     2.3140     0.2980 C.3   1 <1>   0.3370 
  8 C       -0.6520    -1.5800    -1.2330 C.ar  1 <1>  -0.1500 
  9 C        1.6090    -1.9830    -0.6090 C.ar  1 <1>  -0.1500 
 10 O       -0.6850     0.7860     1.0020 O.2   1 <1>  -0.5700 
 11 C        0.6500     2.4830     2.0130 C.3   1 <1>  -0.0990 
 12 C        3.6910     1.6040     0.7490 C.2   1 <1>   0.5690 
 13 C        1.7850     3.2740     1.3450 C.3   1 <1>  -0.1600 
 14 C       -0.9700    -2.8960    -0.9410 C.ar  1 <1>  -0.1500 
 15 C        1.2980    -3.3000    -0.3160 C.ar  1 <1>  -0.1500 
 16 O        4.0580     1.6790     1.8990 O.2   1 <1>  -0.5700 
 17 N        4.3980     0.8810    -0.1560 N.am  1 <1>  -0.7300 
 18 C        0.0050    -3.7640    -0.4820 C.ar  1 <1>  -0.1430 
 19 C        5.5550     0.0240     0.1770 C.3   1 <1>   0.3200 
 20 C       -0.3430    -5.2060    -0.1620 C.3   1 <1>  -0.0970 
 21 C        5.6240    -1.1770    -0.7520 C.2   1 <1>  -0.0400 
 22 O        6.3860    -2.1920    -0.3890 O.3   1 <1>  -0.2800 
 23 C        5.0360    -1.4400    -1.9420 C.2   1 <1>  -0.1500 
 24 C        6.2990    -3.1170    -1.3240 C.2   1 <1>  -0.0100 
 25 C        5.4770    -2.7150    -2.3150 C.2   1 <1>  -0.1500 
 26 H        2.5930     2.8550    -0.6100 H     1 <1>   0.0800 
 27 H       -1.4250    -0.9140    -1.5800 H     1 <1>   0.1500 
 28 H        2.6200    -1.6420    -0.4670 H     1 <1>   0.1500 
 29 H        0.9900     1.9990     2.9100 H     1 <1>   0.0800 
 30 H       -0.2080     3.0960     2.2210 H     1 <1>   0.0800 
 31 H        1.3710     4.1220     0.8270 H     1 <1>   0.0800 
 32 H        2.5070     3.6370     2.0560 H     1 <1>   0.0800 
 33 H       -1.9820    -3.2380    -1.0720 H     1 <1>   0.1500 
 34 H        2.0700    -3.9590     0.0420 H     1 <1>   0.1500 
 35 H        4.0240     0.7600    -1.1090 H     1 <1>   0.3700 
 36 H        5.4630    -0.3220     1.1930 H     1 <1>   0.0800 
 37 H        6.4630     0.5940     0.0950 H     1 <1>   0.0800 
 38 H       -1.3440    -5.2730     0.2230 H     1 <1>   0.0800 
 39 H        0.3310    -5.6030     0.5760 H     1 <1>   0.0800 
 40 H       -0.2730    -5.8030    -1.0540 H     1 <1>   0.0800 
 41 H        4.3660    -0.8340    -2.5260 H     1 <1>   0.1500 
 42 H        6.8560    -4.0300    -1.2040 H     1 <1>   0.1500 
 43 H        5.1980    -3.2350    -3.2140 H     1 <1>   0.1500 
@<TRIPOS>BOND
  1   1   2  2   
  2   1   3  2   
  3   1   4  am  
  4   1   5  1   
  5   4   6  am  
  6   4   7  1   
  7   5   8  ar  
  8   5   9  ar  
  9   6  10  2   
 10   6  11  1   
 11   7  12  1   
 12   7  13  1   
 13   7  26  1   
 14   8  14  ar  
 15   8  27  1   
 16   9  15  ar  
 17   9  28  1   
 18  11  13  1   
 19  11  29  1   
 20  11  30  1   
 21  12  16  2   
 22  12  17  am  
 23  13  31  1   
 24  13  32  1   
 25  14  18  ar  
 26  14  33  1   
 27  15  18  ar  
 28  15  34  1   
 29  17  19  1   
 30  17  35  1   
 31  18  20  1   
 32  19  21  1   
 33  19  36  1   
 34  19  37  1   
 35  20  38  1   
 36  20  39  1   
 37  20  40  1   
 38  21  22  1   
 39  21  23  2   
 40  22  24  1   
 41  23  25  1   
 42  23  41  1   
 43  24  25  2   
 44  24  42  1   
 45  25  43  1   
@<TRIPOS>SUBSTRUCTURE
  1 ****   9 GROUP 4 **** **** 0

# MOE 2024.06 (io_trps.svl 2023.06)
