@<TRIPOS>MOLECULE
N-{4-[3-(4-Benzenesulfonyl-piperazin-1-yl)-2-hydroxy-propoxy]-phenyl}-acetamide
57 59 1 0 0 
SMALL
USER_CHARGES


@<TRIPOS>ATOM
  1 S       -0.2470    -0.2180    -1.2190 S.o2  1 <1>   1.4470 
  2 O       -0.5470    -1.4560    -1.9040 O.2   1 <1>  -0.6500 
  3 O       -0.4630     1.0420    -1.8990 O.2   1 <1>  -0.6500 
  4 N        1.3950    -0.2740    -0.8090 N.am  1 <1>  -0.8490 
  5 C       -1.0660    -0.2090     0.4000 C.ar  1 <1>  -0.0090 
  6 C        1.8670     0.9830    -0.2060 C.3   1 <1>   0.1960 
  7 C        2.2260    -0.5920    -1.9800 C.3   1 <1>   0.1960 
  8 C       -0.8620    -1.2450     1.3050 C.ar  1 <1>  -0.1500 
  9 C       -1.9050     0.8330     0.7820 C.ar  1 <1>  -0.1500 
 10 C        3.3520     0.8900     0.1910 C.3   1 <1>   0.1100 
 11 C        3.7170    -0.6860    -1.6050 C.3   1 <1>   0.1100 
 12 C       -1.4680    -1.2420     2.5500 C.ar  1 <1>  -0.1500 
 13 C       -2.5150     0.8440     2.0250 C.ar  1 <1>  -0.1500 
 14 N        4.2070     0.5580    -0.9720 N.3   1 <1>  -0.8100 
 15 C       -2.2950    -0.1940     2.9110 C.ar  1 <1>  -0.1500 
 16 C        5.6310     0.4110    -0.5790 C.3   1 <1>   0.1100 
 17 C        6.2840     1.7690    -0.2630 C.3   1 <1>   0.2000 
 18 O        5.8090     2.6700    -1.1960 O.3   1 <1>  -0.6800 
 19 C        7.8110     1.7320    -0.3350 C.3   1 <1>   0.1200 
 20 O        8.2820     0.7100     0.5220 O.3   1 <1>  -0.3630 
 21 C        9.6030     0.3990     0.5750 C.ar  1 <1>   0.0830 
 22 C       10.5970     1.1050    -0.0950 C.ar  1 <1>  -0.1500 
 23 C        9.9550    -0.6940     1.3500 C.ar  1 <1>  -0.1500 
 24 C       11.9180     0.7090     0.0120 C.ar  1 <1>  -0.1500 
 25 C       11.2780    -1.0840     1.4540 C.ar  1 <1>  -0.1500 
 26 C       12.2800    -0.3900     0.7830 C.ar  1 <1>   0.1170 
 27 N       13.6390    -0.7410     0.8640 N.am  1 <1>  -0.5470 
 28 C       14.2370    -1.9270     1.1780 C.2   1 <1>   0.5690 
 29 O       13.6410    -2.9440     1.4300 O.2   1 <1>  -0.5700 
 30 C       15.7440    -1.9570     1.1940 C.3   1 <1>  -0.1790 
 31 H        1.2880     1.2030     0.6740 H     1 <1>   0.0800 
 32 H        1.7440     1.7990    -0.9000 H     1 <1>   0.0800 
 33 H        2.0970     0.1630    -2.7390 H     1 <1>   0.0800 
 34 H        1.9170    -1.5360    -2.3950 H     1 <1>   0.0800 
 35 H       -0.2190    -2.0630     1.0270 H     1 <1>   0.1500 
 36 H       -2.0840     1.6460     0.0980 H     1 <1>   0.1500 
 37 H        3.4600     0.1380     0.9550 H     1 <1>   0.0800 
 38 H        3.6550     1.8360     0.6050 H     1 <1>   0.0800 
 39 H        4.2860    -0.8790    -2.4970 H     1 <1>   0.0800 
 40 H        3.8530    -1.5170    -0.9340 H     1 <1>   0.0800 
 41 H       -1.2970    -2.0540     3.2350 H     1 <1>   0.1500 
 42 H       -3.1610     1.6600     2.3010 H     1 <1>   0.1500 
 43 H       -2.7680    -0.1890     3.8780 H     1 <1>   0.1500 
 44 H        6.1760    -0.0350    -1.3940 H     1 <1>   0.0800 
 45 H        5.7260    -0.2470     0.2690 H     1 <1>   0.0800 
 46 H        5.9770     2.1130     0.7080 H     1 <1>   0.0800 
 47 H        4.9480     2.2860    -1.4960 H     1 <1>   0.4000 
 48 H        8.2230     2.6690    -0.0070 H     1 <1>   0.0800 
 49 H        8.1290     1.5050    -1.3370 H     1 <1>   0.0800 
 50 H       10.3620     1.9600    -0.7010 H     1 <1>   0.1500 
 51 H        9.1890    -1.2390     1.8700 H     1 <1>   0.1500 
 52 H       12.6750     1.2610    -0.5140 H     1 <1>   0.1500 
 53 H       11.5260    -1.9330     2.0640 H     1 <1>   0.1500 
 54 H       14.2820     0.0060     0.6130 H     1 <1>   0.3700 
 55 H       16.1160    -1.2280     1.8890 H     1 <1>   0.0800 
 56 H       16.1230    -1.7490     0.2110 H     1 <1>   0.0800 
 57 H       16.0830    -2.9300     1.4980 H     1 <1>   0.0800 
@<TRIPOS>BOND
  1   1   2  2   
  2   1   3  2   
  3   1   4  am  
  4   1   5  1   
  5   4   6  1   
  6   4   7  1   
  7   5   8  ar  
  8   5   9  ar  
  9   6  10  1   
 10   6  31  1   
 11   6  32  1   
 12   7  11  1   
 13   7  33  1   
 14   7  34  1   
 15   8  12  ar  
 16   8  35  1   
 17   9  13  ar  
 18   9  36  1   
 19  10  14  1   
 20  10  37  1   
 21  10  38  1   
 22  11  14  1   
 23  11  39  1   
 24  11  40  1   
 25  12  15  ar  
 26  12  41  1   
 27  13  15  ar  
 28  13  42  1   
 29  14  16  1   
 30  15  43  1   
 31  16  17  1   
 32  16  44  1   
 33  16  45  1   
 34  17  18  1   
 35  17  19  1   
 36  17  46  1   
 37  18  47  1   
 38  19  20  1   
 39  19  48  1   
 40  19  49  1   
 41  20  21  1   
 42  21  22  ar  
 43  21  23  ar  
 44  22  24  ar  
 45  22  50  1   
 46  23  25  ar  
 47  23  51  1   
 48  24  26  ar  
 49  24  52  1   
 50  25  26  ar  
 51  25  53  1   
 52  26  27  1   
 53  27  28  am  
 54  27  54  1   
 55  28  29  2   
 56  28  30  1   
 57  30  55  1   
 58  30  56  1   
 59  30  57  1   
@<TRIPOS>SUBSTRUCTURE
  1 ****  16 GROUP 4 **** **** 0

# MOE 2024.06 (io_trps.svl 2023.06)
