@<TRIPOS>MOLECULE
[1-(3,4-Dimethoxy-benzenesulfonyl)-piperidin-3-yl]-pyrrolidin-1-yl-methanone
52 54 1 0 0 
SMALL
USER_CHARGES


@<TRIPOS>ATOM
  1 S        0.1650    -0.8920     2.1370 S.o2  1 <1>   1.4470 
  2 O       -0.5740    -1.8030     2.9850 O.2   1 <1>  -0.6500 
  3 O        1.3760    -0.2800     2.6410 O.2   1 <1>  -0.6500 
  4 N        0.6030    -1.7660     0.7520 N.am  1 <1>  -0.8490 
  5 C       -0.9670     0.3670     1.4880 C.ar  1 <1>  -0.0090 
  6 C        1.4580    -0.9980    -0.1840 C.3   1 <1>   0.1960 
  7 C        1.1100    -3.1030     1.1020 C.3   1 <1>   0.1960 
  8 C       -2.0780    -0.0010     0.7400 C.ar  1 <1>  -0.1500 
  9 C       -0.7530     1.7180     1.7160 C.ar  1 <1>  -0.1500 
 10 C        2.9420    -1.3680    -0.0520 C.3   1 <1>  -0.0190 
 11 C        1.9200    -3.7170    -0.0440 C.3   1 <1>  -0.1600 
 12 C       -2.9650     0.9390     0.2170 C.ar  1 <1>   0.0830 
 13 C       -1.6220     2.6680     1.2110 C.ar  1 <1>  -0.1500 
 14 C        3.7990    -0.4640    -0.9330 C.2   1 <1>   0.5690 
 15 C        3.1540    -2.8610    -0.3900 C.3   1 <1>  -0.1600 
 16 O       -4.0370     0.5440    -0.5300 O.3   1 <1>  -0.3630 
 17 C       -2.7300     2.3030     0.4650 C.ar  1 <1>   0.0830 
 18 O        3.3690    -0.1520    -2.0200 O.2   1 <1>  -0.5700 
 19 N        5.0240    -0.0280    -0.5050 N.am  1 <1>  -0.6600 
 20 C       -4.2720    -0.8060    -0.8710 C.3   1 <1>   0.0400 
 21 O       -3.4860     3.3580     0.0460 O.3   1 <1>  -0.3630 
 22 C        5.6820    -0.3430     0.7830 C.3   1 <1>   0.1400 
 23 C        5.8760     0.8530    -1.3330 C.3   1 <1>   0.1400 
 24 C       -4.7560     3.2180    -0.5510 C.3   1 <1>   0.0400 
 25 C        7.1070     0.1760     0.6300 C.3   1 <1>  -0.1600 
 26 C        7.0020     1.2940    -0.4040 C.3   1 <1>  -0.1600 
 27 H        1.3320     0.0620    -0.0330 H     1 <1>   0.0800 
 28 H        1.1390    -1.2130    -1.1900 H     1 <1>   0.0800 
 29 H        0.2780    -3.7410     1.3490 H     1 <1>   0.0800 
 30 H        1.7420    -3.0350     1.9740 H     1 <1>   0.0800 
 31 H       -2.2240    -1.0520     0.5790 H     1 <1>   0.1500 
 32 H        0.1000     2.0340     2.2940 H     1 <1>   0.1500 
 33 H        3.2100    -1.1970     0.9730 H     1 <1>   0.0800 
 34 H        1.2790    -3.8000    -0.9050 H     1 <1>   0.0800 
 35 H        2.2330    -4.7110     0.2230 H     1 <1>   0.0800 
 36 H       -1.4430     3.7130     1.3960 H     1 <1>   0.1500 
 37 H        4.0130    -3.2190     0.1510 H     1 <1>   0.0800 
 38 H        3.3630    -2.9720    -1.4410 H     1 <1>   0.0800 
 39 H       -5.1500    -0.8450    -1.4900 H     1 <1>   0.0800 
 40 H       -4.4360    -1.3710     0.0290 H     1 <1>   0.0800 
 41 H       -3.4250    -1.1810    -1.4170 H     1 <1>   0.0800 
 42 H        5.6710    -1.4020     0.9790 H     1 <1>   0.0800 
 43 H        5.1770     0.1830     1.5750 H     1 <1>   0.0800 
 44 H        5.3130     1.6910    -1.7060 H     1 <1>   0.0800 
 45 H        6.2660     0.2840    -2.1610 H     1 <1>   0.0800 
 46 H       -5.1790     4.1980    -0.6710 H     1 <1>   0.0800 
 47 H       -5.3800     2.6240     0.0920 H     1 <1>   0.0800 
 48 H       -4.6380     2.7510    -1.5120 H     1 <1>   0.0800 
 49 H        7.7290    -0.6150     0.2490 H     1 <1>   0.0800 
 50 H        7.5110     0.5200     1.5660 H     1 <1>   0.0800 
 51 H        6.7160     2.2130     0.0770 H     1 <1>   0.0800 
 52 H        7.9220     1.4490    -0.9390 H     1 <1>   0.0800 
@<TRIPOS>BOND
  1   1   2  2   
  2   1   3  2   
  3   1   4  am  
  4   1   5  1   
  5   4   6  1   
  6   4   7  1   
  7   5   8  ar  
  8   5   9  ar  
  9   6  10  1   
 10   6  27  1   
 11   6  28  1   
 12   7  11  1   
 13   7  29  1   
 14   7  30  1   
 15   8  12  ar  
 16   8  31  1   
 17   9  13  ar  
 18   9  32  1   
 19  10  14  1   
 20  10  15  1   
 21  10  33  1   
 22  11  15  1   
 23  11  34  1   
 24  11  35  1   
 25  12  16  1   
 26  12  17  ar  
 27  13  17  ar  
 28  13  36  1   
 29  14  18  2   
 30  14  19  am  
 31  15  37  1   
 32  15  38  1   
 33  16  20  1   
 34  17  21  1   
 35  19  22  1   
 36  19  23  1   
 37  20  39  1   
 38  20  40  1   
 39  20  41  1   
 40  21  24  1   
 41  22  25  1   
 42  22  42  1   
 43  22  43  1   
 44  23  26  1   
 45  23  44  1   
 46  23  45  1   
 47  24  46  1   
 48  24  47  1   
 49  24  48  1   
 50  25  26  1   
 51  25  49  1   
 52  25  50  1   
 53  26  51  1   
 54  26  52  1   
@<TRIPOS>SUBSTRUCTURE
  1 ****   6 GROUP 4 **** **** 0

# MOE 2024.06 (io_trps.svl 2023.06)
