@<TRIPOS>MOLECULE
3-[3-(2-Chloro-phenyl)-[1,2,4]oxadiazol-5-yl]-N-ethyl-propionamide
33 34 1 0 0 
SMALL
USER_CHARGES


@<TRIPOS>ATOM
  1 CL      -0.1530     0.2100     0.5110 Cl    1 <1>  -0.1770 
  2 C        0.4320    -1.4380     0.4840 C.ar  1 <1>   0.1770 
  3 C        1.6650    -1.7470    -0.0920 C.ar  1 <1>   0.0540 
  4 C       -0.3840    -2.4090     1.0340 C.ar  1 <1>  -0.1500 
  5 C        2.5350    -0.7430    -0.6570 C.2   1 <1>   0.4620 
  6 C        2.0380    -3.0910    -0.1080 C.ar  1 <1>  -0.1500 
  7 C        0.0150    -3.7340     1.0130 C.ar  1 <1>  -0.1500 
  8 N        2.9910    -0.7480    -1.8580 N.2   1 <1>  -0.4100 
  9 N        2.9930     0.2950     0.0470 N.2   1 <1>  -0.5650 
 10 C        1.2280    -4.0720     0.4370 C.ar  1 <1>  -0.1500 
 11 O        3.7450     0.2970    -1.9970 O.3   1 <1>  -0.0190 
 12 C        3.7050     0.8760    -0.8250 C.2   1 <1>   0.2980 
 13 C        4.5000     2.1480    -0.6130 C.3   1 <1>   0.0200 
 14 C        6.0070     1.8510    -0.5590 C.3   1 <1>  -0.0990 
 15 C        6.8510     3.0910    -0.3290 C.2   1 <1>   0.5690 
 16 O        6.3470     4.1830    -0.4000 O.2   1 <1>  -0.5700 
 17 N        8.1700     2.9860    -0.0470 N.am  1 <1>  -0.7300 
 18 C        9.0170     1.7820     0.0530 C.3   1 <1>   0.1400 
 19 C        9.3790     1.5650     1.5170 C.3   1 <1>  -0.2400 
 20 H       -1.3250    -2.1280     1.4710 H     1 <1>   0.1500 
 21 H        2.9780    -3.3650    -0.5550 H     1 <1>   0.1500 
 22 H       -0.6140    -4.4970     1.4390 H     1 <1>   0.1500 
 23 H        1.5410    -5.1030     0.4140 H     1 <1>   0.1500 
 24 H        4.1900     2.6050     0.3110 H     1 <1>   0.0800 
 25 H        4.2850     2.8340    -1.4130 H     1 <1>   0.0800 
 26 H        6.3160     1.3990    -1.4830 H     1 <1>   0.0800 
 27 H        6.1920     1.1560     0.2400 H     1 <1>   0.0800 
 28 H        8.6440     3.8760     0.1230 H     1 <1>   0.3700 
 29 H        9.9100     1.9270    -0.5310 H     1 <1>   0.0800 
 30 H        8.5000     0.9190    -0.3310 H     1 <1>   0.0800 
 31 H        9.9220     2.4110     1.8990 H     1 <1>   0.0800 
 32 H       10.0000     0.6920     1.6120 H     1 <1>   0.0800 
 33 H        8.4900     1.4170     2.1040 H     1 <1>   0.0800 
@<TRIPOS>BOND
  1   1   2  1   
  2   2   3  ar  
  3   2   4  ar  
  4   3   5  1   
  5   3   6  ar  
  6   4   7  ar  
  7   4  20  1   
  8   5   8  2   
  9   5   9  1   
 10   6  10  ar  
 11   6  21  1   
 12   7  10  ar  
 13   7  22  1   
 14   8  11  1   
 15   9  12  2   
 16  10  23  1   
 17  11  12  1   
 18  12  13  1   
 19  13  14  1   
 20  13  24  1   
 21  13  25  1   
 22  14  15  1   
 23  14  26  1   
 24  14  27  1   
 25  15  16  2   
 26  15  17  am  
 27  17  18  1   
 28  17  28  1   
 29  18  19  1   
 30  18  29  1   
 31  18  30  1   
 32  19  31  1   
 33  19  32  1   
 34  19  33  1   
@<TRIPOS>SUBSTRUCTURE
  1 ****   9 GROUP 4 **** **** 0

# MOE 2024.06 (io_trps.svl 2023.06)
