@<TRIPOS>MOLECULE
2,4-Dimethyl-6-(4-methyl-piperazine-1-carbonyl)-cyclohex-3-enecarboxylic acid
44 45 1 0 0 
SMALL
USER_CHARGES


@<TRIPOS>ATOM
  1 O        0.0040    -3.3490    -0.7850 O.co2 1 <1>  -0.9000 
  2 C       -0.0030    -3.4570     0.4460 C.2   1 <1>   0.9060 
  3 O        1.0060    -3.8800     1.0320 O.co2 1 <1>  -0.9000 
  4 C       -1.2660    -3.2240     1.2540 C.3   1 <1>  -0.1860 
  5 C       -2.3980    -4.2250     0.9020 C.3   1 <1>  -0.0190 
  6 C       -1.7870    -1.7640     1.2540 C.3   1 <1>   0.0580 
  7 C       -2.0450    -5.7000     1.1740 C.2   1 <1>   0.5690 
  8 C       -3.0950    -3.9240    -0.4390 C.3   1 <1>  -0.0220 
  9 C       -2.8610    -1.5090     0.2020 C.2   1 <1>  -0.2880 
 10 C       -0.6670    -0.7240     1.1210 C.3   1 <1>  -0.2400 
 11 O       -2.6450    -6.2080     2.0940 O.2   1 <1>  -0.5700 
 12 N       -1.0830    -6.4520     0.5300 N.am  1 <1>  -0.6600 
 13 C       -3.4420    -2.4470    -0.5520 C.2   1 <1>  -0.2760 
 14 C       -0.5690    -6.3290    -0.8740 C.3   1 <1>   0.1400 
 15 C       -0.2800    -7.4080     1.3370 C.3   1 <1>   0.1400 
 16 C       -4.4840    -2.1320    -1.6100 C.3   1 <1>  -0.1020 
 17 C        0.9620    -6.1130    -0.9720 C.3   1 <1>   0.3430 
 18 C        1.1770    -6.9280     1.3710 C.3   1 <1>   0.3430 
 19 N        1.8070    -6.8940     0.0050 N.4   1 <1>  -0.9590 
 20 C        3.0970    -6.1570     0.1230 C.3   1 <1>   0.2630 
 21 H       -0.9790    -3.4330     2.2680 H     1 <1>   0.0800 
 22 H       -3.1630    -4.0060     1.6270 H     1 <1>   0.0800 
 23 H       -2.2590    -1.5990     2.2070 H     1 <1>   0.0800 
 24 H       -3.9900    -4.5170    -0.4980 H     1 <1>   0.0800 
 25 H       -2.4780    -4.1600    -1.2800 H     1 <1>   0.0800 
 26 H       -3.1150    -0.4670     0.1200 H     1 <1>   0.1500 
 27 H       -0.2350    -0.7670     0.1360 H     1 <1>   0.0800 
 28 H        0.1040    -0.9110     1.8470 H     1 <1>   0.0800 
 29 H       -1.0570     0.2650     1.2790 H     1 <1>   0.0800 
 30 H       -1.0450    -5.5270    -1.3920 H     1 <1>   0.0800 
 31 H       -0.8200    -7.2300    -1.4020 H     1 <1>   0.0800 
 32 H       -0.3480    -8.3950     0.9160 H     1 <1>   0.0800 
 33 H       -0.6470    -7.4530     2.3480 H     1 <1>   0.0800 
 34 H       -5.4070    -2.6340    -1.3830 H     1 <1>   0.0800 
 35 H       -4.1350    -2.4550    -2.5740 H     1 <1>   0.0800 
 36 H       -4.6700    -1.0740    -1.6520 H     1 <1>   0.0800 
 37 H        1.1720    -5.0720    -0.8300 H     1 <1>   0.0800 
 38 H        1.2730    -6.3330    -1.9780 H     1 <1>   0.0800 
 39 H        1.7480    -7.5730     2.0170 H     1 <1>   0.0800 
 40 H        1.1900    -5.9390     1.8000 H     1 <1>   0.0800 
 41 H        1.9410    -7.8470    -0.3440 H     1 <1>   0.4500 
 42 H        2.9080    -5.1520     0.4750 H     1 <1>   0.0800 
 43 H        3.5850    -6.0940    -0.8350 H     1 <1>   0.0800 
 44 H        3.7530    -6.6480     0.8210 H     1 <1>   0.0800 
@<TRIPOS>BOND
  1   1   2  ar  
  2   2   3  ar  
  3   2   4  1   
  4   4   5  1   
  5   4   6  1   
  6   4  21  1   
  7   5   7  1   
  8   5   8  1   
  9   5  22  1   
 10   6   9  1   
 11   6  10  1   
 12   6  23  1   
 13   7  11  2   
 14   7  12  am  
 15   8  13  1   
 16   8  24  1   
 17   8  25  1   
 18   9  13  2   
 19   9  26  1   
 20  10  27  1   
 21  10  28  1   
 22  10  29  1   
 23  12  14  1   
 24  12  15  1   
 25  13  16  1   
 26  14  17  1   
 27  14  30  1   
 28  14  31  1   
 29  15  18  1   
 30  15  32  1   
 31  15  33  1   
 32  16  34  1   
 33  16  35  1   
 34  16  36  1   
 35  17  19  1   
 36  17  37  1   
 37  17  38  1   
 38  18  19  1   
 39  18  39  1   
 40  18  40  1   
 41  19  20  1   
 42  19  41  1   
 43  20  42  1   
 44  20  43  1   
 45  20  44  1   
@<TRIPOS>SUBSTRUCTURE
  1 ****   2 GROUP 4 **** **** 0

# MOE 2024.06 (io_trps.svl 2023.06)
