@<TRIPOS>MOLECULE
3-(Methanesulfonyl-methyl-amino)-4-methoxy-N-(3-oxo-3-piperidin-1-yl-propyl)-ben
55 56 1 0 0 
SMALL
USER_CHARGES


@<TRIPOS>ATOM
  1 S        0.8050    -0.2550    -0.8700 S.o2  1 <1>   1.4470 
  2 O        1.9900    -1.0750    -0.8000 O.2   1 <1>  -0.6500 
  3 O        0.5740     0.5680    -2.0360 O.2   1 <1>  -0.6500 
  4 N        0.9570     0.7670     0.4540 N.am  1 <1>  -0.9140 
  5 C       -0.6610    -1.2500    -0.4850 C.ar  1 <1>  -0.0090 
  6 C        0.4170     2.1210     0.3160 C.3   1 <1>   0.1960 
  7 C       -1.8700    -1.0240    -1.1290 C.ar  1 <1>  -0.1500 
  8 C       -0.6190    -2.2420     0.4850 C.ar  1 <1>  -0.1500 
  9 C       -1.1140     2.1220     0.3650 C.3   1 <1>  -0.0990 
 10 C       -3.0240    -1.7320    -0.8220 C.ar  1 <1>   0.1990 
 11 C       -1.7470    -2.9790     0.8030 C.ar  1 <1>  -0.1500 
 12 C       -1.6960     3.5250     0.3520 C.2   1 <1>   0.5690 
 13 N       -4.2140    -1.4010    -1.4830 N.am  1 <1>  -0.6930 
 14 C       -2.9500    -2.7260     0.1630 C.ar  1 <1>   0.0830 
 15 O       -0.9290     4.4600     0.3890 O.2   1 <1>  -0.5700 
 16 N       -3.0550     3.7040     0.2920 N.am  1 <1>  -0.6600 
 17 S       -5.5550    -0.7260    -0.6170 S.o2  1 <1>   1.3330 
 18 C       -4.2370    -1.2990    -2.9620 C.3   1 <1>   0.1160 
 19 O       -4.0610    -3.4460     0.4790 O.3   1 <1>  -0.3620 
 20 C       -3.6510     5.0680     0.2370 C.3   1 <1>   0.1400 
 21 C       -4.0730     2.6100     0.2960 C.3   1 <1>   0.1400 
 22 O       -5.1500    -0.5060     0.7520 O.2   1 <1>  -0.6500 
 23 O       -6.0270     0.3860    -1.4080 O.2   1 <1>  -0.6500 
 24 C       -6.7690    -2.0260    -0.6780 C.3   1 <1>  -0.1350 
 25 C       -4.3880    -3.5790     1.8470 C.3   1 <1>   0.0400 
 26 C       -4.5850     5.2720     1.4340 C.3   1 <1>  -0.1600 
 27 C       -5.0160     2.7880     1.4900 C.3   1 <1>  -0.1600 
 28 C       -5.6610     4.1800     1.5030 C.3   1 <1>  -0.1600 
 29 H        1.9670     0.8450     0.5600 H     1 <1>   0.4200 
 30 H        0.7620     2.5810    -0.5970 H     1 <1>   0.0800 
 31 H        0.7830     2.7160     1.1370 H     1 <1>   0.0800 
 32 H       -1.9200    -0.2610    -1.8850 H     1 <1>   0.1500 
 33 H        0.3090    -2.4410     0.9960 H     1 <1>   0.1500 
 34 H       -1.4430     1.6250     1.2580 H     1 <1>   0.0800 
 35 H       -1.4950     1.6150    -0.4960 H     1 <1>   0.0800 
 36 H       -1.6760    -3.7520     1.5470 H     1 <1>   0.1500 
 37 H       -3.4150    -1.8490    -3.3860 H     1 <1>   0.0800 
 38 H       -4.1630    -0.2660    -3.2560 H     1 <1>   0.0800 
 39 H       -5.1580    -1.7050    -3.3430 H     1 <1>   0.0800 
 40 H       -4.2050     5.1700    -0.6810 H     1 <1>   0.0800 
 41 H       -2.8830     5.8230     0.2470 H     1 <1>   0.0800 
 42 H       -3.6150     1.6390     0.3530 H     1 <1>   0.0800 
 43 H       -4.6390     2.6530    -0.6200 H     1 <1>   0.0800 
 44 H       -6.3990    -2.9120    -0.2040 H     1 <1>   0.0800 
 45 H       -7.0120    -2.2580    -1.6960 H     1 <1>   0.0800 
 46 H       -7.6630    -1.7160    -0.1740 H     1 <1>   0.0800 
 47 H       -5.3910    -3.9600     1.9170 H     1 <1>   0.0800 
 48 H       -4.3310    -2.6110     2.3150 H     1 <1>   0.0800 
 49 H       -3.7070    -4.2690     2.3110 H     1 <1>   0.0800 
 50 H       -5.0530     6.2370     1.3590 H     1 <1>   0.0800 
 51 H       -3.9970     5.2610     2.3350 H     1 <1>   0.0800 
 52 H       -4.4590     2.6330     2.3980 H     1 <1>   0.0800 
 53 H       -5.7840     2.0360     1.4470 H     1 <1>   0.0800 
 54 H       -6.3190     4.2730     0.6550 H     1 <1>   0.0800 
 55 H       -6.2490     4.3000     2.3960 H     1 <1>   0.0800 
@<TRIPOS>BOND
  1   1   2  2   
  2   1   3  2   
  3   1   4  am  
  4   1   5  1   
  5   4   6  1   
  6   4  29  1   
  7   5   7  ar  
  8   5   8  ar  
  9   6   9  1   
 10   6  30  1   
 11   6  31  1   
 12   7  10  ar  
 13   7  32  1   
 14   8  11  ar  
 15   8  33  1   
 16   9  12  1   
 17   9  34  1   
 18   9  35  1   
 19  10  13  1   
 20  10  14  ar  
 21  11  14  ar  
 22  11  36  1   
 23  12  15  2   
 24  12  16  am  
 25  13  17  am  
 26  13  18  1   
 27  14  19  1   
 28  16  20  1   
 29  16  21  1   
 30  17  22  2   
 31  17  23  2   
 32  17  24  1   
 33  18  37  1   
 34  18  38  1   
 35  18  39  1   
 36  19  25  1   
 37  20  26  1   
 38  20  40  1   
 39  20  41  1   
 40  21  27  1   
 41  21  42  1   
 42  21  43  1   
 43  24  44  1   
 44  24  45  1   
 45  24  46  1   
 46  25  47  1   
 47  25  48  1   
 48  25  49  1   
 49  26  28  1   
 50  26  50  1   
 51  26  51  1   
 52  27  28  1   
 53  27  52  1   
 54  27  53  1   
 55  28  54  1   
 56  28  55  1   
@<TRIPOS>SUBSTRUCTURE
  1 ****   7 GROUP 4 **** **** 0

# MOE 2024.06 (io_trps.svl 2023.06)
