@<TRIPOS>MOLECULE
1-Cyclopropyl-5-oxo-pyrrolidine-3-carboxylic acid
22 23 1 0 0 
SMALL
USER_CHARGES


@<TRIPOS>ATOM
  1 O        0.3520    -0.0850     0.1810 O.2   1 <1>  -0.5700 
  2 C        1.4990    -0.4650     0.1030 C.2   1 <1>   0.5690 
  3 N        1.9460    -1.7320     0.2900 N.am  1 <1>  -0.5090 
  4 C        2.6420     0.4610    -0.2130 C.3   1 <1>  -0.0990 
  5 C        1.1720    -2.9000     0.7450 C.3   1 <1>   0.0490 
  6 C        3.4150    -1.8210     0.1860 C.3   1 <1>   0.1400 
  7 C        3.8170    -0.5030    -0.4820 C.3   1 <1>  -0.1860 
  8 C        1.0980    -4.0900    -0.1560 C.3   1 <1>  -0.2000 
  9 C       -0.1130    -3.2380     0.0600 C.3   1 <1>  -0.2000 
 10 C        5.1700    -0.0200    -0.0050 C.2   1 <1>   0.9060 
 11 O        5.4020     1.1910     0.0070 O.co2 1 <1>  -0.9000 
 12 O        6.0050    -0.8620     0.3410 O.co2 1 <1>  -0.9000 
 13 H        2.8370     1.0790     0.6450 H     1 <1>   0.0800 
 14 H        2.4290     1.0770    -1.0650 H     1 <1>   0.0800 
 15 H        1.2430    -3.0540     1.8090 H     1 <1>   0.1000 
 16 H        3.7190    -2.6660    -0.4070 H     1 <1>   0.0800 
 17 H        3.8370    -1.8990     1.1740 H     1 <1>   0.0800 
 18 H        3.8970    -0.6720    -1.5380 H     1 <1>   0.0800 
 19 H        1.1150    -5.0730     0.2800 H     1 <1>   0.1000 
 20 H        1.5920    -4.0470    -1.1100 H     1 <1>   0.1000 
 21 H       -0.4510    -2.5840    -0.7240 H     1 <1>   0.1000 
 22 H       -0.9210    -3.6250     0.6540 H     1 <1>   0.1000 
@<TRIPOS>BOND
  1   1   2  2   
  2   2   3  am  
  3   2   4  1   
  4   3   5  1   
  5   3   6  1   
  6   4   7  1   
  7   4  13  1   
  8   4  14  1   
  9   5   8  1   
 10   5   9  1   
 11   5  15  1   
 12   6   7  1   
 13   6  16  1   
 14   6  17  1   
 15   7  10  1   
 16   7  18  1   
 17   8   9  1   
 18   8  19  1   
 19   8  20  1   
 20   9  21  1   
 21   9  22  1   
 22  10  11  ar  
 23  10  12  ar  
@<TRIPOS>SUBSTRUCTURE
  1 ****   3 GROUP 4 **** **** 0

# MOE 2024.06 (io_trps.svl 2023.06)
