@<TRIPOS>MOLECULE
1-(5-Chloro-2-methoxy-benzenesulfonyl)-piperidine-3-carboxylic acid (pyridin-2-y
50 52 1 0 0 
SMALL
USER_CHARGES


@<TRIPOS>ATOM
  1 CL       4.2690    -0.3300     1.3670 Cl    1 <1>  -0.1770 
  2 C        3.2210    -1.6480     0.9080 C.ar  1 <1>   0.1770 
  3 C        3.4880    -2.9200     1.3740 C.ar  1 <1>  -0.1500 
  4 C        2.1420    -1.3990     0.0850 C.ar  1 <1>  -0.1500 
  5 C        2.6710    -3.9890     1.0200 C.ar  1 <1>  -0.0090 
  6 C        1.3180    -2.4490    -0.2750 C.ar  1 <1>  -0.1500 
  7 S        3.0420    -5.6570     1.6260 S.o2  1 <1>   1.4470 
  8 C        1.5780    -3.7390     0.1900 C.ar  1 <1>   0.0830 
  9 O        1.9100    -6.2120     2.3370 O.2   1 <1>  -0.6500 
 10 O        4.3220    -5.6340     2.3050 O.2   1 <1>  -0.6500 
 11 N        3.2890    -6.5910     0.2310 N.am  1 <1>  -0.8490 
 12 O        0.7940    -4.7930    -0.1420 O.3   1 <1>  -0.3630 
 13 C        4.4890    -6.2060    -0.5410 C.3   1 <1>   0.1960 
 14 C        3.1580    -8.0270     0.5180 C.3   1 <1>   0.1960 
 15 C       -0.3380    -4.6710    -0.9740 C.3   1 <1>   0.0400 
 16 C        5.6660    -7.1580    -0.2950 C.3   1 <1>  -0.0190 
 17 C        3.7930    -8.8800    -0.5860 C.3   1 <1>  -0.1600 
 18 C        6.9020    -6.6340    -1.0070 C.2   1 <1>   0.5690 
 19 C        5.3010    -8.5940    -0.7340 C.3   1 <1>  -0.1600 
 20 O        6.8420    -6.3600    -2.1820 O.2   1 <1>  -0.5700 
 21 N        8.0440    -6.4700    -0.3010 N.am  1 <1>  -0.7300 
 22 C        9.2960    -5.8840    -0.8250 C.3   1 <1>   0.2840 
 23 C        9.8560    -4.8870     0.1840 C.ar  1 <1>   0.1670 
 24 N       10.1690    -5.3650     1.3830 N.ar  1 <1>  -0.6200 
 25 C       10.0040    -3.5570    -0.1810 C.ar  1 <1>  -0.1500 
 26 C       10.6510    -4.4840     2.2450 C.ar  1 <1>   0.1600 
 27 C       10.5080    -2.6510     0.7280 C.ar  1 <1>  -0.1500 
 28 C       10.8380    -3.1390     1.9730 C.ar  1 <1>  -0.1500 
 29 H        4.3390    -3.0730     2.0150 H     1 <1>   0.1500 
 30 H        1.9550    -0.4000    -0.2650 H     1 <1>   0.1500 
 31 H        0.4800    -2.2430    -0.9150 H     1 <1>   0.1500 
 32 H        4.7820    -5.1950    -0.3100 H     1 <1>   0.0800 
 33 H        4.2400    -6.2330    -1.5890 H     1 <1>   0.0800 
 34 H        2.1130    -8.2690     0.6190 H     1 <1>   0.0800 
 35 H        3.6420    -8.2560     1.4550 H     1 <1>   0.0800 
 36 H       -0.7800    -5.6460    -1.0780 H     1 <1>   0.0800 
 37 H       -0.0270    -4.3070    -1.9370 H     1 <1>   0.0800 
 38 H       -1.0410    -4.0000    -0.5130 H     1 <1>   0.0800 
 39 H        5.8680    -7.1570     0.7600 H     1 <1>   0.0800 
 40 H        3.2870    -8.6640    -1.5110 H     1 <1>   0.0800 
 41 H        3.6420    -9.9230    -0.3700 H     1 <1>   0.0800 
 42 H        5.8670    -9.2900    -0.1380 H     1 <1>   0.0800 
 43 H        5.5770    -8.7480    -1.7640 H     1 <1>   0.0800 
 44 H        8.0780    -6.6220     0.7120 H     1 <1>   0.3700 
 45 H        9.1130    -5.4030    -1.7700 H     1 <1>   0.0800 
 46 H       10.0150    -6.6700    -0.9770 H     1 <1>   0.0800 
 47 H        9.7270    -3.2280    -1.1660 H     1 <1>   0.1500 
 48 H       10.9120    -4.8520     3.2220 H     1 <1>   0.1500 
 49 H       10.6370    -1.6120     0.4770 H     1 <1>   0.1500 
 50 H       11.2370    -2.4870     2.7290 H     1 <1>   0.1500 
@<TRIPOS>BOND
  1   1   2  1   
  2   2   3  ar  
  3   2   4  ar  
  4   3   5  ar  
  5   3  29  1   
  6   4   6  ar  
  7   4  30  1   
  8   5   7  1   
  9   5   8  ar  
 10   6   8  ar  
 11   6  31  1   
 12   7   9  2   
 13   7  10  2   
 14   7  11  am  
 15   8  12  1   
 16  11  13  1   
 17  11  14  1   
 18  12  15  1   
 19  13  16  1   
 20  13  32  1   
 21  13  33  1   
 22  14  17  1   
 23  14  34  1   
 24  14  35  1   
 25  15  36  1   
 26  15  37  1   
 27  15  38  1   
 28  16  18  1   
 29  16  19  1   
 30  16  39  1   
 31  17  19  1   
 32  17  40  1   
 33  17  41  1   
 34  18  20  2   
 35  18  21  am  
 36  19  42  1   
 37  19  43  1   
 38  21  22  1   
 39  21  44  1   
 40  22  23  1   
 41  22  45  1   
 42  22  46  1   
 43  23  24  ar  
 44  23  25  ar  
 45  24  26  ar  
 46  25  27  ar  
 47  25  47  1   
 48  26  28  ar  
 49  26  48  1   
 50  27  28  ar  
 51  27  49  1   
 52  28  50  1   
@<TRIPOS>SUBSTRUCTURE
  1 ****  13 GROUP 4 **** **** 0

# MOE 2024.06 (io_trps.svl 2023.06)
