@<TRIPOS>MOLECULE
N-tert-Butyl-N-(2-hydroxy-6-methoxy-quinolin-3-ylmethyl)-isobutyramide
50 51 1 0 0 
SMALL
USER_CHARGES


@<TRIPOS>ATOM
  1 O       -1.4940     0.7380     0.5560 O.2   1 <1>  -0.5700 
  2 C       -2.4290     0.2180    -0.0090 C.2   1 <1>   0.5690 
  3 N       -2.5880    -1.1520    -0.0750 N.am  1 <1>  -0.6600 
  4 C       -3.4410     1.1730    -0.6740 C.3   1 <1>  -0.0190 
  5 C       -1.8970    -2.1020     0.8740 C.3   1 <1>   0.3000 
  6 C       -3.1970    -1.7390    -1.3130 C.3   1 <1>   0.2780 
  7 C       -2.8170     1.9130    -1.8690 C.3   1 <1>  -0.2400 
  8 C       -3.9980     2.1920     0.3350 C.3   1 <1>  -0.2400 
  9 C       -2.0000    -1.5930     2.3210 C.3   1 <1>  -0.2400 
 10 C       -2.5380    -3.5040     0.8740 C.3   1 <1>  -0.2400 
 11 C       -0.4300    -2.2410     0.4580 C.3   1 <1>  -0.2400 
 12 C       -4.6680    -2.1050    -1.1430 C.2   1 <1>  -0.1240 
 13 C       -5.2460    -2.8190    -2.2410 C.2   1 <1>   0.6160 
 14 C       -5.4280    -1.7960    -0.0590 C.2   1 <1>  -0.1780 
 15 O       -4.6260    -3.1180    -3.2460 O.2   1 <1>  -0.5700 
 16 N       -6.5560    -3.1800    -2.1610 N.am  1 <1>  -0.5470 
 17 C       -6.8060    -2.1790     0.0130 C.ar  1 <1>   0.0280 
 18 C       -7.3630    -2.8830    -1.0670 C.ar  1 <1>   0.1170 
 19 C       -7.6160    -1.8830     1.1080 C.ar  1 <1>  -0.1500 
 20 C       -8.6990    -3.2710    -1.0260 C.ar  1 <1>  -0.1500 
 21 C       -8.9400    -2.2680     1.1450 C.ar  1 <1>   0.0820 
 22 C       -9.4850    -2.9690     0.0660 C.ar  1 <1>  -0.1500 
 23 O       -9.6460    -1.9330     2.2570 O.3   1 <1>  -0.3630 
 24 C      -11.0040    -2.2870     2.3950 C.3   1 <1>   0.0400 
 25 H       -4.2840     0.6160    -1.0340 H     1 <1>   0.0800 
 26 H       -2.6340    -2.6010    -1.6230 H     1 <1>   0.0800 
 27 H       -3.1120    -1.0380    -2.1240 H     1 <1>   0.0800 
 28 H       -1.9920     2.5200    -1.5390 H     1 <1>   0.0800 
 29 H       -3.5460     2.5470    -2.3420 H     1 <1>   0.0800 
 30 H       -2.4500     1.2110    -2.5950 H     1 <1>   0.0800 
 31 H       -3.2060     2.8160     0.7130 H     1 <1>   0.0800 
 32 H       -4.4510     1.6790     1.1640 H     1 <1>   0.0800 
 33 H       -4.7400     2.8170    -0.1290 H     1 <1>   0.0800 
 34 H       -3.0230    -1.3770     2.5690 H     1 <1>   0.0800 
 35 H       -1.4070    -0.7120     2.4790 H     1 <1>   0.0800 
 36 H       -1.6340    -2.3340     3.0080 H     1 <1>   0.0800 
 37 H       -2.0610    -4.1240     1.6110 H     1 <1>   0.0800 
 38 H       -2.4220    -4.0080    -0.0670 H     1 <1>   0.0800 
 39 H       -3.5800    -3.4470     1.1280 H     1 <1>   0.0800 
 40 H        0.0800    -2.9230     1.1140 H     1 <1>   0.0800 
 41 H        0.0720    -1.2920     0.5150 H     1 <1>   0.0800 
 42 H       -0.3540    -2.6140    -0.5460 H     1 <1>   0.0800 
 43 H       -5.0310    -1.2580     0.7840 H     1 <1>   0.1500 
 44 H       -6.9210    -3.6870    -2.9650 H     1 <1>   0.3700 
 45 H       -7.2070    -1.3440     1.9430 H     1 <1>   0.1500 
 46 H       -9.1180    -3.8100    -1.8570 H     1 <1>   0.1500 
 47 H      -10.5130    -3.2810     0.0690 H     1 <1>   0.1500 
 48 H      -11.3490    -1.9220     3.3460 H     1 <1>   0.0800 
 49 H      -11.0910    -3.3580     2.3610 H     1 <1>   0.0800 
 50 H      -11.5670    -1.8270     1.6020 H     1 <1>   0.0800 
@<TRIPOS>BOND
  1   1   2  2   
  2   2   3  am  
  3   2   4  1   
  4   3   5  1   
  5   3   6  1   
  6   4   7  1   
  7   4   8  1   
  8   4  25  1   
  9   5   9  1   
 10   5  10  1   
 11   5  11  1   
 12   6  12  1   
 13   6  26  1   
 14   6  27  1   
 15   7  28  1   
 16   7  29  1   
 17   7  30  1   
 18   8  31  1   
 19   8  32  1   
 20   8  33  1   
 21   9  34  1   
 22   9  35  1   
 23   9  36  1   
 24  10  37  1   
 25  10  38  1   
 26  10  39  1   
 27  11  40  1   
 28  11  41  1   
 29  11  42  1   
 30  12  13  1   
 31  12  14  2   
 32  13  15  2   
 33  13  16  am  
 34  14  17  1   
 35  14  43  1   
 36  16  18  1   
 37  16  44  1   
 38  17  18  ar  
 39  17  19  ar  
 40  18  20  ar  
 41  19  21  ar  
 42  19  45  1   
 43  20  22  ar  
 44  20  46  1   
 45  21  22  ar  
 46  21  23  1   
 47  22  47  1   
 48  23  24  1   
 49  24  48  1   
 50  24  49  1   
 51  24  50  1   
@<TRIPOS>SUBSTRUCTURE
  1 ****  14 GROUP 4 **** **** 0

# MOE 2024.06 (io_trps.svl 2023.06)
