@<TRIPOS>MOLECULE
Cyclohexanecarboxylic acid (3-o-tolyl-[1,2,4]oxadiazol-5-ylmethyl)-amide
43 45 1 0 0 
SMALL
USER_CHARGES


@<TRIPOS>ATOM
  1 O       -1.5650    -0.7510    -2.0990 O.2   1 <1>  -0.5700 
  2 C       -2.6260    -0.5720    -1.5590 C.2   1 <1>   0.5690 
  3 N       -3.7000    -1.2670    -2.0030 N.am  1 <1>  -0.7300 
  4 C       -2.7400     0.4320    -0.4040 C.3   1 <1>  -0.0190 
  5 C       -5.1140    -1.2160    -1.5490 C.3   1 <1>   0.3200 
  6 C       -3.0480     1.8450    -0.9340 C.3   1 <1>  -0.1600 
  7 C       -1.4760     0.4560     0.4800 C.3   1 <1>  -0.1600 
  8 C       -5.4240    -2.3110    -0.5380 C.2   1 <1>   0.2980 
  9 C       -3.1850     2.8590     0.2110 C.3   1 <1>  -0.1600 
 10 C       -1.6130     1.4660     1.6280 C.3   1 <1>  -0.1600 
 11 O       -4.8490    -2.2570     0.6350 O.3   1 <1>  -0.0190 
 12 N       -6.2080    -3.2930    -0.7170 N.2   1 <1>  -0.5650 
 13 C       -1.9320     2.8680     1.0950 C.3   1 <1>  -0.1600 
 14 N       -5.3020    -3.2990     1.2560 N.2   1 <1>  -0.4100 
 15 C       -6.1040    -3.9160     0.4620 C.2   1 <1>   0.4620 
 16 C       -6.7970    -5.1540     0.7740 C.ar  1 <1>   0.0540 
 17 C       -8.1660    -5.3620     0.5510 C.ar  1 <1>  -0.1440 
 18 C       -6.0660    -6.2030     1.3340 C.ar  1 <1>  -0.1500 
 19 C       -8.7490    -6.5800     0.8650 C.ar  1 <1>  -0.1500 
 20 C       -9.0550    -4.2690    -0.0290 C.3   1 <1>  -0.0970 
 21 C       -6.6520    -7.4130     1.6490 C.ar  1 <1>  -0.1500 
 22 C       -7.9990    -7.6040     1.4120 C.ar  1 <1>  -0.1500 
 23 H       -3.4910    -1.9680    -2.7180 H     1 <1>   0.3700 
 24 H       -3.5490     0.1260     0.2310 H     1 <1>   0.0800 
 25 H       -5.7560    -1.3400    -2.4030 H     1 <1>   0.0800 
 26 H       -5.3310    -0.2590    -1.1110 H     1 <1>   0.0800 
 27 H       -3.9570     1.8310    -1.5090 H     1 <1>   0.0800 
 28 H       -2.2520     2.1550    -1.5900 H     1 <1>   0.0800 
 29 H       -0.6230     0.7210    -0.1220 H     1 <1>   0.0800 
 30 H       -1.3000    -0.5260     0.8820 H     1 <1>   0.0800 
 31 H       -4.0420     2.6100     0.8120 H     1 <1>   0.0800 
 32 H       -3.3430     3.8430    -0.1970 H     1 <1>   0.0800 
 33 H       -0.6960     1.4950     2.1920 H     1 <1>   0.0800 
 34 H       -2.3980     1.1480     2.2930 H     1 <1>   0.0800 
 35 H       -2.0770     3.5440     1.9210 H     1 <1>   0.0800 
 36 H       -1.0940     3.2270     0.5210 H     1 <1>   0.0800 
 37 H       -5.0150    -6.0630     1.5230 H     1 <1>   0.1500 
 38 H       -9.7980    -6.7410     0.6890 H     1 <1>   0.1500 
 39 H       -8.8740    -3.3350     0.4720 H     1 <1>   0.0800 
 40 H      -10.0960    -4.5130     0.0870 H     1 <1>   0.0800 
 41 H       -8.8490    -4.1480    -1.0780 H     1 <1>   0.0800 
 42 H       -6.0620    -8.2050     2.0780 H     1 <1>   0.1500 
 43 H       -8.4620    -8.5450     1.6530 H     1 <1>   0.1500 
@<TRIPOS>BOND
  1   1   2  2   
  2   2   3  am  
  3   2   4  1   
  4   3   5  1   
  5   3  23  1   
  6   4   6  1   
  7   4   7  1   
  8   4  24  1   
  9   5   8  1   
 10   5  25  1   
 11   5  26  1   
 12   6   9  1   
 13   6  27  1   
 14   6  28  1   
 15   7  10  1   
 16   7  29  1   
 17   7  30  1   
 18   8  11  1   
 19   8  12  2   
 20   9  13  1   
 21   9  31  1   
 22   9  32  1   
 23  10  13  1   
 24  10  33  1   
 25  10  34  1   
 26  11  14  1   
 27  12  15  1   
 28  13  35  1   
 29  13  36  1   
 30  14  15  2   
 31  15  16  1   
 32  16  17  ar  
 33  16  18  ar  
 34  17  19  ar  
 35  17  20  1   
 36  18  21  ar  
 37  18  37  1   
 38  19  22  ar  
 39  19  38  1   
 40  20  39  1   
 41  20  40  1   
 42  20  41  1   
 43  21  22  ar  
 44  21  42  1   
 45  22  43  1   
@<TRIPOS>SUBSTRUCTURE
  1 ****  11 GROUP 4 **** **** 0

# MOE 2024.06 (io_trps.svl 2023.06)
