@<TRIPOS>MOLECULE
3-[3-(4-Methoxy-phenyl)-[1,2,4]oxadiazol-5-yl]-1-piperidin-1-yl-propan-1-one
44 46 1 0 0 
SMALL
USER_CHARGES


@<TRIPOS>ATOM
  1 O        0.3020    -0.3500     0.7130 O.2   1 <1>  -0.5700 
  2 C        0.7730    -1.3690     0.2640 C.2   1 <1>   0.5690 
  3 N        2.0010    -1.3900    -0.3490 N.am  1 <1>  -0.6600 
  4 C       -0.0390    -2.6490     0.3980 C.3   1 <1>  -0.0990 
  5 C        2.6560    -2.5940    -0.9360 C.3   1 <1>   0.1400 
  6 C        2.8230    -0.1510    -0.4640 C.3   1 <1>   0.1400 
  7 C       -1.3960    -2.4450     1.0910 C.3   1 <1>   0.0200 
  8 C        4.0030    -2.8350    -0.2460 C.3   1 <1>  -0.1600 
  9 C        4.1750    -0.3630     0.2270 C.3   1 <1>  -0.1600 
 10 C       -2.1560    -3.7520     1.1980 C.2   1 <1>   0.2980 
 11 C        4.9060    -1.5960    -0.3230 C.3   1 <1>  -0.1600 
 12 O       -1.7250    -4.6640     2.0300 O.3   1 <1>  -0.0190 
 13 N       -3.1920    -4.0630     0.5380 N.2   1 <1>  -0.5650 
 14 N       -2.5620    -5.6430     1.8850 N.2   1 <1>  -0.4100 
 15 C       -3.4340    -5.2920     1.0060 C.2   1 <1>   0.4620 
 16 C       -4.5520    -6.1010     0.5510 C.ar  1 <1>   0.0540 
 17 C       -5.4560    -5.6350    -0.4080 C.ar  1 <1>  -0.1500 
 18 C       -4.7700    -7.3860     1.0550 C.ar  1 <1>  -0.1500 
 19 C       -6.5170    -6.4090    -0.8390 C.ar  1 <1>  -0.1500 
 20 C       -5.8290    -8.1670     0.6290 C.ar  1 <1>  -0.1500 
 21 C       -6.7150    -7.6800    -0.3270 C.ar  1 <1>   0.0820 
 22 O       -7.7770    -8.3750    -0.8000 O.3   1 <1>  -0.3630 
 23 C       -8.0650    -9.6780    -0.3430 C.3   1 <1>   0.0400 
 24 H        0.5400    -3.3570     0.9620 H     1 <1>   0.0800 
 25 H       -0.2120    -3.0480    -0.5840 H     1 <1>   0.0800 
 26 H        2.8150    -2.4230    -1.9880 H     1 <1>   0.0800 
 27 H        2.0420    -3.4690    -0.8340 H     1 <1>   0.0800 
 28 H        2.3200     0.6880    -0.0140 H     1 <1>   0.0800 
 29 H        2.9740     0.0740    -1.5050 H     1 <1>   0.0800 
 30 H       -1.9860    -1.7430     0.5290 H     1 <1>   0.0800 
 31 H       -1.2510    -2.0430     2.0780 H     1 <1>   0.0800 
 32 H        4.4970    -3.6700    -0.7100 H     1 <1>   0.0800 
 33 H        3.8250    -3.0910     0.7850 H     1 <1>   0.0800 
 34 H        4.0070    -0.4790     1.2830 H     1 <1>   0.0800 
 35 H        4.7850     0.5120     0.0870 H     1 <1>   0.0800 
 36 H        5.1830    -1.4190    -1.3480 H     1 <1>   0.0800 
 37 H        5.8080    -1.7660     0.2410 H     1 <1>   0.0800 
 38 H       -5.3250    -4.6510    -0.8220 H     1 <1>   0.1500 
 39 H       -4.0960    -7.7800     1.7950 H     1 <1>   0.1500 
 40 H       -7.2010    -6.0330    -1.5770 H     1 <1>   0.1500 
 41 H       -5.9490    -9.1470     1.0500 H     1 <1>   0.1500 
 42 H       -8.9440   -10.0240    -0.8560 H     1 <1>   0.0800 
 43 H       -8.2490    -9.6440     0.7160 H     1 <1>   0.0800 
 44 H       -7.2330   -10.3200    -0.5710 H     1 <1>   0.0800 
@<TRIPOS>BOND
  1   1   2  2   
  2   2   3  am  
  3   2   4  1   
  4   3   5  1   
  5   3   6  1   
  6   4   7  1   
  7   4  24  1   
  8   4  25  1   
  9   5   8  1   
 10   5  26  1   
 11   5  27  1   
 12   6   9  1   
 13   6  28  1   
 14   6  29  1   
 15   7  10  1   
 16   7  30  1   
 17   7  31  1   
 18   8  11  1   
 19   8  32  1   
 20   8  33  1   
 21   9  11  1   
 22   9  34  1   
 23   9  35  1   
 24  10  12  1   
 25  10  13  2   
 26  11  36  1   
 27  11  37  1   
 28  12  14  1   
 29  13  15  1   
 30  14  15  2   
 31  15  16  1   
 32  16  17  ar  
 33  16  18  ar  
 34  17  19  ar  
 35  17  38  1   
 36  18  20  ar  
 37  18  39  1   
 38  19  21  ar  
 39  19  40  1   
 40  20  21  ar  
 41  20  41  1   
 42  21  22  1   
 43  22  23  1   
 44  23  42  1   
 45  23  43  1   
 46  23  44  1   
@<TRIPOS>SUBSTRUCTURE
  1 ****  10 GROUP 4 **** **** 0

# MOE 2024.06 (io_trps.svl 2023.06)
