@<TRIPOS>MOLECULE
7-(4-Diethylamino-phenyl)-5-methyl-4,7-dihydro-tetrazolo[1,5-a]pyrimidine-6-carb
50 52 1 0 0 
SMALL
USER_CHARGES


@<TRIPOS>ATOM
  1 O       -0.3610    -1.2200    -1.9820 O.2   1 <1>  -0.5700 
  2 C       -0.0830    -1.6990    -0.8980 C.2   1 <1>   0.7060 
  3 O       -1.0290    -1.7320     0.0450 O.3   1 <1>  -0.4300 
  4 C        1.2160    -2.2080    -0.5940 C.2   1 <1>  -0.1240 
  5 C       -2.3120    -1.1900    -0.1780 C.3   1 <1>   0.1200 
  6 C        1.5630    -3.2020     0.2800 C.2   1 <1>  -0.0380 
  7 C        2.3060    -1.4640    -1.3880 C.3   1 <1>   0.4570 
  8 C       -3.1350    -1.3940     1.0900 C.3   1 <1>  -0.2400 
  9 N        2.8800    -3.5730     0.4460 N.pl3 1 <1>  -0.5840 
 10 C        0.5990    -4.0170     1.1270 C.3   1 <1>  -0.1020 
 11 N        3.6340    -2.1020    -1.2350 N.pl3 1 <1>   0.3140 
 12 C        2.3760    -0.0100    -0.9140 C.ar  1 <1>  -0.1440 
 13 C        3.8800    -3.0600    -0.3670 C.2   1 <1>   0.2700 
 14 N        4.7550    -1.8580    -1.8950 N.2   1 <1>  -0.4180 
 15 C        2.0140     1.0230    -1.7690 C.ar  1 <1>  -0.1500 
 16 C        2.7850     0.3000     0.3780 C.ar  1 <1>  -0.1500 
 17 N        5.1070    -3.4170    -0.4370 N.2   1 <1>  -0.3380 
 18 N        5.6340    -2.6540    -1.3970 N.2   1 <1>   0.0000 
 19 C        2.0620     2.3360    -1.3410 C.ar  1 <1>  -0.1500 
 20 C        2.8300     1.6150     0.8010 C.ar  1 <1>  -0.1500 
 21 C        2.4700     2.6480    -0.0500 C.ar  1 <1>   0.1000 
 22 N        2.5210     3.9620     0.4010 N.pl3 1 <1>  -0.8380 
 23 C        3.6830     4.7630    -0.0580 C.3   1 <1>   0.2090 
 24 C        1.2270     4.6830     0.4690 C.3   1 <1>   0.2090 
 25 C        4.7030     4.8260     1.0720 C.3   1 <1>  -0.2400 
 26 C        1.1460     5.4320     1.7930 C.3   1 <1>  -0.2400 
 27 H       -2.7590    -1.6990    -1.0150 H     1 <1>   0.0800 
 28 H       -2.2040    -0.1430    -0.4050 H     1 <1>   0.0800 
 29 H        2.0700    -1.4920    -2.4360 H     1 <1>   0.0800 
 30 H       -3.2270    -2.4420     1.3100 H     1 <1>   0.0800 
 31 H       -4.1200    -0.9850     0.9520 H     1 <1>   0.0800 
 32 H       -2.6690    -0.8900     1.9180 H     1 <1>   0.0800 
 33 H        3.1600    -4.3150     1.0960 H     1 <1>   0.4000 
 34 H        0.9030    -5.0490     1.1490 H     1 <1>   0.0800 
 35 H       -0.4010    -3.9910     0.7390 H     1 <1>   0.0800 
 36 H        0.5890    -3.6390     2.1340 H     1 <1>   0.0800 
 37 H        1.6860     0.8120    -2.7730 H     1 <1>   0.1500 
 38 H        3.0700    -0.4780     1.0670 H     1 <1>   0.1500 
 39 H        1.7830     3.1320    -2.0050 H     1 <1>   0.1500 
 40 H        3.1460     1.8610     1.7980 H     1 <1>   0.1500 
 41 H        3.3720     5.7590    -0.3270 H     1 <1>   0.0800 
 42 H        4.1280     4.3000    -0.9230 H     1 <1>   0.0800 
 43 H        0.4180     3.9740     0.4130 H     1 <1>   0.0800 
 44 H        1.1370     5.3660    -0.3590 H     1 <1>   0.0800 
 45 H        4.2660     5.2790     1.9420 H     1 <1>   0.0800 
 46 H        5.5520     5.4080     0.7650 H     1 <1>   0.0800 
 47 H        5.0350     3.8330     1.3160 H     1 <1>   0.0800 
 48 H        1.2650     4.7420     2.6080 H     1 <1>   0.0800 
 49 H        0.1870     5.9100     1.8820 H     1 <1>   0.0800 
 50 H        1.9110     6.1840     1.8470 H     1 <1>   0.0800 
@<TRIPOS>BOND
  1   1   2  2   
  2   2   3  1   
  3   2   4  1   
  4   3   5  1   
  5   4   6  2   
  6   4   7  1   
  7   5   8  1   
  8   5  27  1   
  9   5  28  1   
 10   6   9  1   
 11   6  10  1   
 12   7  11  1   
 13   7  12  1   
 14   7  29  1   
 15   8  30  1   
 16   8  31  1   
 17   8  32  1   
 18   9  13  1   
 19   9  33  1   
 20  10  34  1   
 21  10  35  1   
 22  10  36  1   
 23  11  13  1   
 24  11  14  1   
 25  12  15  ar  
 26  12  16  ar  
 27  13  17  2   
 28  14  18  2   
 29  15  19  ar  
 30  15  37  1   
 31  16  20  ar  
 32  16  38  1   
 33  17  18  1   
 34  19  21  ar  
 35  19  39  1   
 36  20  21  ar  
 37  20  40  1   
 38  21  22  1   
 39  22  23  1   
 40  22  24  1   
 41  23  25  1   
 42  23  41  1   
 43  23  42  1   
 44  24  26  1   
 45  24  43  1   
 46  24  44  1   
 47  25  45  1   
 48  25  46  1   
 49  25  47  1   
 50  26  48  1   
 51  26  49  1   
 52  26  50  1   
@<TRIPOS>SUBSTRUCTURE
  1 ****  12 GROUP 4 **** **** 0

# MOE 2024.06 (io_trps.svl 2023.06)
