@<TRIPOS>MOLECULE
(3,6-Dichloro-2-methoxy-phenyl)-morpholin-4-yl-methanone
31 32 1 0 0 
SMALL
USER_CHARGES


@<TRIPOS>ATOM
  1 CL       0.6980     0.6020     1.9480 Cl    1 <1>  -0.1770 
  2 C        1.7490     1.2960     0.7320 C.ar  1 <1>   0.1770 
  3 C        1.7390     2.6680     0.4980 C.ar  1 <1>   0.0830 
  4 C        2.5720     0.4390     0.0280 C.ar  1 <1>  -0.1500 
  5 O        0.9080     3.4260     1.2560 O.3   1 <1>  -0.3630 
  6 C        2.5950     3.2090    -0.4750 C.ar  1 <1>   0.0860 
  7 C        3.4190     0.9620    -0.9340 C.ar  1 <1>  -0.1500 
  8 C        0.0320     4.3600     0.6580 C.3   1 <1>   0.0400 
  9 C        3.4230     2.3240    -1.1660 C.ar  1 <1>   0.1770 
 10 C        2.6730     4.6170    -0.7660 C.2   1 <1>   0.5440 
 11 CL       4.5440     2.9310    -2.3600 Cl    1 <1>  -0.1770 
 12 O        2.0010     5.0680    -1.6740 O.2   1 <1>  -0.5700 
 13 N        3.4810     5.4650    -0.0410 N.am  1 <1>  -0.6600 
 14 C        4.3210     5.0480     1.1210 C.3   1 <1>   0.1400 
 15 C        3.6830     6.8950    -0.4220 C.3   1 <1>   0.1400 
 16 C        5.7850     5.4630     0.8980 C.3   1 <1>   0.1200 
 17 C        5.1820     7.2080    -0.5530 C.3   1 <1>   0.1200 
 18 O        5.8710     6.8300     0.6070 O.3   1 <1>  -0.5600 
 19 H        2.5490    -0.6180     0.2310 H     1 <1>   0.1500 
 20 H        4.0740     0.3190    -1.4970 H     1 <1>   0.1500 
 21 H       -0.8370     4.4510     1.2830 H     1 <1>   0.0800 
 22 H       -0.2540     4.0110    -0.3200 H     1 <1>   0.0800 
 23 H        0.5270     5.3130     0.5890 H     1 <1>   0.0800 
 24 H        4.2740     3.9850     1.2740 H     1 <1>   0.0800 
 25 H        3.9520     5.5250     2.0120 H     1 <1>   0.0800 
 26 H        3.2510     7.5280     0.3330 H     1 <1>   0.0800 
 27 H        3.1950     7.1140    -1.3560 H     1 <1>   0.0800 
 28 H        6.2170     4.9090     0.0820 H     1 <1>   0.0800 
 29 H        6.3630     5.2800     1.7860 H     1 <1>   0.0800 
 30 H        5.3300     8.2630    -0.6940 H     1 <1>   0.0800 
 31 H        5.6040     6.6830    -1.3920 H     1 <1>   0.0800 
@<TRIPOS>BOND
  1   1   2  1   
  2   2   3  ar  
  3   2   4  ar  
  4   3   5  1   
  5   3   6  ar  
  6   4   7  ar  
  7   4  19  1   
  8   5   8  1   
  9   6   9  ar  
 10   6  10  1   
 11   7   9  ar  
 12   7  20  1   
 13   8  21  1   
 14   8  22  1   
 15   8  23  1   
 16   9  11  1   
 17  10  12  2   
 18  10  13  am  
 19  13  14  1   
 20  13  15  1   
 21  14  16  1   
 22  14  24  1   
 23  14  25  1   
 24  15  17  1   
 25  15  26  1   
 26  15  27  1   
 27  16  18  1   
 28  16  28  1   
 29  16  29  1   
 30  17  18  1   
 31  17  30  1   
 32  17  31  1   
@<TRIPOS>SUBSTRUCTURE
  1 ****   6 GROUP 4 **** **** 0

# MOE 2024.06 (io_trps.svl 2023.06)
