@<TRIPOS>MOLECULE
4-[3-(3-Bromo-5-ethoxy-4-methoxy-phenyl)-[1,2,4]oxadiazol-5-yl]-butyramide
41 42 1 0 0 
SMALL
USER_CHARGES


@<TRIPOS>ATOM
  1 BR       0.2450    -0.1760     1.0770 Br    1 <1>  -0.1110 
  2 C        0.1970     1.7210     0.7260 C.ar  1 <1>   0.1110 
  3 C       -0.9890     2.3110     0.3150 C.ar  1 <1>   0.0830 
  4 C        1.3660     2.4370     0.8880 C.ar  1 <1>  -0.1500 
  5 O       -2.0970     1.5450     0.1500 O.3   1 <1>  -0.3630 
  6 C       -0.9790     3.6890     0.0880 C.ar  1 <1>   0.0830 
  7 C        1.3930     3.8100     0.6380 C.ar  1 <1>   0.0540 
  8 C       -2.5670     1.3950    -1.1710 C.3   1 <1>   0.0400 
  9 O       -2.0890     4.3740    -0.2810 O.3   1 <1>  -0.3630 
 10 C        0.1950     4.4090     0.2360 C.ar  1 <1>  -0.1500 
 11 C        2.6170     4.5780     0.7940 C.2   1 <1>   0.4620 
 12 C       -3.1180     4.4650     0.6770 C.3   1 <1>   0.1200 
 13 N        3.7520     4.1110     1.1770 N.2   1 <1>  -0.4100 
 14 N        2.6820     5.8890     0.5450 N.2   1 <1>  -0.5650 
 15 C       -4.2170     5.3550     0.1060 C.3   1 <1>  -0.2400 
 16 O        4.6000     5.0910     1.1950 O.3   1 <1>  -0.0190 
 17 C        3.9010     6.1260     0.8090 C.2   1 <1>   0.2980 
 18 C        4.6100     7.4690     0.7150 C.3   1 <1>   0.0200 
 19 C        3.6750     8.6240     0.3190 C.3   1 <1>  -0.1600 
 20 C        4.4300     9.9580     0.1940 C.3   1 <1>  -0.0990 
 21 C        3.4990    11.1090    -0.1290 C.2   1 <1>   0.5690 
 22 O        3.2260    11.9160     0.7200 O.2   1 <1>  -0.5700 
 23 N        2.9820    11.2200    -1.3640 N.am  1 <1>  -0.8000 
 24 H        2.2570     1.9250     1.2070 H     1 <1>   0.1500 
 25 H       -3.3890     0.7020    -1.1590 H     1 <1>   0.0800 
 26 H       -1.7690     1.0090    -1.7810 H     1 <1>   0.0800 
 27 H       -2.8960     2.3480    -1.5440 H     1 <1>   0.0800 
 28 H        0.1700     5.4660     0.0360 H     1 <1>   0.1500 
 29 H       -2.7080     4.8890     1.5770 H     1 <1>   0.0800 
 30 H       -3.4960     3.4780     0.8810 H     1 <1>   0.0800 
 31 H       -3.8280     6.3360    -0.1000 H     1 <1>   0.0800 
 32 H       -5.0170     5.4460     0.8180 H     1 <1>   0.0800 
 33 H       -4.6090     4.9250    -0.7980 H     1 <1>   0.0800 
 34 H        5.4000     7.3800    -0.0090 H     1 <1>   0.0800 
 35 H        5.0560     7.6820     1.6710 H     1 <1>   0.0800 
 36 H        2.9020     8.7230     1.0640 H     1 <1>   0.0800 
 37 H        3.1990     8.3910    -0.6180 H     1 <1>   0.0800 
 38 H        5.1770     9.8930    -0.5750 H     1 <1>   0.0800 
 39 H        4.9270    10.1810     1.1220 H     1 <1>   0.0800 
 40 H        2.3470    11.9930    -1.5660 H     1 <1>   0.3700 
 41 H        3.1480    10.5550    -2.1170 H     1 <1>   0.3700 
@<TRIPOS>BOND
  1   1   2  1   
  2   2   3  ar  
  3   2   4  ar  
  4   3   5  1   
  5   3   6  ar  
  6   4   7  ar  
  7   4  24  1   
  8   5   8  1   
  9   6   9  1   
 10   6  10  ar  
 11   7  10  ar  
 12   7  11  1   
 13   8  25  1   
 14   8  26  1   
 15   8  27  1   
 16   9  12  1   
 17  10  28  1   
 18  11  13  2   
 19  11  14  1   
 20  12  15  1   
 21  12  29  1   
 22  12  30  1   
 23  13  16  1   
 24  14  17  2   
 25  15  31  1   
 26  15  32  1   
 27  15  33  1   
 28  16  17  1   
 29  17  18  1   
 30  18  19  1   
 31  18  34  1   
 32  18  35  1   
 33  19  20  1   
 34  19  36  1   
 35  19  37  1   
 36  20  21  1   
 37  20  38  1   
 38  20  39  1   
 39  21  22  2   
 40  21  23  am  
 41  23  40  1   
 42  23  41  1   
@<TRIPOS>SUBSTRUCTURE
  1 ****  10 GROUP 4 **** **** 0

# MOE 2024.06 (io_trps.svl 2023.06)
