@<TRIPOS>MOLECULE
8-(4-Ethoxy-phenyl)-1,6,7-trimethyl-3-(2-methyl-allyl)-1H,8H-imidazo[2,1-f]purin
56 59 1 0 0 
SMALL
USER_CHARGES


@<TRIPOS>ATOM
  1 O        0.7980    -0.1730     1.6270 O.2   1 <1>  -0.5740 
  2 C        1.6910     0.5700     1.2770 C.2   1 <1>   0.6870 
  3 N        1.4520     1.9270     1.1160 N.am  1 <1>  -0.4250 
  4 N        2.9620     0.0570     1.0420 N.am  1 <1>  -0.4410 
  5 C        2.4800     2.8200     0.8550 C.2   1 <1>   0.7000 
  6 C        0.0530     2.4240     1.0730 C.3   1 <1>   0.2730 
  7 C        3.9700     0.9410     0.7120 C.2   1 <1>   0.4210 
  8 C        3.2270    -1.4080     1.1710 C.3   1 <1>   0.0530 
  9 O        2.2860     4.0250     0.8580 O.2   1 <1>  -0.5740 
 10 C        3.7780     2.2800     0.6120 C.2   1 <1>   0.2710 
 11 C       -0.3960     2.5170    -0.3810 C.2   1 <1>  -0.2820 
 12 N        5.2780     0.6490     0.4470 N.pl3 1 <1>  -0.7030 
 13 N        5.0250     2.8300     0.2700 N.pl3 1 <1>  -0.6330 
 14 C       -0.4770     3.6770    -1.0400 C.2   1 <1>  -0.3060 
 15 C       -0.7620     1.1880    -1.0250 C.3   1 <1>  -0.1090 
 16 C        5.8740     1.8160     0.1850 C.cat 1 <1>   1.0690 
 17 C        5.7410     3.9730    -0.0240 C.2   1 <1>   0.2350 
 18 N        7.1070     2.2150    -0.1430 N.pl3 1 <1>  -0.5550 
 19 C        7.0170     3.5950    -0.2770 C.2   1 <1>   0.1580 
 20 C        5.0670     5.3310    -0.0220 C.3   1 <1>  -0.1090 
 21 C        8.2290     1.3910    -0.3210 C.ar  1 <1>   0.3050 
 22 C        8.2350     4.4210    -0.6550 C.3   1 <1>  -0.1090 
 23 C        9.1180     1.1830     0.7240 C.ar  1 <1>  -0.1560 
 24 C        8.4500     0.7650    -1.5380 C.ar  1 <1>  -0.1560 
 25 C       10.2110     0.3500     0.5610 C.ar  1 <1>  -0.1560 
 26 C        9.5410    -0.0680    -1.7030 C.ar  1 <1>  -0.1560 
 27 C       10.4270    -0.2840    -0.6590 C.ar  1 <1>   0.0760 
 28 O       11.4640    -1.1200    -0.9140 O.3   1 <1>  -0.3680 
 29 C       12.5220    -1.3420    -0.0040 C.3   1 <1>   0.1130 
 30 C       13.4980    -0.1640    -0.0550 C.3   1 <1>  -0.2460 
 31 H        0.0050     3.3980     1.5320 H     1 <1>   0.0730 
 32 H       -0.6070     1.7790     1.6270 H     1 <1>   0.0730 
 33 H        2.3160    -1.9700     1.0520 H     1 <1>   0.0730 
 34 H        3.6350    -1.6190     2.1440 H     1 <1>   0.0730 
 35 H        3.9170    -1.7330     0.4130 H     1 <1>   0.0730 
 36 H        5.7430    -0.2560     0.4430 H     1 <1>   0.4450 
 37 H       -0.7980     3.7710    -2.0630 H     1 <1>   0.1440 
 38 H       -0.2280     4.6340    -0.6140 H     1 <1>   0.1440 
 39 H        0.0940     0.5410    -1.0850 H     1 <1>   0.0730 
 40 H       -1.1370     1.3410    -2.0220 H     1 <1>   0.0730 
 41 H       -1.5270     0.6950    -0.4510 H     1 <1>   0.0730 
 42 H        4.6640     5.5400     0.9530 H     1 <1>   0.0730 
 43 H        4.2610     5.3430    -0.7340 H     1 <1>   0.0730 
 44 H        5.7630     6.1080    -0.2790 H     1 <1>   0.0730 
 45 H        8.6190     4.1000    -1.6070 H     1 <1>   0.0730 
 46 H        9.0070     4.3020     0.0850 H     1 <1>   0.0730 
 47 H        7.9880     5.4650    -0.7230 H     1 <1>   0.0730 
 48 H        8.9610     1.6730     1.6690 H     1 <1>   0.1440 
 49 H        7.7780     0.9270    -2.3620 H     1 <1>   0.1440 
 50 H       10.8850     0.2070     1.3860 H     1 <1>   0.1440 
 51 H        9.7230    -0.5580    -2.6450 H     1 <1>   0.1440 
 52 H       13.0240    -2.2410    -0.3170 H     1 <1>   0.0730 
 53 H       12.1230    -1.5030     0.9810 H     1 <1>   0.0730 
 54 H       13.8790    -0.0480    -1.0540 H     1 <1>   0.0730 
 55 H       14.3250    -0.3520     0.6040 H     1 <1>   0.0730 
 56 H       13.0190     0.7470     0.2520 H     1 <1>   0.0730 
@<TRIPOS>BOND
  1   1   2  2   
  2   2   3  am  
  3   2   4  am  
  4   3   5  am  
  5   3   6  1   
  6   4   7  1   
  7   4   8  1   
  8   5   9  2   
  9   5  10  1   
 10   6  11  1   
 11   6  31  1   
 12   6  32  1   
 13   7  10  2   
 14   7  12  1   
 15   8  33  1   
 16   8  34  1   
 17   8  35  1   
 18  10  13  1   
 19  11  14  2   
 20  11  15  1   
 21  12  16  ar  
 22  12  36  1   
 23  13  16  ar  
 24  13  17  1   
 25  14  37  1   
 26  14  38  1   
 27  15  39  1   
 28  15  40  1   
 29  15  41  1   
 30  16  18  ar  
 31  17  19  2   
 32  17  20  1   
 33  18  19  1   
 34  18  21  1   
 35  19  22  1   
 36  20  42  1   
 37  20  43  1   
 38  20  44  1   
 39  21  23  ar  
 40  21  24  ar  
 41  22  45  1   
 42  22  46  1   
 43  22  47  1   
 44  23  25  ar  
 45  23  48  1   
 46  24  26  ar  
 47  24  49  1   
 48  25  27  ar  
 49  25  50  1   
 50  26  27  ar  
 51  26  51  1   
 52  27  28  1   
 53  28  29  1   
 54  29  30  1   
 55  29  52  1   
 56  29  53  1   
 57  30  54  1   
 58  30  55  1   
 59  30  56  1   
@<TRIPOS>SUBSTRUCTURE
  1 ****  16 GROUP 4 **** **** 0

# MOE 2024.06 (io_trps.svl 2023.06)
