@<TRIPOS>MOLECULE
3-(3,4-Dimethoxy-phenyl)-2,5-dimethyl-7-trifluoromethyl-pyrazolo[1,5-a]pyrimidin
41 43 1 0 0 
SMALL
USER_CHARGES


@<TRIPOS>ATOM
  1 F        0.5060     0.6230    -1.4400 F     1 <1>  -0.3400 
  2 C        1.0570     0.7190    -0.2370 C.3   1 <1>   1.1580 
  3 F        1.9580    -0.2550    -0.1810 F     1 <1>  -0.3400 
  4 F        0.1290     0.3960     0.6530 F     1 <1>  -0.3400 
  5 C        1.7000     2.0620     0.0240 C.2   1 <1>  -0.1690 
  6 N        0.8560     3.1460    -0.0060 N.pl3 1 <1>   0.6010 
  7 C        3.0190     2.2950     0.2830 C.2   1 <1>  -0.1360 
  8 N       -0.4690     3.1910    -0.2430 N.2   1 <1>  -0.7070 
  9 C        1.3630     4.4030     0.2270 C.2   1 <1>  -0.0260 
 10 C        3.4800     3.6210     0.5090 C.2   1 <1>   0.3750 
 11 C       -0.7780     4.4490    -0.1550 C.2   1 <1>   0.1080 
 12 N        2.6960     4.6440     0.4820 N.2   1 <1>  -0.5760 
 13 C        0.3080     5.2710     0.1500 C.2   1 <1>  -0.0540 
 14 C        4.9510     3.8340     0.7910 C.3   1 <1>  -0.1790 
 15 C       -2.2000     4.9130    -0.3890 C.3   1 <1>  -0.0590 
 16 C        0.3250     6.7020     0.3380 C.ar  1 <1>   0.0540 
 17 C        1.2760     7.4900    -0.3020 C.ar  1 <1>  -0.1500 
 18 C       -0.5950     7.3380     1.1640 C.ar  1 <1>  -0.1500 
 19 C        1.3180     8.8720    -0.1470 C.ar  1 <1>   0.0820 
 20 C       -0.5810     8.7110     1.3190 C.ar  1 <1>  -0.1500 
 21 O        2.2900     9.6090    -0.7600 O.3   1 <1>  -0.3620 
 22 C        0.3540     9.4950     0.6640 C.ar  1 <1>   0.0820 
 23 C        3.5120     9.0190    -1.1480 C.3   1 <1>   0.0400 
 24 O        0.2340    10.8350     0.8960 O.3   1 <1>  -0.3630 
 25 C        0.7220    11.7960    -0.0130 C.3   1 <1>   0.0400 
 26 H        3.7460     1.5020     0.3260 H     1 <1>   0.1500 
 27 H        5.2410     3.2780     1.6630 H     1 <1>   0.0800 
 28 H        5.1470     4.8770     0.9680 H     1 <1>   0.0800 
 29 H        5.5360     3.5120    -0.0500 H     1 <1>   0.0800 
 30 H       -2.6760     4.2720    -1.1090 H     1 <1>   0.0800 
 31 H       -2.2110     5.9190    -0.7660 H     1 <1>   0.0800 
 32 H       -2.7510     4.8690     0.5310 H     1 <1>   0.0800 
 33 H        1.9840     6.9820    -0.9270 H     1 <1>   0.1500 
 34 H       -1.3240     6.7520     1.6930 H     1 <1>   0.1500 
 35 H       -1.3030     9.1900     1.9550 H     1 <1>   0.1500 
 36 H        4.1970     9.8070    -1.4040 H     1 <1>   0.0800 
 37 H        3.3430     8.3920    -2.0050 H     1 <1>   0.0800 
 38 H        3.9030     8.4480    -0.3230 H     1 <1>   0.0800 
 39 H        0.2680    12.7410     0.2220 H     1 <1>   0.0800 
 40 H        0.4590    11.4990    -1.0130 H     1 <1>   0.0800 
 41 H        1.7880    11.8670     0.0970 H     1 <1>   0.0800 
@<TRIPOS>BOND
  1   1   2  1   
  2   2   3  1   
  3   2   4  1   
  4   2   5  1   
  5   5   6  1   
  6   5   7  2   
  7   6   8  1   
  8   6   9  1   
  9   7  10  1   
 10   7  26  1   
 11   8  11  2   
 12   9  12  1   
 13   9  13  2   
 14  10  12  2   
 15  10  14  1   
 16  11  13  1   
 17  11  15  1   
 18  13  16  1   
 19  14  27  1   
 20  14  28  1   
 21  14  29  1   
 22  15  30  1   
 23  15  31  1   
 24  15  32  1   
 25  16  17  ar  
 26  16  18  ar  
 27  17  19  ar  
 28  17  33  1   
 29  18  20  ar  
 30  18  34  1   
 31  19  21  1   
 32  19  22  ar  
 33  20  22  ar  
 34  20  35  1   
 35  21  23  1   
 36  22  24  1   
 37  23  36  1   
 38  23  37  1   
 39  23  38  1   
 40  24  25  1   
 41  25  39  1   
 42  25  40  1   
 43  25  41  1   
@<TRIPOS>SUBSTRUCTURE
  1 ****  13 GROUP 4 **** **** 0

# MOE 2024.06 (io_trps.svl 2023.06)
