@<TRIPOS>MOLECULE
3-(2-Methoxy-ethyl)-8-(2-methoxy-5-methyl-phenyl)-1,6,7-trimethyl-1H,8H-imidazo[
56 59 1 0 0 
SMALL
USER_CHARGES


@<TRIPOS>ATOM
  1 O        1.0390     0.2410     2.2320 O.2   1 <1>  -0.5740 
  2 C        1.9630     0.8790     1.7740 C.2   1 <1>   0.6870 
  3 N        1.7490     2.1620     1.2830 N.am  1 <1>  -0.4250 
  4 N        3.2340     0.3200     1.7320 N.am  1 <1>  -0.4410 
  5 C        2.7760     2.8940     0.7020 C.2   1 <1>   0.7000 
  6 C        0.3810     2.7640     1.3840 C.3   1 <1>   0.1340 
  7 C        4.2590     1.0720     1.1950 C.2   1 <1>   0.4210 
  8 C        3.4920    -1.0490     2.2740 C.3   1 <1>   0.0530 
  9 O        2.5620     3.9910     0.2150 O.2   1 <1>  -0.5740 
 10 C        4.0800     2.3140     0.6830 C.2   1 <1>   0.2710 
 11 C       -0.4740     2.3670     0.1810 C.3   1 <1>   0.1130 
 12 N        5.5690     0.7180     1.0710 N.pl3 1 <1>  -0.7030 
 13 N        5.3370     2.7320     0.2160 N.pl3 1 <1>  -0.6330 
 14 O       -1.7040     3.0030     0.3000 O.3   1 <1>  -0.5640 
 15 C        6.1810     1.7410     0.4670 C.cat 1 <1>   1.0690 
 16 C        6.0570     3.7000    -0.4540 C.2   1 <1>   0.2350 
 17 C       -2.5950     2.7030    -0.7240 C.3   1 <1>   0.0330 
 18 N        7.4200     2.0050     0.0410 N.pl3 1 <1>  -0.5550 
 19 C        7.3300     3.2520    -0.5670 C.2   1 <1>   0.1580 
 20 C        5.3840     4.9750    -0.9230 C.3   1 <1>  -0.1080 
 21 C        8.5150     1.1140     0.1170 C.ar  1 <1>   0.3060 
 22 C        8.5330     3.8960    -1.2380 C.3   1 <1>  -0.1080 
 23 C        8.4400    -0.1770    -0.4210 C.ar  1 <1>   0.0760 
 24 C        9.6810     1.5180     0.7520 C.ar  1 <1>  -0.1560 
 25 O        7.2710    -0.5640    -1.0130 O.3   1 <1>  -0.3680 
 26 C        9.5390    -1.0250    -0.3290 C.ar  1 <1>  -0.1560 
 27 C       10.7710     0.6710     0.8460 C.ar  1 <1>  -0.1500 
 28 C        7.2360    -1.6770    -1.8860 C.3   1 <1>   0.0330 
 29 C       10.6950    -0.5980     0.3000 C.ar  1 <1>  -0.1560 
 30 C       12.0460     1.1230     1.5370 C.3   1 <1>  -0.1030 
 31 H        0.4510     3.8380     1.4290 H     1 <1>   0.0730 
 32 H       -0.1010     2.4270     2.2860 H     1 <1>   0.0730 
 33 H        2.5740    -1.6050     2.3620 H     1 <1>   0.0730 
 34 H        3.9420    -0.9740     3.2490 H     1 <1>   0.0730 
 35 H        4.1470    -1.5930     1.6170 H     1 <1>   0.0730 
 36 H       -0.6390     1.3030     0.1710 H     1 <1>   0.0730 
 37 H       -0.0130     2.6910    -0.7360 H     1 <1>   0.0730 
 38 H        6.0270    -0.1750     1.2460 H     1 <1>   0.4450 
 39 H       -3.5090     3.2390    -0.5400 H     1 <1>   0.0730 
 40 H       -2.7900     1.6440    -0.7270 H     1 <1>   0.0730 
 41 H       -2.1740     3.0150    -1.6650 H     1 <1>   0.0730 
 42 H        4.5920     4.7410    -1.6120 H     1 <1>   0.0730 
 43 H        6.0850     5.6240    -1.4150 H     1 <1>   0.0730 
 44 H        4.9630     5.4990    -0.0840 H     1 <1>   0.0730 
 45 H        8.9580     3.2200    -1.9590 H     1 <1>   0.0730 
 46 H        9.2830     4.1410    -0.5090 H     1 <1>   0.0730 
 47 H        8.2510     4.7990    -1.7480 H     1 <1>   0.0730 
 48 H        9.7370     2.5010     1.1810 H     1 <1>   0.1440 
 49 H        9.5230    -2.0210    -0.7330 H     1 <1>   0.1440 
 50 H        6.2680    -1.7110    -2.3520 H     1 <1>   0.0730 
 51 H        7.3980    -2.5770    -1.3190 H     1 <1>   0.0730 
 52 H        7.9970    -1.5570    -2.6380 H     1 <1>   0.0730 
 53 H       11.5410    -1.2620     0.3640 H     1 <1>   0.1440 
 54 H       11.8550     1.9510     2.1960 H     1 <1>   0.0730 
 55 H       12.7720     1.4250     0.8030 H     1 <1>   0.0730 
 56 H       12.4600     0.3180     2.1190 H     1 <1>   0.0730 
@<TRIPOS>BOND
  1   1   2  2   
  2   2   3  am  
  3   2   4  am  
  4   3   5  am  
  5   3   6  1   
  6   4   7  1   
  7   4   8  1   
  8   5   9  2   
  9   5  10  1   
 10   6  11  1   
 11   6  31  1   
 12   6  32  1   
 13   7  10  2   
 14   7  12  1   
 15   8  33  1   
 16   8  34  1   
 17   8  35  1   
 18  10  13  1   
 19  11  14  1   
 20  11  36  1   
 21  11  37  1   
 22  12  15  ar  
 23  12  38  1   
 24  13  15  ar  
 25  13  16  1   
 26  14  17  1   
 27  15  18  ar  
 28  16  19  2   
 29  16  20  1   
 30  17  39  1   
 31  17  40  1   
 32  17  41  1   
 33  18  19  1   
 34  18  21  1   
 35  19  22  1   
 36  20  42  1   
 37  20  43  1   
 38  20  44  1   
 39  21  23  ar  
 40  21  24  ar  
 41  22  45  1   
 42  22  46  1   
 43  22  47  1   
 44  23  25  1   
 45  23  26  ar  
 46  24  27  ar  
 47  24  48  1   
 48  25  28  1   
 49  26  29  ar  
 50  26  49  1   
 51  27  29  ar  
 52  27  30  1   
 53  28  50  1   
 54  28  51  1   
 55  28  52  1   
 56  29  53  1   
 57  30  54  1   
 58  30  55  1   
 59  30  56  1   
@<TRIPOS>SUBSTRUCTURE
  1 ****  15 GROUP 4 **** **** 0

# MOE 2024.06 (io_trps.svl 2023.06)
