@<TRIPOS>MOLECULE
Dimethyl-[4-(6-propoxy-pyridazin-3-yloxy)-6-pyrrolidin-1-yl-[1,3,5]triazin-2-yl]
48 50 1 0 0 
SMALL
USER_CHARGES


@<TRIPOS>ATOM
  1 O       -0.0480    -0.2840    -0.2290 O.3   1 <1>  -0.1650 
  2 C       -0.6990    -1.4530    -0.1130 C.ar  1 <1>   0.7020 
  3 C        1.2640    -0.1420     0.0510 C.ar  1 <1>   0.3920 
  4 N       -0.0050    -2.5600    -0.1180 N.ar  1 <1>  -0.6200 
  5 N       -1.9910    -1.3490     0.0000 N.ar  1 <1>  -0.6200 
  6 N        1.9850     0.5130    -0.8610 N.ar  1 <1>  -0.3100 
  7 C        1.7990    -0.6240     1.2330 C.ar  1 <1>  -0.1500 
  8 C       -0.7320    -3.6410     0.0060 C.ar  1 <1>   0.7200 
  9 C       -2.6100    -2.4970     0.1250 C.ar  1 <1>   0.7200 
 10 N        3.2700     0.7040    -0.6600 N.ar  1 <1>  -0.3100 
 11 C        3.1430    -0.4220     1.4420 C.ar  1 <1>  -0.1500 
 12 N       -2.0310    -3.6690     0.1370 N.ar  1 <1>  -0.6200 
 13 N       -0.0650    -4.8390     0.0090 N.pl3 1 <1>  -0.8380 
 14 N       -3.9820    -2.4610     0.2580 N.pl3 1 <1>  -0.8380 
 15 C        3.8420     0.2480     0.4610 C.ar  1 <1>   0.3930 
 16 C       -0.7430    -6.1530    -0.0470 C.3   1 <1>   0.2090 
 17 C        1.3810    -4.9690    -0.2750 C.3   1 <1>   0.2090 
 18 C       -4.7840    -1.2440    -0.0540 C.3   1 <1>   0.1290 
 19 C       -4.7680    -3.6450     0.7090 C.3   1 <1>   0.1290 
 20 O        5.1640     0.4430     0.6640 O.3   1 <1>  -0.3620 
 21 C        0.3080    -7.1070    -0.6030 C.3   1 <1>  -0.1600 
 22 C        1.6460    -6.4680    -0.2380 C.3   1 <1>  -0.1600 
 23 C        5.9460     1.1190    -0.2990 C.3   1 <1>   0.1200 
 24 C        7.3880     1.1770     0.2070 C.3   1 <1>  -0.1600 
 25 C        8.3000     1.9000    -0.7910 C.3   1 <1>  -0.2400 
 26 H        1.1900    -1.1360     1.9550 H     1 <1>   0.1500 
 27 H        3.6420    -0.7660     2.3280 H     1 <1>   0.1500 
 28 H       -1.6150    -6.1180    -0.6790 H     1 <1>   0.0800 
 29 H       -1.0300    -6.4400     0.9500 H     1 <1>   0.0800 
 30 H        1.9660    -4.4420     0.4600 H     1 <1>   0.0800 
 31 H        1.5860    -4.5710    -1.2550 H     1 <1>   0.0800 
 32 H       -4.9380    -0.6740     0.8460 H     1 <1>   0.0800 
 33 H       -5.7380    -1.5250    -0.4640 H     1 <1>   0.0800 
 34 H       -4.2770    -0.6270    -0.7750 H     1 <1>   0.0800 
 35 H       -4.1640    -4.2940     1.3190 H     1 <1>   0.0800 
 36 H       -5.1150    -4.1940    -0.1490 H     1 <1>   0.0800 
 37 H       -5.6140    -3.3260     1.2930 H     1 <1>   0.0800 
 38 H        0.2040    -7.1500    -1.6720 H     1 <1>   0.0800 
 39 H        0.2000    -8.0970    -0.1990 H     1 <1>   0.0800 
 40 H        1.9220    -6.7460     0.7640 H     1 <1>   0.0800 
 41 H        2.4350    -6.7500    -0.9120 H     1 <1>   0.0800 
 42 H        5.5450     2.1100    -0.4290 H     1 <1>   0.0800 
 43 H        5.8870     0.5770    -1.2280 H     1 <1>   0.0800 
 44 H        7.7520     0.1750     0.3560 H     1 <1>   0.0800 
 45 H        7.4120     1.6970     1.1490 H     1 <1>   0.0800 
 46 H        8.3030     1.3890    -1.7370 H     1 <1>   0.0800 
 47 H        9.3070     1.9290    -0.4140 H     1 <1>   0.0800 
 48 H        7.9630     2.9110    -0.9440 H     1 <1>   0.0800 
@<TRIPOS>BOND
  1   1   2  1   
  2   1   3  1   
  3   2   4  ar  
  4   2   5  ar  
  5   3   6  ar  
  6   3   7  ar  
  7   4   8  ar  
  8   5   9  ar  
  9   6  10  ar  
 10   7  11  ar  
 11   7  26  1   
 12   8  12  ar  
 13   8  13  1   
 14   9  12  ar  
 15   9  14  1   
 16  10  15  ar  
 17  11  15  ar  
 18  11  27  1   
 19  13  16  1   
 20  13  17  1   
 21  14  18  1   
 22  14  19  1   
 23  15  20  1   
 24  16  21  1   
 25  16  28  1   
 26  16  29  1   
 27  17  22  1   
 28  17  30  1   
 29  17  31  1   
 30  18  32  1   
 31  18  33  1   
 32  18  34  1   
 33  19  35  1   
 34  19  36  1   
 35  19  37  1   
 36  20  23  1   
 37  21  22  1   
 38  21  38  1   
 39  21  39  1   
 40  22  40  1   
 41  22  41  1   
 42  23  24  1   
 43  23  42  1   
 44  23  43  1   
 45  24  25  1   
 46  24  44  1   
 47  24  45  1   
 48  25  46  1   
 49  25  47  1   
 50  25  48  1   
@<TRIPOS>SUBSTRUCTURE
  1 ****   4 GROUP 4 **** **** 0

# MOE 2024.06 (io_trps.svl 2023.06)
