@<TRIPOS>MOLECULE
2-(4-Methoxy-3-methyl-benzenesulfonylamino)-N-pyridin-4-ylmethyl-propionamide
46 47 1 0 0 
SMALL
USER_CHARGES


@<TRIPOS>ATOM
  1 S       -0.1310    -1.7450    -2.2640 S.o2  1 <1>   1.4470 
  2 O       -0.4990    -1.2080    -3.5510 O.2   1 <1>  -0.6500 
  3 O       -0.9190    -2.8100    -1.6900 O.2   1 <1>  -0.6500 
  4 N        1.4050    -2.3570    -2.5500 N.am  1 <1>  -0.9140 
  5 C        0.1430    -0.3970    -1.0840 C.ar  1 <1>  -0.0090 
  6 C        1.7430    -3.5550    -1.7670 C.3   1 <1>   0.3370 
  7 C       -0.4820    -0.3820     0.1570 C.ar  1 <1>  -0.1500 
  8 C        1.0000     0.6520    -1.3930 C.ar  1 <1>  -0.1500 
  9 C        1.9350    -3.3120    -0.2500 C.2   1 <1>   0.5690 
 10 C        3.0260    -4.1160    -2.3820 C.3   1 <1>  -0.2400 
 11 C       -0.2670     0.6410     1.0680 C.ar  1 <1>  -0.1440 
 12 C        1.2300     1.6790    -0.4970 C.ar  1 <1>  -0.1500 
 13 O        1.6660    -4.1950     0.5290 O.2   1 <1>  -0.5700 
 14 N        2.4250    -2.1220     0.1860 N.am  1 <1>  -0.7300 
 15 C        0.5940     1.6830     0.7400 C.ar  1 <1>   0.0830 
 16 C       -0.9820     0.6160     2.4120 C.3   1 <1>  -0.0970 
 17 C        2.6430    -1.7790     1.6000 C.3   1 <1>   0.2840 
 18 O        0.7790     2.6680     1.6580 O.3   1 <1>  -0.3620 
 19 C        3.5820    -0.5880     1.6800 C.ar  1 <1>  -0.1430 
 20 C        1.4640     3.8580     1.3330 C.3   1 <1>   0.0400 
 21 C        3.2390     0.5570     2.3710 C.ar  1 <1>  -0.1500 
 22 C        4.8240    -0.5820     1.0750 C.ar  1 <1>  -0.1500 
 23 C        4.1200     1.6230     2.4150 C.ar  1 <1>   0.1600 
 24 C        5.6310     0.5390     1.1780 C.ar  1 <1>   0.1600 
 25 N        5.3070     1.6440     1.8300 N.ar  1 <1>  -0.6200 
 26 H        1.3470    -2.6410    -3.5260 H     1 <1>   0.4200 
 27 H        0.9720    -4.2990    -1.8850 H     1 <1>   0.0800 
 28 H       -1.1470    -1.1910     0.4100 H     1 <1>   0.1500 
 29 H        1.4940     0.6640    -2.3510 H     1 <1>   0.1500 
 30 H        3.8270    -3.4040    -2.2940 H     1 <1>   0.0800 
 31 H        2.8760    -4.3660    -3.4160 H     1 <1>   0.0800 
 32 H        3.3110    -5.0120    -1.8580 H     1 <1>   0.0800 
 33 H        1.9070     2.4630    -0.7790 H     1 <1>   0.1500 
 34 H        2.5840    -1.3590    -0.4760 H     1 <1>   0.3700 
 35 H       -1.5860    -0.2670     2.5170 H     1 <1>   0.0800 
 36 H       -1.6170     1.4790     2.4990 H     1 <1>   0.0800 
 37 H       -0.2630     0.6370     3.2110 H     1 <1>   0.0800 
 38 H        3.0690    -2.6220     2.1180 H     1 <1>   0.0800 
 39 H        1.6960    -1.5410     2.0530 H     1 <1>   0.0800 
 40 H        1.4280     4.5090     2.1880 H     1 <1>   0.0800 
 41 H        0.9740     4.3250     0.4970 H     1 <1>   0.0800 
 42 H        2.4870     3.6230     1.0960 H     1 <1>   0.0800 
 43 H        2.2910     0.6360     2.8720 H     1 <1>   0.1500 
 44 H        5.1680    -1.4400     0.5270 H     1 <1>   0.1500 
 45 H        3.8300     2.5040     2.9610 H     1 <1>   0.1500 
 46 H        6.5940     0.5250     0.6980 H     1 <1>   0.1500 
@<TRIPOS>BOND
  1   1   2  2   
  2   1   3  2   
  3   1   4  am  
  4   1   5  1   
  5   4   6  1   
  6   4  26  1   
  7   5   7  ar  
  8   5   8  ar  
  9   6   9  1   
 10   6  10  1   
 11   6  27  1   
 12   7  11  ar  
 13   7  28  1   
 14   8  12  ar  
 15   8  29  1   
 16   9  13  2   
 17   9  14  am  
 18  10  30  1   
 19  10  31  1   
 20  10  32  1   
 21  11  15  ar  
 22  11  16  1   
 23  12  15  ar  
 24  12  33  1   
 25  14  17  1   
 26  14  34  1   
 27  15  18  1   
 28  16  35  1   
 29  16  36  1   
 30  16  37  1   
 31  17  19  1   
 32  17  38  1   
 33  17  39  1   
 34  18  20  1   
 35  19  21  ar  
 36  19  22  ar  
 37  20  40  1   
 38  20  41  1   
 39  20  42  1   
 40  21  23  ar  
 41  21  43  1   
 42  22  24  ar  
 43  22  44  1   
 44  23  25  ar  
 45  23  45  1   
 46  24  25  ar  
 47  24  46  1   
@<TRIPOS>SUBSTRUCTURE
  1 ****  14 GROUP 4 **** **** 0

# MOE 2024.06 (io_trps.svl 2023.06)
