@<TRIPOS>MOLECULE
9-(2-Methoxy-phenyl)-5-morpholin-4-yl-1,2,3,4-tetrahydro-9H-7-thia-6,9,11-triaza
56 61 1 0 0 
SMALL
USER_CHARGES


@<TRIPOS>ATOM
  1 S        0.0020    -1.3620    -0.7420 S.3   1 <1>  -0.0800 
  2 C       -1.2120    -0.1360    -0.3650 C.ar  1 <1>   0.2970 
  3 C        1.3160    -0.2770    -0.2800 C.2   1 <1>  -0.0450 
  4 N       -2.4900    -0.4040    -0.5180 N.ar  1 <1>  -0.5670 
  5 C       -0.6090     1.0370     0.0790 C.ar  1 <1>   0.0000 
  6 C        2.6940    -0.5800    -0.3030 C.2   1 <1>   0.7150 
  7 C        0.8300     0.9230     0.1250 C.2   1 <1>   0.1250 
  8 C       -3.2850     0.6040    -0.1910 C.ar  1 <1>   0.4100 
  9 C       -1.4680     2.0920     0.4020 C.ar  1 <1>  -0.1430 
 10 O        3.1320    -1.6700    -0.6520 O.2   1 <1>  -0.5700 
 11 N        3.5350     0.4330     0.1180 N.am  1 <1>  -0.2370 
 12 N        1.7060     1.8980     0.5410 N.2   1 <1>  -0.5750 
 13 N       -4.6330     0.3720    -0.3590 N.pl3 1 <1>  -0.8380 
 14 C       -2.8260     1.8510     0.2800 C.ar  1 <1>  -0.1430 
 15 C       -0.9150     3.4340     0.8780 C.3   1 <1>  -0.0170 
 16 C        4.9420     0.2980     0.0990 C.ar  1 <1>   0.1170 
 17 C        2.9660     1.6290     0.5150 C.2   1 <1>   0.4500 
 18 C       -5.1690     0.5760    -1.7320 C.3   1 <1>   0.2090 
 19 C       -5.2060    -0.8530     0.2670 C.3   1 <1>   0.2090 
 20 C       -3.8530     2.9250     0.6440 C.3   1 <1>  -0.0160 
 21 C       -1.9620     4.5520     0.8970 C.3   1 <1>  -0.1600 
 22 C        5.7310     1.0810    -0.7520 C.ar  1 <1>   0.0820 
 23 C        5.5620    -0.6180     0.9410 C.ar  1 <1>  -0.1500 
 24 C       -6.7090     0.5340    -1.7230 C.3   1 <1>   0.1200 
 25 C       -6.7430    -0.8310     0.1890 C.3   1 <1>   0.1200 
 26 C       -3.2700     4.0490     1.5060 C.3   1 <1>  -0.1600 
 27 O        5.0940     1.9670    -1.5690 O.3   1 <1>  -0.3630 
 28 C        7.1150     0.9370    -0.7380 C.ar  1 <1>  -0.1500 
 29 C        6.9370    -0.7560     0.9490 C.ar  1 <1>  -0.1500 
 30 O       -7.1820    -0.6460    -1.1310 O.3   1 <1>  -0.5600 
 31 C        5.7840     2.6710    -2.5790 C.3   1 <1>   0.0400 
 32 C        7.7140     0.0220     0.1100 C.ar  1 <1>  -0.1500 
 33 H       -0.1100     3.7430     0.2360 H     1 <1>   0.0800 
 34 H       -0.5160     3.3020     1.8690 H     1 <1>   0.0800 
 35 H        3.6610     2.3890     0.8290 H     1 <1>   0.0600 
 36 H       -4.7940    -0.1970    -2.3800 H     1 <1>   0.0800 
 37 H       -4.8340     1.5240    -2.1120 H     1 <1>   0.0800 
 38 H       -4.8940    -0.9070     1.2950 H     1 <1>   0.0800 
 39 H       -4.8360    -1.7260    -0.2420 H     1 <1>   0.0800 
 40 H       -4.6740     2.4790     1.1790 H     1 <1>   0.0800 
 41 H       -4.2440     3.3410    -0.2670 H     1 <1>   0.0800 
 42 H       -2.1440     4.8850    -0.1110 H     1 <1>   0.0800 
 43 H       -1.5870     5.3870     1.4620 H     1 <1>   0.0800 
 44 H        4.9640    -1.2330     1.5900 H     1 <1>   0.1500 
 45 H       -7.0860     0.5710    -2.7290 H     1 <1>   0.0800 
 46 H       -7.1000     1.3730    -1.1740 H     1 <1>   0.0800 
 47 H       -7.1350    -0.0330     0.7950 H     1 <1>   0.0800 
 48 H       -7.1450    -1.7640     0.5410 H     1 <1>   0.0800 
 49 H       -3.0840     3.6770     2.4990 H     1 <1>   0.0800 
 50 H       -3.9800     4.8550     1.5760 H     1 <1>   0.0800 
 51 H        7.7470     1.5260    -1.3760 H     1 <1>   0.1500 
 52 H        7.4040    -1.4720     1.6050 H     1 <1>   0.1500 
 53 H        5.0660     3.2470    -3.1350 H     1 <1>   0.0800 
 54 H        6.2670     1.9650    -3.2300 H     1 <1>   0.0800 
 55 H        6.5010     3.3290    -2.1210 H     1 <1>   0.0800 
 56 H        8.7850    -0.0870     0.1170 H     1 <1>   0.1500 
@<TRIPOS>BOND
  1   1   2  1   
  2   1   3  1   
  3   2   4  ar  
  4   2   5  ar  
  5   3   6  1   
  6   3   7  2   
  7   4   8  ar  
  8   5   7  1   
  9   5   9  ar  
 10   6  10  2   
 11   6  11  am  
 12   7  12  1   
 13   8  13  1   
 14   8  14  ar  
 15   9  14  ar  
 16   9  15  1   
 17  11  16  1   
 18  11  17  1   
 19  12  17  2   
 20  13  18  1   
 21  13  19  1   
 22  14  20  1   
 23  15  21  1   
 24  15  33  1   
 25  15  34  1   
 26  16  22  ar  
 27  16  23  ar  
 28  17  35  1   
 29  18  24  1   
 30  18  36  1   
 31  18  37  1   
 32  19  25  1   
 33  19  38  1   
 34  19  39  1   
 35  20  26  1   
 36  20  40  1   
 37  20  41  1   
 38  21  26  1   
 39  21  42  1   
 40  21  43  1   
 41  22  27  1   
 42  22  28  ar  
 43  23  29  ar  
 44  23  44  1   
 45  24  30  1   
 46  24  45  1   
 47  24  46  1   
 48  25  30  1   
 49  25  47  1   
 50  25  48  1   
 51  26  49  1   
 52  26  50  1   
 53  27  31  1   
 54  28  32  ar  
 55  28  51  1   
 56  29  32  ar  
 57  29  52  1   
 58  31  53  1   
 59  31  54  1   
 60  31  55  1   
 61  32  56  1   
@<TRIPOS>SUBSTRUCTURE
  1 ****   7 GROUP 4 **** **** 0

# MOE 2024.06 (io_trps.svl 2023.06)
