@<TRIPOS>MOLECULE
1-(4-Methyl-6-morpholin-4-yl-pyrimidin-2-yl)-tetrahydro-thiophenium
38 40 1 0 0 
SMALL
USER_CHARGES


@<TRIPOS>ATOM
  1 S       -0.0220    -0.1040    -1.4090 S.3   1 <1>   1.1040 
  2 C       -1.5490    -0.9160    -0.7160 C.ar  1 <1>   0.5000 
  3 C        1.3070    -0.6700    -0.2480 C.3   1 <1>  -0.1520 
  4 C       -0.1040     1.6080    -0.7020 C.3   1 <1>  -0.1530 
  5 N       -2.6290    -0.1560    -0.6870 N.ar  1 <1>  -0.6200 
  6 N       -1.3990    -2.1770    -0.3370 N.ar  1 <1>  -0.6200 
  7 C        1.4410     0.4060     0.8420 C.3   1 <1>  -0.1600 
  8 C        1.1180     1.7750     0.2160 C.3   1 <1>  -0.1600 
  9 C       -3.7130    -0.7410    -0.2150 C.ar  1 <1>   0.4100 
 10 C       -2.4900    -2.7380     0.1470 C.ar  1 <1>   0.1670 
 11 N       -4.8710    -0.0020    -0.1810 N.pl3 1 <1>  -0.8380 
 12 C       -3.6730    -2.0520     0.2280 C.ar  1 <1>  -0.1500 
 13 C       -2.3760    -4.1750     0.6120 C.3   1 <1>  -0.0970 
 14 C       -4.8620     1.4910    -0.0990 C.3   1 <1>   0.2090 
 15 C       -6.1730    -0.5420    -0.6840 C.3   1 <1>   0.2090 
 16 C       -6.1240     2.0100     0.6160 C.3   1 <1>   0.1200 
 17 C       -7.3570     0.0910     0.0700 C.3   1 <1>   0.1200 
 18 O       -7.2850     1.4890     0.0290 O.3   1 <1>  -0.5600 
 19 H        2.2400    -0.7630    -0.7730 H     1 <1>   0.0800 
 20 H        1.0640    -1.6190     0.1970 H     1 <1>   0.0800 
 21 H       -1.0010     1.7150    -0.1180 H     1 <1>   0.0800 
 22 H       -0.1030     2.3600    -1.4700 H     1 <1>   0.0800 
 23 H        2.4270     0.3980     1.2770 H     1 <1>   0.0800 
 24 H        0.7300     0.2030     1.6270 H     1 <1>   0.0800 
 25 H        0.9300     2.5150     0.9770 H     1 <1>   0.0800 
 26 H        1.9620     2.1040    -0.3670 H     1 <1>   0.0800 
 27 H       -4.5550    -2.5060     0.6320 H     1 <1>   0.1500 
 28 H       -1.6430    -4.2470     1.3940 H     1 <1>   0.0800 
 29 H       -2.0710    -4.7990    -0.2080 H     1 <1>   0.0800 
 30 H       -3.3160    -4.5350     0.9880 H     1 <1>   0.0800 
 31 H       -4.8240     1.9030    -1.0930 H     1 <1>   0.0800 
 32 H       -3.9920     1.8230     0.4380 H     1 <1>   0.0800 
 33 H       -6.2110    -1.6100    -0.5750 H     1 <1>   0.0800 
 34 H       -6.2680    -0.3130    -1.7320 H     1 <1>   0.0800 
 35 H       -6.1750     3.0820     0.5480 H     1 <1>   0.0800 
 36 H       -6.1080     1.7300     1.6540 H     1 <1>   0.0800 
 37 H       -7.3590    -0.2240     1.0990 H     1 <1>   0.0800 
 38 H       -8.2860    -0.2030    -0.3840 H     1 <1>   0.0800 
@<TRIPOS>BOND
  1   1   2  1   
  2   1   3  1   
  3   1   4  1   
  4   2   5  ar  
  5   2   6  ar  
  6   3   7  1   
  7   3  19  1   
  8   3  20  1   
  9   4   8  1   
 10   4  21  1   
 11   4  22  1   
 12   5   9  ar  
 13   6  10  ar  
 14   7   8  1   
 15   7  23  1   
 16   7  24  1   
 17   8  25  1   
 18   8  26  1   
 19   9  11  1   
 20   9  12  ar  
 21  10  12  ar  
 22  10  13  1   
 23  11  14  1   
 24  11  15  1   
 25  12  27  1   
 26  13  28  1   
 27  13  29  1   
 28  13  30  1   
 29  14  16  1   
 30  14  31  1   
 31  14  32  1   
 32  15  17  1   
 33  15  33  1   
 34  15  34  1   
 35  16  18  1   
 36  16  35  1   
 37  16  36  1   
 38  17  18  1   
 39  17  37  1   
 40  17  38  1   
@<TRIPOS>SUBSTRUCTURE
  1 ****   5 GROUP 4 **** **** 0

# MOE 2024.06 (io_trps.svl 2023.06)
