@<TRIPOS>MOLECULE
2-[4-(Benzyl-methyl-sulfamoyl)-phenoxy]-N-(tetrahydro-furan-2-ylmethyl)-acetamid
55 57 1 0 0 
SMALL
USER_CHARGES


@<TRIPOS>ATOM
  1 S       -0.6100     1.4450    -1.6270 S.o2  1 <1>   1.4470 
  2 O       -1.2210     2.6950    -1.2360 O.2   1 <1>  -0.6500 
  3 O       -1.0340     0.8030    -2.8530 O.2   1 <1>  -0.6500 
  4 N       -0.9010     0.3370    -0.3800 N.am  1 <1>  -0.8490 
  5 C        1.1920     1.6350    -1.6120 C.ar  1 <1>  -0.0090 
  6 C       -2.3310     0.3250    -0.0610 C.3   1 <1>   0.3390 
  7 C       -0.4180    -1.0160    -0.7000 C.3   1 <1>   0.1160 
  8 C        1.8690     1.9030    -0.4290 C.ar  1 <1>  -0.1500 
  9 C        1.9390     1.5230    -2.7800 C.ar  1 <1>  -0.1500 
 10 C       -2.6360    -0.5920     1.1180 C.ar  1 <1>  -0.1430 
 11 C        3.2440     2.0480    -0.4090 C.ar  1 <1>  -0.1500 
 12 C        3.3150     1.6670    -2.7730 C.ar  1 <1>  -0.1500 
 13 C       -3.4750    -1.6860     0.9640 C.ar  1 <1>  -0.1500 
 14 C       -2.0740    -0.3380     2.3600 C.ar  1 <1>  -0.1500 
 15 C        3.9760     1.9310    -1.5780 C.ar  1 <1>   0.0830 
 16 C       -3.7480    -2.5150     2.0380 C.ar  1 <1>  -0.1500 
 17 C       -2.3460    -1.1660     3.4360 C.ar  1 <1>  -0.1500 
 18 O        5.3140     2.0880    -1.4730 O.3   1 <1>  -0.3630 
 19 C       -3.1830    -2.2560     3.2750 C.ar  1 <1>  -0.1500 
 20 C        6.1610     2.0370    -2.6140 C.3   1 <1>   0.1810 
 21 C        7.6160     2.2760    -2.2330 C.2   1 <1>   0.5690 
 22 O        8.4690     2.1150    -3.0740 O.2   1 <1>  -0.5700 
 23 N        7.9220     2.6620    -0.9680 N.am  1 <1>  -0.7300 
 24 C        9.2760     2.8720    -0.4080 C.3   1 <1>   0.1400 
 25 C        9.4100     2.1530     0.9420 C.3   1 <1>   0.2000 
 26 O        8.3750     2.5260     1.7970 O.3   1 <1>  -0.5600 
 27 C       10.6760     2.4970     1.7130 C.3   1 <1>  -0.1600 
 28 C        8.7370     2.2960     3.1220 C.3   1 <1>   0.1200 
 29 C       10.2640     2.2580     3.1560 C.3   1 <1>  -0.1600 
 30 H       -2.8950     0.0180    -0.9260 H     1 <1>   0.0800 
 31 H       -2.6520     1.3190     0.2050 H     1 <1>   0.0800 
 32 H        0.6240    -0.9850    -0.9680 H     1 <1>   0.0800 
 33 H       -0.9760    -1.4350    -1.5210 H     1 <1>   0.0800 
 34 H       -0.5170    -1.6630     0.1560 H     1 <1>   0.0800 
 35 H        1.3100     1.9980     0.4880 H     1 <1>   0.1500 
 36 H        1.4330     1.3190    -3.7100 H     1 <1>   0.1500 
 37 H        3.7570     2.2540     0.5140 H     1 <1>   0.1500 
 38 H        3.8480     1.5700    -3.7000 H     1 <1>   0.1500 
 39 H       -3.9210    -1.8990     0.0080 H     1 <1>   0.1500 
 40 H       -1.4180     0.5060     2.4870 H     1 <1>   0.1500 
 41 H       -4.3990    -3.3620     1.9130 H     1 <1>   0.1500 
 42 H       -1.9050    -0.9630     4.3960 H     1 <1>   0.1500 
 43 H       -3.3950    -2.9000     4.1100 H     1 <1>   0.1500 
 44 H        5.8490     2.7980    -3.3050 H     1 <1>   0.0800 
 45 H        6.0690     1.0670    -3.0640 H     1 <1>   0.0800 
 46 H        7.1690     2.7210    -0.2700 H     1 <1>   0.3700 
 47 H        9.4380     3.9270    -0.2730 H     1 <1>   0.0800 
 48 H       10.0190     2.5020    -1.0940 H     1 <1>   0.0800 
 49 H        9.3440     1.0870     0.7980 H     1 <1>   0.0800 
 50 H       10.9220     3.5350     1.5670 H     1 <1>   0.0800 
 51 H       11.5080     1.8860     1.4110 H     1 <1>   0.0800 
 52 H        8.3130     1.3550     3.4280 H     1 <1>   0.0800 
 53 H        8.3380     3.0940     3.7240 H     1 <1>   0.0800 
 54 H       10.6600     3.0110     3.8150 H     1 <1>   0.0800 
 55 H       10.5900     1.2900     3.4940 H     1 <1>   0.0800 
@<TRIPOS>BOND
  1   1   2  2   
  2   1   3  2   
  3   1   4  am  
  4   1   5  1   
  5   4   6  1   
  6   4   7  1   
  7   5   8  ar  
  8   5   9  ar  
  9   6  10  1   
 10   6  30  1   
 11   6  31  1   
 12   7  32  1   
 13   7  33  1   
 14   7  34  1   
 15   8  11  ar  
 16   8  35  1   
 17   9  12  ar  
 18   9  36  1   
 19  10  13  ar  
 20  10  14  ar  
 21  11  15  ar  
 22  11  37  1   
 23  12  15  ar  
 24  12  38  1   
 25  13  16  ar  
 26  13  39  1   
 27  14  17  ar  
 28  14  40  1   
 29  15  18  1   
 30  16  19  ar  
 31  16  41  1   
 32  17  19  ar  
 33  17  42  1   
 34  18  20  1   
 35  19  43  1   
 36  20  21  1   
 37  20  44  1   
 38  20  45  1   
 39  21  22  2   
 40  21  23  am  
 41  23  24  1   
 42  23  46  1   
 43  24  25  1   
 44  24  47  1   
 45  24  48  1   
 46  25  26  1   
 47  25  27  1   
 48  25  49  1   
 49  26  28  1   
 50  27  29  1   
 51  27  50  1   
 52  27  51  1   
 53  28  29  1   
 54  28  52  1   
 55  28  53  1   
 56  29  54  1   
 57  29  55  1   
@<TRIPOS>SUBSTRUCTURE
  1 ****  11 GROUP 4 **** **** 0

# MOE 2024.06 (io_trps.svl 2023.06)
