@<TRIPOS>MOLECULE
1,3,6,7-Tetramethyl-8-(2-morpholin-4-yl-ethyl)-1H,8H-imidazo[2,1-f]purine-2,4-di
51 54 1 0 0 
SMALL
USER_CHARGES


@<TRIPOS>ATOM
  1 O        2.0930    -0.9100     0.2050 O.2   1 <1>  -0.5740 
  2 C        2.8570     0.0290     0.1110 C.2   1 <1>   0.6860 
  3 N        2.3670     1.3310     0.1080 N.am  1 <1>  -0.4250 
  4 N        4.2230    -0.2010     0.0160 N.am  1 <1>  -0.4410 
  5 C        3.2250     2.4240     0.0790 C.2   1 <1>   0.6990 
  6 C        0.8890     1.5510     0.1830 C.3   1 <1>   0.0520 
  7 C        5.0700     0.8890    -0.0190 C.2   1 <1>   0.4210 
  8 C        4.7480    -1.5970    -0.0350 C.3   1 <1>   0.0520 
  9 O        2.7840     3.5610     0.1160 O.2   1 <1>  -0.5740 
 10 C        4.6280     2.1710     0.0130 C.2   1 <1>   0.2710 
 11 N        6.4300     0.8920    -0.0710 N.pl3 1 <1>  -0.7040 
 12 N        5.7770     2.9820    -0.0160 N.pl3 1 <1>  -0.6330 
 13 C        6.8210     2.1640    -0.0590 C.cat 1 <1>   1.0690 
 14 C        6.2760     4.2660    -0.0040 C.2   1 <1>   0.2340 
 15 N        7.9820     2.8340    -0.0750 N.pl3 1 <1>  -0.5720 
 16 C        7.6280     4.1770    -0.0440 C.2   1 <1>   0.1580 
 17 C        5.3400     5.4580     0.0430 C.3   1 <1>  -0.1090 
 18 C        9.3680     2.2770    -0.1940 C.3   1 <1>   0.1610 
 19 C        8.6680     5.2860    -0.0570 C.3   1 <1>  -0.1090 
 20 C        9.6660     1.1250     0.7870 C.3   1 <1>   0.1030 
 21 N        8.9210    -0.1170     0.4850 N.3   1 <1>  -0.8130 
 22 C        9.5070    -0.8220    -0.6830 C.3   1 <1>   0.1030 
 23 C        8.9990    -1.0300     1.6500 C.3   1 <1>   0.1030 
 24 C        8.8110    -2.1730    -0.9340 C.3   1 <1>   0.1130 
 25 C        8.3100    -2.3760     1.3600 C.3   1 <1>   0.1130 
 26 O        8.8450    -2.9680     0.2140 O.3   1 <1>  -0.5640 
 27 H        0.3670     0.7740    -0.3480 H     1 <1>   0.0720 
 28 H        0.6180     2.4960    -0.2560 H     1 <1>   0.0720 
 29 H        0.5750     1.5410     1.2130 H     1 <1>   0.0720 
 30 H        4.0530    -2.2360    -0.5540 H     1 <1>   0.0720 
 31 H        4.8750    -1.9710     0.9660 H     1 <1>   0.0720 
 32 H        5.6870    -1.6320    -0.5540 H     1 <1>   0.0720 
 33 H        7.1430     0.1540     0.0540 H     1 <1>   0.4450 
 34 H        4.6870     5.4470    -0.8110 H     1 <1>   0.0720 
 35 H        5.8860     6.3830     0.0420 H     1 <1>   0.0720 
 36 H        4.7380     5.4180     0.9340 H     1 <1>   0.0720 
 37 H       10.0760     3.0600     0.0100 H     1 <1>   0.0720 
 38 H        9.5390     1.9550    -1.2050 H     1 <1>   0.0720 
 39 H        9.3050     5.2070     0.8060 H     1 <1>   0.0720 
 40 H        8.2000     6.2530    -0.0420 H     1 <1>   0.0720 
 41 H        9.2710     5.2180    -0.9450 H     1 <1>   0.0720 
 42 H        9.4250     1.4620     1.7810 H     1 <1>   0.0720 
 43 H       10.7230     0.9150     0.7710 H     1 <1>   0.0720 
 44 H       10.5560    -1.0070    -0.5170 H     1 <1>   0.0720 
 45 H        9.4120    -0.2180    -1.5670 H     1 <1>   0.0720 
 46 H        8.5260    -0.5730     2.5020 H     1 <1>   0.0720 
 47 H       10.0290    -1.2200     1.9040 H     1 <1>   0.0720 
 48 H        9.3190    -2.7110    -1.7150 H     1 <1>   0.0720 
 49 H        7.7880    -2.0310    -1.2250 H     1 <1>   0.0720 
 50 H        7.2540    -2.2440     1.2190 H     1 <1>   0.0720 
 51 H        8.4670    -3.0550     2.1790 H     1 <1>   0.0720 
@<TRIPOS>BOND
  1   1   2  2   
  2   2   3  am  
  3   2   4  am  
  4   3   5  am  
  5   3   6  1   
  6   4   7  1   
  7   4   8  1   
  8   5   9  2   
  9   5  10  1   
 10   6  27  1   
 11   6  28  1   
 12   6  29  1   
 13   7  10  2   
 14   7  11  1   
 15   8  30  1   
 16   8  31  1   
 17   8  32  1   
 18  10  12  1   
 19  11  13  ar  
 20  11  33  1   
 21  12  13  ar  
 22  12  14  1   
 23  13  15  ar  
 24  14  16  2   
 25  14  17  1   
 26  15  16  1   
 27  15  18  1   
 28  16  19  1   
 29  17  34  1   
 30  17  35  1   
 31  17  36  1   
 32  18  20  1   
 33  18  37  1   
 34  18  38  1   
 35  19  39  1   
 36  19  40  1   
 37  19  41  1   
 38  20  21  1   
 39  20  42  1   
 40  20  43  1   
 41  21  22  1   
 42  21  23  1   
 43  22  24  1   
 44  22  44  1   
 45  22  45  1   
 46  23  25  1   
 47  23  46  1   
 48  23  47  1   
 49  24  26  1   
 50  24  48  1   
 51  24  49  1   
 52  25  26  1   
 53  25  50  1   
 54  25  51  1   
@<TRIPOS>SUBSTRUCTURE
  1 ****  11 GROUP 4 **** **** 0

# MOE 2024.06 (io_trps.svl 2023.06)
