@<TRIPOS>MOLECULE
4-Chloro-N-(3-imidazol-1-yl-propyl)-2,5-dimethyl-benzenesulfonamide
39 40 1 0 0 
SMALL
USER_CHARGES


@<TRIPOS>ATOM
  1 CL      -0.4410    -0.8990    -0.6940 Cl    1 <1>  -0.1770 
  2 C       -2.0920    -0.4690    -0.3120 C.ar  1 <1>   0.1770 
  3 C       -3.0770    -1.4390    -0.2680 C.ar  1 <1>  -0.1440 
  4 C       -2.3830     0.8550    -0.0580 C.ar  1 <1>  -0.1500 
  5 C       -4.3700    -1.0450     0.0390 C.ar  1 <1>  -0.1500 
  6 C       -2.7600    -2.9010    -0.5460 C.3   1 <1>  -0.0960 
  7 C       -3.6810     1.2390     0.2480 C.ar  1 <1>  -0.1430 
  8 C       -4.7030     0.2830     0.3020 C.ar  1 <1>  -0.0090 
  9 C       -3.9440     2.7150     0.5230 C.3   1 <1>  -0.0960 
 10 S       -6.4370     0.6960     0.6830 S.o2  1 <1>   1.4470 
 11 O       -7.2630    -0.4870     0.6130 O.2   1 <1>  -0.6500 
 12 O       -6.5310     1.5610     1.8380 O.2   1 <1>  -0.6500 
 13 N       -6.9460     1.5850    -0.6490 N.am  1 <1>  -0.9140 
 14 C       -7.9640     2.5920    -0.3870 C.3   1 <1>   0.1960 
 15 C       -9.3230     1.9450    -0.1050 C.3   1 <1>  -0.1600 
 16 C      -10.3810     3.0170     0.1760 C.3   1 <1>   0.0960 
 17 N      -11.7030     2.3950     0.3770 N.pl3 1 <1>   0.0480 
 18 C      -12.1950     1.8340     1.5040 C.2   1 <1>   0.0360 
 19 C      -12.6910     2.2640    -0.5270 C.2   1 <1>  -0.3020 
 20 N      -13.3960     1.3700     1.3810 N.2   1 <1>  -0.5650 
 21 C      -13.7100     1.6400     0.1010 C.2   1 <1>   0.0770 
 22 H       -1.5860     1.5760    -0.1020 H     1 <1>   0.1500 
 23 H       -5.1460    -1.7920     0.0780 H     1 <1>   0.1500 
 24 H       -2.0320    -3.2590     0.1590 H     1 <1>   0.0800 
 25 H       -2.3600    -3.0070    -1.5390 H     1 <1>   0.0800 
 26 H       -3.6410    -3.5120    -0.4660 H     1 <1>   0.0800 
 27 H       -3.0560     3.3010     0.3700 H     1 <1>   0.0800 
 28 H       -4.2610     2.8530     1.5410 H     1 <1>   0.0800 
 29 H       -4.7050     3.0920    -0.1360 H     1 <1>   0.0800 
 30 H       -7.3450     0.8800    -1.2670 H     1 <1>   0.4200 
 31 H       -8.0480     3.2210    -1.2580 H     1 <1>   0.0800 
 32 H       -7.6610     3.2180     0.4370 H     1 <1>   0.0800 
 33 H       -9.2560     1.3040     0.7570 H     1 <1>   0.0800 
 34 H       -9.6260     1.3610    -0.9570 H     1 <1>   0.0800 
 35 H      -10.4490     3.7030    -0.6500 H     1 <1>   0.0800 
 36 H      -10.1250     3.5710     1.0620 H     1 <1>   0.0800 
 37 H      -11.6220     1.7850     2.4140 H     1 <1>   0.1500 
 38 H      -12.6220     2.6110    -1.5420 H     1 <1>   0.1500 
 39 H      -14.6700     1.3660    -0.3060 H     1 <1>   0.1500 
@<TRIPOS>BOND
  1   1   2  1   
  2   2   3  ar  
  3   2   4  ar  
  4   3   5  ar  
  5   3   6  1   
  6   4   7  ar  
  7   4  22  1   
  8   5   8  ar  
  9   5  23  1   
 10   6  24  1   
 11   6  25  1   
 12   6  26  1   
 13   7   8  ar  
 14   7   9  1   
 15   8  10  1   
 16   9  27  1   
 17   9  28  1   
 18   9  29  1   
 19  10  11  2   
 20  10  12  2   
 21  10  13  am  
 22  13  14  1   
 23  13  30  1   
 24  14  15  1   
 25  14  31  1   
 26  14  32  1   
 27  15  16  1   
 28  15  33  1   
 29  15  34  1   
 30  16  17  1   
 31  16  35  1   
 32  16  36  1   
 33  17  18  1   
 34  17  19  1   
 35  18  20  2   
 36  18  37  1   
 37  19  21  2   
 38  19  38  1   
 39  20  21  1   
 40  21  39  1   
@<TRIPOS>SUBSTRUCTURE
  1 ****  10 GROUP 4 **** **** 0

# MOE 2024.06 (io_trps.svl 2023.06)
