@<TRIPOS>MOLECULE
4-[2-(5-Hydroxy-3-propyl-5-trifluoromethyl-4,5-dihydro-pyrazol-1-yl)-2-oxo-ethox
41 42 1 0 0 
SMALL
USER_CHARGES


@<TRIPOS>ATOM
  1 F       -0.5060    -3.6490     1.8130 F     1 <1>  -0.3400 
  2 C        0.1800    -3.3630     0.7080 C.3   1 <1>   1.0200 
  3 F        0.8670    -4.4610     0.4110 F     1 <1>  -0.3400 
  4 F        1.0920    -2.4670     1.0840 F     1 <1>  -0.3400 
  5 C       -0.7430    -2.8230    -0.4640 C.3   1 <1>   0.5800 
  6 O       -0.0740    -2.6390    -1.6800 O.3   1 <1>  -0.6800 
  7 N       -1.9170    -3.6900    -0.7670 N.am  1 <1>  -0.2980 
  8 C       -1.4140    -1.4860    -0.0980 C.3   1 <1>  -0.0990 
  9 N       -3.1050    -3.0290    -0.5300 N.2   1 <1>  -0.5120 
 10 C       -1.7900    -4.9490    -1.3140 C.2   1 <1>   0.5690 
 11 C       -2.8760    -1.8440    -0.1750 C.2   1 <1>   0.3280 
 12 O       -0.7390    -5.3380    -1.7700 O.2   1 <1>  -0.5700 
 13 C       -3.0120    -5.8540    -1.3860 C.3   1 <1>   0.1810 
 14 C       -3.9020    -0.7760     0.1760 C.3   1 <1>  -0.0990 
 15 O       -3.2500    -6.4540    -0.1230 O.3   1 <1>  -0.3630 
 16 C       -5.3550    -1.2670     0.0700 C.3   1 <1>  -0.1600 
 17 C       -4.3780    -7.1590     0.1240 C.ar  1 <1>   0.0830 
 18 C       -6.3470    -0.1600     0.4390 C.3   1 <1>  -0.2400 
 19 C       -4.5780    -7.5750     1.4300 C.ar  1 <1>  -0.1500 
 20 C       -5.3250    -7.4740    -0.8450 C.ar  1 <1>  -0.1500 
 21 C       -5.7110    -8.2910     1.7710 C.ar  1 <1>  -0.1500 
 22 C       -6.4570    -8.1900    -0.4970 C.ar  1 <1>  -0.1500 
 23 C       -6.6680    -8.6080     0.8130 C.ar  1 <1>   0.0730 
 24 C       -7.8460    -9.3460     1.1670 C.1   1 <1>   0.4840 
 25 N       -8.7830    -9.9330     1.4450 N.1   1 <1>  -0.5570 
 26 H        0.0830    -3.5350    -2.0590 H     1 <1>   0.4000 
 27 H       -1.1700    -0.7080    -0.7990 H     1 <1>   0.0800 
 28 H       -1.1700    -1.1680     0.8980 H     1 <1>   0.0800 
 29 H       -2.8450    -6.6350    -2.1040 H     1 <1>   0.0800 
 30 H       -3.8750    -5.2770    -1.6600 H     1 <1>   0.0800 
 31 H       -3.7630     0.0600    -0.4850 H     1 <1>   0.0800 
 32 H       -3.7170    -0.4420     1.1810 H     1 <1>   0.0800 
 33 H       -5.4990    -2.1080     0.7280 H     1 <1>   0.0800 
 34 H       -5.5490    -1.5980    -0.9360 H     1 <1>   0.0800 
 35 H       -6.1880     0.1680     1.4510 H     1 <1>   0.0800 
 36 H       -7.3540    -0.5280     0.3550 H     1 <1>   0.0800 
 37 H       -6.2360     0.6830    -0.2220 H     1 <1>   0.0800 
 38 H       -3.8410    -7.3310     2.1740 H     1 <1>   0.1500 
 39 H       -5.1990    -7.1740    -1.8690 H     1 <1>   0.1500 
 40 H       -5.8520    -8.6060     2.7910 H     1 <1>   0.1500 
 41 H       -7.1860    -8.4280    -1.2530 H     1 <1>   0.1500 
@<TRIPOS>BOND
  1   1   2  1   
  2   2   3  1   
  3   2   4  1   
  4   2   5  1   
  5   5   6  1   
  6   5   7  1   
  7   5   8  1   
  8   6  26  1   
  9   7   9  1   
 10   7  10  am  
 11   8  11  1   
 12   8  27  1   
 13   8  28  1   
 14   9  11  2   
 15  10  12  2   
 16  10  13  1   
 17  11  14  1   
 18  13  15  1   
 19  13  29  1   
 20  13  30  1   
 21  14  16  1   
 22  14  31  1   
 23  14  32  1   
 24  15  17  1   
 25  16  18  1   
 26  16  33  1   
 27  16  34  1   
 28  17  19  ar  
 29  17  20  ar  
 30  18  35  1   
 31  18  36  1   
 32  18  37  1   
 33  19  21  ar  
 34  19  38  1   
 35  20  22  ar  
 36  20  39  1   
 37  21  23  ar  
 38  21  40  1   
 39  22  23  ar  
 40  22  41  1   
 41  23  24  1   
 42  24  25  3   
@<TRIPOS>SUBSTRUCTURE
  1 ****  15 GROUP 4 **** **** 0

# MOE 2024.06 (io_trps.svl 2023.06)
