@<TRIPOS>MOLECULE
1-(4-Ethoxy-benzoyl)-piperidine-4-carboxylic acid amide
40 41 1 0 0 
SMALL
USER_CHARGES


@<TRIPOS>ATOM
  1 O        0.3970     0.5790     0.1410 O.2   1 <1>  -0.5700 
  2 C        0.1990     1.7400     0.4490 C.2   1 <1>   0.5440 
  3 N        1.2710     2.5290     0.8230 N.am  1 <1>  -0.6600 
  4 C       -1.1570     2.2510     0.4050 C.ar  1 <1>   0.0860 
  5 C        2.6300     1.9510     1.0270 C.3   1 <1>   0.1400 
  6 C        1.2080     4.0150     0.9140 C.3   1 <1>   0.1400 
  7 C       -1.9010     2.2070    -0.7740 C.ar  1 <1>  -0.1500 
  8 C       -1.7690     2.7990     1.5330 C.ar  1 <1>  -0.1500 
  9 C        3.6100     2.5610     0.0210 C.3   1 <1>  -0.1600 
 10 C        2.1870     4.6380    -0.0850 C.3   1 <1>  -0.1600 
 11 C       -3.1900     2.7020    -0.8360 C.ar  1 <1>  -0.1500 
 12 C       -3.0570     3.2970     1.4800 C.ar  1 <1>  -0.1500 
 13 C        3.6180     4.0980     0.1010 C.3   1 <1>  -0.0190 
 14 C       -3.7780     3.2570     0.2980 C.ar  1 <1>   0.0820 
 15 C        4.5940     4.6950    -0.9120 C.2   1 <1>   0.5690 
 16 O       -5.0290     3.7680     0.3260 O.3   1 <1>  -0.3630 
 17 O        4.2900     4.8040    -2.0710 O.2   1 <1>  -0.5700 
 18 N        5.8110     5.0980    -0.5030 N.am  1 <1>  -0.8000 
 19 C       -5.8650     3.7500    -0.8070 C.3   1 <1>   0.1200 
 20 C       -7.1980     4.3860    -0.4220 C.3   1 <1>  -0.2400 
 21 H        2.6130     0.8810     0.9090 H     1 <1>   0.0800 
 22 H        2.9510     2.1650     2.0320 H     1 <1>   0.0800 
 23 H        1.4630     4.3160     1.9150 H     1 <1>   0.0800 
 24 H        0.2180     4.3760     0.6980 H     1 <1>   0.0800 
 25 H       -1.4480     1.7720    -1.6480 H     1 <1>   0.1500 
 26 H       -1.2220     2.8280     2.4590 H     1 <1>   0.1500 
 27 H        3.3260     2.2500    -0.9700 H     1 <1>   0.0800 
 28 H        4.5970     2.1790     0.2130 H     1 <1>   0.0800 
 29 H        2.1860     5.7070     0.0330 H     1 <1>   0.0800 
 30 H        1.8440     4.4210    -1.0830 H     1 <1>   0.0800 
 31 H       -3.7200     2.6470    -1.7680 H     1 <1>   0.1500 
 32 H       -3.5180     3.7190     2.3550 H     1 <1>   0.1500 
 33 H        3.9510     4.3800     1.0840 H     1 <1>   0.0800 
 34 H        6.4560     5.4880    -1.1920 H     1 <1>   0.3700 
 35 H        6.1530     5.0280     0.4540 H     1 <1>   0.3700 
 36 H       -6.0050     2.7260    -1.1110 H     1 <1>   0.0800 
 37 H       -5.3880     4.3110    -1.5920 H     1 <1>   0.0800 
 38 H       -7.6570     3.8260     0.3740 H     1 <1>   0.0800 
 39 H       -7.8600     4.3870    -1.2680 H     1 <1>   0.0800 
 40 H       -7.0440     5.4010    -0.1040 H     1 <1>   0.0800 
@<TRIPOS>BOND
  1   1   2  2   
  2   2   3  am  
  3   2   4  1   
  4   3   5  1   
  5   3   6  1   
  6   4   7  ar  
  7   4   8  ar  
  8   5   9  1   
  9   5  21  1   
 10   5  22  1   
 11   6  10  1   
 12   6  23  1   
 13   6  24  1   
 14   7  11  ar  
 15   7  25  1   
 16   8  12  ar  
 17   8  26  1   
 18   9  13  1   
 19   9  27  1   
 20   9  28  1   
 21  10  13  1   
 22  10  29  1   
 23  10  30  1   
 24  11  14  ar  
 25  11  31  1   
 26  12  14  ar  
 27  12  32  1   
 28  13  15  1   
 29  13  33  1   
 30  14  16  1   
 31  15  17  2   
 32  15  18  am  
 33  16  19  1   
 34  18  34  1   
 35  18  35  1   
 36  19  20  1   
 37  19  36  1   
 38  19  37  1   
 39  20  38  1   
 40  20  39  1   
 41  20  40  1   
@<TRIPOS>SUBSTRUCTURE
  1 ****   4 GROUP 4 **** **** 0

# MOE 2024.06 (io_trps.svl 2023.06)
