@<TRIPOS>MOLECULE
3-Ethoxy-N-{4-[(tetrahydro-furan-2-ylmethyl)-sulfamoyl]-phenyl}-propionamide
48 49 1 0 0 
SMALL
USER_CHARGES


@<TRIPOS>ATOM
  1 S        0.3730    -0.3040     2.0400 S.o2  1 <1>   1.4470 
  2 O        1.4480    -1.0430     2.6610 O.2   1 <1>  -0.6500 
  3 O       -0.2470     0.8080     2.7230 O.2   1 <1>  -0.6500 
  4 N        0.9920     0.3940     0.6480 N.am  1 <1>  -0.9140 
  5 C       -0.8790    -1.4460     1.3970 C.ar  1 <1>  -0.0090 
  6 C        2.3020     1.0120     0.8650 C.3   1 <1>   0.1960 
  7 C       -2.2350    -1.2520     1.6360 C.ar  1 <1>  -0.1500 
  8 C       -0.5130    -2.5470     0.6320 C.ar  1 <1>  -0.1500 
  9 C        2.7840     1.7500    -0.3930 C.3   1 <1>   0.2000 
 10 C       -3.1860    -2.1200     1.1290 C.ar  1 <1>  -0.1500 
 11 C       -1.4610    -3.4170     0.1230 C.ar  1 <1>  -0.1500 
 12 O        3.9690     2.4160    -0.1120 O.3   1 <1>  -0.5600 
 13 C        1.8520     2.8500    -0.8890 C.3   1 <1>  -0.1600 
 14 C       -2.8150    -3.2160     0.3580 C.ar  1 <1>   0.1170 
 15 C        4.1780     3.4410    -1.0320 C.3   1 <1>   0.1200 
 16 C        2.8030     3.8110    -1.5850 C.3   1 <1>  -0.1600 
 17 N       -3.7370    -4.1290    -0.1740 N.am  1 <1>  -0.5470 
 18 C       -5.0710    -3.9990    -0.4460 C.2   1 <1>   0.5690 
 19 O       -5.6950    -2.9820    -0.2730 O.2   1 <1>  -0.5700 
 20 C       -5.7960    -5.2020    -1.0080 C.3   1 <1>  -0.0990 
 21 C       -7.0500    -5.5040    -0.1940 C.3   1 <1>   0.1200 
 22 O       -7.5920    -6.6880    -0.6770 O.3   1 <1>  -0.5600 
 23 C       -8.7790    -7.0550    -0.0580 C.3   1 <1>   0.1200 
 24 C       -9.2360    -8.3660    -0.6860 C.3   1 <1>  -0.2400 
 25 H        0.3400     1.1530     0.4640 H     1 <1>   0.4200 
 26 H        3.0230     0.2500     1.1140 H     1 <1>   0.0800 
 27 H        2.2420     1.7110     1.6830 H     1 <1>   0.0800 
 28 H       -2.5550    -0.4100     2.2270 H     1 <1>   0.1500 
 29 H        0.5320    -2.7200     0.4340 H     1 <1>   0.1500 
 30 H        2.9910     1.0440    -1.1800 H     1 <1>   0.0800 
 31 H       -4.2240    -1.9380     1.3410 H     1 <1>   0.1500 
 32 H       -1.1400    -4.2560    -0.4670 H     1 <1>   0.1500 
 33 H        1.3850     3.3380    -0.0520 H     1 <1>   0.0800 
 34 H        1.0960     2.4660    -1.5510 H     1 <1>   0.0800 
 35 H        4.8270     3.0710    -1.8070 H     1 <1>   0.0800 
 36 H        4.6460     4.2650    -0.5210 H     1 <1>   0.0800 
 37 H        2.5600     4.8370    -1.3710 H     1 <1>   0.0800 
 38 H        2.7930     3.6620    -2.6500 H     1 <1>   0.0800 
 39 H       -3.3360    -5.0260    -0.4410 H     1 <1>   0.3700 
 40 H       -5.1520    -6.0610    -0.9940 H     1 <1>   0.0800 
 41 H       -6.0760    -4.9900    -2.0230 H     1 <1>   0.0800 
 42 H       -7.7720    -4.7110    -0.3050 H     1 <1>   0.0800 
 43 H       -6.8070    -5.6340     0.8480 H     1 <1>   0.0800 
 44 H       -9.5100    -6.2820    -0.2200 H     1 <1>   0.0800 
 45 H       -8.5990    -7.1810     0.9960 H     1 <1>   0.0800 
 46 H       -9.3990    -8.2320    -1.7400 H     1 <1>   0.0800 
 47 H      -10.1560    -8.6860    -0.2320 H     1 <1>   0.0800 
 48 H       -8.4930    -9.1280    -0.5310 H     1 <1>   0.0800 
@<TRIPOS>BOND
  1   1   2  2   
  2   1   3  2   
  3   1   4  am  
  4   1   5  1   
  5   4   6  1   
  6   4  25  1   
  7   5   7  ar  
  8   5   8  ar  
  9   6   9  1   
 10   6  26  1   
 11   6  27  1   
 12   7  10  ar  
 13   7  28  1   
 14   8  11  ar  
 15   8  29  1   
 16   9  12  1   
 17   9  13  1   
 18   9  30  1   
 19  10  14  ar  
 20  10  31  1   
 21  11  14  ar  
 22  11  32  1   
 23  12  15  1   
 24  13  16  1   
 25  13  33  1   
 26  13  34  1   
 27  14  17  1   
 28  15  16  1   
 29  15  35  1   
 30  15  36  1   
 31  16  37  1   
 32  16  38  1   
 33  17  18  am  
 34  17  39  1   
 35  18  19  2   
 36  18  20  1   
 37  20  21  1   
 38  20  40  1   
 39  20  41  1   
 40  21  22  1   
 41  21  42  1   
 42  21  43  1   
 43  22  23  1   
 44  23  24  1   
 45  23  44  1   
 46  23  45  1   
 47  24  46  1   
 48  24  47  1   
 49  24  48  1   
@<TRIPOS>SUBSTRUCTURE
  1 ****   5 GROUP 4 **** **** 0

# MOE 2024.06 (io_trps.svl 2023.06)
