@<TRIPOS>MOLECULE
5-Oxo-1-(toluene-4-sulfonyl)-pyrrolidine-2-carboxylic acid (3,5-dimethoxy-phenyl
51 53 1 0 0 
SMALL
USER_CHARGES


@<TRIPOS>ATOM
  1 S        0.7180     0.6340    -1.3550 S.o2  1 <1>   1.4470 
  2 O        2.0620     0.5780    -1.8890 O.2   1 <1>  -0.6500 
  3 O       -0.1930     1.6250    -1.8710 O.2   1 <1>  -0.6500 
  4 N        0.9600     1.0530     0.2920 N.am  1 <1>  -0.7300 
  5 C        0.0020    -1.0310    -1.3120 C.ar  1 <1>  -0.0090 
  6 C       -0.0570     1.1350     1.1520 C.2   1 <1>   0.7450 
  7 C        2.1000     1.9140     0.6710 C.3   1 <1>   0.3370 
  8 C        0.7980    -2.1420    -1.0550 C.ar  1 <1>  -0.1500 
  9 C       -1.3560    -1.2410    -1.5160 C.ar  1 <1>  -0.1500 
 10 O       -1.1270     0.6010     1.0330 O.2   1 <1>  -0.5700 
 11 C        0.2850     2.0340     2.3060 C.3   1 <1>  -0.0990 
 12 C        3.3260     1.0730     1.1020 C.2   1 <1>   0.5690 
 13 C        1.5010     2.8080     1.7800 C.3   1 <1>  -0.1600 
 14 C        0.2600    -3.4170    -1.0150 C.ar  1 <1>  -0.1500 
 15 C       -1.9000    -2.5130    -1.4770 C.ar  1 <1>  -0.1500 
 16 O        3.6990     1.1140     2.2500 O.2   1 <1>  -0.5700 
 17 N        3.9410     0.3040     0.1460 N.am  1 <1>  -0.5470 
 18 C       -1.0940    -3.6090    -1.2290 C.ar  1 <1>  -0.1430 
 19 C        5.0120    -0.6020     0.2000 C.ar  1 <1>   0.1170 
 20 C       -1.6890    -5.0050    -1.1830 C.3   1 <1>  -0.0970 
 21 C        5.5600    -1.0350    -0.9990 C.ar  1 <1>  -0.1500 
 22 C        5.5430    -1.1010     1.3840 C.ar  1 <1>  -0.1500 
 23 C        6.6110    -1.9340    -1.0280 C.ar  1 <1>   0.0830 
 24 C        6.5940    -2.0020     1.3750 C.ar  1 <1>   0.0830 
 25 O        7.0730    -2.2860    -2.2560 O.3   1 <1>  -0.3630 
 26 C        7.1350    -2.4220     0.1640 C.ar  1 <1>  -0.1500 
 27 O        7.0350    -2.4300     2.5850 O.3   1 <1>  -0.3630 
 28 C        8.1810    -3.1450    -2.4070 C.3   1 <1>   0.0400 
 29 C        8.1120    -3.3320     2.7020 C.3   1 <1>   0.0400 
 30 H        2.3900     2.5320    -0.1620 H     1 <1>   0.0800 
 31 H        1.8540    -2.0140    -0.8840 H     1 <1>   0.1500 
 32 H       -2.0000    -0.3960    -1.7010 H     1 <1>   0.1500 
 33 H        0.5480     1.4270     3.1540 H     1 <1>   0.0800 
 34 H       -0.5370     2.6820     2.5510 H     1 <1>   0.0800 
 35 H        1.1680     3.7270     1.3290 H     1 <1>   0.0800 
 36 H        2.2010     3.0540     2.5590 H     1 <1>   0.0800 
 37 H        0.9010    -4.2580    -0.8140 H     1 <1>   0.1500 
 38 H       -2.9570    -2.6420    -1.6370 H     1 <1>   0.1500 
 39 H        3.5210     0.3840    -0.7910 H     1 <1>   0.3700 
 40 H       -0.9590    -5.7370    -1.4790 H     1 <1>   0.0800 
 41 H       -2.5290    -5.0770    -1.8510 H     1 <1>   0.0800 
 42 H       -2.0190    -5.2270    -0.1840 H     1 <1>   0.0800 
 43 H        5.1690    -0.6710    -1.9310 H     1 <1>   0.1500 
 44 H        5.1460    -0.8000     2.3340 H     1 <1>   0.1500 
 45 H        7.9480    -3.1170     0.1510 H     1 <1>   0.1500 
 46 H        8.3750    -3.2570    -3.4590 H     1 <1>   0.0800 
 47 H        7.9440    -4.1020    -1.9760 H     1 <1>   0.0800 
 48 H        9.0340    -2.7030    -1.9250 H     1 <1>   0.0800 
 49 H        8.2820    -3.5140     3.7480 H     1 <1>   0.0800 
 50 H        8.9870    -2.8900     2.2610 H     1 <1>   0.0800 
 51 H        7.8500    -4.2520     2.2100 H     1 <1>   0.0800 
@<TRIPOS>BOND
  1   1   2  2   
  2   1   3  2   
  3   1   4  am  
  4   1   5  1   
  5   4   6  am  
  6   4   7  1   
  7   5   8  ar  
  8   5   9  ar  
  9   6  10  2   
 10   6  11  1   
 11   7  12  1   
 12   7  13  1   
 13   7  30  1   
 14   8  14  ar  
 15   8  31  1   
 16   9  15  ar  
 17   9  32  1   
 18  11  13  1   
 19  11  33  1   
 20  11  34  1   
 21  12  16  2   
 22  12  17  am  
 23  13  35  1   
 24  13  36  1   
 25  14  18  ar  
 26  14  37  1   
 27  15  18  ar  
 28  15  38  1   
 29  17  19  1   
 30  17  39  1   
 31  18  20  1   
 32  19  21  ar  
 33  19  22  ar  
 34  20  40  1   
 35  20  41  1   
 36  20  42  1   
 37  21  23  ar  
 38  21  43  1   
 39  22  24  ar  
 40  22  44  1   
 41  23  25  1   
 42  23  26  ar  
 43  24  26  ar  
 44  24  27  1   
 45  25  28  1   
 46  26  45  1   
 47  27  29  1   
 48  28  46  1   
 49  28  47  1   
 50  28  48  1   
 51  29  49  1   
 52  29  50  1   
 53  29  51  1   
@<TRIPOS>SUBSTRUCTURE
  1 ****  17 GROUP 4 **** **** 0

# MOE 2024.06 (io_trps.svl 2023.06)
