@<TRIPOS>MOLECULE
N-tert-Butyl-N'-(2,4-dimethoxy-phenyl)-6-morpholin-4-yl-[1,3,5]triazine-2,4-diam
56 58 1 0 0 
SMALL
USER_CHARGES


@<TRIPOS>ATOM
  1 O        0.4840    -0.2860     0.1310 O.3   1 <1>  -0.5600 
  2 C        0.5250    -1.6160    -0.3060 C.3   1 <1>   0.1200 
  3 C        1.7060     0.3820    -0.0130 C.3   1 <1>   0.1200 
  4 C        1.5520    -2.4340     0.4970 C.3   1 <1>   0.2090 
  5 C        2.8140    -0.3000     0.8090 C.3   1 <1>   0.2090 
  6 N        2.8920    -1.7650     0.5060 N.pl3 1 <1>  -0.8380 
  7 C        4.0760    -2.4730     0.5470 C.ar  1 <1>   0.7200 
  8 N        5.1820    -1.7850     0.6810 N.ar  1 <1>  -0.6200 
  9 N        4.0020    -3.7750     0.4470 N.ar  1 <1>  -0.6200 
 10 C        6.2610    -2.5140     0.7310 C.ar  1 <1>   0.7200 
 11 C        5.1530    -4.3770     0.4950 C.ar  1 <1>   0.7200 
 12 N        6.3170    -3.8140     0.6450 N.ar  1 <1>  -0.6200 
 13 N        7.4130    -1.7970     0.8610 N.pl3 1 <1>  -0.6000 
 14 N        5.0700    -5.7240     0.3830 N.pl3 1 <1>  -0.8690 
 15 C        8.7710    -2.1610     0.8920 C.ar  1 <1>   0.1000 
 16 C        6.0150    -6.6440    -0.2490 C.3   1 <1>   0.3690 
 17 C        9.7150    -1.3130     0.3010 C.ar  1 <1>   0.0830 
 18 C        9.2090    -3.3250     1.5110 C.ar  1 <1>  -0.1500 
 19 C        5.2510    -7.9490    -0.4580 C.3   1 <1>  -0.2400 
 20 C        6.4730    -6.1020    -1.6040 C.3   1 <1>  -0.2400 
 21 C        7.1980    -6.8920     0.6850 C.3   1 <1>  -0.2400 
 22 O        9.2430    -0.1650    -0.2750 O.3   1 <1>  -0.3620 
 23 C       11.0650    -1.6480     0.3180 C.ar  1 <1>  -0.1500 
 24 C       10.5510    -3.6560     1.5240 C.ar  1 <1>  -0.1500 
 25 C       10.0760     0.6550    -1.0650 C.3   1 <1>   0.0400 
 26 C       11.4850    -2.8260     0.9290 C.ar  1 <1>   0.0830 
 27 O       12.7820    -3.2310     0.9890 O.3   1 <1>  -0.3620 
 28 C       13.8180    -2.4510     0.4350 C.3   1 <1>   0.0400 
 29 H        0.7770    -1.6270    -1.3520 H     1 <1>   0.0800 
 30 H       -0.4580    -2.0330    -0.1820 H     1 <1>   0.0800 
 31 H        1.5680     1.3940     0.3210 H     1 <1>   0.0800 
 32 H        1.9710     0.3950    -1.0560 H     1 <1>   0.0800 
 33 H        1.6150    -3.4160     0.0630 H     1 <1>   0.0800 
 34 H        1.2050    -2.5400     1.5100 H     1 <1>   0.0800 
 35 H        2.6080    -0.1680     1.8570 H     1 <1>   0.0800 
 36 H        3.7460     0.1900     0.5910 H     1 <1>   0.0800 
 37 H        7.2630    -0.8150     0.6390 H     1 <1>   0.4000 
 38 H        4.1050    -6.0150     0.2650 H     1 <1>   0.4000 
 39 H        8.4990    -3.9740     1.9890 H     1 <1>   0.1500 
 40 H        4.4090    -7.7940    -1.1080 H     1 <1>   0.0800 
 41 H        4.9060    -8.3350     0.4840 H     1 <1>   0.0800 
 42 H        5.8920    -8.6850    -0.9080 H     1 <1>   0.0800 
 43 H        5.6250    -5.8710    -2.2230 H     1 <1>   0.0800 
 44 H        7.0770    -6.8320    -2.1090 H     1 <1>   0.0800 
 45 H        7.0680    -5.2150    -1.4810 H     1 <1>   0.0800 
 46 H        6.8500    -7.2050     1.6530 H     1 <1>   0.0800 
 47 H        7.7860    -6.0010     0.7970 H     1 <1>   0.0800 
 48 H        7.8350    -7.6580     0.2830 H     1 <1>   0.0800 
 49 H       11.7840    -1.0000    -0.1350 H     1 <1>   0.1500 
 50 H       10.8800    -4.5620     2.0010 H     1 <1>   0.1500 
 51 H        9.4730     1.4440    -1.4770 H     1 <1>   0.0800 
 52 H       10.4960     0.0640    -1.8590 H     1 <1>   0.0800 
 53 H       10.8470     1.0730    -0.4420 H     1 <1>   0.0800 
 54 H       14.7480    -2.9620     0.6070 H     1 <1>   0.0800 
 55 H       13.8320    -1.4920     0.9220 H     1 <1>   0.0800 
 56 H       13.6490    -2.3460    -0.6220 H     1 <1>   0.0800 
@<TRIPOS>BOND
  1   1   2  1   
  2   1   3  1   
  3   2   4  1   
  4   2  29  1   
  5   2  30  1   
  6   3   5  1   
  7   3  31  1   
  8   3  32  1   
  9   4   6  1   
 10   4  33  1   
 11   4  34  1   
 12   5   6  1   
 13   5  35  1   
 14   5  36  1   
 15   6   7  1   
 16   7   8  ar  
 17   7   9  ar  
 18   8  10  ar  
 19   9  11  ar  
 20  10  12  ar  
 21  10  13  1   
 22  11  12  ar  
 23  11  14  1   
 24  13  15  1   
 25  13  37  1   
 26  14  16  1   
 27  14  38  1   
 28  15  17  ar  
 29  15  18  ar  
 30  16  19  1   
 31  16  20  1   
 32  16  21  1   
 33  17  22  1   
 34  17  23  ar  
 35  18  24  ar  
 36  18  39  1   
 37  19  40  1   
 38  19  41  1   
 39  19  42  1   
 40  20  43  1   
 41  20  44  1   
 42  20  45  1   
 43  21  46  1   
 44  21  47  1   
 45  21  48  1   
 46  22  25  1   
 47  23  26  ar  
 48  23  49  1   
 49  24  26  ar  
 50  24  50  1   
 51  25  51  1   
 52  25  52  1   
 53  25  53  1   
 54  26  27  1   
 55  27  28  1   
 56  28  54  1   
 57  28  55  1   
 58  28  56  1   
@<TRIPOS>SUBSTRUCTURE
  1 ****  10 GROUP 4 **** **** 0

# MOE 2024.06 (io_trps.svl 2023.06)
