@<TRIPOS>MOLECULE
8-(3-Methoxy-propyl)-1,3,6,7-tetramethyl-1H,8H-imidazo[2,1-f]purine-2,4-dione
45 47 1 0 0 
SMALL
USER_CHARGES


@<TRIPOS>ATOM
  1 O        1.0750    -0.1840     0.7920 O.2   1 <1>  -0.5750 
  2 C        2.0170     0.5620     0.6190 C.2   1 <1>   0.6860 
  3 N        1.8320     1.9410     0.6620 N.am  1 <1>  -0.4260 
  4 N        3.2780     0.0350     0.3680 N.am  1 <1>  -0.4420 
  5 C        2.8770     2.8170     0.3970 C.2   1 <1>   0.6990 
  6 C        0.4670     2.4810     0.9580 C.3   1 <1>   0.0510 
  7 C        4.3100     0.9130     0.1050 C.2   1 <1>   0.4200 
  8 C        3.4980    -1.4430     0.3580 C.3   1 <1>   0.0510 
  9 O        2.6950     4.0240     0.4060 O.2   1 <1>  -0.5750 
 10 C        4.1590     2.2600     0.1120 C.2   1 <1>   0.2700 
 11 N        5.6050     0.6030    -0.1910 N.pl3 1 <1>  -0.7040 
 12 N        5.4240     2.7970    -0.1880 N.pl3 1 <1>  -0.6340 
 13 C        6.2430     1.7680    -0.3510 C.cat 1 <1>   1.0690 
 14 C        6.1840     3.9380    -0.3460 C.2   1 <1>   0.2330 
 15 N        7.4940     2.1600    -0.6140 N.pl3 1 <1>  -0.5720 
 16 C        7.4560     3.5470    -0.6070 C.2   1 <1>   0.1570 
 17 C        5.5530     5.3100    -0.2140 C.3   1 <1>  -0.1100 
 18 C        8.6710     1.2790    -0.8190 C.3   1 <1>   0.1600 
 19 C        8.6990     4.3850    -0.8570 C.3   1 <1>  -0.1100 
 20 C        8.9740     0.5230     0.4730 C.3   1 <1>  -0.1680 
 21 C       10.1390    -0.4450     0.2960 C.3   1 <1>   0.1120 
 22 O       10.1200    -1.2830     1.3960 O.3   1 <1>  -0.5650 
 23 C       11.1720    -2.1940     1.4320 C.3   1 <1>   0.0310 
 24 H       -0.0400     1.8480     1.6660 H     1 <1>   0.0710 
 25 H       -0.1090     2.5200     0.0500 H     1 <1>   0.0710 
 26 H        0.5280     3.4700     1.3780 H     1 <1>   0.0710 
 27 H        2.7380    -1.9430     0.9350 H     1 <1>   0.0710 
 28 H        4.4530    -1.6840     0.7900 H     1 <1>   0.0710 
 29 H        3.4570    -1.8090    -0.6530 H     1 <1>   0.0710 
 30 H        6.0440    -0.3140    -0.2300 H     1 <1>   0.4440 
 31 H        4.7680     5.4250    -0.9410 H     1 <1>   0.0710 
 32 H        6.2780     6.0870    -0.3690 H     1 <1>   0.0710 
 33 H        5.1300     5.4280     0.7670 H     1 <1>   0.0710 
 34 H        9.5290     1.8630    -1.1080 H     1 <1>   0.0710 
 35 H        8.4600     0.5830    -1.6140 H     1 <1>   0.0710 
 36 H        9.4500     4.1600    -0.1200 H     1 <1>   0.0710 
 37 H        8.4740     5.4340    -0.8000 H     1 <1>   0.0710 
 38 H        9.0950     4.1770    -1.8350 H     1 <1>   0.0710 
 39 H        8.1160    -0.0500     0.7740 H     1 <1>   0.0710 
 40 H        9.2230     1.2200     1.2540 H     1 <1>   0.0710 
 41 H       11.0800     0.0800     0.2650 H     1 <1>   0.0710 
 42 H       10.0210    -1.0480    -0.5890 H     1 <1>   0.0710 
 43 H       11.0610    -2.7970     2.3160 H     1 <1>   0.0710 
 44 H       12.1050    -1.6590     1.4740 H     1 <1>   0.0710 
 45 H       11.1320    -2.8200     0.5580 H     1 <1>   0.0710 
@<TRIPOS>BOND
  1   1   2  2   
  2   2   3  am  
  3   2   4  am  
  4   3   5  am  
  5   3   6  1   
  6   4   7  1   
  7   4   8  1   
  8   5   9  2   
  9   5  10  1   
 10   6  24  1   
 11   6  25  1   
 12   6  26  1   
 13   7  10  2   
 14   7  11  1   
 15   8  27  1   
 16   8  28  1   
 17   8  29  1   
 18  10  12  1   
 19  11  13  ar  
 20  11  30  1   
 21  12  13  ar  
 22  12  14  1   
 23  13  15  ar  
 24  14  16  2   
 25  14  17  1   
 26  15  16  1   
 27  15  18  1   
 28  16  19  1   
 29  17  31  1   
 30  17  32  1   
 31  17  33  1   
 32  18  20  1   
 33  18  34  1   
 34  18  35  1   
 35  19  36  1   
 36  19  37  1   
 37  19  38  1   
 38  20  21  1   
 39  20  39  1   
 40  20  40  1   
 41  21  22  1   
 42  21  41  1   
 43  21  42  1   
 44  22  23  1   
 45  23  43  1   
 46  23  44  1   
 47  23  45  1   
@<TRIPOS>SUBSTRUCTURE
  1 ****  13 GROUP 4 **** **** 0

# MOE 2024.06 (io_trps.svl 2023.06)
