@<TRIPOS>MOLECULE
Tetrahydro-furan-2-carboxylic acid (5-ethoxymethyl-[1,3,4]thiadiazol-2-yl)-amide
32 33 1 0 0 
SMALL
USER_CHARGES


@<TRIPOS>ATOM
  1 S       -0.0460     0.2230     0.3500 S.3   1 <1>  -0.0800 
  2 C       -1.5490     0.4350     1.1860 C.2   1 <1>   0.4420 
  3 C        0.6510     1.3430     1.4710 C.2   1 <1>   0.1980 
  4 N       -1.4460     1.2510     2.1720 N.2   1 <1>  -0.3380 
  5 N       -2.6260    -0.2740     0.7050 N.am  1 <1>  -0.4940 
  6 N       -0.1880     1.7660     2.3290 N.2   1 <1>  -0.3380 
  7 C        2.1250     1.6810     1.3400 C.3   1 <1>   0.3000 
  8 C       -3.9110    -0.3560     1.1550 C.2   1 <1>   0.5690 
  9 O        2.4320     2.0260     0.0200 O.3   1 <1>  -0.5600 
 10 O       -4.3170     0.1980     2.1470 O.2   1 <1>  -0.5700 
 11 C       -4.8760    -1.2170     0.3300 C.3   1 <1>   0.2610 
 12 C        3.7520     2.4000    -0.1800 C.3   1 <1>   0.1200 
 13 O       -4.2150    -1.8840    -0.7160 O.3   1 <1>  -0.5600 
 14 C       -5.9680    -0.4230    -0.3780 C.3   1 <1>  -0.1600 
 15 C        3.9160     2.7220    -1.6590 C.3   1 <1>  -0.2400 
 16 C       -5.1380    -2.2720    -1.6840 C.3   1 <1>   0.1200 
 17 C       -6.2860    -1.2670    -1.6040 C.3   1 <1>  -0.1600 
 18 H       -2.4650    -0.8410    -0.1290 H     1 <1>   0.3700 
 19 H        2.7180     0.8280     1.6190 H     1 <1>   0.0800 
 20 H        2.3600     2.5140     1.9790 H     1 <1>   0.0800 
 21 H       -5.3140    -1.9650     0.9660 H     1 <1>   0.0800 
 22 H        4.3960     1.5830     0.1020 H     1 <1>   0.0800 
 23 H        3.9660     3.2670     0.4230 H     1 <1>   0.0800 
 24 H       -5.5810     0.5370    -0.6750 H     1 <1>   0.0800 
 25 H       -6.8210    -0.2730     0.2610 H     1 <1>   0.0800 
 26 H        3.6860     1.8570    -2.2540 H     1 <1>   0.0800 
 27 H        4.9290     3.0180    -1.8590 H     1 <1>   0.0800 
 28 H        3.2610     3.5300    -1.9350 H     1 <1>   0.0800 
 29 H       -5.4740    -3.2670    -1.4470 H     1 <1>   0.0800 
 30 H       -4.6550    -2.2650    -2.6460 H     1 <1>   0.0800 
 31 H       -6.3320    -0.6640    -2.4930 H     1 <1>   0.0800 
 32 H       -7.2200    -1.7890    -1.4890 H     1 <1>   0.0800 
@<TRIPOS>BOND
  1   1   2  1   
  2   1   3  1   
  3   2   4  2   
  4   2   5  1   
  5   3   6  2   
  6   3   7  1   
  7   4   6  1   
  8   5   8  am  
  9   5  18  1   
 10   7   9  1   
 11   7  19  1   
 12   7  20  1   
 13   8  10  2   
 14   8  11  1   
 15   9  12  1   
 16  11  13  1   
 17  11  14  1   
 18  11  21  1   
 19  12  15  1   
 20  12  22  1   
 21  12  23  1   
 22  13  16  1   
 23  14  17  1   
 24  14  24  1   
 25  14  25  1   
 26  15  26  1   
 27  15  27  1   
 28  15  28  1   
 29  16  17  1   
 30  16  29  1   
 31  16  30  1   
 32  17  31  1   
 33  17  32  1   
@<TRIPOS>SUBSTRUCTURE
  1 ****   2 GROUP 4 **** **** 0

# MOE 2024.06 (io_trps.svl 2023.06)
