@<TRIPOS>MOLECULE
N,N-Dimethyl-4-(3-p-tolyl-[1,2,4]oxadiazol-5-yl)-butyramide
39 40 1 0 0 
SMALL
USER_CHARGES


@<TRIPOS>ATOM
  1 O       -1.0320    -0.4940    -0.9400 O.2   1 <1>  -0.5700 
  2 C       -1.2500    -1.5530    -0.3980 C.2   1 <1>   0.5690 
  3 N       -0.4480    -2.6500    -0.6050 N.am  1 <1>  -0.6600 
  4 C       -2.4470    -1.6500     0.5440 C.3   1 <1>  -0.0990 
  5 C       -0.5980    -3.9580     0.0920 C.3   1 <1>   0.0600 
  6 C        0.6710    -2.6130    -1.5890 C.3   1 <1>   0.0600 
  7 C       -3.4810    -0.5150     0.3780 C.3   1 <1>  -0.1600 
  8 C       -4.6300    -0.5780     1.3990 C.3   1 <1>   0.0200 
  9 C       -5.4040    -1.8820     1.3420 C.2   1 <1>   0.2980 
 10 O       -4.9830    -2.8960     2.0520 O.3   1 <1>  -0.0190 
 11 N       -6.4470    -2.0960     0.6530 N.2   1 <1>  -0.5650 
 12 N       -5.8260    -3.8420     1.7840 N.2   1 <1>  -0.4100 
 13 C       -6.6950    -3.3740     0.9580 C.2   1 <1>   0.4620 
 14 C       -7.8170    -4.1110     0.4000 C.ar  1 <1>   0.0540 
 15 C       -8.6870    -3.5360    -0.5290 C.ar  1 <1>  -0.1500 
 16 C       -8.0730    -5.4330     0.7700 C.ar  1 <1>  -0.1500 
 17 C       -9.7510    -4.2400    -1.0600 C.ar  1 <1>  -0.1500 
 18 C       -9.1360    -6.1420     0.2420 C.ar  1 <1>  -0.1500 
 19 C       -9.9830    -5.5510    -0.6800 C.ar  1 <1>  -0.1440 
 20 C      -11.1510    -6.3260    -1.2600 C.3   1 <1>  -0.0970 
 21 H       -2.0740    -1.6500     1.5510 H     1 <1>   0.0800 
 22 H       -2.9360    -2.5870     0.3590 H     1 <1>   0.0800 
 23 H       -1.0900    -3.8380     1.0410 H     1 <1>   0.0800 
 24 H        0.3710    -4.3910     0.2720 H     1 <1>   0.0800 
 25 H       -1.1730    -4.6300    -0.5220 H     1 <1>   0.0800 
 26 H        0.6710    -1.6870    -2.1390 H     1 <1>   0.0800 
 27 H        0.5680    -3.4230    -2.2890 H     1 <1>   0.0800 
 28 H        1.6110    -2.7050    -1.0740 H     1 <1>   0.0800 
 29 H       -3.8890    -0.5580    -0.6180 H     1 <1>   0.0800 
 30 H       -2.9840     0.4350     0.4820 H     1 <1>   0.0800 
 31 H       -5.3130     0.2290     1.2000 H     1 <1>   0.0800 
 32 H       -4.2460    -0.4410     2.3940 H     1 <1>   0.0800 
 33 H       -8.5260    -2.5190    -0.8410 H     1 <1>   0.1500 
 34 H       -7.4280    -5.9140     1.4840 H     1 <1>   0.1500 
 35 H      -10.4000    -3.7630    -1.7730 H     1 <1>   0.1500 
 36 H       -9.3020    -7.1590     0.5520 H     1 <1>   0.1500 
 37 H      -11.3690    -5.9870    -2.2570 H     1 <1>   0.0800 
 38 H      -12.0230    -6.1830    -0.6470 H     1 <1>   0.0800 
 39 H      -10.9230    -7.3760    -1.3010 H     1 <1>   0.0800 
@<TRIPOS>BOND
  1   1   2  2   
  2   2   3  am  
  3   2   4  1   
  4   3   5  1   
  5   3   6  1   
  6   4   7  1   
  7   4  21  1   
  8   4  22  1   
  9   5  23  1   
 10   5  24  1   
 11   5  25  1   
 12   6  26  1   
 13   6  27  1   
 14   6  28  1   
 15   7   8  1   
 16   7  29  1   
 17   7  30  1   
 18   8   9  1   
 19   8  31  1   
 20   8  32  1   
 21   9  10  1   
 22   9  11  2   
 23  10  12  1   
 24  11  13  1   
 25  12  13  2   
 26  13  14  1   
 27  14  15  ar  
 28  14  16  ar  
 29  15  17  ar  
 30  15  33  1   
 31  16  18  ar  
 32  16  34  1   
 33  17  19  ar  
 34  17  35  1   
 35  18  19  ar  
 36  18  36  1   
 37  19  20  1   
 38  20  37  1   
 39  20  38  1   
 40  20  39  1   
@<TRIPOS>SUBSTRUCTURE
  1 ****  13 GROUP 4 **** **** 0

# MOE 2024.06 (io_trps.svl 2023.06)
