@<TRIPOS>MOLECULE
2-(4-Acetyl-5-methyl-thiazol-2-yl)-5-methyl-3a,4,7,7a-tetrahydro-isoindole-1,3-d
37 39 1 0 0 
SMALL
USER_CHARGES


@<TRIPOS>ATOM
  1 S       -0.0590    -0.0490    -0.9320 S.3   1 <1>  -0.0800 
  2 C        0.2630     1.4820    -0.1510 C.2   1 <1>   0.4420 
  3 C        1.4400    -0.6680    -0.3140 C.2   1 <1>  -0.1400 
  4 N        1.3720     1.5070     0.4830 N.2   1 <1>  -0.5650 
  5 N       -0.6680     2.4940    -0.2850 N.am  1 <1>  -0.1840 
  6 C        2.0710     0.2960     0.4060 C.2   1 <1>   0.1410 
  7 C        1.7430    -2.1170    -0.6560 C.3   1 <1>  -0.0600 
  8 C       -1.9650     2.4300     0.1510 C.2   1 <1>   0.5690 
  9 C       -0.3800     3.7680    -0.7000 C.2   1 <1>   0.5690 
 10 C        3.3600     0.1880     1.0690 C.2   1 <1>   0.5950 
 11 O       -2.5040     1.5000     0.6920 O.2   1 <1>  -0.5700 
 12 C       -2.6660     3.7300    -0.1660 C.3   1 <1>  -0.0190 
 13 O        0.5710     4.1270    -1.3450 O.2   1 <1>  -0.5700 
 14 C       -1.4880     4.6950    -0.2620 C.3   1 <1>  -0.0190 
 15 O        3.5950     0.6010     2.1760 O.2   1 <1>  -0.5700 
 16 C        4.5100    -0.4750     0.3400 C.3   1 <1>  -0.1790 
 17 C       -3.7350     4.3160     0.7610 C.3   1 <1>  -0.0220 
 18 C       -1.8950     5.9180    -1.0880 C.3   1 <1>  -0.0220 
 19 C       -4.0200     5.7520     0.3060 C.2   1 <1>  -0.2760 
 20 C       -3.2160     6.4410    -0.5220 C.2   1 <1>  -0.2880 
 21 C       -5.3030     6.3300     0.8770 C.3   1 <1>  -0.1020 
 22 H        0.9060    -2.7350    -0.3860 H     1 <1>   0.0800 
 23 H        2.6060    -2.4720    -0.1240 H     1 <1>   0.0800 
 24 H        1.9180    -2.2160    -1.7130 H     1 <1>   0.0800 
 25 H       -3.1060     3.6080    -1.1410 H     1 <1>   0.0800 
 26 H       -1.2260     5.0350     0.7250 H     1 <1>   0.0800 
 27 H        4.3070    -0.5420    -0.7120 H     1 <1>   0.0800 
 28 H        4.6750    -1.4560     0.7430 H     1 <1>   0.0800 
 29 H        5.4000     0.1110     0.4810 H     1 <1>   0.0800 
 30 H       -3.3990     4.3130     1.7840 H     1 <1>   0.0800 
 31 H       -4.6240     3.7130     0.6940 H     1 <1>   0.0800 
 32 H       -2.0140     5.6610    -2.1270 H     1 <1>   0.0800 
 33 H       -1.1300     6.6710    -1.0080 H     1 <1>   0.0800 
 34 H       -3.4420     7.4410    -0.8560 H     1 <1>   0.1500 
 35 H       -6.1480     5.7420     0.5660 H     1 <1>   0.0800 
 36 H       -5.4490     7.3400     0.5370 H     1 <1>   0.0800 
 37 H       -5.2610     6.3370     1.9520 H     1 <1>   0.0800 
@<TRIPOS>BOND
  1   1   2  1   
  2   1   3  1   
  3   2   4  2   
  4   2   5  1   
  5   3   6  2   
  6   3   7  1   
  7   4   6  1   
  8   5   8  am  
  9   5   9  am  
 10   6  10  1   
 11   7  22  1   
 12   7  23  1   
 13   7  24  1   
 14   8  11  2   
 15   8  12  1   
 16   9  13  2   
 17   9  14  1   
 18  10  15  2   
 19  10  16  1   
 20  12  14  1   
 21  12  17  1   
 22  12  25  1   
 23  14  18  1   
 24  14  26  1   
 25  16  27  1   
 26  16  28  1   
 27  16  29  1   
 28  17  19  1   
 29  17  30  1   
 30  17  31  1   
 31  18  20  1   
 32  18  32  1   
 33  18  33  1   
 34  19  20  2   
 35  19  21  1   
 36  20  34  1   
 37  21  35  1   
 38  21  36  1   
 39  21  37  1   
@<TRIPOS>SUBSTRUCTURE
  1 ****   5 GROUP 4 **** **** 0

# MOE 2024.06 (io_trps.svl 2023.06)
