@<TRIPOS>MOLECULE
N-Allyl-2-(benzo[1,3]dioxol-5-yl-methanesulfonyl-amino)-acetamide
37 38 1 0 0 
SMALL
USER_CHARGES


@<TRIPOS>ATOM
  1 S        0.8970     0.5210     1.1240 S.o2  1 <1>   1.3330 
  2 O        0.7770    -0.1740    -0.1320 O.2   1 <1>  -0.6500 
  3 O        2.1860     0.6470     1.7620 O.2   1 <1>  -0.6500 
  4 N        0.3090     2.1330     0.9050 N.am  1 <1>  -0.6930 
  5 C       -0.2580    -0.1450     2.3020 C.3   1 <1>  -0.1350 
  6 C       -0.9210     2.3720     0.3010 C.ar  1 <1>   0.1990 
  7 C        1.3450     3.2070     0.7840 C.3   1 <1>   0.2570 
  8 C       -1.1200     2.1110    -1.0530 C.ar  1 <1>  -0.1500 
  9 C       -1.9700     2.8860     1.0670 C.ar  1 <1>  -0.1500 
 10 C        2.2520     3.0790    -0.4460 C.2   1 <1>   0.5690 
 11 C       -2.3630     2.3660    -1.5920 C.ar  1 <1>   0.0820 
 12 C       -3.2160     3.1370     0.5080 C.ar  1 <1>  -0.1500 
 13 O        2.0710     3.8180    -1.3850 O.2   1 <1>  -0.5700 
 14 N        3.2440     2.1530    -0.4530 N.am  1 <1>  -0.7300 
 15 O       -2.7740     2.1880    -2.8530 O.3   1 <1>  -0.3630 
 16 C       -3.3830     2.8630    -0.8340 C.ar  1 <1>   0.0830 
 17 C        4.1110     1.8510    -1.5960 C.3   1 <1>   0.2780 
 18 C       -4.1360     2.6040    -2.9030 C.3   1 <1>   0.4000 
 19 O       -4.4830     3.0220    -1.5830 O.3   1 <1>  -0.3630 
 20 C        5.4770     1.5010    -1.0490 C.2   1 <1>  -0.2880 
 21 C        6.0720     0.3090    -1.1580 C.2   1 <1>  -0.3000 
 22 H        0.0120    -1.1520     2.5510 H     1 <1>   0.0800 
 23 H       -1.2480    -0.1470     1.8890 H     1 <1>   0.0800 
 24 H       -0.2560     0.4450     3.1970 H     1 <1>   0.0800 
 25 H        1.9600     3.2070     1.6650 H     1 <1>   0.0800 
 26 H        0.8530     4.1620     0.7330 H     1 <1>   0.0800 
 27 H       -0.3270     1.7230    -1.6670 H     1 <1>   0.1500 
 28 H       -1.8030     3.0910     2.1090 H     1 <1>   0.1500 
 29 H       -4.0320     3.5330     1.0860 H     1 <1>   0.1500 
 30 H        3.3200     1.4830     0.3260 H     1 <1>   0.3700 
 31 H        4.1750     2.7020    -2.2540 H     1 <1>   0.0800 
 32 H        3.6970     1.0200    -2.1420 H     1 <1>   0.0800 
 33 H       -4.7560     1.7750    -3.1930 H     1 <1>   0.0800 
 34 H       -4.2350     3.4330    -3.5810 H     1 <1>   0.0800 
 35 H        5.9350     2.3350    -0.5450 H     1 <1>   0.1500 
 36 H        7.0460     0.0860    -0.7570 H     1 <1>   0.1500 
 37 H        5.6380    -0.5430    -1.6520 H     1 <1>   0.1500 
@<TRIPOS>BOND
  1   1   2  2   
  2   1   3  2   
  3   1   4  am  
  4   1   5  1   
  5   4   6  1   
  6   4   7  1   
  7   5  22  1   
  8   5  23  1   
  9   5  24  1   
 10   6   8  ar  
 11   6   9  ar  
 12   7  10  1   
 13   7  25  1   
 14   7  26  1   
 15   8  11  ar  
 16   8  27  1   
 17   9  12  ar  
 18   9  28  1   
 19  10  13  2   
 20  10  14  am  
 21  11  15  1   
 22  11  16  ar  
 23  12  16  ar  
 24  12  29  1   
 25  14  17  1   
 26  14  30  1   
 27  15  18  1   
 28  16  19  1   
 29  17  20  1   
 30  17  31  1   
 31  17  32  1   
 32  18  19  1   
 33  18  33  1   
 34  18  34  1   
 35  20  21  2   
 36  20  35  1   
 37  21  36  1   
 38  21  37  1   
@<TRIPOS>SUBSTRUCTURE
  1 ****   4 GROUP 4 **** **** 0

# MOE 2024.06 (io_trps.svl 2023.06)
