@<TRIPOS>MOLECULE
3-Benzoylamino-4-(4-methyl-piperazin-1-yl)-benzoic acid methyl ester
50 52 1 0 0 
SMALL
USER_CHARGES


@<TRIPOS>ATOM
  1 O        0.5190    -0.1970    -0.0970 O.2   1 <1>  -0.5700 
  2 C        1.2110    -1.1720     0.1180 C.2   1 <1>   0.6340 
  3 O        0.6110    -2.3240     0.4420 O.3   1 <1>  -0.4300 
  4 C        2.6560    -1.1540     0.0360 C.ar  1 <1>   0.0860 
  5 C       -0.7950    -2.4270     0.5470 C.3   1 <1>   0.0400 
  6 C        3.3470     0.0310    -0.2240 C.ar  1 <1>  -0.1500 
  7 C        3.4280    -2.3050     0.2070 C.ar  1 <1>  -0.1500 
  8 C        4.7260     0.0890    -0.3140 C.ar  1 <1>   0.1170 
  9 C        4.8060    -2.2700     0.1250 C.ar  1 <1>  -0.1500 
 10 N        5.3160     1.3280    -0.6260 N.am  1 <1>  -0.5470 
 11 C        5.4830    -1.0850    -0.1330 C.ar  1 <1>   0.1000 
 12 C        5.9490     2.2080     0.2130 C.2   1 <1>   0.5440 
 13 N        6.8790    -1.0950    -0.1880 N.pl3 1 <1>  -0.8380 
 14 O        6.0480     1.9460     1.3970 O.2   1 <1>  -0.5700 
 15 C        6.4860     3.4480    -0.3150 C.ar  1 <1>   0.0860 
 16 C        7.6220    -0.6050     1.0140 C.3   1 <1>   0.2090 
 17 C        7.6110    -1.9500    -1.1680 C.3   1 <1>   0.2090 
 18 C        6.9900     3.5400    -1.6160 C.ar  1 <1>  -0.1500 
 19 C        6.5200     4.6030     0.4660 C.ar  1 <1>  -0.1500 
 20 C        8.5130    -1.6970     1.6350 C.3   1 <1>   0.3430 
 21 C        8.4970    -3.0030    -0.4670 C.3   1 <1>   0.3430 
 22 C        7.4880     4.7310    -2.1130 C.ar  1 <1>  -0.1500 
 23 C        7.0170     5.7970    -0.0250 C.ar  1 <1>  -0.1500 
 24 N        9.3680    -2.4090     0.6130 N.4   1 <1>  -0.9590 
 25 C        7.5010     5.8620    -1.3180 C.ar  1 <1>  -0.1500 
 26 C       10.2320    -3.4440     1.2550 C.3   1 <1>   0.2630 
 27 H       -1.0450    -3.4370     0.8170 H     1 <1>   0.0800 
 28 H       -1.2340    -2.1770    -0.4040 H     1 <1>   0.0800 
 29 H       -1.1380    -1.7430     1.3040 H     1 <1>   0.0800 
 30 H        2.7810     0.9370    -0.3570 H     1 <1>   0.1500 
 31 H        2.9380    -3.2430     0.4100 H     1 <1>   0.1500 
 32 H        5.3630    -3.1750     0.2700 H     1 <1>   0.1500 
 33 H        5.1200     1.6760    -1.5620 H     1 <1>   0.3700 
 34 H        6.9190    -0.2820     1.7620 H     1 <1>   0.0800 
 35 H        8.2180     0.2480     0.7390 H     1 <1>   0.0800 
 36 H        8.2240    -1.3190    -1.7880 H     1 <1>   0.0800 
 37 H        6.9040    -2.4460    -1.8120 H     1 <1>   0.0800 
 38 H        7.0010     2.6700    -2.2480 H     1 <1>   0.1500 
 39 H        6.1460     4.5590     1.4760 H     1 <1>   0.1500 
 40 H        7.8700    -2.4100     2.1240 H     1 <1>   0.0800 
 41 H        9.1370    -1.2470     2.3890 H     1 <1>   0.0800 
 42 H        9.1120    -3.4880    -1.2070 H     1 <1>   0.0800 
 43 H        7.8520    -3.7490    -0.0350 H     1 <1>   0.0800 
 44 H        7.8700     4.7810    -3.1190 H     1 <1>   0.1500 
 45 H        7.0280     6.6740     0.5990 H     1 <1>   0.1500 
 46 H        9.9640    -1.6940     0.1710 H     1 <1>   0.4500 
 47 H        7.8880     6.7910    -1.7040 H     1 <1>   0.1500 
 48 H        9.6240    -4.1980     1.7290 H     1 <1>   0.0800 
 49 H       10.8640    -2.9920     2.0030 H     1 <1>   0.0800 
 50 H       10.8590    -3.9180     0.5180 H     1 <1>   0.0800 
@<TRIPOS>BOND
  1   1   2  2   
  2   2   3  1   
  3   2   4  1   
  4   3   5  1   
  5   4   6  ar  
  6   4   7  ar  
  7   5  27  1   
  8   5  28  1   
  9   5  29  1   
 10   6   8  ar  
 11   6  30  1   
 12   7   9  ar  
 13   7  31  1   
 14   8  10  1   
 15   8  11  ar  
 16   9  11  ar  
 17   9  32  1   
 18  10  12  am  
 19  10  33  1   
 20  11  13  1   
 21  12  14  2   
 22  12  15  1   
 23  13  16  1   
 24  13  17  1   
 25  15  18  ar  
 26  15  19  ar  
 27  16  20  1   
 28  16  34  1   
 29  16  35  1   
 30  17  21  1   
 31  17  36  1   
 32  17  37  1   
 33  18  22  ar  
 34  18  38  1   
 35  19  23  ar  
 36  19  39  1   
 37  20  24  1   
 38  20  40  1   
 39  20  41  1   
 40  21  24  1   
 41  21  42  1   
 42  21  43  1   
 43  22  25  ar  
 44  22  44  1   
 45  23  25  ar  
 46  23  45  1   
 47  24  26  1   
 48  24  46  1   
 49  25  47  1   
 50  26  48  1   
 51  26  49  1   
 52  26  50  1   
@<TRIPOS>SUBSTRUCTURE
  1 ****   8 GROUP 4 **** **** 0

# MOE 2024.06 (io_trps.svl 2023.06)
