@<TRIPOS>MOLECULE
N-Isopropyl-3-(3-m-tolyl-[1,2,4]oxadiazol-5-yl)-propionamide
39 40 1 0 0 
SMALL
USER_CHARGES


@<TRIPOS>ATOM
  1 O        0.0070    -0.7200    -1.9150 O.2   1 <1>  -0.5700 
  2 C        0.4560    -1.6590    -1.3130 C.2   1 <1>   0.5690 
  3 N        1.6760    -1.5650    -0.7370 N.am  1 <1>  -0.7300 
  4 C       -0.3790    -2.9160    -1.2060 C.3   1 <1>  -0.0990 
  5 C        2.4230    -2.5370     0.0700 C.3   1 <1>   0.2200 
  6 C       -1.2110    -2.9020     0.0820 C.3   1 <1>   0.0200 
  7 C        2.8390    -1.8530     1.3670 C.3   1 <1>  -0.2400 
  8 C        3.6380    -2.9880    -0.7330 C.3   1 <1>  -0.2400 
  9 C       -1.9700    -4.2010     0.2580 C.2   1 <1>   0.2980 
 10 O       -1.2960    -5.2900     0.5180 O.3   1 <1>  -0.0190 
 11 N       -3.2260    -4.3430     0.1770 N.2   1 <1>  -0.5650 
 12 N       -2.2040    -6.2080     0.6080 N.2   1 <1>  -0.4100 
 13 C       -3.3490    -5.6550     0.4070 C.2   1 <1>   0.4620 
 14 C       -4.6350    -6.3360     0.4200 C.ar  1 <1>   0.0540 
 15 C       -5.8300    -5.6540     0.1810 C.ar  1 <1>  -0.1500 
 16 C       -4.7250    -7.7060     0.6730 C.ar  1 <1>  -0.1500 
 17 C       -7.0560    -6.2980     0.1910 C.ar  1 <1>  -0.1440 
 18 C       -5.9420    -8.3600     0.6870 C.ar  1 <1>  -0.1500 
 19 C       -7.1080    -7.6570     0.4470 C.ar  1 <1>  -0.1500 
 20 C       -8.3380    -5.5290    -0.0720 C.3   1 <1>  -0.0970 
 21 H        2.1570    -0.6770    -0.8930 H     1 <1>   0.3700 
 22 H        0.2560    -3.7810    -1.2450 H     1 <1>   0.0800 
 23 H       -1.0410    -2.9620    -2.0530 H     1 <1>   0.0800 
 24 H        1.8080    -3.3900     0.3020 H     1 <1>   0.0800 
 25 H       -1.9100    -2.0850     0.0460 H     1 <1>   0.0800 
 26 H       -0.5740    -2.7570     0.9350 H     1 <1>   0.0800 
 27 H        3.4690    -1.0040     1.1670 H     1 <1>   0.0800 
 28 H        3.3840    -2.5430     1.9860 H     1 <1>   0.0800 
 29 H        1.9690    -1.5290     1.9100 H     1 <1>   0.0800 
 30 H        4.2740    -2.1530    -0.9660 H     1 <1>   0.0800 
 31 H        3.3220    -3.4580    -1.6470 H     1 <1>   0.0800 
 32 H        4.2070    -3.7030    -0.1660 H     1 <1>   0.0800 
 33 H       -5.7940    -4.5970    -0.0160 H     1 <1>   0.1500 
 34 H       -3.8270    -8.2680     0.8620 H     1 <1>   0.1500 
 35 H       -5.9840    -9.4170     0.8860 H     1 <1>   0.1500 
 36 H       -8.0540    -8.1710     0.4600 H     1 <1>   0.1500 
 37 H       -8.1260    -4.5700    -0.5100 H     1 <1>   0.0800 
 38 H       -8.8660    -5.3770     0.8520 H     1 <1>   0.0800 
 39 H       -8.9680    -6.0790    -0.7470 H     1 <1>   0.0800 
@<TRIPOS>BOND
  1   1   2  2   
  2   2   3  am  
  3   2   4  1   
  4   3   5  1   
  5   3  21  1   
  6   4   6  1   
  7   4  22  1   
  8   4  23  1   
  9   5   7  1   
 10   5   8  1   
 11   5  24  1   
 12   6   9  1   
 13   6  25  1   
 14   6  26  1   
 15   7  27  1   
 16   7  28  1   
 17   7  29  1   
 18   8  30  1   
 19   8  31  1   
 20   8  32  1   
 21   9  10  1   
 22   9  11  2   
 23  10  12  1   
 24  11  13  1   
 25  12  13  2   
 26  13  14  1   
 27  14  15  ar  
 28  14  16  ar  
 29  15  17  ar  
 30  15  33  1   
 31  16  18  ar  
 32  16  34  1   
 33  17  19  ar  
 34  17  20  1   
 35  18  19  ar  
 36  18  35  1   
 37  19  36  1   
 38  20  37  1   
 39  20  38  1   
 40  20  39  1   
@<TRIPOS>SUBSTRUCTURE
  1 ****   9 GROUP 4 **** **** 0

# MOE 2024.06 (io_trps.svl 2023.06)
