@<TRIPOS>MOLECULE
N-tert-Butyl-N-(3-phenyl-[1,2,4]oxadiazol-5-ylmethyl)-2-m-tolyloxy-propionamide
56 58 1 0 0 
SMALL
USER_CHARGES


@<TRIPOS>ATOM
  1 O       -0.2320     1.3100    -0.2620 O.2   1 <1>  -0.5700 
  2 C        0.2620     2.4130    -0.3350 C.2   1 <1>   0.5690 
  3 N        1.1720     2.6670    -1.3360 N.am  1 <1>  -0.6600 
  4 C       -0.0150     3.3880     0.8390 C.3   1 <1>   0.2610 
  5 C        0.9840     3.6260    -2.4740 C.3   1 <1>   0.3000 
  6 C        2.2270     1.6100    -1.5120 C.3   1 <1>   0.3200 
  7 O       -1.0690     4.3040     0.5850 O.3   1 <1>  -0.3630 
  8 C        1.2030     4.2230     1.2590 C.3   1 <1>  -0.2400 
  9 C        0.6180     2.8400    -3.7400 C.3   1 <1>  -0.2400 
 10 C       -0.1430     4.6290    -2.2240 C.3   1 <1>  -0.2400 
 11 C        2.2800     4.4180    -2.6890 C.3   1 <1>  -0.2400 
 12 C        3.2860     1.6970    -0.4240 C.2   1 <1>   0.2980 
 13 C       -2.3780     3.9490     0.5290 C.ar  1 <1>   0.0820 
 14 O        3.0160     1.1940     0.7510 O.3   1 <1>  -0.0190 
 15 N        4.4370     2.2230    -0.5400 N.2   1 <1>  -0.5650 
 16 C       -2.8660     2.6830     0.8380 C.ar  1 <1>  -0.1500 
 17 C       -3.2640     4.9390     0.1350 C.ar  1 <1>  -0.1500 
 18 N        4.0810     1.4300     1.4490 N.2   1 <1>  -0.4100 
 19 C        4.9250     2.0380     0.6920 C.2   1 <1>   0.4620 
 20 C       -4.2210     2.4100     0.7430 C.ar  1 <1>  -0.1440 
 21 C       -4.6180     4.6730     0.0430 C.ar  1 <1>  -0.1500 
 22 C        6.2490     2.4890     1.0890 C.ar  1 <1>   0.0540 
 23 C       -5.0950     3.4100     0.3470 C.ar  1 <1>  -0.1500 
 24 C       -4.7430     1.0240     1.0740 C.3   1 <1>  -0.0970 
 25 C        6.7350     2.2610     2.3790 C.ar  1 <1>  -0.1500 
 26 C        7.0910     3.1690     0.2050 C.ar  1 <1>  -0.1500 
 27 C        7.9910     2.6890     2.7670 C.ar  1 <1>  -0.1500 
 28 C        8.3490     3.5990     0.5870 C.ar  1 <1>  -0.1500 
 29 C        8.8020     3.3600     1.8710 C.ar  1 <1>  -0.1500 
 30 H       -0.3050     2.8030     1.6920 H     1 <1>   0.0800 
 31 H        2.7220     1.7090    -2.4580 H     1 <1>   0.0800 
 32 H        1.7760     0.6330    -1.4880 H     1 <1>   0.0800 
 33 H        1.5420     4.8390     0.4480 H     1 <1>   0.0800 
 34 H        2.0070     3.5760     1.5550 H     1 <1>   0.0800 
 35 H        0.9470     4.8470     2.0960 H     1 <1>   0.0800 
 36 H       -0.2500     2.2320    -3.5560 H     1 <1>   0.0800 
 37 H        1.4200     2.2140    -4.0790 H     1 <1>   0.0800 
 38 H        0.3850     3.5180    -4.5420 H     1 <1>   0.0800 
 39 H       -1.0750     4.1230    -2.0440 H     1 <1>   0.0800 
 40 H       -0.2810     5.2570    -3.0850 H     1 <1>   0.0800 
 41 H        0.0920     5.2760    -1.4000 H     1 <1>   0.0800 
 42 H        3.0910     3.7870    -3.0000 H     1 <1>   0.0800 
 43 H        2.5620     4.9230    -1.7830 H     1 <1>   0.0800 
 44 H        2.1370     5.1590    -3.4540 H     1 <1>   0.0800 
 45 H       -2.2080     1.8960     1.1520 H     1 <1>   0.1500 
 46 H       -2.8850     5.9170    -0.1000 H     1 <1>   0.1500 
 47 H       -5.2990     5.4470    -0.2630 H     1 <1>   0.1500 
 48 H       -6.1490     3.2090     0.2740 H     1 <1>   0.1500 
 49 H       -4.0010     0.2800     0.8430 H     1 <1>   0.0800 
 50 H       -5.6270     0.8080     0.5010 H     1 <1>   0.0800 
 51 H       -4.9820     0.9650     2.1200 H     1 <1>   0.0800 
 52 H        6.1170     1.7400     3.0900 H     1 <1>   0.1500 
 53 H        6.7550     3.3640    -0.7980 H     1 <1>   0.1500 
 54 H        8.3390     2.4990     3.7680 H     1 <1>   0.1500 
 55 H        8.9770     4.1210    -0.1150 H     1 <1>   0.1500 
 56 H        9.7800     3.6940     2.1710 H     1 <1>   0.1500 
@<TRIPOS>BOND
  1   1   2  2   
  2   2   3  am  
  3   2   4  1   
  4   3   5  1   
  5   3   6  1   
  6   4   7  1   
  7   4   8  1   
  8   4  30  1   
  9   5   9  1   
 10   5  10  1   
 11   5  11  1   
 12   6  12  1   
 13   6  31  1   
 14   6  32  1   
 15   7  13  1   
 16   8  33  1   
 17   8  34  1   
 18   8  35  1   
 19   9  36  1   
 20   9  37  1   
 21   9  38  1   
 22  10  39  1   
 23  10  40  1   
 24  10  41  1   
 25  11  42  1   
 26  11  43  1   
 27  11  44  1   
 28  12  14  1   
 29  12  15  2   
 30  13  16  ar  
 31  13  17  ar  
 32  14  18  1   
 33  15  19  1   
 34  16  20  ar  
 35  16  45  1   
 36  17  21  ar  
 37  17  46  1   
 38  18  19  2   
 39  19  22  1   
 40  20  23  ar  
 41  20  24  1   
 42  21  23  ar  
 43  21  47  1   
 44  22  25  ar  
 45  22  26  ar  
 46  23  48  1   
 47  24  49  1   
 48  24  50  1   
 49  24  51  1   
 50  25  27  ar  
 51  25  52  1   
 52  26  28  ar  
 53  26  53  1   
 54  27  29  ar  
 55  27  54  1   
 56  28  29  ar  
 57  28  55  1   
 58  29  56  1   
@<TRIPOS>SUBSTRUCTURE
  1 ****   2 GROUP 4 **** **** 0

# MOE 2024.06 (io_trps.svl 2023.06)
