@<TRIPOS>MOLECULE
1-(2-Dimethylamino-ethyl)-piperidine-4-carboxylic acid
35 35 1 0 0 
SMALL
USER_CHARGES


@<TRIPOS>ATOM
  1 O        0.5460    -1.1750     1.7070 O.co2 1 <1>  -0.9000 
  2 C        1.1530    -1.0070     0.6450 C.2   1 <1>   0.9060 
  3 O        1.4610     0.0920     0.1880 O.co2 1 <1>  -0.9000 
  4 C        1.5350    -2.2550    -0.1320 C.3   1 <1>  -0.1860 
  5 C        0.2590    -3.0360    -0.5220 C.3   1 <1>  -0.1600 
  6 C        2.5280    -3.0990     0.6990 C.3   1 <1>  -0.1600 
  7 C        0.5500    -4.4600    -0.9660 C.3   1 <1>   0.3430 
  8 C        2.6790    -4.5210     0.1800 C.3   1 <1>   0.3430 
  9 N        1.3180    -5.1290     0.1260 N.4   1 <1>  -0.9590 
 10 C        1.3720    -6.6260     0.0440 C.3   1 <1>   0.3430 
 11 C       -0.0020    -7.3130     0.2920 C.3   1 <1>   0.3430 
 12 N        0.0460    -8.8240     0.3580 N.4   1 <1>  -0.9590 
 13 C        0.4440    -9.4720    -0.9390 C.3   1 <1>   0.2630 
 14 C       -1.2890    -9.3660     0.7820 C.3   1 <1>   0.2630 
 15 H        2.0280    -1.9330    -1.0320 H     1 <1>   0.0800 
 16 H       -0.2450    -2.5030    -1.3100 H     1 <1>   0.0800 
 17 H       -0.4190    -3.0650     0.3150 H     1 <1>   0.0800 
 18 H        2.2020    -3.1360     1.7250 H     1 <1>   0.0800 
 19 H        3.4860    -2.6070     0.6980 H     1 <1>   0.0800 
 20 H        1.1250    -4.4470    -1.8790 H     1 <1>   0.0800 
 21 H       -0.3840    -4.9660    -1.1490 H     1 <1>   0.0800 
 22 H        3.3180    -5.0730     0.8510 H     1 <1>   0.0800 
 23 H        3.1280    -4.5080    -0.8000 H     1 <1>   0.0800 
 24 H        0.8780    -4.8030     1.0050 H     1 <1>   0.4500 
 25 H        2.0650    -6.9820     0.7890 H     1 <1>   0.0800 
 26 H        1.7440    -6.9110    -0.9250 H     1 <1>   0.0800 
 27 H       -0.6840    -7.0190    -0.4890 H     1 <1>   0.0800 
 28 H       -0.3930    -6.9440     1.2270 H     1 <1>   0.0800 
 29 H        0.7200    -9.1220     1.0850 H     1 <1>   0.4500 
 30 H       -0.2520    -9.2150    -1.7210 H     1 <1>   0.0800 
 31 H        0.4490   -10.5460    -0.8310 H     1 <1>   0.0800 
 32 H        1.4330    -9.1620    -1.2360 H     1 <1>   0.0800 
 33 H       -2.0500    -9.1100     0.0610 H     1 <1>   0.0800 
 34 H       -1.5750    -8.9630     1.7410 H     1 <1>   0.0800 
 35 H       -1.2480   -10.4410     0.8660 H     1 <1>   0.0800 
@<TRIPOS>BOND
  1   1   2  ar  
  2   2   3  ar  
  3   2   4  1   
  4   4   5  1   
  5   4   6  1   
  6   4  15  1   
  7   5   7  1   
  8   5  16  1   
  9   5  17  1   
 10   6   8  1   
 11   6  18  1   
 12   6  19  1   
 13   7   9  1   
 14   7  20  1   
 15   7  21  1   
 16   8   9  1   
 17   8  22  1   
 18   8  23  1   
 19   9  10  1   
 20   9  24  1   
 21  10  11  1   
 22  10  25  1   
 23  10  26  1   
 24  11  12  1   
 25  11  27  1   
 26  11  28  1   
 27  12  13  1   
 28  12  14  1   
 29  12  29  1   
 30  13  30  1   
 31  13  31  1   
 32  13  32  1   
 33  14  33  1   
 34  14  34  1   
 35  14  35  1   
@<TRIPOS>SUBSTRUCTURE
  1 ****   9 GROUP 4 **** **** 0

# MOE 2024.06 (io_trps.svl 2023.06)
