@<TRIPOS>MOLECULE
3-(5,6-Dimethyl-1H-benzoimidazol-2-yl)-propionic acid
29 30 1 0 0 
SMALL
USER_CHARGES


@<TRIPOS>ATOM
  1 O        1.2540     3.6350    -0.5710 O.co2 1 <1>  -0.9000 
  2 C        0.8030     2.4900    -0.4770 C.2   1 <1>   0.9060 
  3 O        1.5070     1.4960    -0.2930 O.co2 1 <1>  -0.9000 
  4 C       -0.6860     2.3230    -0.5760 C.3   1 <1>  -0.2660 
  5 C       -1.3500     2.6930     0.7570 C.3   1 <1>   0.0200 
  6 C       -2.8210     3.0220     0.5780 C.2   1 <1>   0.0060 
  7 N       -3.8050     2.3690     1.0960 N.2   1 <1>  -0.5650 
  8 N       -3.2030     4.0860    -0.1700 N.pl3 1 <1>   0.0330 
  9 C       -4.9130     3.0360     0.6630 C.ar  1 <1>   0.2270 
 10 C       -4.5580     4.1100    -0.1260 C.ar  1 <1>  -0.1520 
 11 C       -6.2580     2.7780     0.9090 C.ar  1 <1>  -0.1500 
 12 C       -5.5230     4.9470    -0.6860 C.ar  1 <1>  -0.1500 
 13 C       -7.2290     3.5940     0.3630 C.ar  1 <1>  -0.1440 
 14 C       -6.8570     4.6890    -0.4420 C.ar  1 <1>  -0.1430 
 15 C       -8.6930     3.2900     0.6460 C.3   1 <1>  -0.0970 
 16 C       -7.9110     5.6010    -1.0530 C.3   1 <1>  -0.0970 
 17 H       -0.9120     1.3060    -0.8340 H     1 <1>   0.0800 
 18 H       -1.0220     2.9620    -1.3680 H     1 <1>   0.0800 
 19 H       -0.8590     3.5540     1.1780 H     1 <1>   0.0800 
 20 H       -1.2350     1.8800     1.4520 H     1 <1>   0.0800 
 21 H       -2.5760     4.7210    -0.6700 H     1 <1>   0.2700 
 22 H       -6.4970     1.9340     1.5270 H     1 <1>   0.1500 
 23 H       -5.2130     5.7740    -1.2970 H     1 <1>   0.1500 
 24 H       -8.7900     2.4230     1.2750 H     1 <1>   0.0800 
 25 H       -9.2150     3.0990    -0.2740 H     1 <1>   0.0800 
 26 H       -9.1530     4.1230     1.1480 H     1 <1>   0.0800 
 27 H       -7.4550     6.3810    -1.6340 H     1 <1>   0.0800 
 28 H       -8.4970     6.0580    -0.2770 H     1 <1>   0.0800 
 29 H       -8.5580     5.0350    -1.6980 H     1 <1>   0.0800 
@<TRIPOS>BOND
  1   1   2  ar  
  2   2   3  ar  
  3   2   4  1   
  4   4   5  1   
  5   4  17  1   
  6   4  18  1   
  7   5   6  1   
  8   5  19  1   
  9   5  20  1   
 10   6   7  2   
 11   6   8  1   
 12   7   9  1   
 13   8  10  1   
 14   8  21  1   
 15   9  10  ar  
 16   9  11  ar  
 17  10  12  ar  
 18  11  13  ar  
 19  11  22  1   
 20  12  14  ar  
 21  12  23  1   
 22  13  14  ar  
 23  13  15  1   
 24  14  16  1   
 25  15  24  1   
 26  15  25  1   
 27  15  26  1   
 28  16  27  1   
 29  16  28  1   
 30  16  29  1   
@<TRIPOS>SUBSTRUCTURE
  1 ****   8 GROUP 4 **** **** 0

# MOE 2024.06 (io_trps.svl 2023.06)
