@<TRIPOS>MOLECULE
3-tert-Butyl-6-pyrazin-2-yl-[1,2,4]triazolo[3,4-b][1,3,4]thiadiazole
30 32 1 0 0 
SMALL
USER_CHARGES


@<TRIPOS>ATOM
  1 S       -0.4620    -0.1210     1.2320 S.3   1 <1>  -0.1970 
  2 C        0.4180     1.3810     1.1020 C.2   1 <1>   0.2420 
  3 C       -1.9360     0.7150     0.6580 C.2   1 <1>   0.5050 
  4 N        1.6240     1.7620     1.3150 N.2   1 <1>  -0.3380 
  5 N       -0.4050     2.3190     0.6730 N.pl3 1 <1>   0.5050 
  6 N       -1.7290     1.9640     0.4130 N.2   1 <1>  -0.6520 
  7 C       -3.1540    -0.0690     0.5450 C.ar  1 <1>   0.3960 
  8 N        1.6170     3.0710     1.0040 N.2   1 <1>  -0.3380 
  9 C        0.4110     3.3910     0.6250 C.2   1 <1>   0.0060 
 10 N       -4.3380     0.5400     0.7130 N.ar  1 <1>  -0.6200 
 11 C       -3.0900    -1.4430     0.2600 C.ar  1 <1>   0.1600 
 12 C       -0.0590     4.7830     0.1800 C.3   1 <1>   0.1800 
 13 C       -5.3740    -0.2680     0.5890 C.ar  1 <1>   0.1600 
 14 N       -4.1270    -2.2540     0.1370 N.ar  1 <1>  -0.6200 
 15 C       -0.5730     4.7290    -1.2660 C.3   1 <1>  -0.2400 
 16 C       -1.1790     5.2830     1.1040 C.3   1 <1>  -0.2400 
 17 C        1.0990     5.7950     0.2390 C.3   1 <1>  -0.2400 
 18 C       -5.2750    -1.6230     0.3110 C.ar  1 <1>   0.1600 
 19 H       -2.1260    -1.8970     0.1170 H     1 <1>   0.1500 
 20 H       -6.3530     0.1630     0.7140 H     1 <1>   0.1500 
 21 H       -0.8610     5.7090    -1.6020 H     1 <1>   0.0800 
 22 H        0.1960     4.3560    -1.9190 H     1 <1>   0.0800 
 23 H       -1.4300     4.0840    -1.3450 H     1 <1>   0.0800 
 24 H       -2.0410     4.6430     1.0450 H     1 <1>   0.0800 
 25 H       -1.4820     6.2770     0.8280 H     1 <1>   0.0800 
 26 H       -0.8370     5.3000     2.1240 H     1 <1>   0.0800 
 27 H        1.9020     5.4820    -0.4040 H     1 <1>   0.0800 
 28 H        1.4810     5.8660     1.2420 H     1 <1>   0.0800 
 29 H        0.7730     6.7710    -0.0720 H     1 <1>   0.0800 
 30 H       -6.1760    -2.2060     0.2290 H     1 <1>   0.1500 
@<TRIPOS>BOND
  1   1   2  1   
  2   1   3  1   
  3   2   4  2   
  4   2   5  1   
  5   3   6  2   
  6   3   7  1   
  7   4   8  1   
  8   5   6  1   
  9   5   9  1   
 10   7  10  ar  
 11   7  11  ar  
 12   8   9  2   
 13   9  12  1   
 14  10  13  ar  
 15  11  14  ar  
 16  11  19  1   
 17  12  15  1   
 18  12  16  1   
 19  12  17  1   
 20  13  18  ar  
 21  13  20  1   
 22  14  18  ar  
 23  15  21  1   
 24  15  22  1   
 25  15  23  1   
 26  16  24  1   
 27  16  25  1   
 28  16  26  1   
 29  17  27  1   
 30  17  28  1   
 31  17  29  1   
 32  18  30  1   
@<TRIPOS>SUBSTRUCTURE
  1 ****   6 GROUP 4 **** **** 0

# MOE 2024.06 (io_trps.svl 2023.06)
