@<TRIPOS>MOLECULE
[4-(Azepane-1-sulfonyl)-piperazin-1-yl]-thiophen-2-yl-methanone
46 48 1 0 0 
SMALL
USER_CHARGES


@<TRIPOS>ATOM
  1 S       -0.1000    -0.2660     1.5480 S.o2  1 <1>   1.5760 
  2 O        0.3300    -1.4380     2.2770 O.2   1 <1>  -0.6500 
  3 O       -0.6190     0.8860     2.2510 O.2   1 <1>  -0.6500 
  4 N        1.1520     0.2120     0.5220 N.am  1 <1>  -0.8490 
  5 N       -1.2570    -0.7350     0.4140 N.am  1 <1>  -0.8490 
  6 C        2.1180     1.0300     1.2570 C.3   1 <1>   0.1960 
  7 C        1.7600    -0.9500    -0.1380 C.3   1 <1>   0.1960 
  8 C       -1.7600     0.4170    -0.3540 C.3   1 <1>   0.1960 
  9 C       -2.3740    -1.4270     1.0680 C.3   1 <1>   0.1960 
 10 C        3.1840     1.6750     0.3620 C.3   1 <1>  -0.1600 
 11 C        2.3980    -0.5370    -1.4670 C.3   1 <1>  -0.1600 
 12 C       -2.7530    -0.0300    -1.4380 C.3   1 <1>   0.1400 
 13 C       -3.4090    -1.9320     0.0460 C.3   1 <1>   0.1400 
 14 C        4.2570     0.6860    -0.1170 C.3   1 <1>  -0.1600 
 15 C        3.8680    -0.0990    -1.3770 C.3   1 <1>  -0.1600 
 16 N       -3.8750    -0.8240    -0.8450 N.am  1 <1>  -0.6600 
 17 C       -5.1780    -0.3710    -0.8720 C.2   1 <1>   0.7150 
 18 O       -5.3770     0.7990    -1.1440 O.2   1 <1>  -0.5700 
 19 C       -6.2860    -1.2530    -0.5940 C.2   1 <1>  -0.0450 
 20 S       -7.7280    -0.5850     0.1780 S.3   1 <1>  -0.0800 
 21 C       -6.4890    -2.5800    -0.8100 C.2   1 <1>  -0.1500 
 22 C       -8.5370    -2.1370     0.1830 C.2   1 <1>  -0.1100 
 23 C       -7.7510    -3.0770    -0.3710 C.2   1 <1>  -0.1500 
 24 H        2.5860     0.4410     2.0290 H     1 <1>   0.0800 
 25 H        1.5880     1.8330     1.7430 H     1 <1>   0.0800 
 26 H        0.9900    -1.6680    -0.3690 H     1 <1>   0.0800 
 27 H        2.4680    -1.4390     0.5100 H     1 <1>   0.0800 
 28 H       -0.9380     0.9240    -0.8300 H     1 <1>   0.0800 
 29 H       -2.2480     1.1210     0.3000 H     1 <1>   0.0800 
 30 H       -2.8570    -0.7640     1.7680 H     1 <1>   0.0800 
 31 H       -1.9980    -2.2730     1.6200 H     1 <1>   0.0800 
 32 H        3.6770     2.4260     0.9540 H     1 <1>   0.0800 
 33 H        2.7200     2.1810    -0.4670 H     1 <1>   0.0800 
 34 H        1.8070     0.2500    -1.9040 H     1 <1>   0.0800 
 35 H        2.3480    -1.3740    -2.1400 H     1 <1>   0.0800 
 36 H       -2.2340    -0.6390    -2.1580 H     1 <1>   0.0800 
 37 H       -3.1280     0.8360    -1.9540 H     1 <1>   0.0800 
 38 H       -4.2350    -2.3600     0.5850 H     1 <1>   0.0800 
 39 H       -2.9630    -2.7040    -0.5550 H     1 <1>   0.0800 
 40 H        4.4870    -0.0010     0.6790 H     1 <1>   0.0800 
 41 H        5.1610     1.2300    -0.3310 H     1 <1>   0.0800 
 42 H        4.0880     0.5020    -2.2430 H     1 <1>   0.0800 
 43 H        4.4970    -0.9710    -1.4320 H     1 <1>   0.0800 
 44 H       -5.7780    -3.2350    -1.2820 H     1 <1>   0.1500 
 45 H       -9.5260    -2.1810     0.6030 H     1 <1>   0.1500 
 46 H       -8.0160    -4.1140    -0.4930 H     1 <1>   0.1500 
@<TRIPOS>BOND
  1   1   2  2   
  2   1   3  2   
  3   1   4  am  
  4   1   5  am  
  5   4   6  1   
  6   4   7  1   
  7   5   8  1   
  8   5   9  1   
  9   6  10  1   
 10   6  24  1   
 11   6  25  1   
 12   7  11  1   
 13   7  26  1   
 14   7  27  1   
 15   8  12  1   
 16   8  28  1   
 17   8  29  1   
 18   9  13  1   
 19   9  30  1   
 20   9  31  1   
 21  10  14  1   
 22  10  32  1   
 23  10  33  1   
 24  11  15  1   
 25  11  34  1   
 26  11  35  1   
 27  12  16  1   
 28  12  36  1   
 29  12  37  1   
 30  13  16  1   
 31  13  38  1   
 32  13  39  1   
 33  14  15  1   
 34  14  40  1   
 35  14  41  1   
 36  15  42  1   
 37  15  43  1   
 38  16  17  am  
 39  17  18  2   
 40  17  19  1   
 41  19  20  1   
 42  19  21  2   
 43  20  22  1   
 44  21  23  1   
 45  21  44  1   
 46  22  23  2   
 47  22  45  1   
 48  23  46  1   
@<TRIPOS>SUBSTRUCTURE
  1 ****   5 GROUP 4 **** **** 0

# MOE 2024.06 (io_trps.svl 2023.06)
