@<TRIPOS>MOLECULE
4-(3-Fluoro-phenyl)-6-(2-methoxy-ethyl)-3,4,6,7-tetrahydro-1H-pyrrolo[3,4-d]pyri
38 40 1 0 0 
SMALL
USER_CHARGES


@<TRIPOS>ATOM
  1 F        1.0970     0.2900    -0.0680 F     1 <1>  -0.1900 
  2 C        1.7190    -0.7780    -0.4900 C.ar  1 <1>   0.1900 
  3 C        1.6370    -1.9360     0.2590 C.ar  1 <1>  -0.1500 
  4 C        2.4350    -0.7070    -1.6690 C.ar  1 <1>  -0.1500 
  5 C        2.3020    -3.0730    -0.1790 C.ar  1 <1>  -0.1440 
  6 C        3.0910    -1.8430    -2.1100 C.ar  1 <1>  -0.1500 
  7 C        3.0220    -3.0140    -1.3710 C.ar  1 <1>  -0.1500 
  8 C        2.2210    -4.3600     0.6380 C.3   1 <1>   0.5020 
  9 N        3.5770    -4.9650     0.7380 N.am  1 <1>  -0.7300 
 10 C        1.2790    -5.3520    -0.0030 C.2   1 <1>  -0.1240 
 11 C        3.9450    -6.1410     0.1720 C.2   1 <1>   0.6900 
 12 C       -0.1110    -5.1950    -0.1570 C.2   1 <1>   0.6160 
 13 C        1.6820    -6.5280    -0.4960 C.2   1 <1>  -0.0290 
 14 O        5.1020    -6.4900     0.1840 O.2   1 <1>  -0.5700 
 15 N        3.0040    -6.9240    -0.4300 N.am  1 <1>  -0.5390 
 16 O       -0.7940    -4.2680     0.2310 O.2   1 <1>  -0.5700 
 17 N       -0.6040    -6.3050    -0.7870 N.am  1 <1>  -0.6600 
 18 C        0.4930    -7.2760    -1.0820 C.3   1 <1>   0.2780 
 19 C       -1.9980    -6.5080    -1.2530 C.3   1 <1>   0.1400 
 20 C       -2.9350    -6.7050    -0.0630 C.3   1 <1>   0.1200 
 21 O       -4.1760    -7.1170    -0.5440 O.3   1 <1>  -0.5600 
 22 C       -5.1450    -7.2460     0.4440 C.3   1 <1>   0.0400 
 23 H        1.0530    -1.9370     1.1620 H     1 <1>   0.1500 
 24 H        2.4740     0.2130    -2.2230 H     1 <1>   0.1500 
 25 H        3.6550    -1.8170    -3.0270 H     1 <1>   0.1500 
 26 H        3.5350    -3.8890    -1.7340 H     1 <1>   0.1500 
 27 H        1.8700    -4.1410     1.6320 H     1 <1>   0.0800 
 28 H        4.3260    -4.3510     1.0510 H     1 <1>   0.3700 
 29 H        3.3580    -7.8030    -0.8090 H     1 <1>   0.3700 
 30 H        0.3220    -8.2100    -0.5750 H     1 <1>   0.0800 
 31 H        0.6010    -7.4210    -2.1430 H     1 <1>   0.0800 
 32 H       -2.0410    -7.3740    -1.8900 H     1 <1>   0.0800 
 33 H       -2.3130    -5.6440    -1.8120 H     1 <1>   0.0800 
 34 H       -3.0560    -5.7760     0.4700 H     1 <1>   0.0800 
 35 H       -2.5550    -7.4680     0.5930 H     1 <1>   0.0800 
 36 H       -6.0590    -7.5690    -0.0230 H     1 <1>   0.0800 
 37 H       -5.2980    -6.2920     0.9190 H     1 <1>   0.0800 
 38 H       -4.8260    -7.9810     1.1630 H     1 <1>   0.0800 
@<TRIPOS>BOND
  1   1   2  1   
  2   2   3  ar  
  3   2   4  ar  
  4   3   5  ar  
  5   3  23  1   
  6   4   6  ar  
  7   4  24  1   
  8   5   7  ar  
  9   5   8  1   
 10   6   7  ar  
 11   6  25  1   
 12   7  26  1   
 13   8   9  1   
 14   8  10  1   
 15   8  27  1   
 16   9  11  am  
 17   9  28  1   
 18  10  12  1   
 19  10  13  2   
 20  11  14  2   
 21  11  15  am  
 22  12  16  2   
 23  12  17  am  
 24  13  15  1   
 25  13  18  1   
 26  15  29  1   
 27  17  18  1   
 28  17  19  1   
 29  18  30  1   
 30  18  31  1   
 31  19  20  1   
 32  19  32  1   
 33  19  33  1   
 34  20  21  1   
 35  20  34  1   
 36  20  35  1   
 37  21  22  1   
 38  22  36  1   
 39  22  37  1   
 40  22  38  1   
@<TRIPOS>SUBSTRUCTURE
  1 ****  10 GROUP 4 **** **** 0

# MOE 2024.06 (io_trps.svl 2023.06)
