@<TRIPOS>MOLECULE
1-(4-Benzenesulfonyl-piperazin-1-yl)-3-(indan-5-yloxy)-propan-2-ol
57 60 1 0 0 
SMALL
USER_CHARGES


@<TRIPOS>ATOM
  1 S       -0.1930    -0.1170    -1.2090 S.o2  1 <1>   1.4470 
  2 O       -0.4320     1.1570    -1.8540 O.2   1 <1>  -0.6500 
  3 O       -0.5310    -1.3390    -1.9040 O.2   1 <1>  -0.6500 
  4 N        1.4650    -0.1900    -0.8740 N.am  1 <1>  -0.8490 
  5 C       -0.9400    -0.1360     0.4450 C.ar  1 <1>  -0.0090 
  6 C        2.2410    -0.4890    -2.0870 C.3   1 <1>   0.1960 
  7 C        1.9710     1.0530    -0.2680 C.3   1 <1>   0.1960 
  8 C       -1.7540     0.9020     0.8840 C.ar  1 <1>  -0.1500 
  9 C       -0.7020    -1.1900     1.3200 C.ar  1 <1>  -0.1500 
 10 C        3.7470    -0.5980    -1.7800 C.3   1 <1>   0.1100 
 11 C        3.4720     0.9440     0.0600 C.3   1 <1>   0.1100 
 12 C       -2.3080     0.8920     2.1530 C.ar  1 <1>  -0.1500 
 13 C       -1.2510    -1.2090     2.5900 C.ar  1 <1>  -0.1500 
 14 N        4.2720     0.6310    -1.1460 N.3   1 <1>  -0.8100 
 15 C       -2.0550    -0.1650     3.0080 C.ar  1 <1>  -0.1500 
 16 C        5.7110     0.4650    -0.8170 C.3   1 <1>   0.1100 
 17 C        6.3880     1.8110    -0.5010 C.3   1 <1>   0.2000 
 18 O        5.8810     2.7350    -1.3940 O.3   1 <1>  -0.6800 
 19 C        7.9100     1.7630    -0.6370 C.3   1 <1>   0.1200 
 20 O        8.4070     0.7190     0.1760 O.3   1 <1>  -0.3630 
 21 C        9.7280     0.4150     0.2010 C.ar  1 <1>   0.0830 
 22 C       10.1020    -0.6640     0.9890 C.ar  1 <1>  -0.1500 
 23 C       10.6980     1.1210    -0.5130 C.ar  1 <1>  -0.1500 
 24 C       11.4340    -1.0280     1.0540 C.ar  1 <1>  -0.1430 
 25 C       12.0310     0.7460    -0.4400 C.ar  1 <1>  -0.1500 
 26 C       12.3850    -0.3330     0.3500 C.ar  1 <1>  -0.1430 
 27 C       12.0490    -2.1580     1.8400 C.3   1 <1>  -0.0170 
 28 C       13.7610    -0.9080     0.5730 C.3   1 <1>  -0.0170 
 29 C       13.5580    -1.8700     1.7570 C.3   1 <1>  -0.1600 
 30 H        2.0830     0.2810    -2.8250 H     1 <1>   0.0800 
 31 H        1.9090    -1.4230    -2.5060 H     1 <1>   0.0800 
 32 H        1.4330     1.2590     0.6410 H     1 <1>   0.0800 
 33 H        1.8220     1.8830    -0.9400 H     1 <1>   0.0800 
 34 H       -1.9580     1.7300     0.2250 H     1 <1>   0.1500 
 35 H       -0.0760    -2.0060     0.9970 H     1 <1>   0.1500 
 36 H        4.2750    -0.7760    -2.7000 H     1 <1>   0.0800 
 37 H        3.9070    -1.4430    -1.1320 H     1 <1>   0.0800 
 38 H        3.6090     0.1770     0.8040 H     1 <1>   0.0800 
 39 H        3.7990     1.8800     0.4780 H     1 <1>   0.0800 
 40 H       -2.9360     1.7060     2.4740 H     1 <1>   0.1500 
 41 H       -1.0550    -2.0360     3.2510 H     1 <1>   0.1500 
 42 H       -2.4850    -0.1760     3.9950 H     1 <1>   0.1500 
 43 H        6.2180     0.0330    -1.6640 H     1 <1>   0.0800 
 44 H        5.8370    -0.2110     0.0110 H     1 <1>   0.0800 
 45 H        6.1250     2.1360     0.4900 H     1 <1>   0.0800 
 46 H        5.0080     2.3610    -1.6670 H     1 <1>   0.4000 
 47 H        8.3440     2.6900    -0.3050 H     1 <1>   0.0800 
 48 H        8.1860     1.5570    -1.6560 H     1 <1>   0.0800 
 49 H        9.3560    -1.2060     1.5390 H     1 <1>   0.1500 
 50 H       10.4390     1.9610    -1.1280 H     1 <1>   0.1500 
 51 H       12.7810     1.2860    -0.9890 H     1 <1>   0.1500 
 52 H       11.8120    -3.0930     1.3650 H     1 <1>   0.0800 
 53 H       11.7020    -2.1650     2.8590 H     1 <1>   0.0800 
 54 H       14.4780    -0.1410     0.8050 H     1 <1>   0.0800 
 55 H       14.0710    -1.4470    -0.3050 H     1 <1>   0.0800 
 56 H       14.1310    -2.7730     1.6420 H     1 <1>   0.0800 
 57 H       13.8650    -1.3730     2.6610 H     1 <1>   0.0800 
@<TRIPOS>BOND
  1   1   2  2   
  2   1   3  2   
  3   1   4  am  
  4   1   5  1   
  5   4   6  1   
  6   4   7  1   
  7   5   8  ar  
  8   5   9  ar  
  9   6  10  1   
 10   6  30  1   
 11   6  31  1   
 12   7  11  1   
 13   7  32  1   
 14   7  33  1   
 15   8  12  ar  
 16   8  34  1   
 17   9  13  ar  
 18   9  35  1   
 19  10  14  1   
 20  10  36  1   
 21  10  37  1   
 22  11  14  1   
 23  11  38  1   
 24  11  39  1   
 25  12  15  ar  
 26  12  40  1   
 27  13  15  ar  
 28  13  41  1   
 29  14  16  1   
 30  15  42  1   
 31  16  17  1   
 32  16  43  1   
 33  16  44  1   
 34  17  18  1   
 35  17  19  1   
 36  17  45  1   
 37  18  46  1   
 38  19  20  1   
 39  19  47  1   
 40  19  48  1   
 41  20  21  1   
 42  21  22  ar  
 43  21  23  ar  
 44  22  24  ar  
 45  22  49  1   
 46  23  25  ar  
 47  23  50  1   
 48  24  26  ar  
 49  24  27  1   
 50  25  26  ar  
 51  25  51  1   
 52  26  28  1   
 53  27  29  1   
 54  27  52  1   
 55  27  53  1   
 56  28  29  1   
 57  28  54  1   
 58  28  55  1   
 59  29  56  1   
 60  29  57  1   
@<TRIPOS>SUBSTRUCTURE
  1 ****  16 GROUP 4 **** **** 0

# MOE 2024.06 (io_trps.svl 2023.06)
