@<TRIPOS>MOLECULE
3-(2-Chloro-benzoylamino)-4-(4-methyl-piperazin-1-yl)-benzoic acid methyl ester
50 52 1 0 0 
SMALL
USER_CHARGES


@<TRIPOS>ATOM
  1 CL      -0.4760     0.4290    -1.7110 Cl    1 <1>  -0.1770 
  2 C       -1.2070     1.8980    -1.1060 C.ar  1 <1>   0.1770 
  3 C       -2.2930     1.8520    -0.2280 C.ar  1 <1>   0.0860 
  4 C       -0.6510     3.0930    -1.5250 C.ar  1 <1>  -0.1500 
  5 C       -2.9100     0.6210     0.2180 C.2   1 <1>   0.5440 
  6 C       -2.7820     3.0770     0.2300 C.ar  1 <1>  -0.1500 
  7 C       -1.1660     4.2900    -1.0630 C.ar  1 <1>  -0.1500 
  8 O       -3.1770     0.4640     1.3930 O.2   1 <1>  -0.5700 
  9 N       -3.1970    -0.3850    -0.6650 N.am  1 <1>  -0.5470 
 10 C       -2.2320     4.2780    -0.1810 C.ar  1 <1>  -0.1500 
 11 C       -3.8890    -1.5770    -0.3980 C.ar  1 <1>   0.1170 
 12 C       -3.2050    -2.8030    -0.3480 C.ar  1 <1>   0.1000 
 13 C       -5.2590    -1.5390    -0.2130 C.ar  1 <1>  -0.1500 
 14 N       -1.8090    -2.8580    -0.4450 N.pl3 1 <1>  -0.8380 
 15 C       -3.9510    -3.9590    -0.1510 C.ar  1 <1>  -0.1500 
 16 C       -6.0180    -2.6930    -0.0040 C.ar  1 <1>   0.0860 
 17 C       -1.0230    -2.2600     0.6820 C.3   1 <1>   0.2090 
 18 C       -1.1150    -3.8850    -1.2800 C.3   1 <1>   0.2090 
 19 C       -5.3220    -3.9050     0.0150 C.ar  1 <1>  -0.1500 
 20 C       -7.4530    -2.6200     0.1760 C.2   1 <1>   0.6340 
 21 C       -0.2830    -3.3380     1.4980 C.3   1 <1>   0.3430 
 22 C       -0.3520    -4.9130    -0.4130 C.3   1 <1>   0.3430 
 23 O       -8.0870    -1.5870     0.0910 O.2   1 <1>  -0.5700 
 24 O       -8.1120    -3.7540     0.4460 O.3   1 <1>  -0.4300 
 25 N        0.5300    -4.2650     0.6270 N.4   1 <1>  -0.9590 
 26 C       -9.5120    -3.7720     0.6400 C.3   1 <1>   0.0400 
 27 C        1.2500    -5.2860     1.4470 C.3   1 <1>   0.2630 
 28 H        0.1820     3.0870    -2.2060 H     1 <1>   0.1500 
 29 H       -3.6100     3.0790     0.9200 H     1 <1>   0.1500 
 30 H       -0.7390     5.2260    -1.3830 H     1 <1>   0.1500 
 31 H       -2.6070    -0.4270    -1.4960 H     1 <1>   0.3700 
 32 H       -2.6350     5.2070     0.1880 H     1 <1>   0.1500 
 33 H       -5.7580    -0.5860    -0.2350 H     1 <1>   0.1500 
 34 H       -3.4610    -4.9120    -0.1140 H     1 <1>   0.1500 
 35 H       -1.6840    -1.7230     1.3420 H     1 <1>   0.0800 
 36 H       -0.3150    -1.5530     0.2870 H     1 <1>   0.0800 
 37 H       -0.4240    -3.3870    -1.9380 H     1 <1>   0.0800 
 38 H       -1.8330    -4.3960    -1.8990 H     1 <1>   0.0800 
 39 H       -5.8680    -4.8200     0.1670 H     1 <1>   0.1500 
 40 H       -1.0190    -3.9060     2.0420 H     1 <1>   0.0800 
 41 H        0.3550    -2.8520     2.2170 H     1 <1>   0.0800 
 42 H        0.2410    -5.5400    -1.0580 H     1 <1>   0.0800 
 43 H       -1.0780    -5.5390     0.0770 H     1 <1>   0.0800 
 44 H        1.2210    -3.6840     0.1280 H     1 <1>   0.4500 
 45 H       -9.8160    -4.7830     0.8440 H     1 <1>   0.0800 
 46 H       -9.9910    -3.4130    -0.2550 H     1 <1>   0.0800 
 47 H       -9.7560    -3.1350     1.4720 H     1 <1>   0.0800 
 48 H        0.5450    -5.9020     1.9810 H     1 <1>   0.0800 
 49 H        1.8960    -4.8030     2.1620 H     1 <1>   0.0800 
 50 H        1.8520    -5.9180     0.8150 H     1 <1>   0.0800 
@<TRIPOS>BOND
  1   1   2  1   
  2   2   3  ar  
  3   2   4  ar  
  4   3   5  1   
  5   3   6  ar  
  6   4   7  ar  
  7   4  28  1   
  8   5   8  2   
  9   5   9  am  
 10   6  10  ar  
 11   6  29  1   
 12   7  10  ar  
 13   7  30  1   
 14   9  11  1   
 15   9  31  1   
 16  10  32  1   
 17  11  12  ar  
 18  11  13  ar  
 19  12  14  1   
 20  12  15  ar  
 21  13  16  ar  
 22  13  33  1   
 23  14  17  1   
 24  14  18  1   
 25  15  19  ar  
 26  15  34  1   
 27  16  19  ar  
 28  16  20  1   
 29  17  21  1   
 30  17  35  1   
 31  17  36  1   
 32  18  22  1   
 33  18  37  1   
 34  18  38  1   
 35  19  39  1   
 36  20  23  2   
 37  20  24  1   
 38  21  25  1   
 39  21  40  1   
 40  21  41  1   
 41  22  25  1   
 42  22  42  1   
 43  22  43  1   
 44  24  26  1   
 45  25  27  1   
 46  25  44  1   
 47  26  45  1   
 48  26  46  1   
 49  26  47  1   
 50  27  48  1   
 51  27  49  1   
 52  27  50  1   
@<TRIPOS>SUBSTRUCTURE
  1 ****  11 GROUP 4 **** **** 0

# MOE 2024.06 (io_trps.svl 2023.06)
