@<TRIPOS>MOLECULE
4-[4-(Toluene-4-sulfonyl)-piperazine-1-sulfonyl]-morpholine
48 50 1 0 0 
SMALL
USER_CHARGES


@<TRIPOS>ATOM
  1 S        0.2220     0.9960     0.0150 S.o2  1 <1>   1.5760 
  2 O       -0.0350     1.7250    -1.2060 O.2   1 <1>  -0.6500 
  3 O        0.3550     1.6830     1.2780 O.2   1 <1>  -0.6500 
  4 N       -0.9610    -0.1910     0.1690 N.am  1 <1>  -0.8490 
  5 N        1.5720     0.0150    -0.2160 N.am  1 <1>  -0.8490 
  6 C       -1.2790    -0.8510    -1.0990 C.3   1 <1>   0.1960 
  7 C       -2.1780     0.3300     0.8130 C.3   1 <1>   0.1960 
  8 C        1.9280    -0.7190     1.0090 C.3   1 <1>   0.1960 
  9 C        2.7240     0.8030    -0.6690 C.3   1 <1>   0.1960 
 10 C       -2.2840    -2.0080    -0.8920 C.3   1 <1>   0.1200 
 11 C       -3.4520    -0.4850     0.4890 C.3   1 <1>   0.1200 
 12 C        3.1170    -1.6630     0.7460 C.3   1 <1>   0.1960 
 13 C        3.9730    -0.0850    -0.8920 C.3   1 <1>   0.1960 
 14 O       -3.1480    -1.8190     0.2010 O.3   1 <1>  -0.5600 
 15 N        4.3170    -0.9550     0.2550 N.am  1 <1>  -0.8490 
 16 S        5.2040    -0.1870     1.4830 S.o2  1 <1>   1.4470 
 17 O        5.3070    -1.1280     2.5770 O.2   1 <1>  -0.6500 
 18 O        4.5970     1.1050     1.7190 O.2   1 <1>  -0.6500 
 19 C        6.8370     0.0290     0.7230 C.ar  1 <1>  -0.0090 
 20 C        7.4500     1.2750     0.6690 C.ar  1 <1>  -0.1500 
 21 C        7.5150    -1.0510     0.1710 C.ar  1 <1>  -0.1500 
 22 C        8.6910     1.4390     0.0790 C.ar  1 <1>  -0.1500 
 23 C        8.7560    -0.8940    -0.4210 C.ar  1 <1>  -0.1500 
 24 C        9.3500     0.3540    -0.4720 C.ar  1 <1>  -0.1440 
 25 C       10.7130     0.5300    -1.1170 C.3   1 <1>  -0.0970 
 26 H       -0.3820    -1.2400    -1.5500 H     1 <1>   0.0800 
 27 H       -1.7020    -0.1360    -1.7850 H     1 <1>   0.0800 
 28 H       -2.3500     1.3510     0.5130 H     1 <1>   0.0800 
 29 H       -2.0230     0.3330     1.8780 H     1 <1>   0.0800 
 30 H        1.0870    -1.3080     1.3330 H     1 <1>   0.0800 
 31 H        2.1750    -0.0330     1.8030 H     1 <1>   0.0800 
 32 H        2.9390     1.5830     0.0410 H     1 <1>   0.0800 
 33 H        2.4790     1.2820    -1.6020 H     1 <1>   0.0800 
 34 H       -1.7460    -2.9220    -0.7110 H     1 <1>   0.0800 
 35 H       -2.8830    -2.1400    -1.7760 H     1 <1>   0.0800 
 36 H       -3.9570    -0.0660    -0.3640 H     1 <1>   0.0800 
 37 H       -4.1270    -0.4680     1.3260 H     1 <1>   0.0800 
 38 H        2.8140    -2.3820     0.0060 H     1 <1>   0.0800 
 39 H        3.3460    -2.2130     1.6430 H     1 <1>   0.0800 
 40 H        4.8130     0.5380    -1.1460 H     1 <1>   0.0800 
 41 H        3.7780    -0.7140    -1.7440 H     1 <1>   0.0800 
 42 H        6.9510     2.1300     1.0950 H     1 <1>   0.1500 
 43 H        7.0620    -2.0280     0.2060 H     1 <1>   0.1500 
 44 H        9.1430     2.4160     0.0530 H     1 <1>   0.1500 
 45 H        9.2570    -1.7500    -0.8390 H     1 <1>   0.1500 
 46 H       10.8070     1.5150    -1.5390 H     1 <1>   0.0800 
 47 H       10.8540    -0.1890    -1.9040 H     1 <1>   0.0800 
 48 H       11.4840     0.3930    -0.3810 H     1 <1>   0.0800 
@<TRIPOS>BOND
  1   1   2  2   
  2   1   3  2   
  3   1   4  am  
  4   1   5  am  
  5   4   6  1   
  6   4   7  1   
  7   5   8  1   
  8   5   9  1   
  9   6  10  1   
 10   6  26  1   
 11   6  27  1   
 12   7  11  1   
 13   7  28  1   
 14   7  29  1   
 15   8  12  1   
 16   8  30  1   
 17   8  31  1   
 18   9  13  1   
 19   9  32  1   
 20   9  33  1   
 21  10  14  1   
 22  10  34  1   
 23  10  35  1   
 24  11  14  1   
 25  11  36  1   
 26  11  37  1   
 27  12  15  1   
 28  12  38  1   
 29  12  39  1   
 30  13  15  1   
 31  13  40  1   
 32  13  41  1   
 33  15  16  am  
 34  16  17  2   
 35  16  18  2   
 36  16  19  1   
 37  19  20  ar  
 38  19  21  ar  
 39  20  22  ar  
 40  20  42  1   
 41  21  23  ar  
 42  21  43  1   
 43  22  24  ar  
 44  22  44  1   
 45  23  24  ar  
 46  23  45  1   
 47  24  25  1   
 48  25  46  1   
 49  25  47  1   
 50  25  48  1   
@<TRIPOS>SUBSTRUCTURE
  1 ****   9 GROUP 4 **** **** 0

# MOE 2024.06 (io_trps.svl 2023.06)
