@<TRIPOS>MOLECULE
8-(4-Methoxy-benzyl)-1,6,7-trimethyl-3-(2-oxo-propyl)-1H,8H-imidazo[2,1-f]purine
54 57 1 0 0 
SMALL
USER_CHARGES


@<TRIPOS>ATOM
  1 O        1.0600    -0.3900    -0.7410 O.2   1 <1>  -0.5740 
  2 C        1.9760     0.4070    -0.7770 C.2   1 <1>   0.6870 
  3 N        1.7050     1.7640    -0.8810 N.am  1 <1>  -0.4250 
  4 N        3.2890    -0.0380    -0.7070 N.am  1 <1>  -0.4410 
  5 C        2.7250     2.7010    -0.9530 C.2   1 <1>   0.7000 
  6 C        0.3650     2.2480    -0.4210 C.3   1 <1>   0.1950 
  7 C        4.2890     0.9110    -0.6710 C.2   1 <1>   0.4210 
  8 C        3.6060    -1.4920    -0.5800 C.3   1 <1>   0.0530 
  9 O        2.4640     3.8760    -1.1570 O.2   1 <1>  -0.5740 
 10 C        4.0650     2.2420    -0.7900 C.2   1 <1>   0.2710 
 11 C        0.3730     2.4870     1.0880 C.2   1 <1>   0.4430 
 12 N        5.6220     0.6960    -0.5140 N.pl3 1 <1>  -0.7030 
 13 N        5.3260     2.8640    -0.7030 N.pl3 1 <1>  -0.6330 
 14 O        1.3800     2.4200     1.7350 O.2   1 <1>  -0.5740 
 15 C       -0.9530     2.8180     1.7360 C.3   1 <1>  -0.1860 
 16 C        6.2150     1.8950    -0.5290 C.cat 1 <1>   1.0690 
 17 C        6.0220     4.0530    -0.6880 C.2   1 <1>   0.2350 
 18 N        7.4620     2.3790    -0.4110 N.pl3 1 <1>  -0.5710 
 19 C        7.3330     3.7560    -0.5110 C.2   1 <1>   0.1580 
 20 C        5.2930     5.3730    -0.8500 C.3   1 <1>  -0.1090 
 21 C        8.7220     1.6110    -0.2030 C.3   1 <1>   0.3050 
 22 C        8.5400     4.6740    -0.4180 C.3   1 <1>  -0.1090 
 23 C        8.3960     0.1310    -0.1190 C.ar  1 <1>  -0.1500 
 24 C        8.3210    -0.6300    -1.2770 C.ar  1 <1>  -0.1570 
 25 C        8.0830    -0.4470     1.1020 C.ar  1 <1>  -0.1570 
 26 C        7.8880    -1.9410    -1.2150 C.ar  1 <1>  -0.1570 
 27 C        7.6540    -1.7610     1.1640 C.ar  1 <1>  -0.1570 
 28 C        7.5390    -2.5110    -0.0030 C.ar  1 <1>   0.0750 
 29 O        7.0910    -3.7870    -0.0350 O.3   1 <1>  -0.3680 
 30 C        6.9510    -4.5450     1.1470 C.3   1 <1>   0.0330 
 31 H       -0.3940     1.5260    -0.6640 H     1 <1>   0.0730 
 32 H        0.1150     3.1650    -0.9240 H     1 <1>   0.0730 
 33 H        2.8150    -2.0880    -1.0040 H     1 <1>   0.0730 
 34 H        3.7110    -1.7510     0.4600 H     1 <1>   0.0730 
 35 H        4.5180    -1.7280    -1.0990 H     1 <1>   0.0730 
 36 H        6.1420    -0.1780    -0.3790 H     1 <1>   0.4450 
 37 H       -1.6450     2.0080     1.5930 H     1 <1>   0.0730 
 38 H       -1.3590     3.7160     1.3080 H     1 <1>   0.0730 
 39 H       -0.8130     2.9700     2.7920 H     1 <1>   0.0730 
 40 H        4.5660     5.4900    -0.0660 H     1 <1>   0.0730 
 41 H        4.7820     5.3970    -1.7960 H     1 <1>   0.0730 
 42 H        5.9760     6.2010    -0.8090 H     1 <1>   0.0730 
 43 H        9.1970     1.9360     0.7080 H     1 <1>   0.0730 
 44 H        9.3960     1.7940    -1.0230 H     1 <1>   0.0730 
 45 H        9.2420     4.4440    -1.1990 H     1 <1>   0.0730 
 46 H        9.0250     4.5540     0.5340 H     1 <1>   0.0730 
 47 H        8.2480     5.7030    -0.5190 H     1 <1>   0.0730 
 48 H        8.5830    -0.2090    -2.2340 H     1 <1>   0.1430 
 49 H        8.1570     0.1220     2.0150 H     1 <1>   0.1430 
 50 H        7.8210    -2.5380    -2.1090 H     1 <1>   0.1430 
 51 H        7.4120    -2.1850     2.1210 H     1 <1>   0.1430 
 52 H        6.6780    -5.5480     0.8700 H     1 <1>   0.0730 
 53 H        6.1760    -4.1120     1.7540 H     1 <1>   0.0730 
 54 H        7.8910    -4.5550     1.6700 H     1 <1>   0.0730 
@<TRIPOS>BOND
  1   1   2  2   
  2   2   3  am  
  3   2   4  am  
  4   3   5  am  
  5   3   6  1   
  6   4   7  1   
  7   4   8  1   
  8   5   9  2   
  9   5  10  1   
 10   6  11  1   
 11   6  31  1   
 12   6  32  1   
 13   7  10  2   
 14   7  12  1   
 15   8  33  1   
 16   8  34  1   
 17   8  35  1   
 18  10  13  1   
 19  11  14  2   
 20  11  15  1   
 21  12  16  ar  
 22  12  36  1   
 23  13  16  ar  
 24  13  17  1   
 25  15  37  1   
 26  15  38  1   
 27  15  39  1   
 28  16  18  ar  
 29  17  19  2   
 30  17  20  1   
 31  18  19  1   
 32  18  21  1   
 33  19  22  1   
 34  20  40  1   
 35  20  41  1   
 36  20  42  1   
 37  21  23  1   
 38  21  43  1   
 39  21  44  1   
 40  22  45  1   
 41  22  46  1   
 42  22  47  1   
 43  23  24  ar  
 44  23  25  ar  
 45  24  26  ar  
 46  24  48  1   
 47  25  27  ar  
 48  25  49  1   
 49  26  28  ar  
 50  26  50  1   
 51  27  28  ar  
 52  27  51  1   
 53  28  29  1   
 54  29  30  1   
 55  30  52  1   
 56  30  53  1   
 57  30  54  1   
@<TRIPOS>SUBSTRUCTURE
  1 ****  12 GROUP 4 **** **** 0

# MOE 2024.06 (io_trps.svl 2023.06)
