@<TRIPOS>MOLECULE
N-(4-Benzyloxy-phenyl)-N-(2-oxo-2-piperidin-1-yl-ethyl)-methanesulfonamide
54 56 1 0 0 
SMALL
USER_CHARGES


@<TRIPOS>ATOM
  1 S        0.7760    -0.5690     1.7800 S.o2  1 <1>   1.3330 
  2 O        1.2340    -0.7810     0.4290 O.2   1 <1>  -0.6500 
  3 O        1.7270    -0.4370     2.8570 O.2   1 <1>  -0.6500 
  4 N       -0.1630     0.8800     1.7870 N.am  1 <1>  -0.6930 
  5 C       -0.4180    -1.8080     2.2380 C.3   1 <1>  -0.1350 
  6 C       -1.3790     1.0250     1.1080 C.ar  1 <1>   0.1990 
  7 C        0.5710     2.0990     2.2770 C.3   1 <1>   0.2570 
  8 C       -2.4290     1.7060     1.7150 C.ar  1 <1>  -0.1500 
  9 C       -1.5730     0.5310    -0.1800 C.ar  1 <1>  -0.1500 
 10 C        0.1160     3.4360     1.6740 C.2   1 <1>   0.5690 
 11 C       -3.6240     1.9200     1.0530 C.ar  1 <1>  -0.1500 
 12 C       -2.7670     0.7370    -0.8460 C.ar  1 <1>  -0.1500 
 13 O       -0.3930     4.2310     2.4340 O.2   1 <1>  -0.5700 
 14 N        0.2610     3.7080     0.3330 N.am  1 <1>  -0.6600 
 15 C       -3.7900     1.4460    -0.2420 C.ar  1 <1>   0.0830 
 16 C        0.9370     2.8120    -0.6500 C.3   1 <1>   0.1400 
 17 C       -0.4360     4.8640    -0.2940 C.3   1 <1>   0.1400 
 18 O       -4.9210     1.6500    -0.9660 O.3   1 <1>  -0.3630 
 19 C        1.9510     3.6170    -1.4690 C.3   1 <1>  -0.1600 
 20 C        0.5610     5.6900    -1.1130 C.3   1 <1>  -0.1600 
 21 C       -5.6070     2.8840    -0.8640 C.3   1 <1>   0.2630 
 22 C        1.2930     4.8260    -2.1490 C.3   1 <1>  -0.1600 
 23 C       -4.7100     4.0400    -1.2990 C.ar  1 <1>  -0.1430 
 24 C       -4.4560     5.0990    -0.4400 C.ar  1 <1>  -0.1500 
 25 C       -4.1480     4.0480    -2.5670 C.ar  1 <1>  -0.1500 
 26 C       -3.6610     6.1570    -0.8470 C.ar  1 <1>  -0.1500 
 27 C       -3.3520     5.1040    -2.9760 C.ar  1 <1>  -0.1500 
 28 C       -3.1120     6.1620    -2.1170 C.ar  1 <1>  -0.1500 
 29 H        0.0560    -2.7670     2.3060 H     1 <1>   0.0800 
 30 H       -1.2000    -1.8620     1.5060 H     1 <1>   0.0800 
 31 H       -0.8510    -1.5690     3.1890 H     1 <1>   0.0800 
 32 H        1.6210     1.9930     2.0730 H     1 <1>   0.0800 
 33 H        0.4600     2.1530     3.3450 H     1 <1>   0.0800 
 34 H       -2.3030     2.0850     2.7140 H     1 <1>   0.1500 
 35 H       -0.7880    -0.0010    -0.6830 H     1 <1>   0.1500 
 36 H       -4.4080     2.4550     1.5530 H     1 <1>   0.1500 
 37 H       -2.9080     0.3620    -1.8440 H     1 <1>   0.1500 
 38 H        0.1930     2.3960    -1.3070 H     1 <1>   0.0800 
 39 H        1.4410     1.9990    -0.1600 H     1 <1>   0.0800 
 40 H       -0.8930     5.4880     0.4550 H     1 <1>   0.0800 
 41 H       -1.2170     4.4890    -0.9330 H     1 <1>   0.0800 
 42 H        2.3900     2.9780    -2.2140 H     1 <1>   0.0800 
 43 H        2.7390     3.9500    -0.8170 H     1 <1>   0.0800 
 44 H        1.2730     6.1360    -0.4400 H     1 <1>   0.0800 
 45 H        0.0360     6.4850    -1.6100 H     1 <1>   0.0800 
 46 H       -5.9580     3.0060     0.1440 H     1 <1>   0.0800 
 47 H       -6.4610     2.8280    -1.5140 H     1 <1>   0.0800 
 48 H        0.5860     4.4800    -2.8850 H     1 <1>   0.0800 
 49 H        2.0400     5.4140    -2.6530 H     1 <1>   0.0800 
 50 H       -4.8740     5.1080     0.5510 H     1 <1>   0.1500 
 51 H       -4.3310     3.2270    -3.2390 H     1 <1>   0.1500 
 52 H       -3.4720     6.9760    -0.1750 H     1 <1>   0.1500 
 53 H       -2.9220     5.1020    -3.9620 H     1 <1>   0.1500 
 54 H       -2.4970     6.9860    -2.4350 H     1 <1>   0.1500 
@<TRIPOS>BOND
  1   1   2  2   
  2   1   3  2   
  3   1   4  am  
  4   1   5  1   
  5   4   6  1   
  6   4   7  1   
  7   5  29  1   
  8   5  30  1   
  9   5  31  1   
 10   6   8  ar  
 11   6   9  ar  
 12   7  10  1   
 13   7  32  1   
 14   7  33  1   
 15   8  11  ar  
 16   8  34  1   
 17   9  12  ar  
 18   9  35  1   
 19  10  13  2   
 20  10  14  am  
 21  11  15  ar  
 22  11  36  1   
 23  12  15  ar  
 24  12  37  1   
 25  14  16  1   
 26  14  17  1   
 27  15  18  1   
 28  16  19  1   
 29  16  38  1   
 30  16  39  1   
 31  17  20  1   
 32  17  40  1   
 33  17  41  1   
 34  18  21  1   
 35  19  22  1   
 36  19  42  1   
 37  19  43  1   
 38  20  22  1   
 39  20  44  1   
 40  20  45  1   
 41  21  23  1   
 42  21  46  1   
 43  21  47  1   
 44  22  48  1   
 45  22  49  1   
 46  23  24  ar  
 47  23  25  ar  
 48  24  26  ar  
 49  24  50  1   
 50  25  27  ar  
 51  25  51  1   
 52  26  28  ar  
 53  26  52  1   
 54  27  28  ar  
 55  27  53  1   
 56  28  54  1   
@<TRIPOS>SUBSTRUCTURE
  1 ****   6 GROUP 4 **** **** 0

# MOE 2024.06 (io_trps.svl 2023.06)
