@<TRIPOS>MOLECULE
1-Allyl-4-hydroxy-6,7-dimethoxy-2-oxo-1,2-dihydro-quinoline-3-carboxylic acid is
46 47 1 0 0 
SMALL
USER_CHARGES


@<TRIPOS>ATOM
  1 O       -0.1560     0.5410    -0.2380 O.2   1 <1>  -0.5700 
  2 C       -1.2650     1.0810    -0.2820 C.2   1 <1>   0.5350 
  3 N       -2.3860     0.2590    -0.2390 N.am  1 <1>  -0.4770 
  4 C       -1.4070     2.4780    -0.3650 C.3   1 <1>  -0.7150 
  5 C       -3.6820     0.7940    -0.1040 C.ar  1 <1>   0.1170 
  6 C       -2.1910    -1.2010    -0.4800 C.3   1 <1>   0.2780 
  7 C       -2.6810     3.0320    -0.1670 C.2   1 <1>   0.3890 
  8 C       -0.3060     3.3020    -0.6570 C.2   1 <1>   0.5350 
  9 C       -3.8440     2.1840    -0.0810 C.ar  1 <1>   0.0860 
 10 C       -4.8180    -0.0090     0.0210 C.ar  1 <1>  -0.1500 
 11 C       -2.2840    -2.0270     0.8020 C.2   1 <1>  -0.2880 
 12 O       -2.8430     4.2490    -0.0210 O.2   1 <1>  -0.5700 
 13 O       -0.3270     4.1660    -1.5280 O.2   1 <1>  -0.5700 
 14 N        0.8570     3.0790     0.0120 N.am  1 <1>  -0.7300 
 15 C       -5.1340     2.7130     0.0260 C.ar  1 <1>  -0.1500 
 16 C       -6.0890     0.5160     0.1390 C.ar  1 <1>   0.0830 
 17 C       -2.4220    -1.5680     2.0520 C.2   1 <1>  -0.3000 
 18 C        2.1590     3.5690    -0.4340 C.3   1 <1>   0.2200 
 19 C       -6.2600     1.9110     0.1220 C.ar  1 <1>   0.0830 
 20 O       -7.0880    -0.4000     0.2600 O.3   1 <1>  -0.3630 
 21 C        2.7900     2.5030    -1.3230 C.3   1 <1>  -0.2400 
 22 C        3.0100     3.8380     0.8020 C.3   1 <1>  -0.2400 
 23 O       -7.5190     2.4470     0.1840 O.3   1 <1>  -0.3620 
 24 C       -8.2350    -0.1370     1.0380 C.3   1 <1>   0.0400 
 25 C       -7.7380     3.8220    -0.0480 C.3   1 <1>   0.0400 
 26 H       -1.2390    -1.3810    -0.9460 H     1 <1>   0.0800 
 27 H       -2.9360    -1.5340    -1.1790 H     1 <1>   0.0800 
 28 H       -4.7300    -1.0770     0.0410 H     1 <1>   0.1500 
 29 H       -2.2160    -3.0790     0.5930 H     1 <1>   0.1500 
 30 H        0.8550     2.1140     0.3540 H     1 <1>   0.3700 
 31 H       -5.2110     3.7830     0.0280 H     1 <1>   0.1500 
 32 H       -2.4800    -2.1940     2.9250 H     1 <1>   0.1500 
 33 H       -2.4830    -0.5220     2.3040 H     1 <1>   0.1500 
 34 H        2.0290     4.4830    -0.9900 H     1 <1>   0.0800 
 35 H        2.9030     1.5800    -0.7850 H     1 <1>   0.0800 
 36 H        3.7530     2.8310    -1.6670 H     1 <1>   0.0800 
 37 H        2.1590     2.3350    -2.1780 H     1 <1>   0.0800 
 38 H        3.1380     2.9370     1.3730 H     1 <1>   0.0800 
 39 H        2.5280     4.5800     1.4120 H     1 <1>   0.0800 
 40 H        3.9750     4.2080     0.5090 H     1 <1>   0.0800 
 41 H       -8.6820    -1.0760     1.3040 H     1 <1>   0.0800 
 42 H       -8.9260     0.4410     0.4510 H     1 <1>   0.0800 
 43 H       -7.9440     0.4000     1.9240 H     1 <1>   0.0800 
 44 H       -7.2700     4.3890     0.7380 H     1 <1>   0.0800 
 45 H       -8.7980     3.9980    -0.0430 H     1 <1>   0.0800 
 46 H       -7.3270     4.0840    -1.0080 H     1 <1>   0.0800 
@<TRIPOS>BOND
  1   1   2  2   
  2   2   3  am  
  3   2   4  1   
  4   3   5  1   
  5   3   6  1   
  6   4   7  1   
  7   4   8  1   
  8   5   9  ar  
  9   5  10  ar  
 10   6  11  1   
 11   6  26  1   
 12   6  27  1   
 13   7   9  1   
 14   7  12  2   
 15   8  13  2   
 16   8  14  am  
 17   9  15  ar  
 18  10  16  ar  
 19  10  28  1   
 20  11  17  2   
 21  11  29  1   
 22  14  18  1   
 23  14  30  1   
 24  15  19  ar  
 25  15  31  1   
 26  16  19  ar  
 27  16  20  1   
 28  17  32  1   
 29  17  33  1   
 30  18  21  1   
 31  18  22  1   
 32  18  34  1   
 33  19  23  1   
 34  20  24  1   
 35  21  35  1   
 36  21  36  1   
 37  21  37  1   
 38  22  38  1   
 39  22  39  1   
 40  22  40  1   
 41  23  25  1   
 42  24  41  1   
 43  24  42  1   
 44  24  43  1   
 45  25  44  1   
 46  25  45  1   
 47  25  46  1   
@<TRIPOS>SUBSTRUCTURE
  1 ****   9 GROUP 4 **** **** 0

# MOE 2024.06 (io_trps.svl 2023.06)
