@<TRIPOS>MOLECULE
1-(3,5-Dimethyl-pyrazol-1-yl)-3-[(furan-2-ylmethyl)-amino]-propan-2-ol
38 39 1 0 0 
SMALL
USER_CHARGES


@<TRIPOS>ATOM
  1 O       -0.1540     0.0870    -0.2280 O.3   1 <1>  -0.2800 
  2 C       -1.2230     0.8210    -0.4620 C.2   1 <1>  -0.0400 
  3 C       -0.3460    -1.0940    -0.7800 C.2   1 <1>  -0.0100 
  4 C       -2.1300     0.1130    -1.1770 C.2   1 <1>  -0.1500 
  5 C       -1.2270     2.2340     0.0880 C.3   1 <1>   0.5230 
  6 C       -1.5510    -1.1440    -1.3850 C.2   1 <1>  -0.1500 
  7 N       -2.4870     2.9010    -0.2960 N.4   1 <1>  -0.9060 
  8 C       -2.6420     4.2850     0.2380 C.3   1 <1>   0.3430 
  9 C       -4.0290     4.8990    -0.0750 C.3   1 <1>   0.2000 
 10 O       -3.9400     6.2720     0.1010 O.3   1 <1>  -0.6800 
 11 C       -5.2020     4.3770     0.7730 C.3   1 <1>   0.0960 
 12 N       -5.3940     2.9320     0.5570 N.pl3 1 <1>   0.3140 
 13 N       -4.6590     2.0310     1.2400 N.2   1 <1>  -0.7070 
 14 C       -6.1970     2.3220    -0.3410 C.2   1 <1>  -0.3320 
 15 C       -5.0530     0.8740     0.8070 C.2   1 <1>   0.1080 
 16 C       -6.0060     0.9940    -0.1950 C.2   1 <1>  -0.1500 
 17 C       -7.1460     3.0260    -1.2990 C.3   1 <1>  -0.0600 
 18 C       -4.5260    -0.4340     1.3540 C.3   1 <1>  -0.0590 
 19 H        0.4260    -1.8410    -0.6970 H     1 <1>   0.1500 
 20 H       -3.1060     0.3900    -1.5380 H     1 <1>   0.1500 
 21 H       -0.3810     2.7710    -0.3090 H     1 <1>   0.0800 
 22 H       -1.1390     2.1930     1.1620 H     1 <1>   0.0800 
 23 H       -1.9980    -1.9640    -1.9210 H     1 <1>   0.1500 
 24 H       -3.2490     2.3190     0.1160 H     1 <1>   0.4500 
 25 H       -2.5950     2.8550    -1.3140 H     1 <1>   0.4500 
 26 H       -1.8870     4.9170    -0.2010 H     1 <1>   0.0800 
 27 H       -2.5020     4.2740     1.3070 H     1 <1>   0.0800 
 28 H       -4.2510     4.7540    -1.1190 H     1 <1>   0.0800 
 29 H       -3.9960     6.5500     1.0390 H     1 <1>   0.4000 
 30 H       -6.1090     4.8850     0.5010 H     1 <1>   0.0800 
 31 H       -5.0130     4.5320     1.8190 H     1 <1>   0.0800 
 32 H       -6.4830     0.1820    -0.7180 H     1 <1>   0.1500 
 33 H       -6.6090     3.6930    -1.9490 H     1 <1>   0.0800 
 34 H       -7.8820     3.5870    -0.7500 H     1 <1>   0.0800 
 35 H       -7.6620     2.3020    -1.9060 H     1 <1>   0.0800 
 36 H       -3.4590    -0.3890     1.4660 H     1 <1>   0.0800 
 37 H       -4.7750    -1.2450     0.6950 H     1 <1>   0.0800 
 38 H       -4.9660    -0.6210     2.3160 H     1 <1>   0.0800 
@<TRIPOS>BOND
  1   1   2  1   
  2   1   3  1   
  3   2   4  2   
  4   2   5  1   
  5   3   6  2   
  6   3  19  1   
  7   4   6  1   
  8   4  20  1   
  9   5   7  1   
 10   5  21  1   
 11   5  22  1   
 12   6  23  1   
 13   7   8  1   
 14   7  24  1   
 15   7  25  1   
 16   8   9  1   
 17   8  26  1   
 18   8  27  1   
 19   9  10  1   
 20   9  11  1   
 21   9  28  1   
 22  10  29  1   
 23  11  12  1   
 24  11  30  1   
 25  11  31  1   
 26  12  13  1   
 27  12  14  1   
 28  13  15  2   
 29  14  16  2   
 30  14  17  1   
 31  15  16  1   
 32  15  18  1   
 33  16  32  1   
 34  17  33  1   
 35  17  34  1   
 36  17  35  1   
 37  18  36  1   
 38  18  37  1   
 39  18  38  1   
@<TRIPOS>SUBSTRUCTURE
  1 ****   7 GROUP 4 **** **** 0

# MOE 2024.06 (io_trps.svl 2023.06)
