@<TRIPOS>MOLECULE
Pentanoic acid (3-phenyl-[1,2,4]oxadiazol-5-ylmethyl)-amide
36 37 1 0 0 
SMALL
USER_CHARGES


@<TRIPOS>ATOM
  1 O       -1.2050    -0.7870    -2.1740 O.2   1 <1>  -0.5700 
  2 C       -1.9050    -0.9750    -1.2140 C.2   1 <1>   0.5690 
  3 N       -1.5690    -1.9430    -0.3320 N.am  1 <1>  -0.7300 
  4 C       -3.1450    -0.1160    -1.0270 C.3   1 <1>  -0.0990 
  5 C       -2.3040    -2.3770     0.8840 C.3   1 <1>   0.3200 
  6 C       -2.8810     1.0940    -0.1160 C.3   1 <1>  -0.1600 
  7 C       -3.3950    -3.3860     0.5580 C.2   1 <1>   0.2980 
  8 C       -4.1520     1.9280     0.0840 C.3   1 <1>  -0.1600 
  9 O       -3.0450    -4.5620     0.1080 O.3   1 <1>  -0.0190 
 10 N       -4.6450    -3.2000     0.6840 N.2   1 <1>  -0.5650 
 11 C       -3.8830     3.1320     0.9890 C.3   1 <1>  -0.2400 
 12 N       -4.1690    -5.1790    -0.0700 N.2   1 <1>  -0.4100 
 13 C       -5.1200    -4.3790     0.2630 C.2   1 <1>   0.4620 
 14 C       -6.5420    -4.6780     0.2050 C.ar  1 <1>   0.0540 
 15 C       -7.0030    -5.9040    -0.2800 C.ar  1 <1>  -0.1500 
 16 C       -7.5060    -3.7590     0.6270 C.ar  1 <1>  -0.1500 
 17 C       -8.3530    -6.1990    -0.3400 C.ar  1 <1>  -0.1500 
 18 C       -8.8570    -4.0470     0.5690 C.ar  1 <1>  -0.1500 
 19 C       -9.2840    -5.2700     0.0850 C.ar  1 <1>  -0.1500 
 20 H       -0.7630    -2.5110    -0.6020 H     1 <1>   0.3700 
 21 H       -3.9440    -0.7150    -0.6320 H     1 <1>   0.0800 
 22 H       -3.4560     0.2320    -1.9950 H     1 <1>   0.0800 
 23 H       -2.7530    -1.5240     1.3610 H     1 <1>   0.0800 
 24 H       -1.6120    -2.8180     1.5790 H     1 <1>   0.0800 
 25 H       -2.1150     1.7060    -0.5640 H     1 <1>   0.0800 
 26 H       -2.5180     0.7590     0.8390 H     1 <1>   0.0800 
 27 H       -4.9220     1.3180     0.5260 H     1 <1>   0.0800 
 28 H       -4.5100     2.2760    -0.8710 H     1 <1>   0.0800 
 29 H       -3.5460     2.8090     1.9580 H     1 <1>   0.0800 
 30 H       -4.7840     3.7060     1.1150 H     1 <1>   0.0800 
 31 H       -3.1320     3.7690     0.5540 H     1 <1>   0.0800 
 32 H       -6.2930    -6.6400    -0.6150 H     1 <1>   0.1500 
 33 H       -7.1930    -2.8020     1.0070 H     1 <1>   0.1500 
 34 H       -8.6790    -7.1520    -0.7180 H     1 <1>   0.1500 
 35 H       -9.5780    -3.3200     0.9020 H     1 <1>   0.1500 
 36 H      -10.3360    -5.4970     0.0390 H     1 <1>   0.1500 
@<TRIPOS>BOND
  1   1   2  2   
  2   2   3  am  
  3   2   4  1   
  4   3   5  1   
  5   3  20  1   
  6   4   6  1   
  7   4  21  1   
  8   4  22  1   
  9   5   7  1   
 10   5  23  1   
 11   5  24  1   
 12   6   8  1   
 13   6  25  1   
 14   6  26  1   
 15   7   9  1   
 16   7  10  2   
 17   8  11  1   
 18   8  27  1   
 19   8  28  1   
 20   9  12  1   
 21  10  13  1   
 22  11  29  1   
 23  11  30  1   
 24  11  31  1   
 25  12  13  2   
 26  13  14  1   
 27  14  15  ar  
 28  14  16  ar  
 29  15  17  ar  
 30  15  32  1   
 31  16  18  ar  
 32  16  33  1   
 33  17  19  ar  
 34  17  34  1   
 35  18  19  ar  
 36  18  35  1   
 37  19  36  1   
@<TRIPOS>SUBSTRUCTURE
  1 ****  10 GROUP 4 **** **** 0

# MOE 2024.06 (io_trps.svl 2023.06)
