@<TRIPOS>MOLECULE
3-(3,4-Dichloro-phenyl)-4,5-dihydro-isoxazole-5-carboxylic acid (2-hydroxy-1,1-d
37 38 1 0 0 
SMALL
USER_CHARGES


@<TRIPOS>ATOM
  1 CL       1.1650    -0.8390     3.0580 Cl    1 <1>  -0.1770 
  2 C        1.9180    -2.1360     2.1610 C.ar  1 <1>   0.1770 
  3 C        1.5460    -3.4520     2.3770 C.ar  1 <1>   0.1770 
  4 C        2.8910    -1.8210     1.2330 C.ar  1 <1>  -0.1500 
  5 CL       0.3170    -3.8600     3.5490 Cl    1 <1>  -0.1770 
  6 C        2.1510    -4.4630     1.6570 C.ar  1 <1>  -0.1500 
  7 C        3.5240    -2.8230     0.4890 C.ar  1 <1>   0.0860 
  8 C        3.1260    -4.1440     0.7270 C.ar  1 <1>  -0.1500 
  9 C        4.5520    -2.5350    -0.4910 C.2   1 <1>   0.3030 
 10 N        5.1470    -3.3720    -1.2330 N.2   1 <1>  -0.5130 
 11 C        5.0440    -1.1330    -0.7380 C.3   1 <1>  -0.0990 
 12 O        6.0250    -2.7800    -2.0100 O.3   1 <1>  -0.2170 
 13 C        6.1840    -1.4030    -1.7150 C.3   1 <1>   0.2610 
 14 C        7.5620    -1.1490    -1.0990 C.2   1 <1>   0.5690 
 15 O        7.9280    -0.0050    -0.9670 O.2   1 <1>  -0.5700 
 16 N        8.3150    -2.2070    -0.6890 N.am  1 <1>  -0.7300 
 17 C        9.6820    -2.2120    -0.1330 C.3   1 <1>   0.3000 
 18 C        9.7860    -1.3120     1.1260 C.3   1 <1>   0.1200 
 19 C       10.6510    -1.7410    -1.2200 C.3   1 <1>  -0.2400 
 20 C        9.9950    -3.6690     0.2210 C.3   1 <1>  -0.2400 
 21 O        8.7950    -1.6270     2.0510 O.3   1 <1>  -0.6800 
 22 H        3.1450    -0.7860     1.1000 H     1 <1>   0.1500 
 23 H        1.8610    -5.4860     1.8240 H     1 <1>   0.1500 
 24 H        3.5930    -4.9390     0.1670 H     1 <1>   0.1500 
 25 H        5.3980    -0.6610     0.1610 H     1 <1>   0.0800 
 26 H        4.2850    -0.5320    -1.2020 H     1 <1>   0.0800 
 27 H        6.0730    -0.8470    -2.6270 H     1 <1>   0.0800 
 28 H        7.9250    -3.1400    -0.8570 H     1 <1>   0.3700 
 29 H        9.6740    -0.2760     0.8570 H     1 <1>   0.0800 
 30 H       10.7410    -1.4380     1.6050 H     1 <1>   0.0800 
 31 H       11.6640    -1.8020    -0.8660 H     1 <1>   0.0800 
 32 H       10.4510    -0.7180    -1.4840 H     1 <1>   0.0800 
 33 H       10.5590    -2.3530    -2.0990 H     1 <1>   0.0800 
 34 H       10.9870    -3.7430     0.6290 H     1 <1>   0.0800 
 35 H        9.9430    -4.2940    -0.6530 H     1 <1>   0.0800 
 36 H        9.3050    -4.0360     0.9590 H     1 <1>   0.0800 
 37 H        7.9390    -1.6360     1.5820 H     1 <1>   0.4000 
@<TRIPOS>BOND
  1   1   2  1   
  2   2   3  ar  
  3   2   4  ar  
  4   3   5  1   
  5   3   6  ar  
  6   4   7  ar  
  7   4  22  1   
  8   6   8  ar  
  9   6  23  1   
 10   7   8  ar  
 11   7   9  1   
 12   8  24  1   
 13   9  10  2   
 14   9  11  1   
 15  10  12  1   
 16  11  13  1   
 17  11  25  1   
 18  11  26  1   
 19  12  13  1   
 20  13  14  1   
 21  13  27  1   
 22  14  15  2   
 23  14  16  am  
 24  16  17  1   
 25  16  28  1   
 26  17  18  1   
 27  17  19  1   
 28  17  20  1   
 29  18  21  1   
 30  18  29  1   
 31  18  30  1   
 32  19  31  1   
 33  19  32  1   
 34  19  33  1   
 35  20  34  1   
 36  20  35  1   
 37  20  36  1   
 38  21  37  1   
@<TRIPOS>SUBSTRUCTURE
  1 ****   9 GROUP 4 **** **** 0

# MOE 2024.06 (io_trps.svl 2023.06)
