@<TRIPOS>MOLECULE
2-Chloro-1-(3,5-dimethyl-piperidin-1-yl)-ethanone
28 28 1 0 0 
SMALL
USER_CHARGES


@<TRIPOS>ATOM
  1 CL       0.7220    -0.4570     1.7510 Cl    1 <1>  -0.2900 
  2 C        1.3370    -0.6990     0.1150 C.3   1 <1>   0.1910 
  3 C        2.5560     0.1750    -0.1610 C.2   1 <1>   0.5690 
  4 O        3.5830    -0.4000    -0.4450 O.2   1 <1>  -0.5700 
  5 N        2.4890     1.5480    -0.1260 N.am  1 <1>  -0.6600 
  6 C        1.2370     2.3090     0.1800 C.3   1 <1>   0.1400 
  7 C        3.7280     2.3590    -0.3510 C.3   1 <1>   0.1400 
  8 C        1.2640     3.6960    -0.4800 C.3   1 <1>  -0.0800 
  9 C        3.6700     3.6810     0.4310 C.3   1 <1>  -0.0800 
 10 C        2.4580     4.5390     0.0150 C.3   1 <1>  -0.1600 
 11 C       -0.0570     4.4440    -0.2540 C.3   1 <1>  -0.2400 
 12 C        4.9740     4.4750     0.2760 C.3   1 <1>  -0.2400 
 13 H        0.5460    -0.4720    -0.5740 H     1 <1>   0.0800 
 14 H        1.6030    -1.7360     0.0260 H     1 <1>   0.0800 
 15 H        1.1460     2.4190     1.2480 H     1 <1>   0.0800 
 16 H        0.3790     1.7680    -0.1780 H     1 <1>   0.0800 
 17 H        3.8280     2.5600    -1.4030 H     1 <1>   0.0800 
 18 H        4.5910     1.7970    -0.0340 H     1 <1>   0.0800 
 19 H        1.3740     3.5410    -1.5400 H     1 <1>   0.0800 
 20 H        3.5670     3.4250     1.4720 H     1 <1>   0.0800 
 21 H        2.1680     5.1350     0.8630 H     1 <1>   0.0800 
 22 H        2.7350     5.2170    -0.7740 H     1 <1>   0.0800 
 23 H       -0.2310     4.5990     0.7970 H     1 <1>   0.0800 
 24 H       -0.8800     3.8820    -0.6590 H     1 <1>   0.0800 
 25 H       -0.0290     5.4020    -0.7430 H     1 <1>   0.0800 
 26 H        5.1440     4.7290    -0.7560 H     1 <1>   0.0800 
 27 H        5.8080     3.8920     0.6270 H     1 <1>   0.0800 
 28 H        4.9290     5.3820     0.8520 H     1 <1>   0.0800 
@<TRIPOS>BOND
  1   1   2  1   
  2   2   3  1   
  3   2  13  1   
  4   2  14  1   
  5   3   4  2   
  6   3   5  am  
  7   5   6  1   
  8   5   7  1   
  9   6   8  1   
 10   6  15  1   
 11   6  16  1   
 12   7   9  1   
 13   7  17  1   
 14   7  18  1   
 15   8  10  1   
 16   8  11  1   
 17   8  19  1   
 18   9  10  1   
 19   9  12  1   
 20   9  20  1   
 21  10  21  1   
 22  10  22  1   
 23  11  23  1   
 24  11  24  1   
 25  11  25  1   
 26  12  26  1   
 27  12  27  1   
 28  12  28  1   
@<TRIPOS>SUBSTRUCTURE
  1 ****   5 GROUP 4 **** **** 0

# MOE 2024.06 (io_trps.svl 2023.06)
