@<TRIPOS>MOLECULE
3-Benzenesulfonylmethyl-6-ethyl-7-methyl-2,3-dihydro-thiazolo[3,2-a]pyrimidin-5-
41 43 1 0 0 
SMALL
USER_CHARGES


@<TRIPOS>ATOM
  1 S        0.4190    -1.3320     0.6710 S.o2  1 <1>   1.2040 
  2 O        0.1460    -0.6250     1.9010 O.2   1 <1>  -0.6500 
  3 O        0.6840    -2.7520     0.7210 O.2   1 <1>  -0.6500 
  4 C       -0.8770    -0.9860    -0.5420 C.ar  1 <1>  -0.0090 
  5 C        1.8440    -0.5580    -0.0750 C.3   1 <1>  -0.0550 
  6 C       -1.5270     0.2430    -0.5590 C.ar  1 <1>  -0.1500 
  7 C       -1.2320    -1.9250    -1.5030 C.ar  1 <1>  -0.1500 
  8 C        2.9870    -0.3880     0.9340 C.3   1 <1>   0.2200 
  9 C       -2.4980     0.5280    -1.5030 C.ar  1 <1>  -0.1500 
 10 C       -2.2030    -1.6480    -2.4510 C.ar  1 <1>  -0.1500 
 11 N        4.0320     0.5010     0.3440 N.am  1 <1>  -0.4200 
 12 C        3.6510    -1.7320     1.3160 C.3   1 <1>   0.0700 
 13 C       -2.8360    -0.4190    -2.4520 C.ar  1 <1>  -0.1500 
 14 C        3.8730     1.8430     0.1430 C.2   1 <1>   0.6160 
 15 C        5.2090    -0.0600    -0.0210 C.2   1 <1>   0.6510 
 16 S        5.2370    -1.7660     0.3950 S.3   1 <1>  -0.3710 
 17 O        2.8160     2.3680     0.4710 O.2   1 <1>  -0.5700 
 18 C        4.9560     2.5520    -0.4660 C.2   1 <1>  -0.1240 
 19 N        6.2050     0.5190    -0.5860 N.2   1 <1>  -0.6210 
 20 C        6.0770     1.8560    -0.8220 C.2   1 <1>   0.0330 
 21 C        4.7820     4.0570    -0.6790 C.3   1 <1>  -0.0220 
 22 C        7.3010     2.4420    -1.5060 C.3   1 <1>  -0.1020 
 23 C        4.1140     4.3440    -2.0270 C.3   1 <1>  -0.2400 
 24 H        1.5500     0.4120    -0.4270 H     1 <1>   0.0800 
 25 H        2.1800    -1.1340    -0.9160 H     1 <1>   0.0800 
 26 H       -1.2760     0.9880     0.1790 H     1 <1>   0.1500 
 27 H       -0.7490    -2.8880    -1.5110 H     1 <1>   0.1500 
 28 H        2.6050     0.0830     1.8250 H     1 <1>   0.0800 
 29 H       -2.9920     1.4850    -1.4990 H     1 <1>   0.1500 
 30 H       -2.4670    -2.3900    -3.1860 H     1 <1>   0.1500 
 31 H        3.0880    -2.6050     1.0400 H     1 <1>   0.0800 
 32 H        3.8910    -1.7640     2.3640 H     1 <1>   0.0800 
 33 H       -3.5920    -0.2010    -3.1880 H     1 <1>   0.1500 
 34 H        5.7310     4.5590    -0.6320 H     1 <1>   0.0800 
 35 H        4.1810     4.4740     0.1110 H     1 <1>   0.0800 
 36 H        8.1210     2.4710    -0.8120 H     1 <1>   0.0800 
 37 H        7.1310     3.4300    -1.8880 H     1 <1>   0.0800 
 38 H        7.5810     1.8150    -2.3340 H     1 <1>   0.0800 
 39 H        4.7040     3.9420    -2.8320 H     1 <1>   0.0800 
 40 H        4.0110     5.4050    -2.1700 H     1 <1>   0.0800 
 41 H        3.1360     3.8970    -2.0570 H     1 <1>   0.0800 
@<TRIPOS>BOND
  1   1   2  2   
  2   1   3  2   
  3   1   4  1   
  4   1   5  1   
  5   4   6  ar  
  6   4   7  ar  
  7   5   8  1   
  8   5  24  1   
  9   5  25  1   
 10   6   9  ar  
 11   6  26  1   
 12   7  10  ar  
 13   7  27  1   
 14   8  11  1   
 15   8  12  1   
 16   8  28  1   
 17   9  13  ar  
 18   9  29  1   
 19  10  13  ar  
 20  10  30  1   
 21  11  14  am  
 22  11  15  1   
 23  12  16  1   
 24  12  31  1   
 25  12  32  1   
 26  13  33  1   
 27  14  17  2   
 28  14  18  1   
 29  15  16  1   
 30  15  19  2   
 31  18  20  2   
 32  18  21  1   
 33  19  20  1   
 34  20  22  1   
 35  21  23  1   
 36  21  34  1   
 37  21  35  1   
 38  22  36  1   
 39  22  37  1   
 40  22  38  1   
 41  23  39  1   
 42  23  40  1   
 43  23  41  1   
@<TRIPOS>SUBSTRUCTURE
  1 ****   5 GROUP 4 **** **** 0

# MOE 2024.06 (io_trps.svl 2023.06)
