@<TRIPOS>MOLECULE
1-[3-(3,4-Dimethoxy-phenyl)-[1,2,4]oxadiazol-5-ylmethyl]-4-methyl-piperidine
47 49 1 0 0 
SMALL
USER_CHARGES


@<TRIPOS>ATOM
  1 O       -0.9230    -0.2570    -3.2330 O.3   1 <1>  -0.0190 
  2 N       -2.1590    -0.2800    -2.8490 N.2   1 <1>  -0.4100 
  3 C       -0.2600    -0.6350    -2.1760 C.2   1 <1>   0.2980 
  4 C       -2.1960    -0.6610    -1.6210 C.2   1 <1>   0.4620 
  5 N       -0.9630    -0.9000    -1.1490 N.2   1 <1>  -0.5650 
  6 C        1.2610    -0.7180    -2.2750 C.3   1 <1>   0.5230 
  7 C       -3.3940    -0.8170    -0.8130 C.ar  1 <1>   0.0540 
  8 N        1.8990    -0.8850    -0.9220 N.4   1 <1>  -0.9590 
  9 C       -4.6480    -0.4620    -1.3070 C.ar  1 <1>  -0.1500 
 10 C       -3.3480    -1.3230     0.4860 C.ar  1 <1>  -0.1500 
 11 C        1.8120     0.3700    -0.1170 C.3   1 <1>   0.3430 
 12 C        3.2900    -1.4120    -1.0070 C.3   1 <1>   0.3430 
 13 C       -5.8040    -0.5910    -0.5590 C.ar  1 <1>   0.0830 
 14 C       -4.4920    -1.4720     1.2490 C.ar  1 <1>  -0.1500 
 15 C        2.3100     0.1010     1.3020 C.3   1 <1>  -0.1600 
 16 C        3.8110    -1.7070     0.4000 C.3   1 <1>  -0.1600 
 17 O       -6.9430    -0.1850    -1.1860 O.3   1 <1>  -0.3630 
 18 C       -5.7390    -1.1180     0.7410 C.ar  1 <1>   0.0830 
 19 C        3.7360    -0.4690     1.3060 C.3   1 <1>  -0.0800 
 20 C       -7.9780     0.4480    -0.4660 C.3   1 <1>   0.0400 
 21 O       -6.8790    -1.2900     1.4680 O.3   1 <1>  -0.3630 
 22 C        4.1730    -0.8180     2.7330 C.3   1 <1>  -0.2400 
 23 C       -6.8940    -1.9890     2.6930 C.3   1 <1>   0.0400 
 24 H        1.6340     0.1740    -2.7490 H     1 <1>   0.0800 
 25 H        1.5060    -1.5590    -2.9000 H     1 <1>   0.0800 
 26 H        1.3160    -1.5760    -0.4250 H     1 <1>   0.4500 
 27 H       -4.7360    -0.0680    -2.3030 H     1 <1>   0.1500 
 28 H       -2.4030    -1.6100     0.9110 H     1 <1>   0.1500 
 29 H        0.7900     0.7160    -0.0740 H     1 <1>   0.0800 
 30 H        2.4150     1.1410    -0.5690 H     1 <1>   0.0800 
 31 H        3.9300    -0.6840    -1.4800 H     1 <1>   0.0800 
 32 H        3.3110    -2.3180    -1.5920 H     1 <1>   0.0800 
 33 H       -4.3890    -1.8700     2.2410 H     1 <1>   0.1500 
 34 H        1.6340    -0.5780     1.7920 H     1 <1>   0.0800 
 35 H        2.2940     1.0240     1.8560 H     1 <1>   0.0800 
 36 H        4.8340    -2.0350     0.3290 H     1 <1>   0.0800 
 37 H        3.2440    -2.5160     0.8270 H     1 <1>   0.0800 
 38 H        4.4100     0.2810     0.9240 H     1 <1>   0.0800 
 39 H       -8.5680     1.0190    -1.1600 H     1 <1>   0.0800 
 40 H       -7.5470     1.0970     0.2750 H     1 <1>   0.0800 
 41 H       -8.5900    -0.3060    -0.0040 H     1 <1>   0.0800 
 42 H        3.5300    -1.5660     3.1630 H     1 <1>   0.0800 
 43 H        4.1440     0.0570     3.3590 H     1 <1>   0.0800 
 44 H        5.1820    -1.1940     2.7350 H     1 <1>   0.0800 
 45 H       -7.9140    -2.0580     3.0250 H     1 <1>   0.0800 
 46 H       -6.3130    -1.4430     3.4150 H     1 <1>   0.0800 
 47 H       -6.4940    -2.9750     2.5380 H     1 <1>   0.0800 
@<TRIPOS>BOND
  1   1   2  1   
  2   1   3  1   
  3   2   4  2   
  4   3   5  2   
  5   3   6  1   
  6   4   5  1   
  7   4   7  1   
  8   6   8  1   
  9   6  24  1   
 10   6  25  1   
 11   7   9  ar  
 12   7  10  ar  
 13   8  11  1   
 14   8  12  1   
 15   8  26  1   
 16   9  13  ar  
 17   9  27  1   
 18  10  14  ar  
 19  10  28  1   
 20  11  15  1   
 21  11  29  1   
 22  11  30  1   
 23  12  16  1   
 24  12  31  1   
 25  12  32  1   
 26  13  17  1   
 27  13  18  ar  
 28  14  18  ar  
 29  14  33  1   
 30  15  19  1   
 31  15  34  1   
 32  15  35  1   
 33  16  19  1   
 34  16  36  1   
 35  16  37  1   
 36  17  20  1   
 37  18  21  1   
 38  19  22  1   
 39  19  38  1   
 40  20  39  1   
 41  20  40  1   
 42  20  41  1   
 43  21  23  1   
 44  22  42  1   
 45  22  43  1   
 46  22  44  1   
 47  23  45  1   
 48  23  46  1   
 49  23  47  1   
@<TRIPOS>SUBSTRUCTURE
  1 ****   5 GROUP 4 **** **** 0

# MOE 2024.06 (io_trps.svl 2023.06)
