@<TRIPOS>MOLECULE
6-(2,3-Dihydro-benzo[1,4]dioxin-2-yl)-3-isopropyl-[1,2,4]triazolo[3,4-b][1,3,4]t
35 38 1 0 0 
SMALL
USER_CHARGES


@<TRIPOS>ATOM
  1 S       -1.1420     1.1140    -2.4280 S.3   1 <1>  -0.1970 
  2 C        0.2360     2.1140    -2.0230 C.2   1 <1>   0.2420 
  3 C       -1.7090     1.2980    -0.7520 C.2   1 <1>   0.5300 
  4 N        1.2690     2.5620    -2.6410 N.2   1 <1>  -0.3380 
  5 N        0.1470     2.4670    -0.7530 N.pl3 1 <1>   0.5050 
  6 N       -0.9470     2.0040    -0.0110 N.2   1 <1>  -0.6520 
  7 C       -3.0100     0.5860    -0.4040 C.3   1 <1>   0.2610 
  8 N        1.9300     3.2790    -1.7100 N.2   1 <1>  -0.3380 
  9 C        1.2530     3.2120    -0.6000 C.2   1 <1>   0.0060 
 10 O       -4.0690     1.1350    -1.1760 O.3   1 <1>  -0.3630 
 11 C       -3.3460     0.7010     1.0920 C.3   1 <1>   0.1200 
 12 C        1.6080     3.8740     0.7280 C.3   1 <1>   0.1000 
 13 C       -5.3340     0.8390    -0.7840 C.ar  1 <1>   0.0820 
 14 O       -4.5870     0.0770     1.3640 O.3   1 <1>  -0.3630 
 15 C        0.8470     5.1950     0.8750 C.3   1 <1>  -0.2400 
 16 C        3.1170     4.1180     0.8570 C.3   1 <1>  -0.2400 
 17 C       -5.5910     0.2980     0.4780 C.ar  1 <1>   0.0820 
 18 C       -6.3780     1.0770    -1.6600 C.ar  1 <1>  -0.1500 
 19 C       -6.8880    -0.0170     0.8430 C.ar  1 <1>  -0.1500 
 20 C       -7.6760     0.7660    -1.2880 C.ar  1 <1>  -0.1500 
 21 C       -7.9300     0.2180    -0.0400 C.ar  1 <1>  -0.1500 
 22 H       -2.9200    -0.4520    -0.6680 H     1 <1>   0.0800 
 23 H       -3.4200     1.7340     1.3830 H     1 <1>   0.0800 
 24 H       -2.5950     0.2200     1.6920 H     1 <1>   0.0800 
 25 H        1.3090     3.2150     1.5260 H     1 <1>   0.0800 
 26 H        1.1150     5.8690     0.0790 H     1 <1>   0.0800 
 27 H        1.0800     5.6610     1.8160 H     1 <1>   0.0800 
 28 H       -0.2140     5.0220     0.8330 H     1 <1>   0.0800 
 29 H        3.4560     4.7950     0.0930 H     1 <1>   0.0800 
 30 H        3.6510     3.1900     0.7490 H     1 <1>   0.0800 
 31 H        3.3500     4.5370     1.8190 H     1 <1>   0.0800 
 32 H       -6.1730     1.5000    -2.6270 H     1 <1>   0.1500 
 33 H       -7.0770    -0.4380     1.8140 H     1 <1>   0.1500 
 34 H       -8.4890     0.9490    -1.9690 H     1 <1>   0.1500 
 35 H       -8.9390    -0.0250     0.2450 H     1 <1>   0.1500 
@<TRIPOS>BOND
  1   1   2  1   
  2   1   3  1   
  3   2   4  2   
  4   2   5  1   
  5   3   6  2   
  6   3   7  1   
  7   4   8  1   
  8   5   6  1   
  9   5   9  1   
 10   7  10  1   
 11   7  11  1   
 12   7  22  1   
 13   8   9  2   
 14   9  12  1   
 15  10  13  1   
 16  11  14  1   
 17  11  23  1   
 18  11  24  1   
 19  12  15  1   
 20  12  16  1   
 21  12  25  1   
 22  13  17  ar  
 23  13  18  ar  
 24  14  17  1   
 25  15  26  1   
 26  15  27  1   
 27  15  28  1   
 28  16  29  1   
 29  16  30  1   
 30  16  31  1   
 31  17  19  ar  
 32  18  20  ar  
 33  18  32  1   
 34  19  21  ar  
 35  19  33  1   
 36  20  21  ar  
 37  20  34  1   
 38  21  35  1   
@<TRIPOS>SUBSTRUCTURE
  1 ****   3 GROUP 4 **** **** 0

# MOE 2024.06 (io_trps.svl 2023.06)
