@<TRIPOS>MOLECULE
(4-Ethyl-4-methyl-2,5-dioxo-imidazolidin-1-yl)-acetic acid
25 25 1 0 0 
SMALL
USER_CHARGES


@<TRIPOS>ATOM
  1 O       -1.5690    -0.2020    -2.2490 O.2   1 <1>  -0.5700 
  2 C       -2.3660     0.0930    -1.3830 C.2   1 <1>   0.6900 
  3 N       -2.8040    -0.7450    -0.3940 N.am  1 <1>  -0.4200 
  4 N       -2.9240     1.3190    -1.3020 N.am  1 <1>  -0.7300 
  5 C       -3.6510    -0.0540     0.4200 C.2   1 <1>   0.5690 
  6 C       -1.9370    -1.8400     0.1430 C.3   1 <1>   0.0340 
  7 C       -3.7400     1.3980    -0.0810 C.3   1 <1>   0.3610 
  8 O       -4.2790    -0.5050     1.3530 O.2   1 <1>  -0.5700 
  9 C       -0.8190    -1.3450     1.0580 C.2   1 <1>   0.9060 
 10 C       -3.0990     2.3910     0.9120 C.3   1 <1>  -0.1600 
 11 C       -5.1680     1.7840    -0.4850 C.3   1 <1>  -0.2400 
 12 O       -0.7190    -0.1370     1.3240 O.co2 1 <1>  -0.9000 
 13 O       -0.0380    -2.1830     1.5210 O.co2 1 <1>  -0.9000 
 14 C       -2.9900     3.8490     0.4270 C.3   1 <1>  -0.2400 
 15 H       -2.3300     2.1070    -1.5430 H     1 <1>   0.3700 
 16 H       -1.4830    -2.3690    -0.6730 H     1 <1>   0.0800 
 17 H       -2.5400    -2.5270     0.7050 H     1 <1>   0.0800 
 18 H       -2.1140     2.0330     1.1620 H     1 <1>   0.0800 
 19 H       -3.6700     2.3690     1.8240 H     1 <1>   0.0800 
 20 H       -5.5810     1.0330    -1.1330 H     1 <1>   0.0800 
 21 H       -5.1840     2.7300    -0.9920 H     1 <1>   0.0800 
 22 H       -5.7860     1.8470     0.3930 H     1 <1>   0.0800 
 23 H       -2.4170     3.9100    -0.4800 H     1 <1>   0.0800 
 24 H       -2.4920     4.4380     1.1770 H     1 <1>   0.0800 
 25 H       -3.9630     4.2750     0.2600 H     1 <1>   0.0800 
@<TRIPOS>BOND
  1   1   2  2   
  2   2   3  am  
  3   2   4  am  
  4   3   5  am  
  5   3   6  1   
  6   4   7  1   
  7   4  15  1   
  8   5   7  1   
  9   5   8  2   
 10   6   9  1   
 11   6  16  1   
 12   6  17  1   
 13   7  10  1   
 14   7  11  1   
 15   9  12  ar  
 16   9  13  ar  
 17  10  14  1   
 18  10  18  1   
 19  10  19  1   
 20  11  20  1   
 21  11  21  1   
 22  11  22  1   
 23  14  23  1   
 24  14  24  1   
 25  14  25  1   
@<TRIPOS>SUBSTRUCTURE
  1 ****   3 GROUP 4 **** **** 0

# MOE 2024.06 (io_trps.svl 2023.06)
