@<TRIPOS>MOLECULE
C-(3-Ethyl-isoxazol-5-yl)-methylamine
19 19 1 0 0 
SMALL
USER_CHARGES


@<TRIPOS>ATOM
  1 O       -0.1730     0.5680     0.8600 O.3   1 <1>  -0.0190 
  2 N        0.8740     1.3320     0.7380 N.2   1 <1>  -0.4100 
  3 C       -1.2110     1.0590     0.2370 C.2   1 <1>  -0.0400 
  4 C        0.5040     2.3330     0.0200 C.2   1 <1>   0.1080 
  5 C       -0.8360     2.2130    -0.3370 C.2   1 <1>  -0.1500 
  6 C       -2.5240     0.3030     0.2720 C.3   1 <1>   0.2900 
  7 C        1.4120     3.4800    -0.3810 C.3   1 <1>   0.0210 
  8 N       -3.5980     1.1160    -0.2910 N.3   1 <1>  -0.9900 
  9 C        1.1210     4.7350     0.4480 C.3   1 <1>  -0.2400 
 10 H       -1.4120     2.8940    -0.9340 H     1 <1>   0.1500 
 11 H       -2.7590     0.0530     1.2930 H     1 <1>   0.0800 
 12 H       -2.4250    -0.6100    -0.2920 H     1 <1>   0.0800 
 13 H        1.2720     3.6910    -1.4260 H     1 <1>   0.0800 
 14 H        2.4360     3.1830    -0.2360 H     1 <1>   0.0800 
 15 H       -3.6610     1.9820     0.2540 H     1 <1>   0.3600 
 16 H       -4.4890     0.6200    -0.1810 H     1 <1>   0.3600 
 17 H        0.1060     5.0570     0.2970 H     1 <1>   0.0800 
 18 H        1.7840     5.5310     0.1610 H     1 <1>   0.0800 
 19 H        1.2640     4.5250     1.4940 H     1 <1>   0.0800 
@<TRIPOS>BOND
  1   1   2  1   
  2   1   3  1   
  3   2   4  2   
  4   3   5  2   
  5   3   6  1   
  6   4   5  1   
  7   4   7  1   
  8   5  10  1   
  9   6   8  1   
 10   6  11  1   
 11   6  12  1   
 12   7   9  1   
 13   7  13  1   
 14   7  14  1   
 15   8  15  1   
 16   8  16  1   
 17   9  17  1   
 18   9  18  1   
 19   9  19  1   
@<TRIPOS>SUBSTRUCTURE
  1 ****   5 GROUP 4 **** **** 0

# MOE 2024.06 (io_trps.svl 2023.06)
