@<TRIPOS>MOLECULE
2-(4-Benzyl-piperazin-1-yl)-N-(5-methyl-isoxazol-3-yl)-acetamide
46 48 1 0 0 
SMALL
USER_CHARGES


@<TRIPOS>ATOM
  1 O       -0.7950    -1.6970    -1.7920 O.2   1 <1>  -0.5700 
  2 C       -0.7290    -2.0450    -0.6380 C.2   1 <1>   0.5690 
  3 N       -1.4700    -1.4730     0.3530 N.am  1 <1>  -0.4930 
  4 C        0.2430    -3.1710    -0.2600 C.3   1 <1>   0.1710 
  5 C       -2.3550    -0.4000     0.2970 C.2   1 <1>   0.3520 
  6 N        1.6620    -2.7360    -0.0910 N.3   1 <1>  -0.8100 
  7 N       -2.8970     0.0620     1.3680 N.2   1 <1>  -0.4100 
  8 C       -2.7830     0.3160    -0.8220 C.2   1 <1>  -0.1500 
  9 C        1.8660    -1.7150     0.9700 C.3   1 <1>   0.1100 
 10 C        2.5970    -3.8720     0.0660 C.3   1 <1>   0.1100 
 11 O       -3.6620     1.0540     0.9870 O.3   1 <1>  -0.0190 
 12 C       -3.6170     1.2300    -0.3080 C.2   1 <1>  -0.0400 
 13 C        3.3510    -1.2940     1.1050 C.3   1 <1>   0.3430 
 14 C        4.0760    -3.4100     0.0430 C.3   1 <1>   0.3430 
 15 C       -4.4350     2.3300    -0.9510 C.3   1 <1>  -0.0600 
 16 N        4.1790    -1.9140     0.0170 N.4   1 <1>  -0.9590 
 17 C        5.5700    -1.3980    -0.0640 C.3   1 <1>   0.4860 
 18 C        5.5270     0.1120    -0.1960 C.ar  1 <1>  -0.1440 
 19 C        5.0570     0.7040    -1.3610 C.ar  1 <1>  -0.1500 
 20 C        5.9500     0.9150     0.8540 C.ar  1 <1>  -0.1500 
 21 C        4.9990     2.0820    -1.4670 C.ar  1 <1>  -0.1500 
 22 C        5.8920     2.2930     0.7450 C.ar  1 <1>  -0.1500 
 23 C        5.4150     2.8770    -0.4140 C.ar  1 <1>  -0.1500 
 24 H       -1.3880    -1.8450     1.2940 H     1 <1>   0.3700 
 25 H        0.1980    -3.8990    -1.0510 H     1 <1>   0.0800 
 26 H       -0.1000    -3.6480     0.6410 H     1 <1>   0.0800 
 27 H       -2.4900     0.1440    -1.8410 H     1 <1>   0.1500 
 28 H        1.5170    -2.0890     1.9180 H     1 <1>   0.0800 
 29 H        1.2900    -0.8360     0.7340 H     1 <1>   0.0800 
 30 H        2.4450    -4.5780    -0.7340 H     1 <1>   0.0800 
 31 H        2.3970    -4.3850     0.9920 H     1 <1>   0.0800 
 32 H        3.7230    -1.5950     2.0690 H     1 <1>   0.0800 
 33 H        3.4100    -0.2180     1.0510 H     1 <1>   0.0800 
 34 H        4.5520    -3.8210    -0.8320 H     1 <1>   0.0800 
 35 H        4.5830    -3.8030     0.9080 H     1 <1>   0.0800 
 36 H       -4.2820     2.3320    -2.0150 H     1 <1>   0.0800 
 37 H       -4.1400     3.2840    -0.5530 H     1 <1>   0.0800 
 38 H       -5.4790     2.1730    -0.7480 H     1 <1>   0.0800 
 39 H        3.6770    -1.6330    -0.8390 H     1 <1>   0.4500 
 40 H        6.0720    -1.8160    -0.9210 H     1 <1>   0.0800 
 41 H        6.1200    -1.6700     0.8220 H     1 <1>   0.0800 
 42 H        4.7320     0.1080    -2.1970 H     1 <1>   0.1500 
 43 H        6.3290     0.4840     1.7660 H     1 <1>   0.1500 
 44 H        4.6330     2.5410    -2.3710 H     1 <1>   0.1500 
 45 H        6.2210     2.9160     1.5600 H     1 <1>   0.1500 
 46 H        5.3710     3.9500    -0.4990 H     1 <1>   0.1500 
@<TRIPOS>BOND
  1   1   2  2   
  2   2   3  am  
  3   2   4  1   
  4   3   5  1   
  5   3  24  1   
  6   4   6  1   
  7   4  25  1   
  8   4  26  1   
  9   5   7  2   
 10   5   8  1   
 11   6   9  1   
 12   6  10  1   
 13   7  11  1   
 14   8  12  2   
 15   8  27  1   
 16   9  13  1   
 17   9  28  1   
 18   9  29  1   
 19  10  14  1   
 20  10  30  1   
 21  10  31  1   
 22  11  12  1   
 23  12  15  1   
 24  13  16  1   
 25  13  32  1   
 26  13  33  1   
 27  14  16  1   
 28  14  34  1   
 29  14  35  1   
 30  15  36  1   
 31  15  37  1   
 32  15  38  1   
 33  16  17  1   
 34  16  39  1   
 35  17  18  1   
 36  17  40  1   
 37  17  41  1   
 38  18  19  ar  
 39  18  20  ar  
 40  19  21  ar  
 41  19  42  1   
 42  20  22  ar  
 43  20  43  1   
 44  21  23  ar  
 45  21  44  1   
 46  22  23  ar  
 47  22  45  1   
 48  23  46  1   
@<TRIPOS>SUBSTRUCTURE
  1 ****   9 GROUP 4 **** **** 0

# MOE 2024.06 (io_trps.svl 2023.06)
