@<TRIPOS>MOLECULE
N-(5-Ethoxymethyl-[1,3,4]thiadiazol-2-yl)-3-isobutyrylamino-benzamide
44 45 1 0 0 
SMALL
USER_CHARGES


@<TRIPOS>ATOM
  1 S       -0.3530     0.3040     0.4380 S.3   1 <1>  -0.0800 
  2 C       -1.6370     0.0860    -0.7040 C.2   1 <1>   0.4420 
  3 C        0.5340     1.0990    -0.8200 C.2   1 <1>   0.1980 
  4 N       -1.3460     0.5650    -1.8590 N.2   1 <1>  -0.3380 
  5 N       -2.7620    -0.5630    -0.2390 N.am  1 <1>  -0.4940 
  6 N       -0.1070     1.1430    -1.9170 N.2   1 <1>  -0.3380 
  7 C        1.9250     1.6240    -0.5120 C.3   1 <1>   0.3000 
  8 C       -3.9460    -0.8450    -0.8740 C.2   1 <1>   0.5440 
  9 O        1.9210     2.3430     0.6870 O.3   1 <1>  -0.5600 
 10 O       -4.1660    -0.4120    -1.9840 O.2   1 <1>  -0.5700 
 11 C       -4.9500    -1.6410    -0.1910 C.ar  1 <1>   0.0860 
 12 C        3.1420     2.9170     1.0110 C.3   1 <1>   0.1200 
 13 C       -6.3060    -1.4050    -0.4090 C.ar  1 <1>  -0.1500 
 14 C       -4.6090    -2.6600     0.7000 C.ar  1 <1>  -0.1500 
 15 C        2.9680     3.6410     2.3400 C.3   1 <1>  -0.2400 
 16 C       -7.3000    -2.1250     0.2360 C.ar  1 <1>   0.1170 
 17 C       -5.5830    -3.3920     1.3530 C.ar  1 <1>  -0.1500 
 18 N       -8.6410    -1.8280    -0.0470 N.am  1 <1>  -0.5470 
 19 C       -6.9190    -3.1260     1.1240 C.ar  1 <1>  -0.1500 
 20 C       -9.7720    -2.0140     0.7020 C.2   1 <1>   0.5690 
 21 O       -9.7550    -2.4640     1.8220 O.2   1 <1>  -0.5700 
 22 C      -11.1120    -1.6080     0.0790 C.3   1 <1>  -0.0190 
 23 C      -11.7200    -0.3960     0.8040 C.3   1 <1>  -0.2400 
 24 C      -12.1140    -2.7750     0.0740 C.3   1 <1>  -0.2400 
 25 H       -2.7190    -0.8300     0.7390 H     1 <1>   0.3700 
 26 H        2.2450     2.2760    -1.3060 H     1 <1>   0.0800 
 27 H        2.6110     0.8020    -0.4170 H     1 <1>   0.0800 
 28 H        3.4180     3.6130     0.2350 H     1 <1>   0.0800 
 29 H        3.8850     2.1420     1.0970 H     1 <1>   0.0800 
 30 H       -6.5830    -0.6300    -1.1020 H     1 <1>   0.1500 
 31 H       -3.5760    -2.8980     0.8820 H     1 <1>   0.1500 
 32 H        2.2150     4.4040     2.2480 H     1 <1>   0.0800 
 33 H        3.8930     4.1050     2.6270 H     1 <1>   0.0800 
 34 H        2.6800     2.9440     3.1060 H     1 <1>   0.0800 
 35 H       -5.3080    -4.1750     2.0400 H     1 <1>   0.1500 
 36 H       -8.7910    -1.3590    -0.9380 H     1 <1>   0.3700 
 37 H       -7.6670    -3.7050     1.6350 H     1 <1>   0.1500 
 38 H      -10.9390    -1.3260    -0.9440 H     1 <1>   0.0800 
 39 H      -11.9230    -0.6420     1.8320 H     1 <1>   0.0800 
 40 H      -12.6390    -0.0950     0.3330 H     1 <1>   0.0800 
 41 H      -11.0350     0.4320     0.7830 H     1 <1>   0.0800 
 42 H      -12.3360    -3.0800     1.0830 H     1 <1>   0.0800 
 43 H      -11.6990    -3.6180    -0.4500 H     1 <1>   0.0800 
 44 H      -13.0300    -2.4860    -0.4090 H     1 <1>   0.0800 
@<TRIPOS>BOND
  1   1   2  1   
  2   1   3  1   
  3   2   4  2   
  4   2   5  1   
  5   3   6  2   
  6   3   7  1   
  7   4   6  1   
  8   5   8  am  
  9   5  25  1   
 10   7   9  1   
 11   7  26  1   
 12   7  27  1   
 13   8  10  2   
 14   8  11  1   
 15   9  12  1   
 16  11  13  ar  
 17  11  14  ar  
 18  12  15  1   
 19  12  28  1   
 20  12  29  1   
 21  13  16  ar  
 22  13  30  1   
 23  14  17  ar  
 24  14  31  1   
 25  15  32  1   
 26  15  33  1   
 27  15  34  1   
 28  16  18  1   
 29  16  19  ar  
 30  17  19  ar  
 31  17  35  1   
 32  18  20  am  
 33  18  36  1   
 34  19  37  1   
 35  20  21  2   
 36  20  22  1   
 37  22  23  1   
 38  22  24  1   
 39  22  38  1   
 40  23  39  1   
 41  23  40  1   
 42  23  41  1   
 43  24  42  1   
 44  24  43  1   
 45  24  44  1   
@<TRIPOS>SUBSTRUCTURE
  1 ****   8 GROUP 4 **** **** 0

# MOE 2024.06 (io_trps.svl 2023.06)
