@<TRIPOS>MOLECULE
8-[4-(2-Fluoro-phenyl)-piperazin-1-ylmethyl]-1,3-dimethyl-3,7-dihydro-purine-2,6
48 51 1 0 0 
SMALL
USER_CHARGES


@<TRIPOS>ATOM
  1 F       -0.4910     0.0800    -0.6770 F     1 <1>  -0.1900 
  2 C       -1.1070    -1.0800    -0.7130 C.ar  1 <1>   0.1900 
  3 C       -2.4870    -1.1410    -0.4830 C.ar  1 <1>   0.1000 
  4 C       -0.3390    -2.1950    -0.9860 C.ar  1 <1>  -0.1500 
  5 N       -3.2640    -0.0050    -0.2070 N.pl3 1 <1>  -0.8380 
  6 C       -3.0700    -2.4050    -0.5390 C.ar  1 <1>  -0.1500 
  7 C       -0.9510    -3.4350    -1.0370 C.ar  1 <1>  -0.1500 
  8 C       -4.6580     0.1270    -0.7170 C.3   1 <1>   0.2090 
  9 C       -3.0280     0.7340     1.0670 C.3   1 <1>   0.2090 
 10 C       -2.3150    -3.5350    -0.8130 C.ar  1 <1>  -0.1500 
 11 C       -5.0650     1.6090    -0.7970 C.3   1 <1>   0.1100 
 12 C       -3.4850     2.2010     0.9360 C.3   1 <1>   0.1100 
 13 N       -4.8990     2.3120     0.5040 N.3   1 <1>  -0.8100 
 14 C       -5.2900     3.7310     0.3710 C.3   1 <1>   0.2900 
 15 C       -6.7970     3.8430     0.2200 C.2   1 <1>   0.0070 
 16 N       -7.6190     3.0280     0.9220 N.pl3 1 <1>   0.0330 
 17 N       -7.4210     4.6620    -0.5600 N.2   1 <1>  -0.5650 
 18 C       -8.8600     3.3640     0.5420 C.2   1 <1>  -0.0880 
 19 C       -8.7460     4.3690    -0.3700 C.2   1 <1>   0.1410 
 20 N      -10.0970     2.8440     0.9230 N.am  1 <1>  -0.4240 
 21 C       -9.9350     4.9220    -0.9650 C.2   1 <1>   0.7160 
 22 C      -11.2500     3.3470     0.3280 C.2   1 <1>   0.6900 
 23 C      -10.1710     1.7570     1.9360 C.3   1 <1>   0.0600 
 24 O       -9.9090     5.8510    -1.7610 O.2   1 <1>  -0.5700 
 25 N      -11.1640     4.3680    -0.6120 N.am  1 <1>  -0.4200 
 26 O      -12.3380     2.8880     0.6310 O.2   1 <1>  -0.5700 
 27 C      -12.4130     4.9070    -1.2310 C.3   1 <1>   0.0600 
 28 H        0.7170    -2.0910    -1.1570 H     1 <1>   0.1500 
 29 H       -4.1220    -2.5090    -0.3590 H     1 <1>   0.1500 
 30 H       -0.3710    -4.3170    -1.2490 H     1 <1>   0.1500 
 31 H       -5.3330    -0.3910    -0.0590 H     1 <1>   0.0800 
 32 H       -4.7250    -0.3160    -1.6950 H     1 <1>   0.0800 
 33 H       -1.9830     0.7060     1.3180 H     1 <1>   0.0800 
 34 H       -3.5770     0.2590     1.8610 H     1 <1>   0.0800 
 35 H       -2.7920    -4.5000    -0.8500 H     1 <1>   0.1500 
 36 H       -6.0910     1.6650    -1.1160 H     1 <1>   0.0800 
 37 H       -4.4610     2.0860    -1.5500 H     1 <1>   0.0800 
 38 H       -2.8430     2.6920     0.2240 H     1 <1>   0.0800 
 39 H       -3.3610     2.6850     1.8880 H     1 <1>   0.0800 
 40 H       -4.8020     4.1810    -0.4770 H     1 <1>   0.0800 
 41 H       -4.9990     4.2710     1.2560 H     1 <1>   0.0800 
 42 H       -7.2990     2.2820     1.5460 H     1 <1>   0.2700 
 43 H       -9.4230     1.9050     2.6930 H     1 <1>   0.0800 
 44 H      -10.0140     0.8080     1.4550 H     1 <1>   0.0800 
 45 H      -11.1360     1.7510     2.4120 H     1 <1>   0.0800 
 46 H      -12.2250     5.2210    -2.2430 H     1 <1>   0.0800 
 47 H      -12.7590     5.7500    -0.6600 H     1 <1>   0.0800 
 48 H      -13.1830     4.1550    -1.2510 H     1 <1>   0.0800 
@<TRIPOS>BOND
  1   1   2  1   
  2   2   3  ar  
  3   2   4  ar  
  4   3   5  1   
  5   3   6  ar  
  6   4   7  ar  
  7   4  28  1   
  8   5   8  1   
  9   5   9  1   
 10   6  10  ar  
 11   6  29  1   
 12   7  10  ar  
 13   7  30  1   
 14   8  11  1   
 15   8  31  1   
 16   8  32  1   
 17   9  12  1   
 18   9  33  1   
 19   9  34  1   
 20  10  35  1   
 21  11  13  1   
 22  11  36  1   
 23  11  37  1   
 24  12  13  1   
 25  12  38  1   
 26  12  39  1   
 27  13  14  1   
 28  14  15  1   
 29  14  40  1   
 30  14  41  1   
 31  15  16  1   
 32  15  17  2   
 33  16  18  1   
 34  16  42  1   
 35  17  19  1   
 36  18  19  2   
 37  18  20  1   
 38  19  21  1   
 39  20  22  am  
 40  20  23  1   
 41  21  24  2   
 42  21  25  am  
 43  22  25  am  
 44  22  26  2   
 45  23  43  1   
 46  23  44  1   
 47  23  45  1   
 48  25  27  1   
 49  27  46  1   
 50  27  47  1   
 51  27  48  1   
@<TRIPOS>SUBSTRUCTURE
  1 ****  11 GROUP 4 **** **** 0

# MOE 2024.06 (io_trps.svl 2023.06)
