@<TRIPOS>MOLECULE
N-Furan-2-ylmethyl-N-(2-hydroxy-8-methyl-quinolin-3-ylmethyl)-2,2-dimethyl-propi
50 52 1 0 0 
SMALL
USER_CHARGES


@<TRIPOS>ATOM
  1 O        1.5490    -0.5280     1.4800 O.2   1 <1>  -0.5700 
  2 C        2.0570    -0.5860     0.3800 C.2   1 <1>   0.5690 
  3 N        2.5590     0.5740    -0.1730 N.am  1 <1>  -0.6600 
  4 C        2.0670    -1.9850    -0.3240 C.3   1 <1>   0.0610 
  5 C        2.3070     1.8830     0.4970 C.3   1 <1>   0.2780 
  6 C        3.4560     0.6910    -1.3570 C.3   1 <1>   0.3200 
  7 C        1.4350    -3.0620     0.5920 C.3   1 <1>  -0.2400 
  8 C        3.4880    -2.4960    -0.6450 C.3   1 <1>  -0.2400 
  9 C        1.2080    -1.9680    -1.6060 C.3   1 <1>  -0.2400 
 10 C        1.0020     2.4730    -0.0090 C.2   1 <1>  -0.1240 
 11 C        4.9150     0.5810    -0.9420 C.2   1 <1>  -0.0400 
 12 C        1.0610     3.4250    -1.0750 C.2   1 <1>   0.6160 
 13 C       -0.1950     2.1170     0.5230 C.2   1 <1>  -0.1780 
 14 O        5.8390     0.6670    -1.8800 O.3   1 <1>  -0.2800 
 15 C        5.4910     0.3960     0.2670 C.2   1 <1>  -0.1500 
 16 O        2.0970     3.7980    -1.5980 O.2   1 <1>  -0.5700 
 17 N       -0.1090     3.9500    -1.5300 N.am  1 <1>  -0.5470 
 18 C       -1.4180     2.6790     0.0330 C.ar  1 <1>   0.0280 
 19 C        7.0140     0.5430    -1.2970 C.2   1 <1>  -0.0100 
 20 C        6.8710     0.3720     0.0340 C.2   1 <1>  -0.1500 
 21 C       -1.3590     3.6140    -1.0160 C.ar  1 <1>   0.1170 
 22 C       -2.6620     2.3300     0.5570 C.ar  1 <1>  -0.1500 
 23 C       -2.5370     4.1800    -1.5160 C.ar  1 <1>  -0.1440 
 24 C       -3.8170     2.8900     0.0600 C.ar  1 <1>  -0.1500 
 25 C       -3.7540     3.8140    -0.9750 C.ar  1 <1>  -0.1500 
 26 C       -2.4950     5.1960    -2.6500 C.3   1 <1>  -0.0970 
 27 H        3.1270     2.5590     0.3210 H     1 <1>   0.0800 
 28 H        2.2430     1.7440     1.5630 H     1 <1>   0.0800 
 29 H        3.3060     1.6410    -1.8380 H     1 <1>   0.0800 
 30 H        3.2380    -0.0590    -2.0870 H     1 <1>   0.0800 
 31 H        1.9940    -3.1490     1.5070 H     1 <1>   0.0800 
 32 H        1.4170    -4.0250     0.1130 H     1 <1>   0.0800 
 33 H        0.4240    -2.7950     0.8450 H     1 <1>   0.0800 
 34 H        4.1130    -2.4160     0.2270 H     1 <1>   0.0800 
 35 H        3.9510    -1.9530    -1.4440 H     1 <1>   0.0800 
 36 H        3.4610    -3.5290    -0.9450 H     1 <1>   0.0800 
 37 H        0.2050    -1.6590    -1.3690 H     1 <1>   0.0800 
 38 H        1.1660    -2.9480    -2.0470 H     1 <1>   0.0800 
 39 H        1.5920    -1.2920    -2.3440 H     1 <1>   0.0800 
 40 H       -0.2630     1.3990     1.3220 H     1 <1>   0.1500 
 41 H        5.0160     0.2830     1.2270 H     1 <1>   0.1500 
 42 H       -0.0230     4.6250    -2.2850 H     1 <1>   0.3700 
 43 H        7.9020     0.5890    -1.9040 H     1 <1>   0.1500 
 44 H        7.6300     0.2420     0.7840 H     1 <1>   0.1500 
 45 H       -2.7120     1.6130     1.3580 H     1 <1>   0.1500 
 46 H       -4.7740     2.6150     0.4700 H     1 <1>   0.1500 
 47 H       -4.6690     4.2390    -1.3470 H     1 <1>   0.1500 
 48 H       -2.0490     4.7540    -3.5240 H     1 <1>   0.0800 
 49 H       -1.9190     6.0540    -2.3550 H     1 <1>   0.0800 
 50 H       -3.4850     5.5270    -2.9080 H     1 <1>   0.0800 
@<TRIPOS>BOND
  1   1   2  2   
  2   2   3  am  
  3   2   4  1   
  4   3   5  1   
  5   3   6  1   
  6   4   7  1   
  7   4   8  1   
  8   4   9  1   
  9   5  10  1   
 10   5  27  1   
 11   5  28  1   
 12   6  11  1   
 13   6  29  1   
 14   6  30  1   
 15   7  31  1   
 16   7  32  1   
 17   7  33  1   
 18   8  34  1   
 19   8  35  1   
 20   8  36  1   
 21   9  37  1   
 22   9  38  1   
 23   9  39  1   
 24  10  12  1   
 25  10  13  2   
 26  11  14  1   
 27  11  15  2   
 28  12  16  2   
 29  12  17  am  
 30  13  18  1   
 31  13  40  1   
 32  14  19  1   
 33  15  20  1   
 34  15  41  1   
 35  17  21  1   
 36  17  42  1   
 37  18  21  ar  
 38  18  22  ar  
 39  19  20  2   
 40  19  43  1   
 41  20  44  1   
 42  21  23  ar  
 43  22  24  ar  
 44  22  45  1   
 45  23  25  ar  
 46  23  26  1   
 47  24  25  ar  
 48  24  46  1   
 49  25  47  1   
 50  26  48  1   
 51  26  49  1   
 52  26  50  1   
@<TRIPOS>SUBSTRUCTURE
  1 ****  10 GROUP 4 **** **** 0

# MOE 2024.06 (io_trps.svl 2023.06)
