@<TRIPOS>MOLECULE
1-(4-Methoxy-naphthalene-1-sulfonyl)-piperidine-4-carboxylic acid ethyl ester
49 51 1 0 0 
SMALL
USER_CHARGES


@<TRIPOS>ATOM
  1 S        0.3220     0.4410    -1.7830 S.o2  1 <1>   1.4470 
  2 O        0.0850    -0.4900    -2.8640 O.2   1 <1>  -0.6500 
  3 O        0.5940     1.8170    -2.1420 O.2   1 <1>  -0.6500 
  4 N       -1.1030     0.4660    -0.8590 N.am  1 <1>  -0.8490 
  5 C        1.5940    -0.0920    -0.5880 C.ar  1 <1>  -0.0090 
  6 C       -1.5680    -0.8800    -0.5110 C.3   1 <1>   0.1960 
  7 C       -2.1520     1.2370    -1.5340 C.3   1 <1>   0.1960 
  8 C        1.9910    -1.4470    -0.3720 C.ar  1 <1>   0.0000 
  9 C        2.1730     0.8920     0.1770 C.ar  1 <1>  -0.1500 
 10 C       -2.7680    -0.8010     0.4350 C.3   1 <1>  -0.1600 
 11 C       -3.3760     1.3820    -0.6280 C.3   1 <1>  -0.1600 
 12 C        2.9690    -1.7290     0.6220 C.ar  1 <1>   0.0000 
 13 C        1.4710    -2.5610    -1.0820 C.ar  1 <1>  -0.1500 
 14 C        3.1370     0.6230     1.1450 C.ar  1 <1>  -0.1500 
 15 C       -3.9170     0.0110    -0.1850 C.3   1 <1>  -0.0190 
 16 C        3.5370    -0.6680     1.3710 C.ar  1 <1>   0.0820 
 17 C        3.3550    -3.0700     0.8480 C.ar  1 <1>  -0.1500 
 18 C        1.8680    -3.8450    -0.8390 C.ar  1 <1>  -0.1500 
 19 C       -5.1060     0.1110     0.7700 C.2   1 <1>   0.6590 
 20 O        4.4710    -0.9870     2.3020 O.3   1 <1>  -0.3620 
 21 C        2.8230    -4.1070     0.1400 C.ar  1 <1>  -0.1500 
 22 O       -5.4360     1.1440     1.2940 O.2   1 <1>  -0.5700 
 23 O       -5.7590    -1.0240     0.9820 O.3   1 <1>  -0.4300 
 24 C        5.1160    -0.0160     3.0960 C.3   1 <1>   0.0400 
 25 C       -6.8760    -1.0790     1.8390 C.3   1 <1>   0.1200 
 26 C       -7.3780    -2.5190     1.8700 C.3   1 <1>  -0.2400 
 27 H       -0.7810    -1.4190    -0.0120 H     1 <1>   0.0800 
 28 H       -1.8370    -1.4210    -1.4040 H     1 <1>   0.0800 
 29 H       -2.4250     0.7520    -2.4580 H     1 <1>   0.0800 
 30 H       -1.7870     2.2240    -1.7700 H     1 <1>   0.0800 
 31 H        1.8810     1.9200     0.0390 H     1 <1>   0.1500 
 32 H       -2.4540    -0.3460     1.3590 H     1 <1>   0.0800 
 33 H       -3.1050    -1.7980     0.6590 H     1 <1>   0.0800 
 34 H       -4.1450     1.9230    -1.1510 H     1 <1>   0.0800 
 35 H       -3.0980     1.9640     0.2340 H     1 <1>   0.0800 
 36 H        0.7370    -2.4300    -1.8470 H     1 <1>   0.1500 
 37 H        3.5410     1.4540     1.6920 H     1 <1>   0.1500 
 38 H       -4.2640    -0.5080    -1.0600 H     1 <1>   0.0800 
 39 H        4.0940    -3.2750     1.6020 H     1 <1>   0.1500 
 40 H        1.4550    -4.6680    -1.3980 H     1 <1>   0.1500 
 41 H        3.1300    -5.1220     0.3240 H     1 <1>   0.1500 
 42 H        4.3780     0.5010     3.6850 H     1 <1>   0.0800 
 43 H        5.6450     0.6660     2.4540 H     1 <1>   0.0800 
 44 H        5.8100    -0.5210     3.7430 H     1 <1>   0.0800 
 45 H       -7.6320    -0.4130     1.4580 H     1 <1>   0.0800 
 46 H       -6.5710    -0.7540     2.8200 H     1 <1>   0.0800 
 47 H       -7.6690    -2.8320     0.8830 H     1 <1>   0.0800 
 48 H       -8.2330    -2.5900     2.5170 H     1 <1>   0.0800 
 49 H       -6.6100    -3.1720     2.2440 H     1 <1>   0.0800 
@<TRIPOS>BOND
  1   1   2  2   
  2   1   3  2   
  3   1   4  am  
  4   1   5  1   
  5   4   6  1   
  6   4   7  1   
  7   5   8  ar  
  8   5   9  ar  
  9   6  10  1   
 10   6  27  1   
 11   6  28  1   
 12   7  11  1   
 13   7  29  1   
 14   7  30  1   
 15   8  12  ar  
 16   8  13  ar  
 17   9  14  ar  
 18   9  31  1   
 19  10  15  1   
 20  10  32  1   
 21  10  33  1   
 22  11  15  1   
 23  11  34  1   
 24  11  35  1   
 25  12  16  ar  
 26  12  17  ar  
 27  13  18  ar  
 28  13  36  1   
 29  14  16  ar  
 30  14  37  1   
 31  15  19  1   
 32  15  38  1   
 33  16  20  1   
 34  17  21  ar  
 35  17  39  1   
 36  18  21  ar  
 37  18  40  1   
 38  19  22  2   
 39  19  23  1   
 40  20  24  1   
 41  21  41  1   
 42  23  25  1   
 43  24  42  1   
 44  24  43  1   
 45  24  44  1   
 46  25  26  1   
 47  25  45  1   
 48  25  46  1   
 49  26  47  1   
 50  26  48  1   
 51  26  49  1   
@<TRIPOS>SUBSTRUCTURE
  1 ****   6 GROUP 4 **** **** 0

# MOE 2024.06 (io_trps.svl 2023.06)
