@<TRIPOS>MOLECULE
3-[3-(2-Chloro-phenyl)-[1,2,4]oxadiazol-5-yl]-N-propyl-propionamide
36 37 1 0 0 
SMALL
USER_CHARGES


@<TRIPOS>ATOM
  1 CL      -0.2090     0.0950     0.2160 Cl    1 <1>  -0.1770 
  2 C        0.3880    -1.5410     0.0560 C.ar  1 <1>   0.1770 
  3 C        1.7190    -1.8440     0.3420 C.ar  1 <1>   0.0540 
  4 C       -0.5150    -2.5090    -0.3430 C.ar  1 <1>  -0.1500 
  5 C        2.6780    -0.8430     0.7440 C.2   1 <1>   0.4620 
  6 C        2.1030    -3.1810     0.2280 C.ar  1 <1>  -0.1500 
  7 C       -0.1050    -3.8250    -0.4570 C.ar  1 <1>  -0.1500 
  8 N        3.3770    -0.8770     1.8210 N.2   1 <1>  -0.4100 
  9 N        2.9660     0.2230    -0.0050 N.2   1 <1>  -0.5650 
 10 C        1.2070    -4.1590    -0.1680 C.ar  1 <1>  -0.1500 
 11 O        4.1330     0.1750     1.8330 O.3   1 <1>  -0.0190 
 12 C        3.8420     0.7890     0.7160 C.2   1 <1>   0.2980 
 13 C        4.5650     2.0770     0.3820 C.3   1 <1>   0.0200 
 14 C        6.0210     1.7970    -0.0190 C.3   1 <1>  -0.0990 
 15 C        6.8100     3.0550    -0.3320 C.2   1 <1>   0.5690 
 16 O        6.2700     4.1310    -0.2920 O.2   1 <1>  -0.5700 
 17 N        8.1230     2.9810    -0.6470 N.am  1 <1>  -0.7300 
 18 C        8.9930     1.7910    -0.7580 C.3   1 <1>   0.1400 
 19 C        9.8950     1.7160     0.4730 C.3   1 <1>  -0.1600 
 20 C       10.8040     0.4840     0.4240 C.3   1 <1>  -0.2400 
 21 H       -1.5320    -2.2320    -0.5570 H     1 <1>   0.1500 
 22 H        3.1210    -3.4510     0.4520 H     1 <1>   0.1500 
 23 H       -0.8020    -4.5860    -0.7670 H     1 <1>   0.1500 
 24 H        1.5300    -5.1830    -0.2520 H     1 <1>   0.1500 
 25 H        4.5340     2.7290     1.2370 H     1 <1>   0.0800 
 26 H        4.0540     2.5670    -0.4290 H     1 <1>   0.0800 
 27 H        6.0260     1.1660    -0.8880 H     1 <1>   0.0800 
 28 H        6.5150     1.2790     0.7820 H     1 <1>   0.0800 
 29 H        8.5790     3.8820    -0.8110 H     1 <1>   0.3700 
 30 H        9.5910     1.8730    -1.6500 H     1 <1>   0.0800 
 31 H        8.4000     0.8960    -0.8340 H     1 <1>   0.0800 
 32 H        9.2860     1.6680     1.3600 H     1 <1>   0.0800 
 33 H       10.5040     2.6020     0.5260 H     1 <1>   0.0800 
 34 H       10.2180    -0.4180     0.3950 H     1 <1>   0.0800 
 35 H       11.4290     0.4540     1.3000 H     1 <1>   0.0800 
 36 H       11.4370     0.5150    -0.4450 H     1 <1>   0.0800 
@<TRIPOS>BOND
  1   1   2  1   
  2   2   3  ar  
  3   2   4  ar  
  4   3   5  1   
  5   3   6  ar  
  6   4   7  ar  
  7   4  21  1   
  8   5   8  2   
  9   5   9  1   
 10   6  10  ar  
 11   6  22  1   
 12   7  10  ar  
 13   7  23  1   
 14   8  11  1   
 15   9  12  2   
 16  10  24  1   
 17  11  12  1   
 18  12  13  1   
 19  13  14  1   
 20  13  25  1   
 21  13  26  1   
 22  14  15  1   
 23  14  27  1   
 24  14  28  1   
 25  15  16  2   
 26  15  17  am  
 27  17  18  1   
 28  17  29  1   
 29  18  19  1   
 30  18  30  1   
 31  18  31  1   
 32  19  20  1   
 33  19  32  1   
 34  19  33  1   
 35  20  34  1   
 36  20  35  1   
 37  20  36  1   
@<TRIPOS>SUBSTRUCTURE
  1 ****  12 GROUP 4 **** **** 0

# MOE 2024.06 (io_trps.svl 2023.06)
