@<TRIPOS>MOLECULE
1-(4-Ethoxy-phenyl)-5-oxo-pyrrolidine-3-carboxylic acid p-tolylamide
47 49 1 0 0 
SMALL
USER_CHARGES


@<TRIPOS>ATOM
  1 O        0.2430    -0.2280    -0.7920 O.2   1 <1>  -0.5700 
  2 C        1.3600    -0.4990    -0.4250 C.2   1 <1>   0.5690 
  3 N        1.8160    -1.7160    -0.0060 N.am  1 <1>  -0.4770 
  4 C        2.4500     0.5340    -0.3920 C.3   1 <1>  -0.0990 
  5 C        1.1230    -2.9420     0.0550 C.ar  1 <1>   0.1170 
  6 C        3.2520    -1.6410     0.3310 C.3   1 <1>   0.1400 
  7 C        3.7290    -0.3150    -0.2730 C.3   1 <1>  -0.0190 
  8 C        0.1680    -3.2770    -0.9000 C.ar  1 <1>  -0.1500 
  9 C        1.3850    -3.8600     1.0700 C.ar  1 <1>  -0.1500 
 10 C        4.8700     0.3120     0.5250 C.2   1 <1>   0.5690 
 11 C       -0.4950    -4.4890    -0.8490 C.ar  1 <1>  -0.1500 
 12 C        0.7250    -5.0740     1.1270 C.ar  1 <1>  -0.1500 
 13 O        4.7330     1.3960     1.0280 O.2   1 <1>  -0.5700 
 14 N        6.0460    -0.3490     0.6910 N.am  1 <1>  -0.5470 
 15 C       -0.2230    -5.3970     0.1600 C.ar  1 <1>   0.0830 
 16 C        6.4350    -1.6070     0.2280 C.ar  1 <1>   0.1170 
 17 O       -0.9180    -6.5650     0.1360 O.3   1 <1>  -0.3630 
 18 C        6.6770    -2.6320     1.1310 C.ar  1 <1>  -0.1500 
 19 C        6.5780    -1.8590    -1.1300 C.ar  1 <1>  -0.1500 
 20 C       -0.7380    -7.5360     1.1390 C.3   1 <1>   0.1200 
 21 C        7.0340    -3.8920     0.6850 C.ar  1 <1>  -0.1500 
 22 C        6.9350    -3.1180    -1.5770 C.ar  1 <1>  -0.1500 
 23 C       -1.6680    -8.7070     0.8340 C.3   1 <1>  -0.2400 
 24 C        7.1630    -4.1420    -0.6720 C.ar  1 <1>  -0.1430 
 25 C        7.5520    -5.5230    -1.1680 C.3   1 <1>  -0.0970 
 26 H        2.2920     1.1570     0.4690 H     1 <1>   0.0800 
 27 H        2.4460     1.1330    -1.2840 H     1 <1>   0.0800 
 28 H        3.7840    -2.4790    -0.0860 H     1 <1>   0.0800 
 29 H        3.3620    -1.6330     1.4020 H     1 <1>   0.0800 
 30 H        4.0830    -0.5150    -1.2670 H     1 <1>   0.0800 
 31 H       -0.0580    -2.5840    -1.6900 H     1 <1>   0.1500 
 32 H        2.1070    -3.6230     1.8280 H     1 <1>   0.1500 
 33 H       -1.2310    -4.7370    -1.5920 H     1 <1>   0.1500 
 34 H        0.9590    -5.7510     1.9260 H     1 <1>   0.1500 
 35 H        6.7050     0.1460     1.2950 H     1 <1>   0.3700 
 36 H        6.5800    -2.4470     2.1860 H     1 <1>   0.1500 
 37 H        6.4160    -1.0680    -1.8400 H     1 <1>   0.1500 
 38 H       -0.9830    -7.0940     2.0900 H     1 <1>   0.0800 
 39 H        0.2900    -7.8540     1.1260 H     1 <1>   0.0800 
 40 H        7.2130    -4.6780     1.3980 H     1 <1>   0.1500 
 41 H        7.0370    -3.3000    -2.6330 H     1 <1>   0.1500 
 42 H       -2.6900    -8.3740     0.8320 H     1 <1>   0.0800 
 43 H       -1.5540    -9.4680     1.5840 H     1 <1>   0.0800 
 44 H       -1.4260    -9.1290    -0.1250 H     1 <1>   0.0800 
 45 H        8.2140    -5.4440    -2.0110 H     1 <1>   0.0800 
 46 H        6.6720    -6.0640    -1.4670 H     1 <1>   0.0800 
 47 H        8.0540    -6.0780    -0.3950 H     1 <1>   0.0800 
@<TRIPOS>BOND
  1   1   2  2   
  2   2   3  am  
  3   2   4  1   
  4   3   5  1   
  5   3   6  1   
  6   4   7  1   
  7   4  26  1   
  8   4  27  1   
  9   5   8  ar  
 10   5   9  ar  
 11   6   7  1   
 12   6  28  1   
 13   6  29  1   
 14   7  10  1   
 15   7  30  1   
 16   8  11  ar  
 17   8  31  1   
 18   9  12  ar  
 19   9  32  1   
 20  10  13  2   
 21  10  14  am  
 22  11  15  ar  
 23  11  33  1   
 24  12  15  ar  
 25  12  34  1   
 26  14  16  1   
 27  14  35  1   
 28  15  17  1   
 29  16  18  ar  
 30  16  19  ar  
 31  17  20  1   
 32  18  21  ar  
 33  18  36  1   
 34  19  22  ar  
 35  19  37  1   
 36  20  23  1   
 37  20  38  1   
 38  20  39  1   
 39  21  24  ar  
 40  21  40  1   
 41  22  24  ar  
 42  22  41  1   
 43  23  42  1   
 44  23  43  1   
 45  23  44  1   
 46  24  25  1   
 47  25  45  1   
 48  25  46  1   
 49  25  47  1   
@<TRIPOS>SUBSTRUCTURE
  1 ****   6 GROUP 4 **** **** 0

# MOE 2024.06 (io_trps.svl 2023.06)
