@<TRIPOS>MOLECULE
1-[3-Methoxy-4-(2-oxo-2-pyrrolidin-1-yl-ethoxy)-phenyl]-propan-1-one
42 43 1 0 0 
SMALL
USER_CHARGES


@<TRIPOS>ATOM
  1 O        2.9370    -0.1410     2.5980 O.2   1 <1>  -0.5700 
  2 C        2.9700    -0.8810     1.6410 C.2   1 <1>   0.5690 
  3 N        3.0450    -0.3930     0.3620 N.am  1 <1>  -0.6600 
  4 C        2.9630    -2.3830     1.9040 C.3   1 <1>   0.1810 
  5 C        3.0360     1.0530     0.0590 C.3   1 <1>   0.1400 
  6 C        3.0600    -1.2000    -0.8790 C.3   1 <1>   0.1400 
  7 O        1.8550    -3.0060     1.2710 O.3   1 <1>  -0.3620 
  8 C        2.7950     1.1320    -1.4450 C.3   1 <1>  -0.1600 
  9 C        3.3240    -0.1920    -1.9910 C.3   1 <1>  -0.1600 
 10 C        1.9030    -4.3150     0.9320 C.ar  1 <1>   0.0820 
 11 C        1.2540    -4.7610    -0.2240 C.ar  1 <1>   0.0820 
 12 C        2.6080    -5.2330     1.7000 C.ar  1 <1>  -0.1500 
 13 O        0.5240    -3.9520    -1.0370 O.3   1 <1>  -0.3630 
 14 C        1.3530    -6.0860    -0.6060 C.ar  1 <1>  -0.1500 
 15 C        2.6860    -6.5560     1.3070 C.ar  1 <1>  -0.1500 
 16 C       -0.4730    -3.1330    -0.4610 C.3   1 <1>   0.0400 
 17 C        2.0700    -7.0240     0.1440 C.ar  1 <1>   0.0860 
 18 C        2.1910    -8.4190    -0.2320 C.2   1 <1>   0.4230 
 19 O        2.8930    -9.1890     0.3760 O.2   1 <1>  -0.5700 
 20 C        1.4110    -8.9520    -1.4370 C.3   1 <1>  -0.0990 
 21 C        1.5040   -10.4740    -1.6450 C.3   1 <1>  -0.2400 
 22 H        3.8700    -2.8100     1.5180 H     1 <1>   0.0800 
 23 H        2.8930    -2.5670     2.9600 H     1 <1>   0.0800 
 24 H        3.9950     1.4690     0.3140 H     1 <1>   0.0800 
 25 H        2.2640     1.5570     0.6160 H     1 <1>   0.0800 
 26 H        2.0960    -1.6590    -1.0160 H     1 <1>   0.0800 
 27 H        3.8220    -1.9600    -0.8450 H     1 <1>   0.0800 
 28 H        3.2840     1.9830    -1.8830 H     1 <1>   0.0800 
 29 H        1.7370     1.2040    -1.6240 H     1 <1>   0.0800 
 30 H        2.8450    -0.4780    -2.9110 H     1 <1>   0.0800 
 31 H        4.3850    -0.1220    -2.1550 H     1 <1>   0.0800 
 32 H        3.0960    -4.9310     2.6080 H     1 <1>   0.1500 
 33 H        0.8550    -6.3730    -1.5120 H     1 <1>   0.1500 
 34 H        3.2400    -7.2510     1.9170 H     1 <1>   0.1500 
 35 H       -0.0210    -2.2290    -0.0960 H     1 <1>   0.0800 
 36 H       -1.1920    -2.8930    -1.2240 H     1 <1>   0.0800 
 37 H       -0.9510    -3.6670     0.3410 H     1 <1>   0.0800 
 38 H        1.7800    -8.4640    -2.3210 H     1 <1>   0.0800 
 39 H        0.3750    -8.6930    -1.3160 H     1 <1>   0.0800 
 40 H        2.5280   -10.7660    -1.8010 H     1 <1>   0.0800 
 41 H        0.9260   -10.7710    -2.5010 H     1 <1>   0.0800 
 42 H        1.1320   -10.9910    -0.7780 H     1 <1>   0.0800 
@<TRIPOS>BOND
  1   1   2  2   
  2   2   3  am  
  3   2   4  1   
  4   3   5  1   
  5   3   6  1   
  6   4   7  1   
  7   4  22  1   
  8   4  23  1   
  9   5   8  1   
 10   5  24  1   
 11   5  25  1   
 12   6   9  1   
 13   6  26  1   
 14   6  27  1   
 15   7  10  1   
 16   8   9  1   
 17   8  28  1   
 18   8  29  1   
 19   9  30  1   
 20   9  31  1   
 21  10  11  ar  
 22  10  12  ar  
 23  11  13  1   
 24  11  14  ar  
 25  12  15  ar  
 26  12  32  1   
 27  13  16  1   
 28  14  17  ar  
 29  14  33  1   
 30  15  17  ar  
 31  15  34  1   
 32  16  35  1   
 33  16  36  1   
 34  16  37  1   
 35  17  18  1   
 36  18  19  2   
 37  18  20  1   
 38  20  21  1   
 39  20  38  1   
 40  20  39  1   
 41  21  40  1   
 42  21  41  1   
 43  21  42  1   
@<TRIPOS>SUBSTRUCTURE
  1 ****  10 GROUP 4 **** **** 0

# MOE 2024.06 (io_trps.svl 2023.06)
