@<TRIPOS>MOLECULE
Cyclohexanecarboxylic acid {1-[3-(4-chloro-phenyl)-[1,2,4]oxadiazol-5-yl]-ethyl}
43 45 1 0 0 
SMALL
USER_CHARGES


@<TRIPOS>ATOM
  1 CL       0.2140     2.8380    -2.2820 Cl    1 <1>  -0.1770 
  2 C        1.7660     3.1860    -1.5670 C.ar  1 <1>   0.1770 
  3 C        1.8950     4.2620    -0.7110 C.ar  1 <1>  -0.1500 
  4 C        2.8490     2.3830    -1.8660 C.ar  1 <1>  -0.1500 
  5 C        3.1290     4.5340    -0.1460 C.ar  1 <1>  -0.1500 
  6 C        4.0780     2.6650    -1.2950 C.ar  1 <1>  -0.1500 
  7 C        4.2510     3.7450    -0.4230 C.ar  1 <1>   0.0540 
  8 C        5.5480     4.0320     0.1670 C.2   1 <1>   0.4620 
  9 N        6.6400     3.3970    -0.0730 N.2   1 <1>  -0.4100 
 10 N        5.7400     5.0270     1.0390 N.2   1 <1>  -0.5650 
 11 O        7.5860     3.9500     0.6180 O.3   1 <1>  -0.0190 
 12 C        6.9880     4.9210     1.2580 C.2   1 <1>   0.2980 
 13 C        7.8150     5.8270     2.1740 C.3   1 <1>   0.4000 
 14 N        8.9010     6.5130     1.4420 N.am  1 <1>  -0.7300 
 15 C        8.4470     5.0440     3.3240 C.3   1 <1>  -0.2400 
 16 C        8.8250     7.4120     0.4330 C.2   1 <1>   0.5690 
 17 O        9.8540     7.8290    -0.0370 O.2   1 <1>  -0.5700 
 18 C        7.4840     7.8970    -0.1320 C.3   1 <1>  -0.0190 
 19 C        7.1770     7.2160    -1.4800 C.3   1 <1>  -0.1600 
 20 C        7.4380     9.4300    -0.2910 C.3   1 <1>  -0.1600 
 21 C        5.8200     7.6660    -2.0360 C.3   1 <1>  -0.1600 
 22 C        6.0840     9.8930    -0.8490 C.3   1 <1>  -0.1600 
 23 C        5.7610     9.1930    -2.1770 C.3   1 <1>  -0.1600 
 24 H        1.0380     4.8740    -0.4910 H     1 <1>   0.1500 
 25 H        2.7270     1.5510    -2.5350 H     1 <1>   0.1500 
 26 H        3.2230     5.3740     0.5200 H     1 <1>   0.1500 
 27 H        4.9200     2.0370    -1.5310 H     1 <1>   0.1500 
 28 H        7.1590     6.5730     2.5890 H     1 <1>   0.0800 
 29 H        9.8480     6.2260     1.6920 H     1 <1>   0.3700 
 30 H        9.1210     4.2950     2.9480 H     1 <1>   0.0800 
 31 H        7.6760     4.5530     3.8900 H     1 <1>   0.0800 
 32 H        8.9770     5.7100     3.9810 H     1 <1>   0.0800 
 33 H        6.7030     7.6360     0.5550 H     1 <1>   0.0800 
 34 H        7.1780     6.1470    -1.3600 H     1 <1>   0.0800 
 35 H        7.9530     7.4640    -2.1850 H     1 <1>   0.0800 
 36 H        8.2230     9.7430    -0.9590 H     1 <1>   0.0800 
 37 H        7.6140     9.8970     0.6620 H     1 <1>   0.0800 
 38 H        5.0360     7.3350    -1.3760 H     1 <1>   0.0800 
 39 H        5.6560     7.2090    -2.9970 H     1 <1>   0.0800 
 40 H        6.1030    10.9580    -1.0000 H     1 <1>   0.0800 
 41 H        5.3090     9.6750    -0.1350 H     1 <1>   0.0800 
 42 H        4.7820     9.4870    -2.5120 H     1 <1>   0.0800 
 43 H        6.4720     9.5060    -2.9230 H     1 <1>   0.0800 
@<TRIPOS>BOND
  1   1   2  1   
  2   2   3  ar  
  3   2   4  ar  
  4   3   5  ar  
  5   3  24  1   
  6   4   6  ar  
  7   4  25  1   
  8   5   7  ar  
  9   5  26  1   
 10   6   7  ar  
 11   6  27  1   
 12   7   8  1   
 13   8   9  2   
 14   8  10  1   
 15   9  11  1   
 16  10  12  2   
 17  11  12  1   
 18  12  13  1   
 19  13  14  1   
 20  13  15  1   
 21  13  28  1   
 22  14  16  am  
 23  14  29  1   
 24  15  30  1   
 25  15  31  1   
 26  15  32  1   
 27  16  17  2   
 28  16  18  1   
 29  18  19  1   
 30  18  20  1   
 31  18  33  1   
 32  19  21  1   
 33  19  34  1   
 34  19  35  1   
 35  20  22  1   
 36  20  36  1   
 37  20  37  1   
 38  21  23  1   
 39  21  38  1   
 40  21  39  1   
 41  22  23  1   
 42  22  40  1   
 43  22  41  1   
 44  23  42  1   
 45  23  43  1   
@<TRIPOS>SUBSTRUCTURE
  1 ****  10 GROUP 4 **** **** 0

# MOE 2024.06 (io_trps.svl 2023.06)
