@<TRIPOS>MOLECULE
3-Methyl-8-morpholin-4-ylmethyl-7-naphthalen-1-ylmethyl-3,7-dihydro-purine-2,6-d
54 58 1 0 0 
SMALL
USER_CHARGES


@<TRIPOS>ATOM
  1 O        0.4220     0.2610    -1.0120 O.2   1 <1>  -0.5700 
  2 C        1.3200     0.9970    -0.6800 C.2   1 <1>   0.6900 
  3 N        2.6480     0.7150    -0.9590 N.am  1 <1>  -0.4360 
  4 N        1.0070     2.1410    -0.0030 N.am  1 <1>  -0.4900 
  5 C        3.6050     1.6150    -0.5110 C.2   1 <1>   0.4260 
  6 C        3.0380    -0.5160    -1.7060 C.3   1 <1>   0.0600 
  7 C        1.9350     3.0420     0.4350 C.2   1 <1>   0.7030 
  8 N        4.9490     1.5430    -0.6390 N.pl3 1 <1>  -0.7000 
  9 C        3.3150     2.7550     0.1630 C.2   1 <1>   0.2770 
 10 O        1.5680     4.0340     1.0310 O.2   1 <1>  -0.5700 
 11 C        5.4940     2.6080    -0.0610 C.cat 1 <1>   0.6560 
 12 N        4.5300     3.3890     0.4420 N.pl3 1 <1>  -0.7640 
 13 C        7.0290     2.7570    -0.0580 C.3   1 <1>   0.2540 
 14 C        4.5610     4.6970     1.1760 C.3   1 <1>   0.4970 
 15 N        7.7160     1.4660    -0.3500 N.3   1 <1>  -0.8100 
 16 C        5.9480     5.3180     1.1810 C.ar  1 <1>  -0.1440 
 17 C        7.8150     0.6180     0.8630 C.3   1 <1>   0.1100 
 18 C        9.0810     1.7130    -0.8710 C.3   1 <1>   0.1100 
 19 C        6.4890     5.8860    -0.0040 C.ar  1 <1>   0.0000 
 20 C        6.6740     5.3050     2.3450 C.ar  1 <1>  -0.1500 
 21 C        8.6000    -0.6730     0.5760 C.3   1 <1>   0.1200 
 22 C        9.8400     0.3930    -1.1010 C.3   1 <1>   0.1200 
 23 C        7.8080     6.3920     0.0390 C.ar  1 <1>   0.0000 
 24 C        5.7980     5.9580    -1.2380 C.ar  1 <1>  -0.1500 
 25 C        7.9680     5.8300     2.3830 C.ar  1 <1>  -0.1500 
 26 O        9.8650    -0.3620     0.0750 O.3   1 <1>  -0.5600 
 27 C        8.5200     6.3570     1.2520 C.ar  1 <1>  -0.1500 
 28 C        8.3850     6.9180    -1.1350 C.ar  1 <1>  -0.1500 
 29 C        6.3820     6.4740    -2.3610 C.ar  1 <1>  -0.1500 
 30 C        7.6920     6.9570    -2.3110 C.ar  1 <1>  -0.1500 
 31 H        0.0220     2.3190     0.1830 H     1 <1>   0.3700 
 32 H        2.1750    -0.9810    -2.1520 H     1 <1>   0.0800 
 33 H        3.4970    -1.2200    -1.0350 H     1 <1>   0.0800 
 34 H        3.7290    -0.2670    -2.4920 H     1 <1>   0.0800 
 35 H        5.5400     0.8240    -1.0710 H     1 <1>   0.4500 
 36 H        7.3710     3.1410     0.8850 H     1 <1>   0.0800 
 37 H        7.2840     3.4700    -0.8230 H     1 <1>   0.0800 
 38 H        4.2320     4.5340     2.1890 H     1 <1>   0.0800 
 39 H        3.8660     5.3860     0.7260 H     1 <1>   0.0800 
 40 H        6.8320     0.3560     1.2130 H     1 <1>   0.0800 
 41 H        8.3210     1.1520     1.6510 H     1 <1>   0.0800 
 42 H        9.6420     2.3150    -0.1750 H     1 <1>   0.0800 
 43 H        9.0230     2.2470    -1.8040 H     1 <1>   0.0800 
 44 H        6.2770     4.8930     3.2580 H     1 <1>   0.1500 
 45 H        8.0860    -1.2860    -0.1440 H     1 <1>   0.0800 
 46 H        8.7370    -1.2390     1.4800 H     1 <1>   0.0800 
 47 H       10.8580     0.5920    -1.3840 H     1 <1>   0.0800 
 48 H        9.3710    -0.1880    -1.8750 H     1 <1>   0.0800 
 49 H        4.7870     5.6060    -1.3110 H     1 <1>   0.1500 
 50 H        8.5170     5.8130     3.3100 H     1 <1>   0.1500 
 51 H        9.5180     6.7610     1.2750 H     1 <1>   0.1500 
 52 H        9.3910     7.2970    -1.0890 H     1 <1>   0.1500 
 53 H        5.8480     6.5240    -3.2950 H     1 <1>   0.1500 
 54 H        8.1380     7.3610    -3.2040 H     1 <1>   0.1500 
@<TRIPOS>BOND
  1   1   2  2   
  2   2   3  am  
  3   2   4  am  
  4   3   5  1   
  5   3   6  1   
  6   4   7  am  
  7   4  31  1   
  8   5   8  1   
  9   5   9  2   
 10   6  32  1   
 11   6  33  1   
 12   6  34  1   
 13   7   9  1   
 14   7  10  2   
 15   8  11  ar  
 16   8  35  1   
 17   9  12  1   
 18  11  12  ar  
 19  11  13  1   
 20  12  14  1   
 21  13  15  1   
 22  13  36  1   
 23  13  37  1   
 24  14  16  1   
 25  14  38  1   
 26  14  39  1   
 27  15  17  1   
 28  15  18  1   
 29  16  19  ar  
 30  16  20  ar  
 31  17  21  1   
 32  17  40  1   
 33  17  41  1   
 34  18  22  1   
 35  18  42  1   
 36  18  43  1   
 37  19  23  ar  
 38  19  24  ar  
 39  20  25  ar  
 40  20  44  1   
 41  21  26  1   
 42  21  45  1   
 43  21  46  1   
 44  22  26  1   
 45  22  47  1   
 46  22  48  1   
 47  23  27  ar  
 48  23  28  ar  
 49  24  29  ar  
 50  24  49  1   
 51  25  27  ar  
 52  25  50  1   
 53  27  51  1   
 54  28  30  ar  
 55  28  52  1   
 56  29  30  ar  
 57  29  53  1   
 58  30  54  1   
@<TRIPOS>SUBSTRUCTURE
  1 ****  11 GROUP 4 **** **** 0

# MOE 2024.06 (io_trps.svl 2023.06)
