@<TRIPOS>MOLECULE
3-(5,7-Dimethyl-[1,2,4]triazolo[1,5-a]pyrimidin-2-ylsulfanyl)-pentane-2,4-dione
33 34 1 0 0 
SMALL
USER_CHARGES


@<TRIPOS>ATOM
  1 S        0.1340     1.2230    -0.8580 S.3   1 <1>  -0.2850 
  2 C       -1.6300     1.2040    -0.5660 C.2   1 <1>   0.5710 
  3 C        0.6350    -0.5270    -0.4720 C.3   1 <1>   0.2720 
  4 N       -2.3210     2.2920    -0.6190 N.2   1 <1>  -0.7070 
  5 N       -2.2310     0.0520    -0.2980 N.2   1 <1>  -0.5650 
  6 C        0.4880    -0.8190     1.0130 C.2   1 <1>   0.4480 
  7 C        2.0650    -0.7820    -0.9110 C.2   1 <1>   0.4480 
  8 N       -3.5310     1.8200    -0.3410 N.pl3 1 <1>   0.6010 
  9 C       -3.4490     0.4660    -0.1530 C.2   1 <1>   0.3130 
 10 O        0.9180    -0.0900     1.8580 O.2   1 <1>  -0.5700 
 11 C       -0.1970    -2.1150     1.3950 C.3   1 <1>  -0.1790 
 12 O        2.3460    -1.7800    -1.5040 O.2   1 <1>  -0.5700 
 13 C        3.1410     0.2350    -0.5760 C.3   1 <1>  -0.1790 
 14 C       -4.7520     2.4670    -0.2280 C.2   1 <1>  -0.1690 
 15 N       -4.5310    -0.3210     0.1490 N.2   1 <1>  -0.5760 
 16 C       -5.8260     1.6880     0.0720 C.2   1 <1>  -0.1360 
 17 C       -4.8080     3.9740    -0.4410 C.3   1 <1>  -0.1020 
 18 C       -5.6680     0.2840     0.2540 C.2   1 <1>   0.3750 
 19 C       -6.8950    -0.5350     0.5870 C.3   1 <1>  -0.1790 
 20 H       -0.0220    -1.1590    -1.0390 H     1 <1>   0.0800 
 21 H       -0.2030    -2.2200     2.4650 H     1 <1>   0.0800 
 22 H       -1.2140    -2.1140     1.0460 H     1 <1>   0.0800 
 23 H        0.3260    -2.9490     0.9660 H     1 <1>   0.0800 
 24 H        4.1090    -0.1800    -0.7890 H     1 <1>   0.0800 
 25 H        3.0120     1.1210    -1.1700 H     1 <1>   0.0800 
 26 H        3.1010     0.4980     0.4650 H     1 <1>   0.0800 
 27 H       -6.8130     2.1010     0.1810 H     1 <1>   0.1500 
 28 H       -4.1730     4.4710     0.2710 H     1 <1>   0.0800 
 29 H       -5.8110     4.3420    -0.3230 H     1 <1>   0.0800 
 30 H       -4.4660     4.2190    -1.4320 H     1 <1>   0.0800 
 31 H       -7.6250    -0.4360    -0.1950 H     1 <1>   0.0800 
 32 H       -7.3200    -0.1980     1.5150 H     1 <1>   0.0800 
 33 H       -6.6350    -1.5740     0.6850 H     1 <1>   0.0800 
@<TRIPOS>BOND
  1   1   2  1   
  2   1   3  1   
  3   2   4  2   
  4   2   5  1   
  5   3   6  1   
  6   3   7  1   
  7   3  20  1   
  8   4   8  1   
  9   5   9  2   
 10   6  10  2   
 11   6  11  1   
 12   7  12  2   
 13   7  13  1   
 14   8   9  1   
 15   8  14  1   
 16   9  15  1   
 17  11  21  1   
 18  11  22  1   
 19  11  23  1   
 20  13  24  1   
 21  13  25  1   
 22  13  26  1   
 23  14  16  2   
 24  14  17  1   
 25  15  18  2   
 26  16  18  1   
 27  16  27  1   
 28  17  28  1   
 29  17  29  1   
 30  17  30  1   
 31  18  19  1   
 32  19  31  1   
 33  19  32  1   
 34  19  33  1   
@<TRIPOS>SUBSTRUCTURE
  1 ****   5 GROUP 4 **** **** 0

# MOE 2024.06 (io_trps.svl 2023.06)
