@<TRIPOS>MOLECULE
3-Isopropyl-6-phenoxymethyl-[1,2,4]triazolo[3,4-b][1,3,4]thiadiazole
33 35 1 0 0 
SMALL
USER_CHARGES


@<TRIPOS>ATOM
  1 S       -0.5090     0.1760     1.8780 S.3   1 <1>  -0.1970 
  2 C        0.8570     1.2230     1.5580 C.2   1 <1>   0.2420 
  3 C       -1.4960     1.2320     0.8430 C.2   1 <1>   0.5300 
  4 N        2.0920     1.2660     1.9060 N.2   1 <1>  -0.3380 
  5 N        0.4660     2.1990     0.7570 N.pl3 1 <1>   0.5050 
  6 N       -0.8720     2.2270     0.3480 N.2   1 <1>  -0.6520 
  7 C       -2.9570     0.8510     0.6780 C.3   1 <1>   0.1810 
  8 N        2.5750     2.3630     1.2900 N.2   1 <1>  -0.3380 
  9 C        1.6010     2.9030     0.6150 C.2   1 <1>   0.0060 
 10 O       -3.0580    -0.4100     0.0440 O.3   1 <1>  -0.3630 
 11 C        1.6690     4.1660    -0.2370 C.3   1 <1>   0.1000 
 12 C       -4.2640    -0.9810    -0.1970 C.ar  1 <1>   0.0820 
 13 C        3.0790     4.4010    -0.7930 C.3   1 <1>  -0.2400 
 14 C        1.2180     5.3780     0.5860 C.3   1 <1>  -0.2400 
 15 C       -5.4830    -0.3750     0.0980 C.ar  1 <1>  -0.1500 
 16 C       -4.2500    -2.2410    -0.7730 C.ar  1 <1>  -0.1500 
 17 C       -6.6680    -1.0340    -0.1820 C.ar  1 <1>  -0.1500 
 18 C       -5.4350    -2.8980    -1.0520 C.ar  1 <1>  -0.1500 
 19 C       -6.6450    -2.2940    -0.7560 C.ar  1 <1>  -0.1500 
 20 H       -3.4540     1.5790     0.0630 H     1 <1>   0.0800 
 21 H       -3.4300     0.7880     1.6400 H     1 <1>   0.0800 
 22 H        0.9980     4.0500    -1.0710 H     1 <1>   0.0800 
 23 H        3.7800     4.5510     0.0100 H     1 <1>   0.0800 
 24 H        3.0930     5.2660    -1.4310 H     1 <1>   0.0800 
 25 H        3.3950     3.5470    -1.3650 H     1 <1>   0.0800 
 26 H        1.8630     5.5090     1.4380 H     1 <1>   0.0800 
 27 H        0.2110     5.2360     0.9370 H     1 <1>   0.0800 
 28 H        1.2480     6.2700    -0.0130 H     1 <1>   0.0800 
 29 H       -5.5360     0.6000     0.5420 H     1 <1>   0.1500 
 30 H       -3.3070    -2.7050    -1.0000 H     1 <1>   0.1500 
 31 H       -7.6110    -0.5680     0.0450 H     1 <1>   0.1500 
 32 H       -5.4170    -3.8770    -1.4990 H     1 <1>   0.1500 
 33 H       -7.5680    -2.8030    -0.9730 H     1 <1>   0.1500 
@<TRIPOS>BOND
  1   1   2  1   
  2   1   3  1   
  3   2   4  2   
  4   2   5  1   
  5   3   6  2   
  6   3   7  1   
  7   4   8  1   
  8   5   6  1   
  9   5   9  1   
 10   7  10  1   
 11   7  20  1   
 12   7  21  1   
 13   8   9  2   
 14   9  11  1   
 15  10  12  1   
 16  11  13  1   
 17  11  14  1   
 18  11  22  1   
 19  12  15  ar  
 20  12  16  ar  
 21  13  23  1   
 22  13  24  1   
 23  13  25  1   
 24  14  26  1   
 25  14  27  1   
 26  14  28  1   
 27  15  17  ar  
 28  15  29  1   
 29  16  18  ar  
 30  16  30  1   
 31  17  19  ar  
 32  17  31  1   
 33  18  19  ar  
 34  18  32  1   
 35  19  33  1   
@<TRIPOS>SUBSTRUCTURE
  1 ****   3 GROUP 4 **** **** 0

# MOE 2024.06 (io_trps.svl 2023.06)
