@<TRIPOS>MOLECULE
3,4-Dimethoxy-N-(2-morpholin-4-yl-5-trifluoromethyl-phenyl)-benzamide
50 52 1 0 0 
SMALL
USER_CHARGES


@<TRIPOS>ATOM
  1 F       -0.3180     0.1280    -0.7060 F     1 <1>  -0.3400 
  2 C        0.9750     0.3800    -0.5340 C.3   1 <1>   1.1640 
  3 F        1.5990    -0.1870    -1.5580 F     1 <1>  -0.3400 
  4 F        1.3410    -0.2950     0.5490 F     1 <1>  -0.3400 
  5 C        1.2880     1.8810    -0.4170 C.ar  1 <1>  -0.1440 
  6 C        2.6090     2.2990    -0.2950 C.ar  1 <1>  -0.1500 
  7 C        0.2870     2.8470    -0.4250 C.ar  1 <1>  -0.1500 
  8 C        2.9350     3.6430    -0.1860 C.ar  1 <1>   0.1170 
  9 C        0.6020     4.1910    -0.3180 C.ar  1 <1>  -0.1500 
 10 N        4.2420     4.1320    -0.0560 N.am  1 <1>  -0.5470 
 11 C        1.9200     4.6080    -0.2010 C.ar  1 <1>   0.1000 
 12 C        5.4980     3.5810    -0.0430 C.2   1 <1>   0.5440 
 13 N        2.2450     5.9750    -0.0970 N.pl3 1 <1>  -0.8380 
 14 O        5.6330     2.3730    -0.0950 O.2   1 <1>  -0.5700 
 15 C        6.6570     4.4510     0.0480 C.ar  1 <1>   0.0860 
 16 C        1.9830     6.8420    -1.2900 C.3   1 <1>   0.2090 
 17 C        1.9710     6.6460     1.2130 C.3   1 <1>   0.2090 
 18 C        6.6090     5.7940    -0.3370 C.ar  1 <1>  -0.1500 
 19 C        7.8740     3.9710     0.5340 C.ar  1 <1>  -0.1500 
 20 C        0.7010     7.6830    -1.1450 C.3   1 <1>   0.1200 
 21 C        0.6830     7.4900     1.1850 C.3   1 <1>   0.1200 
 22 C        7.7140     6.6290    -0.2230 C.ar  1 <1>   0.0830 
 23 C        8.9850     4.7850     0.6490 C.ar  1 <1>  -0.1500 
 24 O        0.6710     8.3520     0.0830 O.3   1 <1>  -0.5600 
 25 O        7.6760     7.9450    -0.5840 O.3   1 <1>  -0.3630 
 26 C        8.9170     6.1230     0.2750 C.ar  1 <1>   0.0830 
 27 C        6.5040     8.5600    -1.0710 C.3   1 <1>   0.0400 
 28 O        9.9800     6.9650     0.3750 O.3   1 <1>  -0.3630 
 29 C       11.2380     6.5380     0.8470 C.3   1 <1>   0.0400 
 30 H        3.3940     1.5630    -0.2840 H     1 <1>   0.1500 
 31 H       -0.7490     2.5650    -0.5150 H     1 <1>   0.1500 
 32 H       -0.1840     4.9200    -0.3250 H     1 <1>   0.1500 
 33 H        4.1950     5.1490     0.0470 H     1 <1>   0.3700 
 34 H        1.9090     6.2290    -2.1720 H     1 <1>   0.0800 
 35 H        2.8180     7.5070    -1.4250 H     1 <1>   0.0800 
 36 H        2.8000     7.2880     1.4560 H     1 <1>   0.0800 
 37 H        1.8940     5.9050     1.9900 H     1 <1>   0.0800 
 38 H        5.6920     6.1750    -0.7370 H     1 <1>   0.1500 
 39 H        7.9430     2.9370     0.8280 H     1 <1>   0.1500 
 40 H       -0.1730     7.0600    -1.2200 H     1 <1>   0.0800 
 41 H        0.6570     8.4240    -1.9230 H     1 <1>   0.0800 
 42 H        0.6180     8.0920     2.0730 H     1 <1>   0.0800 
 43 H       -0.1830     6.8550     1.1370 H     1 <1>   0.0800 
 44 H        9.8930     4.3580     1.0310 H     1 <1>   0.1500 
 45 H        6.7290     9.5930    -1.2660 H     1 <1>   0.0800 
 46 H        5.7350     8.4890    -0.3230 H     1 <1>   0.0800 
 47 H        6.2080     8.0730    -1.9830 H     1 <1>   0.0800 
 48 H       11.9050     7.3800     0.8230 H     1 <1>   0.0800 
 49 H       11.6070     5.7610     0.2020 H     1 <1>   0.0800 
 50 H       11.1300     6.1850     1.8570 H     1 <1>   0.0800 
@<TRIPOS>BOND
  1   1   2  1   
  2   2   3  1   
  3   2   4  1   
  4   2   5  1   
  5   5   6  ar  
  6   5   7  ar  
  7   6   8  ar  
  8   6  30  1   
  9   7   9  ar  
 10   7  31  1   
 11   8  10  1   
 12   8  11  ar  
 13   9  11  ar  
 14   9  32  1   
 15  10  12  am  
 16  10  33  1   
 17  11  13  1   
 18  12  14  2   
 19  12  15  1   
 20  13  16  1   
 21  13  17  1   
 22  15  18  ar  
 23  15  19  ar  
 24  16  20  1   
 25  16  34  1   
 26  16  35  1   
 27  17  21  1   
 28  17  36  1   
 29  17  37  1   
 30  18  22  ar  
 31  18  38  1   
 32  19  23  ar  
 33  19  39  1   
 34  20  24  1   
 35  20  40  1   
 36  20  41  1   
 37  21  24  1   
 38  21  42  1   
 39  21  43  1   
 40  22  25  1   
 41  22  26  ar  
 42  23  26  ar  
 43  23  44  1   
 44  25  27  1   
 45  26  28  1   
 46  27  45  1   
 47  27  46  1   
 48  27  47  1   
 49  28  29  1   
 50  29  48  1   
 51  29  49  1   
 52  29  50  1   
@<TRIPOS>SUBSTRUCTURE
  1 ****  10 GROUP 4 **** **** 0

# MOE 2024.06 (io_trps.svl 2023.06)
