@<TRIPOS>MOLECULE
2-[4-(2,3-Dihydro-indole-1-sulfonyl)-2-methyl-phenoxy]-N-(3-hydroxy-propyl)-acet
52 54 1 0 0 
SMALL
USER_CHARGES


@<TRIPOS>ATOM
  1 S       -0.7880    -0.2800    -2.2410 S.o2  1 <1>   1.4470 
  2 O       -0.8590    -1.5570    -2.9150 O.2   1 <1>  -0.6500 
  3 O       -1.4430     0.8800    -2.8010 O.2   1 <1>  -0.6500 
  4 N       -1.4340    -0.5520    -0.6560 N.am  1 <1>  -0.6930 
  5 C        0.9470     0.0970    -1.8730 C.ar  1 <1>  -0.0090 
  6 C       -1.6310     0.4180     0.3110 C.ar  1 <1>   0.1990 
  7 C       -1.1370    -1.8510    -0.0080 C.3   1 <1>   0.1960 
  8 C        1.3050     1.2940    -1.2630 C.ar  1 <1>  -0.1500 
  9 C        1.9580    -0.8120    -2.1670 C.ar  1 <1>  -0.1500 
 10 C       -1.4450    -0.0910     1.5780 C.ar  1 <1>  -0.1440 
 11 C       -1.9750     1.7550     0.1550 C.ar  1 <1>  -0.1500 
 12 C       -1.1130    -1.5620     1.5030 C.3   1 <1>  -0.0160 
 13 C        2.6200     1.5920    -0.9460 C.ar  1 <1>  -0.1430 
 14 C        3.2780    -0.5320    -1.8670 C.ar  1 <1>  -0.1500 
 15 C       -1.5670     0.7030     2.7020 C.ar  1 <1>  -0.1500 
 16 C       -2.1010     2.5630     1.2730 C.ar  1 <1>  -0.1500 
 17 C        3.6110     0.6690    -1.2680 C.ar  1 <1>   0.0820 
 18 C        2.9310     2.9100    -0.2480 C.3   1 <1>  -0.0970 
 19 C       -1.8940     2.0410     2.5420 C.ar  1 <1>  -0.1500 
 20 O        4.9120     0.9060    -1.0090 O.3   1 <1>  -0.3630 
 21 C        5.5730     1.8340    -1.8620 C.3   1 <1>   0.1810 
 22 C        6.2260     2.9490    -1.0570 C.2   1 <1>   0.5690 
 23 O        6.4390     4.0070    -1.5970 O.2   1 <1>  -0.5700 
 24 N        6.5450     2.7270     0.2460 N.am  1 <1>  -0.7300 
 25 C        7.1910     3.6970     1.1530 C.3   1 <1>   0.1400 
 26 C        8.3480     3.0120     1.8750 C.3   1 <1>  -0.1600 
 27 C        9.0510     3.9940     2.8100 C.3   1 <1>   0.1200 
 28 O       10.0970     3.3360     3.4280 O.3   1 <1>  -0.6800 
 29 H       -0.1830    -2.2280    -0.3360 H     1 <1>   0.0800 
 30 H       -1.9090    -2.5590    -0.2550 H     1 <1>   0.0800 
 31 H        0.5320     2.0050    -1.0290 H     1 <1>   0.1500 
 32 H        1.7110    -1.7490    -2.6380 H     1 <1>   0.1500 
 33 H       -2.1520     2.1600    -0.8240 H     1 <1>   0.1500 
 34 H       -0.1390    -1.7570     1.9130 H     1 <1>   0.0800 
 35 H       -1.8500    -2.1520     2.0160 H     1 <1>   0.0800 
 36 H        4.0520    -1.2410    -2.0990 H     1 <1>   0.1500 
 37 H       -1.4140     0.2920     3.6840 H     1 <1>   0.1500 
 38 H       -2.3650     3.6000     1.1570 H     1 <1>   0.1500 
 39 H        2.0440     3.3270     0.1950 H     1 <1>   0.0800 
 40 H        3.3260     3.6190    -0.9520 H     1 <1>   0.0800 
 41 H        3.6510     2.7550     0.5350 H     1 <1>   0.0800 
 42 H       -1.9930     2.6750     3.4060 H     1 <1>   0.1500 
 43 H        4.8640     2.2570    -2.5520 H     1 <1>   0.0800 
 44 H        6.3240     1.3000    -2.4130 H     1 <1>   0.0800 
 45 H        6.2680     1.8280     0.6520 H     1 <1>   0.3700 
 46 H        6.4640     4.0540     1.8630 H     1 <1>   0.0800 
 47 H        7.5560     4.5380     0.5850 H     1 <1>   0.0800 
 48 H        9.0550     2.6590     1.1440 H     1 <1>   0.0800 
 49 H        7.9700     2.1810     2.4440 H     1 <1>   0.0800 
 50 H        8.3840     4.3620     3.5720 H     1 <1>   0.0800 
 51 H        9.4620     4.8240     2.2610 H     1 <1>   0.0800 
 52 H        9.7720     2.5720     3.9420 H     1 <1>   0.4000 
@<TRIPOS>BOND
  1   1   2  2   
  2   1   3  2   
  3   1   4  am  
  4   1   5  1   
  5   4   6  1   
  6   4   7  1   
  7   5   8  ar  
  8   5   9  ar  
  9   6  10  ar  
 10   6  11  ar  
 11   7  12  1   
 12   7  29  1   
 13   7  30  1   
 14   8  13  ar  
 15   8  31  1   
 16   9  14  ar  
 17   9  32  1   
 18  10  12  1   
 19  10  15  ar  
 20  11  16  ar  
 21  11  33  1   
 22  12  34  1   
 23  12  35  1   
 24  13  17  ar  
 25  13  18  1   
 26  14  17  ar  
 27  14  36  1   
 28  15  19  ar  
 29  15  37  1   
 30  16  19  ar  
 31  16  38  1   
 32  17  20  1   
 33  18  39  1   
 34  18  40  1   
 35  18  41  1   
 36  19  42  1   
 37  20  21  1   
 38  21  22  1   
 39  21  43  1   
 40  21  44  1   
 41  22  23  2   
 42  22  24  am  
 43  24  25  1   
 44  24  45  1   
 45  25  26  1   
 46  25  46  1   
 47  25  47  1   
 48  26  27  1   
 49  26  48  1   
 50  26  49  1   
 51  27  28  1   
 52  27  50  1   
 53  27  51  1   
 54  28  52  1   
@<TRIPOS>SUBSTRUCTURE
  1 ****  13 GROUP 4 **** **** 0

# MOE 2024.06 (io_trps.svl 2023.06)
