@<TRIPOS>MOLECULE
2-Fluoro-N-{4-methyl-5-[(2-methyl-cyclohexylcarbamoyl)-methylsulfanyl]-4H-[1,2,4
55 57 1 0 0 
SMALL
USER_CHARGES


@<TRIPOS>ATOM
  1 S       -1.1470    -0.6980     2.9350 S.3   1 <1>  -0.2860 
  2 C       -1.2940     0.1000     1.3300 C.2   1 <1>   0.2420 
  3 C       -0.2000    -2.2630     2.5970 C.3   1 <1>   0.1310 
  4 N       -0.5980    -0.2230     0.2970 N.2   1 <1>  -0.3380 
  5 N       -2.1730     1.0740     1.0950 N.pl3 1 <1>   0.0480 
  6 C       -1.0830    -3.4810     2.8360 C.2   1 <1>   0.5690 
  7 N       -1.0330     0.5560    -0.6940 N.2   1 <1>  -0.3380 
  8 C       -1.9600     1.3160    -0.2110 C.2   1 <1>   0.0060 
  9 C       -3.1300     1.6970     2.0370 C.3   1 <1>   0.0160 
 10 O       -0.9260    -4.1150     3.8490 O.2   1 <1>  -0.5700 
 11 N       -2.0200    -3.8890     1.9440 N.am  1 <1>  -0.7300 
 12 C       -2.7140     2.3380    -1.0450 C.3   1 <1>   0.3200 
 13 C       -2.4280    -3.2650     0.6710 C.3   1 <1>   0.2200 
 14 N       -2.6850     3.6620    -0.3880 N.am  1 <1>  -0.7300 
 15 C       -3.9580    -3.0770     0.6160 C.3   1 <1>  -0.0800 
 16 C       -1.9270    -4.1300    -0.4880 C.3   1 <1>  -0.1600 
 17 C       -3.7430     4.3680     0.0880 C.2   1 <1>   0.5440 
 18 C       -4.3630    -2.4690    -0.7390 C.3   1 <1>  -0.1600 
 19 C       -4.4830    -2.1870     1.7550 C.3   1 <1>  -0.2400 
 20 C       -2.3340    -3.5200    -1.8360 C.3   1 <1>  -0.1600 
 21 O       -3.5030     5.0950     1.0260 O.2   1 <1>  -0.5700 
 22 C       -5.1020     4.2220    -0.3980 C.ar  1 <1>   0.0860 
 23 C       -3.8520    -3.3160    -1.9130 C.3   1 <1>  -0.1600 
 24 C       -5.4370     4.1690    -1.7520 C.ar  1 <1>   0.1900 
 25 C       -6.1660     4.1300     0.5010 C.ar  1 <1>  -0.1500 
 26 F       -4.5010     4.2740    -2.6550 F     1 <1>  -0.1900 
 27 C       -6.7330     4.0100    -2.2060 C.ar  1 <1>  -0.1500 
 28 C       -7.4720     3.9700     0.0690 C.ar  1 <1>  -0.1500 
 29 C       -7.7590     3.9060    -1.2850 C.ar  1 <1>  -0.1500 
 30 H        0.6320    -2.2730     3.2750 H     1 <1>   0.0800 
 31 H        0.1600    -2.2440     1.5870 H     1 <1>   0.0800 
 32 H       -2.7460     2.6500     2.3550 H     1 <1>   0.0800 
 33 H       -3.2690     1.0670     2.8960 H     1 <1>   0.0800 
 34 H       -4.0770     1.8360     1.5490 H     1 <1>   0.0800 
 35 H       -2.5470    -4.7220     2.2080 H     1 <1>   0.3700 
 36 H       -3.7280     2.0040    -1.1800 H     1 <1>   0.0800 
 37 H       -2.2540     2.4170    -2.0160 H     1 <1>   0.0800 
 38 H       -1.9720    -2.3010     0.5810 H     1 <1>   0.0800 
 39 H       -1.7700     3.9360    -0.0240 H     1 <1>   0.3700 
 40 H       -4.4220    -4.0460     0.6980 H     1 <1>   0.0800 
 41 H       -2.3400    -5.1200    -0.4060 H     1 <1>   0.0800 
 42 H       -0.8540    -4.2010    -0.4440 H     1 <1>   0.0800 
 43 H       -3.9540    -1.4760    -0.8230 H     1 <1>   0.0800 
 44 H       -5.4350    -2.3920    -0.7990 H     1 <1>   0.0800 
 45 H       -4.0340    -1.2120     1.7070 H     1 <1>   0.0800 
 46 H       -4.2540    -2.6210     2.7120 H     1 <1>   0.0800 
 47 H       -5.5500    -2.0800     1.6830 H     1 <1>   0.0800 
 48 H       -2.0130    -4.1650    -2.6370 H     1 <1>   0.0800 
 49 H       -1.8390    -2.5700    -1.9600 H     1 <1>   0.0800 
 50 H       -4.1020    -2.8320    -2.8420 H     1 <1>   0.0800 
 51 H       -4.3420    -4.2750    -1.9010 H     1 <1>   0.0800 
 52 H       -5.9610     4.1910     1.5570 H     1 <1>   0.1500 
 53 H       -6.9340     3.9720    -3.2620 H     1 <1>   0.1500 
 54 H       -8.2720     3.9000     0.7880 H     1 <1>   0.1500 
 55 H       -8.7770     3.7830    -1.6170 H     1 <1>   0.1500 
@<TRIPOS>BOND
  1   1   2  1   
  2   1   3  1   
  3   2   4  2   
  4   2   5  1   
  5   3   6  1   
  6   3  30  1   
  7   3  31  1   
  8   4   7  1   
  9   5   8  1   
 10   5   9  1   
 11   6  10  2   
 12   6  11  am  
 13   7   8  2   
 14   8  12  1   
 15   9  32  1   
 16   9  33  1   
 17   9  34  1   
 18  11  13  1   
 19  11  35  1   
 20  12  14  1   
 21  12  36  1   
 22  12  37  1   
 23  13  15  1   
 24  13  16  1   
 25  13  38  1   
 26  14  17  am  
 27  14  39  1   
 28  15  18  1   
 29  15  19  1   
 30  15  40  1   
 31  16  20  1   
 32  16  41  1   
 33  16  42  1   
 34  17  21  2   
 35  17  22  1   
 36  18  23  1   
 37  18  43  1   
 38  18  44  1   
 39  19  45  1   
 40  19  46  1   
 41  19  47  1   
 42  20  23  1   
 43  20  48  1   
 44  20  49  1   
 45  22  24  ar  
 46  22  25  ar  
 47  23  50  1   
 48  23  51  1   
 49  24  26  1   
 50  24  27  ar  
 51  25  28  ar  
 52  25  52  1   
 53  27  29  ar  
 54  27  53  1   
 55  28  29  ar  
 56  28  54  1   
 57  29  55  1   
@<TRIPOS>SUBSTRUCTURE
  1 ****   5 GROUP 4 **** **** 0

# MOE 2024.06 (io_trps.svl 2023.06)
