@<TRIPOS>MOLECULE
8-sec-Butyl-1,3,6,7-tetramethyl-1H,8H-imidazo[2,1-f]purine-2,4-dione
44 46 1 0 0 
SMALL
USER_CHARGES


@<TRIPOS>ATOM
  1 O        0.6930     0.0930    -0.6520 O.2   1 <1>  -0.5750 
  2 C        1.6760     0.7860    -0.4830 C.2   1 <1>   0.6860 
  3 N        1.5390     2.1590    -0.3060 N.am  1 <1>  -0.4260 
  4 N        2.9370     0.2010    -0.4660 N.am  1 <1>  -0.4420 
  5 C        2.6490     2.9780    -0.1290 C.2   1 <1>   0.6990 
  6 C        0.1690     2.7610    -0.3410 C.3   1 <1>   0.0510 
  7 C        4.0300     1.0170    -0.2520 C.2   1 <1>   0.4200 
  8 C        3.0960    -1.2720    -0.6540 C.3   1 <1>   0.0510 
  9 O        2.5190     4.1850    -0.0120 O.2   1 <1>  -0.5750 
 10 C        3.9350     2.3590    -0.0890 C.2   1 <1>   0.2700 
 11 N        5.3400     0.6420    -0.1700 N.pl3 1 <1>  -0.7040 
 12 N        5.2490     2.8240     0.0960 N.pl3 1 <1>  -0.6340 
 13 C        6.0410     1.7630     0.0410 C.cat 1 <1>   1.0690 
 14 C        6.0610     3.9170     0.3120 C.2   1 <1>   0.2330 
 15 N        7.3270     2.0890     0.2100 N.pl3 1 <1>  -0.5720 
 16 C        7.3370     3.4670     0.3820 C.2   1 <1>   0.1570 
 17 C        5.4690     5.3090     0.4270 C.3   1 <1>  -0.1100 
 18 C        8.4950     1.1770     0.2090 C.3   1 <1>   0.2400 
 19 C        8.6250     4.2430     0.6030 C.3   1 <1>  -0.1100 
 20 C        8.6320     0.5180    -1.1730 C.3   1 <1>  -0.1680 
 21 C        8.3470     0.1670     1.3500 C.3   1 <1>  -0.2480 
 22 C        9.9310    -0.2840    -1.3270 C.3   1 <1>  -0.2480 
 23 H       -0.5420     2.0980     0.1220 H     1 <1>   0.0710 
 24 H       -0.1250     2.9280    -1.3620 H     1 <1>   0.0710 
 25 H        0.1450     3.6980     0.1880 H     1 <1>   0.0710 
 26 H        2.2570    -1.6770    -1.1960 H     1 <1>   0.0710 
 27 H        3.1500    -1.7560     0.3050 H     1 <1>   0.0710 
 28 H        3.9870    -1.4860    -1.2170 H     1 <1>   0.0710 
 29 H        5.7430    -0.2880    -0.2370 H     1 <1>   0.4440 
 30 H        4.7740     5.3460     1.2470 H     1 <1>   0.0710 
 31 H        4.9450     5.5610    -0.4770 H     1 <1>   0.0710 
 32 H        6.2340     6.0430     0.5950 H     1 <1>   0.0710 
 33 H        9.3870     1.7530     0.3920 H     1 <1>   0.0710 
 34 H        9.2870     4.1070    -0.2330 H     1 <1>   0.0710 
 35 H        9.1150     3.8990     1.4970 H     1 <1>   0.0710 
 36 H        8.4290     5.2940     0.7100 H     1 <1>   0.0710 
 37 H        8.6330     1.2880    -1.9250 H     1 <1>   0.0710 
 38 H        7.8040    -0.1400    -1.3650 H     1 <1>   0.0710 
 39 H        7.5530    -0.5320     1.1660 H     1 <1>   0.0710 
 40 H        8.1690     0.6790     2.2800 H     1 <1>   0.0710 
 41 H        9.2590    -0.3910     1.4620 H     1 <1>   0.0710 
 42 H       10.7870     0.3360    -1.1230 H     1 <1>   0.0710 
 43 H       10.0180    -0.6520    -2.3350 H     1 <1>   0.0710 
 44 H        9.9500    -1.1300    -0.6620 H     1 <1>   0.0710 
@<TRIPOS>BOND
  1   1   2  2   
  2   2   3  am  
  3   2   4  am  
  4   3   5  am  
  5   3   6  1   
  6   4   7  1   
  7   4   8  1   
  8   5   9  2   
  9   5  10  1   
 10   6  23  1   
 11   6  24  1   
 12   6  25  1   
 13   7  10  2   
 14   7  11  1   
 15   8  26  1   
 16   8  27  1   
 17   8  28  1   
 18  10  12  1   
 19  11  13  ar  
 20  11  29  1   
 21  12  13  ar  
 22  12  14  1   
 23  13  15  ar  
 24  14  16  2   
 25  14  17  1   
 26  15  16  1   
 27  15  18  1   
 28  16  19  1   
 29  17  30  1   
 30  17  31  1   
 31  17  32  1   
 32  18  20  1   
 33  18  21  1   
 34  18  33  1   
 35  19  34  1   
 36  19  35  1   
 37  19  36  1   
 38  20  22  1   
 39  20  37  1   
 40  20  38  1   
 41  21  39  1   
 42  21  40  1   
 43  21  41  1   
 44  22  42  1   
 45  22  43  1   
 46  22  44  1   
@<TRIPOS>SUBSTRUCTURE
  1 ****  12 GROUP 4 **** **** 0

# MOE 2024.06 (io_trps.svl 2023.06)
