@<TRIPOS>MOLECULE
Piperazine-1-carboxylic acid (2-methoxy-phenyl)-amide
35 36 1 0 0 
SMALL
USER_CHARGES


@<TRIPOS>ATOM
  1 O        0.5570    -0.4110    -0.1000 O.2   1 <1>  -0.5700 
  2 C        0.2240    -1.4470     0.4410 C.2   1 <1>   0.6900 
  3 N        1.1980    -2.2790     0.9140 N.am  1 <1>  -0.6600 
  4 N       -1.0670    -1.8610     0.5340 N.am  1 <1>  -0.5470 
  5 C        2.4640    -1.6570     1.3990 C.3   1 <1>   0.1400 
  6 C        1.4100    -3.5620     0.1870 C.3   1 <1>   0.1400 
  7 C       -2.2820    -1.4020    -0.0030 C.ar  1 <1>   0.1170 
  8 C        3.4180    -1.4140     0.2120 C.3   1 <1>   0.3430 
  9 C        2.3620    -3.3310    -1.0060 C.3   1 <1>   0.3430 
 10 C       -3.4100    -2.2170     0.1460 C.ar  1 <1>   0.0820 
 11 C       -2.4150    -0.1870    -0.6660 C.ar  1 <1>  -0.1500 
 12 N        3.6490    -2.6710    -0.5850 N.4   1 <1>  -0.9060 
 13 O       -3.2390    -3.4030     0.8070 O.3   1 <1>  -0.3620 
 14 C       -4.6370    -1.8100    -0.3690 C.ar  1 <1>  -0.1500 
 15 C       -3.6380     0.2120    -1.1760 C.ar  1 <1>  -0.1500 
 16 C       -4.3360    -4.2450     1.0870 C.3   1 <1>   0.0400 
 17 C       -4.7480    -0.5980    -1.0290 C.ar  1 <1>  -0.1500 
 18 H       -1.1970    -2.6920     1.1080 H     1 <1>   0.3700 
 19 H        2.9270    -2.2950     2.1320 H     1 <1>   0.0800 
 20 H        2.2420    -0.7160     1.8760 H     1 <1>   0.0800 
 21 H        0.4680    -3.9380    -0.1780 H     1 <1>   0.0800 
 22 H        1.8190    -4.2970     0.8590 H     1 <1>   0.0800 
 23 H        4.3550    -1.0260     0.5780 H     1 <1>   0.0800 
 24 H        2.9740    -0.6600    -0.4210 H     1 <1>   0.0800 
 25 H        1.8540    -2.7010    -1.7200 H     1 <1>   0.0800 
 26 H        2.5690    -4.2730    -1.4870 H     1 <1>   0.0800 
 27 H       -1.5700     0.4630    -0.7880 H     1 <1>   0.1500 
 28 H        4.2020    -3.3290    -0.0230 H     1 <1>   0.4500 
 29 H        4.2030    -2.4420    -1.4210 H     1 <1>   0.4500 
 30 H       -5.5180    -2.4160    -0.2720 H     1 <1>   0.1500 
 31 H       -3.7230     1.1560    -1.6870 H     1 <1>   0.1500 
 32 H       -4.7700    -4.5770     0.1600 H     1 <1>   0.0800 
 33 H       -5.0540    -3.7010     1.6760 H     1 <1>   0.0800 
 34 H       -3.9770    -5.0920     1.6440 H     1 <1>   0.0800 
 35 H       -5.6980    -0.2850    -1.4270 H     1 <1>   0.1500 
@<TRIPOS>BOND
  1   1   2  2   
  2   2   3  am  
  3   2   4  am  
  4   3   5  1   
  5   3   6  1   
  6   4   7  1   
  7   4  18  1   
  8   5   8  1   
  9   5  19  1   
 10   5  20  1   
 11   6   9  1   
 12   6  21  1   
 13   6  22  1   
 14   7  10  ar  
 15   7  11  ar  
 16   8  12  1   
 17   8  23  1   
 18   8  24  1   
 19   9  12  1   
 20   9  25  1   
 21   9  26  1   
 22  10  13  1   
 23  10  14  ar  
 24  11  15  ar  
 25  11  27  1   
 26  12  28  1   
 27  12  29  1   
 28  13  16  1   
 29  14  17  ar  
 30  14  30  1   
 31  15  17  ar  
 32  15  31  1   
 33  16  32  1   
 34  16  33  1   
 35  16  34  1   
 36  17  35  1   
@<TRIPOS>SUBSTRUCTURE
  1 ****   4 GROUP 4 **** **** 0

# MOE 2024.06 (io_trps.svl 2023.06)
