@<TRIPOS>MOLECULE
1-[3-(4-Fluoro-phenyl)-2,5-dimethyl-pyrazolo[1,5-a]pyrimidin-7-yl]-piperidin-3-o
47 50 1 0 0 
SMALL
USER_CHARGES


@<TRIPOS>ATOM
  1 F       -0.5940    -0.0460    -0.4560 F     1 <1>  -0.1900 
  2 C       -1.8860     0.0740    -0.3080 C.ar  1 <1>   0.1900 
  3 C       -2.5740     0.9510    -1.1240 C.ar  1 <1>  -0.1500 
  4 C       -2.5200    -0.6820     0.6590 C.ar  1 <1>  -0.1500 
  5 C       -3.9430     1.0720    -0.9610 C.ar  1 <1>  -0.1500 
  6 C       -3.8890    -0.5490     0.8090 C.ar  1 <1>  -0.1500 
  7 C       -4.6210     0.3270     0.0050 C.ar  1 <1>   0.0540 
  8 C       -6.0460     0.4520     0.1700 C.2   1 <1>  -0.0540 
  9 C       -6.9940    -0.5150     0.0470 C.2   1 <1>  -0.0680 
 10 C       -6.7790     1.5930     0.5160 C.2   1 <1>   0.1080 
 11 N       -6.9020    -1.8750    -0.2210 N.pl3 1 <1>  -0.5840 
 12 N       -8.2200     0.0580     0.2770 N.pl3 1 <1>   0.5610 
 13 N       -8.0520     1.3770     0.5940 N.2   1 <1>  -0.7070 
 14 C       -6.1760     2.9540     0.7950 C.3   1 <1>  -0.0590 
 15 C       -8.0010    -2.6490    -0.2100 C.2   1 <1>  -0.0380 
 16 C       -9.3940    -0.7040     0.2860 C.cat 1 <1>   0.3950 
 17 C       -9.2290    -2.0850     0.0440 C.2   1 <1>  -0.1360 
 18 C       -7.8140    -4.1260    -0.4930 C.3   1 <1>  -0.1020 
 19 N      -10.6140    -0.1430     0.5220 N.pl3 1 <1>  -0.0920 
 20 C      -10.9840     1.2820     0.2060 C.3   1 <1>   0.1860 
 21 C      -11.7460    -0.8930     1.1550 C.3   1 <1>   0.1860 
 22 C      -12.2500     1.3370    -0.6660 C.3   1 <1>   0.2000 
 23 C      -12.9810    -0.8930     0.2460 C.3   1 <1>  -0.1600 
 24 O      -12.6430     2.6500    -0.8040 O.3   1 <1>  -0.6800 
 25 C      -13.4210     0.5410    -0.0830 C.3   1 <1>  -0.1600 
 26 H       -2.0450     1.5220    -1.8670 H     1 <1>   0.1500 
 27 H       -1.9500    -1.3530     1.2760 H     1 <1>   0.1500 
 28 H       -4.4960     1.7460    -1.5900 H     1 <1>   0.1500 
 29 H       -4.4020    -1.1240     1.5610 H     1 <1>   0.1500 
 30 H       -5.9690    -2.2680    -0.4230 H     1 <1>   0.4000 
 31 H       -5.2180     2.8480     1.2700 H     1 <1>   0.0800 
 32 H       -6.8220     3.5160     1.4450 H     1 <1>   0.0800 
 33 H       -6.0550     3.4940    -0.1260 H     1 <1>   0.0800 
 34 H      -10.0850    -2.7320     0.0260 H     1 <1>   0.1500 
 35 H       -7.1560    -4.5610     0.2380 H     1 <1>   0.0800 
 36 H       -7.3820    -4.2620    -1.4690 H     1 <1>   0.0800 
 37 H       -8.7520    -4.6510    -0.4620 H     1 <1>   0.0800 
 38 H      -10.2080     1.7710    -0.3530 H     1 <1>   0.0800 
 39 H      -11.1400     1.8170     1.1260 H     1 <1>   0.0800 
 40 H      -11.9940    -0.4100     2.0860 H     1 <1>   0.0800 
 41 H      -11.4640    -1.9030     1.3930 H     1 <1>   0.0800 
 42 H      -12.0130     0.9770    -1.6540 H     1 <1>   0.0800 
 43 H      -13.7890    -1.4060     0.7420 H     1 <1>   0.0800 
 44 H      -12.7670    -1.4320    -0.6620 H     1 <1>   0.0800 
 45 H      -13.2610     2.9280    -0.0990 H     1 <1>   0.4000 
 46 H      -14.2280     0.5140    -0.7960 H     1 <1>   0.0800 
 47 H      -13.7770     1.0140     0.8170 H     1 <1>   0.0800 
@<TRIPOS>BOND
  1   1   2  1   
  2   2   3  ar  
  3   2   4  ar  
  4   3   5  ar  
  5   3  26  1   
  6   4   6  ar  
  7   4  27  1   
  8   5   7  ar  
  9   5  28  1   
 10   6   7  ar  
 11   6  29  1   
 12   7   8  1   
 13   8   9  2   
 14   8  10  1   
 15   9  11  1   
 16   9  12  1   
 17  10  13  2   
 18  10  14  1   
 19  11  15  1   
 20  11  30  1   
 21  12  13  1   
 22  12  16  ar  
 23  14  31  1   
 24  14  32  1   
 25  14  33  1   
 26  15  17  2   
 27  15  18  1   
 28  16  17  1   
 29  16  19  ar  
 30  17  34  1   
 31  18  35  1   
 32  18  36  1   
 33  18  37  1   
 34  19  20  1   
 35  19  21  1   
 36  20  22  1   
 37  20  38  1   
 38  20  39  1   
 39  21  23  1   
 40  21  40  1   
 41  21  41  1   
 42  22  24  1   
 43  22  25  1   
 44  22  42  1   
 45  23  25  1   
 46  23  43  1   
 47  23  44  1   
 48  24  45  1   
 49  25  46  1   
 50  25  47  1   
@<TRIPOS>SUBSTRUCTURE
  1 ****   9 GROUP 4 **** **** 0

# MOE 2024.06 (io_trps.svl 2023.06)
