@<TRIPOS>MOLECULE
8-(4-Ethyl-phenyl)-1,7-dimethyl-3-(2-oxo-propyl)-1H,8H-imidazo[2,1-f]purine-2,4-
50 53 1 0 0 
SMALL
USER_CHARGES


@<TRIPOS>ATOM
  1 O        0.7210    -0.0480     0.0620 O.2   1 <1>  -0.5750 
  2 C        1.7040     0.6190     0.3140 C.2   1 <1>   0.6860 
  3 N        1.5540     1.9340     0.7330 N.am  1 <1>  -0.4260 
  4 N        2.9730     0.0700     0.1740 N.am  1 <1>  -0.4420 
  5 C        2.6500     2.7120     1.0670 C.2   1 <1>   0.6990 
  6 C        0.3110     2.6570     0.3150 C.3   1 <1>   0.1940 
  7 C        4.0620     0.8880     0.3990 C.2   1 <1>   0.4200 
  8 C        3.1430    -1.3360    -0.2980 C.3   1 <1>   0.0520 
  9 O        2.4980     3.8280     1.5380 O.2   1 <1>  -0.5750 
 10 C        3.9460     2.1660     0.8390 C.2   1 <1>   0.2700 
 11 C        0.4720     3.2060    -1.1030 C.2   1 <1>   0.4430 
 12 N        5.3840     0.5890     0.2270 N.pl3 1 <1>  -0.7040 
 13 N        5.2520     2.6650     0.9500 N.pl3 1 <1>  -0.6330 
 14 O        1.5170     3.1540    -1.6860 O.2   1 <1>  -0.5750 
 15 C       -0.7520     3.8260    -1.7400 C.3   1 <1>  -0.1860 
 16 C        6.0620     1.6910     0.5630 C.cat 1 <1>   1.0690 
 17 C        6.0480     3.7540     1.2500 C.2   1 <1>   0.2220 
 18 N        7.3450     2.0650     0.5990 N.pl3 1 <1>  -0.5550 
 19 C        7.3300     3.3840     1.0360 C.2   1 <1>   0.1580 
 20 C        8.4430     1.2680     0.2440 C.ar  1 <1>   0.3050 
 21 C        8.6110     4.1780     1.2040 C.3   1 <1>  -0.1090 
 22 C        9.0590     0.4660     1.1920 C.ar  1 <1>  -0.1570 
 23 C        8.9050     1.2580    -1.0630 C.ar  1 <1>  -0.1570 
 24 C       10.1180    -0.3480     0.8340 C.ar  1 <1>  -0.1570 
 25 C        9.9650     0.4440    -1.4210 C.ar  1 <1>  -0.1570 
 26 C       10.5740    -0.3640    -0.4740 C.ar  1 <1>  -0.1510 
 27 C       11.7380    -1.2600    -0.8680 C.3   1 <1>  -0.0250 
 28 C       11.2330    -2.6320    -1.3170 C.3   1 <1>  -0.2470 
 29 H        0.1150     3.4700     0.9920 H     1 <1>   0.0720 
 30 H       -0.5340     1.9930     0.3480 H     1 <1>   0.0720 
 31 H        2.2850    -1.9290    -0.0270 H     1 <1>   0.0720 
 32 H        4.0120    -1.7830     0.1500 H     1 <1>   0.0720 
 33 H        3.2420    -1.3480    -1.3700 H     1 <1>   0.0720 
 34 H        5.8060    -0.2700    -0.1190 H     1 <1>   0.4450 
 35 H       -1.5360     3.0950    -1.8200 H     1 <1>   0.0720 
 36 H       -0.5080     4.1790    -2.7260 H     1 <1>   0.0720 
 37 H       -1.0950     4.6560    -1.1510 H     1 <1>   0.0720 
 38 H        5.6400     4.6950     1.5870 H     1 <1>   0.1430 
 39 H        9.2540     3.6980     1.9210 H     1 <1>   0.0720 
 40 H        8.3950     5.1740     1.5500 H     1 <1>   0.0720 
 41 H        9.1320     4.2460     0.2650 H     1 <1>   0.0720 
 42 H        8.7170     0.4740     2.2110 H     1 <1>   0.1430 
 43 H        8.4430     1.8840    -1.8050 H     1 <1>   0.1430 
 44 H       10.5930    -0.9710     1.5740 H     1 <1>   0.1430 
 45 H       10.3190     0.4370    -2.4380 H     1 <1>   0.1430 
 46 H       12.4070    -1.3780    -0.0330 H     1 <1>   0.0720 
 47 H       12.2960    -0.8030    -1.6680 H     1 <1>   0.0720 
 48 H       10.6920    -3.1090    -0.5190 H     1 <1>   0.0720 
 49 H       12.0630    -3.2580    -1.5930 H     1 <1>   0.0720 
 50 H       10.5810    -2.5300    -2.1650 H     1 <1>   0.0720 
@<TRIPOS>BOND
  1   1   2  2   
  2   2   3  am  
  3   2   4  am  
  4   3   5  am  
  5   3   6  1   
  6   4   7  1   
  7   4   8  1   
  8   5   9  2   
  9   5  10  1   
 10   6  11  1   
 11   6  29  1   
 12   6  30  1   
 13   7  10  2   
 14   7  12  1   
 15   8  31  1   
 16   8  32  1   
 17   8  33  1   
 18  10  13  1   
 19  11  14  2   
 20  11  15  1   
 21  12  16  ar  
 22  12  34  1   
 23  13  16  ar  
 24  13  17  1   
 25  15  35  1   
 26  15  36  1   
 27  15  37  1   
 28  16  18  ar  
 29  17  19  2   
 30  17  38  1   
 31  18  19  1   
 32  18  20  1   
 33  19  21  1   
 34  20  22  ar  
 35  20  23  ar  
 36  21  39  1   
 37  21  40  1   
 38  21  41  1   
 39  22  24  ar  
 40  22  42  1   
 41  23  25  ar  
 42  23  43  1   
 43  24  26  ar  
 44  24  44  1   
 45  25  26  ar  
 46  25  45  1   
 47  26  27  1   
 48  27  28  1   
 49  27  46  1   
 50  27  47  1   
 51  28  48  1   
 52  28  49  1   
 53  28  50  1   
@<TRIPOS>SUBSTRUCTURE
  1 ****  16 GROUP 4 **** **** 0

# MOE 2024.06 (io_trps.svl 2023.06)
