@<TRIPOS>MOLECULE
1-(4-Hydroxy-6-methyl-quinolin-3-yl)-3-(3-morpholin-4-yl-propyl)-urea
50 52 1 0 0 
SMALL
USER_CHARGES


@<TRIPOS>ATOM
  1 O       -1.5480     0.4400    -0.6830 O.2   1 <1>  -0.5700 
  2 C       -1.0400     0.9710    -1.6530 C.2   1 <1>   0.6900 
  3 N        0.3010     1.0730    -1.7840 N.am  1 <1>  -0.5390 
  4 N       -1.8270     1.5950    -2.5610 N.am  1 <1>  -0.7300 
  5 C        1.2670     0.8010    -0.7800 C.2   1 <1>   0.1230 
  6 C       -3.3060     1.4910    -2.6300 C.3   1 <1>   0.1400 
  7 C        2.1970     1.8410    -0.4540 C.2   1 <1>   0.4690 
  8 C        1.3250    -0.3910    -0.1280 C.2   1 <1>  -0.0500 
  9 C       -3.9720     2.7680    -2.0970 C.3   1 <1>  -0.1600 
 10 O        2.0920     2.9380    -1.0040 O.2   1 <1>  -0.5700 
 11 C        3.2070     1.5830     0.5400 C.ar  1 <1>   0.0860 
 12 N        2.2790    -0.6230     0.8410 N.pl3 1 <1>  -0.6000 
 13 C       -4.1930     2.8010    -0.5770 C.3   1 <1>   0.3430 
 14 C        3.2230     0.3340     1.1810 C.ar  1 <1>   0.1000 
 15 C        4.1750     2.5270     0.9040 C.ar  1 <1>  -0.1500 
 16 N       -2.9230     2.7080     0.1830 N.4   1 <1>  -0.9590 
 17 C        4.1860     0.0650     2.1520 C.ar  1 <1>  -0.1500 
 18 C        5.1250     2.2540     1.8650 C.ar  1 <1>  -0.1430 
 19 C       -3.1400     2.3920     1.6320 C.3   1 <1>   0.3430 
 20 C       -2.0170     3.8970     0.0190 C.3   1 <1>   0.3430 
 21 C        5.1250     1.0130     2.4910 C.ar  1 <1>  -0.1500 
 22 C        6.1690     3.2860     2.2530 C.3   1 <1>  -0.0970 
 23 C       -1.8020     2.3130     2.3900 C.3   1 <1>   0.1200 
 24 C       -0.7430     3.7600     0.8760 C.3   1 <1>   0.1200 
 25 O       -1.0780     3.4960     2.2080 O.3   1 <1>  -0.5600 
 26 H        0.6220     1.7780    -2.4480 H     1 <1>   0.3700 
 27 H       -1.3850     1.8850    -3.4370 H     1 <1>   0.3700 
 28 H       -3.6480     0.6260    -2.0830 H     1 <1>   0.0800 
 29 H       -3.5830     1.3490    -3.6620 H     1 <1>   0.0800 
 30 H        0.6310    -1.1870    -0.3470 H     1 <1>   0.1500 
 31 H       -4.9500     2.8210    -2.5420 H     1 <1>   0.0800 
 32 H       -3.4410     3.6410    -2.4320 H     1 <1>   0.0800 
 33 H        2.3130    -1.5330     1.3170 H     1 <1>   0.4000 
 34 H       -4.8250     1.9700    -0.3070 H     1 <1>   0.0800 
 35 H       -4.7080     3.7080    -0.3060 H     1 <1>   0.0800 
 36 H        4.1650     3.4860     0.4130 H     1 <1>   0.1500 
 37 H       -2.4080     1.8870    -0.1990 H     1 <1>   0.4500 
 38 H        4.1930    -0.8920     2.6400 H     1 <1>   0.1500 
 39 H       -3.6540     1.4490     1.7280 H     1 <1>   0.0800 
 40 H       -3.7480     3.1550     2.0880 H     1 <1>   0.0800 
 41 H       -2.5340     4.7940     0.3180 H     1 <1>   0.0800 
 42 H       -1.7330     4.0030    -1.0150 H     1 <1>   0.0800 
 43 H        5.8650     0.7950     3.2430 H     1 <1>   0.1500 
 44 H        6.0380     4.1960     1.6950 H     1 <1>   0.0800 
 45 H        7.1530     2.9030     2.0550 H     1 <1>   0.0800 
 46 H        6.0880     3.5140     3.3000 H     1 <1>   0.0800 
 47 H       -1.2080     1.4830     2.0440 H     1 <1>   0.0800 
 48 H       -1.9770     2.1960     3.4450 H     1 <1>   0.0800 
 49 H       -0.1750     4.6730     0.8520 H     1 <1>   0.0800 
 50 H       -0.1220     2.9630     0.5130 H     1 <1>   0.0800 
@<TRIPOS>BOND
  1   1   2  2   
  2   2   3  am  
  3   2   4  am  
  4   3   5  1   
  5   3  26  1   
  6   4   6  1   
  7   4  27  1   
  8   5   7  1   
  9   5   8  2   
 10   6   9  1   
 11   6  28  1   
 12   6  29  1   
 13   7  10  2   
 14   7  11  1   
 15   8  12  1   
 16   8  30  1   
 17   9  13  1   
 18   9  31  1   
 19   9  32  1   
 20  11  14  ar  
 21  11  15  ar  
 22  12  14  1   
 23  12  33  1   
 24  13  16  1   
 25  13  34  1   
 26  13  35  1   
 27  14  17  ar  
 28  15  18  ar  
 29  15  36  1   
 30  16  19  1   
 31  16  20  1   
 32  16  37  1   
 33  17  21  ar  
 34  17  38  1   
 35  18  21  ar  
 36  18  22  1   
 37  19  23  1   
 38  19  39  1   
 39  19  40  1   
 40  20  24  1   
 41  20  41  1   
 42  20  42  1   
 43  21  43  1   
 44  22  44  1   
 45  22  45  1   
 46  22  46  1   
 47  23  25  1   
 48  23  47  1   
 49  23  48  1   
 50  24  25  1   
 51  24  49  1   
 52  24  50  1   
@<TRIPOS>SUBSTRUCTURE
  1 ****   5 GROUP 4 **** **** 0

# MOE 2024.06 (io_trps.svl 2023.06)
