@<TRIPOS>MOLECULE
N-(2,4-Difluoro-phenyl)-2-(4-methyl-piperazin-1-yl)-acetamide
37 38 1 0 0 
SMALL
USER_CHARGES


@<TRIPOS>ATOM
  1 F       -0.4300     0.2140    -1.9420 F     1 <1>  -0.1900 
  2 C        0.2920     1.1220    -1.3300 C.ar  1 <1>   0.1900 
  3 C       -0.3330     1.9680    -0.4100 C.ar  1 <1>   0.1170 
  4 C        1.6390     1.1870    -1.6260 C.ar  1 <1>  -0.1500 
  5 N       -1.7140     1.8410    -0.1690 N.am  1 <1>  -0.5470 
  6 C        0.4610     2.9210     0.2280 C.ar  1 <1>  -0.1500 
  7 C        2.3800     2.1460    -0.9650 C.ar  1 <1>   0.1900 
  8 C       -2.4950     2.1950     0.8930 C.2   1 <1>   0.5690 
  9 C        1.8170     3.0130    -0.0450 C.ar  1 <1>  -0.1500 
 10 F        3.6590     2.2370    -1.2180 F     1 <1>  -0.1900 
 11 O       -2.0870     2.7690     1.8720 O.2   1 <1>  -0.5700 
 12 C       -3.9680     1.7840     0.8290 C.3   1 <1>   0.1710 
 13 N       -4.2050     0.4770     0.1350 N.3   1 <1>  -0.8100 
 14 C       -5.6420     0.2720    -0.1380 C.3   1 <1>   0.1100 
 15 C       -3.6470    -0.6540     0.9160 C.3   1 <1>   0.1100 
 16 C       -5.8960    -1.0650    -0.8670 C.3   1 <1>   0.3430 
 17 C       -3.8710    -2.0030     0.2020 C.3   1 <1>   0.3430 
 18 N       -5.3250    -2.2340    -0.1090 N.4   1 <1>  -0.9590 
 19 C       -5.5200    -3.5110    -0.8590 C.3   1 <1>   0.2630 
 20 H        2.0940     0.5230    -2.3380 H     1 <1>   0.1500 
 21 H       -2.2190     1.2750    -0.8570 H     1 <1>   0.3700 
 22 H        0.0220     3.5980     0.9410 H     1 <1>   0.1500 
 23 H        2.4320     3.7460     0.4470 H     1 <1>   0.1500 
 24 H       -4.4900     2.5660     0.3060 H     1 <1>   0.0800 
 25 H       -4.3570     1.7450     1.8330 H     1 <1>   0.0800 
 26 H       -6.0020     1.0750    -0.7600 H     1 <1>   0.0800 
 27 H       -6.2010     0.2930     0.7830 H     1 <1>   0.0800 
 28 H       -4.0970    -0.6850     1.8940 H     1 <1>   0.0800 
 29 H       -2.5870    -0.5150     1.0500 H     1 <1>   0.0800 
 30 H       -5.4410    -1.0090    -1.8420 H     1 <1>   0.0800 
 31 H       -6.9570    -1.1980    -1.0030 H     1 <1>   0.0800 
 32 H       -3.4970    -2.7990     0.8240 H     1 <1>   0.0800 
 33 H       -3.3000    -2.0000    -0.7130 H     1 <1>   0.0800 
 34 H       -5.8250    -2.2920     0.7890 H     1 <1>   0.4500 
 35 H       -5.0030    -3.4720    -1.8040 H     1 <1>   0.0800 
 36 H       -6.5680    -3.6810    -1.0460 H     1 <1>   0.0800 
 37 H       -5.1350    -4.3420    -0.2900 H     1 <1>   0.0800 
@<TRIPOS>BOND
  1   1   2  1   
  2   2   3  ar  
  3   2   4  ar  
  4   3   5  1   
  5   3   6  ar  
  6   4   7  ar  
  7   4  20  1   
  8   5   8  am  
  9   5  21  1   
 10   6   9  ar  
 11   6  22  1   
 12   7   9  ar  
 13   7  10  1   
 14   8  11  2   
 15   8  12  1   
 16   9  23  1   
 17  12  13  1   
 18  12  24  1   
 19  12  25  1   
 20  13  14  1   
 21  13  15  1   
 22  14  16  1   
 23  14  26  1   
 24  14  27  1   
 25  15  17  1   
 26  15  28  1   
 27  15  29  1   
 28  16  18  1   
 29  16  30  1   
 30  16  31  1   
 31  17  18  1   
 32  17  32  1   
 33  17  33  1   
 34  18  19  1   
 35  18  34  1   
 36  19  35  1   
 37  19  36  1   
 38  19  37  1   
@<TRIPOS>SUBSTRUCTURE
  1 ****   5 GROUP 4 **** **** 0

# MOE 2024.06 (io_trps.svl 2023.06)
