@<TRIPOS>MOLECULE
2-(2-Cyano-ethyl)-3-methyl-1-pyrrolidin-1-yl-benzo[4,5]imidazo[1,2-a]pyridine-4-
45 48 1 0 0 
SMALL
USER_CHARGES


@<TRIPOS>ATOM
  1 N        0.8610     0.8180    -0.0790 N.1   1 <1>  -0.5570 
  2 C       -0.0890     0.1910    -0.0850 C.1   1 <1>   0.4920 
  3 C       -1.2070    -0.6910    -0.0920 C.2   1 <1>   0.0740 
  4 C       -2.5410    -0.2890    -0.0570 C.2   1 <1>  -0.1380 
  5 C       -0.9050    -2.0490    -0.1290 C.cat 1 <1>   0.7910 
  6 C       -3.5380    -1.2780    -0.0400 C.2   1 <1>  -0.1380 
  7 C       -2.8570     1.2150    -0.0300 C.3   1 <1>  -0.1020 
  8 N        0.3110    -2.6500    -0.1730 N.pl3 1 <1>  -0.7000 
  9 N       -1.8750    -2.9960    -0.1230 N.pl3 1 <1>  -0.6290 
 10 C       -3.1910    -2.6370    -0.0810 C.2   1 <1>   0.4790 
 11 C       -5.0260    -0.8800     0.0220 C.3   1 <1>  -0.0220 
 12 C        0.1300    -4.0110    -0.1970 C.ar  1 <1>   0.3090 
 13 C       -1.2330    -4.2490    -0.1660 C.ar  1 <1>   0.3090 
 14 N       -4.0850    -3.6570    -0.0930 N.pl3 1 <1>  -0.8380 
 15 C       -5.4490    -0.4180     1.4240 C.3   1 <1>   0.0400 
 16 C        1.0560    -5.0470    -0.2430 C.ar  1 <1>  -0.1090 
 17 C       -1.6910    -5.5650    -0.1820 C.ar  1 <1>  -0.1090 
 18 C       -4.7710    -4.1040    -1.3330 C.3   1 <1>   0.2090 
 19 C       -4.8000    -4.1420     1.1130 C.3   1 <1>   0.2090 
 20 C       -6.9210    -0.2130     1.4880 C.1   1 <1>   0.3570 
 21 C        0.5910    -6.3460    -0.2580 C.ar  1 <1>  -0.1500 
 22 C       -0.7790    -6.6030    -0.2280 C.ar  1 <1>  -0.1500 
 23 C       -5.9220    -4.9820    -0.8510 C.3   1 <1>  -0.1600 
 24 C       -6.1680    -4.5660     0.5980 C.3   1 <1>  -0.1600 
 25 N       -8.0480    -0.0740     1.5160 N.1   1 <1>  -0.5570 
 26 H       -3.8040     1.4510    -0.4760 H     1 <1>   0.0800 
 27 H       -2.1270     1.7830    -0.5800 H     1 <1>   0.0800 
 28 H       -2.8600     1.5730     0.9850 H     1 <1>   0.0800 
 29 H        1.2200    -2.1770    -0.1910 H     1 <1>   0.4500 
 30 H       -5.6550    -1.7040    -0.2570 H     1 <1>   0.0800 
 31 H       -5.2430    -0.1140    -0.7000 H     1 <1>   0.0800 
 32 H       -4.9660     0.5050     1.6840 H     1 <1>   0.0800 
 33 H       -5.1800    -1.1550     2.1570 H     1 <1>   0.0800 
 34 H        2.1110    -4.8350    -0.2660 H     1 <1>   0.1500 
 35 H       -2.7410    -5.7810    -0.1600 H     1 <1>   0.1500 
 36 H       -4.0980    -4.6580    -1.9650 H     1 <1>   0.0800 
 37 H       -5.1470    -3.2530    -1.8750 H     1 <1>   0.0800 
 38 H       -4.8750    -3.3830     1.8710 H     1 <1>   0.0800 
 39 H       -4.2780    -4.9940     1.5160 H     1 <1>   0.0800 
 40 H        1.2840    -7.1730    -0.2930 H     1 <1>   0.1500 
 41 H       -1.1250    -7.6250    -0.2400 H     1 <1>   0.1500 
 42 H       -5.6130    -6.0120    -0.8870 H     1 <1>   0.0800 
 43 H       -6.7980    -4.8630    -1.4640 H     1 <1>   0.0800 
 44 H       -6.8370    -3.7240     0.6300 H     1 <1>   0.0800 
 45 H       -6.5870    -5.3630     1.1860 H     1 <1>   0.0800 
@<TRIPOS>BOND
  1   1   2  3   
  2   2   3  1   
  3   3   4  2   
  4   3   5  1   
  5   4   6  1   
  6   4   7  1   
  7   5   8  ar  
  8   5   9  ar  
  9   6  10  2   
 10   6  11  1   
 11   7  26  1   
 12   7  27  1   
 13   7  28  1   
 14   8  12  1   
 15   8  29  1   
 16   9  10  1   
 17   9  13  1   
 18  10  14  1   
 19  11  15  1   
 20  11  30  1   
 21  11  31  1   
 22  12  13  ar  
 23  12  16  ar  
 24  13  17  ar  
 25  14  18  1   
 26  14  19  1   
 27  15  20  1   
 28  15  32  1   
 29  15  33  1   
 30  16  21  ar  
 31  16  34  1   
 32  17  22  ar  
 33  17  35  1   
 34  18  23  1   
 35  18  36  1   
 36  18  37  1   
 37  19  24  1   
 38  19  38  1   
 39  19  39  1   
 40  20  25  3   
 41  21  22  ar  
 42  21  40  1   
 43  22  41  1   
 44  23  24  1   
 45  23  42  1   
 46  23  43  1   
 47  24  44  1   
 48  24  45  1   
@<TRIPOS>SUBSTRUCTURE
  1 ****  10 GROUP 4 **** **** 0

# MOE 2024.06 (io_trps.svl 2023.06)
