@<TRIPOS>MOLECULE
2-Methyl-5-[(tetrahydro-furan-2-ylmethyl)-sulfamoyl]-benzamide
38 39 1 0 0 
SMALL
USER_CHARGES


@<TRIPOS>ATOM
  1 S       -0.0890     0.5820    -1.1470 S.o2  1 <1>   1.4470 
  2 O       -0.5170     1.3950    -2.2630 O.2   1 <1>  -0.6500 
  3 O        1.1520    -0.1510    -1.2290 O.2   1 <1>  -0.6500 
  4 N        0.0890     1.6100     0.1680 N.am  1 <1>  -0.9140 
  5 C       -1.4360    -0.5150    -0.6240 C.ar  1 <1>  -0.0090 
  6 C        0.7460     2.8770    -0.1450 C.3   1 <1>   0.1960 
  7 C       -2.7230    -0.0300    -0.4480 C.ar  1 <1>  -0.1500 
  8 C       -1.2150    -1.8620    -0.3710 C.ar  1 <1>  -0.1500 
  9 C        2.2640     2.6770    -0.3030 C.3   1 <1>   0.2000 
 10 C       -3.7830    -0.8320    -0.0290 C.ar  1 <1>   0.0860 
 11 C       -2.2480    -2.6900     0.0310 C.ar  1 <1>  -0.1500 
 12 O        2.7470     1.9310     0.7700 O.3   1 <1>  -0.5600 
 13 C        3.0890     3.9560    -0.2670 C.3   1 <1>  -0.1600 
 14 C       -3.5270    -2.1900     0.1980 C.ar  1 <1>  -0.1430 
 15 C       -5.0900    -0.2300     0.1550 C.2   1 <1>   0.5440 
 16 C        4.1240     2.0970     0.8660 C.3   1 <1>   0.1200 
 17 C        4.4200     3.4880     0.3050 C.3   1 <1>  -0.1600 
 18 C       -4.6380    -3.1470     0.6140 C.3   1 <1>  -0.0970 
 19 O       -5.6780     0.3070    -0.7560 O.2   1 <1>  -0.5700 
 20 N       -5.6970    -0.2110     1.3630 N.am  1 <1>  -0.8000 
 21 H        0.7880     1.1330     0.7500 H     1 <1>   0.4200 
 22 H        0.5770     3.5550     0.6740 H     1 <1>   0.0800 
 23 H        0.3280     3.3270    -1.0290 H     1 <1>   0.0800 
 24 H       -2.9170     1.0120    -0.6420 H     1 <1>   0.1500 
 25 H       -0.2250    -2.2710    -0.4950 H     1 <1>   0.1500 
 26 H        2.4800     2.1290    -1.2060 H     1 <1>   0.0800 
 27 H       -2.0420    -3.7320     0.2090 H     1 <1>   0.1500 
 28 H        2.6350     4.6720     0.3960 H     1 <1>   0.0800 
 29 H        3.1890     4.3900    -1.2460 H     1 <1>   0.0800 
 30 H        4.5940     1.3290     0.2750 H     1 <1>   0.0800 
 31 H        4.4130     2.0000     1.8980 H     1 <1>   0.0800 
 32 H        4.7680     4.1480     1.0800 H     1 <1>   0.0800 
 33 H        5.1730     3.4180    -0.4600 H     1 <1>   0.0800 
 34 H       -4.3360    -4.1700     0.4780 H     1 <1>   0.0800 
 35 H       -4.8870    -3.0000     1.6490 H     1 <1>   0.0800 
 36 H       -5.5180    -2.9800     0.0170 H     1 <1>   0.0800 
 37 H       -6.5920     0.2720     1.4560 H     1 <1>   0.3700 
 38 H       -5.2480    -0.5280     2.2210 H     1 <1>   0.3700 
@<TRIPOS>BOND
  1   1   2  2   
  2   1   3  2   
  3   1   4  am  
  4   1   5  1   
  5   4   6  1   
  6   4  21  1   
  7   5   7  ar  
  8   5   8  ar  
  9   6   9  1   
 10   6  22  1   
 11   6  23  1   
 12   7  10  ar  
 13   7  24  1   
 14   8  11  ar  
 15   8  25  1   
 16   9  12  1   
 17   9  13  1   
 18   9  26  1   
 19  10  14  ar  
 20  10  15  1   
 21  11  14  ar  
 22  11  27  1   
 23  12  16  1   
 24  13  17  1   
 25  13  28  1   
 26  13  29  1   
 27  14  18  1   
 28  15  19  2   
 29  15  20  am  
 30  16  17  1   
 31  16  30  1   
 32  16  31  1   
 33  17  32  1   
 34  17  33  1   
 35  18  34  1   
 36  18  35  1   
 37  18  36  1   
 38  20  37  1   
 39  20  38  1   
@<TRIPOS>SUBSTRUCTURE
  1 ****   5 GROUP 4 **** **** 0

# MOE 2024.06 (io_trps.svl 2023.06)
