@<TRIPOS>MOLECULE
1-(3-Chloro-4-ethoxy-benzenesulfonyl)-piperidine-4-carboxylic acid (tetrahydro-f
55 57 1 0 0 
SMALL
USER_CHARGES


@<TRIPOS>ATOM
  1 CL      -0.9590     0.4790    -1.2850 Cl    1 <1>  -0.1770 
  2 C       -0.1870     1.8850    -0.5830 C.ar  1 <1>   0.1770 
  3 C       -0.4430     2.2630     0.7310 C.ar  1 <1>   0.0820 
  4 C        0.6960     2.6010    -1.3680 C.ar  1 <1>  -0.1500 
  5 O       -1.2970     1.5880     1.5320 O.3   1 <1>  -0.3630 
  6 C        0.2210     3.3600     1.2520 C.ar  1 <1>  -0.1500 
  7 C        1.3610     3.7110    -0.8580 C.ar  1 <1>  -0.0090 
  8 C       -2.6810     1.6960     1.2700 C.3   1 <1>   0.1200 
  9 C        1.1060     4.0750     0.4620 C.ar  1 <1>  -0.1500 
 10 S        2.5190     4.6630    -1.8810 S.o2  1 <1>   1.4470 
 11 C       -3.2100     2.9850     1.8990 C.3   1 <1>  -0.2400 
 12 O        2.9600     3.8610    -3.0030 O.2   1 <1>  -0.6500 
 13 O        1.9580     5.9730    -2.1230 O.2   1 <1>  -0.6500 
 14 N        3.8620     4.8620    -0.8630 N.am  1 <1>  -0.8490 
 15 C        4.7320     5.9440    -1.3300 C.3   1 <1>   0.1960 
 16 C        4.6080     3.6120    -0.6860 C.3   1 <1>   0.1960 
 17 C        5.8450     6.2070    -0.3130 C.3   1 <1>  -0.1600 
 18 C        5.7030     3.7970     0.3650 C.3   1 <1>  -0.1600 
 19 C        6.6610     4.9370    -0.0270 C.3   1 <1>  -0.0190 
 20 C        7.7380     5.2000     1.0240 C.2   1 <1>   0.5690 
 21 O        7.5160     4.9910     2.1920 O.2   1 <1>  -0.5700 
 22 N        8.9300     5.6890     0.6030 N.am  1 <1>  -0.7300 
 23 C       10.0570     6.1060     1.4680 C.3   1 <1>   0.1400 
 24 C       10.5350     7.5070     1.0570 C.3   1 <1>   0.2000 
 25 O       10.6870     7.5820    -0.3280 O.3   1 <1>  -0.5600 
 26 C       11.8980     7.8960     1.6090 C.3   1 <1>  -0.1600 
 27 C       11.5740     8.6020    -0.6660 C.3   1 <1>   0.1200 
 28 C       12.3910     8.9070     0.5880 C.3   1 <1>  -0.1600 
 29 H        0.8700     2.2880    -2.3840 H     1 <1>   0.1500 
 30 H        0.0390     3.6500     2.2720 H     1 <1>   0.1500 
 31 H       -3.1590     0.8390     1.7100 H     1 <1>   0.0800 
 32 H       -2.8490     1.6860     0.2070 H     1 <1>   0.0800 
 33 H        1.6140     4.9310     0.8760 H     1 <1>   0.1500 
 34 H       -3.0090     2.9900     2.9550 H     1 <1>   0.0800 
 35 H       -4.2730     3.0470     1.7520 H     1 <1>   0.0800 
 36 H       -2.7550     3.8430     1.4390 H     1 <1>   0.0800 
 37 H        4.1580     6.8490    -1.4490 H     1 <1>   0.0800 
 38 H        5.1540     5.6860    -2.2890 H     1 <1>   0.0800 
 39 H        5.0470     3.3070    -1.6230 H     1 <1>   0.0800 
 40 H        3.9420     2.8310    -0.3580 H     1 <1>   0.0800 
 41 H        5.4030     6.5650     0.6010 H     1 <1>   0.0800 
 42 H        6.4930     6.9800    -0.6870 H     1 <1>   0.0800 
 43 H        6.2570     2.8820     0.4750 H     1 <1>   0.0800 
 44 H        5.2400     4.0150     1.3120 H     1 <1>   0.0800 
 45 H        7.1610     4.6460    -0.9340 H     1 <1>   0.0800 
 46 H        9.0770     5.9570    -0.3750 H     1 <1>   0.3700 
 47 H       10.8620     5.4010     1.3540 H     1 <1>   0.0800 
 48 H        9.7560     6.1090     2.5010 H     1 <1>   0.0800 
 49 H        9.8000     8.2420     1.3410 H     1 <1>   0.0800 
 50 H       12.5480     7.0380     1.6210 H     1 <1>   0.0800 
 51 H       11.8290     8.3060     2.6010 H     1 <1>   0.0800 
 52 H       11.0020     9.4580    -0.9810 H     1 <1>   0.0800 
 53 H       12.1940     8.2540    -1.4750 H     1 <1>   0.0800 
 54 H       13.4470     8.8100     0.4030 H     1 <1>   0.0800 
 55 H       12.1840     9.9110     0.9140 H     1 <1>   0.0800 
@<TRIPOS>BOND
  1   1   2  1   
  2   2   3  ar  
  3   2   4  ar  
  4   3   5  1   
  5   3   6  ar  
  6   4   7  ar  
  7   4  29  1   
  8   5   8  1   
  9   6   9  ar  
 10   6  30  1   
 11   7   9  ar  
 12   7  10  1   
 13   8  11  1   
 14   8  31  1   
 15   8  32  1   
 16   9  33  1   
 17  10  12  2   
 18  10  13  2   
 19  10  14  am  
 20  11  34  1   
 21  11  35  1   
 22  11  36  1   
 23  14  15  1   
 24  14  16  1   
 25  15  17  1   
 26  15  37  1   
 27  15  38  1   
 28  16  18  1   
 29  16  39  1   
 30  16  40  1   
 31  17  19  1   
 32  17  41  1   
 33  17  42  1   
 34  18  19  1   
 35  18  43  1   
 36  18  44  1   
 37  19  20  1   
 38  19  45  1   
 39  20  21  2   
 40  20  22  am  
 41  22  23  1   
 42  22  46  1   
 43  23  24  1   
 44  23  47  1   
 45  23  48  1   
 46  24  25  1   
 47  24  26  1   
 48  24  49  1   
 49  25  27  1   
 50  26  28  1   
 51  26  50  1   
 52  26  51  1   
 53  27  28  1   
 54  27  52  1   
 55  27  53  1   
 56  28  54  1   
 57  28  55  1   
@<TRIPOS>SUBSTRUCTURE
  1 ****  14 GROUP 4 **** **** 0

# MOE 2024.06 (io_trps.svl 2023.06)
