@<TRIPOS>MOLECULE
[4-(3,4-Dimethoxy-benzoyl)-piperazin-1-yl]-morpholin-4-yl-methanone
51 53 1 0 0 
SMALL
USER_CHARGES


@<TRIPOS>ATOM
  1 O       -0.8000     0.5340    -0.2690 O.2   1 <1>  -0.5700 
  2 C       -1.1570     1.6940    -0.3860 C.2   1 <1>   0.6900 
  3 N       -0.2380     2.7030    -0.2680 N.am  1 <1>  -0.6600 
  4 N       -2.4760     1.9740    -0.6170 N.am  1 <1>  -0.6600 
  5 C       -0.3210     3.9720    -1.0450 C.3   1 <1>   0.1400 
  6 C        1.1210     2.4450     0.2840 C.3   1 <1>   0.1400 
  7 C       -3.3620     0.9360    -1.2240 C.3   1 <1>   0.1400 
  8 C       -3.2050     2.9370     0.2630 C.3   1 <1>   0.1400 
  9 C        0.2790     5.1350    -0.2370 C.3   1 <1>   0.1200 
 10 C        1.6530     3.6920     1.0110 C.3   1 <1>   0.1200 
 11 C       -4.1730     0.1960    -0.1470 C.3   1 <1>   0.1400 
 12 C       -4.0040     2.1910     1.3420 C.3   1 <1>   0.1400 
 13 O        1.5760     4.8240     0.1880 O.3   1 <1>  -0.5600 
 14 N       -4.9030     1.1690     0.7260 N.am  1 <1>  -0.6600 
 15 C       -6.2750     1.3050     0.7440 C.2   1 <1>   0.5440 
 16 O       -6.7470     2.3860     1.0470 O.2   1 <1>  -0.5700 
 17 C       -7.1660     0.2140     0.3970 C.ar  1 <1>   0.0860 
 18 C       -6.9590    -1.0820     0.8650 C.ar  1 <1>  -0.1500 
 19 C       -8.2780     0.4270    -0.4130 C.ar  1 <1>  -0.1500 
 20 C       -7.7970    -2.1300     0.5300 C.ar  1 <1>   0.0820 
 21 C       -9.1280    -0.6050    -0.7660 C.ar  1 <1>  -0.1500 
 22 O       -7.4530    -3.3340     1.0660 O.3   1 <1>  -0.3620 
 23 C       -8.8980    -1.9020    -0.3110 C.ar  1 <1>   0.0820 
 24 C       -8.4470    -4.2400     1.4950 C.3   1 <1>   0.0400 
 25 O       -9.7010    -2.9380    -0.6780 O.3   1 <1>  -0.3630 
 26 C      -10.7880    -2.7810    -1.5640 C.3   1 <1>   0.0400 
 27 H       -1.3400     4.1970    -1.3040 H     1 <1>   0.0800 
 28 H        0.2330     3.8580    -1.9600 H     1 <1>   0.0800 
 29 H        1.7870     2.1860    -0.5200 H     1 <1>   0.0800 
 30 H        1.0870     1.6170     0.9710 H     1 <1>   0.0800 
 31 H       -2.7700     0.2270    -1.7760 H     1 <1>   0.0800 
 32 H       -4.0370     1.4100    -1.9140 H     1 <1>   0.0800 
 33 H       -3.8790     3.5260    -0.3330 H     1 <1>   0.0800 
 34 H       -2.5100     3.6020     0.7430 H     1 <1>   0.0800 
 35 H       -0.3250     5.3480     0.6270 H     1 <1>   0.0800 
 36 H        0.3380     6.0190    -0.8470 H     1 <1>   0.0800 
 37 H        2.6840     3.5500     1.2810 H     1 <1>   0.0800 
 38 H        1.0830     3.8770     1.9050 H     1 <1>   0.0800 
 39 H       -3.5020    -0.3910     0.4570 H     1 <1>   0.0800 
 40 H       -4.8570    -0.4750    -0.6330 H     1 <1>   0.0800 
 41 H       -4.5730     2.8980     1.9200 H     1 <1>   0.0800 
 42 H       -3.3200     1.6980     2.0110 H     1 <1>   0.0800 
 43 H       -6.1230    -1.2780     1.5120 H     1 <1>   0.1500 
 44 H       -8.4720     1.4250    -0.7680 H     1 <1>   0.1500 
 45 H       -9.9640    -0.3750    -1.3970 H     1 <1>   0.1500 
 46 H       -8.0070    -4.9040     2.2160 H     1 <1>   0.0800 
 47 H       -8.7930    -4.8030     0.6480 H     1 <1>   0.0800 
 48 H       -9.2560    -3.6900     1.9440 H     1 <1>   0.0800 
 49 H      -11.2430    -3.7450    -1.7080 H     1 <1>   0.0800 
 50 H      -10.4220    -2.4070    -2.5040 H     1 <1>   0.0800 
 51 H      -11.5000    -2.1040    -1.1270 H     1 <1>   0.0800 
@<TRIPOS>BOND
  1   1   2  2   
  2   2   3  am  
  3   2   4  am  
  4   3   5  1   
  5   3   6  1   
  6   4   7  1   
  7   4   8  1   
  8   5   9  1   
  9   5  27  1   
 10   5  28  1   
 11   6  10  1   
 12   6  29  1   
 13   6  30  1   
 14   7  11  1   
 15   7  31  1   
 16   7  32  1   
 17   8  12  1   
 18   8  33  1   
 19   8  34  1   
 20   9  13  1   
 21   9  35  1   
 22   9  36  1   
 23  10  13  1   
 24  10  37  1   
 25  10  38  1   
 26  11  14  1   
 27  11  39  1   
 28  11  40  1   
 29  12  14  1   
 30  12  41  1   
 31  12  42  1   
 32  14  15  am  
 33  15  16  2   
 34  15  17  1   
 35  17  18  ar  
 36  17  19  ar  
 37  18  20  ar  
 38  18  43  1   
 39  19  21  ar  
 40  19  44  1   
 41  20  22  1   
 42  20  23  ar  
 43  21  23  ar  
 44  21  45  1   
 45  22  24  1   
 46  23  25  1   
 47  24  46  1   
 48  24  47  1   
 49  24  48  1   
 50  25  26  1   
 51  26  49  1   
 52  26  50  1   
 53  26  51  1   
@<TRIPOS>SUBSTRUCTURE
  1 ****  11 GROUP 4 **** **** 0

# MOE 2024.06 (io_trps.svl 2023.06)
