@<TRIPOS>MOLECULE
3-[3-(3-Ethoxy-4-methoxy-phenyl)-[1,2,4]oxadiazol-5-yl]-1-pyrrolidin-1-yl-propan
48 50 1 0 0 
SMALL
USER_CHARGES


@<TRIPOS>ATOM
  1 O       -0.0760    -0.4150     1.1760 O.2   1 <1>  -0.5700 
  2 C        0.4480    -1.3930     0.7010 C.2   1 <1>   0.5690 
  3 N        1.6750    -1.3350     0.1020 N.am  1 <1>  -0.6600 
  4 C       -0.3230    -2.6960     0.7620 C.3   1 <1>  -0.0990 
  5 C        2.4200    -2.4500    -0.5280 C.3   1 <1>   0.1400 
  6 C        2.4220    -0.0650    -0.0210 C.3   1 <1>   0.1400 
  7 C       -1.2340    -2.8330    -0.4630 C.3   1 <1>   0.0200 
  8 C        3.7760    -1.8580    -0.8970 C.3   1 <1>  -0.1600 
  9 C        3.5240    -0.3590    -1.0320 C.3   1 <1>  -0.1600 
 10 C       -1.9410    -4.1730    -0.4750 C.2   1 <1>   0.2980 
 11 O       -1.2340    -5.2530    -0.6820 O.3   1 <1>  -0.0190 
 12 N       -3.1820    -4.3590    -0.2990 N.2   1 <1>  -0.5650 
 13 N       -2.1030    -6.2120    -0.6310 N.2   1 <1>  -0.4100 
 14 C       -3.2570    -5.6900    -0.4040 C.2   1 <1>   0.4620 
 15 C       -4.5080    -6.4190    -0.2730 C.ar  1 <1>   0.0540 
 16 C       -5.7110    -5.7740     0.0080 C.ar  1 <1>  -0.1500 
 17 C       -4.5580    -7.8050    -0.4260 C.ar  1 <1>  -0.1500 
 18 C       -6.9080    -6.4560     0.1310 C.ar  1 <1>   0.0820 
 19 C       -5.7400    -8.5100    -0.2980 C.ar  1 <1>  -0.1500 
 20 O       -7.9940    -5.6770     0.3950 O.3   1 <1>  -0.3630 
 21 C       -6.9330    -7.8530    -0.0100 C.ar  1 <1>   0.0820 
 22 C       -9.2440    -5.9700    -0.1840 C.3   1 <1>   0.1200 
 23 O       -8.1030    -8.5350     0.1530 O.3   1 <1>  -0.3630 
 24 C      -10.0610    -4.6830    -0.2200 C.3   1 <1>  -0.2400 
 25 C       -8.1490    -9.9440     0.2070 C.3   1 <1>   0.0400 
 26 H       -0.9260    -2.6950     1.6530 H     1 <1>   0.0800 
 27 H        0.3520    -3.5270     0.8280 H     1 <1>   0.0800 
 28 H        1.8990    -2.7700    -1.4140 H     1 <1>   0.0800 
 29 H        2.5330    -3.2770     0.1520 H     1 <1>   0.0800 
 30 H        2.8430     0.1870     0.9370 H     1 <1>   0.0800 
 31 H        1.7770     0.7320    -0.3520 H     1 <1>   0.0800 
 32 H       -0.6590    -2.7370    -1.3660 H     1 <1>   0.0800 
 33 H       -1.9680    -2.0460    -0.4510 H     1 <1>   0.0800 
 34 H        4.1700    -2.2910    -1.8000 H     1 <1>   0.0800 
 35 H        4.4670    -2.0400    -0.0920 H     1 <1>   0.0800 
 36 H        4.4060     0.2260    -0.8420 H     1 <1>   0.0800 
 37 H        3.1600    -0.1350    -2.0190 H     1 <1>   0.0800 
 38 H       -5.7230    -4.7060     0.1340 H     1 <1>   0.1500 
 39 H       -3.6510    -8.3410    -0.6490 H     1 <1>   0.1500 
 40 H       -5.7070    -9.5750    -0.4260 H     1 <1>   0.1500 
 41 H       -9.7330    -6.7120     0.4220 H     1 <1>   0.0800 
 42 H       -9.0840    -6.3510    -1.1790 H     1 <1>   0.0800 
 43 H      -10.2010    -4.3080     0.7780 H     1 <1>   0.0800 
 44 H      -11.0250    -4.8760    -0.6550 H     1 <1>   0.0800 
 45 H       -9.5560    -3.9430    -0.8150 H     1 <1>   0.0800 
 46 H       -9.1620   -10.2360     0.4190 H     1 <1>   0.0800 
 47 H       -7.4990   -10.2850     0.9930 H     1 <1>   0.0800 
 48 H       -7.8470   -10.3400    -0.7460 H     1 <1>   0.0800 
@<TRIPOS>BOND
  1   1   2  2   
  2   2   3  am  
  3   2   4  1   
  4   3   5  1   
  5   3   6  1   
  6   4   7  1   
  7   4  26  1   
  8   4  27  1   
  9   5   8  1   
 10   5  28  1   
 11   5  29  1   
 12   6   9  1   
 13   6  30  1   
 14   6  31  1   
 15   7  10  1   
 16   7  32  1   
 17   7  33  1   
 18   8   9  1   
 19   8  34  1   
 20   8  35  1   
 21   9  36  1   
 22   9  37  1   
 23  10  11  1   
 24  10  12  2   
 25  11  13  1   
 26  12  14  1   
 27  13  14  2   
 28  14  15  1   
 29  15  16  ar  
 30  15  17  ar  
 31  16  18  ar  
 32  16  38  1   
 33  17  19  ar  
 34  17  39  1   
 35  18  20  1   
 36  18  21  ar  
 37  19  21  ar  
 38  19  40  1   
 39  20  22  1   
 40  21  23  1   
 41  22  24  1   
 42  22  41  1   
 43  22  42  1   
 44  23  25  1   
 45  24  43  1   
 46  24  44  1   
 47  24  45  1   
 48  25  46  1   
 49  25  47  1   
 50  25  48  1   
@<TRIPOS>SUBSTRUCTURE
  1 ****  12 GROUP 4 **** **** 0

# MOE 2024.06 (io_trps.svl 2023.06)
