@<TRIPOS>MOLECULE
5-(3-Methoxy-phenyl)-8,8-dimethyl-5,8,9,10-tetrahydro-1H,7H-pyrimido[4,5-b]quino
48 51 1 0 0 
SMALL
USER_CHARGES


@<TRIPOS>ATOM
  1 O       -0.8950     0.3210     0.4070 O.2   1 <1>  -0.5700 
  2 C       -1.8300    -0.3820     0.1010 C.2   1 <1>   0.6900 
  3 N       -3.0840    -0.1060     0.5570 N.am  1 <1>  -0.5390 
  4 N       -1.6610    -1.4590    -0.7060 N.am  1 <1>  -0.4900 
  5 C       -4.1620    -0.8930     0.2330 C.2   1 <1>   0.2090 
  6 C       -2.6950    -2.2680    -1.0780 C.2   1 <1>   0.6160 
  7 N       -5.3990    -0.5330     0.7030 N.pl3 1 <1>  -0.6000 
  8 C       -3.9790    -1.9870    -0.5550 C.2   1 <1>  -0.1240 
  9 O       -2.4500    -3.1660    -1.8640 O.2   1 <1>  -0.5700 
 10 C       -6.5400    -1.1830     0.2860 C.2   1 <1>  -0.0380 
 11 C       -5.1420    -2.9250    -0.8620 C.3   1 <1>   0.3400 
 12 C       -6.4910    -2.3040    -0.4820 C.2   1 <1>  -0.1240 
 13 C       -7.8660    -0.5750     0.7270 C.3   1 <1>  -0.0220 
 14 C       -4.9430    -4.2180    -0.0670 C.ar  1 <1>  -0.1430 
 15 C       -7.6530    -2.9740    -0.9610 C.2   1 <1>   0.4950 
 16 C       -9.0430    -0.9860    -0.1880 C.3   1 <1>   0.0000 
 17 C       -4.7710    -5.4270    -0.7240 C.ar  1 <1>  -0.1500 
 18 C       -4.9280    -4.1990     1.3210 C.ar  1 <1>  -0.1500 
 19 O       -7.6400    -3.8780    -1.7610 O.2   1 <1>  -0.5700 
 20 C       -9.0040    -2.5080    -0.4460 C.3   1 <1>  -0.0990 
 21 C      -10.3740    -0.6180     0.4870 C.3   1 <1>  -0.2400 
 22 C       -8.9570    -0.2270    -1.5260 C.3   1 <1>  -0.2400 
 23 C       -4.5860    -6.6040    -0.0150 C.ar  1 <1>   0.0830 
 24 C       -4.7440    -5.3690     2.0380 C.ar  1 <1>  -0.1500 
 25 O       -4.4260    -7.7380    -0.7430 O.3   1 <1>  -0.3630 
 26 C       -4.5720    -6.5710     1.3760 C.ar  1 <1>  -0.1500 
 27 C       -4.2530    -8.9900    -0.1210 C.3   1 <1>   0.0400 
 28 H       -3.1620     0.7170     1.1500 H     1 <1>   0.3700 
 29 H       -0.7350    -1.6620    -1.0640 H     1 <1>   0.3700 
 30 H       -5.4790     0.2950     1.3000 H     1 <1>   0.4000 
 31 H       -5.1410    -3.1350    -1.9180 H     1 <1>   0.0800 
 32 H       -7.7890     0.4980     0.7400 H     1 <1>   0.0800 
 33 H       -8.0570    -0.9000     1.7350 H     1 <1>   0.0800 
 34 H       -4.7790    -5.4730    -1.7980 H     1 <1>   0.1500 
 35 H       -5.0590    -3.2720     1.8520 H     1 <1>   0.1500 
 36 H       -9.2050    -3.0420     0.4650 H     1 <1>   0.0800 
 37 H       -9.7620    -2.7810    -1.1580 H     1 <1>   0.0800 
 38 H      -10.4840    -1.1340     1.4240 H     1 <1>   0.0800 
 39 H      -11.2040    -0.8870    -0.1430 H     1 <1>   0.0800 
 40 H      -10.4250     0.4410     0.6750 H     1 <1>   0.0800 
 41 H       -8.0310    -0.4280    -2.0340 H     1 <1>   0.0800 
 42 H       -9.0240     0.8350    -1.3640 H     1 <1>   0.0800 
 43 H       -9.7640    -0.5170    -2.1770 H     1 <1>   0.0800 
 44 H       -4.7330    -5.3420     3.1140 H     1 <1>   0.1500 
 45 H       -4.4310    -7.4630     1.9540 H     1 <1>   0.1500 
 46 H       -4.1560    -9.7340    -0.8910 H     1 <1>   0.0800 
 47 H       -5.1160    -9.2000     0.4840 H     1 <1>   0.0800 
 48 H       -3.3580    -8.9620     0.4750 H     1 <1>   0.0800 
@<TRIPOS>BOND
  1   1   2  2   
  2   2   3  am  
  3   2   4  am  
  4   3   5  1   
  5   3  28  1   
  6   4   6  am  
  7   4  29  1   
  8   5   7  1   
  9   5   8  2   
 10   6   8  1   
 11   6   9  2   
 12   7  10  1   
 13   7  30  1   
 14   8  11  1   
 15  10  12  2   
 16  10  13  1   
 17  11  12  1   
 18  11  14  1   
 19  11  31  1   
 20  12  15  1   
 21  13  16  1   
 22  13  32  1   
 23  13  33  1   
 24  14  17  ar  
 25  14  18  ar  
 26  15  19  2   
 27  15  20  1   
 28  16  20  1   
 29  16  21  1   
 30  16  22  1   
 31  17  23  ar  
 32  17  34  1   
 33  18  24  ar  
 34  18  35  1   
 35  20  36  1   
 36  20  37  1   
 37  21  38  1   
 38  21  39  1   
 39  21  40  1   
 40  22  41  1   
 41  22  42  1   
 42  22  43  1   
 43  23  25  1   
 44  23  26  ar  
 45  24  26  ar  
 46  24  44  1   
 47  25  27  1   
 48  26  45  1   
 49  27  46  1   
 50  27  47  1   
 51  27  48  1   
@<TRIPOS>SUBSTRUCTURE
  1 ****  11 GROUP 4 **** **** 0

# MOE 2024.06 (io_trps.svl 2023.06)
