@<TRIPOS>MOLECULE
3-Allyl-1-methyl-8-phenethyl-5,6,7,8-tetrahydro-1H-1,3,4b,8,9-pentaaza-fluorene-
51 54 1 0 0 
SMALL
USER_CHARGES


@<TRIPOS>ATOM
  1 O        1.8900    -0.7310    -0.3940 O.2   1 <1>  -0.5740 
  2 C        2.7170     0.1540    -0.4870 C.2   1 <1>   0.6860 
  3 N        2.3400     1.4820    -0.3520 N.am  1 <1>  -0.4260 
  4 N        4.0440    -0.1710    -0.7310 N.am  1 <1>  -0.4410 
  5 C        3.2590     2.5110    -0.4810 C.2   1 <1>   0.6990 
  6 C        0.9550     1.8020     0.0730 C.3   1 <1>   0.2720 
  7 C        4.9670     0.8560    -0.7920 C.2   1 <1>   0.4210 
  8 C        4.4390    -1.5940    -0.9350 C.3   1 <1>   0.0520 
  9 O        2.9130     3.6810    -0.4360 O.2   1 <1>  -0.5740 
 10 C        4.6300     2.1590    -0.6820 C.2   1 <1>   0.2710 
 11 C        0.9050     1.7910     1.5890 C.2   1 <1>  -0.2940 
 12 N        6.3160     0.7710    -0.9600 N.pl3 1 <1>  -0.7040 
 13 N        5.8280     2.8820    -0.7930 N.pl3 1 <1>  -0.7670 
 14 C        0.7520     2.8710     2.3620 C.2   1 <1>  -0.3060 
 15 C        6.8140     2.0060    -0.9580 C.cat 1 <1>   1.0690 
 16 C        6.0060     4.3420    -0.6890 C.3   1 <1>   0.3480 
 17 N        8.1030     2.3820    -1.0920 N.pl3 1 <1>  -0.5960 
 18 C        7.4310     4.6160    -0.2000 C.3   1 <1>  -0.1670 
 19 C        8.4820     3.8210    -0.9880 C.3   1 <1>   0.1610 
 20 C        9.2030     1.4660    -1.5180 C.3   1 <1>   0.1610 
 21 C        9.8310     0.7330    -0.3270 C.3   1 <1>  -0.0250 
 22 C        8.8360    -0.2280     0.3000 C.ar  1 <1>  -0.1510 
 23 C        8.1830     0.1060     1.4760 C.ar  1 <1>  -0.1570 
 24 C        8.5620    -1.4410    -0.3140 C.ar  1 <1>  -0.1570 
 25 C        7.2490    -0.7570     2.0230 C.ar  1 <1>  -0.1570 
 26 C        7.6310    -2.3050     0.2360 C.ar  1 <1>  -0.1570 
 27 C        6.9730    -1.9610     1.4020 C.ar  1 <1>  -0.1570 
 28 H        0.2600     1.0830    -0.3240 H     1 <1>   0.0720 
 29 H        0.6660     2.7710    -0.2990 H     1 <1>   0.0720 
 30 H        3.6980    -2.0970    -1.5330 H     1 <1>   0.0720 
 31 H        4.5020    -2.0890     0.0180 H     1 <1>   0.0720 
 32 H        5.3850    -1.6640    -1.4390 H     1 <1>   0.0720 
 33 H        1.0050     0.7970     1.9940 H     1 <1>   0.1430 
 34 H        6.9010    -0.0580    -0.8170 H     1 <1>   0.4450 
 35 H        0.7160     2.8390     3.4380 H     1 <1>   0.1430 
 36 H        0.6510     3.8760     1.9880 H     1 <1>   0.1430 
 37 H        5.2920     4.7570     0.0040 H     1 <1>   0.0720 
 38 H        5.8480     4.7900    -1.6560 H     1 <1>   0.0720 
 39 H        7.5020     4.3620     0.8440 H     1 <1>   0.0720 
 40 H        7.6400     5.6680    -0.2830 H     1 <1>   0.0720 
 41 H        8.5770     4.2280    -1.9820 H     1 <1>   0.0720 
 42 H        9.4360     3.9100    -0.4950 H     1 <1>   0.0720 
 43 H        9.9660     2.0340    -2.0250 H     1 <1>   0.0720 
 44 H        8.8210     0.7460    -2.2220 H     1 <1>   0.0720 
 45 H       10.1890     1.4430     0.3980 H     1 <1>   0.0720 
 46 H       10.6840     0.1730    -0.6710 H     1 <1>   0.0720 
 47 H        8.3990     1.0340     1.9780 H     1 <1>   0.1430 
 48 H        9.0780    -1.7280    -1.2160 H     1 <1>   0.1430 
 49 H        6.7460    -0.4980     2.9400 H     1 <1>   0.1430 
 50 H        7.4300    -3.2530    -0.2350 H     1 <1>   0.1430 
 51 H        6.2560    -2.6380     1.8380 H     1 <1>   0.1430 
@<TRIPOS>BOND
  1   1   2  2   
  2   2   3  am  
  3   2   4  am  
  4   3   5  am  
  5   3   6  1   
  6   4   7  1   
  7   4   8  1   
  8   5   9  2   
  9   5  10  1   
 10   6  11  1   
 11   6  28  1   
 12   6  29  1   
 13   7  10  2   
 14   7  12  1   
 15   8  30  1   
 16   8  31  1   
 17   8  32  1   
 18  10  13  1   
 19  11  14  2   
 20  11  33  1   
 21  12  15  ar  
 22  12  34  1   
 23  13  15  ar  
 24  13  16  1   
 25  14  35  1   
 26  14  36  1   
 27  15  17  ar  
 28  16  18  1   
 29  16  37  1   
 30  16  38  1   
 31  17  19  1   
 32  17  20  1   
 33  18  19  1   
 34  18  39  1   
 35  18  40  1   
 36  19  41  1   
 37  19  42  1   
 38  20  21  1   
 39  20  43  1   
 40  20  44  1   
 41  21  22  1   
 42  21  45  1   
 43  21  46  1   
 44  22  23  ar  
 45  22  24  ar  
 46  23  25  ar  
 47  23  47  1   
 48  24  26  ar  
 49  24  48  1   
 50  25  27  ar  
 51  25  49  1   
 52  26  27  ar  
 53  26  50  1   
 54  27  51  1   
@<TRIPOS>SUBSTRUCTURE
  1 ****   7 GROUP 4 **** **** 0

# MOE 2024.06 (io_trps.svl 2023.06)
