@<TRIPOS>MOLECULE
Cyclohexyl-(5-hydroxy-3-methyl-5-trifluoromethyl-4,5-dihydro-pyrazol-1-yl)-metha
36 37 1 0 0 
SMALL
USER_CHARGES


@<TRIPOS>ATOM
  1 F        3.0000     1.6320     0.1600 F     1 <1>  -0.3400 
  2 C        1.7300     1.2670     0.3310 C.3   1 <1>   1.0200 
  3 F        1.6810    -0.0130    -0.0240 F     1 <1>  -0.3400 
  4 F        1.5350     1.2860     1.6480 F     1 <1>  -0.3400 
  5 C        0.7230     2.2140    -0.4480 C.3   1 <1>   0.5800 
  6 O        0.8120     2.1210    -1.8420 O.3   1 <1>  -0.6800 
  7 N       -0.7140     1.9900    -0.1050 N.am  1 <1>  -0.2980 
  8 C        0.9220     3.6940    -0.0730 C.3   1 <1>  -0.0990 
  9 N       -1.2620     3.1090     0.4950 N.2   1 <1>  -0.5120 
 10 C       -1.3930     0.8500    -0.4860 C.2   1 <1>   0.5690 
 11 C       -0.4180     4.0370     0.5200 C.2   1 <1>   0.3280 
 12 O       -0.8800     0.0390    -1.2250 O.2   1 <1>  -0.5700 
 13 C       -2.8310     0.6260    -0.0040 C.3   1 <1>  -0.0190 
 14 C       -0.6450     5.4210     1.0850 C.3   1 <1>  -0.1790 
 15 C       -3.1230    -0.8580     0.3060 C.3   1 <1>  -0.1600 
 16 C       -3.8420     1.1700    -1.0310 C.3   1 <1>  -0.1600 
 17 C       -4.5700    -1.0600     0.7800 C.3   1 <1>  -0.1600 
 18 C       -5.2900     0.9640    -0.5630 C.3   1 <1>  -0.1600 
 19 C       -5.5680    -0.5120    -0.2480 C.3   1 <1>  -0.1600 
 20 H        0.3670     1.2780    -2.0970 H     1 <1>   0.4000 
 21 H        1.1290     4.3040    -0.9330 H     1 <1>   0.0800 
 22 H        1.6920     3.8290     0.6630 H     1 <1>   0.0800 
 23 H       -2.9630     1.1720     0.9130 H     1 <1>   0.0800 
 24 H        0.0420     5.6090     1.8880 H     1 <1>   0.0800 
 25 H       -1.6490     5.4990     1.4630 H     1 <1>   0.0800 
 26 H       -0.5070     6.1580     0.3160 H     1 <1>   0.0800 
 27 H       -2.4440    -1.2070     1.0640 H     1 <1>   0.0800 
 28 H       -2.9580    -1.4480    -0.5790 H     1 <1>   0.0800 
 29 H       -3.6960     0.6670    -1.9720 H     1 <1>   0.0800 
 30 H       -3.6640     2.2200    -1.1860 H     1 <1>   0.0800 
 31 H       -4.7120    -0.5550     1.7200 H     1 <1>   0.0800 
 32 H       -4.7530    -2.1090     0.9370 H     1 <1>   0.0800 
 33 H       -5.9670     1.3030    -1.3280 H     1 <1>   0.0800 
 34 H       -5.4660     1.5550     0.3190 H     1 <1>   0.0800 
 35 H       -6.5700    -0.6170     0.1310 H     1 <1>   0.0800 
 36 H       -5.4960    -1.0880    -1.1550 H     1 <1>   0.0800 
@<TRIPOS>BOND
  1   1   2  1   
  2   2   3  1   
  3   2   4  1   
  4   2   5  1   
  5   5   6  1   
  6   5   7  1   
  7   5   8  1   
  8   6  20  1   
  9   7   9  1   
 10   7  10  am  
 11   8  11  1   
 12   8  21  1   
 13   8  22  1   
 14   9  11  2   
 15  10  12  2   
 16  10  13  1   
 17  11  14  1   
 18  13  15  1   
 19  13  16  1   
 20  13  23  1   
 21  14  24  1   
 22  14  25  1   
 23  14  26  1   
 24  15  17  1   
 25  15  27  1   
 26  15  28  1   
 27  16  18  1   
 28  16  29  1   
 29  16  30  1   
 30  17  19  1   
 31  17  31  1   
 32  17  32  1   
 33  18  19  1   
 34  18  33  1   
 35  18  34  1   
 36  19  35  1   
 37  19  36  1   
@<TRIPOS>SUBSTRUCTURE
  1 ****   7 GROUP 4 **** **** 0

# MOE 2024.06 (io_trps.svl 2023.06)
