@<TRIPOS>MOLECULE
1-(4-Methoxy-3-methyl-benzenesulfonyl)-piperidine-4-carboxylic acid propylamide
50 51 1 0 0 
SMALL
USER_CHARGES


@<TRIPOS>ATOM
  1 S       -0.0110     0.0420     2.5920 S.o2  1 <1>   1.4470 
  2 O        0.6830    -1.0050     3.3140 O.2   1 <1>  -0.6500 
  3 O       -0.7380     1.0460     3.3380 O.2   1 <1>  -0.6500 
  4 N        1.1640     0.8470     1.6710 N.am  1 <1>  -0.8490 
  5 C       -1.1050    -0.6840     1.3400 C.ar  1 <1>  -0.0090 
  6 C        2.0550    -0.0880     0.9780 C.3   1 <1>   0.1960 
  7 C        1.9140     1.8080     2.4820 C.3   1 <1>   0.1960 
  8 C       -1.5060     0.0490     0.2290 C.ar  1 <1>  -0.1500 
  9 C       -1.5730    -1.9860     1.4600 C.ar  1 <1>  -0.1500 
 10 C        2.9880     0.6730     0.0350 C.3   1 <1>  -0.1600 
 11 C        2.8560     2.6290     1.5970 C.3   1 <1>  -0.1600 
 12 C       -2.3370    -0.4900    -0.7400 C.ar  1 <1>  -0.1430 
 13 C       -2.4050    -2.5420     0.5050 C.ar  1 <1>  -0.1500 
 14 C        3.8090     1.7270     0.7970 C.3   1 <1>  -0.0190 
 15 C       -2.7920    -1.7970    -0.6050 C.ar  1 <1>   0.0830 
 16 C       -2.7420     0.3540    -1.9400 C.3   1 <1>  -0.0970 
 17 C        4.6970     2.5420    -0.1420 C.2   1 <1>   0.5690 
 18 O       -3.6040    -2.2880    -1.5770 O.3   1 <1>  -0.3630 
 19 O        4.1970     3.1370    -1.0660 O.2   1 <1>  -0.5700 
 20 N        6.0350     2.5750     0.0940 N.am  1 <1>  -0.7300 
 21 C       -4.1400    -3.5910    -1.5120 C.3   1 <1>   0.0400 
 22 C        7.0230     3.3030    -0.7290 C.3   1 <1>   0.1400 
 23 C        8.1440     2.3430    -1.1270 C.3   1 <1>  -0.1600 
 24 C        9.2050     3.0500    -1.9780 C.3   1 <1>  -0.2400 
 25 H        1.4720    -0.7860     0.3990 H     1 <1>   0.0800 
 26 H        2.6340    -0.6470     1.6950 H     1 <1>   0.0800 
 27 H        2.4730     1.2870     3.2430 H     1 <1>   0.0800 
 28 H        1.2310     2.4840     2.9720 H     1 <1>   0.0800 
 29 H       -1.1550     1.0630     0.1290 H     1 <1>   0.1500 
 30 H       -1.2810    -2.5740     2.3150 H     1 <1>   0.1500 
 31 H        2.3970     1.1500    -0.7280 H     1 <1>   0.0800 
 32 H        3.6510    -0.0210    -0.4510 H     1 <1>   0.0800 
 33 H        3.4240     3.3050     2.2110 H     1 <1>   0.0800 
 34 H        2.2640     3.2220     0.9210 H     1 <1>   0.0800 
 35 H       -2.7390    -3.5530     0.6420 H     1 <1>   0.1500 
 36 H        4.4430     1.2110     1.4950 H     1 <1>   0.0800 
 37 H       -2.2830     1.3250    -1.9080 H     1 <1>   0.0800 
 38 H       -3.8100     0.4770    -1.9520 H     1 <1>   0.0800 
 39 H       -2.4430    -0.1380    -2.8480 H     1 <1>   0.0800 
 40 H        6.4210     2.0720     0.8920 H     1 <1>   0.3700 
 41 H       -4.7550    -3.7420    -2.3810 H     1 <1>   0.0800 
 42 H       -4.7370    -3.6780    -0.6220 H     1 <1>   0.0800 
 43 H       -3.3320    -4.3010    -1.5080 H     1 <1>   0.0800 
 44 H        7.4210     4.1260    -0.1600 H     1 <1>   0.0800 
 45 H        6.5490     3.7000    -1.6120 H     1 <1>   0.0800 
 46 H        7.7260     1.5290    -1.6940 H     1 <1>   0.0800 
 47 H        8.6110     1.9460    -0.2430 H     1 <1>   0.0800 
 48 H        8.7660     3.4410    -2.8790 H     1 <1>   0.0800 
 49 H        9.9810     2.3550    -2.2510 H     1 <1>   0.0800 
 50 H        9.6520     3.8610    -1.4290 H     1 <1>   0.0800 
@<TRIPOS>BOND
  1   1   2  2   
  2   1   3  2   
  3   1   4  am  
  4   1   5  1   
  5   4   6  1   
  6   4   7  1   
  7   5   8  ar  
  8   5   9  ar  
  9   6  10  1   
 10   6  25  1   
 11   6  26  1   
 12   7  11  1   
 13   7  27  1   
 14   7  28  1   
 15   8  12  ar  
 16   8  29  1   
 17   9  13  ar  
 18   9  30  1   
 19  10  14  1   
 20  10  31  1   
 21  10  32  1   
 22  11  14  1   
 23  11  33  1   
 24  11  34  1   
 25  12  15  ar  
 26  12  16  1   
 27  13  15  ar  
 28  13  35  1   
 29  14  17  1   
 30  14  36  1   
 31  15  18  1   
 32  16  37  1   
 33  16  38  1   
 34  16  39  1   
 35  17  19  2   
 36  17  20  am  
 37  18  21  1   
 38  20  22  1   
 39  20  40  1   
 40  21  41  1   
 41  21  42  1   
 42  21  43  1   
 43  22  23  1   
 44  22  44  1   
 45  22  45  1   
 46  23  24  1   
 47  23  46  1   
 48  23  47  1   
 49  24  48  1   
 50  24  49  1   
 51  24  50  1   
@<TRIPOS>SUBSTRUCTURE
  1 ****   6 GROUP 4 **** **** 0

# MOE 2024.06 (io_trps.svl 2023.06)
