@<TRIPOS>MOLECULE
3-(3-Methoxy-quinoxalin-2-yl)-propionic acid methyl ester
32 33 1 0 0 
SMALL
USER_CHARGES


@<TRIPOS>ATOM
  1 O       -0.4640    -0.0180     0.0080 O.2   1 <1>  -0.5700 
  2 C       -1.4840    -0.6530     0.0060 C.2   1 <1>   0.6590 
  3 O       -1.4350    -1.9830     0.0050 O.3   1 <1>  -0.4300 
  4 C       -2.8430     0.0320     0.0050 C.3   1 <1>  -0.0990 
  5 C       -2.5530    -2.8460     0.0030 C.3   1 <1>   0.0400 
  6 C       -2.7540     1.5710     0.0060 C.3   1 <1>  -0.0170 
  7 C       -4.1090     2.2830     0.0040 C.ar  1 <1>   0.1660 
  8 N       -5.1920     1.5640     0.0030 N.ar  1 <1>  -0.6200 
  9 C       -4.1170     3.7100     0.0040 C.ar  1 <1>   0.3930 
 10 C       -6.3460     2.2820     0.0020 C.ar  1 <1>   0.3100 
 11 O       -2.9230     4.3430     0.0050 O.3   1 <1>  -0.3620 
 12 N       -5.2060     4.4280     0.0020 N.ar  1 <1>  -0.6200 
 13 C       -6.3480     3.6990     0.0010 C.ar  1 <1>   0.3100 
 14 C       -7.5740     1.6040     0.0010 C.ar  1 <1>  -0.1500 
 15 C       -2.8320     5.7540     0.0040 C.3   1 <1>   0.0400 
 16 C       -7.5820     4.3680     0.0000 C.ar  1 <1>  -0.1500 
 17 C       -8.7650     2.2830    -0.0010 C.ar  1 <1>  -0.1500 
 18 C       -8.7690     3.6800    -0.0010 C.ar  1 <1>  -0.1500 
 19 H       -3.3860    -0.2830     0.8770 H     1 <1>   0.0800 
 20 H       -3.3830    -0.2820    -0.8690 H     1 <1>   0.0800 
 21 H       -2.1920    -3.8590     0.0030 H     1 <1>   0.0800 
 22 H       -3.1360    -2.6680    -0.8840 H     1 <1>   0.0800 
 23 H       -3.1380    -2.6700     0.8880 H     1 <1>   0.0800 
 24 H       -2.2020     1.8880    -0.8620 H     1 <1>   0.0800 
 25 H       -2.2040     1.8870     0.8750 H     1 <1>   0.0800 
 26 H       -7.5510     0.5290     0.0010 H     1 <1>   0.1500 
 27 H       -1.7920     6.0260     0.0050 H     1 <1>   0.0800 
 28 H       -3.3150     6.1340     0.8870 H     1 <1>   0.0800 
 29 H       -3.3140     6.1330    -0.8800 H     1 <1>   0.0800 
 30 H       -7.5670     5.4420    -0.0010 H     1 <1>   0.1500 
 31 H       -9.7030     1.7540    -0.0020 H     1 <1>   0.1500 
 32 H       -9.7090     4.2050    -0.0030 H     1 <1>   0.1500 
@<TRIPOS>BOND
  1   1   2  2   
  2   2   3  1   
  3   2   4  1   
  4   3   5  1   
  5   4   6  1   
  6   4  19  1   
  7   4  20  1   
  8   5  21  1   
  9   5  22  1   
 10   5  23  1   
 11   6   7  1   
 12   6  24  1   
 13   6  25  1   
 14   7   8  ar  
 15   7   9  ar  
 16   8  10  ar  
 17   9  11  1   
 18   9  12  ar  
 19  10  13  ar  
 20  10  14  ar  
 21  11  15  1   
 22  12  13  ar  
 23  13  16  ar  
 24  14  17  ar  
 25  14  26  1   
 26  15  27  1   
 27  15  28  1   
 28  15  29  1   
 29  16  18  ar  
 30  16  30  1   
 31  17  18  ar  
 32  17  31  1   
 33  18  32  1   
@<TRIPOS>SUBSTRUCTURE
  1 ****   7 GROUP 4 **** **** 0

# MOE 2024.06 (io_trps.svl 2023.06)
