@<TRIPOS>MOLECULE
N-tert-Butyl-3-[3-(4-tert-butyl-phenyl)-[1,2,4]oxadiazol-5-yl]-propionamide
51 52 1 0 0 
SMALL
USER_CHARGES


@<TRIPOS>ATOM
  1 O        0.2410    -0.6510     0.3550 O.2   1 <1>  -0.5700 
  2 C        0.7350    -1.7480     0.2790 C.2   1 <1>   0.5690 
  3 N        2.0680    -1.8670     0.4820 N.am  1 <1>  -0.7300 
  4 C       -0.1600    -2.9330    -0.0380 C.3   1 <1>  -0.0990 
  5 C        3.0260    -2.9770     0.4880 C.3   1 <1>   0.3000 
  6 C       -1.5240    -2.5200    -0.6150 C.3   1 <1>   0.0200 
  7 C        4.3000    -2.4260     1.1270 C.3   1 <1>  -0.2400 
  8 C        2.5170    -4.1520     1.3260 C.3   1 <1>  -0.2400 
  9 C        3.3220    -3.3970    -0.9510 C.3   1 <1>  -0.2400 
 10 C       -2.3480    -3.7390    -0.9750 C.2   1 <1>   0.2980 
 11 O       -1.9930    -4.4530    -2.0110 O.3   1 <1>  -0.0190 
 12 N       -3.3700    -4.1540    -0.3520 N.2   1 <1>  -0.5650 
 13 N       -2.8650    -5.4090    -2.0490 N.2   1 <1>  -0.4100 
 14 C       -3.6850    -5.2360    -1.0720 C.2   1 <1>   0.4620 
 15 C       -4.8190    -6.0890    -0.7550 C.ar  1 <1>   0.0540 
 16 C       -5.1060    -7.2260    -1.5080 C.ar  1 <1>  -0.1500 
 17 C       -5.6720    -5.8160     0.3130 C.ar  1 <1>  -0.1500 
 18 C       -6.1820    -8.0410    -1.2100 C.ar  1 <1>  -0.1500 
 19 C       -6.7490    -6.6300     0.6140 C.ar  1 <1>  -0.1500 
 20 C       -7.0290    -7.7640    -0.1430 C.ar  1 <1>  -0.1430 
 21 C       -8.2180    -8.7040     0.1510 C.3   1 <1>   0.1430 
 22 C       -7.6940   -10.1180     0.4450 C.3   1 <1>  -0.2400 
 23 C       -9.0570    -8.2590     1.3620 C.3   1 <1>  -0.2400 
 24 C       -9.1520    -8.7480    -1.0680 C.3   1 <1>  -0.2400 
 25 H        2.5180    -0.9700     0.6700 H     1 <1>   0.3700 
 26 H       -0.3220    -3.4870     0.8670 H     1 <1>   0.0800 
 27 H        0.3330    -3.5670    -0.7470 H     1 <1>   0.0800 
 28 H       -1.3860    -1.9160    -1.4940 H     1 <1>   0.0800 
 29 H       -2.0620    -1.9350     0.1110 H     1 <1>   0.0800 
 30 H        4.1080    -2.1080     2.1360 H     1 <1>   0.0800 
 31 H        4.6800    -1.5940     0.5610 H     1 <1>   0.0800 
 32 H        5.0610    -3.1850     1.1540 H     1 <1>   0.0800 
 33 H        3.3100    -4.8620     1.4790 H     1 <1>   0.0800 
 34 H        1.7200    -4.6730     0.8330 H     1 <1>   0.0800 
 35 H        2.1820    -3.8100     2.2890 H     1 <1>   0.0800 
 36 H        4.0900    -4.1500    -0.9640 H     1 <1>   0.0800 
 37 H        3.6660    -2.5550    -1.5240 H     1 <1>   0.0800 
 38 H        2.4520    -3.8070    -1.4250 H     1 <1>   0.0800 
 39 H       -4.4760    -7.4770    -2.3430 H     1 <1>   0.1500 
 40 H       -5.4890    -4.9480     0.9230 H     1 <1>   0.1500 
 41 H       -6.3530    -8.9040    -1.8270 H     1 <1>   0.1500 
 42 H       -7.3590    -6.3520     1.4520 H     1 <1>   0.1500 
 43 H       -7.0120   -10.0910     1.2760 H     1 <1>   0.0800 
 44 H       -7.1760   -10.5240    -0.4040 H     1 <1>   0.0800 
 45 H       -8.5050   -10.7810     0.6880 H     1 <1>   0.0800 
 46 H       -8.4530    -8.2380     2.2520 H     1 <1>   0.0800 
 47 H       -9.8710    -8.9410     1.5300 H     1 <1>   0.0800 
 48 H       -9.4710    -7.2810     1.1950 H     1 <1>   0.0800 
 49 H       -8.6460    -9.1410    -1.9300 H     1 <1>   0.0800 
 50 H       -9.4950    -7.7560    -1.3020 H     1 <1>   0.0800 
 51 H      -10.0070    -9.3690    -0.8700 H     1 <1>   0.0800 
@<TRIPOS>BOND
  1   1   2  2   
  2   2   3  am  
  3   2   4  1   
  4   3   5  1   
  5   3  25  1   
  6   4   6  1   
  7   4  26  1   
  8   4  27  1   
  9   5   7  1   
 10   5   8  1   
 11   5   9  1   
 12   6  10  1   
 13   6  28  1   
 14   6  29  1   
 15   7  30  1   
 16   7  31  1   
 17   7  32  1   
 18   8  33  1   
 19   8  34  1   
 20   8  35  1   
 21   9  36  1   
 22   9  37  1   
 23   9  38  1   
 24  10  11  1   
 25  10  12  2   
 26  11  13  1   
 27  12  14  1   
 28  13  14  2   
 29  14  15  1   
 30  15  16  ar  
 31  15  17  ar  
 32  16  18  ar  
 33  16  39  1   
 34  17  19  ar  
 35  17  40  1   
 36  18  20  ar  
 37  18  41  1   
 38  19  20  ar  
 39  19  42  1   
 40  20  21  1   
 41  21  22  1   
 42  21  23  1   
 43  21  24  1   
 44  22  43  1   
 45  22  44  1   
 46  22  45  1   
 47  23  46  1   
 48  23  47  1   
 49  23  48  1   
 50  24  49  1   
 51  24  50  1   
 52  24  51  1   
@<TRIPOS>SUBSTRUCTURE
  1 ****  12 GROUP 4 **** **** 0

# MOE 2024.06 (io_trps.svl 2023.06)
