@<TRIPOS>MOLECULE
8-(3,5-Dimethyl-piperidin-1-yl)-7-(2-methoxy-ethyl)-3-methyl-3,7-dihydro-purine-
50 52 1 0 0 
SMALL
USER_CHARGES


@<TRIPOS>ATOM
  1 O        0.9130     0.3590    -0.0740 O.2   1 <1>  -0.5750 
  2 C        1.9480     0.9390     0.1540 C.2   1 <1>   0.6860 
  3 N        3.1640     0.5170    -0.3640 N.am  1 <1>  -0.4410 
  4 N        1.9110     2.0480     0.9490 N.am  1 <1>  -0.4950 
  5 C        4.2910     1.2600    -0.0440 C.2   1 <1>   0.4210 
  6 C        3.2540    -0.6830    -1.2460 C.3   1 <1>   0.0520 
  7 C        3.0110     2.7910     1.2690 C.2   1 <1>   0.6990 
  8 N        5.5640     1.0570    -0.4640 N.pl3 1 <1>  -0.7040 
  9 C        4.2740     2.3500     0.7530 C.2   1 <1>   0.2710 
 10 O        2.8700     3.7860     1.9520 O.2   1 <1>  -0.5750 
 11 C        6.3480     2.0050     0.0580 C.cat 1 <1>   1.0690 
 12 N        5.6010     2.8110     0.8360 N.pl3 1 <1>  -0.7670 
 13 N        7.6740     2.0520    -0.1960 N.pl3 1 <1>  -0.5960 
 14 C        5.9140     4.1840     1.3370 C.3   1 <1>   0.3480 
 15 C        8.2940     1.3850    -1.3760 C.3   1 <1>   0.1600 
 16 C        8.6770     2.6680     0.7250 C.3   1 <1>   0.1600 
 17 C        5.6670     5.2400     0.2480 C.3   1 <1>   0.1120 
 18 C        9.1340     0.1770    -0.9200 C.3   1 <1>  -0.0880 
 19 C       10.0370     1.9390     0.6930 C.3   1 <1>  -0.0880 
 20 O        6.2440     4.8240    -0.9550 O.3   1 <1>  -0.5650 
 21 C        9.8540     0.4350     0.4240 C.3   1 <1>  -0.1670 
 22 C       10.1440    -0.1910    -2.0150 C.3   1 <1>  -0.2470 
 23 C       10.8040     2.1620     2.0030 C.3   1 <1>  -0.2470 
 24 C        6.1210     5.7520    -1.9860 C.3   1 <1>   0.0320 
 25 H        1.0020     2.3380     1.3050 H     1 <1>   0.3640 
 26 H        2.3050    -1.1890    -1.3040 H     1 <1>   0.0720 
 27 H        3.9800    -1.3730    -0.8530 H     1 <1>   0.0720 
 28 H        3.5410    -0.3840    -2.2390 H     1 <1>   0.0720 
 29 H        5.9070     0.3140    -1.0620 H     1 <1>   0.4450 
 30 H        6.9320     4.2570     1.6630 H     1 <1>   0.0720 
 31 H        5.3030     4.4100     2.1940 H     1 <1>   0.0720 
 32 H        8.9310     2.1020    -1.8670 H     1 <1>   0.0720 
 33 H        7.5550     1.0770    -2.0950 H     1 <1>   0.0720 
 34 H        8.2940     2.6170     1.7300 H     1 <1>   0.0720 
 35 H        8.8200     3.7030     0.4610 H     1 <1>   0.0720 
 36 H        6.1030     6.1800     0.5400 H     1 <1>   0.0720 
 37 H        4.6090     5.3740     0.0940 H     1 <1>   0.0720 
 38 H        8.4810    -0.6690    -0.7910 H     1 <1>   0.0720 
 39 H       10.6300     2.3590    -0.1040 H     1 <1>   0.0720 
 40 H       10.8080    -0.0640     0.4430 H     1 <1>   0.0720 
 41 H        9.2630     0.0150     1.2200 H     1 <1>   0.0720 
 42 H       10.8540     0.6050    -2.1630 H     1 <1>   0.0720 
 43 H        9.6420    -0.3820    -2.9470 H     1 <1>   0.0720 
 44 H       10.6860    -1.0800    -1.7400 H     1 <1>   0.0720 
 45 H       10.2710     1.7400     2.8370 H     1 <1>   0.0720 
 46 H       10.9480     3.2130     2.1790 H     1 <1>   0.0720 
 47 H       11.7720     1.6960     1.9490 H     1 <1>   0.0720 
 48 H        6.5870     5.3440    -2.8660 H     1 <1>   0.0720 
 49 H        6.6170     6.6660    -1.7070 H     1 <1>   0.0720 
 50 H        5.0780     5.9340    -2.1820 H     1 <1>   0.0720 
@<TRIPOS>BOND
  1   1   2  2   
  2   2   3  am  
  3   2   4  am  
  4   3   5  1   
  5   3   6  1   
  6   4   7  am  
  7   4  25  1   
  8   5   8  1   
  9   5   9  2   
 10   6  26  1   
 11   6  27  1   
 12   6  28  1   
 13   7   9  1   
 14   7  10  2   
 15   8  11  ar  
 16   8  29  1   
 17   9  12  1   
 18  11  12  ar  
 19  11  13  ar  
 20  12  14  1   
 21  13  15  1   
 22  13  16  1   
 23  14  17  1   
 24  14  30  1   
 25  14  31  1   
 26  15  18  1   
 27  15  32  1   
 28  15  33  1   
 29  16  19  1   
 30  16  34  1   
 31  16  35  1   
 32  17  20  1   
 33  17  36  1   
 34  17  37  1   
 35  18  21  1   
 36  18  22  1   
 37  18  38  1   
 38  19  21  1   
 39  19  23  1   
 40  19  39  1   
 41  20  24  1   
 42  21  40  1   
 43  21  41  1   
 44  22  42  1   
 45  22  43  1   
 46  22  44  1   
 47  23  45  1   
 48  23  46  1   
 49  23  47  1   
 50  24  48  1   
 51  24  49  1   
 52  24  50  1   
@<TRIPOS>SUBSTRUCTURE
  1 ****  11 GROUP 4 **** **** 0

# MOE 2024.06 (io_trps.svl 2023.06)
