@<TRIPOS>MOLECULE
1-(2,5-Dimethoxy-benzenesulfonyl)-piperidine-4-carboxylic acid (2-chloro-phenyl)
52 54 1 0 0 
SMALL
USER_CHARGES


@<TRIPOS>ATOM
  1 CL      -2.3610     4.6770     1.6940 Cl    1 <1>  -0.1770 
  2 C       -1.5150     4.0600     0.2880 C.ar  1 <1>   0.1770 
  3 C       -2.0310     2.9540    -0.3870 C.ar  1 <1>   0.1170 
  4 C       -0.3540     4.6950    -0.1100 C.ar  1 <1>  -0.1500 
  5 N       -3.2220     2.3640     0.0850 N.am  1 <1>  -0.5470 
  6 C       -1.3240     2.4990    -1.4970 C.ar  1 <1>  -0.1500 
  7 C        0.3300     4.2240    -1.2170 C.ar  1 <1>  -0.1500 
  8 C       -3.9740     1.3080    -0.3540 C.2   1 <1>   0.5690 
  9 C       -0.1580     3.1270    -1.9070 C.ar  1 <1>  -0.1500 
 10 O       -3.6970     0.6490    -1.3250 O.2   1 <1>  -0.5700 
 11 C       -5.2320     0.9620     0.4430 C.3   1 <1>  -0.0190 
 12 C       -5.2090    -0.4880     0.9520 C.3   1 <1>  -0.1600 
 13 C       -6.5070     1.1800    -0.3850 C.3   1 <1>  -0.1600 
 14 C       -6.4970    -0.8310     1.7040 C.3   1 <1>   0.1960 
 15 C       -7.7570     0.7880     0.4060 C.3   1 <1>   0.1960 
 16 N       -7.6700    -0.6060     0.8550 N.am  1 <1>  -0.8490 
 17 S       -9.0850    -1.1080     1.6480 S.o2  1 <1>   1.4470 
 18 O       -8.8340    -2.4600     2.1040 O.2   1 <1>  -0.6500 
 19 O       -9.3720    -0.1100     2.6570 O.2   1 <1>  -0.6500 
 20 C      -10.3450    -1.1910     0.3440 C.ar  1 <1>  -0.0090 
 21 C      -11.1380    -0.0990    -0.0050 C.ar  1 <1>   0.0830 
 22 C      -10.5320    -2.3760    -0.3600 C.ar  1 <1>  -0.1500 
 23 O      -10.9820     1.0910     0.6120 O.3   1 <1>  -0.3620 
 24 C      -12.0850    -0.1910    -1.0140 C.ar  1 <1>  -0.1500 
 25 C      -11.4830    -2.4810    -1.3700 C.ar  1 <1>   0.0830 
 26 C      -11.9570     1.4300     1.5740 C.3   1 <1>   0.0400 
 27 C      -12.2590    -1.3810    -1.6910 C.ar  1 <1>  -0.1500 
 28 O      -11.7090    -3.6150    -2.0810 O.3   1 <1>  -0.3620 
 29 C      -10.9690    -4.7910    -1.8340 C.3   1 <1>   0.0400 
 30 H        0.0090     5.5450     0.4390 H     1 <1>   0.1500 
 31 H       -3.5880     2.8310     0.9160 H     1 <1>   0.3700 
 32 H       -1.6720     1.6510    -2.0570 H     1 <1>   0.1500 
 33 H        1.2360     4.7070    -1.5410 H     1 <1>   0.1500 
 34 H        0.3710     2.7570    -2.7690 H     1 <1>   0.1500 
 35 H       -5.2800     1.6100     1.3000 H     1 <1>   0.0800 
 36 H       -4.3660    -0.6330     1.6030 H     1 <1>   0.0800 
 37 H       -5.1030    -1.1660     0.1230 H     1 <1>   0.0800 
 38 H       -6.4650     0.5860    -1.2830 H     1 <1>   0.0800 
 39 H       -6.5800     2.2120    -0.6790 H     1 <1>   0.0800 
 40 H       -6.5760    -0.2350     2.5990 H     1 <1>   0.0800 
 41 H       -6.4530    -1.8680     1.9970 H     1 <1>   0.0800 
 42 H       -8.6100     0.9100    -0.2380 H     1 <1>   0.0800 
 43 H       -7.8790     1.4430     1.2540 H     1 <1>   0.0800 
 44 H       -9.9160    -3.2170    -0.1010 H     1 <1>   0.1500 
 45 H      -12.6780     0.6690    -1.2700 H     1 <1>   0.1500 
 46 H      -11.6820     2.3710     2.0140 H     1 <1>   0.0800 
 47 H      -11.9790     0.6670     2.3320 H     1 <1>   0.0800 
 48 H      -12.9160     1.5120     1.0930 H     1 <1>   0.0800 
 49 H      -12.9910    -1.4660    -2.4750 H     1 <1>   0.1500 
 50 H      -11.3180    -5.5530    -2.5090 H     1 <1>   0.0800 
 51 H      -11.1330    -5.1010    -0.8170 H     1 <1>   0.0800 
 52 H       -9.9270    -4.5940    -2.0150 H     1 <1>   0.0800 
@<TRIPOS>BOND
  1   1   2  1   
  2   2   3  ar  
  3   2   4  ar  
  4   3   5  1   
  5   3   6  ar  
  6   4   7  ar  
  7   4  30  1   
  8   5   8  am  
  9   5  31  1   
 10   6   9  ar  
 11   6  32  1   
 12   7   9  ar  
 13   7  33  1   
 14   8  10  2   
 15   8  11  1   
 16   9  34  1   
 17  11  12  1   
 18  11  13  1   
 19  11  35  1   
 20  12  14  1   
 21  12  36  1   
 22  12  37  1   
 23  13  15  1   
 24  13  38  1   
 25  13  39  1   
 26  14  16  1   
 27  14  40  1   
 28  14  41  1   
 29  15  16  1   
 30  15  42  1   
 31  15  43  1   
 32  16  17  am  
 33  17  18  2   
 34  17  19  2   
 35  17  20  1   
 36  20  21  ar  
 37  20  22  ar  
 38  21  23  1   
 39  21  24  ar  
 40  22  25  ar  
 41  22  44  1   
 42  23  26  1   
 43  24  27  ar  
 44  24  45  1   
 45  25  27  ar  
 46  25  28  1   
 47  26  46  1   
 48  26  47  1   
 49  26  48  1   
 50  27  49  1   
 51  28  29  1   
 52  29  50  1   
 53  29  51  1   
 54  29  52  1   
@<TRIPOS>SUBSTRUCTURE
  1 ****  13 GROUP 4 **** **** 0

# MOE 2024.06 (io_trps.svl 2023.06)
