@<TRIPOS>MOLECULE
1-(4-Ethoxy-3-methyl-benzenesulfonyl)-piperidine-3-carboxylic acid (pyridin-3-yl
56 58 1 0 0 
SMALL
USER_CHARGES


@<TRIPOS>ATOM
  1 S       -0.1900    -1.4520     1.6820 S.o2  1 <1>   1.4470 
  2 O       -0.9540    -2.5480     2.2380 O.2   1 <1>  -0.6500 
  3 O        0.8560    -0.8440     2.4790 O.2   1 <1>  -0.6500 
  4 N        0.5630    -2.0410     0.2820 N.am  1 <1>  -0.8490 
  5 C       -1.3210    -0.1840     1.0460 C.ar  1 <1>  -0.0090 
  6 C        1.4730    -1.0610    -0.3560 C.3   1 <1>   0.1960 
  7 C        1.1390    -3.3770     0.5030 C.3   1 <1>   0.1960 
  8 C       -2.2250    -0.4780     0.0330 C.ar  1 <1>  -0.1500 
  9 C       -1.3110     1.1120     1.5500 C.ar  1 <1>  -0.1500 
 10 C        2.9520    -1.3550    -0.0570 C.3   1 <1>  -0.0190 
 11 C        2.1590    -3.7330    -0.5830 C.3   1 <1>  -0.1600 
 12 C       -3.0900     0.4780    -0.4740 C.ar  1 <1>  -0.1430 
 13 C       -2.1670     2.0810     1.0570 C.ar  1 <1>  -0.1500 
 14 C        3.8520    -0.2650    -0.6200 C.2   1 <1>   0.5690 
 15 C        3.3440    -2.7480    -0.5980 C.3   1 <1>  -0.1600 
 16 C       -3.0630     1.7710     0.0380 C.ar  1 <1>   0.0820 
 17 C       -4.0600     0.1070    -1.5870 C.3   1 <1>  -0.0960 
 18 O        3.5070     0.3550    -1.5970 O.2   1 <1>  -0.5700 
 19 N        5.0370    -0.0190    -0.0100 N.am  1 <1>  -0.7300 
 20 O       -3.9240     2.6780    -0.4900 O.3   1 <1>  -0.3630 
 21 C        6.0220     0.9730    -0.4740 C.3   1 <1>   0.2840 
 22 C       -3.9590     4.0160    -0.0520 C.3   1 <1>   0.1200 
 23 C        7.4110     0.4330    -0.1980 C.ar  1 <1>  -0.1440 
 24 C       -5.0260     4.7490    -0.8600 C.3   1 <1>  -0.2400 
 25 C        8.0330    -0.3950    -1.1220 C.ar  1 <1>   0.1600 
 26 C        8.0800     0.7510     0.9670 C.ar  1 <1>  -0.1500 
 27 N        9.2410    -0.9180    -0.9790 N.ar  1 <1>  -0.6200 
 28 C        9.3400     0.2160     1.1310 C.ar  1 <1>  -0.1500 
 29 C        9.8660    -0.5990     0.1430 C.ar  1 <1>   0.1600 
 30 H        1.2310    -0.0570    -0.0460 H     1 <1>   0.0800 
 31 H        1.3250    -1.1050    -1.4220 H     1 <1>   0.0800 
 32 H        0.3430    -4.1040     0.5150 H     1 <1>   0.0800 
 33 H        1.6280    -3.4080     1.4640 H     1 <1>   0.0800 
 34 H       -2.2430    -1.4800    -0.3610 H     1 <1>   0.1500 
 35 H       -0.6220     1.3650     2.3390 H     1 <1>   0.1500 
 36 H        3.0690    -1.3460     1.0120 H     1 <1>   0.0800 
 37 H        1.6560    -3.7170    -1.5350 H     1 <1>   0.0800 
 38 H        2.5210    -4.7340    -0.4260 H     1 <1>   0.0800 
 39 H       -2.1200     3.0660     1.4790 H     1 <1>   0.1500 
 40 H        4.1510    -3.1370    -0.0010 H     1 <1>   0.0800 
 41 H        3.7010    -2.6610    -1.6110 H     1 <1>   0.0800 
 42 H       -3.9560    -0.9250    -1.8680 H     1 <1>   0.0800 
 43 H       -3.8730     0.7190    -2.4510 H     1 <1>   0.0800 
 44 H       -5.0700     0.2740    -1.2590 H     1 <1>   0.0800 
 45 H        5.3310    -0.5700     0.7980 H     1 <1>   0.3700 
 46 H        5.8700     1.8990     0.0520 H     1 <1>   0.0800 
 47 H        5.8950     1.1580    -1.5280 H     1 <1>   0.0800 
 48 H       -2.9900     4.4540    -0.2160 H     1 <1>   0.0800 
 49 H       -4.2040     4.0250     0.9960 H     1 <1>   0.0800 
 50 H       -4.7810     4.7200    -1.9070 H     1 <1>   0.0800 
 51 H       -5.0770     5.7770    -0.5480 H     1 <1>   0.0800 
 52 H       -5.9870     4.2940    -0.7030 H     1 <1>   0.0800 
 53 H        7.5080    -0.6440    -2.0290 H     1 <1>   0.1500 
 54 H        7.6460     1.3890     1.7180 H     1 <1>   0.1500 
 55 H        9.9140     0.4270     2.0160 H     1 <1>   0.1500 
 56 H       10.8510    -1.0110     0.2830 H     1 <1>   0.1500 
@<TRIPOS>BOND
  1   1   2  2   
  2   1   3  2   
  3   1   4  am  
  4   1   5  1   
  5   4   6  1   
  6   4   7  1   
  7   5   8  ar  
  8   5   9  ar  
  9   6  10  1   
 10   6  30  1   
 11   6  31  1   
 12   7  11  1   
 13   7  32  1   
 14   7  33  1   
 15   8  12  ar  
 16   8  34  1   
 17   9  13  ar  
 18   9  35  1   
 19  10  14  1   
 20  10  15  1   
 21  10  36  1   
 22  11  15  1   
 23  11  37  1   
 24  11  38  1   
 25  12  16  ar  
 26  12  17  1   
 27  13  16  ar  
 28  13  39  1   
 29  14  18  2   
 30  14  19  am  
 31  15  40  1   
 32  15  41  1   
 33  16  20  1   
 34  17  42  1   
 35  17  43  1   
 36  17  44  1   
 37  19  21  1   
 38  19  45  1   
 39  20  22  1   
 40  21  23  1   
 41  21  46  1   
 42  21  47  1   
 43  22  24  1   
 44  22  48  1   
 45  22  49  1   
 46  23  25  ar  
 47  23  26  ar  
 48  24  50  1   
 49  24  51  1   
 50  24  52  1   
 51  25  27  ar  
 52  25  53  1   
 53  26  28  ar  
 54  26  54  1   
 55  27  29  ar  
 56  28  29  ar  
 57  28  55  1   
 58  29  56  1   
@<TRIPOS>SUBSTRUCTURE
  1 ****   6 GROUP 4 **** **** 0

# MOE 2024.06 (io_trps.svl 2023.06)
