@<TRIPOS>MOLECULE
3-[3-(4-Chloro-phenyl)-[1,2,4]oxadiazol-5-yl]-1-piperidin-1-yl-propan-1-one
40 42 1 0 0 
SMALL
USER_CHARGES


@<TRIPOS>ATOM
  1 CL       1.5300     0.0880     2.4110 Cl    1 <1>  -0.1770 
  2 C        2.5930     1.1480     1.5230 C.ar  1 <1>   0.1770 
  3 C        2.9220     2.3810     2.0510 C.ar  1 <1>  -0.1500 
  4 C        3.0940     0.7430     0.3020 C.ar  1 <1>  -0.1500 
  5 C        3.7660     3.2180     1.3420 C.ar  1 <1>  -0.1500 
  6 C        3.9380     1.5890    -0.3980 C.ar  1 <1>  -0.1500 
  7 C        4.2960     2.8450     0.1020 C.ar  1 <1>   0.0540 
  8 C        5.1840     3.7240    -0.6430 C.2   1 <1>   0.4620 
  9 N        5.7110     3.4640    -1.7870 N.2   1 <1>  -0.4100 
 10 N        5.5530     4.9280    -0.1930 N.2   1 <1>  -0.5650 
 11 O        6.4370     4.4800    -2.1320 O.3   1 <1>  -0.0190 
 12 C        6.3010     5.3190    -1.1390 C.2   1 <1>   0.2980 
 13 C        7.0360     6.6420    -1.1970 C.3   1 <1>   0.0200 
 14 C        8.5470     6.4410    -0.9930 C.3   1 <1>  -0.0990 
 15 C        9.3420     7.7370    -1.0270 C.2   1 <1>   0.5690 
 16 O        8.7550     8.7550    -1.3100 O.2   1 <1>  -0.5700 
 17 N       10.6850     7.7300    -0.7460 N.am  1 <1>  -0.6600 
 18 C       11.5020     6.5200    -0.4440 C.3   1 <1>   0.1400 
 19 C       11.4650     8.9990    -0.6900 C.3   1 <1>   0.1400 
 20 C       12.1090     6.6490     0.9570 C.3   1 <1>  -0.1600 
 21 C       12.0820     9.1610     0.7040 C.3   1 <1>  -0.1600 
 22 C       12.9270     7.9400     1.0980 C.3   1 <1>  -0.1600 
 23 H        2.5210     2.6780     3.0040 H     1 <1>   0.1500 
 24 H        2.8260    -0.2210    -0.0920 H     1 <1>   0.1500 
 25 H        4.0200     4.1780     1.7570 H     1 <1>   0.1500 
 26 H        4.3260     1.2690    -1.3500 H     1 <1>   0.1500 
 27 H        6.6530     7.2910    -0.4280 H     1 <1>   0.0800 
 28 H        6.8490     7.1070    -2.1490 H     1 <1>   0.0800 
 29 H        8.9230     5.7930    -1.7630 H     1 <1>   0.0800 
 30 H        8.7010     5.9710    -0.0390 H     1 <1>   0.0800 
 31 H       12.2910     6.4440    -1.1740 H     1 <1>   0.0800 
 32 H       10.9160     5.6210    -0.5010 H     1 <1>   0.0800 
 33 H       10.8360     9.8470    -0.9040 H     1 <1>   0.0800 
 34 H       12.2420     8.9670    -1.4340 H     1 <1>   0.0800 
 35 H       12.7400     5.8000     1.1510 H     1 <1>   0.0800 
 36 H       11.3150     6.6410     1.6830 H     1 <1>   0.0800 
 37 H       11.2880     9.2990     1.4170 H     1 <1>   0.0800 
 38 H       12.6940    10.0450     0.7210 H     1 <1>   0.0800 
 39 H       13.7920     7.8860     0.4590 H     1 <1>   0.0800 
 40 H       13.2690     8.0470     2.1130 H     1 <1>   0.0800 
@<TRIPOS>BOND
  1   1   2  1   
  2   2   3  ar  
  3   2   4  ar  
  4   3   5  ar  
  5   3  23  1   
  6   4   6  ar  
  7   4  24  1   
  8   5   7  ar  
  9   5  25  1   
 10   6   7  ar  
 11   6  26  1   
 12   7   8  1   
 13   8   9  2   
 14   8  10  1   
 15   9  11  1   
 16  10  12  2   
 17  11  12  1   
 18  12  13  1   
 19  13  14  1   
 20  13  27  1   
 21  13  28  1   
 22  14  15  1   
 23  14  29  1   
 24  14  30  1   
 25  15  16  2   
 26  15  17  am  
 27  17  18  1   
 28  17  19  1   
 29  18  20  1   
 30  18  31  1   
 31  18  32  1   
 32  19  21  1   
 33  19  33  1   
 34  19  34  1   
 35  20  22  1   
 36  20  35  1   
 37  20  36  1   
 38  21  22  1   
 39  21  37  1   
 40  21  38  1   
 41  22  39  1   
 42  22  40  1   
@<TRIPOS>SUBSTRUCTURE
  1 ****  12 GROUP 4 **** **** 0

# MOE 2024.06 (io_trps.svl 2023.06)
