@<TRIPOS>MOLECULE
2-(3-Oxo-1,3-dihydro-isobenzofuran-1-ylamino)-5,6-dihydro-4H-cyclopenta[b]thioph
41 44 1 0 0 
SMALL
USER_CHARGES


@<TRIPOS>ATOM
  1 S       -0.2800    -0.3780     0.3820 S.3   1 <1>  -0.0800 
  2 C       -1.4590     0.8170    -0.1790 C.2   1 <1>   0.1240 
  3 C        0.8530     0.8940     0.7680 C.2   1 <1>  -0.1400 
  4 N       -2.6670     0.3700    -0.6440 N.pl3 1 <1>  -0.8530 
  5 C       -0.9690     2.0990    -0.0620 C.2   1 <1>  -0.0860 
  6 C        0.3610     2.0880     0.4880 C.2   1 <1>  -0.1810 
  7 C        2.2320     0.8410     1.3410 C.3   1 <1>   0.0200 
  8 C       -3.0940    -1.0100    -0.8170 C.3   1 <1>   0.7130 
  9 C       -1.6540     3.3040    -0.4260 C.2   1 <1>   0.8060 
 10 C        1.3660     3.1590     0.8340 C.3   1 <1>   0.0210 
 11 C        2.5770     2.3520     1.3870 C.3   1 <1>  -0.1600 
 12 O       -4.0050    -0.9940    -1.8880 O.3   1 <1>  -0.4300 
 13 C       -3.9150    -1.4880     0.3640 C.ar  1 <1>  -0.1440 
 14 O       -1.1750     4.4190    -0.3030 O.2   1 <1>  -0.5700 
 15 O       -2.8930     3.2060    -0.9330 O.3   1 <1>  -0.4300 
 16 C       -5.1970    -1.4180    -1.4900 C.2   1 <1>   0.6340 
 17 C       -5.1840    -1.7330    -0.0970 C.ar  1 <1>   0.0860 
 18 C       -3.5780    -1.6840     1.6910 C.ar  1 <1>  -0.1500 
 19 C       -3.6310     4.3420    -1.3190 C.3   1 <1>   0.1200 
 20 O       -6.1200    -1.5000    -2.2650 O.2   1 <1>  -0.5700 
 21 C       -6.1610    -2.1990     0.7760 C.ar  1 <1>  -0.1500 
 22 C       -4.5510    -2.1470     2.5640 C.ar  1 <1>  -0.1500 
 23 C       -4.9830     3.8660    -1.8410 C.3   1 <1>  -0.2400 
 24 C       -5.8370    -2.4050     2.1070 C.ar  1 <1>  -0.1500 
 25 H       -3.3430     1.0420    -1.0230 H     1 <1>   0.4000 
 26 H        2.8950     0.2990     0.6910 H     1 <1>   0.0800 
 27 H        2.2210     0.4040     2.3240 H     1 <1>   0.0800 
 28 H       -2.2740    -1.6670    -1.0550 H     1 <1>   0.0800 
 29 H        0.9650     3.8240     1.5790 H     1 <1>   0.0800 
 30 H        1.6360     3.7180    -0.0440 H     1 <1>   0.0800 
 31 H        3.4490     2.5470     0.7870 H     1 <1>   0.0800 
 32 H        2.7830     2.6510     2.3990 H     1 <1>   0.0800 
 33 H       -2.5810    -1.4760     2.0420 H     1 <1>   0.1500 
 34 H       -3.0810     4.8630    -2.0860 H     1 <1>   0.0800 
 35 H       -3.7500     4.9810    -0.4600 H     1 <1>   0.0800 
 36 H       -7.1540    -2.3920     0.4080 H     1 <1>   0.1500 
 37 H       -4.3080    -2.3050     3.6010 H     1 <1>   0.1500 
 38 H       -4.8470     3.2200    -2.6900 H     1 <1>   0.0800 
 39 H       -5.5720     4.7110    -2.1460 H     1 <1>   0.0800 
 40 H       -5.5150     3.3390    -1.0690 H     1 <1>   0.0800 
 41 H       -6.5860    -2.7660     2.7920 H     1 <1>   0.1500 
@<TRIPOS>BOND
  1   1   2  1   
  2   1   3  1   
  3   2   4  1   
  4   2   5  2   
  5   3   6  2   
  6   3   7  1   
  7   4   8  1   
  8   4  25  1   
  9   5   6  1   
 10   5   9  1   
 11   6  10  1   
 12   7  11  1   
 13   7  26  1   
 14   7  27  1   
 15   8  12  1   
 16   8  13  1   
 17   8  28  1   
 18   9  14  2   
 19   9  15  1   
 20  10  11  1   
 21  10  29  1   
 22  10  30  1   
 23  11  31  1   
 24  11  32  1   
 25  12  16  1   
 26  13  17  ar  
 27  13  18  ar  
 28  15  19  1   
 29  16  17  1   
 30  16  20  2   
 31  17  21  ar  
 32  18  22  ar  
 33  18  33  1   
 34  19  23  1   
 35  19  34  1   
 36  19  35  1   
 37  21  24  ar  
 38  21  36  1   
 39  22  24  ar  
 40  22  37  1   
 41  23  38  1   
 42  23  39  1   
 43  23  40  1   
 44  24  41  1   
@<TRIPOS>SUBSTRUCTURE
  1 ****   4 GROUP 4 **** **** 0

# MOE 2024.06 (io_trps.svl 2023.06)
