@<TRIPOS>MOLECULE
N-[2-Methoxy-5-(4-methyl-piperazine-1-sulfonyl)-phenyl]-benzamide
51 53 1 0 0 
SMALL
USER_CHARGES


@<TRIPOS>ATOM
  1 S        0.0030    -1.3880     1.2500 S.o2  1 <1>   1.4470 
  2 O       -0.3340    -0.9400     2.5830 O.2   1 <1>  -0.6500 
  3 O        1.1120    -2.2960     1.0620 O.2   1 <1>  -0.6500 
  4 N        0.4270     0.0340     0.4180 N.am  1 <1>  -0.8490 
  5 C       -1.4630    -1.9900     0.3710 C.ar  1 <1>  -0.0090 
  6 C        1.7390     0.5170     0.8860 C.3   1 <1>   0.1960 
  7 C       -0.6060     1.0920     0.5220 C.3   1 <1>   0.1960 
  8 C       -2.6870    -1.3790     0.5880 C.ar  1 <1>  -0.1500 
  9 C       -1.4080    -3.0070    -0.5740 C.ar  1 <1>  -0.1500 
 10 C        2.1780     1.8100     0.1670 C.3   1 <1>   0.3430 
 11 C       -0.1960     2.3990    -0.1850 C.3   1 <1>   0.3430 
 12 C       -3.8040    -1.6670    -0.1770 C.ar  1 <1>   0.1170 
 13 C       -2.5340    -3.3790    -1.2930 C.ar  1 <1>  -0.1500 
 14 N        1.1460     2.9030     0.2800 N.4   1 <1>  -0.9590 
 15 N       -4.9670    -0.8960    -0.0510 N.am  1 <1>  -0.5470 
 16 C       -3.7390    -2.7100    -1.1030 C.ar  1 <1>   0.0830 
 17 C        1.5560     4.1220    -0.4800 C.3   1 <1>   0.2630 
 18 C       -5.0880     0.4670     0.1060 C.2   1 <1>   0.5440 
 19 O       -4.8810    -3.0100    -1.7880 O.3   1 <1>  -0.3630 
 20 O       -4.0940     1.1490     0.2980 O.2   1 <1>  -0.5700 
 21 C       -6.4010     1.0790     0.0300 C.ar  1 <1>   0.0860 
 22 C       -4.9040    -4.0410    -2.7530 C.3   1 <1>   0.0400 
 23 C       -6.7400     2.1490     0.8590 C.ar  1 <1>  -0.1500 
 24 C       -7.3710     0.6290    -0.8690 C.ar  1 <1>  -0.1500 
 25 C       -7.9910     2.7360     0.8050 C.ar  1 <1>  -0.1500 
 26 C       -8.6240     1.2120    -0.9270 C.ar  1 <1>  -0.1500 
 27 C       -8.9370     2.2660    -0.0880 C.ar  1 <1>  -0.1500 
 28 H        2.4830    -0.2410     0.7010 H     1 <1>   0.0800 
 29 H        1.7100     0.6890     1.9500 H     1 <1>   0.0800 
 30 H       -0.8320     1.3020     1.5550 H     1 <1>   0.0800 
 31 H       -1.5120     0.7620     0.0480 H     1 <1>   0.0800 
 32 H       -2.7710    -0.6340     1.3590 H     1 <1>   0.1500 
 33 H       -0.4720    -3.5120    -0.7530 H     1 <1>   0.1500 
 34 H        2.3450     1.5760    -0.8720 H     1 <1>   0.0800 
 35 H        3.1140     2.1440     0.5850 H     1 <1>   0.0800 
 36 H       -0.9530     3.1450    -0.0060 H     1 <1>   0.0800 
 37 H       -0.1640     2.2100    -1.2450 H     1 <1>   0.0800 
 38 H       -2.4440    -4.1820    -2.0000 H     1 <1>   0.1500 
 39 H        1.0550     3.1450     1.2780 H     1 <1>   0.4500 
 40 H       -5.8110    -1.3890    -0.3460 H     1 <1>   0.3700 
 41 H        1.6540     3.8940    -1.5290 H     1 <1>   0.0800 
 42 H        2.5020     4.4900    -0.1170 H     1 <1>   0.0800 
 43 H        0.8190     4.9000    -0.3640 H     1 <1>   0.0800 
 44 H       -5.8980    -4.0960    -3.1590 H     1 <1>   0.0800 
 45 H       -4.6530    -4.9720    -2.2770 H     1 <1>   0.0800 
 46 H       -4.2040    -3.8050    -3.5350 H     1 <1>   0.0800 
 47 H       -6.0090     2.5210     1.5550 H     1 <1>   0.1500 
 48 H       -7.1430    -0.1800    -1.5400 H     1 <1>   0.1500 
 49 H       -8.2300     3.5590     1.4570 H     1 <1>   0.1500 
 50 H       -9.3580     0.8500    -1.6270 H     1 <1>   0.1500 
 51 H       -9.9120     2.7220    -0.1310 H     1 <1>   0.1500 
@<TRIPOS>BOND
  1   1   2  2   
  2   1   3  2   
  3   1   4  am  
  4   1   5  1   
  5   4   6  1   
  6   4   7  1   
  7   5   8  ar  
  8   5   9  ar  
  9   6  10  1   
 10   6  28  1   
 11   6  29  1   
 12   7  11  1   
 13   7  30  1   
 14   7  31  1   
 15   8  12  ar  
 16   8  32  1   
 17   9  13  ar  
 18   9  33  1   
 19  10  14  1   
 20  10  34  1   
 21  10  35  1   
 22  11  14  1   
 23  11  36  1   
 24  11  37  1   
 25  12  15  1   
 26  12  16  ar  
 27  13  16  ar  
 28  13  38  1   
 29  14  17  1   
 30  14  39  1   
 31  15  18  am  
 32  15  40  1   
 33  16  19  1   
 34  17  41  1   
 35  17  42  1   
 36  17  43  1   
 37  18  20  2   
 38  18  21  1   
 39  19  22  1   
 40  21  23  ar  
 41  21  24  ar  
 42  22  44  1   
 43  22  45  1   
 44  22  46  1   
 45  23  25  ar  
 46  23  47  1   
 47  24  26  ar  
 48  24  48  1   
 49  25  27  ar  
 50  25  49  1   
 51  26  27  ar  
 52  26  50  1   
 53  27  51  1   
@<TRIPOS>SUBSTRUCTURE
  1 ****   8 GROUP 4 **** **** 0

# MOE 2024.06 (io_trps.svl 2023.06)
