@<TRIPOS>MOLECULE
4-(4-Methoxy-phenyl)-2-oxo-6-piperidin-1-ylmethyl-1,2,3,4-tetrahydro-pyrimidine-
52 54 1 0 0 
SMALL
USER_CHARGES


@<TRIPOS>ATOM
  1 O       -0.6550     1.0740     2.1600 O.2   1 <1>  -0.5700 
  2 C       -1.7350     1.3720     1.7160 C.2   1 <1>   0.6900 
  3 N       -2.2090     0.7290     0.6210 N.am  1 <1>  -0.5390 
  4 N       -2.4800     2.3390     2.2700 N.am  1 <1>  -0.7300 
  5 C       -3.4380     1.0010     0.0340 C.2   1 <1>  -0.0290 
  6 C       -3.6680     2.9250     1.6230 C.3   1 <1>   0.5020 
  7 C       -4.2090     2.0260     0.5020 C.2   1 <1>  -0.1240 
  8 C       -3.8230     0.0730    -1.1230 C.3   1 <1>   0.4810 
  9 C       -3.2810     4.3030     1.0930 C.ar  1 <1>  -0.1440 
 10 C       -5.5270     2.3710     0.0620 C.2   1 <1>   0.7060 
 11 N       -4.2310    -1.2510    -0.5760 N.4   1 <1>  -0.9590 
 12 C       -3.9530     5.4330     1.5400 C.ar  1 <1>  -0.1500 
 13 C       -2.2610     4.4540     0.1600 C.ar  1 <1>  -0.1500 
 14 O       -6.1210     1.7190    -0.7750 O.2   1 <1>  -0.5700 
 15 O       -6.1560     3.4080     0.6200 O.3   1 <1>  -0.4300 
 16 C       -4.1730    -2.3090    -1.6240 C.3   1 <1>   0.3430 
 17 C       -5.5870    -1.1690     0.0430 C.3   1 <1>   0.3430 
 18 C       -3.6160     6.6860     1.0600 C.ar  1 <1>  -0.1500 
 19 C       -1.9210     5.7070    -0.3210 C.ar  1 <1>  -0.1500 
 20 C       -7.4420     3.8280     0.2020 C.3   1 <1>   0.0400 
 21 C       -4.4860    -3.6700    -0.9990 C.3   1 <1>  -0.1600 
 22 C       -5.9360    -2.5040     0.7020 C.3   1 <1>  -0.1600 
 23 C       -2.6020     6.8340     0.1280 C.ar  1 <1>   0.0830 
 24 C       -5.8470    -3.6690    -0.2920 C.3   1 <1>  -0.1600 
 25 O       -2.3360     8.0960    -0.2900 O.3   1 <1>  -0.3620 
 26 C       -1.3040     8.3620    -1.2130 C.3   1 <1>   0.0400 
 27 H       -1.5260     0.0590     0.2580 H     1 <1>   0.3700 
 28 H       -2.0110     2.9290     2.9570 H     1 <1>   0.3700 
 29 H       -4.4220     3.0320     2.3850 H     1 <1>   0.0800 
 30 H       -2.9660    -0.0430    -1.7660 H     1 <1>   0.0800 
 31 H       -4.6170     0.4900    -1.7170 H     1 <1>   0.0800 
 32 H       -3.5720    -1.4940     0.1730 H     1 <1>   0.4500 
 33 H       -4.7470     5.3520     2.2620 H     1 <1>   0.1500 
 34 H       -1.7180     3.5970    -0.1960 H     1 <1>   0.1500 
 35 H       -3.1930    -2.3380    -2.0720 H     1 <1>   0.0800 
 36 H       -4.8950    -2.0960    -2.3970 H     1 <1>   0.0800 
 37 H       -6.3210    -0.9330    -0.7120 H     1 <1>   0.0800 
 38 H       -5.6100    -0.3880     0.7860 H     1 <1>   0.0800 
 39 H       -4.1370     7.5610     1.4040 H     1 <1>   0.1500 
 40 H       -1.1280     5.7880    -1.0390 H     1 <1>   0.1500 
 41 H       -7.7250     4.6890     0.7820 H     1 <1>   0.0800 
 42 H       -8.1440     3.0280     0.3620 H     1 <1>   0.0800 
 43 H       -7.4030     4.0870    -0.8420 H     1 <1>   0.0800 
 44 H       -3.7090    -3.9310    -0.3010 H     1 <1>   0.0800 
 45 H       -4.4880    -4.4200    -1.7710 H     1 <1>   0.0800 
 46 H       -6.9360    -2.4490     1.0970 H     1 <1>   0.0800 
 47 H       -5.2730    -2.6770     1.5320 H     1 <1>   0.0800 
 48 H       -5.9930    -4.6040     0.2250 H     1 <1>   0.0800 
 49 H       -6.6320    -3.5760    -1.0240 H     1 <1>   0.0800 
 50 H       -1.2740     9.4230    -1.3830 H     1 <1>   0.0800 
 51 H       -1.5190     7.8500    -2.1340 H     1 <1>   0.0800 
 52 H       -0.3690     8.0320    -0.7960 H     1 <1>   0.0800 
@<TRIPOS>BOND
  1   1   2  2   
  2   2   3  am  
  3   2   4  am  
  4   3   5  1   
  5   3  27  1   
  6   4   6  1   
  7   4  28  1   
  8   5   7  2   
  9   5   8  1   
 10   6   7  1   
 11   6   9  1   
 12   6  29  1   
 13   7  10  1   
 14   8  11  1   
 15   8  30  1   
 16   8  31  1   
 17   9  12  ar  
 18   9  13  ar  
 19  10  14  2   
 20  10  15  1   
 21  11  16  1   
 22  11  17  1   
 23  11  32  1   
 24  12  18  ar  
 25  12  33  1   
 26  13  19  ar  
 27  13  34  1   
 28  15  20  1   
 29  16  21  1   
 30  16  35  1   
 31  16  36  1   
 32  17  22  1   
 33  17  37  1   
 34  17  38  1   
 35  18  23  ar  
 36  18  39  1   
 37  19  23  ar  
 38  19  40  1   
 39  20  41  1   
 40  20  42  1   
 41  20  43  1   
 42  21  24  1   
 43  21  44  1   
 44  21  45  1   
 45  22  24  1   
 46  22  46  1   
 47  22  47  1   
 48  23  25  1   
 49  24  48  1   
 50  24  49  1   
 51  25  26  1   
 52  26  50  1   
 53  26  51  1   
 54  26  52  1   
@<TRIPOS>SUBSTRUCTURE
  1 ****   7 GROUP 4 **** **** 0

# MOE 2024.06 (io_trps.svl 2023.06)
