@<TRIPOS>MOLECULE
N-(2-Cyclohex-1-enyl-ethyl)-2-(4-ethyl-1,3-dioxo-1,3,3a,4,7,7a-hexahydro-isoindo
53 55 1 0 0 
SMALL
USER_CHARGES


@<TRIPOS>ATOM
  1 O       -1.0890     2.8770     2.0420 O.2   1 <1>  -0.5700 
  2 C       -0.7780     2.8350     0.8820 C.2   1 <1>   0.5690 
  3 N        0.5060     2.8640     0.4210 N.am  1 <1>  -0.4200 
  4 C       -1.7340     2.7670    -0.3010 C.3   1 <1>  -0.0190 
  5 C        0.5500     2.5830    -0.9080 C.2   1 <1>   0.5690 
  6 C        1.7040     3.0940     1.2800 C.3   1 <1>   0.2010 
  7 C       -3.0980     2.0350    -0.2620 C.3   1 <1>   0.0580 
  8 C       -0.8160     2.1220    -1.3490 C.3   1 <1>  -0.0190 
  9 O        1.5240     2.6400    -1.6160 O.2   1 <1>  -0.5700 
 10 C        2.5830     1.8550     1.4320 C.2   1 <1>   0.5690 
 11 C       -3.5220     1.7280    -1.7070 C.2   1 <1>  -0.2880 
 12 C       -4.2440     2.8670     0.3560 C.3   1 <1>  -0.1600 
 13 C       -1.3220     2.3960    -2.7630 C.3   1 <1>  -0.0220 
 14 O        2.8080     1.4330     2.5410 O.2   1 <1>  -0.5700 
 15 N        3.1050     1.2680     0.3220 N.am  1 <1>  -0.7300 
 16 C       -2.7660     1.9130    -2.8010 C.2   1 <1>  -0.2880 
 17 C       -4.0660     3.2660     1.8240 C.3   1 <1>  -0.2400 
 18 C        3.9710     0.0670     0.3030 C.3   1 <1>   0.1400 
 19 C        5.2190     0.3390    -0.5400 C.3   1 <1>  -0.0220 
 20 C        6.1640    -0.8570    -0.6620 C.2   1 <1>  -0.2760 
 21 C        5.9740    -2.0600    -0.1040 C.2   1 <1>  -0.2880 
 22 C        7.3980    -0.5400    -1.5030 C.3   1 <1>  -0.0220 
 23 C        6.9450    -3.2250    -0.2160 C.3   1 <1>  -0.0220 
 24 C        8.1610    -1.8070    -1.9150 C.3   1 <1>  -0.1600 
 25 C        8.3160    -2.7680    -0.7310 C.3   1 <1>  -0.1600 
 26 H       -1.9190     3.7850    -0.5960 H     1 <1>   0.0800 
 27 H        1.3880     3.4100     2.2580 H     1 <1>   0.0800 
 28 H        2.2950     3.8820     0.8510 H     1 <1>   0.0800 
 29 H       -2.9970     1.1090     0.2770 H     1 <1>   0.0800 
 30 H       -0.8230     1.0550    -1.2040 H     1 <1>   0.0800 
 31 H       -4.5270     1.3440    -1.7750 H     1 <1>   0.1500 
 32 H       -5.1480     2.2870     0.2890 H     1 <1>   0.0800 
 33 H       -4.3960     3.7570    -0.2300 H     1 <1>   0.0800 
 34 H       -0.7260     1.8430    -3.4690 H     1 <1>   0.0800 
 35 H       -1.2680     3.4430    -3.0070 H     1 <1>   0.0800 
 36 H        2.8460     1.6470    -0.6020 H     1 <1>   0.3700 
 37 H       -3.1250     1.7210    -3.7990 H     1 <1>   0.1500 
 38 H       -3.7800     2.4170     2.4190 H     1 <1>   0.0800 
 39 H       -4.9900     3.6570     2.2110 H     1 <1>   0.0800 
 40 H       -3.3200     4.0340     1.9230 H     1 <1>   0.0800 
 41 H        3.4200    -0.7560    -0.1180 H     1 <1>   0.0800 
 42 H        4.2620    -0.1930     1.3070 H     1 <1>   0.0800 
 43 H        5.7570     1.1580    -0.0960 H     1 <1>   0.0800 
 44 H        4.9080     0.6310    -1.5270 H     1 <1>   0.0800 
 45 H        5.1100    -2.3220     0.4810 H     1 <1>   0.1500 
 46 H        8.0480     0.1000    -0.9320 H     1 <1>   0.0800 
 47 H        7.1110    -0.0110    -2.3950 H     1 <1>   0.0800 
 48 H        6.5300    -3.9580    -0.8840 H     1 <1>   0.0800 
 49 H        7.0690    -3.6840     0.7490 H     1 <1>   0.0800 
 50 H        9.1280    -1.5350    -2.3000 H     1 <1>   0.0800 
 51 H        7.6180    -2.3040    -2.7010 H     1 <1>   0.0800 
 52 H        8.8960    -3.6250    -1.0230 H     1 <1>   0.0800 
 53 H        8.8400    -2.2640     0.0620 H     1 <1>   0.0800 
@<TRIPOS>BOND
  1   1   2  2   
  2   2   3  am  
  3   2   4  1   
  4   3   5  am  
  5   3   6  1   
  6   4   7  1   
  7   4   8  1   
  8   4  26  1   
  9   5   8  1   
 10   5   9  2   
 11   6  10  1   
 12   6  27  1   
 13   6  28  1   
 14   7  11  1   
 15   7  12  1   
 16   7  29  1   
 17   8  13  1   
 18   8  30  1   
 19  10  14  2   
 20  10  15  am  
 21  11  16  2   
 22  11  31  1   
 23  12  17  1   
 24  12  32  1   
 25  12  33  1   
 26  13  16  1   
 27  13  34  1   
 28  13  35  1   
 29  15  18  1   
 30  15  36  1   
 31  16  37  1   
 32  17  38  1   
 33  17  39  1   
 34  17  40  1   
 35  18  19  1   
 36  18  41  1   
 37  18  42  1   
 38  19  20  1   
 39  19  43  1   
 40  19  44  1   
 41  20  21  2   
 42  20  22  1   
 43  21  23  1   
 44  21  45  1   
 45  22  24  1   
 46  22  46  1   
 47  22  47  1   
 48  23  25  1   
 49  23  48  1   
 50  23  49  1   
 51  24  25  1   
 52  24  50  1   
 53  24  51  1   
 54  25  52  1   
 55  25  53  1   
@<TRIPOS>SUBSTRUCTURE
  1 ****  15 GROUP 4 **** **** 0

# MOE 2024.06 (io_trps.svl 2023.06)
