@<TRIPOS>MOLECULE
N-Allyl-4-(3-p-tolyl-[1,2,4]oxadiazol-5-yl)-butyramide
40 41 1 0 0 
SMALL
USER_CHARGES


@<TRIPOS>ATOM
  1 O       -1.1520    -3.2720     1.6030 O.2   1 <1>  -0.5700 
  2 C       -1.0040    -2.7520     0.5250 C.2   1 <1>   0.5690 
  3 N        0.1870    -2.2510     0.1250 N.am  1 <1>  -0.7300 
  4 C       -2.1910    -2.6400    -0.4100 C.3   1 <1>  -0.0990 
  5 C        1.4220    -2.3110     0.9140 C.3   1 <1>   0.2780 
  6 C       -3.0340    -1.3880    -0.1050 C.3   1 <1>  -0.1600 
  7 C        2.5660    -2.4730    -0.0620 C.2   1 <1>  -0.2880 
  8 C       -4.1650    -1.1450    -1.1200 C.3   1 <1>   0.0200 
  9 C        3.5340    -1.5760    -0.2790 C.2   1 <1>  -0.3000 
 10 C       -5.1700    -2.2810    -1.1800 C.2   1 <1>   0.2980 
 11 O       -4.9150    -3.3110    -1.9440 O.3   1 <1>  -0.0190 
 12 N       -6.2690    -2.3290    -0.5500 N.2   1 <1>  -0.5650 
 13 N       -5.9390    -4.0860    -1.7810 N.2   1 <1>  -0.4100 
 14 C       -6.7430    -3.5120    -0.9560 C.2   1 <1>   0.4620 
 15 C       -8.0150    -4.0480    -0.4980 C.ar  1 <1>   0.0540 
 16 C       -8.4970    -5.2710    -0.9670 C.ar  1 <1>  -0.1500 
 17 C       -8.8100    -3.3680     0.4260 C.ar  1 <1>  -0.1500 
 18 C       -9.7070    -5.7880    -0.5380 C.ar  1 <1>  -0.1500 
 19 C      -10.0210    -3.8790     0.8580 C.ar  1 <1>  -0.1500 
 20 C      -10.4780    -5.0930     0.3770 C.ar  1 <1>  -0.1440 
 21 C      -11.8060    -5.6580     0.8510 C.3   1 <1>  -0.0970 
 22 H        0.2940    -1.8090    -0.7870 H     1 <1>   0.3700 
 23 H       -2.7900    -3.5250    -0.2890 H     1 <1>   0.0800 
 24 H       -1.8390    -2.6150    -1.4250 H     1 <1>   0.0800 
 25 H        1.3910    -3.1410     1.6010 H     1 <1>   0.0800 
 26 H        1.5300    -1.3990     1.4770 H     1 <1>   0.0800 
 27 H       -2.3920    -0.5240    -0.0940 H     1 <1>   0.0800 
 28 H       -3.4600    -1.4880     0.8790 H     1 <1>   0.0800 
 29 H        2.5210    -3.4150    -0.5820 H     1 <1>   0.1500 
 30 H       -3.7550    -0.9900    -2.1020 H     1 <1>   0.0800 
 31 H       -4.6910    -0.2490    -0.8420 H     1 <1>   0.0800 
 32 H        4.3380    -1.7200    -0.9810 H     1 <1>   0.1500 
 33 H        3.6090    -0.6260     0.2230 H     1 <1>   0.1500 
 34 H       -7.9140    -5.8290    -1.6790 H     1 <1>   0.1500 
 35 H       -8.4750    -2.4220     0.8150 H     1 <1>   0.1500 
 36 H      -10.0450    -6.7350    -0.9210 H     1 <1>   0.1500 
 37 H      -10.6050    -3.3260     1.5730 H     1 <1>   0.1500 
 38 H      -11.6510    -6.2650     1.7240 H     1 <1>   0.0800 
 39 H      -12.2530    -6.2610     0.0820 H     1 <1>   0.0800 
 40 H      -12.4860    -4.8620     1.0960 H     1 <1>   0.0800 
@<TRIPOS>BOND
  1   1   2  2   
  2   2   3  am  
  3   2   4  1   
  4   3   5  1   
  5   3  22  1   
  6   4   6  1   
  7   4  23  1   
  8   4  24  1   
  9   5   7  1   
 10   5  25  1   
 11   5  26  1   
 12   6   8  1   
 13   6  27  1   
 14   6  28  1   
 15   7   9  2   
 16   7  29  1   
 17   8  10  1   
 18   8  30  1   
 19   8  31  1   
 20   9  32  1   
 21   9  33  1   
 22  10  11  1   
 23  10  12  2   
 24  11  13  1   
 25  12  14  1   
 26  13  14  2   
 27  14  15  1   
 28  15  16  ar  
 29  15  17  ar  
 30  16  18  ar  
 31  16  34  1   
 32  17  19  ar  
 33  17  35  1   
 34  18  20  ar  
 35  18  36  1   
 36  19  20  ar  
 37  19  37  1   
 38  20  21  1   
 39  21  38  1   
 40  21  39  1   
 41  21  40  1   
@<TRIPOS>SUBSTRUCTURE
  1 ****  10 GROUP 4 **** **** 0

# MOE 2024.06 (io_trps.svl 2023.06)
