@<TRIPOS>MOLECULE
1-(2,4-Dimethyl-phenyl)-5-oxo-pyrrolidine-3-carboxylic acid (4-ethoxy-phenyl)-am
50 52 1 0 0 
SMALL
USER_CHARGES


@<TRIPOS>ATOM
  1 O        0.4360     0.0770     0.3650 O.2   1 <1>  -0.5700 
  2 C        1.5630    -0.3390     0.2610 C.2   1 <1>   0.5690 
  3 N        1.9690    -1.6390     0.2950 N.am  1 <1>  -0.4770 
  4 C        2.7300     0.5850     0.0470 C.3   1 <1>  -0.0990 
  5 C        1.1930    -2.7910     0.5060 C.ar  1 <1>   0.1170 
  6 C        3.4300    -1.7430     0.1390 C.3   1 <1>   0.1400 
  7 C        3.8440    -0.3700    -0.4100 C.3   1 <1>  -0.0190 
  8 C        0.2390    -3.2280    -0.4160 C.ar  1 <1>  -0.1440 
  9 C        1.3950    -3.5330     1.6630 C.ar  1 <1>  -0.1500 
 10 C        5.2300     0.0730     0.0310 C.2   1 <1>   0.5690 
 11 C       -0.4810    -4.3850    -0.1630 C.ar  1 <1>  -0.1500 
 12 C       -0.0370    -2.4610    -1.7030 C.3   1 <1>  -0.0970 
 13 C        0.6750    -4.6870     1.9060 C.ar  1 <1>  -0.1500 
 14 O        5.6010    -0.2100     1.1430 O.2   1 <1>  -0.5700 
 15 N        5.9850     0.7780    -0.8660 N.am  1 <1>  -0.5470 
 16 C       -0.2680    -5.1210     0.9910 C.ar  1 <1>  -0.1430 
 17 C        7.2770     1.3220    -0.7590 C.ar  1 <1>   0.1170 
 18 C       -1.0680    -6.3850     1.2500 C.3   1 <1>  -0.0970 
 19 C        7.8870     1.6070     0.4590 C.ar  1 <1>  -0.1500 
 20 C        7.9750     1.6070    -1.9270 C.ar  1 <1>  -0.1500 
 21 C        9.1580     2.1530     0.5120 C.ar  1 <1>  -0.1500 
 22 C        9.2440     2.1540    -1.8810 C.ar  1 <1>  -0.1500 
 23 C        9.8470     2.4300    -0.6650 C.ar  1 <1>   0.0820 
 24 O       11.0950     2.9640    -0.7090 O.3   1 <1>  -0.3620 
 25 C       11.8010     3.2520     0.4750 C.3   1 <1>   0.1200 
 26 C       13.1620     3.8200     0.0860 C.3   1 <1>  -0.2400 
 27 H        2.9720     1.0510     0.9850 H     1 <1>   0.0800 
 28 H        2.5040     1.3320    -0.6910 H     1 <1>   0.0800 
 29 H        3.6860    -2.5380    -0.5400 H     1 <1>   0.0800 
 30 H        3.8680    -1.9370     1.1040 H     1 <1>   0.0800 
 31 H        3.8190    -0.4380    -1.4820 H     1 <1>   0.0800 
 32 H        2.1190    -3.1980     2.3830 H     1 <1>   0.1500 
 33 H       -1.2200    -4.7190    -0.8690 H     1 <1>   0.1500 
 34 H        0.8860    -2.1770    -2.1750 H     1 <1>   0.0800 
 35 H       -0.6020    -1.5740    -1.4790 H     1 <1>   0.0800 
 36 H       -0.6000    -3.0590    -2.3950 H     1 <1>   0.0800 
 37 H        0.8480    -5.2410     2.8110 H     1 <1>   0.1500 
 38 H        5.5620     0.9140    -1.7820 H     1 <1>   0.3700 
 39 H       -2.0090    -6.1300     1.7050 H     1 <1>   0.0800 
 40 H       -0.5310    -7.0450     1.9080 H     1 <1>   0.0800 
 41 H       -1.2560    -6.9040     0.3280 H     1 <1>   0.0800 
 42 H        7.3720     1.4080     1.3810 H     1 <1>   0.1500 
 43 H        7.5310     1.3990    -2.8830 H     1 <1>   0.1500 
 44 H        9.5900     2.3530     1.4730 H     1 <1>   0.1500 
 45 H        9.7810     2.3700    -2.7870 H     1 <1>   0.1500 
 46 H       11.9150     2.3390     1.0340 H     1 <1>   0.0800 
 47 H       11.2360     3.9710     1.0420 H     1 <1>   0.0800 
 48 H       13.7110     3.0990    -0.4940 H     1 <1>   0.0800 
 49 H       13.7270     4.0500     0.9710 H     1 <1>   0.0800 
 50 H       13.0360     4.7210    -0.4860 H     1 <1>   0.0800 
@<TRIPOS>BOND
  1   1   2  2   
  2   2   3  am  
  3   2   4  1   
  4   3   5  1   
  5   3   6  1   
  6   4   7  1   
  7   4  27  1   
  8   4  28  1   
  9   5   8  ar  
 10   5   9  ar  
 11   6   7  1   
 12   6  29  1   
 13   6  30  1   
 14   7  10  1   
 15   7  31  1   
 16   8  11  ar  
 17   8  12  1   
 18   9  13  ar  
 19   9  32  1   
 20  10  14  2   
 21  10  15  am  
 22  11  16  ar  
 23  11  33  1   
 24  12  34  1   
 25  12  35  1   
 26  12  36  1   
 27  13  16  ar  
 28  13  37  1   
 29  15  17  1   
 30  15  38  1   
 31  16  18  1   
 32  17  19  ar  
 33  17  20  ar  
 34  18  39  1   
 35  18  40  1   
 36  18  41  1   
 37  19  21  ar  
 38  19  42  1   
 39  20  22  ar  
 40  20  43  1   
 41  21  23  ar  
 42  21  44  1   
 43  22  23  ar  
 44  22  45  1   
 45  23  24  1   
 46  24  25  1   
 47  25  26  1   
 48  25  46  1   
 49  25  47  1   
 50  26  48  1   
 51  26  49  1   
 52  26  50  1   
@<TRIPOS>SUBSTRUCTURE
  1 ****  10 GROUP 4 **** **** 0

# MOE 2024.06 (io_trps.svl 2023.06)
