@<TRIPOS>MOLECULE
3-[3-(2-Chloro-phenyl)-[1,2,4]oxadiazol-5-yl]-N-(tetrahydro-furan-2-ylmethyl)-pr
41 43 1 0 0 
SMALL
USER_CHARGES


@<TRIPOS>ATOM
  1 CL      -0.2410     0.1540    -0.1610 Cl    1 <1>  -0.1770 
  2 C        0.3440    -1.4910    -0.2610 C.ar  1 <1>   0.1770 
  3 C        1.6230    -1.8210     0.1880 C.ar  1 <1>   0.0540 
  4 C       -0.5180    -2.4390    -0.7810 C.ar  1 <1>  -0.1500 
  5 C        2.5400    -0.8400     0.7190 C.2   1 <1>   0.4620 
  6 C        1.9950    -3.1640     0.1100 C.ar  1 <1>  -0.1500 
  7 C       -0.1190    -3.7610    -0.8570 C.ar  1 <1>  -0.1500 
  8 N        3.1020    -0.9000     1.8730 N.2   1 <1>  -0.4100 
  9 N        2.9330     0.2310     0.0270 N.2   1 <1>  -0.5650 
 10 C        1.1400    -4.1220    -0.4070 C.ar  1 <1>  -0.1500 
 11 O        3.8640     0.1410     1.9940 O.3   1 <1>  -0.0190 
 12 C        3.7190     0.7750     0.8590 C.2   1 <1>   0.2980 
 13 C        4.4880     2.0620     0.6400 C.3   1 <1>   0.0200 
 14 C        5.9960     1.7920     0.5050 C.3   1 <1>  -0.0990 
 15 C        6.8070     3.0540     0.2730 C.2   1 <1>   0.5690 
 16 O        6.2950     4.1330     0.4320 O.2   1 <1>  -0.5700 
 17 N        8.1020     2.9710    -0.1030 N.am  1 <1>  -0.7300 
 18 C        8.9760     1.7860    -0.2840 C.3   1 <1>   0.1400 
 19 C       10.3970     2.0930     0.2140 C.3   1 <1>   0.2000 
 20 O       10.8750     3.2590    -0.3790 O.3   1 <1>  -0.5600 
 21 C       11.4310     1.0370    -0.1480 C.3   1 <1>  -0.1600 
 22 C       12.2670     3.2810    -0.3590 C.3   1 <1>   0.1200 
 23 C       12.7240     1.8350    -0.1760 C.3   1 <1>  -0.1600 
 24 H       -1.4940    -2.1410    -1.1200 H     1 <1>   0.1500 
 25 H        2.9710    -3.4550     0.4590 H     1 <1>   0.1500 
 26 H       -0.7840    -4.5060    -1.2600 H     1 <1>   0.1500 
 27 H        1.4530    -5.1510    -0.4590 H     1 <1>   0.1500 
 28 H        4.3030     2.7240     1.4670 H     1 <1>   0.0800 
 29 H        4.1270     2.5390    -0.2550 H     1 <1>   0.0800 
 30 H        6.1540     1.1240    -0.3210 H     1 <1>   0.0800 
 31 H        6.3560     1.3210     1.4000 H     1 <1>   0.0800 
 32 H        8.5960     3.8590    -0.2530 H     1 <1>   0.3700 
 33 H        9.0130     1.5370    -1.3300 H     1 <1>   0.0800 
 34 H        8.5830     0.9430     0.2550 H     1 <1>   0.0800 
 35 H       10.3900     2.2520     1.2790 H     1 <1>   0.0800 
 36 H       11.2240     0.6410    -1.1270 H     1 <1>   0.0800 
 37 H       11.4550     0.2340     0.5660 H     1 <1>   0.0800 
 38 H       12.5850     3.9020     0.4610 H     1 <1>   0.0800 
 39 H       12.6100     3.6980    -1.2910 H     1 <1>   0.0800 
 40 H       13.3720     1.5230    -0.9760 H     1 <1>   0.0800 
 41 H       13.2520     1.7430     0.7580 H     1 <1>   0.0800 
@<TRIPOS>BOND
  1   1   2  1   
  2   2   3  ar  
  3   2   4  ar  
  4   3   5  1   
  5   3   6  ar  
  6   4   7  ar  
  7   4  24  1   
  8   5   8  2   
  9   5   9  1   
 10   6  10  ar  
 11   6  25  1   
 12   7  10  ar  
 13   7  26  1   
 14   8  11  1   
 15   9  12  2   
 16  10  27  1   
 17  11  12  1   
 18  12  13  1   
 19  13  14  1   
 20  13  28  1   
 21  13  29  1   
 22  14  15  1   
 23  14  30  1   
 24  14  31  1   
 25  15  16  2   
 26  15  17  am  
 27  17  18  1   
 28  17  32  1   
 29  18  19  1   
 30  18  33  1   
 31  18  34  1   
 32  19  20  1   
 33  19  21  1   
 34  19  35  1   
 35  20  22  1   
 36  21  23  1   
 37  21  36  1   
 38  21  37  1   
 39  22  23  1   
 40  22  38  1   
 41  22  39  1   
 42  23  40  1   
 43  23  41  1   
@<TRIPOS>SUBSTRUCTURE
  1 ****  14 GROUP 4 **** **** 0

# MOE 2024.06 (io_trps.svl 2023.06)
