@<TRIPOS>MOLECULE
1-Methanesulfonyl-piperidine-3-carboxylic acid (2-ethoxy-phenyl)-amide
44 45 1 0 0 
SMALL
USER_CHARGES


@<TRIPOS>ATOM
  1 S        0.4030    -0.6760     1.3320 S.o2  1 <1>   1.3330 
  2 O       -0.6080    -1.7060     1.3780 O.2   1 <1>  -0.6500 
  3 O        1.0100    -0.1850     2.5470 O.2   1 <1>  -0.6500 
  4 N        1.6440    -1.2080     0.3080 N.am  1 <1>  -0.8490 
  5 C       -0.3010     0.7240     0.4800 C.3   1 <1>  -0.1350 
  6 C        2.7420    -0.2470     0.1390 C.3   1 <1>   0.1960 
  7 C        1.1850    -1.8010    -0.9500 C.3   1 <1>   0.1960 
  8 C        3.9480    -0.9190    -0.5300 C.3   1 <1>  -0.0190 
  9 C        2.3470    -2.5120    -1.6500 C.3   1 <1>  -0.1600 
 10 C        5.0650     0.0930    -0.7330 C.2   1 <1>   0.5690 
 11 C        3.5430    -1.5740    -1.8630 C.3   1 <1>  -0.1600 
 12 O        4.7790     1.1990    -1.1270 O.2   1 <1>  -0.5700 
 13 N        6.3410    -0.3160    -0.4690 N.am  1 <1>  -0.5470 
 14 C        7.5990     0.3080    -0.5540 C.ar  1 <1>   0.1170 
 15 C        8.7270    -0.4550    -0.2310 C.ar  1 <1>   0.0820 
 16 C        7.7750     1.6330    -0.9400 C.ar  1 <1>  -0.1500 
 17 O        8.5100    -1.7530     0.1440 O.3   1 <1>  -0.3630 
 18 C        9.9970     0.1110    -0.2990 C.ar  1 <1>  -0.1500 
 19 C        9.0400     2.1900    -1.0060 C.ar  1 <1>  -0.1500 
 20 C        9.5780    -2.6020     0.4930 C.3   1 <1>   0.1200 
 21 C       10.1500     1.4310    -0.6860 C.ar  1 <1>  -0.1500 
 22 C        8.9980    -3.9650     0.8560 C.3   1 <1>  -0.2400 
 23 H       -0.6810     0.4300    -0.4770 H     1 <1>   0.0800 
 24 H        0.4340     1.4930     0.3480 H     1 <1>   0.0800 
 25 H       -1.1100     1.1260     1.0580 H     1 <1>   0.0800 
 26 H        3.0470     0.1300     1.1010 H     1 <1>   0.0800 
 27 H        2.4100     0.5840    -0.4600 H     1 <1>   0.0800 
 28 H        0.7840    -1.0360    -1.5940 H     1 <1>   0.0800 
 29 H        0.4080    -2.5220    -0.7510 H     1 <1>   0.0800 
 30 H        4.2990    -1.6830     0.1410 H     1 <1>   0.0800 
 31 H        2.0120    -2.8930    -2.5980 H     1 <1>   0.0800 
 32 H        2.6460    -3.3530    -1.0480 H     1 <1>   0.0800 
 33 H        4.3730    -2.1250    -2.2700 H     1 <1>   0.0800 
 34 H        3.2750    -0.8070    -2.5700 H     1 <1>   0.0800 
 35 H        6.4410    -1.2830    -0.1520 H     1 <1>   0.3700 
 36 H        6.9290     2.2420    -1.1930 H     1 <1>   0.1500 
 37 H       10.8780    -0.4520    -0.0570 H     1 <1>   0.1500 
 38 H        9.1560     3.2170    -1.3070 H     1 <1>   0.1500 
 39 H       10.0950    -2.1730     1.3350 H     1 <1>   0.0800 
 40 H       10.2400    -2.6840    -0.3520 H     1 <1>   0.0800 
 41 H       11.1330     1.8680    -0.7390 H     1 <1>   0.1500 
 42 H        8.3280    -3.8720     1.6930 H     1 <1>   0.0800 
 43 H        9.7920    -4.6370     1.1270 H     1 <1>   0.0800 
 44 H        8.4710    -4.3790     0.0150 H     1 <1>   0.0800 
@<TRIPOS>BOND
  1   1   2  2   
  2   1   3  2   
  3   1   4  am  
  4   1   5  1   
  5   4   6  1   
  6   4   7  1   
  7   5  23  1   
  8   5  24  1   
  9   5  25  1   
 10   6   8  1   
 11   6  26  1   
 12   6  27  1   
 13   7   9  1   
 14   7  28  1   
 15   7  29  1   
 16   8  10  1   
 17   8  11  1   
 18   8  30  1   
 19   9  11  1   
 20   9  31  1   
 21   9  32  1   
 22  10  12  2   
 23  10  13  am  
 24  11  33  1   
 25  11  34  1   
 26  13  14  1   
 27  13  35  1   
 28  14  15  ar  
 29  14  16  ar  
 30  15  17  1   
 31  15  18  ar  
 32  16  19  ar  
 33  16  36  1   
 34  17  20  1   
 35  18  21  ar  
 36  18  37  1   
 37  19  21  ar  
 38  19  38  1   
 39  20  22  1   
 40  20  39  1   
 41  20  40  1   
 42  21  41  1   
 43  22  42  1   
 44  22  43  1   
 45  22  44  1   
@<TRIPOS>SUBSTRUCTURE
  1 ****  10 GROUP 4 **** **** 0

# MOE 2024.06 (io_trps.svl 2023.06)
