@<TRIPOS>MOLECULE
[2-(4-Methoxy-benzylamino)-5-methyl-7-oxo-4,7-dihydro-[1,2,4]triazolo[1,5-a]pyri
45 47 1 0 0 
SMALL
USER_CHARGES


@<TRIPOS>ATOM
  1 O        0.2530    -0.5960     1.4570 O.2   1 <1>  -0.5700 
  2 C       -0.1010    -1.7610     1.3090 C.2   1 <1>   0.5650 
  3 N       -1.4670    -2.1210     1.3080 N.pl3 1 <1>   0.5610 
  4 C        0.8630    -2.8170     1.1400 C.2   1 <1>  -0.1240 
  5 N       -2.6120    -1.4040     1.4560 N.2   1 <1>  -0.7070 
  6 C       -1.8310    -3.4170     1.1670 C.2   1 <1>   0.2700 
  7 C        0.4580    -4.1120     0.9710 C.2   1 <1>  -0.0380 
  8 C        2.3370    -2.3860     1.1480 C.3   1 <1>   0.0390 
  9 C       -3.5080    -2.3230     1.3990 C.2   1 <1>   0.5990 
 10 N       -3.1000    -3.5800     1.2110 N.2   1 <1>  -0.5650 
 11 N       -0.8840    -4.4100     1.0020 N.pl3 1 <1>  -0.5840 
 12 C        1.3540    -5.3170     0.7280 C.3   1 <1>  -0.1020 
 13 C        2.7730    -1.8020    -0.1830 C.2   1 <1>   0.6590 
 14 N       -4.8450    -2.0850     1.5230 N.pl3 1 <1>  -0.8520 
 15 O        2.2120    -2.0710    -1.2150 O.2   1 <1>  -0.5700 
 16 O        3.8280    -0.9980    -0.1410 O.3   1 <1>  -0.4300 
 17 C       -5.3600    -0.9070     0.8080 C.3   1 <1>   0.3530 
 18 C        4.3300    -0.3740    -1.3050 C.3   1 <1>   0.0400 
 19 C       -6.6530    -1.3070     0.1190 C.ar  1 <1>  -0.1430 
 20 C       -6.6450    -1.7240    -1.2040 C.ar  1 <1>  -0.1500 
 21 C       -7.8550    -1.2660     0.8100 C.ar  1 <1>  -0.1500 
 22 C       -7.8230    -2.0900    -1.8340 C.ar  1 <1>  -0.1500 
 23 C       -9.0330    -1.6300     0.1830 C.ar  1 <1>  -0.1500 
 24 C       -9.0280    -2.0420    -1.1390 C.ar  1 <1>   0.0830 
 25 O      -10.2260    -2.3810    -1.6790 O.3   1 <1>  -0.3630 
 26 C      -10.3270    -2.8330    -3.0110 C.3   1 <1>   0.0400 
 27 H        2.9860    -3.2040     1.3850 H     1 <1>   0.0800 
 28 H        2.4950    -1.6450     1.9100 H     1 <1>   0.0800 
 29 H       -1.2420    -5.3650     0.8840 H     1 <1>   0.4000 
 30 H        1.4290    -5.9050     1.6250 H     1 <1>   0.0800 
 31 H        2.3390    -5.0360     0.4110 H     1 <1>   0.0800 
 32 H        0.9350    -5.9300    -0.0510 H     1 <1>   0.0800 
 33 H       -5.3470    -2.9170     1.2090 H     1 <1>   0.4000 
 34 H       -4.6480    -0.5560     0.0790 H     1 <1>   0.0800 
 35 H       -5.5400    -0.1140     1.5140 H     1 <1>   0.0800 
 36 H        5.1760     0.2300    -1.0310 H     1 <1>   0.0800 
 37 H        3.5560     0.2420    -1.7300 H     1 <1>   0.0800 
 38 H        4.6260    -1.1330    -2.0080 H     1 <1>   0.0800 
 39 H       -5.7180    -1.7680    -1.7490 H     1 <1>   0.1500 
 40 H       -7.8740    -0.9530     1.8400 H     1 <1>   0.1500 
 41 H       -7.7820    -2.4070    -2.8580 H     1 <1>   0.1500 
 42 H       -9.9660    -1.5980     0.7160 H     1 <1>   0.1500 
 43 H      -11.3610    -3.0460    -3.2130 H     1 <1>   0.0800 
 44 H       -9.7410    -3.7280    -3.1200 H     1 <1>   0.0800 
 45 H       -9.9770    -2.0590    -3.6700 H     1 <1>   0.0800 
@<TRIPOS>BOND
  1   1   2  2   
  2   2   3  1   
  3   2   4  1   
  4   3   5  1   
  5   3   6  1   
  6   4   7  2   
  7   4   8  1   
  8   5   9  2   
  9   6  10  2   
 10   6  11  1   
 11   7  11  1   
 12   7  12  1   
 13   8  13  1   
 14   8  27  1   
 15   8  28  1   
 16   9  10  1   
 17   9  14  1   
 18  11  29  1   
 19  12  30  1   
 20  12  31  1   
 21  12  32  1   
 22  13  15  2   
 23  13  16  1   
 24  14  17  1   
 25  14  33  1   
 26  16  18  1   
 27  17  19  1   
 28  17  34  1   
 29  17  35  1   
 30  18  36  1   
 31  18  37  1   
 32  18  38  1   
 33  19  20  ar  
 34  19  21  ar  
 35  20  22  ar  
 36  20  39  1   
 37  21  23  ar  
 38  21  40  1   
 39  22  24  ar  
 40  22  41  1   
 41  23  24  ar  
 42  23  42  1   
 43  24  25  1   
 44  25  26  1   
 45  26  43  1   
 46  26  44  1   
 47  26  45  1   
@<TRIPOS>SUBSTRUCTURE
  1 ****   9 GROUP 4 **** **** 0

# MOE 2024.06 (io_trps.svl 2023.06)
