@<TRIPOS>MOLECULE
3-Pyridin-2-yl-propylamine
23 23 1 0 0 
SMALL
USER_CHARGES


@<TRIPOS>ATOM
  1 N        0.2300     0.4020     0.9430 N.ar  1 <1>  -0.6200 
  2 C        1.2200     0.9090     0.2250 C.ar  1 <1>   0.1660 
  3 C       -0.9410     1.0070     0.8110 C.ar  1 <1>   0.1600 
  4 C        1.0880     1.9970    -0.6250 C.ar  1 <1>  -0.1500 
  5 C        2.5650     0.2180     0.3810 C.3   1 <1>  -0.0160 
  6 C       -1.1750     2.0960    -0.0100 C.ar  1 <1>  -0.1500 
  7 C       -0.1380     2.6140    -0.7550 C.ar  1 <1>  -0.1500 
  8 C        2.4890    -1.2380    -0.1100 C.3   1 <1>  -0.1600 
  9 C        3.7850    -1.9900     0.1620 C.3   1 <1>   0.3430 
 10 N        3.6040    -3.4050    -0.2340 N.4   1 <1>  -0.8530 
 11 H       -1.7600     0.6140     1.3900 H     1 <1>   0.1500 
 12 H        1.9280     2.3670    -1.1830 H     1 <1>   0.1500 
 13 H        2.8270     0.2430     1.4250 H     1 <1>   0.0800 
 14 H        3.3190     0.7570    -0.1640 H     1 <1>   0.0800 
 15 H       -2.1570     2.5310    -0.0620 H     1 <1>   0.1500 
 16 H       -0.2800     3.4600    -1.4040 H     1 <1>   0.1500 
 17 H        2.2700    -1.2340    -1.1640 H     1 <1>   0.0800 
 18 H        1.6800    -1.7290     0.4050 H     1 <1>   0.0800 
 19 H        4.0230    -1.9300     1.2140 H     1 <1>   0.0800 
 20 H        4.5930    -1.5440    -0.3970 H     1 <1>   0.0800 
 21 H        2.8300    -3.8250     0.2950 H     1 <1>   0.4500 
 22 H        4.4520    -3.9560    -0.0540 H     1 <1>   0.4500 
 23 H        3.3760    -3.4780    -1.2320 H     1 <1>   0.4500 
@<TRIPOS>BOND
  1   1   2  ar  
  2   1   3  ar  
  3   2   4  ar  
  4   2   5  1   
  5   3   6  ar  
  6   3  11  1   
  7   4   7  ar  
  8   4  12  1   
  9   5   8  1   
 10   5  13  1   
 11   5  14  1   
 12   6   7  ar  
 13   6  15  1   
 14   7  16  1   
 15   8   9  1   
 16   8  17  1   
 17   8  18  1   
 18   9  10  1   
 19   9  19  1   
 20   9  20  1   
 21  10  21  1   
 22  10  22  1   
 23  10  23  1   
@<TRIPOS>SUBSTRUCTURE
  1 ****   2 GROUP 4 **** **** 0

# MOE 2024.06 (io_trps.svl 2023.06)
