@<TRIPOS>MOLECULE
4-Methyl-2-piperidin-1-yl-thiazole-5-carbaldehyde
28 29 1 0 0 
SMALL
USER_CHARGES


@<TRIPOS>ATOM
  1 S       -0.0070     0.3460    -0.0120 S.3   1 <1>  -0.0800 
  2 C       -1.2710    -0.8390     0.2640 C.2   1 <1>   0.4620 
  3 C        1.1680    -0.9280    -0.2400 C.2   1 <1>  -0.0450 
  4 N       -0.8370    -2.0510     0.1880 N.2   1 <1>  -0.5650 
  5 N       -2.5590    -0.4370     0.5250 N.pl3 1 <1>  -0.8220 
  6 C        0.4980    -2.0990    -0.0880 C.2   1 <1>   0.0460 
  7 C        2.5110    -0.5440    -0.5220 C.2   1 <1>   0.5950 
  8 C       -3.6420    -1.4400     0.7210 C.3   1 <1>   0.2090 
  9 C       -3.0130     0.9770     0.6230 C.3   1 <1>   0.2090 
 10 C        1.0940    -3.4890    -0.1950 C.3   1 <1>  -0.0590 
 11 O        3.4360    -1.3000    -0.7030 O.2   1 <1>  -0.5700 
 12 C       -4.7490    -1.2040    -0.3120 C.3   1 <1>  -0.1600 
 13 C       -4.1120     1.2320    -0.4140 C.3   1 <1>  -0.1600 
 14 C       -5.2740     0.2390    -0.2690 C.3   1 <1>  -0.1600 
 15 H        2.7150     0.5100    -0.5780 H     1 <1>   0.0600 
 16 H       -4.0380    -1.3370     1.7160 H     1 <1>   0.0800 
 17 H       -3.2610    -2.4410     0.6160 H     1 <1>   0.0800 
 18 H       -2.2040     1.6660     0.4630 H     1 <1>   0.0800 
 19 H       -3.4010     1.1490     1.6120 H     1 <1>   0.0800 
 20 H        2.1440    -3.4550    -0.4140 H     1 <1>   0.0800 
 21 H        0.5960    -4.0330    -0.9770 H     1 <1>   0.0800 
 22 H        0.9520    -4.0120     0.7330 H     1 <1>   0.0800 
 23 H       -5.5570    -1.8900    -0.1280 H     1 <1>   0.0800 
 24 H       -4.3530    -1.4180    -1.2890 H     1 <1>   0.0800 
 25 H       -3.6820     1.1460    -1.3970 H     1 <1>   0.0800 
 26 H       -4.4780     2.2370    -0.3030 H     1 <1>   0.0800 
 27 H       -5.7740     0.4090     0.6690 H     1 <1>   0.0800 
 28 H       -5.9860     0.3920    -1.0610 H     1 <1>   0.0800 
@<TRIPOS>BOND
  1   1   2  1   
  2   1   3  1   
  3   2   4  2   
  4   2   5  1   
  5   3   6  2   
  6   3   7  1   
  7   4   6  1   
  8   5   8  1   
  9   5   9  1   
 10   6  10  1   
 11   7  11  2   
 12   7  15  1   
 13   8  12  1   
 14   8  16  1   
 15   8  17  1   
 16   9  13  1   
 17   9  18  1   
 18   9  19  1   
 19  10  20  1   
 20  10  21  1   
 21  10  22  1   
 22  12  14  1   
 23  12  23  1   
 24  12  24  1   
 25  13  14  1   
 26  13  25  1   
 27  13  26  1   
 28  14  27  1   
 29  14  28  1   
@<TRIPOS>SUBSTRUCTURE
  1 ****   2 GROUP 4 **** **** 0

# MOE 2024.06 (io_trps.svl 2023.06)
