@<TRIPOS>MOLECULE
1-(4-Chloro-2,5-dimethoxy-benzenesulfonyl)-2-ethyl-4-methyl-1H-imidazole
39 40 1 0 0 
SMALL
USER_CHARGES


@<TRIPOS>ATOM
  1 CL      -1.1820    -0.3700     2.9960 Cl    1 <1>  -0.1770 
  2 C       -2.4560    -0.3970     1.7970 C.ar  1 <1>   0.1770 
  3 C       -2.6110    -1.4930     0.9580 C.ar  1 <1>   0.0830 
  4 C       -3.2920     0.6960     1.7110 C.ar  1 <1>  -0.1500 
  5 O       -1.7490    -2.5380     1.0930 O.3   1 <1>  -0.3630 
  6 C       -3.6390    -1.4700     0.0200 C.ar  1 <1>  -0.1500 
  7 C       -4.3160     0.7030     0.7690 C.ar  1 <1>   0.0830 
  8 C       -1.8030    -3.6610     0.2400 C.3   1 <1>   0.0400 
  9 C       -4.5040    -0.3840    -0.0830 C.ar  1 <1>  -0.0090 
 10 O       -5.1680     1.7500     0.6390 O.3   1 <1>  -0.3630 
 11 S       -5.8360    -0.3830    -1.3110 S.o2  1 <1>   1.2950 
 12 C       -5.2470     2.7790     1.6030 C.3   1 <1>   0.0400 
 13 O       -5.5370     0.6140    -2.3190 O.2   1 <1>  -0.6500 
 14 O       -6.0050    -1.7530    -1.7580 O.2   1 <1>  -0.6500 
 15 N       -7.2610     0.0600    -0.3530 N.pl3 1 <1>   0.3170 
 16 C       -8.2390     0.9830    -0.5940 C.2   1 <1>   0.0060 
 17 C       -7.6420    -0.4980     0.8250 C.2   1 <1>  -0.3020 
 18 N       -9.1500     1.0390     0.3250 N.2   1 <1>  -0.5650 
 19 C       -8.3020     1.8830    -1.8200 C.3   1 <1>   0.0200 
 20 C       -8.7780     0.1100     1.2150 C.2   1 <1>   0.0460 
 21 C       -7.4980     3.1700    -1.6130 C.3   1 <1>  -0.2400 
 22 C       -9.6050    -0.1410     2.4540 C.3   1 <1>  -0.0590 
 23 H       -3.1220     1.5200     2.3780 H     1 <1>   0.1500 
 24 H       -3.7850    -2.3000    -0.6480 H     1 <1>   0.1500 
 25 H       -1.0140    -4.3330     0.5250 H     1 <1>   0.0800 
 26 H       -1.6570    -3.3370    -0.7760 H     1 <1>   0.0800 
 27 H       -2.7560    -4.1460     0.3580 H     1 <1>   0.0800 
 28 H       -6.0660     3.4230     1.3360 H     1 <1>   0.0800 
 29 H       -4.3280     3.3380     1.5970 H     1 <1>   0.0800 
 30 H       -5.4290     2.3430     2.5690 H     1 <1>   0.0800 
 31 H       -7.0890    -1.2840     1.3040 H     1 <1>   0.1500 
 32 H       -9.3310     2.1460    -1.9930 H     1 <1>   0.0800 
 33 H       -7.9580     1.3610    -2.6950 H     1 <1>   0.0800 
 34 H       -7.8590     3.6910    -0.7440 H     1 <1>   0.0800 
 35 H       -7.6040     3.8110    -2.4700 H     1 <1>   0.0800 
 36 H       -6.4540     2.9510    -1.4780 H     1 <1>   0.0800 
 37 H       -9.1630    -0.9190     3.0490 H     1 <1>   0.0800 
 38 H      -10.5980    -0.4370     2.1690 H     1 <1>   0.0800 
 39 H       -9.6640     0.7600     3.0360 H     1 <1>   0.0800 
@<TRIPOS>BOND
  1   1   2  1   
  2   2   3  ar  
  3   2   4  ar  
  4   3   5  1   
  5   3   6  ar  
  6   4   7  ar  
  7   4  23  1   
  8   5   8  1   
  9   6   9  ar  
 10   6  24  1   
 11   7   9  ar  
 12   7  10  1   
 13   8  25  1   
 14   8  26  1   
 15   8  27  1   
 16   9  11  1   
 17  10  12  1   
 18  11  13  2   
 19  11  14  2   
 20  11  15  1   
 21  12  28  1   
 22  12  29  1   
 23  12  30  1   
 24  15  16  1   
 25  15  17  1   
 26  16  18  2   
 27  16  19  1   
 28  17  20  2   
 29  17  31  1   
 30  18  20  1   
 31  19  21  1   
 32  19  32  1   
 33  19  33  1   
 34  20  22  1   
 35  21  34  1   
 36  21  35  1   
 37  21  36  1   
 38  22  37  1   
 39  22  38  1   
 40  22  39  1   
@<TRIPOS>SUBSTRUCTURE
  1 ****   9 GROUP 4 **** **** 0

# MOE 2024.06 (io_trps.svl 2023.06)
