@<TRIPOS>MOLECULE
4-(4-Benzo[1,3]dioxol-5-ylmethyl-piperazine-1-carbonyl)-1-p-tolyl-pyrrolidin-2-o
59 63 1 0 0 
SMALL
USER_CHARGES


@<TRIPOS>ATOM
  1 O        1.0470     0.3150    -1.4540 O.2   1 <1>  -0.5700 
  2 C        2.1520     0.3950    -0.9770 C.2   1 <1>   0.5690 
  3 N        2.8150    -0.5610    -0.2610 N.am  1 <1>  -0.4770 
  4 C        2.9970     1.6260    -1.1510 C.3   1 <1>  -0.0990 
  5 C        2.3940    -1.8650     0.0650 C.ar  1 <1>   0.1170 
  6 C        4.1550    -0.0770     0.1240 C.3   1 <1>   0.1400 
  7 C        4.4050     1.1210    -0.8000 C.3   1 <1>  -0.0190 
  8 C        1.6370    -2.6200    -0.8260 C.ar  1 <1>  -0.1500 
  9 C        2.7360    -2.4430     1.2840 C.ar  1 <1>  -0.1500 
 10 C        5.2920     2.1810    -0.1540 C.2   1 <1>   0.5690 
 11 C        1.2460    -3.9100    -0.5160 C.ar  1 <1>  -0.1500 
 12 C        2.3480    -3.7340     1.5960 C.ar  1 <1>  -0.1500 
 13 O        4.9160     2.6640     0.8850 O.2   1 <1>  -0.5700 
 14 N        6.4810     2.5910    -0.7110 N.am  1 <1>  -0.6600 
 15 C        1.6030    -4.4780     0.6960 C.ar  1 <1>  -0.1430 
 16 C        7.0840     3.8990    -0.2950 C.3   1 <1>   0.1400 
 17 C        7.3620     1.7760    -1.6060 C.3   1 <1>   0.1400 
 18 C        1.1730    -5.8930     1.0350 C.3   1 <1>  -0.0970 
 19 C        8.4640     3.6870     0.3480 C.3   1 <1>   0.3430 
 20 C        8.7700     1.6030    -0.9890 C.3   1 <1>   0.3430 
 21 N        9.3840     2.9080    -0.5590 N.4   1 <1>  -0.9590 
 22 C       10.7210     2.7130     0.0680 C.3   1 <1>   0.4860 
 23 C       11.3580     4.0750     0.2620 C.ar  1 <1>  -0.1430 
 24 C       11.8270     4.7840    -0.8420 C.ar  1 <1>  -0.1500 
 25 C       11.4660     4.6230     1.5420 C.ar  1 <1>  -0.1500 
 26 C       12.3750     6.0310    -0.6270 C.ar  1 <1>   0.0830 
 27 C       12.0260     5.8800     1.7340 C.ar  1 <1>  -0.1500 
 28 O       12.8710     6.8790    -1.5320 O.3   1 <1>  -0.3620 
 29 C       12.4720     6.5660     0.6230 C.ar  1 <1>   0.0830 
 30 C       13.3330     8.0220    -0.8110 C.3   1 <1>   0.4000 
 31 O       13.0350     7.7750     0.5630 O.3   1 <1>  -0.3620 
 32 H        2.6540     2.3740    -0.4590 H     1 <1>   0.0800 
 33 H        2.9360     1.9990    -2.1570 H     1 <1>   0.0800 
 34 H        4.8930    -0.8480    -0.0130 H     1 <1>   0.0800 
 35 H        4.1290     0.2290     1.1570 H     1 <1>   0.0800 
 36 H        4.8430     0.7530    -1.7060 H     1 <1>   0.0800 
 37 H        1.3490    -2.1940    -1.7700 H     1 <1>   0.1500 
 38 H        3.3020    -1.8820     2.0030 H     1 <1>   0.1500 
 39 H        0.6590    -4.4680    -1.2240 H     1 <1>   0.1500 
 40 H        2.6240    -4.1570     2.5450 H     1 <1>   0.1500 
 41 H        6.4460     4.4100     0.4080 H     1 <1>   0.0800 
 42 H        7.1790     4.5380    -1.1560 H     1 <1>   0.0800 
 43 H        7.4400     2.2610    -2.5640 H     1 <1>   0.0800 
 44 H        6.9470     0.7980    -1.7660 H     1 <1>   0.0800 
 45 H        0.2090    -5.8750     1.5110 H     1 <1>   0.0800 
 46 H        1.8810    -6.3530     1.7010 H     1 <1>   0.0800 
 47 H        1.1090    -6.4900     0.1430 H     1 <1>   0.0800 
 48 H        8.3280     3.1600     1.2780 H     1 <1>   0.0800 
 49 H        8.8950     4.6500     0.5730 H     1 <1>   0.0800 
 50 H        9.4100     1.1170    -1.7080 H     1 <1>   0.0800 
 51 H        8.6830     0.9510    -0.1350 H     1 <1>   0.0800 
 52 H        9.5410     3.4930    -1.3890 H     1 <1>   0.4500 
 53 H       11.3510     2.1160    -0.5720 H     1 <1>   0.0800 
 54 H       10.6230     2.2110     1.0170 H     1 <1>   0.0800 
 55 H       11.7840     4.4020    -1.8470 H     1 <1>   0.1500 
 56 H       11.1210     4.0810     2.4070 H     1 <1>   0.1500 
 57 H       12.1200     6.3200     2.7110 H     1 <1>   0.1500 
 58 H       12.8060     8.8990    -1.1430 H     1 <1>   0.0800 
 59 H       14.3960     8.1250    -0.9370 H     1 <1>   0.0800 
@<TRIPOS>BOND
  1   1   2  2   
  2   2   3  am  
  3   2   4  1   
  4   3   5  1   
  5   3   6  1   
  6   4   7  1   
  7   4  32  1   
  8   4  33  1   
  9   5   8  ar  
 10   5   9  ar  
 11   6   7  1   
 12   6  34  1   
 13   6  35  1   
 14   7  10  1   
 15   7  36  1   
 16   8  11  ar  
 17   8  37  1   
 18   9  12  ar  
 19   9  38  1   
 20  10  13  2   
 21  10  14  am  
 22  11  15  ar  
 23  11  39  1   
 24  12  15  ar  
 25  12  40  1   
 26  14  16  1   
 27  14  17  1   
 28  15  18  1   
 29  16  19  1   
 30  16  41  1   
 31  16  42  1   
 32  17  20  1   
 33  17  43  1   
 34  17  44  1   
 35  18  45  1   
 36  18  46  1   
 37  18  47  1   
 38  19  21  1   
 39  19  48  1   
 40  19  49  1   
 41  20  21  1   
 42  20  50  1   
 43  20  51  1   
 44  21  22  1   
 45  21  52  1   
 46  22  23  1   
 47  22  53  1   
 48  22  54  1   
 49  23  24  ar  
 50  23  25  ar  
 51  24  26  ar  
 52  24  55  1   
 53  25  27  ar  
 54  25  56  1   
 55  26  28  1   
 56  26  29  ar  
 57  27  29  ar  
 58  27  57  1   
 59  28  30  1   
 60  29  31  1   
 61  30  31  1   
 62  30  58  1   
 63  30  59  1   
@<TRIPOS>SUBSTRUCTURE
  1 ****  14 GROUP 4 **** **** 0

# MOE 2024.06 (io_trps.svl 2023.06)
