@<TRIPOS>MOLECULE
8,8-Dimethyl-5-(4-propoxy-phenyl)-5,8,9,10-tetrahydro-1H,7H-pyrimido[4,5-b]quino
54 57 1 0 0 
SMALL
USER_CHARGES


@<TRIPOS>ATOM
  1 O       -0.7220    -0.2830     0.5120 O.2   1 <1>  -0.5700 
  2 C       -1.7370    -0.8410     0.1660 C.2   1 <1>   0.6900 
  3 N       -2.9190    -0.5880     0.7960 N.am  1 <1>  -0.5390 
  4 N       -1.7320    -1.7260    -0.8620 N.am  1 <1>  -0.4900 
  5 C       -4.0840    -1.2130     0.4280 C.2   1 <1>   0.2090 
  6 C       -2.8600    -2.3680    -1.2850 C.2   1 <1>   0.6160 
  7 N       -5.2400    -0.8850     1.0890 N.pl3 1 <1>  -0.6000 
  8 C       -4.0650    -2.1200    -0.5860 C.2   1 <1>  -0.1240 
  9 O       -2.7630    -3.0940    -2.2580 O.2   1 <1>  -0.5700 
 10 C       -6.4650    -1.3600     0.6700 C.2   1 <1>  -0.0380 
 11 C       -5.3260    -2.8890    -0.9630 C.3   1 <1>   0.3400 
 12 C       -6.5790    -2.2880    -0.3160 C.2   1 <1>  -0.1240 
 13 C       -7.6910    -0.7870     1.3710 C.3   1 <1>  -0.0220 
 14 C       -5.1720    -4.3370    -0.4940 C.ar  1 <1>  -0.1430 
 15 C       -7.8300    -2.7700    -0.7970 C.2   1 <1>   0.4950 
 16 C       -8.9780    -0.9220     0.5240 C.3   1 <1>   0.0000 
 17 C       -5.2050    -5.3790    -1.4100 C.ar  1 <1>  -0.1500 
 18 C       -4.9970    -4.6290     0.8520 C.ar  1 <1>  -0.1500 
 19 O       -7.9620    -3.4800    -1.7650 O.2   1 <1>  -0.5700 
 20 C       -9.0840    -2.3510    -0.0510 C.3   1 <1>  -0.0990 
 21 C       -8.9580     0.1030    -0.6260 C.3   1 <1>  -0.2400 
 22 C      -10.2060    -0.6330     1.4020 C.3   1 <1>  -0.2400 
 23 C       -5.0660    -6.6910    -0.9920 C.ar  1 <1>  -0.1500 
 24 C       -4.8570    -5.9390     1.2730 C.ar  1 <1>  -0.1500 
 25 C       -4.8900    -6.9780     0.3590 C.ar  1 <1>   0.0830 
 26 O       -4.7460    -8.2320     0.8540 O.3   1 <1>  -0.3620 
 27 C       -4.7810    -9.3570     0.0070 C.3   1 <1>   0.1200 
 28 C       -4.6000   -10.6090     0.8660 C.3   1 <1>  -0.1600 
 29 C       -4.6270   -11.8820     0.0120 C.3   1 <1>  -0.2400 
 30 H       -2.8730     0.0880     1.5550 H     1 <1>   0.3700 
 31 H       -0.8610    -1.9090    -1.3460 H     1 <1>   0.3700 
 32 H       -5.1970    -0.2040     1.8530 H     1 <1>   0.4000 
 33 H       -5.4380    -2.8540    -2.0330 H     1 <1>   0.0800 
 34 H       -7.5270     0.2520     1.6000 H     1 <1>   0.0800 
 35 H       -7.8110    -1.3110     2.3030 H     1 <1>   0.0800 
 36 H       -5.3430    -5.1720    -2.4580 H     1 <1>   0.1500 
 37 H       -4.9700    -3.8370     1.5810 H     1 <1>   0.1500 
 38 H       -9.2400    -3.0570     0.7440 H     1 <1>   0.0800 
 39 H       -9.9260    -2.4190    -0.7170 H     1 <1>   0.0800 
 40 H       -8.1030    -0.0350    -1.2630 H     1 <1>   0.0800 
 41 H       -8.9240     1.1060    -0.2390 H     1 <1>   0.0800 
 42 H       -9.8430     0.0090    -1.2310 H     1 <1>   0.0800 
 43 H      -10.2670    -1.3330     2.2170 H     1 <1>   0.0800 
 44 H      -11.1100    -0.7110     0.8240 H     1 <1>   0.0800 
 45 H      -10.1540     0.3600     1.8130 H     1 <1>   0.0800 
 46 H       -5.0970    -7.4680    -1.7310 H     1 <1>   0.1500 
 47 H       -4.7210    -6.1660     2.3140 H     1 <1>   0.1500 
 48 H       -3.9810    -9.2680    -0.7080 H     1 <1>   0.0800 
 49 H       -5.7320    -9.3740    -0.4960 H     1 <1>   0.0800 
 50 H       -5.3920   -10.6540     1.5940 H     1 <1>   0.0800 
 51 H       -3.6590   -10.5480     1.3840 H     1 <1>   0.0800 
 52 H       -5.5680   -11.9700    -0.5030 H     1 <1>   0.0800 
 53 H       -4.4980   -12.7470     0.6390 H     1 <1>   0.0800 
 54 H       -3.8330   -11.8650    -0.7140 H     1 <1>   0.0800 
@<TRIPOS>BOND
  1   1   2  2   
  2   2   3  am  
  3   2   4  am  
  4   3   5  1   
  5   3  30  1   
  6   4   6  am  
  7   4  31  1   
  8   5   7  1   
  9   5   8  2   
 10   6   8  1   
 11   6   9  2   
 12   7  10  1   
 13   7  32  1   
 14   8  11  1   
 15  10  12  2   
 16  10  13  1   
 17  11  12  1   
 18  11  14  1   
 19  11  33  1   
 20  12  15  1   
 21  13  16  1   
 22  13  34  1   
 23  13  35  1   
 24  14  17  ar  
 25  14  18  ar  
 26  15  19  2   
 27  15  20  1   
 28  16  20  1   
 29  16  21  1   
 30  16  22  1   
 31  17  23  ar  
 32  17  36  1   
 33  18  24  ar  
 34  18  37  1   
 35  20  38  1   
 36  20  39  1   
 37  21  40  1   
 38  21  41  1   
 39  21  42  1   
 40  22  43  1   
 41  22  44  1   
 42  22  45  1   
 43  23  25  ar  
 44  23  46  1   
 45  24  25  ar  
 46  24  47  1   
 47  25  26  1   
 48  26  27  1   
 49  27  28  1   
 50  27  48  1   
 51  27  49  1   
 52  28  29  1   
 53  28  50  1   
 54  28  51  1   
 55  29  52  1   
 56  29  53  1   
 57  29  54  1   
@<TRIPOS>SUBSTRUCTURE
  1 ****  14 GROUP 4 **** **** 0

# MOE 2024.06 (io_trps.svl 2023.06)
