@<TRIPOS>MOLECULE
Pentanoic acid {1-[3-(2-methoxy-phenyl)-[1,2,4]oxadiazol-5-yl]-ethyl}-amide
43 44 1 0 0 
SMALL
USER_CHARGES


@<TRIPOS>ATOM
  1 O       -1.4000    -0.2980    -1.6800 O.2   1 <1>  -0.5700 
  2 C       -2.5850    -0.4880    -1.5830 C.2   1 <1>   0.5690 
  3 N       -3.2580    -0.9480    -2.6610 N.am  1 <1>  -0.7300 
  4 C       -3.2950    -0.2290    -0.2580 C.3   1 <1>  -0.0990 
  5 C       -4.6780    -1.3450    -2.7620 C.3   1 <1>   0.4000 
  6 C       -2.5790     0.7940     0.6420 C.3   1 <1>  -0.1600 
  7 C       -5.0150    -2.5090    -1.8280 C.2   1 <1>   0.2980 
  8 C       -4.9670    -1.6880    -4.2230 C.3   1 <1>  -0.2400 
  9 C       -3.3560     1.0330     1.9430 C.3   1 <1>  -0.1600 
 10 O       -4.3890    -3.6470    -1.9790 O.3   1 <1>  -0.0190 
 11 N       -5.8630    -2.4760    -0.8830 N.2   1 <1>  -0.5650 
 12 C       -2.6360     2.0490     2.8340 C.3   1 <1>  -0.2400 
 13 N       -4.8810    -4.4050    -1.0500 N.2   1 <1>  -0.4100 
 14 C       -5.7600    -3.7210    -0.4090 C.2   1 <1>   0.4620 
 15 C       -6.5220    -4.1970     0.7240 C.ar  1 <1>   0.0540 
 16 C       -7.9230    -4.2190     0.7300 C.ar  1 <1>   0.0820 
 17 C       -5.8520    -4.6580     1.8560 C.ar  1 <1>  -0.1500 
 18 O       -8.5690    -3.8020    -0.3910 O.3   1 <1>  -0.3630 
 19 C       -8.6090    -4.6720     1.8550 C.ar  1 <1>  -0.1500 
 20 C       -6.5360    -5.1100     2.9680 C.ar  1 <1>  -0.1500 
 21 C       -9.9750    -3.7850    -0.4920 C.3   1 <1>   0.0400 
 22 C       -7.9190    -5.1140     2.9680 C.ar  1 <1>  -0.1500 
 23 H       -2.6830    -1.1460    -3.4800 H     1 <1>   0.3700 
 24 H       -3.3720    -1.1650     0.2650 H     1 <1>   0.0800 
 25 H       -4.2880     0.1280    -0.4520 H     1 <1>   0.0800 
 26 H       -5.2890    -0.5050    -2.4810 H     1 <1>   0.0800 
 27 H       -2.4730     1.7230     0.1070 H     1 <1>   0.0800 
 28 H       -1.5920     0.4320     0.8740 H     1 <1>   0.0800 
 29 H       -4.3640    -2.5190    -4.5440 H     1 <1>   0.0800 
 30 H       -4.7740    -0.8360    -4.8510 H     1 <1>   0.0800 
 31 H       -6.0020    -1.9590    -4.3290 H     1 <1>   0.0800 
 32 H       -3.4590     0.1040     2.4780 H     1 <1>   0.0800 
 33 H       -4.3430     1.3980     1.7160 H     1 <1>   0.0800 
 34 H       -1.6530     1.6930     3.0910 H     1 <1>   0.0800 
 35 H       -3.1930     2.2020     3.7410 H     1 <1>   0.0800 
 36 H       -2.5410     2.9920     2.3260 H     1 <1>   0.0800 
 37 H       -4.7750    -4.6580     1.8590 H     1 <1>   0.1500 
 38 H       -9.6820    -4.6920     1.8840 H     1 <1>   0.1500 
 39 H       -5.9960    -5.4580     3.8310 H     1 <1>   0.1500 
 40 H      -10.2350    -3.4130    -1.4660 H     1 <1>   0.0800 
 41 H      -10.3710    -3.1310     0.2650 H     1 <1>   0.0800 
 42 H      -10.3460    -4.7870    -0.3720 H     1 <1>   0.0800 
 43 H       -8.4550    -5.4640     3.8340 H     1 <1>   0.1500 
@<TRIPOS>BOND
  1   1   2  2   
  2   2   3  am  
  3   2   4  1   
  4   3   5  1   
  5   3  23  1   
  6   4   6  1   
  7   4  24  1   
  8   4  25  1   
  9   5   7  1   
 10   5   8  1   
 11   5  26  1   
 12   6   9  1   
 13   6  27  1   
 14   6  28  1   
 15   7  10  1   
 16   7  11  2   
 17   8  29  1   
 18   8  30  1   
 19   8  31  1   
 20   9  12  1   
 21   9  32  1   
 22   9  33  1   
 23  10  13  1   
 24  11  14  1   
 25  12  34  1   
 26  12  35  1   
 27  12  36  1   
 28  13  14  2   
 29  14  15  1   
 30  15  16  ar  
 31  15  17  ar  
 32  16  18  1   
 33  16  19  ar  
 34  17  20  ar  
 35  17  37  1   
 36  18  21  1   
 37  19  22  ar  
 38  19  38  1   
 39  20  22  ar  
 40  20  39  1   
 41  21  40  1   
 42  21  41  1   
 43  21  42  1   
 44  22  43  1   
@<TRIPOS>SUBSTRUCTURE
  1 ****  11 GROUP 4 **** **** 0

# MOE 2024.06 (io_trps.svl 2023.06)
