@<TRIPOS>MOLECULE
8-Allyl-1,7-dimethyl-3-(2-oxo-propyl)-1H,8H-imidazo[2,1-f]purine-2,4-dione
41 43 1 0 0 
SMALL
USER_CHARGES


@<TRIPOS>ATOM
  1 O        0.6830     0.0390     0.1710 O.2   1 <1>  -0.5760 
  2 C        1.6690     0.6690    -0.1550 C.2   1 <1>   0.6850 
  3 N        1.5250     1.9290    -0.7190 N.am  1 <1>  -0.4270 
  4 N        2.9350     0.1310     0.0440 N.am  1 <1>  -0.4430 
  5 C        2.6250     2.6590    -1.1370 C.2   1 <1>   0.6980 
  6 C        0.2800     2.6950    -0.4000 C.3   1 <1>   0.1920 
  7 C        4.0290     0.9100    -0.2770 C.2   1 <1>   0.4190 
  8 C        3.0950    -1.2140     0.6700 C.3   1 <1>   0.0500 
  9 O        2.4790     3.7180    -1.7270 O.2   1 <1>  -0.5760 
 10 C        3.9180     2.1310    -0.8560 C.2   1 <1>   0.2690 
 11 C        0.4240     3.4000     0.9490 C.2   1 <1>   0.4410 
 12 N        5.3500     0.6190    -0.0820 N.pl3 1 <1>  -0.7050 
 13 N        5.2270     2.6040    -1.0280 N.pl3 1 <1>  -0.6340 
 14 O        1.4610     3.4120     1.5500 O.2   1 <1>  -0.5760 
 15 C       -0.8070     4.0900     1.4960 C.3   1 <1>  -0.1880 
 16 C        6.0370     1.6740    -0.5420 C.cat 1 <1>   1.0680 
 17 C        6.0190     3.6600    -1.4320 C.2   1 <1>   0.2200 
 18 N        7.3170     2.0450    -0.6290 N.pl3 1 <1>  -0.5730 
 19 C        7.3040     3.3160    -1.1860 C.2   1 <1>   0.1560 
 20 C        8.4920     1.2880    -0.1570 C.3   1 <1>   0.2980 
 21 C        8.5700     4.1140    -1.4330 C.3   1 <1>  -0.1110 
 22 C        8.8160     1.7380     1.2520 C.2   1 <1>  -0.2960 
 23 C        9.9680     2.3010     1.6310 C.2   1 <1>  -0.3080 
 24 H       -0.5660     2.0330    -0.3690 H     1 <1>   0.0700 
 25 H        0.0930     3.4270    -1.1650 H     1 <1>   0.0700 
 26 H        2.2390    -1.8320     0.4560 H     1 <1>   0.0700 
 27 H        3.1820    -1.1080     1.7380 H     1 <1>   0.0700 
 28 H        3.9680    -1.7100     0.2850 H     1 <1>   0.0700 
 29 H        5.7460    -0.1930     0.3840 H     1 <1>   0.4430 
 30 H       -1.5940     3.3740     1.6450 H     1 <1>   0.0700 
 31 H       -1.1390     4.8490     0.8120 H     1 <1>   0.0700 
 32 H       -0.5760     4.5510     2.4390 H     1 <1>   0.0700 
 33 H        5.6080     4.5650    -1.8530 H     1 <1>   0.1410 
 34 H        9.3300     1.4710    -0.8090 H     1 <1>   0.0700 
 35 H        8.2840     0.2320    -0.1660 H     1 <1>   0.0700 
 36 H        9.2180     3.5880    -2.1110 H     1 <1>   0.0700 
 37 H        9.0920     4.2760    -0.5070 H     1 <1>   0.0700 
 38 H        8.3330     5.0710    -1.8620 H     1 <1>   0.0700 
 39 H        8.0170     1.5600     1.9510 H     1 <1>   0.1410 
 40 H       10.1780     2.6130     2.6410 H     1 <1>   0.1410 
 41 H       10.8010     2.5000     0.9770 H     1 <1>   0.1410 
@<TRIPOS>BOND
  1   1   2  2   
  2   2   3  am  
  3   2   4  am  
  4   3   5  am  
  5   3   6  1   
  6   4   7  1   
  7   4   8  1   
  8   5   9  2   
  9   5  10  1   
 10   6  11  1   
 11   6  24  1   
 12   6  25  1   
 13   7  10  2   
 14   7  12  1   
 15   8  26  1   
 16   8  27  1   
 17   8  28  1   
 18  10  13  1   
 19  11  14  2   
 20  11  15  1   
 21  12  16  ar  
 22  12  29  1   
 23  13  16  ar  
 24  13  17  1   
 25  15  30  1   
 26  15  31  1   
 27  15  32  1   
 28  16  18  ar  
 29  17  19  2   
 30  17  33  1   
 31  18  19  1   
 32  18  20  1   
 33  19  21  1   
 34  20  22  1   
 35  20  34  1   
 36  20  35  1   
 37  21  36  1   
 38  21  37  1   
 39  21  38  1   
 40  22  23  2   
 41  22  39  1   
 42  23  40  1   
 43  23  41  1   
@<TRIPOS>SUBSTRUCTURE
  1 ****  10 GROUP 4 **** **** 0

# MOE 2024.06 (io_trps.svl 2023.06)
