@<TRIPOS>MOLECULE
8-(4-Benzyl-piperazin-1-yl)-7-(2-hydroxy-ethyl)-3-methyl-3,7-dihydro-purine-2,6-
54 57 1 0 0 
SMALL
USER_CHARGES


@<TRIPOS>ATOM
  1 O        0.8690     0.2360     0.1920 O.2   1 <1>  -0.5740 
  2 C        1.8910     0.8630     0.0420 C.2   1 <1>   0.6860 
  3 N        3.1380     0.2550     0.0390 N.am  1 <1>  -0.4410 
  4 N        1.8070     2.2140    -0.1210 N.am  1 <1>  -0.4950 
  5 C        4.2490     1.0700    -0.1220 C.2   1 <1>   0.4210 
  6 C        3.2680    -1.2210     0.2180 C.3   1 <1>   0.0530 
  7 C        2.8910     3.0280    -0.2770 C.2   1 <1>   0.6990 
  8 N        5.5560     0.6980    -0.1180 N.pl3 1 <1>  -0.7040 
  9 C        4.1860     2.4080    -0.2980 C.2   1 <1>   0.2710 
 10 O        2.7180     4.2270    -0.3700 O.2   1 <1>  -0.5740 
 11 C        6.3140     1.7840    -0.2980 C.cat 1 <1>   1.0690 
 12 N        5.5170     2.8600    -0.4300 N.pl3 1 <1>  -0.7670 
 13 N        7.6730     1.7130    -0.3380 N.pl3 1 <1>  -0.5960 
 14 C        5.8370     4.3240    -0.3420 C.3   1 <1>   0.3480 
 15 C        8.4320     0.7790     0.5670 C.3   1 <1>   0.1610 
 16 C        8.5360     2.7380    -1.0180 C.3   1 <1>   0.1610 
 17 C        6.0890     4.7630     1.1120 C.3   1 <1>   0.1130 
 18 C        9.7120     0.2090    -0.0820 C.3   1 <1>   0.3370 
 19 C        9.8260     2.1470    -1.6310 C.3   1 <1>   0.3370 
 20 O        7.0700     3.9670     1.7090 O.3   1 <1>  -0.6840 
 21 N       10.5760     1.2910    -0.6600 N.4   1 <1>  -0.9610 
 22 C       11.8170     0.7270    -1.2680 C.3   1 <1>   0.4820 
 23 C       12.5910     0.0150    -0.1790 C.ar  1 <1>  -0.1510 
 24 C       12.6330    -1.3720    -0.1480 C.ar  1 <1>  -0.1570 
 25 C       13.2530     0.7420     0.8010 C.ar  1 <1>  -0.1570 
 26 C       13.3150    -2.0250     0.8640 C.ar  1 <1>  -0.1570 
 27 C       13.9340     0.0860     1.8110 C.ar  1 <1>  -0.1570 
 28 C       13.9620    -1.2960     1.8450 C.ar  1 <1>  -0.1570 
 29 H        0.8780     2.6310    -0.1040 H     1 <1>   0.3640 
 30 H        2.3130    -1.7050     0.0980 H     1 <1>   0.0730 
 31 H        3.6350    -1.4370     1.2070 H     1 <1>   0.0730 
 32 H        3.9410    -1.6270    -0.5150 H     1 <1>   0.0730 
 33 H        5.8880    -0.2540    -0.0180 H     1 <1>   0.4450 
 34 H        5.0230     4.9030    -0.7430 H     1 <1>   0.0730 
 35 H        6.6940     4.5710    -0.9370 H     1 <1>   0.0730 
 36 H        7.8130    -0.0430     0.8800 H     1 <1>   0.0730 
 37 H        8.7120     1.3180     1.4570 H     1 <1>   0.0730 
 38 H        8.8040     3.5020    -0.3070 H     1 <1>   0.0730 
 39 H        7.9850     3.2010    -1.8180 H     1 <1>   0.0730 
 40 H        5.1840     4.6800     1.6900 H     1 <1>   0.0730 
 41 H        6.4230     5.7870     1.1380 H     1 <1>   0.0730 
 42 H        9.4360    -0.4850    -0.8580 H     1 <1>   0.0730 
 43 H       10.2670    -0.3380     0.6640 H     1 <1>   0.0730 
 44 H       10.4570     2.9530    -1.9680 H     1 <1>   0.0730 
 45 H        9.5600     1.5590    -2.4940 H     1 <1>   0.0730 
 46 H        7.2300     4.2730     2.6300 H     1 <1>   0.3950 
 47 H       10.9080     1.8690     0.1260 H     1 <1>   0.4450 
 48 H       12.4260     1.5160    -1.6790 H     1 <1>   0.0730 
 49 H       11.5700     0.0350    -2.0570 H     1 <1>   0.0730 
 50 H       12.1440    -1.9620    -0.9040 H     1 <1>   0.1430 
 51 H       13.2570     1.8180     0.7930 H     1 <1>   0.1430 
 52 H       13.3490    -3.1010     0.8890 H     1 <1>   0.1430 
 53 H       14.4500     0.6470     2.5730 H     1 <1>   0.1430 
 54 H       14.4940    -1.8050     2.6310 H     1 <1>   0.1430 
@<TRIPOS>BOND
  1   1   2  2   
  2   2   3  am  
  3   2   4  am  
  4   3   5  1   
  5   3   6  1   
  6   4   7  am  
  7   4  29  1   
  8   5   8  1   
  9   5   9  2   
 10   6  30  1   
 11   6  31  1   
 12   6  32  1   
 13   7   9  1   
 14   7  10  2   
 15   8  11  ar  
 16   8  33  1   
 17   9  12  1   
 18  11  12  ar  
 19  11  13  ar  
 20  12  14  1   
 21  13  15  1   
 22  13  16  1   
 23  14  17  1   
 24  14  34  1   
 25  14  35  1   
 26  15  18  1   
 27  15  36  1   
 28  15  37  1   
 29  16  19  1   
 30  16  38  1   
 31  16  39  1   
 32  17  20  1   
 33  17  40  1   
 34  17  41  1   
 35  18  21  1   
 36  18  42  1   
 37  18  43  1   
 38  19  21  1   
 39  19  44  1   
 40  19  45  1   
 41  20  46  1   
 42  21  22  1   
 43  21  47  1   
 44  22  23  1   
 45  22  48  1   
 46  22  49  1   
 47  23  24  ar  
 48  23  25  ar  
 49  24  26  ar  
 50  24  50  1   
 51  25  27  ar  
 52  25  51  1   
 53  26  28  ar  
 54  26  52  1   
 55  27  28  ar  
 56  27  53  1   
 57  28  54  1   
@<TRIPOS>SUBSTRUCTURE
  1 ****  13 GROUP 4 **** **** 0

# MOE 2024.06 (io_trps.svl 2023.06)
