@<TRIPOS>MOLECULE
1-(4-Ethoxy-phenyl)-5-oxo-pyrrolidine-3-carboxylic acid (3-chloro-2-methyl-pheny
47 49 1 0 0 
SMALL
USER_CHARGES


@<TRIPOS>ATOM
  1 CL      -0.3150     1.3930     1.7430 Cl    1 <1>  -0.1770 
  2 C       -1.2700     1.6680     0.3040 C.ar  1 <1>   0.1770 
  3 C       -1.7680     2.9340     0.0220 C.ar  1 <1>  -0.1440 
  4 C       -1.5060     0.5860    -0.5240 C.ar  1 <1>  -0.1500 
  5 C       -2.5430     3.0970    -1.1280 C.ar  1 <1>   0.1170 
  6 C       -1.4460     4.0930     0.9670 C.3   1 <1>  -0.0970 
  7 C       -2.2580     0.7600    -1.6710 C.ar  1 <1>  -0.1500 
  8 N       -3.1200     4.3230    -1.4730 N.am  1 <1>  -0.5470 
  9 C       -2.7690     2.0100    -1.9660 C.ar  1 <1>  -0.1500 
 10 C       -4.2460     4.9070    -0.9870 C.2   1 <1>   0.5690 
 11 O       -4.6050     5.9610    -1.4420 O.2   1 <1>  -0.5700 
 12 C       -5.0530     4.2240     0.1130 C.3   1 <1>  -0.0190 
 13 C       -5.7590     2.9640    -0.3970 C.3   1 <1>   0.1400 
 14 C       -6.1680     5.0660     0.7590 C.3   1 <1>  -0.0990 
 15 N       -6.9900     2.8710     0.4100 N.am  1 <1>  -0.4770 
 16 C       -7.2340     4.0490     1.0550 C.2   1 <1>   0.5690 
 17 C       -7.8220     1.7380     0.3360 C.ar  1 <1>   0.1170 
 18 O       -8.1660     4.2980     1.7780 O.2   1 <1>  -0.5700 
 19 C       -9.1960     1.8750     0.1720 C.ar  1 <1>  -0.1500 
 20 C       -7.2910     0.4530     0.4100 C.ar  1 <1>  -0.1500 
 21 C      -10.0130     0.7640     0.0690 C.ar  1 <1>  -0.1500 
 22 C       -8.1030    -0.6630     0.3080 C.ar  1 <1>  -0.1500 
 23 C       -9.4760    -0.5110     0.1320 C.ar  1 <1>   0.0830 
 24 O      -10.3470    -1.5480     0.0190 O.3   1 <1>  -0.3630 
 25 C       -9.9080    -2.8800     0.1320 C.3   1 <1>   0.1200 
 26 C      -11.1230    -3.7910    -0.0090 C.3   1 <1>  -0.2400 
 27 H       -1.1000    -0.3770    -0.2710 H     1 <1>   0.1500 
 28 H       -0.3860     4.1330     1.1490 H     1 <1>   0.0800 
 29 H       -1.9470     3.9490     1.9080 H     1 <1>   0.0800 
 30 H       -1.7390     5.0440     0.5650 H     1 <1>   0.0800 
 31 H       -2.4420    -0.0730    -2.3280 H     1 <1>   0.1500 
 32 H       -2.6770     4.8540    -2.2260 H     1 <1>   0.3700 
 33 H       -3.3540     2.1450    -2.8600 H     1 <1>   0.1500 
 34 H       -4.3780     3.9240     0.8940 H     1 <1>   0.0800 
 35 H       -5.1390     2.0950    -0.2690 H     1 <1>   0.0800 
 36 H       -6.0320     3.0680    -1.4340 H     1 <1>   0.0800 
 37 H       -6.5800     5.7910     0.0800 H     1 <1>   0.0800 
 38 H       -5.8380     5.5530     1.6570 H     1 <1>   0.0800 
 39 H       -9.6280     2.8590     0.1260 H     1 <1>   0.1500 
 40 H       -6.2360     0.3210     0.5570 H     1 <1>   0.1500 
 41 H      -11.0740     0.8800    -0.0580 H     1 <1>   0.1500 
 42 H       -7.6530    -1.6350     0.3690 H     1 <1>   0.1500 
 43 H       -9.4480    -3.0070     1.0980 H     1 <1>   0.0800 
 44 H       -9.1950    -3.0730    -0.6510 H     1 <1>   0.0800 
 45 H      -11.8350    -3.5780     0.7680 H     1 <1>   0.0800 
 46 H      -10.8200    -4.8190     0.0740 H     1 <1>   0.0800 
 47 H      -11.5840    -3.6440    -0.9690 H     1 <1>   0.0800 
@<TRIPOS>BOND
  1   1   2  1   
  2   2   3  ar  
  3   2   4  ar  
  4   3   5  ar  
  5   3   6  1   
  6   4   7  ar  
  7   4  27  1   
  8   5   8  1   
  9   5   9  ar  
 10   6  28  1   
 11   6  29  1   
 12   6  30  1   
 13   7   9  ar  
 14   7  31  1   
 15   8  10  am  
 16   8  32  1   
 17   9  33  1   
 18  10  11  2   
 19  10  12  1   
 20  12  13  1   
 21  12  14  1   
 22  12  34  1   
 23  13  15  1   
 24  13  35  1   
 25  13  36  1   
 26  14  16  1   
 27  14  37  1   
 28  14  38  1   
 29  15  16  am  
 30  15  17  1   
 31  16  18  2   
 32  17  19  ar  
 33  17  20  ar  
 34  19  21  ar  
 35  19  39  1   
 36  20  22  ar  
 37  20  40  1   
 38  21  23  ar  
 39  21  41  1   
 40  22  23  ar  
 41  22  42  1   
 42  23  24  1   
 43  24  25  1   
 44  25  26  1   
 45  25  43  1   
 46  25  44  1   
 47  26  45  1   
 48  26  46  1   
 49  26  47  1   
@<TRIPOS>SUBSTRUCTURE
  1 ****  13 GROUP 4 **** **** 0

# MOE 2024.06 (io_trps.svl 2023.06)
