@<TRIPOS>MOLECULE
[8-(3-Chloro-phenyl)-1,6-dimethyl-2,4-dioxo-1,4,5,6,7,8-hexahydro-2H-1,3,4b,8,9-
50 53 1 0 0 
SMALL
USER_CHARGES


@<TRIPOS>ATOM
  1 CL      -4.7770    -3.2420    -2.5840 Cl    1 <1>  -0.1840 
  2 C       -4.3210    -2.0100    -1.4400 C.ar  1 <1>   0.1700 
  3 C       -5.0420    -0.8350    -1.4010 C.ar  1 <1>  -0.1570 
  4 C       -3.2540    -2.2320    -0.5900 C.ar  1 <1>  -0.1570 
  5 C       -4.6990     0.1460    -0.4820 C.ar  1 <1>   0.3050 
  6 C       -2.9010    -1.2500     0.3210 C.ar  1 <1>  -0.1570 
  7 N       -5.4430     1.3270    -0.4010 N.pl3 1 <1>  -0.5800 
  8 C       -3.6220    -0.0690     0.3720 C.ar  1 <1>  -0.1570 
  9 C       -6.7060     1.3670     0.0660 C.cat 1 <1>   1.0690 
 10 C       -4.8430     2.5580    -0.9940 C.3   1 <1>   0.1600 
 11 N       -7.4060     0.3480     0.5600 N.pl3 1 <1>  -0.7040 
 12 N       -7.4420     2.4690     0.0800 N.pl3 1 <1>  -0.7670 
 13 C       -5.4540     3.8350    -0.3840 C.3   1 <1>  -0.0880 
 14 C       -8.6460     0.8120     0.8830 C.2   1 <1>   0.4200 
 15 C       -8.7020     2.1300     0.5900 C.2   1 <1>   0.2700 
 16 C       -6.9930     3.7910    -0.4040 C.3   1 <1>   0.3480 
 17 C       -4.9330     5.0820    -1.1140 C.3   1 <1>  -0.2470 
 18 N       -9.7090     0.1040     1.4110 N.am  1 <1>  -0.4420 
 19 C       -9.9220     2.8400     0.8200 C.2   1 <1>   0.6990 
 20 C      -10.9180     0.7680     1.5680 C.2   1 <1>   0.6860 
 21 C       -9.5920    -1.3510     1.7200 C.3   1 <1>   0.0520 
 22 O      -10.0070     4.0400     0.6240 O.2   1 <1>  -0.5750 
 23 N      -11.0160     2.1200     1.2700 N.am  1 <1>  -0.4260 
 24 O      -11.8960     0.1650     1.9580 O.2   1 <1>  -0.5750 
 25 C      -12.3790     2.6870     0.9900 C.3   1 <1>   0.1940 
 26 C      -12.7680     2.4890    -0.4720 C.2   1 <1>   0.6550 
 27 O      -11.9960     2.0260    -1.2780 O.2   1 <1>  -0.5750 
 28 O      -13.9980     2.8630    -0.8000 O.3   1 <1>  -0.4360 
 29 C      -14.4910     2.7350    -2.1180 C.3   1 <1>   0.0320 
 30 H       -5.8570    -0.6940    -2.0870 H     1 <1>   0.1430 
 31 H       -2.7070    -3.1580    -0.6440 H     1 <1>   0.1430 
 32 H       -2.0670    -1.4100     0.9850 H     1 <1>   0.1430 
 33 H       -3.3440     0.6900     1.0830 H     1 <1>   0.1430 
 34 H       -5.0120     2.5450    -2.0580 H     1 <1>   0.0720 
 35 H       -3.7780     2.5580    -0.8280 H     1 <1>   0.0720 
 36 H       -7.0600    -0.6030     0.6530 H     1 <1>   0.4450 
 37 H       -5.1340     3.9050     0.6420 H     1 <1>   0.0720 
 38 H       -7.3910     4.5710     0.2240 H     1 <1>   0.0720 
 39 H       -7.3590     3.9410    -1.4070 H     1 <1>   0.0720 
 40 H       -5.2180     5.0710    -2.1520 H     1 <1>   0.0720 
 41 H       -3.8590     5.1290    -1.0570 H     1 <1>   0.0720 
 42 H       -5.3280     5.9750    -0.6610 H     1 <1>   0.0720 
 43 H       -9.7520    -1.9250     0.8230 H     1 <1>   0.0720 
 44 H      -10.3310    -1.6420     2.4490 H     1 <1>   0.0720 
 45 H       -8.6210    -1.5740     2.1230 H     1 <1>   0.0720 
 46 H      -12.3930     3.7380     1.2140 H     1 <1>   0.0720 
 47 H      -13.1170     2.2140     1.6130 H     1 <1>   0.0720 
 48 H      -15.5020     3.1010    -2.1410 H     1 <1>   0.0720 
 49 H      -14.4670     1.6970    -2.4000 H     1 <1>   0.0720 
 50 H      -13.8710     3.3150    -2.7800 H     1 <1>   0.0720 
@<TRIPOS>BOND
  1   1   2  1   
  2   2   3  ar  
  3   2   4  ar  
  4   3   5  ar  
  5   3  30  1   
  6   4   6  ar  
  7   4  31  1   
  8   5   7  1   
  9   5   8  ar  
 10   6   8  ar  
 11   6  32  1   
 12   7   9  ar  
 13   7  10  1   
 14   8  33  1   
 15   9  11  ar  
 16   9  12  ar  
 17  10  13  1   
 18  10  34  1   
 19  10  35  1   
 20  11  14  1   
 21  11  36  1   
 22  12  15  1   
 23  12  16  1   
 24  13  16  1   
 25  13  17  1   
 26  13  37  1   
 27  14  15  2   
 28  14  18  1   
 29  15  19  1   
 30  16  38  1   
 31  16  39  1   
 32  17  40  1   
 33  17  41  1   
 34  17  42  1   
 35  18  20  am  
 36  18  21  1   
 37  19  22  2   
 38  19  23  am  
 39  20  23  am  
 40  20  24  2   
 41  21  43  1   
 42  21  44  1   
 43  21  45  1   
 44  23  25  1   
 45  25  26  1   
 46  25  46  1   
 47  25  47  1   
 48  26  27  2   
 49  26  28  1   
 50  28  29  1   
 51  29  48  1   
 52  29  49  1   
 53  29  50  1   
@<TRIPOS>SUBSTRUCTURE
  1 ****  14 GROUP 4 **** **** 0

# MOE 2024.06 (io_trps.svl 2023.06)
