@<TRIPOS>MOLECULE
2-Chloro-1-(2,6-dimethyl-morpholin-4-yl)-ethanone
26 26 1 0 0 
SMALL
USER_CHARGES


@<TRIPOS>ATOM
  1 CL      -0.6270    -1.6520    -1.5650 Cl    1 <1>  -0.2900 
  2 C        0.0830    -1.4530     0.0380 C.3   1 <1>   0.1910 
  3 C        1.3190    -2.3280     0.2150 C.2   1 <1>   0.5690 
  4 O        2.3600    -1.7650     0.4630 O.2   1 <1>  -0.5700 
  5 N        1.2540    -3.6980     0.1340 N.am  1 <1>  -0.6600 
  6 C        0.0130    -4.4760    -0.1690 C.3   1 <1>   0.1400 
  7 C        2.4890    -4.5310     0.2750 C.3   1 <1>   0.1400 
  8 C        0.1260    -5.9310     0.3330 C.3   1 <1>   0.2000 
  9 C        2.3770    -5.8410    -0.5340 C.3   1 <1>   0.2000 
 10 O        1.2440    -6.5950    -0.1910 O.3   1 <1>  -0.5600 
 11 C       -1.0960    -6.7650    -0.0400 C.3   1 <1>  -0.2400 
 12 C        3.5880    -6.7470    -0.3310 C.3   1 <1>  -0.2400 
 13 H       -0.6650    -1.7060     0.7640 H     1 <1>   0.0800 
 14 H        0.3490    -0.4170     0.1420 H     1 <1>   0.0800 
 15 H       -0.1520    -4.4820    -1.2330 H     1 <1>   0.0800 
 16 H       -0.8360    -4.0110     0.3000 H     1 <1>   0.0800 
 17 H        2.6460    -4.7610     1.3140 H     1 <1>   0.0800 
 18 H        3.3420    -3.9760    -0.0750 H     1 <1>   0.0800 
 19 H        0.2350    -5.9220     1.4050 H     1 <1>   0.0800 
 20 H        2.2910    -5.5940    -1.5780 H     1 <1>   0.0800 
 21 H       -1.2020    -6.8120    -1.1090 H     1 <1>   0.0800 
 22 H       -1.9850    -6.3300     0.3780 H     1 <1>   0.0800 
 23 H       -0.9890    -7.7610     0.3490 H     1 <1>   0.0800 
 24 H        3.6730    -7.0300     0.7030 H     1 <1>   0.0800 
 25 H        4.4860    -6.2350    -0.6250 H     1 <1>   0.0800 
 26 H        3.4850    -7.6310    -0.9340 H     1 <1>   0.0800 
@<TRIPOS>BOND
  1   1   2  1   
  2   2   3  1   
  3   2  13  1   
  4   2  14  1   
  5   3   4  2   
  6   3   5  am  
  7   5   6  1   
  8   5   7  1   
  9   6   8  1   
 10   6  15  1   
 11   6  16  1   
 12   7   9  1   
 13   7  17  1   
 14   7  18  1   
 15   8  10  1   
 16   8  11  1   
 17   8  19  1   
 18   9  10  1   
 19   9  12  1   
 20   9  20  1   
 21  11  21  1   
 22  11  22  1   
 23  11  23  1   
 24  12  24  1   
 25  12  25  1   
 26  12  26  1   
@<TRIPOS>SUBSTRUCTURE
  1 ****   5 GROUP 4 **** **** 0

# MOE 2024.06 (io_trps.svl 2023.06)
