@<TRIPOS>MOLECULE
2-(2-Methyl-benzylamino)-4,5,6,7-tetrahydro-cyclopenta[d][1,2,4]triazolo[1,5-a]p
39 42 1 0 0 
SMALL
USER_CHARGES


@<TRIPOS>ATOM
  1 O       -0.5710    -0.9850    -1.5320 O.2   1 <1>  -0.5700 
  2 C        0.1140    -1.8550    -1.0080 C.2   1 <1>   0.5650 
  3 N       -0.2890    -3.2120    -0.9310 N.pl3 1 <1>   0.5610 
  4 C        1.3830    -1.5530    -0.4240 C.2   1 <1>  -0.1240 
  5 N       -1.4040    -3.8620    -1.3530 N.2   1 <1>  -0.7070 
  6 C        0.5010    -4.1390    -0.3190 C.2   1 <1>   0.2700 
  7 C        2.1420    -2.4930     0.1670 C.2   1 <1>  -0.0380 
  8 C        2.0500    -0.1990    -0.3840 C.3   1 <1>  -0.0220 
  9 C       -1.1670    -5.0640    -0.9790 C.2   1 <1>   0.5990 
 10 N       -0.0230    -5.3070    -0.3260 N.2   1 <1>  -0.5650 
 11 N        1.7280    -3.7990     0.2380 N.pl3 1 <1>  -0.5840 
 12 C        3.4400    -1.9590     0.7090 C.3   1 <1>  -0.0220 
 13 C        3.3220    -0.4400     0.4580 C.3   1 <1>  -0.1600 
 14 N       -2.0670    -6.0520    -1.2380 N.pl3 1 <1>  -0.8520 
 15 C       -2.4710    -6.8570    -0.0750 C.3   1 <1>   0.3530 
 16 C       -3.9910    -6.9540    -0.0670 C.ar  1 <1>  -0.1440 
 17 C       -4.7960    -5.9710     0.5040 C.ar  1 <1>  -0.1440 
 18 C       -4.5820    -8.0620    -0.6570 C.ar  1 <1>  -0.1500 
 19 C       -6.1750    -6.1220     0.4820 C.ar  1 <1>  -0.1500 
 20 C       -4.2070    -4.7230     1.1500 C.3   1 <1>  -0.0970 
 21 C       -5.9570    -8.2050    -0.6750 C.ar  1 <1>  -0.1500 
 22 C       -6.7550    -7.2330    -0.1030 C.ar  1 <1>  -0.1500 
 23 H        1.4080     0.5320     0.0760 H     1 <1>   0.0800 
 24 H        2.2990     0.1180    -1.3820 H     1 <1>   0.0800 
 25 H        2.2800    -4.5500     0.6680 H     1 <1>   0.4000 
 26 H        4.2680    -2.3790     0.1660 H     1 <1>   0.0800 
 27 H        3.5390    -2.1750     1.7580 H     1 <1>   0.0800 
 28 H        3.2280     0.0710     1.4010 H     1 <1>   0.0800 
 29 H        4.1940    -0.0670    -0.0500 H     1 <1>   0.0800 
 30 H       -2.9020    -5.6030    -1.6200 H     1 <1>   0.4000 
 31 H       -2.1190    -6.4190     0.8430 H     1 <1>   0.0800 
 32 H       -2.0340    -7.8360    -0.1610 H     1 <1>   0.0800 
 33 H       -3.9700    -8.8220    -1.1120 H     1 <1>   0.1500 
 34 H       -6.8090    -5.3710     0.9190 H     1 <1>   0.1500 
 35 H       -4.9830    -4.0810     1.5250 H     1 <1>   0.0800 
 36 H       -3.5700    -4.9940     1.9720 H     1 <1>   0.0800 
 37 H       -3.6360    -4.1680     0.4280 H     1 <1>   0.0800 
 38 H       -6.4050    -9.0690    -1.1340 H     1 <1>   0.1500 
 39 H       -7.8260    -7.3390    -0.1140 H     1 <1>   0.1500 
@<TRIPOS>BOND
  1   1   2  2   
  2   2   3  1   
  3   2   4  1   
  4   3   5  1   
  5   3   6  1   
  6   4   7  2   
  7   4   8  1   
  8   5   9  2   
  9   6  10  2   
 10   6  11  1   
 11   7  11  1   
 12   7  12  1   
 13   8  13  1   
 14   8  23  1   
 15   8  24  1   
 16   9  10  1   
 17   9  14  1   
 18  11  25  1   
 19  12  13  1   
 20  12  26  1   
 21  12  27  1   
 22  13  28  1   
 23  13  29  1   
 24  14  15  1   
 25  14  30  1   
 26  15  16  1   
 27  15  31  1   
 28  15  32  1   
 29  16  17  ar  
 30  16  18  ar  
 31  17  19  ar  
 32  17  20  1   
 33  18  21  ar  
 34  18  33  1   
 35  19  22  ar  
 36  19  34  1   
 37  20  35  1   
 38  20  36  1   
 39  20  37  1   
 40  21  22  ar  
 41  21  38  1   
 42  22  39  1   
@<TRIPOS>SUBSTRUCTURE
  1 ****   9 GROUP 4 **** **** 0

# MOE 2024.06 (io_trps.svl 2023.06)
