@<TRIPOS>MOLECULE
Cyclopentyl-(2-thiophen-2-yl-imidazo[1,2-a]pyrazin-3-yl)-amine
37 40 1 0 0 
SMALL
USER_CHARGES


@<TRIPOS>ATOM
  1 S       -0.8740    -0.7760    -1.0100 S.3   1 <1>  -0.0800 
  2 C       -1.3940     0.7550    -0.2960 C.2   1 <1>   0.0280 
  3 C        0.8220    -0.3860    -0.8030 C.2   1 <1>  -0.1100 
  4 C       -2.7980     1.0330    -0.1920 C.2   1 <1>   0.3620 
  5 C       -0.2870     1.4640     0.0510 C.2   1 <1>  -0.1500 
  6 C        0.9540     0.8240    -0.2320 C.2   1 <1>  -0.1500 
  7 N       -3.2760     2.2920     0.1180 N.pl3 1 <1>  -0.7000 
  8 C       -3.9070     0.2320    -0.3520 C.2   1 <1>   0.4460 
  9 C       -4.6230     2.2600     0.1140 C.cat 1 <1>   0.7510 
 10 N       -5.0190     0.9990    -0.1750 N.pl3 1 <1>  -0.6290 
 11 N       -4.0690    -1.1100    -0.6490 N.pl3 1 <1>  -0.8650 
 12 C       -5.6110     3.2660     0.3330 C.2   1 <1>   0.4390 
 13 C       -6.3740     0.7630    -0.3080 C.2   1 <1>   0.2290 
 14 C       -4.5780    -2.0150     0.4010 C.3   1 <1>   0.2890 
 15 N       -6.8950     3.0580     0.2450 N.2   1 <1>  -0.6210 
 16 C       -7.2570     1.7830    -0.0920 C.2   1 <1>   0.0210 
 17 C       -3.3990    -2.6280     1.1480 C.3   1 <1>  -0.1600 
 18 C       -5.2240    -3.2140    -0.2770 C.3   1 <1>  -0.1600 
 19 C       -2.9150    -3.8040     0.2910 C.3   1 <1>  -0.1600 
 20 C       -4.0670    -4.1420    -0.6640 C.3   1 <1>  -0.1600 
 21 H        1.5480    -1.1100    -1.1340 H     1 <1>   0.1500 
 22 H       -0.2880     2.4370     0.5110 H     1 <1>   0.1500 
 23 H        1.8940     1.2960     0.0030 H     1 <1>   0.1500 
 24 H       -2.6820     3.1080     0.2800 H     1 <1>   0.4500 
 25 H       -3.2420    -1.5530    -1.0710 H     1 <1>   0.4000 
 26 H       -5.2670     4.2530     0.5820 H     1 <1>   0.0600 
 27 H       -6.6900    -0.2300    -0.5860 H     1 <1>   0.1500 
 28 H       -5.2590    -1.5040     1.0620 H     1 <1>   0.0800 
 29 H       -8.3180     1.6090    -0.1890 H     1 <1>   0.1500 
 30 H       -3.7610    -3.0170     2.0850 H     1 <1>   0.0800 
 31 H       -2.6190    -1.9180     1.3580 H     1 <1>   0.0800 
 32 H       -5.8260    -2.9330    -1.1230 H     1 <1>   0.0800 
 33 H       -5.8480    -3.7190     0.4390 H     1 <1>   0.0800 
 34 H       -2.6670    -4.6480     0.9120 H     1 <1>   0.0800 
 35 H       -2.0410    -3.5280    -0.2740 H     1 <1>   0.0800 
 36 H       -3.7650    -3.9430    -1.6790 H     1 <1>   0.0800 
 37 H       -4.3560    -5.1760    -0.5870 H     1 <1>   0.0800 
@<TRIPOS>BOND
  1   1   2  1   
  2   1   3  1   
  3   2   4  1   
  4   2   5  2   
  5   3   6  2   
  6   3  21  1   
  7   4   7  1   
  8   4   8  2   
  9   5   6  1   
 10   5  22  1   
 11   6  23  1   
 12   7   9  ar  
 13   7  24  1   
 14   8  10  1   
 15   8  11  1   
 16   9  10  ar  
 17   9  12  1   
 18  10  13  1   
 19  11  14  1   
 20  11  25  1   
 21  12  15  2   
 22  12  26  1   
 23  13  16  2   
 24  13  27  1   
 25  14  17  1   
 26  14  18  1   
 27  14  28  1   
 28  15  16  1   
 29  16  29  1   
 30  17  19  1   
 31  17  30  1   
 32  17  31  1   
 33  18  20  1   
 34  18  32  1   
 35  18  33  1   
 36  19  20  1   
 37  19  34  1   
 38  19  35  1   
 39  20  36  1   
 40  20  37  1   
@<TRIPOS>SUBSTRUCTURE
  1 ****   8 GROUP 4 **** **** 0

# MOE 2024.06 (io_trps.svl 2023.06)
