@<TRIPOS>MOLECULE
8-(2-Methoxy-phenyl)-1,6-dimethyl-3-(2-oxo-propyl)-5,6,7,8-tetrahydro-1H-1,3,4b,
53 56 1 0 0 
SMALL
USER_CHARGES


@<TRIPOS>ATOM
  1 O        1.0260    -0.0430    -0.0180 O.2   1 <1>  -0.5740 
  2 C        1.9440     0.7160    -0.2570 C.2   1 <1>   0.6860 
  3 N        1.6870     2.0660    -0.4510 N.am  1 <1>  -0.4250 
  4 N        3.2440     0.2350    -0.3300 N.am  1 <1>  -0.4410 
  5 C        2.7050     2.9580    -0.7440 C.2   1 <1>   0.7000 
  6 C        0.4230     2.6300     0.1210 C.3   1 <1>   0.1940 
  7 C        4.2600     1.1490    -0.5340 C.2   1 <1>   0.4210 
  8 C        3.5420    -1.2090    -0.1070 C.3   1 <1>   0.0530 
  9 O        2.4530     4.1240    -1.0020 O.2   1 <1>  -0.5740 
 10 C        4.0480     2.4660    -0.7390 C.2   1 <1>   0.2710 
 11 C        0.6160     2.9900     1.5940 C.2   1 <1>   0.4430 
 12 N        5.6010     0.9190    -0.5510 N.pl3 1 <1>  -0.7030 
 13 N        5.3150     3.0470    -0.8850 N.pl3 1 <1>  -0.7670 
 14 O        1.6920     2.9560     2.1180 O.2   1 <1>  -0.5740 
 15 C       -0.6190     3.3990     2.3660 C.3   1 <1>  -0.1860 
 16 C        6.2160     2.0820    -0.7450 C.cat 1 <1>   1.0690 
 17 C        5.6270     4.4800    -1.0580 C.3   1 <1>   0.3480 
 18 N        7.5450     2.3010    -0.7990 N.pl3 1 <1>  -0.5800 
 19 C        7.0690     4.6280    -1.5750 C.3   1 <1>  -0.0870 
 20 C        8.5080     1.2730    -0.7170 C.ar  1 <1>   0.3050 
 21 C        8.0370     3.7080    -0.8060 C.3   1 <1>   0.1610 
 22 C        7.5340     6.0900    -1.4910 C.3   1 <1>  -0.2460 
 23 C        8.5850     0.4090     0.3860 C.ar  1 <1>   0.0750 
 24 C        9.4050     1.1050    -1.7650 C.ar  1 <1>  -0.1570 
 25 O        7.6880     0.5760     1.4010 O.3   1 <1>  -0.3680 
 26 C        9.5520    -0.5910     0.4180 C.ar  1 <1>  -0.1570 
 27 C       10.3630     0.1080    -1.7270 C.ar  1 <1>  -0.1570 
 28 C        7.9350     0.0410     2.6870 C.3   1 <1>   0.0320 
 29 C       10.4360    -0.7370    -0.6370 C.ar  1 <1>  -0.1570 
 30 H       -0.3750     1.9150     0.0300 H     1 <1>   0.0730 
 31 H        0.1350     3.5100    -0.4240 H     1 <1>   0.0730 
 32 H        2.6800    -1.8120    -0.3390 H     1 <1>   0.0730 
 33 H        3.8050    -1.3690     0.9240 H     1 <1>   0.0730 
 34 H        4.3520    -1.5270    -0.7390 H     1 <1>   0.0730 
 35 H        6.1070     0.0760    -0.2880 H     1 <1>   0.4450 
 36 H       -1.0650     4.2670     1.9160 H     1 <1>   0.0730 
 37 H       -0.3510     3.6350     3.3800 H     1 <1>   0.0730 
 38 H       -1.3310     2.5950     2.3750 H     1 <1>   0.0730 
 39 H        5.5180     4.9780    -0.1080 H     1 <1>   0.0730 
 40 H        4.9380     4.9270    -1.7560 H     1 <1>   0.0730 
 41 H        7.0860     4.3430    -2.6130 H     1 <1>   0.0730 
 42 H        9.0130     3.7560    -1.2600 H     1 <1>   0.0730 
 43 H        8.1300     4.0440     0.2140 H     1 <1>   0.0730 
 44 H        7.5450     6.4350    -0.4710 H     1 <1>   0.0730 
 45 H        6.8770     6.7270    -2.0590 H     1 <1>   0.0730 
 46 H        8.5270     6.1920    -1.8950 H     1 <1>   0.0730 
 47 H        9.3560     1.7530    -2.6210 H     1 <1>   0.1430 
 48 H        9.6370    -1.2700     1.2470 H     1 <1>   0.1430 
 49 H       11.0540    -0.0110    -2.5460 H     1 <1>   0.1430 
 50 H        7.1900     0.4240     3.3610 H     1 <1>   0.0730 
 51 H        8.9130     0.3500     3.0140 H     1 <1>   0.0730 
 52 H        7.8670    -1.0310     2.6440 H     1 <1>   0.0730 
 53 H       11.1840    -1.5130    -0.6090 H     1 <1>   0.1430 
@<TRIPOS>BOND
  1   1   2  2   
  2   2   3  am  
  3   2   4  am  
  4   3   5  am  
  5   3   6  1   
  6   4   7  1   
  7   4   8  1   
  8   5   9  2   
  9   5  10  1   
 10   6  11  1   
 11   6  30  1   
 12   6  31  1   
 13   7  10  2   
 14   7  12  1   
 15   8  32  1   
 16   8  33  1   
 17   8  34  1   
 18  10  13  1   
 19  11  14  2   
 20  11  15  1   
 21  12  16  ar  
 22  12  35  1   
 23  13  16  ar  
 24  13  17  1   
 25  15  36  1   
 26  15  37  1   
 27  15  38  1   
 28  16  18  ar  
 29  17  19  1   
 30  17  39  1   
 31  17  40  1   
 32  18  20  1   
 33  18  21  1   
 34  19  21  1   
 35  19  22  1   
 36  19  41  1   
 37  20  23  ar  
 38  20  24  ar  
 39  21  42  1   
 40  21  43  1   
 41  22  44  1   
 42  22  45  1   
 43  22  46  1   
 44  23  25  1   
 45  23  26  ar  
 46  24  27  ar  
 47  24  47  1   
 48  25  28  1   
 49  26  29  ar  
 50  26  48  1   
 51  27  29  ar  
 52  27  49  1   
 53  28  50  1   
 54  28  51  1   
 55  28  52  1   
 56  29  53  1   
@<TRIPOS>SUBSTRUCTURE
  1 ****  12 GROUP 4 **** **** 0

# MOE 2024.06 (io_trps.svl 2023.06)
