@<TRIPOS>MOLECULE
NONAME
56 58 1 0 0 
SMALL
USER_CHARGES


@<TRIPOS>ATOM
  1 O        2.7480    -2.5920    -2.5330 O.2   1 <1>  -0.5700 
  2 C        3.4590    -1.6340    -2.3460 C.2   1 <1>   0.5690 
  3 N        3.9980    -0.8830    -3.3420 N.am  1 <1>  -0.5390 
  4 C        3.9180    -1.0770    -0.9870 C.3   1 <1>   0.4810 
  5 C        4.8380     0.0720    -2.8300 C.2   1 <1>  -0.0290 
  6 C        4.5710    -2.1690    -0.1190 C.2   1 <1>  -0.1240 
  7 C        2.7240    -0.3970    -0.3040 C.ar  1 <1>  -0.1440 
  8 C        4.8760     0.0250    -1.4750 C.2   1 <1>  -0.1240 
  9 C        5.5630     0.9790    -3.8060 C.3   1 <1>  -0.1020 
 10 C        4.0360    -2.4350     1.1120 C.2   1 <1>   0.1770 
 11 C        5.7010    -2.8540    -0.6560 C.2   1 <1>   0.7060 
 12 C        2.3320    -0.8020     0.9630 C.ar  1 <1>   0.0830 
 13 C        2.0160     0.6310    -0.9200 C.ar  1 <1>  -0.1500 
 14 C        5.6030     0.7950    -0.5160 C.2   1 <1>   0.7060 
 15 O        2.9780    -1.7920     1.6120 O.3   1 <1>  -0.1590 
 16 N        4.5080    -3.3730     1.9790 N.pl3 1 <1>  -0.9000 
 17 O        6.2900    -3.7590    -0.0810 O.2   1 <1>  -0.5700 
 18 O        6.1730    -2.4960    -1.8570 O.3   1 <1>  -0.4300 
 19 C        1.2630    -0.1980     1.6050 C.ar  1 <1>  -0.1500 
 20 C        0.9480     1.2370    -0.2800 C.ar  1 <1>  -0.1500 
 21 O        6.3500     1.6990    -0.8270 O.2   1 <1>  -0.5700 
 22 O        5.4380     0.4810     0.7710 O.3   1 <1>  -0.4300 
 23 C        7.2530    -3.1400    -2.4920 C.3   1 <1>   0.2000 
 24 C        0.5700     0.8230     0.9840 C.ar  1 <1>  -0.1500 
 25 C        6.0210     1.0770     1.9070 C.3   1 <1>   0.2800 
 26 C        7.8580    -2.1380    -3.4700 C.3   1 <1>  -0.2400 
 27 C        6.7160    -4.3730    -3.2200 C.3   1 <1>  -0.2400 
 28 C        5.5940     2.5450     2.0060 C.3   1 <1>  -0.2400 
 29 C        5.4520     0.3020     3.0960 C.3   1 <1>  -0.2400 
 30 C        7.5430     0.9040     1.8680 C.3   1 <1>  -0.2400 
 31 H        3.8280    -1.1100    -4.3240 H     1 <1>   0.3700 
 32 H        4.8510     1.5530    -4.3710 H     1 <1>   0.0800 
 33 H        6.1530     0.3930    -4.4870 H     1 <1>   0.0800 
 34 H        6.2180     1.6620    -3.2980 H     1 <1>   0.0800 
 35 H        2.2850     0.9750    -1.9040 H     1 <1>   0.1500 
 36 H        5.3040    -3.9750     1.7140 H     1 <1>   0.4000 
 37 H        4.0540    -3.5900     2.8690 H     1 <1>   0.4000 
 38 H        0.9790    -0.5310     2.5880 H     1 <1>   0.1500 
 39 H        0.4090     2.0310    -0.7680 H     1 <1>   0.1500 
 40 H        7.9880    -3.4150    -1.7530 H     1 <1>   0.0800 
 41 H       -0.2610     1.2940     1.4810 H     1 <1>   0.1500 
 42 H        7.1380    -1.8620    -4.2170 H     1 <1>   0.0800 
 43 H        8.7110    -2.5730    -3.9590 H     1 <1>   0.0800 
 44 H        8.1820    -1.2590    -2.9410 H     1 <1>   0.0800 
 45 H        5.9510    -4.0940    -3.9210 H     1 <1>   0.0800 
 46 H        6.3120    -5.0740    -2.5120 H     1 <1>   0.0800 
 47 H        7.5130    -4.8590    -3.7530 H     1 <1>   0.0800 
 48 H        4.5230     2.6270     1.9570 H     1 <1>   0.0800 
 49 H        6.0320     3.1310     1.2190 H     1 <1>   0.0800 
 50 H        5.9250     2.9600     2.9410 H     1 <1>   0.0800 
 51 H        5.7180    -0.7370     3.0250 H     1 <1>   0.0800 
 52 H        4.3810     0.3870     3.1180 H     1 <1>   0.0800 
 53 H        5.8430     0.6910     4.0180 H     1 <1>   0.0800 
 54 H        7.7980    -0.1310     1.7280 H     1 <1>   0.0800 
 55 H        7.9720     1.2380     2.7940 H     1 <1>   0.0800 
 56 H        7.9800     1.4880     1.0790 H     1 <1>   0.0800 
@<TRIPOS>BOND
  1   1   2  2   
  2   2   3  am  
  3   2   4  1   
  4   3   5  1   
  5   3  31  1   
  6   4   6  1   
  7   4   7  1   
  8   4   8  1   
  9   5   8  2   
 10   5   9  1   
 11   6  10  2   
 12   6  11  1   
 13   7  12  ar  
 14   7  13  ar  
 15   8  14  1   
 16   9  32  1   
 17   9  33  1   
 18   9  34  1   
 19  10  15  1   
 20  10  16  1   
 21  11  17  2   
 22  11  18  1   
 23  12  15  1   
 24  12  19  ar  
 25  13  20  ar  
 26  13  35  1   
 27  14  21  2   
 28  14  22  1   
 29  16  36  1   
 30  16  37  1   
 31  18  23  1   
 32  19  24  ar  
 33  19  38  1   
 34  20  24  ar  
 35  20  39  1   
 36  22  25  1   
 37  23  26  1   
 38  23  27  1   
 39  23  40  1   
 40  24  41  1   
 41  25  28  1   
 42  25  29  1   
 43  25  30  1   
 44  26  42  1   
 45  26  43  1   
 46  26  44  1   
 47  27  45  1   
 48  27  46  1   
 49  27  47  1   
 50  28  48  1   
 51  28  49  1   
 52  28  50  1   
 53  29  51  1   
 54  29  52  1   
 55  29  53  1   
 56  30  54  1   
 57  30  55  1   
 58  30  56  1   
@<TRIPOS>SUBSTRUCTURE
  1 ****   4 GROUP 4 **** **** 0

# MOE 2024.06 (io_trps.svl 2023.06)
