@<TRIPOS>MOLECULE
1,3-Dimethyl-8-(phenethylamino-methyl)-3,7-dihydro-purine-2,6-dione
43 45 1 0 0 
SMALL
USER_CHARGES


@<TRIPOS>ATOM
  1 O        0.8680     1.8140    -0.6010 O.2   1 <1>  -0.5700 
  2 C        2.0420     1.6430    -0.3240 C.2   1 <1>   0.6900 
  3 N        2.6520     2.4430     0.6360 N.am  1 <1>  -0.4200 
  4 N        2.7680     0.6400    -0.9660 N.am  1 <1>  -0.4240 
  5 C        3.9710     2.2220     1.0210 C.2   1 <1>   0.7160 
  6 C        1.8610     3.5240     1.2970 C.3   1 <1>   0.0600 
  7 C        4.0940     0.4140    -0.5900 C.2   1 <1>  -0.0880 
  8 C        2.1150    -0.2000    -2.0090 C.3   1 <1>   0.0600 
  9 O        4.4750     2.9160     1.8920 O.2   1 <1>  -0.5700 
 10 C        4.7000     1.1650     0.3700 C.2   1 <1>   0.1410 
 11 N        4.9850    -0.4920    -1.0230 N.pl3 1 <1>   0.0330 
 12 N        5.9860     0.7260     0.5400 N.2   1 <1>  -0.5650 
 13 C        6.1160    -0.2500    -0.2990 C.2   1 <1>   0.0060 
 14 C        7.4100    -1.0420    -0.4410 C.3   1 <1>   0.5230 
 15 N        8.4540    -0.2590     0.2550 N.4   1 <1>  -0.9060 
 16 C        9.5370    -1.0210     0.9240 C.3   1 <1>   0.3430 
 17 C       10.6400    -0.0530     1.3620 C.3   1 <1>  -0.0170 
 18 C       11.0030     0.8730     0.2110 C.ar  1 <1>  -0.1430 
 19 C       11.7730     0.4060    -0.8440 C.ar  1 <1>  -0.1500 
 20 C       10.5430     2.1820     0.1930 C.ar  1 <1>  -0.1500 
 21 C       12.0640     1.2340    -1.9140 C.ar  1 <1>  -0.1500 
 22 C       10.8350     3.0090    -0.8780 C.ar  1 <1>  -0.1500 
 23 C       11.5920     2.5340    -1.9330 C.ar  1 <1>  -0.1500 
 24 H        1.1360     3.9300     0.6130 H     1 <1>   0.0800 
 25 H        2.5040     4.3250     1.6180 H     1 <1>   0.0800 
 26 H        1.3480     3.1210     2.1520 H     1 <1>   0.0800 
 27 H        1.3510     0.3650    -2.5170 H     1 <1>   0.0800 
 28 H        1.6590    -1.0570    -1.5450 H     1 <1>   0.0800 
 29 H        2.8340    -0.5220    -2.7380 H     1 <1>   0.0800 
 30 H        4.8160    -1.2030    -1.7420 H     1 <1>   0.2700 
 31 H        7.6700    -1.1770    -1.4780 H     1 <1>   0.0800 
 32 H        7.2890    -2.0040     0.0290 H     1 <1>   0.0800 
 33 H        7.9190     0.3220     0.9280 H     1 <1>   0.4500 
 34 H        8.8720     0.4310    -0.3870 H     1 <1>   0.4500 
 35 H        9.9590    -1.7300     0.2300 H     1 <1>   0.0800 
 36 H        9.1530    -1.5590     1.7770 H     1 <1>   0.0800 
 37 H       11.5080    -0.6100     1.6690 H     1 <1>   0.0800 
 38 H       10.3080     0.5170     2.2130 H     1 <1>   0.0800 
 39 H       12.1580    -0.5990    -0.8450 H     1 <1>   0.1500 
 40 H        9.9600     2.5770     1.0090 H     1 <1>   0.1500 
 41 H       12.6650     0.8720    -2.7320 H     1 <1>   0.1500 
 42 H       10.4780     4.0260    -0.8890 H     1 <1>   0.1500 
 43 H       11.8230     3.1790    -2.7640 H     1 <1>   0.1500 
@<TRIPOS>BOND
  1   1   2  2   
  2   2   3  am  
  3   2   4  am  
  4   3   5  am  
  5   3   6  1   
  6   4   7  1   
  7   4   8  1   
  8   5   9  2   
  9   5  10  1   
 10   6  24  1   
 11   6  25  1   
 12   6  26  1   
 13   7  10  2   
 14   7  11  1   
 15   8  27  1   
 16   8  28  1   
 17   8  29  1   
 18  10  12  1   
 19  11  13  1   
 20  11  30  1   
 21  12  13  2   
 22  13  14  1   
 23  14  15  1   
 24  14  31  1   
 25  14  32  1   
 26  15  16  1   
 27  15  33  1   
 28  15  34  1   
 29  16  17  1   
 30  16  35  1   
 31  16  36  1   
 32  17  18  1   
 33  17  37  1   
 34  17  38  1   
 35  18  19  ar  
 36  18  20  ar  
 37  19  21  ar  
 38  19  39  1   
 39  20  22  ar  
 40  20  40  1   
 41  21  23  ar  
 42  21  41  1   
 43  22  23  ar  
 44  22  42  1   
 45  23  43  1   
@<TRIPOS>SUBSTRUCTURE
  1 ****  12 GROUP 4 **** **** 0

# MOE 2024.06 (io_trps.svl 2023.06)
