@<TRIPOS>MOLECULE
3-(Piperidin-4-yloxy)-pyridine
28 29 1 0 0 
SMALL
USER_CHARGES


@<TRIPOS>ATOM
  1 O       -0.0220    -0.7410    -1.1400 O.3   1 <1>  -0.3630 
  2 C        1.2400    -1.0380    -0.7310 C.ar  1 <1>   0.0820 
  3 C       -1.1020    -0.5750    -0.2540 C.3   1 <1>   0.2000 
  4 C        2.1380    -1.4900    -1.6920 C.ar  1 <1>   0.1600 
  5 C        1.6810    -0.9160     0.5790 C.ar  1 <1>  -0.1500 
  6 C       -1.5280    -1.9540     0.2680 C.3   1 <1>  -0.1600 
  7 C       -2.2290     0.0840    -1.0530 C.3   1 <1>  -0.1600 
  8 N        3.3960    -1.8350    -1.4620 N.ar  1 <1>  -0.6200 
  9 C        2.9900    -1.2690     0.8320 C.ar  1 <1>  -0.1500 
 10 C       -2.8410    -1.8760     1.0430 C.3   1 <1>   0.3430 
 11 C       -3.5260     0.1320    -0.2510 C.3   1 <1>   0.3430 
 12 C        3.7920    -1.7150    -0.2060 C.ar  1 <1>   0.1600 
 13 N       -3.8860    -1.2430     0.1930 N.4   1 <1>  -0.9060 
 14 H       -0.8020     0.0790     0.5460 H     1 <1>   0.0800 
 15 H        1.7890    -1.5720    -2.7060 H     1 <1>   0.1500 
 16 H        1.0620    -0.5630     1.3800 H     1 <1>   0.1500 
 17 H       -0.7670    -2.3470     0.9180 H     1 <1>   0.0800 
 18 H       -1.6420    -2.6370    -0.5560 H     1 <1>   0.0800 
 19 H       -2.3960    -0.4570    -1.9680 H     1 <1>   0.0800 
 20 H       -1.9380     1.0870    -1.3090 H     1 <1>   0.0800 
 21 H        3.3960    -1.1970     1.8250 H     1 <1>   0.1500 
 22 H       -2.6960    -1.2920     1.9390 H     1 <1>   0.0800 
 23 H       -3.1490    -2.8690     1.3330 H     1 <1>   0.0800 
 24 H       -4.3140     0.5430    -0.8620 H     1 <1>   0.0800 
 25 H       -3.3970     0.7720     0.6080 H     1 <1>   0.0800 
 26 H        4.8130    -1.9870     0.0080 H     1 <1>   0.1500 
 27 H       -4.7800    -1.2200     0.7020 H     1 <1>   0.4500 
 28 H       -4.0380    -1.8300    -0.6380 H     1 <1>   0.4500 
@<TRIPOS>BOND
  1   1   2  1   
  2   1   3  1   
  3   2   4  ar  
  4   2   5  ar  
  5   3   6  1   
  6   3   7  1   
  7   3  14  1   
  8   4   8  ar  
  9   4  15  1   
 10   5   9  ar  
 11   5  16  1   
 12   6  10  1   
 13   6  17  1   
 14   6  18  1   
 15   7  11  1   
 16   7  19  1   
 17   7  20  1   
 18   8  12  ar  
 19   9  12  ar  
 20   9  21  1   
 21  10  13  1   
 22  10  22  1   
 23  10  23  1   
 24  11  13  1   
 25  11  24  1   
 26  11  25  1   
 27  12  26  1   
 28  13  27  1   
 29  13  28  1   
@<TRIPOS>SUBSTRUCTURE
  1 ****   1 GROUP 4 **** **** 0

# MOE 2024.06 (io_trps.svl 2023.06)
