@<TRIPOS>MOLECULE
2-Benzenesulfonyl-N-[5-(2-ethoxy-ethyl)-[1,3,4]thiadiazol-2-yl]-acetamide
40 41 1 0 0 
SMALL
USER_CHARGES


@<TRIPOS>ATOM
  1 S        0.6530    -0.8870    -1.0650 S.o2  1 <1>   1.2040 
  2 O        1.6540    -0.3800    -1.9830 O.2   1 <1>  -0.6500 
  3 O        0.0240    -2.1570    -1.3500 O.2   1 <1>  -0.6500 
  4 C       -0.6130     0.3690    -0.7600 C.ar  1 <1>  -0.0090 
  5 C        1.4600    -1.0570     0.5050 C.3   1 <1>   0.0060 
  6 C       -1.8820     0.0090    -0.3190 C.ar  1 <1>  -0.1500 
  7 C       -0.3450     1.7240    -0.9280 C.ar  1 <1>  -0.1500 
  8 C        2.0450     0.2610     0.9150 C.2   1 <1>   0.5690 
  9 C       -2.8470     0.9630    -0.0500 C.ar  1 <1>  -0.1500 
 10 C       -1.3040     2.6840    -0.6600 C.ar  1 <1>  -0.1500 
 11 O        1.6580     0.7280     1.9520 O.2   1 <1>  -0.5700 
 12 N        2.9760     0.8630     0.1140 N.am  1 <1>  -0.4940 
 13 C       -2.5570     2.3040    -0.2190 C.ar  1 <1>  -0.1500 
 14 C        3.6560     2.0470     0.3020 C.2   1 <1>   0.4420 
 15 S        4.6460     2.5890    -1.0130 S.3   1 <1>  -0.0800 
 16 N        3.6900     2.8520     1.2990 N.2   1 <1>  -0.3380 
 17 C        5.0550     3.9630    -0.0440 C.2   1 <1>   0.1980 
 18 N        4.4890     3.9430     1.0950 N.2   1 <1>  -0.3380 
 19 C        5.9980     4.9880    -0.6400 C.3   1 <1>   0.0200 
 20 C        6.2250     6.1580     0.3150 C.3   1 <1>   0.1200 
 21 O        7.0860     7.0580    -0.3030 O.3   1 <1>  -0.5600 
 22 C        7.3780     8.1740     0.4680 C.3   1 <1>   0.1200 
 23 C        8.3230     9.0550    -0.3390 C.3   1 <1>  -0.2400 
 24 H        2.2420    -1.7860     0.4450 H     1 <1>   0.0800 
 25 H        0.7560    -1.3750     1.2490 H     1 <1>   0.0800 
 26 H       -2.1240    -1.0330    -0.1860 H     1 <1>   0.1500 
 27 H        0.6250     2.0410    -1.2730 H     1 <1>   0.1500 
 28 H       -3.8240     0.6640     0.2900 H     1 <1>   0.1500 
 29 H       -1.0740     3.7280    -0.7910 H     1 <1>   0.1500 
 30 H        3.1090     0.4450    -0.8140 H     1 <1>   0.3700 
 31 H       -3.3050     3.0500    -0.0090 H     1 <1>   0.1500 
 32 H        5.5770     5.3590    -1.5570 H     1 <1>   0.0800 
 33 H        6.9400     4.5170    -0.8510 H     1 <1>   0.0800 
 34 H        6.6760     5.8140     1.2310 H     1 <1>   0.0800 
 35 H        5.2940     6.6560     0.5290 H     1 <1>   0.0800 
 36 H        7.8470     7.8530     1.3840 H     1 <1>   0.0800 
 37 H        6.4620     8.6980     0.6860 H     1 <1>   0.0800 
 38 H        9.2270     8.5180    -0.5620 H     1 <1>   0.0800 
 39 H        8.5750     9.9330     0.2260 H     1 <1>   0.0800 
 40 H        7.8510     9.3580    -1.2560 H     1 <1>   0.0800 
@<TRIPOS>BOND
  1   1   2  2   
  2   1   3  2   
  3   1   4  1   
  4   1   5  1   
  5   4   6  ar  
  6   4   7  ar  
  7   5   8  1   
  8   5  24  1   
  9   5  25  1   
 10   6   9  ar  
 11   6  26  1   
 12   7  10  ar  
 13   7  27  1   
 14   8  11  2   
 15   8  12  am  
 16   9  13  ar  
 17   9  28  1   
 18  10  13  ar  
 19  10  29  1   
 20  12  14  1   
 21  12  30  1   
 22  13  31  1   
 23  14  15  1   
 24  14  16  2   
 25  15  17  1   
 26  16  18  1   
 27  17  18  2   
 28  17  19  1   
 29  19  20  1   
 30  19  32  1   
 31  19  33  1   
 32  20  21  1   
 33  20  34  1   
 34  20  35  1   
 35  21  22  1   
 36  22  23  1   
 37  22  36  1   
 38  22  37  1   
 39  23  38  1   
 40  23  39  1   
 41  23  40  1   
@<TRIPOS>SUBSTRUCTURE
  1 ****  14 GROUP 4 **** **** 0

# MOE 2024.06 (io_trps.svl 2023.06)
