@<TRIPOS>MOLECULE
1-(4-Ethoxy-benzenesulfonyl)-piperidine-4-carboxylic acid ethylamide
47 48 1 0 0 
SMALL
USER_CHARGES


@<TRIPOS>ATOM
  1 S       -0.4350     0.3330     2.0650 S.o2  1 <1>   1.4470 
  2 O       -1.2330     1.4490     2.5250 O.2   1 <1>  -0.6500 
  3 O        0.2660    -0.4800     3.0380 O.2   1 <1>  -0.6500 
  4 N        0.7470     0.9530     1.0180 N.am  1 <1>  -0.8490 
  5 C       -1.4450    -0.7190     0.9840 C.ar  1 <1>  -0.0090 
  6 C        1.7060    -0.0750     0.6020 C.3   1 <1>   0.1960 
  7 C        1.4200     2.1150     1.6020 C.3   1 <1>   0.1960 
  8 C       -1.8190    -2.0020     1.3700 C.ar  1 <1>  -0.1500 
  9 C       -1.8750    -0.2640    -0.2570 C.ar  1 <1>  -0.1500 
 10 C        2.6550     0.4840    -0.4590 C.3   1 <1>  -0.1600 
 11 C        2.3730     2.7470     0.5830 C.3   1 <1>  -0.1600 
 12 C       -2.5880    -2.8090     0.5490 C.ar  1 <1>  -0.1500 
 13 C       -2.6430    -1.0630    -1.0870 C.ar  1 <1>  -0.1500 
 14 C        3.3970     1.7270     0.0600 C.3   1 <1>  -0.0190 
 15 C       -3.0050    -2.3400    -0.6930 C.ar  1 <1>   0.0830 
 16 C        4.3010     2.3360    -1.0100 C.2   1 <1>   0.5690 
 17 O       -3.7560    -3.0590    -1.5610 O.3   1 <1>  -0.3630 
 18 O        3.8250     2.6800    -2.0650 O.2   1 <1>  -0.5700 
 19 N        5.6250     2.4770    -0.7400 N.am  1 <1>  -0.7300 
 20 C       -4.2010    -4.3580    -1.2500 C.3   1 <1>   0.1200 
 21 C        6.6250     3.0290    -1.6740 C.3   1 <1>   0.1400 
 22 C       -5.0250    -4.8710    -2.4270 C.3   1 <1>  -0.2400 
 23 C        7.8330     2.1010    -1.6960 C.3   1 <1>  -0.2400 
 24 H        1.1780    -0.9180     0.1850 H     1 <1>   0.0800 
 25 H        2.2700    -0.4200     1.4530 H     1 <1>   0.0800 
 26 H        1.9610     1.8180     2.4860 H     1 <1>   0.0800 
 27 H        0.6900     2.8540     1.8880 H     1 <1>   0.0800 
 28 H       -1.5030    -2.3740     2.3310 H     1 <1>   0.1500 
 29 H       -1.6030     0.7280    -0.5780 H     1 <1>   0.1500 
 30 H        2.0840     0.7390    -1.3360 H     1 <1>   0.0800 
 31 H        3.3660    -0.2720    -0.7400 H     1 <1>   0.0800 
 32 H        2.8850     3.5760     1.0380 H     1 <1>   0.0800 
 33 H        1.7930     3.1320    -0.2390 H     1 <1>   0.0800 
 34 H       -2.8510    -3.7920     0.8910 H     1 <1>   0.1500 
 35 H       -2.9680    -0.7000    -2.0450 H     1 <1>   0.1500 
 36 H        4.0140     1.4220     0.8860 H     1 <1>   0.0800 
 37 H        5.9920     2.1910     0.1680 H     1 <1>   0.3700 
 38 H       -4.8030    -4.3070    -0.3580 H     1 <1>   0.0800 
 39 H       -3.3410    -4.9840    -1.0860 H     1 <1>   0.0800 
 40 H        6.9150     4.0130    -1.3470 H     1 <1>   0.0800 
 41 H        6.2040     3.1080    -2.6630 H     1 <1>   0.0800 
 42 H       -5.8720    -4.2300    -2.5930 H     1 <1>   0.0800 
 43 H       -5.3800    -5.8630    -2.2190 H     1 <1>   0.0800 
 44 H       -4.4200    -4.9020    -3.3160 H     1 <1>   0.0800 
 45 H        8.2800     2.0360    -0.7200 H     1 <1>   0.0800 
 46 H        8.5680     2.4850    -2.3810 H     1 <1>   0.0800 
 47 H        7.5410     1.1200    -2.0280 H     1 <1>   0.0800 
@<TRIPOS>BOND
  1   1   2  2   
  2   1   3  2   
  3   1   4  am  
  4   1   5  1   
  5   4   6  1   
  6   4   7  1   
  7   5   8  ar  
  8   5   9  ar  
  9   6  10  1   
 10   6  24  1   
 11   6  25  1   
 12   7  11  1   
 13   7  26  1   
 14   7  27  1   
 15   8  12  ar  
 16   8  28  1   
 17   9  13  ar  
 18   9  29  1   
 19  10  14  1   
 20  10  30  1   
 21  10  31  1   
 22  11  14  1   
 23  11  32  1   
 24  11  33  1   
 25  12  15  ar  
 26  12  34  1   
 27  13  15  ar  
 28  13  35  1   
 29  14  16  1   
 30  14  36  1   
 31  15  17  1   
 32  16  18  2   
 33  16  19  am  
 34  17  20  1   
 35  19  21  1   
 36  19  37  1   
 37  20  22  1   
 38  20  38  1   
 39  20  39  1   
 40  21  23  1   
 41  21  40  1   
 42  21  41  1   
 43  22  42  1   
 44  22  43  1   
 45  22  44  1   
 46  23  45  1   
 47  23  46  1   
 48  23  47  1   
@<TRIPOS>SUBSTRUCTURE
  1 ****   6 GROUP 4 **** **** 0

# MOE 2024.06 (io_trps.svl 2023.06)
