@<TRIPOS>MOLECULE
1-Isopropyl-5-oxo-pyrrolidine-3-carboxylic acid (4-ethoxy-phenyl)-amide
43 44 1 0 0 
SMALL
USER_CHARGES


@<TRIPOS>ATOM
  1 O       -0.3520     1.1000    -1.6120 O.2   1 <1>  -0.5700 
  2 C       -0.4950     2.0370    -0.8660 C.2   1 <1>   0.5690 
  3 N       -1.5860     2.3360    -0.1200 N.am  1 <1>  -0.6600 
  4 C        0.5880     3.0570    -0.6570 C.3   1 <1>  -0.0990 
  5 C       -2.8920     1.6430    -0.0900 C.3   1 <1>   0.2200 
  6 C       -1.3940     3.5640     0.6720 C.3   1 <1>   0.1400 
  7 C        0.1220     3.8140     0.6020 C.3   1 <1>  -0.0190 
  8 C       -2.7090     0.2140     0.4140 C.3   1 <1>  -0.2400 
  9 C       -3.5320     1.6800    -1.4760 C.3   1 <1>  -0.2400 
 10 C        0.5000     5.2890     0.6360 C.2   1 <1>   0.5690 
 11 O       -0.3220     6.0890     1.0090 O.2   1 <1>  -0.5700 
 12 N        1.7750     5.6300     0.2730 N.am  1 <1>  -0.5470 
 13 C        2.4030     6.8860     0.1950 C.ar  1 <1>   0.1170 
 14 C        3.7910     6.9420     0.2650 C.ar  1 <1>  -0.1500 
 15 C        1.7020     8.0760     0.0310 C.ar  1 <1>  -0.1500 
 16 C        4.4640     8.1490     0.1800 C.ar  1 <1>  -0.1500 
 17 C        2.3700     9.2850    -0.0540 C.ar  1 <1>  -0.1500 
 18 C        3.7510     9.3330     0.0200 C.ar  1 <1>   0.0820 
 19 O        4.3270    10.5610    -0.0730 O.3   1 <1>  -0.3630 
 20 C        5.7230    10.7180     0.0220 C.3   1 <1>   0.1200 
 21 C        6.0390    12.2060    -0.1020 C.3   1 <1>  -0.2400 
 22 H        0.6140     3.6990    -1.5190 H     1 <1>   0.0800 
 23 H        1.5390     2.5780    -0.5170 H     1 <1>   0.0800 
 24 H       -3.5410     2.1630     0.5950 H     1 <1>   0.0800 
 25 H       -1.7200     3.4290     1.6890 H     1 <1>   0.0800 
 26 H       -1.9490     4.3660     0.2140 H     1 <1>   0.0800 
 27 H        0.5600     3.3450     1.4640 H     1 <1>   0.0800 
 28 H       -2.1020    -0.3550    -0.2670 H     1 <1>   0.0800 
 29 H       -3.6650    -0.2700     0.4980 H     1 <1>   0.0800 
 30 H       -2.2430     0.2200     1.3820 H     1 <1>   0.0800 
 31 H       -2.9380     1.1300    -2.1840 H     1 <1>   0.0800 
 32 H       -3.6310     2.6960    -1.8110 H     1 <1>   0.0800 
 33 H       -4.5100     1.2360    -1.4390 H     1 <1>   0.0800 
 34 H        2.3880     4.8480     0.0560 H     1 <1>   0.3700 
 35 H        4.3550     6.0370     0.3910 H     1 <1>   0.1500 
 36 H        0.6300     8.0690    -0.0340 H     1 <1>   0.1500 
 37 H        5.5360     8.1480     0.2400 H     1 <1>   0.1500 
 38 H        1.8200    10.2010    -0.1770 H     1 <1>   0.1500 
 39 H        6.1830    10.1640    -0.7770 H     1 <1>   0.0800 
 40 H        6.0440    10.3400     0.9770 H     1 <1>   0.0800 
 41 H        5.6980    12.5770    -1.0520 H     1 <1>   0.0800 
 42 H        7.1000    12.3600    -0.0330 H     1 <1>   0.0800 
 43 H        5.5590    12.7520     0.6900 H     1 <1>   0.0800 
@<TRIPOS>BOND
  1   1   2  2   
  2   2   3  am  
  3   2   4  1   
  4   3   5  1   
  5   3   6  1   
  6   4   7  1   
  7   4  22  1   
  8   4  23  1   
  9   5   8  1   
 10   5   9  1   
 11   5  24  1   
 12   6   7  1   
 13   6  25  1   
 14   6  26  1   
 15   7  10  1   
 16   7  27  1   
 17   8  28  1   
 18   8  29  1   
 19   8  30  1   
 20   9  31  1   
 21   9  32  1   
 22   9  33  1   
 23  10  11  2   
 24  10  12  am  
 25  12  13  1   
 26  12  34  1   
 27  13  14  ar  
 28  13  15  ar  
 29  14  16  ar  
 30  14  35  1   
 31  15  17  ar  
 32  15  36  1   
 33  16  18  ar  
 34  16  37  1   
 35  17  18  ar  
 36  17  38  1   
 37  18  19  1   
 38  19  20  1   
 39  20  21  1   
 40  20  39  1   
 41  20  40  1   
 42  21  41  1   
 43  21  42  1   
 44  21  43  1   
@<TRIPOS>SUBSTRUCTURE
  1 ****  12 GROUP 4 **** **** 0

# MOE 2024.06 (io_trps.svl 2023.06)
