@<TRIPOS>MOLECULE
6-Amino-2-(2-morpholin-4-yl-2-oxo-ethylsulfanyl)-5-phenyl-3H-pyrimidin-4-one
42 44 1 0 0 
SMALL
USER_CHARGES


@<TRIPOS>ATOM
  1 S       -0.1890    -1.1470     1.3810 S.3   1 <1>  -0.3710 
  2 C       -1.2940     0.1500     0.9040 C.2   1 <1>   0.6410 
  3 C        1.3940    -0.2740     1.8340 C.3   1 <1>   0.1310 
  4 N       -2.4610    -0.2750     0.3690 N.pl3 1 <1>  -0.5500 
  5 N       -0.9600     1.3640     1.0830 N.2   1 <1>  -0.6610 
  6 C        2.2440     0.0000     0.5940 C.2   1 <1>   0.5690 
  7 C       -3.3930     0.6070    -0.0440 C.2   1 <1>   0.2000 
  8 C       -1.8650     2.3040     0.6710 C.2   1 <1>   0.7670 
  9 O        2.7890    -0.9610     0.1020 O.2   1 <1>  -0.5700 
 10 N        2.4260     1.2580     0.0630 N.am  1 <1>  -0.6600 
 11 N       -4.5130     0.0780    -0.5890 N.pl3 1 <1>  -0.9000 
 12 C       -3.1260     1.9530     0.1080 C.2   1 <1>  -0.0140 
 13 O       -1.5080     3.4700     0.8120 O.2   1 <1>  -0.5700 
 14 C        1.8510     2.5460     0.5700 C.3   1 <1>   0.1400 
 15 C        3.2450     1.4610    -1.1710 C.3   1 <1>   0.1400 
 16 C       -4.0710     2.9660    -0.2870 C.ar  1 <1>   0.0280 
 17 C        2.9320     3.6370     0.6600 C.3   1 <1>   0.1200 
 18 C        4.2650     2.5920    -0.9670 C.3   1 <1>   0.1200 
 19 C       -3.7490     3.9280    -1.2440 C.ar  1 <1>  -0.1500 
 20 C       -5.3500     3.0110     0.2690 C.ar  1 <1>  -0.1500 
 21 O        3.6250     3.7640    -0.5510 O.3   1 <1>  -0.5600 
 22 C       -4.6640     4.8870    -1.6350 C.ar  1 <1>  -0.1500 
 23 C       -6.2700     3.9670    -0.1190 C.ar  1 <1>  -0.1500 
 24 C       -5.9290     4.9080    -1.0740 C.ar  1 <1>  -0.1500 
 25 H        1.9280    -0.9440     2.4810 H     1 <1>   0.0800 
 26 H        1.1420     0.6090     2.3840 H     1 <1>   0.0800 
 27 H       -2.5970    -1.2780     0.2750 H     1 <1>   0.4000 
 28 H       -5.2470     0.6800    -0.9830 H     1 <1>   0.4000 
 29 H       -4.6830    -0.9220    -0.7230 H     1 <1>   0.4000 
 30 H        1.4080     2.4290     1.5390 H     1 <1>   0.0800 
 31 H        1.0800     2.8770    -0.1040 H     1 <1>   0.0800 
 32 H        2.5940     1.7150    -1.9890 H     1 <1>   0.0800 
 33 H        3.7700     0.5600    -1.4360 H     1 <1>   0.0800 
 34 H        3.6390     3.4050     1.4370 H     1 <1>   0.0800 
 35 H        2.4770     4.5860     0.8780 H     1 <1>   0.0800 
 36 H        4.7720     2.8050    -1.8910 H     1 <1>   0.0800 
 37 H        4.9950     2.3130    -0.2270 H     1 <1>   0.0800 
 38 H       -2.7660     3.9270    -1.6820 H     1 <1>   0.1500 
 39 H       -5.6220     2.2870     1.0180 H     1 <1>   0.1500 
 40 H       -4.3920     5.6210    -2.3740 H     1 <1>   0.1500 
 41 H       -7.2510     3.9840     0.3240 H     1 <1>   0.1500 
 42 H       -6.6430     5.6550    -1.3780 H     1 <1>   0.1500 
@<TRIPOS>BOND
  1   1   2  1   
  2   1   3  1   
  3   2   4  1   
  4   2   5  2   
  5   3   6  1   
  6   3  25  1   
  7   3  26  1   
  8   4   7  1   
  9   4  27  1   
 10   5   8  1   
 11   6   9  2   
 12   6  10  am  
 13   7  11  1   
 14   7  12  2   
 15   8  12  1   
 16   8  13  2   
 17  10  14  1   
 18  10  15  1   
 19  11  28  1   
 20  11  29  1   
 21  12  16  1   
 22  14  17  1   
 23  14  30  1   
 24  14  31  1   
 25  15  18  1   
 26  15  32  1   
 27  15  33  1   
 28  16  19  ar  
 29  16  20  ar  
 30  17  21  1   
 31  17  34  1   
 32  17  35  1   
 33  18  21  1   
 34  18  36  1   
 35  18  37  1   
 36  19  22  ar  
 37  19  38  1   
 38  20  23  ar  
 39  20  39  1   
 40  22  24  ar  
 41  22  40  1   
 42  23  24  ar  
 43  23  41  1   
 44  24  42  1   
@<TRIPOS>SUBSTRUCTURE
  1 ****   8 GROUP 4 **** **** 0

# MOE 2024.06 (io_trps.svl 2023.06)
