@<TRIPOS>MOLECULE
2-Benzenesulfonylamino-N-(tetrahydro-furan-2-ylmethyl)-propionamide
41 42 1 0 0 
SMALL
USER_CHARGES


@<TRIPOS>ATOM
  1 S        1.1680    -1.6850    -0.9160 S.o2  1 <1>   1.4470 
  2 O        2.3220    -2.5050    -1.2060 O.2   1 <1>  -0.6500 
  3 O       -0.0150    -1.8830    -1.7170 O.2   1 <1>  -0.6500 
  4 N        0.6440    -2.0840     0.6290 N.am  1 <1>  -0.9140 
  5 C        1.5920     0.0840    -0.8940 C.ar  1 <1>  -0.0090 
  6 C        1.6260    -2.5030     1.6460 C.3   1 <1>   0.3370 
  7 C        1.3680     0.8970     0.2130 C.ar  1 <1>  -0.1500 
  8 C        2.1510     0.6750    -2.0220 C.ar  1 <1>  -0.1500 
  9 C        2.8720    -1.6000     1.8420 C.2   1 <1>   0.5690 
 10 C        1.9630    -3.9900     1.4700 C.3   1 <1>  -0.2400 
 11 C        1.6980     2.2410     0.1990 C.ar  1 <1>  -0.1500 
 12 C        2.4800     2.0190    -2.0480 C.ar  1 <1>  -0.1500 
 13 O        2.9020    -0.8720     2.8070 O.2   1 <1>  -0.5700 
 14 N        3.9050    -1.6250     0.9560 N.am  1 <1>  -0.7300 
 15 C        2.2550     2.8050    -0.9340 C.ar  1 <1>  -0.1500 
 16 C        5.1130    -0.7650     1.0120 C.3   1 <1>   0.1400 
 17 C        5.1700     0.1690    -0.2030 C.3   1 <1>   0.2000 
 18 O        5.1190    -0.5690    -1.3840 O.3   1 <1>  -0.5600 
 19 C        6.4520     0.9800    -0.3120 C.3   1 <1>  -0.1600 
 20 C        5.7550     0.1040    -2.4260 C.3   1 <1>   0.1200 
 21 C        6.5190     1.2670    -1.7990 C.3   1 <1>  -0.1600 
 22 H       -0.0030    -2.8520     0.4700 H     1 <1>   0.4200 
 23 H        1.1030    -2.4440     2.5850 H     1 <1>   0.0800 
 24 H        0.9300     0.4830     1.1060 H     1 <1>   0.1500 
 25 H        2.3350     0.0680    -2.8930 H     1 <1>   0.1500 
 26 H        2.5560    -4.1670     0.5930 H     1 <1>   0.0800 
 27 H        1.0670    -4.5800     1.4220 H     1 <1>   0.0800 
 28 H        2.5360    -4.3210     2.3180 H     1 <1>   0.0800 
 29 H        1.5200     2.8460     1.0710 H     1 <1>   0.1500 
 30 H        2.9110     2.4510    -2.9350 H     1 <1>   0.1500 
 31 H        3.7920    -2.1160     0.0530 H     1 <1>   0.3700 
 32 H        2.5100     3.8500    -0.9470 H     1 <1>   0.1500 
 33 H        5.9880    -1.3900     1.0270 H     1 <1>   0.0800 
 34 H        5.1060    -0.1770     1.9140 H     1 <1>   0.0800 
 35 H        4.3230     0.8330    -0.1940 H     1 <1>   0.0800 
 36 H        7.2930     0.3790    -0.0110 H     1 <1>   0.0800 
 37 H        6.4150     1.8740     0.2840 H     1 <1>   0.0800 
 38 H        5.0090     0.4440    -3.1230 H     1 <1>   0.0800 
 39 H        6.4190    -0.5920    -2.9090 H     1 <1>   0.0800 
 40 H        7.5300     1.3240    -2.1620 H     1 <1>   0.0800 
 41 H        6.0100     2.1880    -2.0280 H     1 <1>   0.0800 
@<TRIPOS>BOND
  1   1   2  2   
  2   1   3  2   
  3   1   4  am  
  4   1   5  1   
  5   4   6  1   
  6   4  22  1   
  7   5   7  ar  
  8   5   8  ar  
  9   6   9  1   
 10   6  10  1   
 11   6  23  1   
 12   7  11  ar  
 13   7  24  1   
 14   8  12  ar  
 15   8  25  1   
 16   9  13  2   
 17   9  14  am  
 18  10  26  1   
 19  10  27  1   
 20  10  28  1   
 21  11  15  ar  
 22  11  29  1   
 23  12  15  ar  
 24  12  30  1   
 25  14  16  1   
 26  14  31  1   
 27  15  32  1   
 28  16  17  1   
 29  16  33  1   
 30  16  34  1   
 31  17  18  1   
 32  17  19  1   
 33  17  35  1   
 34  18  20  1   
 35  19  21  1   
 36  19  36  1   
 37  19  37  1   
 38  20  21  1   
 39  20  38  1   
 40  20  39  1   
 41  21  40  1   
 42  21  41  1   
@<TRIPOS>SUBSTRUCTURE
  1 ****   5 GROUP 4 **** **** 0

# MOE 2024.06 (io_trps.svl 2023.06)
