@<TRIPOS>MOLECULE
N-Furan-2-ylmethyl-N-(2-hydroxy-quinolin-3-ylmethyl)-2,2-dimethyl-propionamide
47 49 1 0 0 
SMALL
USER_CHARGES


@<TRIPOS>ATOM
  1 O        1.4910    -0.5590     1.7920 O.2   1 <1>  -0.5700 
  2 C        1.9870    -0.6220     0.6880 C.2   1 <1>   0.5690 
  3 N        2.4930     0.5330     0.1290 N.am  1 <1>  -0.6600 
  4 C        1.9780    -2.0220    -0.0160 C.3   1 <1>   0.0610 
  5 C        2.2680     1.8430     0.8070 C.3   1 <1>   0.2780 
  6 C        3.3750     0.6430    -1.0680 C.3   1 <1>   0.3200 
  7 C        1.1030    -1.9990    -1.2870 C.3   1 <1>  -0.2400 
  8 C        3.3910    -2.5430    -0.3550 C.3   1 <1>  -0.2400 
  9 C        1.3500    -3.0940     0.9090 C.3   1 <1>  -0.2400 
 10 C        0.9600     2.4500     0.3280 C.2   1 <1>  -0.1240 
 11 C        4.8380     0.5200    -0.6730 C.2   1 <1>  -0.0400 
 12 C        1.0090     3.4010    -0.7400 C.2   1 <1>   0.6160 
 13 C       -0.2300     2.1090     0.8880 C.2   1 <1>  -0.1780 
 14 O        5.7500     0.5980    -1.6230 O.3   1 <1>  -0.2800 
 15 C        5.4290     0.3290     0.5290 C.2   1 <1>  -0.1500 
 16 O        2.0390     3.7590    -1.2840 O.2   1 <1>  -0.5700 
 17 N       -0.1630     3.9430    -1.1710 N.am  1 <1>  -0.5470 
 18 C       -1.4550     2.6870     0.4250 C.ar  1 <1>   0.0280 
 19 C        6.9320     0.4640    -1.0570 C.2   1 <1>  -0.0100 
 20 C        6.8060     0.2920     0.2760 C.2   1 <1>  -0.1500 
 21 C       -1.4000     3.6190    -0.6250 C.ar  1 <1>   0.1170 
 22 C       -2.6980     2.3610     0.9700 C.ar  1 <1>  -0.1500 
 23 C       -2.5750     4.2000    -1.0970 C.ar  1 <1>  -0.1500 
 24 C       -3.8530     2.9420     0.4930 C.ar  1 <1>  -0.1500 
 25 C       -3.7930     3.8650    -0.5440 C.ar  1 <1>  -0.1500 
 26 H        3.0920     2.5110     0.6170 H     1 <1>   0.0800 
 27 H        2.2230     1.7020     1.8730 H     1 <1>   0.0800 
 28 H        3.2270     1.5940    -1.5470 H     1 <1>   0.0800 
 29 H        3.1400    -0.1050    -1.7950 H     1 <1>   0.0800 
 30 H        1.4810    -1.3260    -2.0300 H     1 <1>   0.0800 
 31 H        0.1050    -1.6840    -1.0370 H     1 <1>   0.0800 
 32 H        1.0480    -2.9790    -1.7270 H     1 <1>   0.0800 
 33 H        3.8460    -2.0040    -1.1610 H     1 <1>   0.0800 
 34 H        3.3530    -3.5760    -0.6540 H     1 <1>   0.0800 
 35 H        4.0280    -2.4660     0.5080 H     1 <1>   0.0800 
 36 H        0.3440    -2.8200     1.1740 H     1 <1>   0.0800 
 37 H        1.9210    -3.1840     1.8170 H     1 <1>   0.0800 
 38 H        1.3200    -4.0570     0.4300 H     1 <1>   0.0800 
 39 H       -0.2900     1.3920     1.6890 H     1 <1>   0.1500 
 40 H        4.9670     0.2200     1.4940 H     1 <1>   0.1500 
 41 H       -0.0800     4.6170    -1.9290 H     1 <1>   0.3700 
 42 H        7.8110     0.5020    -1.6760 H     1 <1>   0.1500 
 43 H        7.5740     0.1550     1.0150 H     1 <1>   0.1500 
 44 H       -2.7470     1.6460     1.7720 H     1 <1>   0.1500 
 45 H       -2.5270     4.9140    -1.8990 H     1 <1>   0.1500 
 46 H       -4.8070     2.6840     0.9210 H     1 <1>   0.1500 
 47 H       -4.6990     4.3150    -0.9110 H     1 <1>   0.1500 
@<TRIPOS>BOND
  1   1   2  2   
  2   2   3  am  
  3   2   4  1   
  4   3   5  1   
  5   3   6  1   
  6   4   7  1   
  7   4   8  1   
  8   4   9  1   
  9   5  10  1   
 10   5  26  1   
 11   5  27  1   
 12   6  11  1   
 13   6  28  1   
 14   6  29  1   
 15   7  30  1   
 16   7  31  1   
 17   7  32  1   
 18   8  33  1   
 19   8  34  1   
 20   8  35  1   
 21   9  36  1   
 22   9  37  1   
 23   9  38  1   
 24  10  12  1   
 25  10  13  2   
 26  11  14  1   
 27  11  15  2   
 28  12  16  2   
 29  12  17  am  
 30  13  18  1   
 31  13  39  1   
 32  14  19  1   
 33  15  20  1   
 34  15  40  1   
 35  17  21  1   
 36  17  41  1   
 37  18  21  ar  
 38  18  22  ar  
 39  19  20  2   
 40  19  42  1   
 41  20  43  1   
 42  21  23  ar  
 43  22  24  ar  
 44  22  44  1   
 45  23  25  ar  
 46  23  45  1   
 47  24  25  ar  
 48  24  46  1   
 49  25  47  1   
@<TRIPOS>SUBSTRUCTURE
  1 ****   3 GROUP 4 **** **** 0

# MOE 2024.06 (io_trps.svl 2023.06)
