@<TRIPOS>MOLECULE
[2-(1-Methyl-pyrrolidin-2-yl)-ethyl]-(6-methyl-5,6,7,8-tetrahydro-[1,2,4]triazol
51 54 1 0 0 
SMALL
USER_CHARGES


@<TRIPOS>ATOM
  1 N        0.2560     0.1920     0.1350 N.2   1 <1>  -0.6120 
  2 C        0.6190    -1.0670     0.1760 C.2   1 <1>   0.3750 
  3 C        1.2160     1.0280    -0.2070 C.cat 1 <1>   0.9620 
  4 C        1.9170    -1.5220    -0.1040 C.2   1 <1>  -0.1240 
  5 C       -0.5090    -2.0250     0.5380 C.3   1 <1>  -0.0990 
  6 N        1.0930     2.3340    -0.3330 N.pl3 1 <1>  -0.7000 
  7 N        2.4840     0.7120    -0.4890 N.pl3 1 <1>  -0.3220 
  8 C        2.8910    -0.5850    -0.4240 C.2   1 <1>   0.4790 
  9 C        2.2330    -3.0210    -0.0680 C.3   1 <1>  -0.0220 
 10 C       -0.0360    -3.4320     0.9240 C.3   1 <1>  -0.0800 
 11 C        2.3160     2.7980    -0.6980 C.2   1 <1>   0.5030 
 12 N        3.1830     1.8580    -0.8030 N.2   1 <1>  -0.2600 
 13 N        4.2170    -0.7770    -0.6920 N.pl3 1 <1>  -0.8690 
 14 C        0.9910    -3.9150    -0.1010 C.3   1 <1>  -0.1600 
 15 C       -1.2220    -4.4000     1.0030 C.3   1 <1>  -0.2400 
 16 C        5.1340    -1.8840    -0.3530 C.3   1 <1>   0.2090 
 17 C        6.5460    -1.3130    -0.2090 C.3   1 <1>  -0.1600 
 18 C        7.5620    -2.3920     0.1860 C.3   1 <1>   0.4230 
 19 N        8.9220    -1.8230     0.3080 N.4   1 <1>  -0.9590 
 20 C        7.7250    -3.4970    -0.8550 C.3   1 <1>  -0.1600 
 21 C        9.8610    -2.9690     0.1960 C.3   1 <1>   0.3430 
 22 C        9.1540    -1.0340     1.5580 C.3   1 <1>   0.2630 
 23 C        9.1880    -3.9380    -0.7660 C.3   1 <1>  -0.1600 
 24 H       -1.1680    -2.0900    -0.3100 H     1 <1>   0.0800 
 25 H       -1.0760    -1.6150     1.3550 H     1 <1>   0.0800 
 26 H        0.2190     2.8310    -0.1740 H     1 <1>   0.4500 
 27 H        2.7760    -3.2380     0.8350 H     1 <1>   0.0800 
 28 H        2.8490    -3.2880    -0.9090 H     1 <1>   0.0800 
 29 H        0.4310    -3.3910     1.8950 H     1 <1>   0.0800 
 30 H        2.5160     3.8450    -0.8770 H     1 <1>   0.1500 
 31 H        4.6910     0.0450    -1.0860 H     1 <1>   0.4000 
 32 H        1.2780    -4.9300     0.1170 H     1 <1>   0.0800 
 33 H        0.5570    -3.9010    -1.0870 H     1 <1>   0.0800 
 34 H       -1.7120    -4.4890     0.0490 H     1 <1>   0.0800 
 35 H       -1.9400    -4.0530     1.7260 H     1 <1>   0.0800 
 36 H       -0.8880    -5.3770     1.3070 H     1 <1>   0.0800 
 37 H        5.1030    -2.6210    -1.1400 H     1 <1>   0.0800 
 38 H        4.8300    -2.3410     0.5740 H     1 <1>   0.0800 
 39 H        6.5240    -0.5550     0.5540 H     1 <1>   0.0800 
 40 H        6.8400    -0.8670    -1.1430 H     1 <1>   0.0800 
 41 H        7.2820    -2.8380     1.1280 H     1 <1>   0.0800 
 42 H        9.0780    -1.2230    -0.5130 H     1 <1>   0.4500 
 43 H        7.5220    -3.1220    -1.8440 H     1 <1>   0.0800 
 44 H        7.0530    -4.3150    -0.6550 H     1 <1>   0.0800 
 45 H        9.9780    -3.4430     1.1570 H     1 <1>   0.0800 
 46 H       10.8280    -2.6560    -0.1670 H     1 <1>   0.0800 
 47 H        9.0000    -1.6520     2.4270 H     1 <1>   0.0800 
 48 H        8.4770    -0.1960     1.6050 H     1 <1>   0.0800 
 49 H       10.1640    -0.6560     1.5780 H     1 <1>   0.0800 
 50 H        9.6590    -3.8900    -1.7330 H     1 <1>   0.0800 
 51 H        9.2770    -4.9450    -0.3950 H     1 <1>   0.0800 
@<TRIPOS>BOND
  1   1   2  2   
  2   1   3  1   
  3   2   4  1   
  4   2   5  1   
  5   3   6  ar  
  6   3   7  ar  
  7   4   8  2   
  8   4   9  1   
  9   5  10  1   
 10   5  24  1   
 11   5  25  1   
 12   6  11  1   
 13   6  26  1   
 14   7   8  1   
 15   7  12  1   
 16   8  13  1   
 17   9  14  1   
 18   9  27  1   
 19   9  28  1   
 20  10  14  1   
 21  10  15  1   
 22  10  29  1   
 23  11  12  2   
 24  11  30  1   
 25  13  16  1   
 26  13  31  1   
 27  14  32  1   
 28  14  33  1   
 29  15  34  1   
 30  15  35  1   
 31  15  36  1   
 32  16  17  1   
 33  16  37  1   
 34  16  38  1   
 35  17  18  1   
 36  17  39  1   
 37  17  40  1   
 38  18  19  1   
 39  18  20  1   
 40  18  41  1   
 41  19  21  1   
 42  19  22  1   
 43  19  42  1   
 44  20  23  1   
 45  20  43  1   
 46  20  44  1   
 47  21  23  1   
 48  21  45  1   
 49  21  46  1   
 50  22  47  1   
 51  22  48  1   
 52  22  49  1   
 53  23  50  1   
 54  23  51  1   
@<TRIPOS>SUBSTRUCTURE
  1 ****  13 GROUP 4 **** **** 0

# MOE 2024.06 (io_trps.svl 2023.06)
