@<TRIPOS>MOLECULE
4-[3-(4-Chloro-phenyl)-[1,2,4]oxadiazol-5-yl]-N-(tetrahydro-furan-2-ylmethyl)-bu
44 46 1 0 0 
SMALL
USER_CHARGES


@<TRIPOS>ATOM
  1 CL       1.6060    -0.5810    -1.4180 Cl    1 <1>  -0.1770 
  2 C        2.7360     0.5950    -0.8000 C.ar  1 <1>   0.1770 
  3 C        3.0130     1.7280    -1.5390 C.ar  1 <1>  -0.1500 
  4 C        3.3420     0.3810     0.4230 C.ar  1 <1>  -0.1500 
  5 C        3.9100     2.6580    -1.0440 C.ar  1 <1>  -0.1500 
  6 C        4.2370     1.3180     0.9080 C.ar  1 <1>  -0.1500 
  7 C        4.5450     2.4790     0.1900 C.ar  1 <1>   0.0540 
  8 C        5.4870     3.4570     0.7120 C.2   1 <1>   0.4620 
  9 N        6.1280     3.3630     1.8240 N.2   1 <1>  -0.4100 
 10 N        5.7870     4.5870     0.0650 N.2   1 <1>  -0.5650 
 11 O        6.8640     4.4210     1.9500 O.3   1 <1>  -0.0190 
 12 C        6.6160     5.1120     0.8680 C.2   1 <1>   0.2980 
 13 C        7.3200     6.4420     0.6700 C.3   1 <1>   0.0200 
 14 C        8.8400     6.2880     0.4950 C.3   1 <1>  -0.1600 
 15 C        9.2130     5.4380    -0.7330 C.3   1 <1>  -0.0990 
 16 C       10.7120     5.3930    -0.9390 C.2   1 <1>   0.5690 
 17 O       11.2300     6.2140    -1.6550 O.2   1 <1>  -0.5700 
 18 N       11.4260     4.4360    -0.3010 N.am  1 <1>  -0.7300 
 19 C       12.8870     4.2250    -0.4160 C.3   1 <1>   0.1400 
 20 C       13.1940     2.7270    -0.5630 C.3   1 <1>   0.2000 
 21 O       12.5400     1.9990     0.4310 O.3   1 <1>  -0.5600 
 22 C       14.6610     2.3660    -0.3920 C.3   1 <1>  -0.1600 
 23 C       13.1810     0.7810     0.6450 C.3   1 <1>   0.1200 
 24 C       14.5930     0.9230     0.0790 C.3   1 <1>  -0.1600 
 25 H        2.5300     1.8760    -2.4890 H     1 <1>   0.1500 
 26 H        3.1130    -0.5080     0.9830 H     1 <1>   0.1500 
 27 H        4.1230     3.5400    -1.6240 H     1 <1>   0.1500 
 28 H        4.7070     1.1470     1.8620 H     1 <1>   0.1500 
 29 H        7.1190     7.0650     1.5220 H     1 <1>   0.0800 
 30 H        6.9080     6.9280    -0.1960 H     1 <1>   0.0800 
 31 H        9.2620     5.8410     1.3800 H     1 <1>   0.0800 
 32 H        9.2770     7.2660     0.3840 H     1 <1>   0.0800 
 33 H        8.7650     5.8570    -1.6160 H     1 <1>   0.0800 
 34 H        8.8460     4.4330    -0.6230 H     1 <1>   0.0800 
 35 H       10.9660     3.7170     0.2670 H     1 <1>   0.3700 
 36 H       13.3650     4.6050     0.4700 H     1 <1>   0.0800 
 37 H       13.2740     4.7620    -1.2650 H     1 <1>   0.0800 
 38 H       12.8340     2.3710    -1.5140 H     1 <1>   0.0800 
 39 H       15.1050     2.9820     0.3700 H     1 <1>   0.0800 
 40 H       15.2130     2.4780    -1.3090 H     1 <1>   0.0800 
 41 H       12.6270     0.0120     0.1350 H     1 <1>   0.0800 
 42 H       13.1900     0.5880     1.7040 H     1 <1>   0.0800 
 43 H       15.3390     0.7070     0.8240 H     1 <1>   0.0800 
 44 H       14.7160     0.2450    -0.7470 H     1 <1>   0.0800 
@<TRIPOS>BOND
  1   1   2  1   
  2   2   3  ar  
  3   2   4  ar  
  4   3   5  ar  
  5   3  25  1   
  6   4   6  ar  
  7   4  26  1   
  8   5   7  ar  
  9   5  27  1   
 10   6   7  ar  
 11   6  28  1   
 12   7   8  1   
 13   8   9  2   
 14   8  10  1   
 15   9  11  1   
 16  10  12  2   
 17  11  12  1   
 18  12  13  1   
 19  13  14  1   
 20  13  29  1   
 21  13  30  1   
 22  14  15  1   
 23  14  31  1   
 24  14  32  1   
 25  15  16  1   
 26  15  33  1   
 27  15  34  1   
 28  16  17  2   
 29  16  18  am  
 30  18  19  1   
 31  18  35  1   
 32  19  20  1   
 33  19  36  1   
 34  19  37  1   
 35  20  21  1   
 36  20  22  1   
 37  20  38  1   
 38  21  23  1   
 39  22  24  1   
 40  22  39  1   
 41  22  40  1   
 42  23  24  1   
 43  23  41  1   
 44  23  42  1   
 45  24  43  1   
 46  24  44  1   
@<TRIPOS>SUBSTRUCTURE
  1 ****  12 GROUP 4 **** **** 0

# MOE 2024.06 (io_trps.svl 2023.06)
