@<TRIPOS>MOLECULE
3-(5-Hydroxy-3-methyl-5-p-tolyl-4,5-dihydro-pyrazol-1-yl)-3-oxo-propionitrile
34 35 1 0 0 
SMALL
USER_CHARGES


@<TRIPOS>ATOM
  1 O       -0.2190     1.4220     0.7590 O.2   1 <1>  -0.5700 
  2 C       -1.1570     1.6530     0.0300 C.2   1 <1>   0.5690 
  3 N       -1.7240     2.9030    -0.0720 N.am  1 <1>  -0.2980 
  4 C       -1.7220     0.5180    -0.7920 C.3   1 <1>   0.1010 
  5 N       -2.8630     3.2380    -0.7800 N.2   1 <1>  -0.5120 
  6 C       -1.2000     4.0690     0.6770 C.3   1 <1>   0.7240 
  7 C       -2.8770    -0.0820    -0.0840 C.1   1 <1>   0.3570 
  8 C       -3.1770     4.4290    -0.5200 C.2   1 <1>   0.3280 
  9 O       -1.1930     3.7230     2.0080 O.3   1 <1>  -0.6800 
 10 C        0.1960     4.5140     0.2070 C.ar  1 <1>  -0.1440 
 11 C       -2.2560     5.1430     0.4350 C.3   1 <1>  -0.0990 
 12 N       -3.7600    -0.5720     0.4390 N.1   1 <1>  -0.5570 
 13 C       -4.3700     5.1660    -1.0830 C.3   1 <1>  -0.1790 
 14 C        0.5310     4.4600    -1.1430 C.ar  1 <1>  -0.1500 
 15 C        1.1450     5.0010     1.1000 C.ar  1 <1>  -0.1500 
 16 C        1.7770     4.8700    -1.5830 C.ar  1 <1>  -0.1500 
 17 C        2.3910     5.4110     0.6580 C.ar  1 <1>  -0.1500 
 18 C        2.7160     5.3460    -0.6850 C.ar  1 <1>  -0.1430 
 19 C        4.0830     5.7950    -1.1670 C.3   1 <1>  -0.0970 
 20 H       -0.9670    -0.2320    -0.9310 H     1 <1>   0.0800 
 21 H       -2.0350     0.8740    -1.7550 H     1 <1>   0.0800 
 22 H       -0.6420     2.9130     2.0610 H     1 <1>   0.4000 
 23 H       -1.8290     6.0120    -0.0280 H     1 <1>   0.0800 
 24 H       -2.7660     5.4140     1.3410 H     1 <1>   0.0800 
 25 H       -4.0440     6.0280    -1.6360 H     1 <1>   0.0800 
 26 H       -5.0170     5.4800    -0.2840 H     1 <1>   0.0800 
 27 H       -4.9220     4.5190    -1.7410 H     1 <1>   0.0800 
 28 H       -0.1780     4.0990    -1.8680 H     1 <1>   0.1500 
 29 H        0.9250     5.0700     2.1510 H     1 <1>   0.1500 
 30 H        2.0130     4.8170    -2.6320 H     1 <1>   0.1500 
 31 H        3.1090     5.7830     1.3690 H     1 <1>   0.1500 
 32 H        4.3660     5.2560    -2.0530 H     1 <1>   0.0800 
 33 H        4.8250     5.6150    -0.4100 H     1 <1>   0.0800 
 34 H        4.0620     6.8470    -1.3910 H     1 <1>   0.0800 
@<TRIPOS>BOND
  1   1   2  2   
  2   2   3  am  
  3   2   4  1   
  4   3   5  1   
  5   3   6  1   
  6   4   7  1   
  7   4  20  1   
  8   4  21  1   
  9   5   8  2   
 10   6   9  1   
 11   6  10  1   
 12   6  11  1   
 13   7  12  3   
 14   8  11  1   
 15   8  13  1   
 16   9  22  1   
 17  10  14  ar  
 18  10  15  ar  
 19  11  23  1   
 20  11  24  1   
 21  13  25  1   
 22  13  26  1   
 23  13  27  1   
 24  14  16  ar  
 25  14  28  1   
 26  15  17  ar  
 27  15  29  1   
 28  16  18  ar  
 29  16  30  1   
 30  17  18  ar  
 31  17  31  1   
 32  18  19  1   
 33  19  32  1   
 34  19  33  1   
 35  19  34  1   
@<TRIPOS>SUBSTRUCTURE
  1 ****   6 GROUP 4 **** **** 0

# MOE 2024.06 (io_trps.svl 2023.06)
