@<TRIPOS>MOLECULE
2-[4-(Azepane-1-sulfonyl)-piperazin-1-yl]-N-(2,5-dichloro-phenyl)-acetamide
54 56 1 0 0 
SMALL
USER_CHARGES


@<TRIPOS>ATOM
  1 CL      -0.3580     0.5920     1.7740 Cl    1 <1>  -0.1770 
  2 C       -2.0310     0.5170     1.2580 C.ar  1 <1>   0.1770 
  3 C       -2.5890     1.6160     0.6020 C.ar  1 <1>   0.1170 
  4 C       -2.7490    -0.6370     1.5150 C.ar  1 <1>  -0.1500 
  5 N       -1.7980     2.7570     0.3790 N.am  1 <1>  -0.5470 
  6 C       -3.9210     1.5240     0.2070 C.ar  1 <1>  -0.1500 
  7 C       -4.0730    -0.7120     1.1130 C.ar  1 <1>  -0.1500 
  8 C       -1.8900     3.7610    -0.5470 C.2   1 <1>   0.5690 
  9 C       -4.6400     0.3710     0.4640 C.ar  1 <1>   0.1770 
 10 O       -2.8110     3.8570    -1.3230 O.2   1 <1>  -0.5700 
 11 C       -0.7820     4.8240    -0.5600 C.3   1 <1>   0.1710 
 12 CL      -6.3080     0.2750    -0.0370 Cl    1 <1>  -0.1770 
 13 N        0.5100     4.4420    -1.2060 N.3   1 <1>  -0.8100 
 14 C        1.1450     3.2420    -0.6160 C.3   1 <1>   0.1100 
 15 C        1.4400     5.5940    -1.1730 C.3   1 <1>   0.1100 
 16 C        2.5000     2.9250    -1.2810 C.3   1 <1>   0.1960 
 17 C        2.8350     5.2660    -1.7540 C.3   1 <1>   0.1960 
 18 N        3.4470     4.0440    -1.2040 N.am  1 <1>  -0.8490 
 19 S        4.1420     4.2240     0.3260 S.o2  1 <1>   1.5760 
 20 O        4.6980     2.9510     0.7270 O.2   1 <1>  -0.6500 
 21 O        3.2100     4.9050     1.1970 O.2   1 <1>  -0.6500 
 22 N        5.4250     5.2620    -0.0400 N.am  1 <1>  -0.8490 
 23 C        6.4130     4.5820    -0.8870 C.3   1 <1>   0.1960 
 24 C        6.0120     5.8140     1.1850 C.3   1 <1>   0.1960 
 25 C        7.4900     5.5210    -1.4440 C.3   1 <1>  -0.1600 
 26 C        6.6820     7.1610     0.8980 C.3   1 <1>  -0.1600 
 27 C        8.5530     5.9040    -0.4040 C.3   1 <1>  -0.1600 
 28 C        8.1620     7.0880     0.4900 C.3   1 <1>  -0.1600 
 29 H       -2.2790    -1.4610     2.0220 H     1 <1>   0.1500 
 30 H       -0.9350     2.7730     0.9260 H     1 <1>   0.3700 
 31 H       -4.4070     2.3390    -0.2970 H     1 <1>   0.1500 
 32 H       -4.6610    -1.5950     1.2970 H     1 <1>   0.1500 
 33 H       -0.5940     5.1230     0.4560 H     1 <1>   0.0800 
 34 H       -1.1770     5.6800    -1.0780 H     1 <1>   0.0800 
 35 H        0.5080     2.3900    -0.7710 H     1 <1>   0.0800 
 36 H        1.2840     3.3730     0.4430 H     1 <1>   0.0800 
 37 H        1.5470     5.9520    -0.1650 H     1 <1>   0.0800 
 38 H        1.0180     6.3970    -1.7510 H     1 <1>   0.0800 
 39 H        2.3210     2.6930    -2.3160 H     1 <1>   0.0800 
 40 H        2.9300     2.0490    -0.8270 H     1 <1>   0.0800 
 41 H        3.4920     6.1040    -1.6000 H     1 <1>   0.0800 
 42 H        2.7260     5.1400    -2.8170 H     1 <1>   0.0800 
 43 H        5.9050     4.1460    -1.7310 H     1 <1>   0.0800 
 44 H        6.8740     3.7750    -0.3420 H     1 <1>   0.0800 
 45 H        6.6990     5.1150     1.6360 H     1 <1>   0.0800 
 46 H        5.2310     6.0050     1.9020 H     1 <1>   0.0800 
 47 H        7.0380     6.3920    -1.8840 H     1 <1>   0.0800 
 48 H        7.9890     4.9890    -2.2350 H     1 <1>   0.0800 
 49 H        6.6190     7.7640     1.7860 H     1 <1>   0.0800 
 50 H        6.1170     7.6710     0.1370 H     1 <1>   0.0800 
 51 H        9.4650     6.1620    -0.9160 H     1 <1>   0.0800 
 52 H        8.7730     5.0470     0.2100 H     1 <1>   0.0800 
 53 H        8.7690     7.0490     1.3780 H     1 <1>   0.0800 
 54 H        8.4090     8.0040    -0.0190 H     1 <1>   0.0800 
@<TRIPOS>BOND
  1   1   2  1   
  2   2   3  ar  
  3   2   4  ar  
  4   3   5  1   
  5   3   6  ar  
  6   4   7  ar  
  7   4  29  1   
  8   5   8  am  
  9   5  30  1   
 10   6   9  ar  
 11   6  31  1   
 12   7   9  ar  
 13   7  32  1   
 14   8  10  2   
 15   8  11  1   
 16   9  12  1   
 17  11  13  1   
 18  11  33  1   
 19  11  34  1   
 20  13  14  1   
 21  13  15  1   
 22  14  16  1   
 23  14  35  1   
 24  14  36  1   
 25  15  17  1   
 26  15  37  1   
 27  15  38  1   
 28  16  18  1   
 29  16  39  1   
 30  16  40  1   
 31  17  18  1   
 32  17  41  1   
 33  17  42  1   
 34  18  19  am  
 35  19  20  2   
 36  19  21  2   
 37  19  22  am  
 38  22  23  1   
 39  22  24  1   
 40  23  25  1   
 41  23  43  1   
 42  23  44  1   
 43  24  26  1   
 44  24  45  1   
 45  24  46  1   
 46  25  27  1   
 47  25  47  1   
 48  25  48  1   
 49  26  28  1   
 50  26  49  1   
 51  26  50  1   
 52  27  28  1   
 53  27  51  1   
 54  27  52  1   
 55  28  53  1   
 56  28  54  1   
@<TRIPOS>SUBSTRUCTURE
  1 ****  14 GROUP 4 **** **** 0

# MOE 2024.06 (io_trps.svl 2023.06)
