@<TRIPOS>MOLECULE
8-(3-Methoxy-propyl)-1,7-dimethyl-3-(2-oxo-2-phenyl-ethyl)-1H,8H-imidazo[2,1-f]p
54 57 1 0 0 
SMALL
USER_CHARGES


@<TRIPOS>ATOM
  1 O        0.6190    -0.5350     0.8120 O.2   1 <1>  -0.5740 
  2 C        1.5220     0.2570     0.9880 C.2   1 <1>   0.6870 
  3 N        1.2510     1.4890     1.5670 N.am  1 <1>  -0.4250 
  4 N        2.8180    -0.0660     0.6030 N.am  1 <1>  -0.4410 
  5 C        2.2650     2.3910     1.8440 C.2   1 <1>   0.7000 
  6 C       -0.1220     2.0540     1.3740 C.3   1 <1>   0.1950 
  7 C        3.8000     0.8910     0.7690 C.2   1 <1>   0.4210 
  8 C        3.1110    -1.3720    -0.0570 C.3   1 <1>   0.0530 
  9 O        2.0330     3.4120     2.4700 O.2   1 <1>  -0.5740 
 10 C        3.5730     2.0830     1.3730 C.2   1 <1>   0.2710 
 11 C       -0.2590     2.7160    -0.0020 C.2   1 <1>   0.4180 
 12 N        5.1070     0.8270     0.3810 N.pl3 1 <1>  -0.7030 
 13 N        4.7960     2.7690     1.3590 N.pl3 1 <1>  -0.6330 
 14 O        0.7490     2.8610    -0.6570 O.2   1 <1>  -0.5740 
 15 C       -1.5690     3.1370    -0.4610 C.ar  1 <1>   0.0790 
 16 C        5.6740     1.9860     0.7460 C.cat 1 <1>   1.0690 
 17 C        5.4480     3.9400     1.6830 C.2   1 <1>   0.2230 
 18 C       -1.7310     3.6290    -1.7600 C.ar  1 <1>  -0.1570 
 19 C       -2.7170     3.0830     0.3390 C.ar  1 <1>  -0.1570 
 20 N        6.8800     2.5760     0.6550 N.pl3 1 <1>  -0.5710 
 21 C        6.7240     3.8210     1.2540 C.2   1 <1>   0.1580 
 22 C       -2.9610     4.0390    -2.2380 C.ar  1 <1>  -0.1570 
 23 C       -3.9500     3.4910    -0.1350 C.ar  1 <1>  -0.1570 
 24 C        8.1550     2.0850     0.0540 C.3   1 <1>   0.1610 
 25 C        7.8590     4.8230     1.3610 C.3   1 <1>  -0.1090 
 26 C       -4.0760     3.9700    -1.4250 C.ar  1 <1>  -0.1570 
 27 C        8.0170     0.6800    -0.5300 C.3   1 <1>  -0.1670 
 28 C        9.3220     0.1790    -1.1350 C.3   1 <1>   0.1130 
 29 O        9.0510    -1.0890    -1.6180 O.3   1 <1>  -0.5640 
 30 C       10.1440    -1.7120    -2.2140 C.3   1 <1>   0.0330 
 31 H       -0.3250     2.7830     2.1380 H     1 <1>   0.0730 
 32 H       -0.8520     1.2690     1.4680 H     1 <1>   0.0730 
 33 H        2.4020    -2.1190     0.2570 H     1 <1>   0.0730 
 34 H        4.0960    -1.7150     0.2050 H     1 <1>   0.0730 
 35 H        3.0410    -1.2600    -1.1260 H     1 <1>   0.0730 
 36 H        5.5810     0.0810    -0.1260 H     1 <1>   0.4450 
 37 H        4.9550     4.7580     2.1870 H     1 <1>   0.1430 
 38 H       -0.8740     3.6900    -2.4090 H     1 <1>   0.1430 
 39 H       -2.6700     2.7220     1.3490 H     1 <1>   0.1430 
 40 H       -3.0510     4.4120    -3.2440 H     1 <1>   0.1430 
 41 H       -4.8190     3.4380     0.5000 H     1 <1>   0.1430 
 42 H        8.9190     2.0810     0.8130 H     1 <1>   0.0730 
 43 H        8.4580     2.7650    -0.7250 H     1 <1>   0.0730 
 44 H        8.6730     4.4060     1.9270 H     1 <1>   0.0730 
 45 H        7.5240     5.7170     1.8560 H     1 <1>   0.0730 
 46 H        8.2150     5.0910     0.3810 H     1 <1>   0.0730 
 47 H       -5.0360     4.2880    -1.7950 H     1 <1>   0.1430 
 48 H        7.2820     0.6850    -1.3150 H     1 <1>   0.0730 
 49 H        7.7400    -0.0090     0.2480 H     1 <1>   0.0730 
 50 H       10.1000     0.1100    -0.3930 H     1 <1>   0.0730 
 51 H        9.6410     0.8020    -1.9550 H     1 <1>   0.0730 
 52 H        9.8320    -2.6840    -2.5530 H     1 <1>   0.0730 
 53 H       10.9330    -1.8180    -1.4890 H     1 <1>   0.0730 
 54 H       10.4750    -1.1250    -3.0530 H     1 <1>   0.0730 
@<TRIPOS>BOND
  1   1   2  2   
  2   2   3  am  
  3   2   4  am  
  4   3   5  am  
  5   3   6  1   
  6   4   7  1   
  7   4   8  1   
  8   5   9  2   
  9   5  10  1   
 10   6  11  1   
 11   6  31  1   
 12   6  32  1   
 13   7  10  2   
 14   7  12  1   
 15   8  33  1   
 16   8  34  1   
 17   8  35  1   
 18  10  13  1   
 19  11  14  2   
 20  11  15  1   
 21  12  16  ar  
 22  12  36  1   
 23  13  16  ar  
 24  13  17  1   
 25  15  18  ar  
 26  15  19  ar  
 27  16  20  ar  
 28  17  21  2   
 29  17  37  1   
 30  18  22  ar  
 31  18  38  1   
 32  19  23  ar  
 33  19  39  1   
 34  20  21  1   
 35  20  24  1   
 36  21  25  1   
 37  22  26  ar  
 38  22  40  1   
 39  23  26  ar  
 40  23  41  1   
 41  24  27  1   
 42  24  42  1   
 43  24  43  1   
 44  25  44  1   
 45  25  45  1   
 46  25  46  1   
 47  26  47  1   
 48  27  28  1   
 49  27  48  1   
 50  27  49  1   
 51  28  29  1   
 52  28  50  1   
 53  28  51  1   
 54  29  30  1   
 55  30  52  1   
 56  30  53  1   
 57  30  54  1   
@<TRIPOS>SUBSTRUCTURE
  1 ****  10 GROUP 4 **** **** 0

# MOE 2024.06 (io_trps.svl 2023.06)
