@<TRIPOS>MOLECULE
3-(2-Methoxy-ethyl)-1-methyl-8-o-tolyl-5,6,7,8-tetrahydro-1H-1,3,4b,8,9-pentaaza
51 54 1 0 0 
SMALL
USER_CHARGES


@<TRIPOS>ATOM
  1 O        1.1060     0.2180    -1.1850 O.2   1 <1>  -0.5740 
  2 C        2.0240     0.9370    -0.8520 C.2   1 <1>   0.6860 
  3 N        1.8420     2.3150    -0.7850 N.am  1 <1>  -0.4250 
  4 N        3.2570     0.3800    -0.5330 N.am  1 <1>  -0.4410 
  5 C        2.8620     3.1560    -0.3640 C.2   1 <1>   0.6990 
  6 C        0.5210     2.8980    -1.1840 C.3   1 <1>   0.1330 
  7 C        4.2780     1.2310    -0.1580 C.2   1 <1>   0.4210 
  8 C        3.4750    -1.0960    -0.6100 C.3   1 <1>   0.0520 
  9 O        2.6840     4.3560    -0.2480 O.2   1 <1>  -0.5740 
 10 C        4.1320     2.5700    -0.0620 C.2   1 <1>   0.2710 
 11 C       -0.4580     2.8760    -0.0100 C.3   1 <1>   0.1130 
 12 N        5.5600     0.9080     0.1720 N.pl3 1 <1>  -0.7040 
 13 N        5.3780     3.0690     0.3440 N.pl3 1 <1>  -0.7670 
 14 O       -1.6350     3.4890    -0.4220 O.3   1 <1>  -0.5640 
 15 C        6.1990     2.0350     0.4730 C.cat 1 <1>   1.0690 
 16 C        5.7530     4.4760     0.5940 C.3   1 <1>   0.3480 
 17 C       -2.6300     3.5070     0.5490 C.3   1 <1>   0.0320 
 18 N        7.4820     2.1550     0.8570 N.pl3 1 <1>  -0.5800 
 19 C        7.2770     4.6040     0.4810 C.3   1 <1>  -0.1670 
 20 C        8.3400     1.0550     0.9560 C.ar  1 <1>   0.3050 
 21 C        8.0170     3.4900     1.2370 C.3   1 <1>   0.1610 
 22 C        8.9440     0.5030    -0.1760 C.ar  1 <1>  -0.1510 
 23 C        8.5680     0.4850     2.2020 C.ar  1 <1>  -0.1570 
 24 C        9.7480    -0.6180    -0.0380 C.ar  1 <1>  -0.1570 
 25 C        8.7570     1.1030    -1.5670 C.3   1 <1>  -0.1040 
 26 C        9.3730    -0.6310     2.3290 C.ar  1 <1>  -0.1570 
 27 C        9.9600    -1.1840     1.2060 C.ar  1 <1>  -0.1570 
 28 H        0.1050     2.3310    -2.0000 H     1 <1>   0.0720 
 29 H        0.6490     3.9130    -1.5180 H     1 <1>   0.0720 
 30 H        2.5380    -1.6230    -0.5550 H     1 <1>   0.0720 
 31 H        4.0900    -1.4270     0.2080 H     1 <1>   0.0720 
 32 H        3.9530    -1.3430    -1.5420 H     1 <1>   0.0720 
 33 H       -0.0630     3.4300     0.8240 H     1 <1>   0.0720 
 34 H       -0.6820     1.8620     0.2750 H     1 <1>   0.0720 
 35 H        5.9960    -0.0120     0.1950 H     1 <1>   0.4450 
 36 H        5.4270     4.7590     1.5820 H     1 <1>   0.0720 
 37 H        5.2730     5.1230    -0.1220 H     1 <1>   0.0720 
 38 H       -3.4930     3.9980     0.1350 H     1 <1>   0.0720 
 39 H       -2.2790     4.0520     1.4080 H     1 <1>   0.0720 
 40 H       -2.8820     2.4950     0.8180 H     1 <1>   0.0720 
 41 H        7.5820     5.5620     0.8650 H     1 <1>   0.0720 
 42 H        7.5590     4.5770    -0.5570 H     1 <1>   0.0720 
 43 H        9.0700     3.5360     1.0090 H     1 <1>   0.0720 
 44 H        7.8990     3.6240     2.3000 H     1 <1>   0.0720 
 45 H        8.1160     0.9110     3.0790 H     1 <1>   0.1430 
 46 H       10.2240    -1.0610    -0.8970 H     1 <1>   0.1430 
 47 H        8.9170     2.1660    -1.5420 H     1 <1>   0.0720 
 48 H        7.7670     0.9030    -1.9340 H     1 <1>   0.0720 
 49 H        9.4630     0.6820    -2.2610 H     1 <1>   0.0720 
 50 H        9.5490    -1.0710     3.2970 H     1 <1>   0.1430 
 51 H       10.5890    -2.0540     1.3010 H     1 <1>   0.1430 
@<TRIPOS>BOND
  1   1   2  2   
  2   2   3  am  
  3   2   4  am  
  4   3   5  am  
  5   3   6  1   
  6   4   7  1   
  7   4   8  1   
  8   5   9  2   
  9   5  10  1   
 10   6  11  1   
 11   6  28  1   
 12   6  29  1   
 13   7  10  2   
 14   7  12  1   
 15   8  30  1   
 16   8  31  1   
 17   8  32  1   
 18  10  13  1   
 19  11  14  1   
 20  11  33  1   
 21  11  34  1   
 22  12  15  ar  
 23  12  35  1   
 24  13  15  ar  
 25  13  16  1   
 26  14  17  1   
 27  15  18  ar  
 28  16  19  1   
 29  16  36  1   
 30  16  37  1   
 31  17  38  1   
 32  17  39  1   
 33  17  40  1   
 34  18  20  1   
 35  18  21  1   
 36  19  21  1   
 37  19  41  1   
 38  19  42  1   
 39  20  22  ar  
 40  20  23  ar  
 41  21  43  1   
 42  21  44  1   
 43  22  24  ar  
 44  22  25  1   
 45  23  26  ar  
 46  23  45  1   
 47  24  27  ar  
 48  24  46  1   
 49  25  47  1   
 50  25  48  1   
 51  25  49  1   
 52  26  27  ar  
 53  26  50  1   
 54  27  51  1   
@<TRIPOS>SUBSTRUCTURE
  1 ****   7 GROUP 4 **** **** 0

# MOE 2024.06 (io_trps.svl 2023.06)
