@<TRIPOS>MOLECULE
2-Phenoxymethyl-5,6,7,8-tetrahydro-3H-benzo[4,5]thieno[2,3-d]pyrimidin-4-one
38 41 1 0 0 
SMALL
USER_CHARGES


@<TRIPOS>ATOM
  1 S        0.8480     0.4580     1.6830 S.3   1 <1>  -0.0800 
  2 C        1.5470     1.1600     0.2400 C.2   1 <1>   0.1240 
  3 C       -0.7460     1.0280     1.1940 C.2   1 <1>  -0.1400 
  4 N        2.8580     1.1130    -0.0950 N.pl3 1 <1>  -0.5340 
  5 C        0.6290     1.7810    -0.5380 C.2   1 <1>  -0.0860 
  6 C       -0.6930     1.7020     0.0330 C.2   1 <1>  -0.1810 
  7 C       -1.9600     0.7430     2.0490 C.3   1 <1>   0.0200 
  8 C        3.2690     1.7130    -1.2520 C.2   1 <1>   0.4390 
  9 C        1.1250     2.3820    -1.7370 C.2   1 <1>   0.8670 
 10 C       -1.9390     2.3080    -0.5940 C.3   1 <1>   0.0210 
 11 C       -3.2300     1.0520     1.2350 C.3   1 <1>  -0.1600 
 12 N        2.4670     2.3230    -2.0510 N.2   1 <1>  -0.6610 
 13 C        4.7560     1.6440    -1.5910 C.3   1 <1>   0.1810 
 14 O        0.3880     2.9630    -2.5200 O.2   1 <1>  -0.5700 
 15 C       -3.0980     2.3580     0.4240 C.3   1 <1>  -0.1600 
 16 O        5.5570     1.4660    -0.4280 O.3   1 <1>  -0.3630 
 17 C        5.7240     2.4530     0.4890 C.ar  1 <1>   0.0820 
 18 C        6.4820     2.1380     1.6060 C.ar  1 <1>  -0.1500 
 19 C        5.1780     3.7300     0.3700 C.ar  1 <1>  -0.1500 
 20 C        6.6920     3.0780     2.6000 C.ar  1 <1>  -0.1500 
 21 C        5.3890     4.6680     1.3660 C.ar  1 <1>  -0.1500 
 22 C        6.1440     4.3430     2.4800 C.ar  1 <1>  -0.1500 
 23 H        3.5610     0.7050     0.5300 H     1 <1>   0.4000 
 24 H       -1.9210     1.3650     2.9260 H     1 <1>   0.0800 
 25 H       -1.9630    -0.2880     2.3580 H     1 <1>   0.0800 
 26 H       -2.2230     1.7130    -1.4440 H     1 <1>   0.0800 
 27 H       -1.7300     3.3060    -0.9400 H     1 <1>   0.0800 
 28 H       -4.0750     1.1150     1.8990 H     1 <1>   0.0800 
 29 H       -3.4090     0.2390     0.5510 H     1 <1>   0.0800 
 30 H        5.0780     2.5330    -2.1030 H     1 <1>   0.0800 
 31 H        4.9300     0.7990    -2.2300 H     1 <1>   0.0800 
 32 H       -4.0180     2.5600    -0.0960 H     1 <1>   0.0800 
 33 H       -2.9220     3.1720     1.1070 H     1 <1>   0.0800 
 34 H        6.9070     1.1550     1.6940 H     1 <1>   0.1500 
 35 H        4.5880     4.0160    -0.4800 H     1 <1>   0.1500 
 36 H        7.2810     2.8260     3.4650 H     1 <1>   0.1500 
 37 H        4.9650     5.6530     1.2750 H     1 <1>   0.1500 
 38 H        6.3050     5.0750     3.2530 H     1 <1>   0.1500 
@<TRIPOS>BOND
  1   1   2  1   
  2   1   3  1   
  3   2   4  1   
  4   2   5  2   
  5   3   6  2   
  6   3   7  1   
  7   4   8  1   
  8   4  23  1   
  9   5   6  1   
 10   5   9  1   
 11   6  10  1   
 12   7  11  1   
 13   7  24  1   
 14   7  25  1   
 15   8  12  2   
 16   8  13  1   
 17   9  12  1   
 18   9  14  2   
 19  10  15  1   
 20  10  26  1   
 21  10  27  1   
 22  11  15  1   
 23  11  28  1   
 24  11  29  1   
 25  13  16  1   
 26  13  30  1   
 27  13  31  1   
 28  15  32  1   
 29  15  33  1   
 30  16  17  1   
 31  17  18  ar  
 32  17  19  ar  
 33  18  20  ar  
 34  18  34  1   
 35  19  21  ar  
 36  19  35  1   
 37  20  22  ar  
 38  20  36  1   
 39  21  22  ar  
 40  21  37  1   
 41  22  38  1   
@<TRIPOS>SUBSTRUCTURE
  1 ****   2 GROUP 4 **** **** 0

# MOE 2024.06 (io_trps.svl 2023.06)
