@<TRIPOS>MOLECULE
8-(2-Hydroxy-propylamino)-3-methyl-7-(3-phenoxy-propyl)-3,7-dihydro-purine-2,6-d
51 53 1 0 0 
SMALL
USER_CHARGES


@<TRIPOS>ATOM
  1 O        1.0250     1.3070     1.8900 O.2   1 <1>  -0.5750 
  2 C        2.0650     1.5320     1.3170 C.2   1 <1>   0.6860 
  3 N        3.1070     0.6160     1.2850 N.am  1 <1>  -0.4420 
  4 N        2.2090     2.7310     0.6800 N.am  1 <1>  -0.4950 
  5 C        4.2540     0.9730     0.5930 C.2   1 <1>   0.4200 
  6 C        2.9920    -0.7060     1.9670 C.3   1 <1>   0.0520 
  7 C        3.3290     3.0960    -0.0090 C.2   1 <1>   0.6990 
  8 N        5.3890     0.2390     0.4270 N.pl3 1 <1>  -0.7040 
  9 C        4.4120     2.1570    -0.0440 C.2   1 <1>   0.2700 
 10 O        3.3540     4.1770    -0.5620 O.2   1 <1>  -0.5750 
 11 C        6.2390     0.9590    -0.2980 C.cat 1 <1>   1.0690 
 12 N        5.7000     2.1340    -0.6130 N.pl3 1 <1>  -0.7670 
 13 N        7.4590     0.5760    -0.6380 N.pl3 1 <1>  -0.7180 
 14 C        6.2870     3.2780    -1.3620 C.3   1 <1>   0.3480 
 15 C        8.3270    -0.5060    -0.1190 C.3   1 <1>   0.1600 
 16 C        6.8340     4.3290    -0.3950 C.3   1 <1>  -0.1670 
 17 C        9.7350     0.0730     0.1520 C.3   1 <1>   0.1930 
 18 C        8.0120     3.8180     0.4460 C.3   1 <1>   0.1120 
 19 O        9.9730     1.1390    -0.7110 O.3   1 <1>  -0.6840 
 20 C       10.8440    -0.9500    -0.0690 C.3   1 <1>  -0.2470 
 21 O        8.3670     4.7990     1.3890 O.3   1 <1>  -0.3680 
 22 C        9.0540     5.9230     1.0590 C.ar  1 <1>   0.0750 
 23 C        9.0990     6.9230     2.0170 C.ar  1 <1>  -0.1570 
 24 C        9.6980     6.1160    -0.1610 C.ar  1 <1>  -0.1570 
 25 C        9.7680     8.1070     1.7650 C.ar  1 <1>  -0.1570 
 26 C       10.3680     7.3020    -0.4110 C.ar  1 <1>  -0.1570 
 27 C       10.4020     8.2970     0.5500 C.ar  1 <1>  -0.1570 
 28 H        1.4260     3.3800     0.7210 H     1 <1>   0.3640 
 29 H        2.0830    -0.7640     2.5420 H     1 <1>   0.0720 
 30 H        3.8220    -0.8480     2.6370 H     1 <1>   0.0720 
 31 H        2.9800    -1.4950     1.2340 H     1 <1>   0.0720 
 32 H        5.5670    -0.7010     0.7650 H     1 <1>   0.4450 
 33 H        8.0570     1.2370    -1.1480 H     1 <1>   0.4450 
 34 H        5.5260     3.7260    -1.9820 H     1 <1>   0.0720 
 35 H        7.0740     2.9350    -2.0120 H     1 <1>   0.0720 
 36 H        8.3980    -1.2820    -0.8630 H     1 <1>   0.0720 
 37 H        7.9270    -0.9380     0.7820 H     1 <1>   0.0720 
 38 H        6.0440     4.6660     0.2530 H     1 <1>   0.0720 
 39 H        7.1590     5.1750    -0.9740 H     1 <1>   0.0720 
 40 H        9.7860     0.4530     1.1600 H     1 <1>   0.0720 
 41 H        8.8720     3.5680    -0.1480 H     1 <1>   0.0720 
 42 H        7.7250     2.9520     1.0130 H     1 <1>   0.0720 
 43 H       10.9180     1.3990    -0.6490 H     1 <1>   0.3940 
 44 H       10.8470    -1.2980    -1.0880 H     1 <1>   0.0720 
 45 H       10.6970    -1.7970     0.5770 H     1 <1>   0.0720 
 46 H       11.8030    -0.5220     0.1620 H     1 <1>   0.0720 
 47 H        8.6060     6.7710     2.9600 H     1 <1>   0.1430 
 48 H        9.6960     5.3650    -0.9250 H     1 <1>   0.1430 
 49 H        9.7950     8.8790     2.5140 H     1 <1>   0.1430 
 50 H       10.8650     7.4530    -1.3530 H     1 <1>   0.1430 
 51 H       10.9220     9.2180     0.3530 H     1 <1>   0.1430 
@<TRIPOS>BOND
  1   1   2  2   
  2   2   3  am  
  3   2   4  am  
  4   3   5  1   
  5   3   6  1   
  6   4   7  am  
  7   4  28  1   
  8   5   8  1   
  9   5   9  2   
 10   6  29  1   
 11   6  30  1   
 12   6  31  1   
 13   7   9  1   
 14   7  10  2   
 15   8  11  ar  
 16   8  32  1   
 17   9  12  1   
 18  11  12  ar  
 19  11  13  ar  
 20  12  14  1   
 21  13  15  1   
 22  13  33  1   
 23  14  16  1   
 24  14  34  1   
 25  14  35  1   
 26  15  17  1   
 27  15  36  1   
 28  15  37  1   
 29  16  18  1   
 30  16  38  1   
 31  16  39  1   
 32  17  19  1   
 33  17  20  1   
 34  17  40  1   
 35  18  21  1   
 36  18  41  1   
 37  18  42  1   
 38  19  43  1   
 39  20  44  1   
 40  20  45  1   
 41  20  46  1   
 42  21  22  1   
 43  22  23  ar  
 44  22  24  ar  
 45  23  25  ar  
 46  23  47  1   
 47  24  26  ar  
 48  24  48  1   
 49  25  27  ar  
 50  25  49  1   
 51  26  27  ar  
 52  26  50  1   
 53  27  51  1   
@<TRIPOS>SUBSTRUCTURE
  1 ****  12 GROUP 4 **** **** 0

# MOE 2024.06 (io_trps.svl 2023.06)
