@<TRIPOS>MOLECULE
1-Cyclopropyl-4-hydroxy-2-oxo-1,2,5,6,7,8-hexahydro-quinoline-3-carboxylic acid
45 48 1 0 0 
SMALL
USER_CHARGES


@<TRIPOS>ATOM
  1 O       -0.3560     0.3180     0.9660 O.3   1 <1>  -0.8500 
  2 C       -1.3540     0.9320     0.5760 C.2   1 <1>  -0.0500 
  3 N       -2.5240     0.2040     0.3560 N.pl3 1 <1>  -0.3690 
  4 C       -1.3320     2.3400     0.3740 C.2   1 <1>   0.0290 
  5 C       -3.7400     0.8680     0.2170 C.2   1 <1>  -0.0380 
  6 C       -2.4360    -1.2870     0.3520 C.3   1 <1>   0.0690 
  7 C       -2.5370     2.9610    -0.0170 C.2   1 <1>   0.5410 
  8 C       -0.1410     3.0950     0.5540 C.2   1 <1>   0.6160 
  9 C       -3.7600     2.2100     0.0100 C.2   1 <1>  -0.1240 
 10 C       -5.0270     0.0470     0.3270 C.3   1 <1>  -0.0220 
 11 C       -1.4770    -1.9580    -0.5870 C.3   1 <1>  -0.2000 
 12 C       -2.9440    -2.0700    -0.8250 C.3   1 <1>  -0.2000 
 13 O       -2.5980     4.1390    -0.4120 O.2   1 <1>  -0.5700 
 14 O       -0.1360     4.2950     0.8370 O.2   1 <1>  -0.5700 
 15 N        1.0830     2.4770     0.4460 N.am  1 <1>  -0.5470 
 16 C       -5.0660     2.9900    -0.1800 C.3   1 <1>  -0.0220 
 17 C       -6.2630     0.9150     0.5850 C.3   1 <1>  -0.1600 
 18 C        2.3840     2.9310     0.3900 C.ar  1 <1>   0.4270 
 19 C       -6.2900     2.0910    -0.3900 C.3   1 <1>  -0.1600 
 20 N        3.3080     2.0240     0.6880 N.ar  1 <1>  -0.6200 
 21 C        2.7070     4.2380     0.0200 C.ar  1 <1>  -0.1500 
 22 C        4.5630     2.4300     0.6350 C.ar  1 <1>   0.1600 
 23 C        4.0200     4.6520    -0.0330 C.ar  1 <1>  -0.1430 
 24 C        4.9700     3.7050     0.2890 C.ar  1 <1>  -0.1500 
 25 C        4.4060     6.0660    -0.4230 C.3   1 <1>  -0.0970 
 26 H       -2.4760    -1.6860     1.3500 H     1 <1>   0.1000 
 27 H       -4.9350    -0.6590     1.1320 H     1 <1>   0.0800 
 28 H       -5.1690    -0.4970    -0.5870 H     1 <1>   0.0800 
 29 H       -0.9250    -2.7940    -0.2010 H     1 <1>   0.1000 
 30 H       -0.8640    -1.2970    -1.1740 H     1 <1>   0.1000 
 31 H       -3.3430    -1.5450    -1.6730 H     1 <1>   0.1000 
 32 H       -3.4170    -3.0180    -0.6500 H     1 <1>   0.1000 
 33 H        0.9530     1.4570     0.6000 H     1 <1>   0.3700 
 34 H       -4.9800     3.6470    -1.0280 H     1 <1>   0.0800 
 35 H       -5.2160     3.6010     0.6930 H     1 <1>   0.0800 
 36 H       -6.2310     1.2870     1.5950 H     1 <1>   0.0800 
 37 H       -7.1520     0.3190     0.4740 H     1 <1>   0.0800 
 38 H       -6.2840     1.7150    -1.3990 H     1 <1>   0.0800 
 39 H       -7.1880     2.6680    -0.2530 H     1 <1>   0.0800 
 40 H        1.9180     4.9200    -0.2280 H     1 <1>   0.1500 
 41 H        5.3130     1.6980     0.8820 H     1 <1>   0.1500 
 42 H        6.0160     3.9510     0.2730 H     1 <1>   0.1500 
 43 H        3.5290     6.6770    -0.5480 H     1 <1>   0.0800 
 44 H        4.9520     6.0540    -1.3490 H     1 <1>   0.0800 
 45 H        5.0210     6.5030     0.3420 H     1 <1>   0.0800 
@<TRIPOS>BOND
  1   1   2  1   
  2   2   3  1   
  3   2   4  2   
  4   3   5  1   
  5   3   6  1   
  6   4   7  1   
  7   4   8  1   
  8   5   9  2   
  9   5  10  1   
 10   6  11  1   
 11   6  12  1   
 12   6  26  1   
 13   7   9  1   
 14   7  13  2   
 15   8  14  2   
 16   8  15  am  
 17   9  16  1   
 18  10  17  1   
 19  10  27  1   
 20  10  28  1   
 21  11  12  1   
 22  11  29  1   
 23  11  30  1   
 24  12  31  1   
 25  12  32  1   
 26  15  18  1   
 27  15  33  1   
 28  16  19  1   
 29  16  34  1   
 30  16  35  1   
 31  17  19  1   
 32  17  36  1   
 33  17  37  1   
 34  18  20  ar  
 35  18  21  ar  
 36  19  38  1   
 37  19  39  1   
 38  20  22  ar  
 39  21  23  ar  
 40  21  40  1   
 41  22  24  ar  
 42  22  41  1   
 43  23  24  ar  
 44  23  25  1   
 45  24  42  1   
 46  25  43  1   
 47  25  44  1   
 48  25  45  1   
@<TRIPOS>SUBSTRUCTURE
  1 ****   4 GROUP 4 **** **** 0

# MOE 2024.06 (io_trps.svl 2023.06)
