@<TRIPOS>MOLECULE
1-(4-Ethoxy-phenyl)-5-oxo-pyrrolidine-3-carboxylic acid 2-(3,4-dimethyl-phenyl)-
54 56 1 0 0 
SMALL
USER_CHARGES


@<TRIPOS>ATOM
  1 O        2.3620    -1.7090     2.5510 O.2   1 <1>  -0.5700 
  2 C        2.9740    -1.3410     1.5790 C.2   1 <1>   0.5690 
  3 N        3.1160    -2.0030     0.3950 N.am  1 <1>  -0.4770 
  4 C        3.7180    -0.0370     1.5820 C.3   1 <1>  -0.0990 
  5 C        2.5680    -3.2500     0.0190 C.ar  1 <1>   0.1170 
  6 C        4.0040    -1.2570    -0.5180 C.3   1 <1>   0.1400 
  7 C        4.2140     0.1210     0.1310 C.3   1 <1>  -0.0190 
  8 C        1.3220    -3.6590     0.4860 C.ar  1 <1>  -0.1500 
  9 C        3.2550    -4.1070    -0.8390 C.ar  1 <1>  -0.1500 
 10 C        5.6590     0.5910     0.0180 C.2   1 <1>   0.6590 
 11 C        0.7840    -4.8770     0.1130 C.ar  1 <1>  -0.1500 
 12 C        2.7220    -5.3270    -1.2170 C.ar  1 <1>  -0.1500 
 13 O        6.2270     1.1310     0.9300 O.2   1 <1>  -0.5700 
 14 O        6.2820     0.3090    -1.1190 O.3   1 <1>  -0.4300 
 15 C        1.4760    -5.7200    -0.7400 C.ar  1 <1>   0.0830 
 16 C        7.6970     0.4090    -1.2740 C.3   1 <1>   0.1810 
 17 O        0.8770    -6.8970    -1.0570 O.3   1 <1>  -0.3630 
 18 C        8.3200    -0.9740    -1.4390 C.2   1 <1>   0.4230 
 19 C        1.4970    -7.8160    -1.9250 C.3   1 <1>   0.1200 
 20 O        9.2250    -1.0900    -2.2260 O.2   1 <1>  -0.5700 
 21 C        7.7670    -2.0890    -0.7020 C.ar  1 <1>   0.0860 
 22 C        0.5700    -9.0180    -2.0780 C.3   1 <1>  -0.2400 
 23 C        7.3780    -1.9880     0.6340 C.ar  1 <1>  -0.1500 
 24 C        7.5610    -3.3140    -1.3320 C.ar  1 <1>  -0.1500 
 25 C        6.7330    -3.0210     1.2920 C.ar  1 <1>  -0.1430 
 26 C        6.9380    -4.3610    -0.6820 C.ar  1 <1>  -0.1500 
 27 C        6.5020    -4.2190     0.6260 C.ar  1 <1>  -0.1430 
 28 C        6.2850    -2.8200     2.7340 C.3   1 <1>  -0.0970 
 29 C        5.7810    -5.3780     1.3000 C.3   1 <1>  -0.0970 
 30 H        4.5240    -0.1170     2.2870 H     1 <1>   0.0800 
 31 H        3.0670     0.7680     1.8700 H     1 <1>   0.0800 
 32 H        3.5500    -1.1650    -1.4900 H     1 <1>   0.0800 
 33 H        4.9330    -1.7910    -0.6050 H     1 <1>   0.0800 
 34 H        3.5900     0.8320    -0.3790 H     1 <1>   0.0800 
 35 H        0.7650    -3.0220     1.1480 H     1 <1>   0.1500 
 36 H        4.2210    -3.8320    -1.2130 H     1 <1>   0.1500 
 37 H       -0.1780    -5.1810     0.4830 H     1 <1>   0.1500 
 38 H        3.2890    -5.9530    -1.8790 H     1 <1>   0.1500 
 39 H        8.1390     0.9140    -0.4330 H     1 <1>   0.0800 
 40 H        7.8850     0.9910    -2.1580 H     1 <1>   0.0800 
 41 H        2.4360    -8.1130    -1.4920 H     1 <1>   0.0800 
 42 H        1.6560    -7.3350    -2.8740 H     1 <1>   0.0800 
 43 H        0.4040    -9.4800    -1.1220 H     1 <1>   0.0800 
 44 H        1.0160    -9.7410    -2.7370 H     1 <1>   0.0800 
 45 H       -0.3710    -8.7080    -2.4950 H     1 <1>   0.0800 
 46 H        7.5800    -1.0760     1.1680 H     1 <1>   0.1500 
 47 H        7.8900    -3.4370    -2.3510 H     1 <1>   0.1500 
 48 H        6.7900    -5.2910    -1.2030 H     1 <1>   0.1500 
 49 H        6.5140    -1.8280     3.0780 H     1 <1>   0.0800 
 50 H        6.7840    -3.5230     3.3750 H     1 <1>   0.0800 
 51 H        5.2230    -2.9670     2.8160 H     1 <1>   0.0800 
 52 H        6.3300    -5.7010     2.1660 H     1 <1>   0.0800 
 53 H        5.6800    -6.2140     0.6320 H     1 <1>   0.0800 
 54 H        4.7950    -5.0730     1.6040 H     1 <1>   0.0800 
@<TRIPOS>BOND
  1   1   2  2   
  2   2   3  am  
  3   2   4  1   
  4   3   5  1   
  5   3   6  1   
  6   4   7  1   
  7   4  30  1   
  8   4  31  1   
  9   5   8  ar  
 10   5   9  ar  
 11   6   7  1   
 12   6  32  1   
 13   6  33  1   
 14   7  10  1   
 15   7  34  1   
 16   8  11  ar  
 17   8  35  1   
 18   9  12  ar  
 19   9  36  1   
 20  10  13  2   
 21  10  14  1   
 22  11  15  ar  
 23  11  37  1   
 24  12  15  ar  
 25  12  38  1   
 26  14  16  1   
 27  15  17  1   
 28  16  18  1   
 29  16  39  1   
 30  16  40  1   
 31  17  19  1   
 32  18  20  2   
 33  18  21  1   
 34  19  22  1   
 35  19  41  1   
 36  19  42  1   
 37  21  23  ar  
 38  21  24  ar  
 39  22  43  1   
 40  22  44  1   
 41  22  45  1   
 42  23  25  ar  
 43  23  46  1   
 44  24  26  ar  
 45  24  47  1   
 46  25  27  ar  
 47  25  28  1   
 48  26  27  ar  
 49  26  48  1   
 50  27  29  1   
 51  28  49  1   
 52  28  50  1   
 53  28  51  1   
 54  29  52  1   
 55  29  53  1   
 56  29  54  1   
@<TRIPOS>SUBSTRUCTURE
  1 ****   6 GROUP 4 **** **** 0

# MOE 2024.06 (io_trps.svl 2023.06)
