@<TRIPOS>MOLECULE
1-(3-Phenylmethanesulfonyl-propionyl)-piperidine-4-carboxylic acid ethyl ester
50 51 1 0 0 
SMALL
USER_CHARGES


@<TRIPOS>ATOM
  1 S        0.5580    -1.3950    -1.2010 S.o2  1 <1>   1.0900 
  2 O       -0.2000    -1.2750    -2.4250 O.2   1 <1>  -0.6500 
  3 O        1.6920    -2.2930    -1.1690 O.2   1 <1>  -0.6500 
  4 C       -0.5520    -1.8470     0.1390 C.3   1 <1>   0.0890 
  5 C        1.1560     0.2380    -0.7620 C.3   1 <1>  -0.0550 
  6 C       -1.5790    -0.7710     0.4650 C.ar  1 <1>  -0.1440 
  7 C        2.1020     0.2330     0.4500 C.3   1 <1>  -0.0990 
  8 C       -1.4690    -0.0160     1.6250 C.ar  1 <1>  -0.1500 
  9 C       -2.6260    -0.5260    -0.4090 C.ar  1 <1>  -0.1500 
 10 C        2.5230     1.6420     0.8120 C.2   1 <1>   0.5690 
 11 C       -2.3950     0.9740     1.9020 C.ar  1 <1>  -0.1500 
 12 C       -3.5530     0.4620    -0.1300 C.ar  1 <1>  -0.1500 
 13 O        1.8800     2.1800     1.6810 O.2   1 <1>  -0.5700 
 14 N        3.5690     2.2680     0.1790 N.am  1 <1>  -0.6600 
 15 C       -3.4380     1.2130     1.0260 C.ar  1 <1>  -0.1500 
 16 C        4.0390     3.6050     0.6360 C.3   1 <1>   0.1400 
 17 C        4.3710     1.7060    -0.9440 C.3   1 <1>   0.1400 
 18 C        5.4980     3.5020     1.0900 C.3   1 <1>  -0.1600 
 19 C        5.8300     1.5750    -0.5030 C.3   1 <1>  -0.1600 
 20 C        6.4050     2.9240    -0.0160 C.3   1 <1>  -0.0190 
 21 C        7.8580     2.7910     0.4740 C.2   1 <1>   0.6590 
 22 O        8.2640     1.7470     0.9090 O.2   1 <1>  -0.5700 
 23 O        8.6750     3.8410     0.4310 O.3   1 <1>  -0.4300 
 24 C        8.4270     5.0780    -0.1930 C.3   1 <1>   0.1200 
 25 C        9.6510     5.9610     0.0200 C.3   1 <1>  -0.2400 
 26 H        0.0220    -2.0590     1.0200 H     1 <1>   0.0800 
 27 H       -1.0700    -2.7500    -0.1230 H     1 <1>   0.0800 
 28 H        0.3250     0.8890    -0.5610 H     1 <1>   0.0800 
 29 H        1.6800     0.6490    -1.6030 H     1 <1>   0.0800 
 30 H        2.9660    -0.3770     0.2630 H     1 <1>   0.0800 
 31 H        1.5990    -0.1890     1.3000 H     1 <1>   0.0800 
 32 H       -0.6660    -0.1830     2.3220 H     1 <1>   0.1500 
 33 H       -2.7240    -1.0980    -1.3180 H     1 <1>   0.1500 
 34 H       -2.3010     1.5600     2.8000 H     1 <1>   0.1500 
 35 H       -4.3630     0.6480    -0.8140 H     1 <1>   0.1500 
 36 H       -4.1580     1.9840     1.2430 H     1 <1>   0.1500 
 37 H        3.4350     3.9660     1.4530 H     1 <1>   0.0800 
 38 H        3.9480     4.3070    -0.1760 H     1 <1>   0.0800 
 39 H        4.3030     2.3710    -1.7880 H     1 <1>   0.0800 
 40 H        4.0040     0.7460    -1.2560 H     1 <1>   0.0800 
 41 H        5.5430     2.8700     1.9600 H     1 <1>   0.0800 
 42 H        5.8430     4.4770     1.3830 H     1 <1>   0.0800 
 43 H        6.4190     1.2080    -1.3240 H     1 <1>   0.0800 
 44 H        5.8870     0.8450     0.2870 H     1 <1>   0.0800 
 45 H        6.3850     3.5890    -0.8580 H     1 <1>   0.0800 
 46 H        7.5570     5.5280     0.2540 H     1 <1>   0.0800 
 47 H        8.2630     4.9080    -1.2430 H     1 <1>   0.0800 
 48 H        9.8190     6.1150     1.0720 H     1 <1>   0.0800 
 49 H        9.5000     6.9170    -0.4470 H     1 <1>   0.0800 
 50 H       10.5200     5.5000    -0.4160 H     1 <1>   0.0800 
@<TRIPOS>BOND
  1   1   2  2   
  2   1   3  2   
  3   1   4  1   
  4   1   5  1   
  5   4   6  1   
  6   4  26  1   
  7   4  27  1   
  8   5   7  1   
  9   5  28  1   
 10   5  29  1   
 11   6   8  ar  
 12   6   9  ar  
 13   7  10  1   
 14   7  30  1   
 15   7  31  1   
 16   8  11  ar  
 17   8  32  1   
 18   9  12  ar  
 19   9  33  1   
 20  10  13  2   
 21  10  14  am  
 22  11  15  ar  
 23  11  34  1   
 24  12  15  ar  
 25  12  35  1   
 26  14  16  1   
 27  14  17  1   
 28  15  36  1   
 29  16  18  1   
 30  16  37  1   
 31  16  38  1   
 32  17  19  1   
 33  17  39  1   
 34  17  40  1   
 35  18  20  1   
 36  18  41  1   
 37  18  42  1   
 38  19  20  1   
 39  19  43  1   
 40  19  44  1   
 41  20  21  1   
 42  20  45  1   
 43  21  22  2   
 44  21  23  1   
 45  23  24  1   
 46  24  25  1   
 47  24  46  1   
 48  24  47  1   
 49  25  48  1   
 50  25  49  1   
 51  25  50  1   
@<TRIPOS>SUBSTRUCTURE
  1 ****  10 GROUP 4 **** **** 0

# MOE 2024.06 (io_trps.svl 2023.06)
