@<TRIPOS>MOLECULE
N-{1-[3-(4-Methoxy-phenyl)-[1,2,4]oxadiazol-5-yl]-ethyl}-2,2-dimethyl-propionami
43 44 1 0 0 
SMALL
USER_CHARGES


@<TRIPOS>ATOM
  1 O       -2.5500    -0.9560    -2.1920 O.2   1 <1>  -0.5700 
  2 C       -2.8980    -0.5120    -1.1250 C.2   1 <1>   0.5690 
  3 N       -4.0390    -1.0410    -0.6130 N.am  1 <1>  -0.7300 
  4 C       -2.0350     0.6250    -0.4920 C.3   1 <1>   0.0610 
  5 C       -4.7920    -0.9340     0.6530 C.3   1 <1>   0.4000 
  6 C       -2.0880     0.7230     1.0460 C.3   1 <1>  -0.2400 
  7 C       -2.4760     1.9790    -1.0760 C.3   1 <1>  -0.2400 
  8 C       -0.5470     0.4230    -0.8580 C.3   1 <1>  -0.2400 
  9 C       -5.5610    -2.2320     0.9160 C.2   1 <1>   0.2980 
 10 C       -5.7580     0.2460     0.5430 C.3   1 <1>  -0.2400 
 11 O       -6.0300    -2.4310     2.1200 O.3   1 <1>  -0.0190 
 12 N       -5.8060    -3.1590     0.0790 N.2   1 <1>  -0.5650 
 13 N       -6.6220    -3.5810     2.0440 N.2   1 <1>  -0.4100 
 14 C       -6.4910    -4.0180     0.8410 C.2   1 <1>   0.4620 
 15 C       -7.0090    -5.2780     0.3320 C.ar  1 <1>   0.0540 
 16 C       -6.7850    -5.6870    -0.9850 C.ar  1 <1>  -0.1500 
 17 C       -7.7540    -6.1350     1.1450 C.ar  1 <1>  -0.1500 
 18 C       -7.2800    -6.8860    -1.4630 C.ar  1 <1>  -0.1500 
 19 C       -8.2530    -7.3370     0.6740 C.ar  1 <1>  -0.1500 
 20 C       -8.0170    -7.7210    -0.6420 C.ar  1 <1>   0.0820 
 21 O       -8.4660    -8.8770    -1.1860 O.3   1 <1>  -0.3620 
 22 C       -9.2270    -9.7970    -0.4340 C.3   1 <1>   0.0400 
 23 H       -4.4300    -1.7860    -1.2000 H     1 <1>   0.3700 
 24 H       -4.1160    -0.7940     1.4740 H     1 <1>   0.0800 
 25 H       -1.3500     1.4180     1.4050 H     1 <1>   0.0800 
 26 H       -3.0420     1.0810     1.3810 H     1 <1>   0.0800 
 27 H       -1.8830    -0.2360     1.4890 H     1 <1>   0.0800 
 28 H       -3.5040     2.1800    -0.8390 H     1 <1>   0.0800 
 29 H       -2.3790     1.9660    -2.1480 H     1 <1>   0.0800 
 30 H       -1.8710     2.7800    -0.6900 H     1 <1>   0.0800 
 31 H       -0.1980    -0.5240    -0.4860 H     1 <1>   0.0800 
 32 H        0.0680     1.2030    -0.4440 H     1 <1>   0.0800 
 33 H       -0.4140     0.4290    -1.9260 H     1 <1>   0.0800 
 34 H       -6.4470     0.0850    -0.2670 H     1 <1>   0.0800 
 35 H       -5.2230     1.1610     0.3750 H     1 <1>   0.0800 
 36 H       -6.3200     0.3450     1.4540 H     1 <1>   0.0800 
 37 H       -6.2150    -5.0580    -1.6460 H     1 <1>   0.1500 
 38 H       -7.9470    -5.8550     2.1660 H     1 <1>   0.1500 
 39 H       -7.0970    -7.1830    -2.4800 H     1 <1>   0.1500 
 40 H       -8.8190    -7.9570     1.3410 H     1 <1>   0.1500 
 41 H       -9.4670   -10.6290    -1.0700 H     1 <1>   0.0800 
 42 H      -10.1300    -9.3150    -0.1040 H     1 <1>   0.0800 
 43 H       -8.6400   -10.1330     0.4020 H     1 <1>   0.0800 
@<TRIPOS>BOND
  1   1   2  2   
  2   2   3  am  
  3   2   4  1   
  4   3   5  1   
  5   3  23  1   
  6   4   6  1   
  7   4   7  1   
  8   4   8  1   
  9   5   9  1   
 10   5  10  1   
 11   5  24  1   
 12   6  25  1   
 13   6  26  1   
 14   6  27  1   
 15   7  28  1   
 16   7  29  1   
 17   7  30  1   
 18   8  31  1   
 19   8  32  1   
 20   8  33  1   
 21   9  11  1   
 22   9  12  2   
 23  10  34  1   
 24  10  35  1   
 25  10  36  1   
 26  11  13  1   
 27  12  14  1   
 28  13  14  2   
 29  14  15  1   
 30  15  16  ar  
 31  15  17  ar  
 32  16  18  ar  
 33  16  37  1   
 34  17  19  ar  
 35  17  38  1   
 36  18  20  ar  
 37  18  39  1   
 38  19  20  ar  
 39  19  40  1   
 40  20  21  1   
 41  21  22  1   
 42  22  41  1   
 43  22  42  1   
 44  22  43  1   
@<TRIPOS>SUBSTRUCTURE
  1 ****  12 GROUP 4 **** **** 0

# MOE 2024.06 (io_trps.svl 2023.06)
