@<TRIPOS>MOLECULE
7-tert-Butyl-5,6,7,8-tetrahydro-benzo[4,5]thieno[2,3-d]pyrimidine-4-thiol
36 38 1 0 0 
SMALL
USER_CHARGES


@<TRIPOS>ATOM
  1 S       -0.1110    -0.0850    -1.1820 S.3   1 <1>  -0.0800 
  2 C        0.8820     1.3410    -0.9550 C.2   1 <1>   0.1660 
  3 C       -1.5220     0.7620    -0.5680 C.2   1 <1>  -0.1400 
  4 N        2.1970     1.3480    -1.2720 N.2   1 <1>  -0.5760 
  5 C        0.1530     2.3860    -0.4420 C.2   1 <1>  -0.0860 
  6 C       -1.2270     2.0210    -0.2120 C.2   1 <1>  -0.1810 
  7 C       -2.8560     0.0530    -0.4990 C.3   1 <1>   0.0200 
  8 C        2.7980     2.4710    -1.0640 C.2   1 <1>   0.4500 
  9 C        0.8690     3.5870    -0.2510 C.2   1 <1>   0.5260 
 10 C       -2.2980     2.9280     0.3710 C.3   1 <1>   0.0210 
 11 C       -3.9920     1.0840    -0.2700 C.3   1 <1>  -0.0800 
 12 N        2.1850     3.5830    -0.5670 N.am  1 <1>  -0.4900 
 13 S        0.2550     4.9860     0.3060 S.2   1 <1>  -0.3800 
 14 C       -3.5460     2.1250     0.7940 C.3   1 <1>  -0.1600 
 15 C       -5.3860     0.4300     0.0160 C.3   1 <1>   0.0000 
 16 C       -5.7230    -0.6240    -1.0550 C.3   1 <1>  -0.2400 
 17 C       -5.4500    -0.2530     1.3940 C.3   1 <1>  -0.2400 
 18 C       -6.5000     1.4930    -0.0390 C.3   1 <1>  -0.2400 
 19 H       -2.8150    -0.6630     0.3000 H     1 <1>   0.0800 
 20 H       -3.0120    -0.4720    -1.4240 H     1 <1>   0.0800 
 21 H        3.8470     2.5550    -1.2910 H     1 <1>   0.0600 
 22 H       -2.5700     3.6630    -0.3660 H     1 <1>   0.0800 
 23 H       -1.9160     3.4400     1.2350 H     1 <1>   0.0800 
 24 H       -4.0900     1.6240    -1.1970 H     1 <1>   0.0800 
 25 H        2.7050     4.4460    -0.4280 H     1 <1>   0.3700 
 26 H       -4.3300     2.8280     1.0020 H     1 <1>   0.0800 
 27 H       -3.3160     1.6110     1.7110 H     1 <1>   0.0800 
 28 H       -5.0650    -1.4710    -0.9910 H     1 <1>   0.0800 
 29 H       -5.6440    -0.2000    -2.0400 H     1 <1>   0.0800 
 30 H       -6.7280    -0.9880    -0.9270 H     1 <1>   0.0800 
 31 H       -5.2930     0.4580     2.1850 H     1 <1>   0.0800 
 32 H       -4.7110    -1.0270     1.4810 H     1 <1>   0.0800 
 33 H       -6.4160    -0.7010     1.5440 H     1 <1>   0.0800 
 34 H       -6.4130     2.1990     0.7660 H     1 <1>   0.0800 
 35 H       -7.4680     1.0320     0.0440 H     1 <1>   0.0800 
 36 H       -6.4640     2.0300    -0.9700 H     1 <1>   0.0800 
@<TRIPOS>BOND
  1   1   2  1   
  2   1   3  1   
  3   2   4  1   
  4   2   5  2   
  5   3   6  2   
  6   3   7  1   
  7   4   8  2   
  8   5   6  1   
  9   5   9  1   
 10   6  10  1   
 11   7  11  1   
 12   7  19  1   
 13   7  20  1   
 14   8  12  1   
 15   8  21  1   
 16   9  12  am  
 17   9  13  2   
 18  10  14  1   
 19  10  22  1   
 20  10  23  1   
 21  11  14  1   
 22  11  15  1   
 23  11  24  1   
 24  12  25  1   
 25  14  26  1   
 26  14  27  1   
 27  15  16  1   
 28  15  17  1   
 29  15  18  1   
 30  16  28  1   
 31  16  29  1   
 32  16  30  1   
 33  17  31  1   
 34  17  32  1   
 35  17  33  1   
 36  18  34  1   
 37  18  35  1   
 38  18  36  1   
@<TRIPOS>SUBSTRUCTURE
  1 ****   6 GROUP 4 **** **** 0

# MOE 2024.06 (io_trps.svl 2023.06)
