@<TRIPOS>MOLECULE
2-Benzyl-8,8-dimethyl-3-propyl-8,9-dihydro-2H,6H-7-oxa-11-thia-2,4,10-triaza-ben
55 59 1 0 0 
SMALL
USER_CHARGES


@<TRIPOS>ATOM
  1 S        0.1150    -1.6130    -0.9530 S.3   1 <1>  -0.0800 
  2 C       -1.1650    -0.4370    -0.6280 C.ar  1 <1>   0.2970 
  3 C        1.3330    -0.3330    -1.0670 C.2   1 <1>  -0.0450 
  4 N       -2.4190    -0.8030    -0.4310 N.ar  1 <1>  -0.5670 
  5 C       -0.6400     0.8490    -0.6190 C.ar  1 <1>   0.0000 
  6 C        2.7090    -0.4840    -1.3250 C.2   1 <1>   0.7150 
  7 C        0.7740     0.8790    -0.8690 C.2   1 <1>   0.1250 
  8 C       -3.2340     0.2140    -0.2020 C.ar  1 <1>   0.1660 
  9 C       -1.5210     1.8890    -0.3760 C.ar  1 <1>  -0.1500 
 10 O        3.2330    -1.5760    -1.5040 O.2   1 <1>  -0.5700 
 11 N        3.4460     0.6840    -1.3670 N.am  1 <1>  -0.4200 
 12 N        1.5400     2.0120    -0.9090 N.2   1 <1>  -0.5750 
 13 C       -2.8440     1.5550    -0.1630 C.ar  1 <1>  -0.1440 
 14 C       -4.6910    -0.1390     0.0160 C.3   1 <1>  -0.0170 
 15 C        2.8070     1.9010    -1.1410 C.2   1 <1>   0.4490 
 16 C        4.9120     0.5770    -1.6440 C.3   1 <1>   0.2840 
 17 C       -3.8570     2.6560     0.1300 C.3   1 <1>   0.2640 
 18 C       -5.4640     0.9840     0.7250 C.3   1 <1>   0.2800 
 19 C        3.6420     3.1880    -1.1650 C.3   1 <1>  -0.0990 
 20 C        5.7290     0.7500    -0.3700 C.ar  1 <1>  -0.1440 
 21 O       -5.1770     2.1910     0.0910 O.3   1 <1>  -0.5600 
 22 C       -5.1300     1.0820     2.2230 C.3   1 <1>  -0.2400 
 23 C       -6.9710     0.7820     0.5610 C.3   1 <1>  -0.2400 
 24 C        2.8470     4.5010    -1.0290 C.3   1 <1>  -0.1600 
 25 C        5.5230    -0.0860     0.7180 C.ar  1 <1>  -0.1500 
 26 C        6.6980     1.7410    -0.2870 C.ar  1 <1>  -0.1500 
 27 C        3.7710     5.7210    -1.0760 C.3   1 <1>  -0.2400 
 28 C        6.2620     0.0740     1.8760 C.ar  1 <1>  -0.1500 
 29 C        7.4380     1.9020     0.8720 C.ar  1 <1>  -0.1500 
 30 C        7.2190     1.0700     1.9550 C.ar  1 <1>  -0.1500 
 31 H       -1.1640     2.9040    -0.3560 H     1 <1>   0.1500 
 32 H       -4.7610    -1.0420     0.5940 H     1 <1>   0.0800 
 33 H       -5.1320    -0.3320    -0.9440 H     1 <1>   0.0800 
 34 H        5.1950     1.3140    -2.3720 H     1 <1>   0.0800 
 35 H        5.1520    -0.3790    -2.0760 H     1 <1>   0.0800 
 36 H       -3.7740     3.4370    -0.6050 H     1 <1>   0.0800 
 37 H       -3.6770     3.0820     1.1010 H     1 <1>   0.0800 
 38 H        4.1880     3.2330    -2.0890 H     1 <1>   0.0800 
 39 H        4.3440     3.1450    -0.3530 H     1 <1>   0.0800 
 40 H       -4.0690     1.1360     2.3900 H     1 <1>   0.0800 
 41 H       -5.4900     0.2070     2.7340 H     1 <1>   0.0800 
 42 H       -5.6050     1.9440     2.6550 H     1 <1>   0.0800 
 43 H       -7.2340     0.7680    -0.4810 H     1 <1>   0.0800 
 44 H       -7.5070     1.5790     1.0430 H     1 <1>   0.0800 
 45 H       -7.2750    -0.1500     1.0030 H     1 <1>   0.0800 
 46 H        2.3090     4.5010    -0.0950 H     1 <1>   0.0800 
 47 H        2.1260     4.5700    -1.8270 H     1 <1>   0.0800 
 48 H        4.7860    -0.8710     0.6710 H     1 <1>   0.1500 
 49 H        6.8850     2.3970    -1.1190 H     1 <1>   0.1500 
 50 H        4.4870     5.6840    -0.2720 H     1 <1>   0.0800 
 51 H        3.1930     6.6230    -0.9730 H     1 <1>   0.0800 
 52 H        4.3000     5.7610    -2.0120 H     1 <1>   0.0800 
 53 H        6.0930    -0.5780     2.7160 H     1 <1>   0.1500 
 54 H        8.1850     2.6740     0.9320 H     1 <1>   0.1500 
 55 H        7.7940     1.1940     2.8560 H     1 <1>   0.1500 
@<TRIPOS>BOND
  1   1   2  1   
  2   1   3  1   
  3   2   4  ar  
  4   2   5  ar  
  5   3   6  1   
  6   3   7  2   
  7   4   8  ar  
  8   5   7  1   
  9   5   9  ar  
 10   6  10  2   
 11   6  11  am  
 12   7  12  1   
 13   8  13  ar  
 14   8  14  1   
 15   9  13  ar  
 16   9  31  1   
 17  11  15  1   
 18  11  16  1   
 19  12  15  2   
 20  13  17  1   
 21  14  18  1   
 22  14  32  1   
 23  14  33  1   
 24  15  19  1   
 25  16  20  1   
 26  16  34  1   
 27  16  35  1   
 28  17  21  1   
 29  17  36  1   
 30  17  37  1   
 31  18  21  1   
 32  18  22  1   
 33  18  23  1   
 34  19  24  1   
 35  19  38  1   
 36  19  39  1   
 37  20  25  ar  
 38  20  26  ar  
 39  22  40  1   
 40  22  41  1   
 41  22  42  1   
 42  23  43  1   
 43  23  44  1   
 44  23  45  1   
 45  24  27  1   
 46  24  46  1   
 47  24  47  1   
 48  25  28  ar  
 49  25  48  1   
 50  26  29  ar  
 51  26  49  1   
 52  27  50  1   
 53  27  51  1   
 54  27  52  1   
 55  28  30  ar  
 56  28  53  1   
 57  29  30  ar  
 58  29  54  1   
 59  30  55  1   
@<TRIPOS>SUBSTRUCTURE
  1 ****   7 GROUP 4 **** **** 0

# MOE 2024.06 (io_trps.svl 2023.06)
