@<TRIPOS>MOLECULE
1-(2,3-Dimethyl-phenyl)-5-oxo-pyrrolidine-3-carboxylic acid (2,5-dimethoxy-pheny
51 53 1 0 0 
SMALL
USER_CHARGES


@<TRIPOS>ATOM
  1 O        0.6310     0.0430     1.5970 O.2   1 <1>  -0.5700 
  2 C        1.6220    -0.2100     0.9600 C.2   1 <1>   0.5690 
  3 N        1.9670    -1.4090     0.4130 N.am  1 <1>  -0.4770 
  4 C        2.6580     0.8370     0.6650 C.3   1 <1>  -0.0990 
  5 C        1.2790    -2.6320     0.4910 C.ar  1 <1>   0.1170 
  6 C        3.2610    -1.3190    -0.2870 C.3   1 <1>   0.1400 
  7 C        3.5020     0.1900    -0.4480 C.3   1 <1>  -0.0190 
  8 C        0.0230    -2.8340    -0.0950 C.ar  1 <1>  -0.1440 
  9 C        1.8860    -3.6790     1.1740 C.ar  1 <1>  -0.1500 
 10 C        4.9710     0.5840    -0.4260 C.2   1 <1>   0.5690 
 11 C       -0.6050    -4.0720     0.0310 C.ar  1 <1>  -0.1440 
 12 C       -0.6510    -1.6930    -0.8600 C.3   1 <1>  -0.0970 
 13 C        1.2690    -4.9070     1.2850 C.ar  1 <1>  -0.1500 
 14 O        5.8060    -0.2790    -0.5330 O.2   1 <1>  -0.5700 
 15 N        5.2630     1.9130    -0.3030 N.am  1 <1>  -0.5470 
 16 C        0.0260    -5.1000     0.7150 C.ar  1 <1>  -0.1500 
 17 C       -1.9850    -4.3490    -0.5530 C.3   1 <1>  -0.0970 
 18 C        6.4660     2.6400    -0.2280 C.ar  1 <1>   0.1170 
 19 C        6.3750     4.0260    -0.0560 C.ar  1 <1>   0.0830 
 20 C        7.7240     2.0570    -0.3160 C.ar  1 <1>  -0.1500 
 21 O        5.1160     4.5610     0.0280 O.3   1 <1>  -0.3630 
 22 C        7.5310     4.7970     0.0240 C.ar  1 <1>  -0.1500 
 23 C        8.8750     2.8210    -0.2350 C.ar  1 <1>   0.0830 
 24 C        4.9280     5.9460     0.2270 C.3   1 <1>   0.0400 
 25 C        8.7760     4.1980    -0.0650 C.ar  1 <1>  -0.1500 
 26 O       10.0560     2.1570    -0.3310 O.3   1 <1>  -0.3620 
 27 C       11.2880     2.8400    -0.2650 C.3   1 <1>   0.0400 
 28 H        3.2370     1.0010     1.5560 H     1 <1>   0.0800 
 29 H        2.1960     1.7530     0.3460 H     1 <1>   0.0800 
 30 H        3.2200    -1.8180    -1.2400 H     1 <1>   0.0800 
 31 H        4.0200    -1.7740     0.3270 H     1 <1>   0.0800 
 32 H        3.0970     0.4790    -1.4010 H     1 <1>   0.0800 
 33 H        2.8470    -3.5260     1.6290 H     1 <1>   0.1500 
 34 H        0.0780    -1.0740    -1.3490 H     1 <1>   0.0800 
 35 H       -1.2110    -1.0850    -0.1720 H     1 <1>   0.0800 
 36 H       -1.3130    -2.0560    -1.6220 H     1 <1>   0.0800 
 37 H        1.7500    -5.7090     1.8160 H     1 <1>   0.1500 
 38 H        4.4610     2.5420    -0.2310 H     1 <1>   0.3700 
 39 H       -0.4490    -6.0610     0.8130 H     1 <1>   0.1500 
 40 H       -2.6750    -3.5810    -0.2530 H     1 <1>   0.0800 
 41 H       -2.3690    -5.2920    -0.2080 H     1 <1>   0.0800 
 42 H       -1.9300    -4.3780    -1.6260 H     1 <1>   0.0800 
 43 H        7.8320     0.9980    -0.4490 H     1 <1>   0.1500 
 44 H        7.4890     5.8610     0.1550 H     1 <1>   0.1500 
 45 H        3.8710     6.1380     0.2710 H     1 <1>   0.0800 
 46 H        5.3600     6.4810    -0.6000 H     1 <1>   0.0800 
 47 H        5.3890     6.2330     1.1560 H     1 <1>   0.0800 
 48 H        9.6510     4.8160     0.0000 H     1 <1>   0.1500 
 49 H       12.0760     2.1160    -0.3630 H     1 <1>   0.0800 
 50 H       11.3620     3.3330     0.6880 H     1 <1>   0.0800 
 51 H       11.3390     3.5480    -1.0730 H     1 <1>   0.0800 
@<TRIPOS>BOND
  1   1   2  2   
  2   2   3  am  
  3   2   4  1   
  4   3   5  1   
  5   3   6  1   
  6   4   7  1   
  7   4  28  1   
  8   4  29  1   
  9   5   8  ar  
 10   5   9  ar  
 11   6   7  1   
 12   6  30  1   
 13   6  31  1   
 14   7  10  1   
 15   7  32  1   
 16   8  11  ar  
 17   8  12  1   
 18   9  13  ar  
 19   9  33  1   
 20  10  14  2   
 21  10  15  am  
 22  11  16  ar  
 23  11  17  1   
 24  12  34  1   
 25  12  35  1   
 26  12  36  1   
 27  13  16  ar  
 28  13  37  1   
 29  15  18  1   
 30  15  38  1   
 31  16  39  1   
 32  17  40  1   
 33  17  41  1   
 34  17  42  1   
 35  18  19  ar  
 36  18  20  ar  
 37  19  21  1   
 38  19  22  ar  
 39  20  23  ar  
 40  20  43  1   
 41  21  24  1   
 42  22  25  ar  
 43  22  44  1   
 44  23  25  ar  
 45  23  26  1   
 46  24  45  1   
 47  24  46  1   
 48  24  47  1   
 49  25  48  1   
 50  26  27  1   
 51  27  49  1   
 52  27  50  1   
 53  27  51  1   
@<TRIPOS>SUBSTRUCTURE
  1 ****   7 GROUP 4 **** **** 0

# MOE 2024.06 (io_trps.svl 2023.06)
