@<TRIPOS>MOLECULE
1-(8-Methyl-1,2,3a,4,5,6-hexahydro-pyrazino[3,2,1-jk]carbazol-3-yl)-2-pyrrolidin
53 57 1 0 0 
SMALL
USER_CHARGES


@<TRIPOS>ATOM
  1 O       -0.2910     0.0340     0.1220 O.2   1 <1>  -0.5700 
  2 C       -0.9410    -0.9490     0.3950 C.2   1 <1>   0.5690 
  3 N       -2.1530    -0.9010     1.0430 N.am  1 <1>  -0.6600 
  4 C       -0.3260    -2.2980    -0.0350 C.3   1 <1>   0.4040 
  5 C       -3.0460     0.3090     1.1230 C.3   1 <1>   0.4000 
  6 C       -2.7310    -2.0510     1.8250 C.3   1 <1>   0.1400 
  7 N        1.0630    -2.1770    -0.6220 N.4   1 <1>  -0.9590 
  8 C       -4.4300    -0.1290     0.6930 C.2   1 <1>  -0.3320 
  9 C       -2.6690     1.5460     0.2800 C.3   1 <1>  -0.1600 
 10 C       -4.0810    -2.5310     1.2620 C.3   1 <1>   0.0960 
 11 C        1.5480    -3.3520    -1.3800 C.3   1 <1>   0.3430 
 12 C        2.1050    -1.8480     0.3800 C.3   1 <1>   0.3430 
 13 N       -4.9220    -1.3850     0.8830 N.pl3 1 <1>   0.0480 
 14 C       -5.3420     0.6310     0.0510 C.2   1 <1>  -0.1810 
 15 C       -3.8000     2.6010     0.2660 C.3   1 <1>  -0.1600 
 16 C        3.0580    -3.1590    -1.4450 C.3   1 <1>  -0.1600 
 17 C        3.4130    -2.1730    -0.3270 C.3   1 <1>  -0.1600 
 18 C       -6.1880    -1.4240     0.3490 C.ar  1 <1>  -0.1520 
 19 C       -6.4830    -0.1680    -0.1770 C.ar  1 <1>   0.0000 
 20 C       -5.1020     2.0670    -0.3660 C.3   1 <1>   0.0210 
 21 C       -7.1210    -2.4620     0.2670 C.ar  1 <1>  -0.1500 
 22 C       -7.7210     0.0580    -0.7860 C.ar  1 <1>  -0.1500 
 23 C       -8.3340    -2.2240    -0.3360 C.ar  1 <1>  -0.1500 
 24 C       -8.6410    -0.9640    -0.8660 C.ar  1 <1>  -0.1430 
 25 C       -9.9930    -0.7500    -1.5220 C.3   1 <1>  -0.0970 
 26 H       -0.9840    -2.7270    -0.7700 H     1 <1>   0.0800 
 27 H       -0.2980    -2.9560     0.8150 H     1 <1>   0.0800 
 28 H       -3.1010     0.6150     2.1550 H     1 <1>   0.0800 
 29 H       -2.8910    -1.7210     2.8390 H     1 <1>   0.0800 
 30 H       -2.0500    -2.8800     1.8720 H     1 <1>   0.0800 
 31 H        1.0310    -1.3580    -1.2520 H     1 <1>   0.4500 
 32 H       -2.4740     1.2430    -0.7330 H     1 <1>   0.0800 
 33 H       -1.7830     1.9980     0.6870 H     1 <1>   0.0800 
 34 H       -4.6030    -3.1190     1.9950 H     1 <1>   0.0800 
 35 H       -3.9240    -3.1320     0.3870 H     1 <1>   0.0800 
 36 H        1.1090    -3.4020    -2.3640 H     1 <1>   0.0800 
 37 H        1.3250    -4.2570    -0.8370 H     1 <1>   0.0800 
 38 H        1.9960    -2.4780     1.2470 H     1 <1>   0.0800 
 39 H        2.0550    -0.8110     0.6770 H     1 <1>   0.0800 
 40 H       -3.4790     3.4760    -0.2710 H     1 <1>   0.0800 
 41 H       -4.0080     2.8970     1.2800 H     1 <1>   0.0800 
 42 H        3.3320    -2.7530    -2.4040 H     1 <1>   0.0800 
 43 H        3.5610    -4.1020    -1.3200 H     1 <1>   0.0800 
 44 H        4.1230    -2.5900     0.3670 H     1 <1>   0.0800 
 45 H        3.8320    -1.2710    -0.7410 H     1 <1>   0.0800 
 46 H       -5.9350     2.6800    -0.0680 H     1 <1>   0.0800 
 47 H       -5.0240     2.0990    -1.4380 H     1 <1>   0.0800 
 48 H       -6.8910    -3.4290     0.6740 H     1 <1>   0.1500 
 49 H       -7.9270     1.0330    -1.1840 H     1 <1>   0.1500 
 50 H       -9.0630    -3.0120    -0.4050 H     1 <1>   0.1500 
 51 H      -10.0890     0.2590    -1.8800 H     1 <1>   0.0800 
 52 H      -10.7770    -0.9390    -0.8110 H     1 <1>   0.0800 
 53 H      -10.1050    -1.4220    -2.3530 H     1 <1>   0.0800 
@<TRIPOS>BOND
  1   1   2  2   
  2   2   3  am  
  3   2   4  1   
  4   3   5  1   
  5   3   6  1   
  6   4   7  1   
  7   4  26  1   
  8   4  27  1   
  9   5   8  1   
 10   5   9  1   
 11   5  28  1   
 12   6  10  1   
 13   6  29  1   
 14   6  30  1   
 15   7  11  1   
 16   7  12  1   
 17   7  31  1   
 18   8  13  1   
 19   8  14  2   
 20   9  15  1   
 21   9  32  1   
 22   9  33  1   
 23  10  13  1   
 24  10  34  1   
 25  10  35  1   
 26  11  16  1   
 27  11  36  1   
 28  11  37  1   
 29  12  17  1   
 30  12  38  1   
 31  12  39  1   
 32  13  18  1   
 33  14  19  1   
 34  14  20  1   
 35  15  20  1   
 36  15  40  1   
 37  15  41  1   
 38  16  17  1   
 39  16  42  1   
 40  16  43  1   
 41  17  44  1   
 42  17  45  1   
 43  18  19  ar  
 44  18  21  ar  
 45  19  22  ar  
 46  20  46  1   
 47  20  47  1   
 48  21  23  ar  
 49  21  48  1   
 50  22  24  ar  
 51  22  49  1   
 52  23  24  ar  
 53  23  50  1   
 54  24  25  1   
 55  25  51  1   
 56  25  52  1   
 57  25  53  1   
@<TRIPOS>SUBSTRUCTURE
  1 ****   8 GROUP 4 **** **** 0

# MOE 2024.06 (io_trps.svl 2023.06)
