@<TRIPOS>MOLECULE
NONAME
43 44 1 0 0 
SMALL
USER_CHARGES


@<TRIPOS>ATOM
  1 O        0.6600    -1.1250     1.3920 O.2   1 <1>  -0.5700 
  2 C        0.3870    -1.7630     0.3960 C.2   1 <1>   0.5440 
  3 N        1.2870    -1.7920    -0.6330 N.am  1 <1>  -0.7300 
  4 C       -0.8660    -2.4790     0.3020 C.ar  1 <1>   0.0860 
  5 C        2.6440    -1.2010    -0.6010 C.3   1 <1>   0.1400 
  6 C       -0.9440    -3.7360    -0.2960 C.ar  1 <1>   0.1600 
  7 C       -2.0460    -1.9480     0.8040 C.ar  1 <1>  -0.1500 
  8 C        3.6830    -2.3200    -0.5300 C.3   1 <1>  -0.1600 
  9 N       -2.0480    -4.4510    -0.4540 N.ar  1 <1>  -0.6200 
 10 C       -3.2030    -2.6810     0.6580 C.ar  1 <1>  -0.1500 
 11 C        3.5400    -3.1530     0.7470 C.3   1 <1>   0.1400 
 12 C       -3.1560    -3.9130     0.0250 C.ar  1 <1>   0.1670 
 13 N        4.4460    -4.3190     0.6670 N.am  1 <1>  -0.7300 
 14 C       -4.4170    -4.7320    -0.1510 C.3   1 <1>  -0.0970 
 15 C        4.1080    -5.5180     0.1000 C.2   1 <1>   0.5440 
 16 O        3.0160    -5.6240    -0.4240 O.2   1 <1>  -0.5700 
 17 C        5.0250    -6.6390     0.1270 C.ar  1 <1>   0.0860 
 18 C        4.5440    -7.9440     0.0290 C.ar  1 <1>   0.1600 
 19 C        6.4020    -6.4900     0.2500 C.ar  1 <1>  -0.1500 
 20 N        5.2760    -9.0470     0.0550 N.ar  1 <1>  -0.6200 
 21 C        7.1800    -7.6260     0.2770 C.ar  1 <1>  -0.1500 
 22 C        6.5790    -8.8710     0.1790 C.ar  1 <1>   0.1670 
 23 C        7.4170   -10.1320     0.2080 C.3   1 <1>  -0.0970 
 24 H        1.0690    -2.3300    -1.4750 H     1 <1>   0.3700 
 25 H        2.7460    -0.5480     0.2500 H     1 <1>   0.0800 
 26 H        2.7930    -0.6150    -1.4920 H     1 <1>   0.0800 
 27 H       -0.0330    -4.1810    -0.6610 H     1 <1>   0.1500 
 28 H       -2.0440    -0.9890     1.2920 H     1 <1>   0.1500 
 29 H        4.6650    -1.8830    -0.5570 H     1 <1>   0.0800 
 30 H        3.5700    -2.9530    -1.3920 H     1 <1>   0.0800 
 31 H       -4.1340    -2.2970     1.0340 H     1 <1>   0.1500 
 32 H        2.5280    -3.5070     0.8540 H     1 <1>   0.0800 
 33 H        3.7760    -2.5590     1.6140 H     1 <1>   0.0800 
 34 H        5.3210    -4.2340     1.1840 H     1 <1>   0.3700 
 35 H       -4.5910    -4.9020    -1.1970 H     1 <1>   0.0800 
 36 H       -5.2690    -4.2300     0.2670 H     1 <1>   0.0800 
 37 H       -4.2980    -5.6820     0.3380 H     1 <1>   0.0800 
 38 H        3.4790    -8.0760    -0.0770 H     1 <1>   0.1500 
 39 H        6.8540    -5.5170     0.3140 H     1 <1>   0.1500 
 40 H        8.2480    -7.5470     0.3710 H     1 <1>   0.1500 
 41 H        7.1100   -10.7460     1.0350 H     1 <1>   0.0800 
 42 H        8.4610    -9.9040     0.3110 H     1 <1>   0.0800 
 43 H        7.2670   -10.6810    -0.7030 H     1 <1>   0.0800 
@<TRIPOS>BOND
  1   1   2  2   
  2   2   3  am  
  3   2   4  1   
  4   3   5  1   
  5   3  24  1   
  6   4   6  ar  
  7   4   7  ar  
  8   5   8  1   
  9   5  25  1   
 10   5  26  1   
 11   6   9  ar  
 12   6  27  1   
 13   7  10  ar  
 14   7  28  1   
 15   8  11  1   
 16   8  29  1   
 17   8  30  1   
 18   9  12  ar  
 19  10  12  ar  
 20  10  31  1   
 21  11  13  1   
 22  11  32  1   
 23  11  33  1   
 24  12  14  1   
 25  13  15  am  
 26  13  34  1   
 27  14  35  1   
 28  14  36  1   
 29  14  37  1   
 30  15  16  2   
 31  15  17  1   
 32  17  18  ar  
 33  17  19  ar  
 34  18  20  ar  
 35  18  38  1   
 36  19  21  ar  
 37  19  39  1   
 38  20  22  ar  
 39  21  22  ar  
 40  21  40  1   
 41  22  23  1   
 42  23  41  1   
 43  23  42  1   
 44  23  43  1   
@<TRIPOS>SUBSTRUCTURE
  1 ****  16 GROUP 4 **** **** 0

# MOE 2024.06 (io_trps.svl 2023.06)
