@<TRIPOS>MOLECULE
1,3-Dimethyl-8-(4-methyl-piperazin-1-yl)-7-(3-phenoxy-propyl)-3,7-dihydro-purine
60 63 1 0 0 
SMALL
USER_CHARGES


@<TRIPOS>ATOM
  1 O        1.1670    -0.2800    -1.3190 O.2   1 <1>  -0.5740 
  2 C        2.0470     0.4310    -0.8780 C.2   1 <1>   0.6870 
  3 N        1.7250     1.6000    -0.1980 N.am  1 <1>  -0.4250 
  4 N        3.3760     0.0700    -1.0480 N.am  1 <1>  -0.4410 
  5 C        2.7090     2.3920     0.3770 C.2   1 <1>   0.7000 
  6 C        0.2820     1.9760    -0.0510 C.3   1 <1>   0.0530 
  7 C        4.3440     0.8680    -0.4690 C.2   1 <1>   0.4210 
  8 C        3.7290    -1.1720    -1.8010 C.3   1 <1>   0.0530 
  9 O        2.4110     3.4040     0.9890 O.2   1 <1>  -0.5740 
 10 C        4.0790     1.9900     0.2300 C.2   1 <1>   0.2720 
 11 N        5.6900     0.6790    -0.4880 N.pl3 1 <1>  -0.7030 
 12 N        5.3280     2.5040     0.6530 N.pl3 1 <1>  -0.7670 
 13 C        6.2730     1.6610     0.2030 C.cat 1 <1>   1.0690 
 14 C        5.4060     3.8450     1.3130 C.3   1 <1>   0.3490 
 15 N        7.6210     1.7220     0.3560 N.pl3 1 <1>  -0.5960 
 16 C        5.3180     4.9800     0.2810 C.3   1 <1>  -0.1660 
 17 C        8.2690     2.2830     1.5990 C.3   1 <1>   0.1620 
 18 C        8.5180     1.4630    -0.8350 C.3   1 <1>   0.1620 
 19 C        6.5080     5.0510    -0.6810 C.3   1 <1>   0.1140 
 20 C        9.7430     1.8810     1.8080 C.3   1 <1>   0.3380 
 21 C        9.9970     1.1560    -0.5140 C.3   1 <1>   0.3380 
 22 O        7.6870     5.0910     0.0900 O.3   1 <1>  -0.3670 
 23 N       10.5400     2.0410     0.5540 N.4   1 <1>  -0.9610 
 24 C        8.9230     5.0330    -0.4600 C.ar  1 <1>   0.0760 
 25 C       11.9900     1.7660     0.7950 C.3   1 <1>   0.2580 
 26 C        9.9930     5.2200     0.4020 C.ar  1 <1>  -0.1560 
 27 C        9.1620     4.7780    -1.8060 C.ar  1 <1>  -0.1560 
 28 C       11.2930     5.1180    -0.0610 C.ar  1 <1>  -0.1560 
 29 C       10.4630     4.6650    -2.2650 C.ar  1 <1>  -0.1560 
 30 C       11.5270     4.8290    -1.3940 C.ar  1 <1>  -0.1560 
 31 H       -0.2620     1.7200    -0.9440 H     1 <1>   0.0740 
 32 H        0.1730     3.0330     0.1150 H     1 <1>   0.0740 
 33 H       -0.1460     1.4440     0.7800 H     1 <1>   0.0740 
 34 H        2.9560    -1.4120    -2.5130 H     1 <1>   0.0740 
 35 H        3.8280    -1.9960    -1.1160 H     1 <1>   0.0740 
 36 H        4.6470    -1.0390    -2.3440 H     1 <1>   0.0740 
 37 H        6.1580    -0.1280    -0.8870 H     1 <1>   0.4460 
 38 H        6.3020     3.9470     1.8910 H     1 <1>   0.0740 
 39 H        4.5900     3.9450     2.0090 H     1 <1>   0.0740 
 40 H        5.2660     5.9150     0.8120 H     1 <1>   0.0740 
 41 H        4.4050     4.8970    -0.2800 H     1 <1>   0.0740 
 42 H        7.7050     1.9770     2.4640 H     1 <1>   0.0740 
 43 H        8.2460     3.3520     1.5710 H     1 <1>   0.0740 
 44 H        8.4900     2.3280    -1.4710 H     1 <1>   0.0740 
 45 H        8.1340     0.6440    -1.4170 H     1 <1>   0.0740 
 46 H        6.4650     5.9440    -1.2820 H     1 <1>   0.0740 
 47 H        6.5340     4.1840    -1.3160 H     1 <1>   0.0740 
 48 H        9.7880     0.8550     2.1360 H     1 <1>   0.0740 
 49 H       10.1660     2.4930     2.5880 H     1 <1>   0.0740 
 50 H       10.5820     1.2730    -1.4130 H     1 <1>   0.0740 
 51 H       10.0820     0.1280    -0.2020 H     1 <1>   0.0740 
 52 H       10.4640     3.0280     0.2300 H     1 <1>   0.4460 
 53 H       12.1320     0.7500     1.1240 H     1 <1>   0.0740 
 54 H       12.3760     2.4320     1.5490 H     1 <1>   0.0740 
 55 H       12.5530     1.9180    -0.1120 H     1 <1>   0.0740 
 56 H        9.8060     5.4670     1.4330 H     1 <1>   0.1440 
 57 H        8.3580     4.6760    -2.5120 H     1 <1>   0.1440 
 58 H       12.1230     5.2840     0.6060 H     1 <1>   0.1440 
 59 H       10.6530     4.4720    -3.3090 H     1 <1>   0.1440 
 60 H       12.5370     4.7590    -1.7630 H     1 <1>   0.1440 
@<TRIPOS>BOND
  1   1   2  2   
  2   2   3  am  
  3   2   4  am  
  4   3   5  am  
  5   3   6  1   
  6   4   7  1   
  7   4   8  1   
  8   5   9  2   
  9   5  10  1   
 10   6  31  1   
 11   6  32  1   
 12   6  33  1   
 13   7  10  2   
 14   7  11  1   
 15   8  34  1   
 16   8  35  1   
 17   8  36  1   
 18  10  12  1   
 19  11  13  ar  
 20  11  37  1   
 21  12  13  ar  
 22  12  14  1   
 23  13  15  ar  
 24  14  16  1   
 25  14  38  1   
 26  14  39  1   
 27  15  17  1   
 28  15  18  1   
 29  16  19  1   
 30  16  40  1   
 31  16  41  1   
 32  17  20  1   
 33  17  42  1   
 34  17  43  1   
 35  18  21  1   
 36  18  44  1   
 37  18  45  1   
 38  19  22  1   
 39  19  46  1   
 40  19  47  1   
 41  20  23  1   
 42  20  48  1   
 43  20  49  1   
 44  21  23  1   
 45  21  50  1   
 46  21  51  1   
 47  22  24  1   
 48  23  25  1   
 49  23  52  1   
 50  24  26  ar  
 51  24  27  ar  
 52  25  53  1   
 53  25  54  1   
 54  25  55  1   
 55  26  28  ar  
 56  26  56  1   
 57  27  29  ar  
 58  27  57  1   
 59  28  30  ar  
 60  28  58  1   
 61  29  30  ar  
 62  29  59  1   
 63  30  60  1   
@<TRIPOS>SUBSTRUCTURE
  1 ****  13 GROUP 4 **** **** 0

# MOE 2024.06 (io_trps.svl 2023.06)
