@<TRIPOS>MOLECULE
1-(4-Benzyloxy-benzyl)-piperidine-4-carboxylic acid (pyridin-2-ylmethyl)-amide
61 64 1 0 0 
SMALL
USER_CHARGES


@<TRIPOS>ATOM
  1 O        2.6990    -2.0050     2.3610 O.2   1 <1>  -0.5700 
  2 C        3.0210    -1.9860     1.1980 C.2   1 <1>   0.5690 
  3 N        3.5200    -0.8770     0.6100 N.am  1 <1>  -0.7300 
  4 C        2.8410    -3.2500     0.3630 C.3   1 <1>  -0.0190 
  5 C        3.6000     0.4620     1.2320 C.3   1 <1>   0.2840 
  6 C        1.3440    -3.5490     0.1580 C.3   1 <1>  -0.1600 
  7 C        3.5420    -4.4540     1.0200 C.3   1 <1>  -0.1600 
  8 C        3.0680     1.5000     0.2480 C.ar  1 <1>   0.1660 
  9 C        1.1140    -4.8720    -0.5680 C.3   1 <1>   0.3430 
 10 C        3.2680    -5.7570     0.2730 C.3   1 <1>   0.3430 
 11 N        3.5350     1.4400    -0.9970 N.ar  1 <1>  -0.6200 
 12 C        2.1380     2.4340     0.6800 C.ar  1 <1>  -0.1500 
 13 N        1.7980    -5.9710     0.1730 N.4   1 <1>  -0.9590 
 14 C        3.0590     2.3510    -1.8310 C.ar  1 <1>   0.1600 
 15 C        1.6500     3.3730    -0.2030 C.ar  1 <1>  -0.1500 
 16 C        1.4780    -7.3090    -0.3970 C.3   1 <1>   0.4860 
 17 C        2.1320     3.3220    -1.4930 C.ar  1 <1>  -0.1500 
 18 C       -0.0130    -7.5560    -0.2680 C.ar  1 <1>  -0.1440 
 19 C       -0.5780    -7.7930     0.9780 C.ar  1 <1>  -0.1500 
 20 C       -0.8260    -7.5440    -1.3940 C.ar  1 <1>  -0.1500 
 21 C       -1.9400    -8.0030     1.0930 C.ar  1 <1>  -0.1500 
 22 C       -2.1890    -7.7570    -1.2780 C.ar  1 <1>  -0.1500 
 23 C       -2.7540    -7.9860    -0.0270 C.ar  1 <1>   0.0820 
 24 O       -4.0740    -8.2040     0.1820 O.3   1 <1>  -0.3630 
 25 C       -4.9880    -8.3090    -0.8900 C.3   1 <1>   0.2640 
 26 C       -6.3670    -8.6390    -0.3380 C.ar  1 <1>  -0.1440 
 27 C       -7.4400    -7.7890    -0.5610 C.ar  1 <1>  -0.1500 
 28 C       -6.5640    -9.8040     0.3890 C.ar  1 <1>  -0.1500 
 29 C       -8.6950    -8.1010    -0.0670 C.ar  1 <1>  -0.1500 
 30 C       -7.8180   -10.1170     0.8840 C.ar  1 <1>  -0.1500 
 31 C       -8.8850    -9.2660     0.6550 C.ar  1 <1>  -0.1500 
 32 H        3.6970    -0.8180    -0.3980 H     1 <1>   0.3700 
 33 H        3.2890    -3.0820    -0.6010 H     1 <1>   0.0800 
 34 H        4.6280     0.6850     1.4570 H     1 <1>   0.0800 
 35 H        3.0350     0.4820     2.1490 H     1 <1>   0.0800 
 36 H        0.8960    -2.7520    -0.4100 H     1 <1>   0.0800 
 37 H        0.8420    -3.5790     1.1110 H     1 <1>   0.0800 
 38 H        3.2160    -4.5600     2.0410 H     1 <1>   0.0800 
 39 H        4.6040    -4.2760     1.0430 H     1 <1>   0.0800 
 40 H        1.5020    -4.8080    -1.5720 H     1 <1>   0.0800 
 41 H        0.0540    -5.0640    -0.6240 H     1 <1>   0.0800 
 42 H        3.7280    -6.5760     0.8050 H     1 <1>   0.0800 
 43 H        3.7000    -5.7070    -0.7140 H     1 <1>   0.0800 
 44 H        1.7930     2.4300     1.6990 H     1 <1>   0.1500 
 45 H        1.4090    -5.9590     1.1250 H     1 <1>   0.4500 
 46 H        3.4280     2.3240    -2.8430 H     1 <1>   0.1500 
 47 H        0.9280     4.1120     0.1000 H     1 <1>   0.1500 
 48 H        2.0090    -8.0780     0.1400 H     1 <1>   0.0800 
 49 H        1.7700    -7.3530    -1.4330 H     1 <1>   0.0800 
 50 H        1.7950     4.0270    -2.2310 H     1 <1>   0.1500 
 51 H        0.0240    -7.8230     1.8700 H     1 <1>   0.1500 
 52 H       -0.4120    -7.3730    -2.3730 H     1 <1>   0.1500 
 53 H       -2.3880    -8.1870     2.0550 H     1 <1>   0.1500 
 54 H       -2.7930    -7.7420    -2.1660 H     1 <1>   0.1500 
 55 H       -4.6560    -9.0970    -1.5440 H     1 <1>   0.0800 
 56 H       -5.0010    -7.3720    -1.4160 H     1 <1>   0.0800 
 57 H       -7.3070    -6.8790    -1.1190 H     1 <1>   0.1500 
 58 H       -5.7370   -10.4670     0.5750 H     1 <1>   0.1500 
 59 H       -9.5230    -7.4380    -0.2430 H     1 <1>   0.1500 
 60 H       -7.9620   -11.0220     1.4480 H     1 <1>   0.1500 
 61 H       -9.8600    -9.5090     1.0400 H     1 <1>   0.1500 
@<TRIPOS>BOND
  1   1   2  2   
  2   2   3  am  
  3   2   4  1   
  4   3   5  1   
  5   3  32  1   
  6   4   6  1   
  7   4   7  1   
  8   4  33  1   
  9   5   8  1   
 10   5  34  1   
 11   5  35  1   
 12   6   9  1   
 13   6  36  1   
 14   6  37  1   
 15   7  10  1   
 16   7  38  1   
 17   7  39  1   
 18   8  11  ar  
 19   8  12  ar  
 20   9  13  1   
 21   9  40  1   
 22   9  41  1   
 23  10  13  1   
 24  10  42  1   
 25  10  43  1   
 26  11  14  ar  
 27  12  15  ar  
 28  12  44  1   
 29  13  16  1   
 30  13  45  1   
 31  14  17  ar  
 32  14  46  1   
 33  15  17  ar  
 34  15  47  1   
 35  16  18  1   
 36  16  48  1   
 37  16  49  1   
 38  17  50  1   
 39  18  19  ar  
 40  18  20  ar  
 41  19  21  ar  
 42  19  51  1   
 43  20  22  ar  
 44  20  52  1   
 45  21  23  ar  
 46  21  53  1   
 47  22  23  ar  
 48  22  54  1   
 49  23  24  1   
 50  24  25  1   
 51  25  26  1   
 52  25  55  1   
 53  25  56  1   
 54  26  27  ar  
 55  26  28  ar  
 56  27  29  ar  
 57  27  57  1   
 58  28  30  ar  
 59  28  58  1   
 60  29  31  ar  
 61  29  59  1   
 62  30  31  ar  
 63  30  60  1   
 64  31  61  1   
@<TRIPOS>SUBSTRUCTURE
  1 ****   9 GROUP 4 **** **** 0

# MOE 2024.06 (io_trps.svl 2023.06)
