@<TRIPOS>MOLECULE
5-Methyl-4-morpholin-4-ylmethyl-furan-2-carboxylic acid ethyl ester
38 39 1 0 0 
SMALL
USER_CHARGES


@<TRIPOS>ATOM
  1 O       -0.1570     0.8620     1.1360 O.2   1 <1>  -0.5700 
  2 C       -0.2940     1.8390     0.4270 C.2   1 <1>   0.8050 
  3 O        0.7910     2.4000    -0.1190 O.3   1 <1>  -0.4300 
  4 C       -1.5620     2.4630     0.1280 C.2   1 <1>   0.0550 
  5 C        2.0800     1.8700     0.1010 C.3   1 <1>   0.1200 
  6 O       -2.7020     2.0060     0.6350 O.3   1 <1>  -0.2800 
  7 C       -1.8540     3.5400    -0.6560 C.2   1 <1>  -0.1500 
  8 C        3.0830     2.7390    -0.6510 C.3   1 <1>  -0.2400 
  9 C       -3.7000     2.7370     0.2040 C.2   1 <1>  -0.0400 
 10 C       -3.2400     3.7200    -0.6020 C.2   1 <1>  -0.1810 
 11 C       -5.0940     2.3590     0.6640 C.3   1 <1>  -0.0600 
 12 C       -4.0160     4.8050    -1.3160 C.3   1 <1>   0.5240 
 13 N       -4.3260     5.8790    -0.3390 N.4   1 <1>  -0.9590 
 14 C       -5.2520     6.9330    -0.8750 C.3   1 <1>   0.3430 
 15 C       -3.1140     6.4990     0.2960 C.3   1 <1>   0.3430 
 16 C       -5.4830     8.0640     0.1540 C.3   1 <1>   0.1200 
 17 C       -3.5150     7.5610     1.3470 C.3   1 <1>   0.1200 
 18 O       -4.9060     7.7430     1.3900 O.3   1 <1>  -0.5600 
 19 H        2.1010     0.8550    -0.2610 H     1 <1>   0.0800 
 20 H        2.2800     1.8790     1.1600 H     1 <1>   0.0800 
 21 H       -1.1490     4.1300    -1.2160 H     1 <1>   0.1500 
 22 H        2.8710     2.7250    -1.7050 H     1 <1>   0.0800 
 23 H        4.0770     2.3560    -0.5000 H     1 <1>   0.0800 
 24 H        3.0480     3.7500    -0.2870 H     1 <1>   0.0800 
 25 H       -5.1490     2.4150     1.7370 H     1 <1>   0.0800 
 26 H       -5.3060     1.3470     0.3670 H     1 <1>   0.0800 
 27 H       -5.8360     3.0080     0.2390 H     1 <1>   0.0800 
 28 H       -4.9300     4.3870    -1.7060 H     1 <1>   0.0800 
 29 H       -3.4370     5.1940    -2.1370 H     1 <1>   0.0800 
 30 H       -4.8220     5.4440     0.4520 H     1 <1>   0.4500 
 31 H       -6.2030     6.4920    -1.1250 H     1 <1>   0.0800 
 32 H       -4.8460     7.3620    -1.7760 H     1 <1>   0.0800 
 33 H       -2.4990     6.9650    -0.4570 H     1 <1>   0.0800 
 34 H       -2.5170     5.7410     0.7780 H     1 <1>   0.0800 
 35 H       -6.5370     8.2160     0.3110 H     1 <1>   0.0800 
 36 H       -5.0590     8.9910    -0.1930 H     1 <1>   0.0800 
 37 H       -3.0490     8.5070     1.1310 H     1 <1>   0.0800 
 38 H       -3.1970     7.2480     2.3270 H     1 <1>   0.0800 
@<TRIPOS>BOND
  1   1   2  2   
  2   2   3  1   
  3   2   4  1   
  4   3   5  1   
  5   4   6  1   
  6   4   7  2   
  7   5   8  1   
  8   5  19  1   
  9   5  20  1   
 10   6   9  1   
 11   7  10  1   
 12   7  21  1   
 13   8  22  1   
 14   8  23  1   
 15   8  24  1   
 16   9  10  2   
 17   9  11  1   
 18  10  12  1   
 19  11  25  1   
 20  11  26  1   
 21  11  27  1   
 22  12  13  1   
 23  12  28  1   
 24  12  29  1   
 25  13  14  1   
 26  13  15  1   
 27  13  30  1   
 28  14  16  1   
 29  14  31  1   
 30  14  32  1   
 31  15  17  1   
 32  15  33  1   
 33  15  34  1   
 34  16  18  1   
 35  16  35  1   
 36  16  36  1   
 37  17  18  1   
 38  17  37  1   
 39  17  38  1   
@<TRIPOS>SUBSTRUCTURE
  1 ****   7 GROUP 4 **** **** 0

# MOE 2024.06 (io_trps.svl 2023.06)
