@<TRIPOS>MOLECULE
N-Cyclohexyl-3-[3-(2-ethoxy-phenyl)-[1,2,4]oxadiazol-5-yl]-propionamide
50 52 1 0 0 
SMALL
USER_CHARGES


@<TRIPOS>ATOM
  1 O        0.1790    -1.3740    -2.8190 O.2   1 <1>  -0.5700 
  2 C        0.6120    -2.1900    -2.0490 C.2   1 <1>   0.5690 
  3 N        1.8620    -2.0480    -1.5540 N.am  1 <1>  -0.7300 
  4 C       -0.2740    -3.3470    -1.6410 C.3   1 <1>  -0.0990 
  5 C        2.5950    -2.8800    -0.5840 C.3   1 <1>   0.2200 
  6 C       -0.9930    -3.0380    -0.3220 C.3   1 <1>   0.0200 
  7 C        3.0500    -1.9970     0.5820 C.3   1 <1>  -0.1600 
  8 C        3.7890    -3.5300    -1.2870 C.3   1 <1>  -0.1600 
  9 C       -1.7010    -4.2640     0.2120 C.2   1 <1>   0.2980 
 10 C        3.8970    -2.7980     1.5810 C.3   1 <1>  -0.1600 
 11 C        4.6420    -4.3350    -0.2950 C.3   1 <1>  -0.1600 
 12 O       -0.9770    -5.2390     0.6950 O.3   1 <1>  -0.0190 
 13 N       -2.9550    -4.4470     0.2400 N.2   1 <1>  -0.5650 
 14 C        5.0930    -3.4630     0.8850 C.3   1 <1>  -0.1600 
 15 N       -1.8460    -6.1260     1.0620 N.2   1 <1>  -0.4100 
 16 C       -3.0170    -5.6690     0.7830 C.2   1 <1>   0.4620 
 17 C       -4.2850    -6.3240     1.0330 C.ar  1 <1>   0.0540 
 18 C       -4.5320    -7.6550     0.6670 C.ar  1 <1>   0.0820 
 19 C       -5.3120    -5.6190     1.6610 C.ar  1 <1>  -0.1500 
 20 O       -3.5440    -8.3280     0.0230 O.3   1 <1>  -0.3630 
 21 C       -5.7620    -8.2440     0.9500 C.ar  1 <1>  -0.1500 
 22 C       -6.5330    -6.2060     1.9360 C.ar  1 <1>  -0.1500 
 23 C       -3.6330    -9.6950    -0.2960 C.3   1 <1>   0.1200 
 24 C       -6.7570    -7.5230     1.5820 C.ar  1 <1>  -0.1500 
 25 C       -2.3160   -10.1070    -0.9460 C.3   1 <1>  -0.2400 
 26 H        2.3800    -1.2420    -1.9090 H     1 <1>   0.3700 
 27 H        0.3150    -4.2400    -1.5570 H     1 <1>   0.0800 
 28 H       -1.0050    -3.5140    -2.4110 H     1 <1>   0.0800 
 29 H        1.9570    -3.6560    -0.1960 H     1 <1>   0.0800 
 30 H       -1.7110    -2.2520    -0.4820 H     1 <1>   0.0800 
 31 H       -0.2910    -2.7000     0.4180 H     1 <1>   0.0800 
 32 H        2.1890    -1.5960     1.0870 H     1 <1>   0.0800 
 33 H        3.6360    -1.1770     0.2050 H     1 <1>   0.0800 
 34 H        4.4020    -2.7680    -1.7370 H     1 <1>   0.0800 
 35 H        3.4350    -4.1840    -2.0640 H     1 <1>   0.0800 
 36 H        3.2870    -3.5570     2.0420 H     1 <1>   0.0800 
 37 H        4.2520    -2.1440     2.3590 H     1 <1>   0.0800 
 38 H        5.5060    -4.7310    -0.8010 H     1 <1>   0.0800 
 39 H        4.0690    -5.1680     0.0760 H     1 <1>   0.0800 
 40 H        5.6320    -4.0680     1.5940 H     1 <1>   0.0800 
 41 H        5.7650    -2.7010     0.5270 H     1 <1>   0.0800 
 42 H       -5.1440    -4.5930     1.9370 H     1 <1>   0.1500 
 43 H       -5.9680    -9.2630     0.6810 H     1 <1>   0.1500 
 44 H       -7.3070    -5.6390     2.4240 H     1 <1>   0.1500 
 45 H       -4.4540    -9.8350    -0.9780 H     1 <1>   0.0800 
 46 H       -3.7990   -10.2470     0.6130 H     1 <1>   0.0800 
 47 H       -7.7060    -7.9830     1.7970 H     1 <1>   0.1500 
 48 H       -2.1520    -9.5350    -1.8420 H     1 <1>   0.0800 
 49 H       -2.3450   -11.1500    -1.2030 H     1 <1>   0.0800 
 50 H       -1.5020    -9.9410    -0.2620 H     1 <1>   0.0800 
@<TRIPOS>BOND
  1   1   2  2   
  2   2   3  am  
  3   2   4  1   
  4   3   5  1   
  5   3  26  1   
  6   4   6  1   
  7   4  27  1   
  8   4  28  1   
  9   5   7  1   
 10   5   8  1   
 11   5  29  1   
 12   6   9  1   
 13   6  30  1   
 14   6  31  1   
 15   7  10  1   
 16   7  32  1   
 17   7  33  1   
 18   8  11  1   
 19   8  34  1   
 20   8  35  1   
 21   9  12  1   
 22   9  13  2   
 23  10  14  1   
 24  10  36  1   
 25  10  37  1   
 26  11  14  1   
 27  11  38  1   
 28  11  39  1   
 29  12  15  1   
 30  13  16  1   
 31  14  40  1   
 32  14  41  1   
 33  15  16  2   
 34  16  17  1   
 35  17  18  ar  
 36  17  19  ar  
 37  18  20  1   
 38  18  21  ar  
 39  19  22  ar  
 40  19  42  1   
 41  20  23  1   
 42  21  24  ar  
 43  21  43  1   
 44  22  24  ar  
 45  22  44  1   
 46  23  25  1   
 47  23  45  1   
 48  23  46  1   
 49  24  47  1   
 50  25  48  1   
 51  25  49  1   
 52  25  50  1   
@<TRIPOS>SUBSTRUCTURE
  1 ****  12 GROUP 4 **** **** 0

# MOE 2024.06 (io_trps.svl 2023.06)
