@<TRIPOS>MOLECULE
1-(4-Methoxy-3-methyl-benzenesulfonyl)-piperidine-4-carboxylic acid cyclopentyla
54 56 1 0 0 
SMALL
USER_CHARGES


@<TRIPOS>ATOM
  1 S        0.2090    -0.2430    -2.7270 S.o2  1 <1>   1.4470 
  2 O        0.7910    -1.4620    -3.2440 O.2   1 <1>  -0.6500 
  3 O       -0.5510     0.6140    -3.6130 O.2   1 <1>  -0.6500 
  4 N        1.4840     0.7020    -2.1270 N.am  1 <1>  -0.8490 
  5 C       -0.7470    -0.6250    -1.2330 C.ar  1 <1>  -0.0090 
  6 C        1.0220     2.0220    -1.6850 C.3   1 <1>   0.1960 
  7 C        2.5580     0.8290    -3.1140 C.3   1 <1>   0.1960 
  8 C       -2.0210    -0.1050    -1.0350 C.ar  1 <1>  -0.1500 
  9 C       -0.2140    -1.4320    -0.2360 C.ar  1 <1>  -0.1500 
 10 C        2.1610     2.7570    -0.9790 C.3   1 <1>  -0.1600 
 11 C        3.7660     1.5220    -2.4810 C.3   1 <1>  -0.1600 
 12 C       -2.7450    -0.3700     0.1160 C.ar  1 <1>  -0.1430 
 13 C       -0.9210    -1.7100     0.9190 C.ar  1 <1>  -0.1500 
 14 C        3.3870     2.8950    -1.8990 C.3   1 <1>  -0.0190 
 15 C       -2.1930    -1.1780     1.1050 C.ar  1 <1>   0.0830 
 16 C       -4.1370     0.2210     0.2880 C.3   1 <1>  -0.0970 
 17 C        4.5620     3.5510    -1.1810 C.2   1 <1>   0.5690 
 18 O       -2.9340    -1.4100     2.2190 O.3   1 <1>  -0.3630 
 19 O        4.9960     4.5950    -1.6020 O.2   1 <1>  -0.5700 
 20 N        5.0800     2.9390    -0.0880 N.am  1 <1>  -0.7300 
 21 C       -2.4790    -2.2530     3.2550 C.3   1 <1>   0.0400 
 22 C        6.1960     3.4360     0.7290 C.3   1 <1>   0.2200 
 23 C        7.2560     2.3450     0.8180 C.3   1 <1>  -0.1600 
 24 C        5.7180     3.5780     2.1680 C.3   1 <1>  -0.1600 
 25 C        6.7670     1.3760     1.9010 C.3   1 <1>  -0.1600 
 26 C        5.7790     2.1680     2.7690 C.3   1 <1>  -0.1600 
 27 H        0.2010     1.9120    -0.9960 H     1 <1>   0.0800 
 28 H        0.6780     2.5970    -2.5300 H     1 <1>   0.0800 
 29 H        2.2090     1.3860    -3.9700 H     1 <1>   0.0800 
 30 H        2.8630    -0.1480    -3.4530 H     1 <1>   0.0800 
 31 H       -2.4500     0.5190    -1.8010 H     1 <1>   0.1500 
 32 H        0.7720    -1.8460    -0.3720 H     1 <1>   0.1500 
 33 H        2.4180     2.2130    -0.0880 H     1 <1>   0.0800 
 34 H        1.8250     3.7350    -0.6820 H     1 <1>   0.0800 
 35 H        4.5350     1.6470    -3.2240 H     1 <1>   0.0800 
 36 H        4.1570     0.8830    -1.7100 H     1 <1>   0.0800 
 37 H       -0.4650    -2.3400     1.6600 H     1 <1>   0.1500 
 38 H        3.1150     3.5380    -2.7190 H     1 <1>   0.0800 
 39 H       -4.4170     0.8170    -0.5620 H     1 <1>   0.0800 
 40 H       -4.1630     0.8410     1.1670 H     1 <1>   0.0800 
 41 H       -4.8550    -0.5700     0.4050 H     1 <1>   0.0800 
 42 H        4.6840     2.0580     0.2370 H     1 <1>   0.3700 
 43 H       -3.2410    -2.2920     4.0120 H     1 <1>   0.0800 
 44 H       -1.5750    -1.8420     3.6680 H     1 <1>   0.0800 
 45 H       -2.3100    -3.2370     2.8550 H     1 <1>   0.0800 
 46 H        6.5850     4.3590     0.3290 H     1 <1>   0.0800 
 47 H        8.1780     2.7950     1.1420 H     1 <1>   0.0800 
 48 H        7.4240     1.8640    -0.1300 H     1 <1>   0.0800 
 49 H        4.7380     4.0170     2.2290 H     1 <1>   0.0800 
 50 H        6.4110     4.2120     2.6940 H     1 <1>   0.0800 
 51 H        7.5930     1.0060     2.4840 H     1 <1>   0.0800 
 52 H        6.2620     0.5410     1.4460 H     1 <1>   0.0800 
 53 H        4.8070     1.7080     2.7250 H     1 <1>   0.0800 
 54 H        6.1000     2.2040     3.7960 H     1 <1>   0.0800 
@<TRIPOS>BOND
  1   1   2  2   
  2   1   3  2   
  3   1   4  am  
  4   1   5  1   
  5   4   6  1   
  6   4   7  1   
  7   5   8  ar  
  8   5   9  ar  
  9   6  10  1   
 10   6  27  1   
 11   6  28  1   
 12   7  11  1   
 13   7  29  1   
 14   7  30  1   
 15   8  12  ar  
 16   8  31  1   
 17   9  13  ar  
 18   9  32  1   
 19  10  14  1   
 20  10  33  1   
 21  10  34  1   
 22  11  14  1   
 23  11  35  1   
 24  11  36  1   
 25  12  15  ar  
 26  12  16  1   
 27  13  15  ar  
 28  13  37  1   
 29  14  17  1   
 30  14  38  1   
 31  15  18  1   
 32  16  39  1   
 33  16  40  1   
 34  16  41  1   
 35  17  19  2   
 36  17  20  am  
 37  18  21  1   
 38  20  22  1   
 39  20  42  1   
 40  21  43  1   
 41  21  44  1   
 42  21  45  1   
 43  22  23  1   
 44  22  24  1   
 45  22  46  1   
 46  23  25  1   
 47  23  47  1   
 48  23  48  1   
 49  24  26  1   
 50  24  49  1   
 51  24  50  1   
 52  25  26  1   
 53  25  51  1   
 54  25  52  1   
 55  26  53  1   
 56  26  54  1   
@<TRIPOS>SUBSTRUCTURE
  1 ****   4 GROUP 4 **** **** 0

# MOE 2024.06 (io_trps.svl 2023.06)
