@<TRIPOS>MOLECULE
3-Methoxy-4-[2-(4-methyl-piperidin-1-yl)-2-oxo-ethoxy]-benzaldehyde
42 43 1 0 0 
SMALL
USER_CHARGES


@<TRIPOS>ATOM
  1 O       -0.5500    -0.1270    -2.0790 O.2   1 <1>  -0.5700 
  2 C       -0.6040    -1.2290    -1.5800 C.2   1 <1>   0.5690 
  3 N        0.1280    -1.5490    -0.4580 N.am  1 <1>  -0.6600 
  4 C       -1.5210    -2.2390    -2.2770 C.3   1 <1>   0.1810 
  5 C        0.0860    -2.8680     0.2380 C.3   1 <1>   0.1400 
  6 C        0.9370    -0.5170     0.2490 C.3   1 <1>   0.1400 
  7 O       -2.4940    -2.8160    -1.4120 O.3   1 <1>  -0.3620 
  8 C        1.5090    -3.3890     0.4660 C.3   1 <1>  -0.1600 
  9 C        2.3650    -1.0260     0.4670 C.3   1 <1>  -0.1600 
 10 C       -3.2530    -2.0470    -0.5920 C.ar  1 <1>   0.0820 
 11 C        2.3760    -2.3670     1.2160 C.3   1 <1>  -0.0800 
 12 C       -3.6010    -2.5210     0.6790 C.ar  1 <1>   0.0820 
 13 C       -3.6780    -0.7800    -0.9740 C.ar  1 <1>  -0.1500 
 14 C        3.8090    -2.8860     1.3760 C.3   1 <1>  -0.2400 
 15 O       -3.2380    -3.7430     1.1480 O.3   1 <1>  -0.3630 
 16 C       -4.3300    -1.7230     1.5390 C.ar  1 <1>  -0.1500 
 17 C       -4.4170     0.0010    -0.1050 C.ar  1 <1>  -0.1500 
 18 C       -3.5610    -4.8800     0.3760 C.3   1 <1>   0.0400 
 19 C       -4.7580    -0.4470     1.1720 C.ar  1 <1>   0.0860 
 20 C       -5.5230     0.3680     2.0800 C.2   1 <1>   0.4240 
 21 O       -5.9510     1.4680     1.8390 O.2   1 <1>  -0.5700 
 22 H       -0.9260    -3.0380    -2.6750 H     1 <1>   0.0800 
 23 H       -2.0370    -1.7630    -3.0900 H     1 <1>   0.0800 
 24 H       -0.4580    -3.5970    -0.3330 H     1 <1>   0.0800 
 25 H       -0.4170    -2.7470     1.1830 H     1 <1>   0.0800 
 26 H        0.4760    -0.3030     1.1970 H     1 <1>   0.0800 
 27 H        0.9690     0.3990    -0.3180 H     1 <1>   0.0800 
 28 H        1.9500    -3.6140    -0.4890 H     1 <1>   0.0800 
 29 H        1.4590    -4.3040     1.0290 H     1 <1>   0.0800 
 30 H        2.9160    -0.2920     1.0270 H     1 <1>   0.0800 
 31 H        2.8420    -1.1330    -0.4920 H     1 <1>   0.0800 
 32 H        1.9560    -2.2150     2.1970 H     1 <1>   0.0800 
 33 H       -3.4360    -0.3870    -1.9450 H     1 <1>   0.1500 
 34 H        4.2630    -3.0490     0.4140 H     1 <1>   0.0800 
 35 H        3.8110    -3.8150     1.9180 H     1 <1>   0.0800 
 36 H        4.4040    -2.1750     1.9200 H     1 <1>   0.0800 
 37 H       -4.5690    -2.1070     2.5140 H     1 <1>   0.1500 
 38 H       -4.7360     0.9830    -0.4140 H     1 <1>   0.1500 
 39 H       -4.5260    -4.7380    -0.0770 H     1 <1>   0.0800 
 40 H       -3.5820    -5.7340     1.0290 H     1 <1>   0.0800 
 41 H       -2.8070    -5.0210    -0.3770 H     1 <1>   0.0800 
 42 H       -5.7260    -0.0470     3.0510 H     1 <1>   0.0600 
@<TRIPOS>BOND
  1   1   2  2   
  2   2   3  am  
  3   2   4  1   
  4   3   5  1   
  5   3   6  1   
  6   4   7  1   
  7   4  22  1   
  8   4  23  1   
  9   5   8  1   
 10   5  24  1   
 11   5  25  1   
 12   6   9  1   
 13   6  26  1   
 14   6  27  1   
 15   7  10  1   
 16   8  11  1   
 17   8  28  1   
 18   8  29  1   
 19   9  11  1   
 20   9  30  1   
 21   9  31  1   
 22  10  12  ar  
 23  10  13  ar  
 24  11  14  1   
 25  11  32  1   
 26  12  15  1   
 27  12  16  ar  
 28  13  17  ar  
 29  13  33  1   
 30  14  34  1   
 31  14  35  1   
 32  14  36  1   
 33  15  18  1   
 34  16  19  ar  
 35  16  37  1   
 36  17  19  ar  
 37  17  38  1   
 38  18  39  1   
 39  18  40  1   
 40  18  41  1   
 41  19  20  1   
 42  20  21  2   
 43  20  42  1   
@<TRIPOS>SUBSTRUCTURE
  1 ****  10 GROUP 4 **** **** 0

# MOE 2024.06 (io_trps.svl 2023.06)
