@<TRIPOS>MOLECULE
N-(2-Azepan-1-yl-2-oxo-ethyl)-4-fluoro-N-(4-methoxy-phenyl)-benzenesulfonamide
54 56 1 0 0 
SMALL
USER_CHARGES


@<TRIPOS>ATOM
  1 S       -0.3520     1.4340    -1.9360 S.o2  1 <1>   1.4470 
  2 O        0.9570     1.5850    -2.5310 O.2   1 <1>  -0.6500 
  3 O       -1.5230     1.4950    -2.7800 O.2   1 <1>  -0.6500 
  4 N       -0.4900     2.7060    -0.7660 N.am  1 <1>  -0.6930 
  5 C       -0.4150    -0.0660    -0.9150 C.ar  1 <1>  -0.0090 
  6 C       -1.7200     3.0860    -0.2320 C.ar  1 <1>   0.1990 
  7 C        0.7790     3.1920    -0.1370 C.3   1 <1>   0.2570 
  8 C        0.6980    -0.8950    -0.7800 C.ar  1 <1>  -0.1500 
  9 C       -1.5810    -0.4120    -0.2340 C.ar  1 <1>  -0.1500 
 10 C       -2.0260     2.8650     1.1070 C.ar  1 <1>  -0.1500 
 11 C       -2.6750     3.7000    -1.0340 C.ar  1 <1>  -0.1500 
 12 C        1.5770     2.1160     0.6240 C.2   1 <1>   0.5690 
 13 C        0.6580    -2.0320     0.0100 C.ar  1 <1>  -0.1500 
 14 C       -1.6420    -1.5440     0.5630 C.ar  1 <1>  -0.1500 
 15 C       -3.2460     3.2480     1.6350 C.ar  1 <1>  -0.1500 
 16 C       -3.8980     4.0840    -0.5140 C.ar  1 <1>  -0.1500 
 17 O        1.0620     1.6970     1.6370 O.2   1 <1>  -0.5700 
 18 N        2.8080     1.6390     0.2170 N.am  1 <1>  -0.6600 
 19 C       -0.5160    -2.3350     0.6700 C.ar  1 <1>   0.1900 
 20 C       -4.1930     3.8640     0.8210 C.ar  1 <1>   0.0830 
 21 C        3.4770     0.5780     1.0250 C.3   1 <1>   0.1400 
 22 C        3.5460     2.0700    -1.0110 C.3   1 <1>   0.1400 
 23 F       -0.5620    -3.4040     1.4170 F     1 <1>  -0.1900 
 24 O       -5.4170     4.2730     1.2530 O.3   1 <1>  -0.3620 
 25 C        4.3130     1.2190     2.1370 C.3   1 <1>  -0.1600 
 26 C        5.0580     2.2490    -0.8010 C.3   1 <1>  -0.1600 
 27 C       -5.8010     4.1030     2.6000 C.3   1 <1>   0.0400 
 28 C        5.6220     1.8710     1.6640 C.3   1 <1>  -0.1600 
 29 C        5.4550     2.9010     0.5350 C.3   1 <1>  -0.1600 
 30 H        0.5340     3.9630     0.5720 H     1 <1>   0.0800 
 31 H        1.3710     3.6570    -0.8970 H     1 <1>   0.0800 
 32 H        1.6090    -0.6440    -1.2980 H     1 <1>   0.1500 
 33 H       -2.4530     0.2150    -0.3290 H     1 <1>   0.1500 
 34 H       -1.3080     2.3830     1.7440 H     1 <1>   0.1500 
 35 H       -2.4570     3.8730    -2.0720 H     1 <1>   0.1500 
 36 H        1.5160    -2.6710     0.1160 H     1 <1>   0.1500 
 37 H       -2.5400    -1.8090     1.0900 H     1 <1>   0.1500 
 38 H       -3.4400     3.0580     2.6730 H     1 <1>   0.1500 
 39 H       -4.6310     4.5570    -1.1420 H     1 <1>   0.1500 
 40 H        4.0910    -0.0440     0.3970 H     1 <1>   0.0800 
 41 H        2.7280    -0.0560     1.4700 H     1 <1>   0.0800 
 42 H        3.1630     3.0050    -1.3690 H     1 <1>   0.0800 
 43 H        3.3870     1.3420    -1.7880 H     1 <1>   0.0800 
 44 H        4.5630     0.4530     2.8500 H     1 <1>   0.0800 
 45 H        3.7090     1.9440     2.6550 H     1 <1>   0.0800 
 46 H        5.4180     2.8690    -1.6040 H     1 <1>   0.0800 
 47 H        5.5510     1.3000    -0.9100 H     1 <1>   0.0800 
 48 H       -6.7940     4.4990     2.7160 H     1 <1>   0.0800 
 49 H       -5.1160     4.6440     3.2290 H     1 <1>   0.0800 
 50 H       -5.7960     3.0540     2.8350 H     1 <1>   0.0800 
 51 H        6.3050     1.1030     1.3440 H     1 <1>   0.0800 
 52 H        6.0750     2.3620     2.5080 H     1 <1>   0.0800 
 53 H        4.7410     3.6550     0.8170 H     1 <1>   0.0800 
 54 H        6.4040     3.3910     0.3990 H     1 <1>   0.0800 
@<TRIPOS>BOND
  1   1   2  2   
  2   1   3  2   
  3   1   4  am  
  4   1   5  1   
  5   4   6  1   
  6   4   7  1   
  7   5   8  ar  
  8   5   9  ar  
  9   6  10  ar  
 10   6  11  ar  
 11   7  12  1   
 12   7  30  1   
 13   7  31  1   
 14   8  13  ar  
 15   8  32  1   
 16   9  14  ar  
 17   9  33  1   
 18  10  15  ar  
 19  10  34  1   
 20  11  16  ar  
 21  11  35  1   
 22  12  17  2   
 23  12  18  am  
 24  13  19  ar  
 25  13  36  1   
 26  14  19  ar  
 27  14  37  1   
 28  15  20  ar  
 29  15  38  1   
 30  16  20  ar  
 31  16  39  1   
 32  18  21  1   
 33  18  22  1   
 34  19  23  1   
 35  20  24  1   
 36  21  25  1   
 37  21  40  1   
 38  21  41  1   
 39  22  26  1   
 40  22  42  1   
 41  22  43  1   
 42  24  27  1   
 43  25  28  1   
 44  25  44  1   
 45  25  45  1   
 46  26  29  1   
 47  26  46  1   
 48  26  47  1   
 49  27  48  1   
 50  27  49  1   
 51  27  50  1   
 52  28  29  1   
 53  28  51  1   
 54  28  52  1   
 55  29  53  1   
 56  29  54  1   
@<TRIPOS>SUBSTRUCTURE
  1 ****   4 GROUP 4 **** **** 0

# MOE 2024.06 (io_trps.svl 2023.06)
