@<TRIPOS>MOLECULE
8-(2-Methoxy-5-methyl-phenyl)-1,7-dimethyl-3-(2-oxo-propyl)-1H,8H-imidazo[2,1-f]
51 54 1 0 0 
SMALL
USER_CHARGES


@<TRIPOS>ATOM
  1 O        0.7030    -0.1240     0.5650 O.2   1 <1>  -0.5740 
  2 C        1.6720     0.4930     0.1710 C.2   1 <1>   0.6860 
  3 N        1.4930     1.6710    -0.5420 N.am  1 <1>  -0.4260 
  4 N        2.9530     0.0260     0.4400 N.am  1 <1>  -0.4410 
  5 C        2.5730     2.3840    -1.0370 C.2   1 <1>   0.6990 
  6 C        0.2160     2.4230    -0.3360 C.3   1 <1>   0.1940 
  7 C        4.0230     0.7990     0.0350 C.2   1 <1>   0.4210 
  8 C        3.1580    -1.2220     1.2310 C.3   1 <1>   0.0520 
  9 O        2.3970     3.3570    -1.7520 O.2   1 <1>  -0.5740 
 10 C        3.8800     1.9380    -0.6870 C.2   1 <1>   0.2710 
 11 C        0.3100     3.2960     0.9150 C.2   1 <1>   0.4430 
 12 N        5.3500     0.5740     0.2590 N.pl3 1 <1>  -0.7040 
 13 N        5.1740     2.4210    -0.9230 N.pl3 1 <1>  -0.6330 
 14 O        1.3360     3.4270     1.5190 O.2   1 <1>  -0.5740 
 15 C       -0.9550     3.9970     1.3580 C.3   1 <1>  -0.1860 
 16 C        6.0070     1.5740    -0.3360 C.cat 1 <1>   1.0690 
 17 C        5.9510     3.3840    -1.5350 C.2   1 <1>   0.2220 
 18 N        7.2870     1.9320    -0.4980 N.pl3 1 <1>  -0.5550 
 19 C        7.2430     3.0810    -1.2820 C.2   1 <1>   0.1580 
 20 C        8.4040     1.1950    -0.0410 C.ar  1 <1>   0.3050 
 21 C        8.4980     3.7970    -1.7450 C.3   1 <1>  -0.1090 
 22 C        8.5760    -0.1520    -0.3850 C.ar  1 <1>   0.0750 
 23 C        9.3380     1.8100     0.7800 C.ar  1 <1>  -0.1570 
 24 O        7.6260    -0.7440    -1.1670 O.3   1 <1>  -0.3680 
 25 C        9.6890    -0.8440     0.0820 C.ar  1 <1>  -0.1570 
 26 C       10.4420     1.1190     1.2470 C.ar  1 <1>  -0.1510 
 27 C        7.8910    -1.9640    -1.8320 C.3   1 <1>   0.0320 
 28 C       10.6130    -0.2070     0.8910 C.ar  1 <1>  -0.1570 
 29 C       11.4650     1.8010     2.1390 C.3   1 <1>  -0.1040 
 30 H       -0.6060     1.7370    -0.2330 H     1 <1>   0.0720 
 31 H        0.0150     3.0460    -1.1900 H     1 <1>   0.0720 
 32 H        2.3120    -1.8800     1.1220 H     1 <1>   0.0720 
 33 H        3.2690    -0.9760     2.2730 H     1 <1>   0.0720 
 34 H        4.0330    -1.7450     0.8900 H     1 <1>   0.0720 
 35 H        5.8150    -0.2230     0.6880 H     1 <1>   0.4450 
 36 H       -1.7150     3.2730     1.5900 H     1 <1>   0.0720 
 37 H       -1.3080     4.6500     0.5810 H     1 <1>   0.0720 
 38 H       -0.7570     4.5820     2.2380 H     1 <1>   0.0720 
 39 H        5.5230     4.1960    -2.1040 H     1 <1>   0.1430 
 40 H        9.1430     3.1120    -2.2670 H     1 <1>   0.0720 
 41 H        9.0310     4.2050    -0.9050 H     1 <1>   0.0720 
 42 H        8.2460     4.6030    -2.4110 H     1 <1>   0.0720 
 43 H        9.2020     2.8390     1.0600 H     1 <1>   0.1430 
 44 H        9.8590    -1.8760    -0.1640 H     1 <1>   0.1430 
 45 H        7.0710    -2.1730    -2.4950 H     1 <1>   0.0720 
 46 H        7.9790    -2.7520    -1.1050 H     1 <1>   0.0720 
 47 H        8.8000    -1.8650    -2.4000 H     1 <1>   0.0720 
 48 H       11.4720    -0.7520     1.2460 H     1 <1>   0.1430 
 49 H       11.0470     2.6750     2.6050 H     1 <1>   0.0720 
 50 H       12.3200     2.0950     1.5560 H     1 <1>   0.0720 
 51 H       11.7910     1.1290     2.9130 H     1 <1>   0.0720 
@<TRIPOS>BOND
  1   1   2  2   
  2   2   3  am  
  3   2   4  am  
  4   3   5  am  
  5   3   6  1   
  6   4   7  1   
  7   4   8  1   
  8   5   9  2   
  9   5  10  1   
 10   6  11  1   
 11   6  30  1   
 12   6  31  1   
 13   7  10  2   
 14   7  12  1   
 15   8  32  1   
 16   8  33  1   
 17   8  34  1   
 18  10  13  1   
 19  11  14  2   
 20  11  15  1   
 21  12  16  ar  
 22  12  35  1   
 23  13  16  ar  
 24  13  17  1   
 25  15  36  1   
 26  15  37  1   
 27  15  38  1   
 28  16  18  ar  
 29  17  19  2   
 30  17  39  1   
 31  18  19  1   
 32  18  20  1   
 33  19  21  1   
 34  20  22  ar  
 35  20  23  ar  
 36  21  40  1   
 37  21  41  1   
 38  21  42  1   
 39  22  24  1   
 40  22  25  ar  
 41  23  26  ar  
 42  23  43  1   
 43  24  27  1   
 44  25  28  ar  
 45  25  44  1   
 46  26  28  ar  
 47  26  29  1   
 48  27  45  1   
 49  27  46  1   
 50  27  47  1   
 51  28  48  1   
 52  29  49  1   
 53  29  50  1   
 54  29  51  1   
@<TRIPOS>SUBSTRUCTURE
  1 ****  16 GROUP 4 **** **** 0

# MOE 2024.06 (io_trps.svl 2023.06)
