@<TRIPOS>MOLECULE
8-(2,6-Dimethyl-morpholin-4-ylmethyl)-7-(4-fluoro-benzyl)-1,3-dimethyl-3,7-dihyd
57 60 1 0 0 
SMALL
USER_CHARGES


@<TRIPOS>ATOM
  1 F        3.8730    -0.9580    -2.8970 F     1 <1>  -0.1900 
  2 C        3.8060    -1.9000    -1.9950 C.ar  1 <1>   0.1900 
  3 C        4.9720    -2.5190    -1.5900 C.ar  1 <1>  -0.1500 
  4 C        2.5710    -2.2420    -1.4780 C.ar  1 <1>  -0.1500 
  5 C        4.8950    -3.5190    -0.6360 C.ar  1 <1>  -0.1500 
  6 C        2.5060    -3.2440    -0.5250 C.ar  1 <1>  -0.1500 
  7 C        3.6640    -3.8920    -0.1050 C.ar  1 <1>  -0.1430 
  8 C        3.5850    -5.0020     0.9320 C.3   1 <1>   0.4980 
  9 N        2.9970    -6.2160     0.2980 N.pl3 1 <1>  -0.7640 
 10 C        1.6880    -6.6680     0.4740 C.2   1 <1>   0.2770 
 11 C        3.5950    -7.0430    -0.5540 C.cat 1 <1>   0.6560 
 12 C        0.5450    -6.2180     1.2170 C.2   1 <1>   0.7030 
 13 C        1.5670    -7.7860    -0.2800 C.2   1 <1>   0.4260 
 14 N        2.7490    -8.0080    -0.9120 N.pl3 1 <1>  -0.7000 
 15 C        5.0410    -6.9400    -1.0760 C.3   1 <1>   0.2540 
 16 O        0.5980    -5.2170     1.9100 O.2   1 <1>  -0.5700 
 17 N       -0.6320    -6.9500     1.1210 N.am  1 <1>  -0.4200 
 18 N        0.4090    -8.5380    -0.3610 N.am  1 <1>  -0.4360 
 19 N        6.0820    -6.7990    -0.0160 N.3   1 <1>  -0.8100 
 20 C       -0.7020    -8.1040     0.3490 C.2   1 <1>   0.6900 
 21 C       -1.8480    -6.5160     1.8800 C.3   1 <1>   0.0600 
 22 C        0.3510    -9.7730    -1.1990 C.3   1 <1>   0.0600 
 23 C        6.1220    -7.9430     0.9300 C.3   1 <1>   0.1100 
 24 C        7.4300    -6.6690    -0.6200 C.3   1 <1>   0.1100 
 25 O       -1.7380    -8.7340     0.2950 O.2   1 <1>  -0.5700 
 26 C        6.6670    -9.2650     0.3210 C.3   1 <1>   0.2000 
 27 C        8.0130    -7.9970    -1.1830 C.3   1 <1>   0.2000 
 28 O        7.1440    -9.0810    -0.9820 O.3   1 <1>  -0.5600 
 29 C        5.5980   -10.3520     0.2390 C.3   1 <1>  -0.2400 
 30 C        9.3880    -8.3440    -0.6060 C.3   1 <1>  -0.2400 
 31 H        5.9130    -2.2170    -2.0120 H     1 <1>   0.1500 
 32 H        1.6870    -1.7290    -1.8150 H     1 <1>   0.1500 
 33 H        5.8020    -4.0020    -0.3090 H     1 <1>   0.1500 
 34 H        1.5470    -3.5100    -0.1110 H     1 <1>   0.1500 
 35 H        2.9830    -4.6780     1.7630 H     1 <1>   0.0800 
 36 H        4.5650    -5.2240     1.3160 H     1 <1>   0.0800 
 37 H        2.9460    -8.7770    -1.5550 H     1 <1>   0.4500 
 38 H        5.0890    -6.0810    -1.7220 H     1 <1>   0.0800 
 39 H        5.2430    -7.8010    -1.6850 H     1 <1>   0.0800 
 40 H       -1.7970    -5.4710     2.1350 H     1 <1>   0.0800 
 41 H       -1.9330    -7.0930     2.7840 H     1 <1>   0.0800 
 42 H       -2.7320    -6.6720     1.2860 H     1 <1>   0.0800 
 43 H        1.2460   -10.3560    -1.0680 H     1 <1>   0.0800 
 44 H        0.2450    -9.5040    -2.2360 H     1 <1>   0.0800 
 45 H       -0.4880   -10.3880    -0.9190 H     1 <1>   0.0800 
 46 H        5.1510    -8.1070     1.3630 H     1 <1>   0.0800 
 47 H        6.7680    -7.6770     1.7490 H     1 <1>   0.0800 
 48 H        8.1020    -6.2920     0.1320 H     1 <1>   0.0800 
 49 H        7.4150    -5.9300    -1.4030 H     1 <1>   0.0800 
 50 H        7.4800    -9.6300     0.9260 H     1 <1>   0.0800 
 51 H        8.1200    -7.8950    -2.2500 H     1 <1>   0.0800 
 52 H        4.7880   -10.0420    -0.3920 H     1 <1>   0.0800 
 53 H        5.2160   -10.5690     1.2200 H     1 <1>   0.0800 
 54 H        6.0310   -11.2520    -0.1590 H     1 <1>   0.0800 
 55 H        9.3620    -8.3940     0.4670 H     1 <1>   0.0800 
 56 H       10.1010    -7.5910    -0.8890 H     1 <1>   0.0800 
 57 H        9.7230    -9.2870    -1.0010 H     1 <1>   0.0800 
@<TRIPOS>BOND
  1   1   2  1   
  2   2   3  ar  
  3   2   4  ar  
  4   3   5  ar  
  5   3  31  1   
  6   4   6  ar  
  7   4  32  1   
  8   5   7  ar  
  9   5  33  1   
 10   6   7  ar  
 11   6  34  1   
 12   7   8  1   
 13   8   9  1   
 14   8  35  1   
 15   8  36  1   
 16   9  10  1   
 17   9  11  ar  
 18  10  12  1   
 19  10  13  2   
 20  11  14  ar  
 21  11  15  1   
 22  12  16  2   
 23  12  17  am  
 24  13  14  1   
 25  13  18  1   
 26  14  37  1   
 27  15  19  1   
 28  15  38  1   
 29  15  39  1   
 30  17  20  am  
 31  17  21  1   
 32  18  20  am  
 33  18  22  1   
 34  19  23  1   
 35  19  24  1   
 36  20  25  2   
 37  21  40  1   
 38  21  41  1   
 39  21  42  1   
 40  22  43  1   
 41  22  44  1   
 42  22  45  1   
 43  23  26  1   
 44  23  46  1   
 45  23  47  1   
 46  24  27  1   
 47  24  48  1   
 48  24  49  1   
 49  26  28  1   
 50  26  29  1   
 51  26  50  1   
 52  27  28  1   
 53  27  30  1   
 54  27  51  1   
 55  29  52  1   
 56  29  53  1   
 57  29  54  1   
 58  30  55  1   
 59  30  56  1   
 60  30  57  1   
@<TRIPOS>SUBSTRUCTURE
  1 ****   9 GROUP 4 **** **** 0

# MOE 2024.06 (io_trps.svl 2023.06)
