@<TRIPOS>MOLECULE
4-[3-(4-Chloro-phenyl)-[1,2,4]oxadiazol-5-ylmethyl]-morpholine
33 35 1 0 0 
SMALL
USER_CHARGES


@<TRIPOS>ATOM
  1 CL       0.4200     0.7780    -0.9850 Cl    1 <1>  -0.1770 
  2 C        2.0710     0.6590    -0.4360 C.ar  1 <1>   0.1770 
  3 C        2.4530     1.3100     0.7200 C.ar  1 <1>  -0.1500 
  4 C        2.9780    -0.0860    -1.1630 C.ar  1 <1>  -0.1500 
  5 C        3.7640     1.2120     1.1510 C.ar  1 <1>  -0.1500 
  6 C        4.2870    -0.1770    -0.7220 C.ar  1 <1>  -0.1500 
  7 C        4.7150     0.4680     0.4430 C.ar  1 <1>   0.0540 
  8 C        6.0900     0.3740     0.9060 C.2   1 <1>   0.4620 
  9 N        6.5630     0.9250     1.9670 N.2   1 <1>  -0.4100 
 10 N        7.0280    -0.3150     0.2480 N.2   1 <1>  -0.5650 
 11 O        7.8220     0.6260     2.0450 O.3   1 <1>  -0.0190 
 12 C        8.0400    -0.1150     0.9900 C.2   1 <1>   0.2980 
 13 C        9.4460    -0.6570     0.7550 C.3   1 <1>   0.2900 
 14 N       10.4440     0.4020     0.4770 N.3   1 <1>  -0.8100 
 15 C       10.1130     1.1560    -0.7520 C.3   1 <1>   0.1100 
 16 C       11.8020    -0.1620     0.3630 C.3   1 <1>   0.1100 
 17 C       11.1960     2.2020    -1.0710 C.3   1 <1>   0.1200 
 18 C       12.8280     0.9310     0.0140 C.3   1 <1>   0.1200 
 19 O       12.4530     1.5940    -1.1590 O.3   1 <1>  -0.5600 
 20 H        1.7310     1.8850     1.2720 H     1 <1>   0.1500 
 21 H        2.6610    -0.5860    -2.0610 H     1 <1>   0.1500 
 22 H        4.0580     1.7210     2.0530 H     1 <1>   0.1500 
 23 H        4.9910    -0.7590    -1.2930 H     1 <1>   0.1500 
 24 H        9.4170    -1.3480    -0.0690 H     1 <1>   0.0800 
 25 H        9.7440    -1.1990     1.6350 H     1 <1>   0.0800 
 26 H        9.1720     1.6650    -0.6250 H     1 <1>   0.0800 
 27 H       10.0210     0.4840    -1.5880 H     1 <1>   0.0800 
 28 H       11.8280    -0.9180    -0.4040 H     1 <1>   0.0800 
 29 H       12.0820    -0.6170     1.2970 H     1 <1>   0.0800 
 30 H       11.2290     2.9550    -0.3040 H     1 <1>   0.0800 
 31 H       10.9920     2.6750    -2.0150 H     1 <1>   0.0800 
 32 H       13.7980     0.4960    -0.1500 H     1 <1>   0.0800 
 33 H       12.8990     1.6520     0.8100 H     1 <1>   0.0800 
@<TRIPOS>BOND
  1   1   2  1   
  2   2   3  ar  
  3   2   4  ar  
  4   3   5  ar  
  5   3  20  1   
  6   4   6  ar  
  7   4  21  1   
  8   5   7  ar  
  9   5  22  1   
 10   6   7  ar  
 11   6  23  1   
 12   7   8  1   
 13   8   9  2   
 14   8  10  1   
 15   9  11  1   
 16  10  12  2   
 17  11  12  1   
 18  12  13  1   
 19  13  14  1   
 20  13  24  1   
 21  13  25  1   
 22  14  15  1   
 23  14  16  1   
 24  15  17  1   
 25  15  26  1   
 26  15  27  1   
 27  16  18  1   
 28  16  28  1   
 29  16  29  1   
 30  17  19  1   
 31  17  30  1   
 32  17  31  1   
 33  18  19  1   
 34  18  32  1   
 35  18  33  1   
@<TRIPOS>SUBSTRUCTURE
  1 ****  10 GROUP 4 **** **** 0

# MOE 2024.06 (io_trps.svl 2023.06)
