@<TRIPOS>MOLECULE
N-Ethyl-4-(3-m-tolyl-[1,2,4]oxadiazol-5-yl)-butyramide
39 40 1 0 0 
SMALL
USER_CHARGES


@<TRIPOS>ATOM
  1 O       -1.2480    -0.6750     1.5670 O.2   1 <1>  -0.5700 
  2 C       -1.4390    -1.7080     0.9770 C.2   1 <1>   0.5690 
  3 N       -0.6730    -2.7860     1.2660 N.am  1 <1>  -0.7300 
  4 C       -2.5240    -1.7910    -0.0880 C.3   1 <1>  -0.0990 
  5 C       -0.6760    -4.1310     0.6610 C.3   1 <1>   0.1400 
  6 C       -3.5510    -0.6400    -0.0310 C.3   1 <1>  -0.1600 
  7 C        0.7660    -4.5370     0.3840 C.3   1 <1>  -0.2400 
  8 C       -4.5800    -0.6780    -1.1750 C.3   1 <1>   0.0200 
  9 C       -5.3840    -1.9660    -1.2090 C.2   1 <1>   0.2980 
 10 O       -4.8990    -2.9940    -1.8550 O.3   1 <1>  -0.0190 
 11 N       -6.5100    -2.1500    -0.6580 N.2   1 <1>  -0.5650 
 12 N       -5.7910    -3.9180    -1.6920 N.2   1 <1>  -0.4100 
 13 C       -6.7480    -3.4250    -0.9860 C.2   1 <1>   0.4620 
 14 C       -7.9500    -4.1330    -0.5740 C.ar  1 <1>   0.0540 
 15 C       -8.9280    -3.5240     0.2150 C.ar  1 <1>  -0.1500 
 16 C       -8.1730    -5.4580    -0.9530 C.ar  1 <1>  -0.1500 
 17 C      -10.0720    -4.1960     0.6120 C.ar  1 <1>  -0.1440 
 18 C       -9.3120    -6.1390    -0.5640 C.ar  1 <1>  -0.1500 
 19 C      -10.2620    -5.5080     0.2180 C.ar  1 <1>  -0.1500 
 20 C      -11.1180    -3.5050     1.4690 C.3   1 <1>  -0.0970 
 21 H        0.0180    -2.6340     2.0030 H     1 <1>   0.3700 
 22 H       -3.0410    -2.7240     0.0410 H     1 <1>   0.0800 
 23 H       -2.0430    -1.7980    -1.0480 H     1 <1>   0.0800 
 24 H       -1.2360    -4.1340    -0.2590 H     1 <1>   0.0800 
 25 H       -1.1310    -4.8290     1.3440 H     1 <1>   0.0800 
 26 H       -3.0300     0.3010    -0.0730 H     1 <1>   0.0800 
 27 H       -4.0690    -0.6810     0.9120 H     1 <1>   0.0800 
 28 H        1.2260    -3.8390    -0.2950 H     1 <1>   0.0800 
 29 H        0.7880    -5.5130    -0.0660 H     1 <1>   0.0800 
 30 H        1.3300    -4.5720     1.2980 H     1 <1>   0.0800 
 31 H       -4.0840    -0.5500    -2.1200 H     1 <1>   0.0800 
 32 H       -5.2630     0.1430    -1.0510 H     1 <1>   0.0800 
 33 H       -8.7850    -2.5030     0.5220 H     1 <1>   0.1500 
 34 H       -7.4440    -5.9630    -1.5620 H     1 <1>   0.1500 
 35 H       -9.4610    -7.1600    -0.8710 H     1 <1>   0.1500 
 36 H      -11.1470    -6.0420     0.5170 H     1 <1>   0.1500 
 37 H      -10.7190    -2.6100     1.9130 H     1 <1>   0.0800 
 38 H      -11.4400    -4.1600     2.2590 H     1 <1>   0.0800 
 39 H      -11.9670    -3.2420     0.8650 H     1 <1>   0.0800 
@<TRIPOS>BOND
  1   1   2  2   
  2   2   3  am  
  3   2   4  1   
  4   3   5  1   
  5   3  21  1   
  6   4   6  1   
  7   4  22  1   
  8   4  23  1   
  9   5   7  1   
 10   5  24  1   
 11   5  25  1   
 12   6   8  1   
 13   6  26  1   
 14   6  27  1   
 15   7  28  1   
 16   7  29  1   
 17   7  30  1   
 18   8   9  1   
 19   8  31  1   
 20   8  32  1   
 21   9  10  1   
 22   9  11  2   
 23  10  12  1   
 24  11  13  1   
 25  12  13  2   
 26  13  14  1   
 27  14  15  ar  
 28  14  16  ar  
 29  15  17  ar  
 30  15  33  1   
 31  16  18  ar  
 32  16  34  1   
 33  17  19  ar  
 34  17  20  1   
 35  18  19  ar  
 36  18  35  1   
 37  19  36  1   
 38  20  37  1   
 39  20  38  1   
 40  20  39  1   
@<TRIPOS>SUBSTRUCTURE
  1 ****  13 GROUP 4 **** **** 0

# MOE 2024.06 (io_trps.svl 2023.06)
