@<TRIPOS>MOLECULE
3-[3-(4-Ethoxy-3-methoxy-phenyl)-[1,2,4]oxadiazol-5-yl]-1-piperidin-1-yl-propan-
51 53 1 0 0 
SMALL
USER_CHARGES


@<TRIPOS>ATOM
  1 O        0.2920    -0.6780     1.3420 O.2   1 <1>  -0.5700 
  2 C        0.6490    -1.5450     0.5790 C.2   1 <1>   0.5690 
  3 N        1.7500    -1.3920    -0.2260 N.am  1 <1>  -0.6600 
  4 C       -0.1620    -2.8310     0.5320 C.3   1 <1>  -0.0990 
  5 C        2.2590    -2.4010    -1.2000 C.3   1 <1>   0.1400 
  6 C        2.5740    -0.1500    -0.1730 C.3   1 <1>   0.1400 
  7 C       -1.3720    -2.8290     1.4820 C.3   1 <1>   0.0200 
  8 C        3.6980    -2.7830    -0.8390 C.3   1 <1>  -0.1600 
  9 C        4.0190    -0.5040     0.1940 C.3   1 <1>  -0.1600 
 10 C       -2.1380    -4.1330     1.3940 C.2   1 <1>   0.2980 
 11 C        4.6090    -1.5490    -0.7640 C.3   1 <1>  -0.1600 
 12 O       -1.5930    -5.2170     1.8800 O.3   1 <1>  -0.0190 
 13 N       -3.2840    -4.2860     0.8740 N.2   1 <1>  -0.5650 
 14 N       -2.4710    -6.1420     1.6490 N.2   1 <1>  -0.4100 
 15 C       -3.4740    -5.5970     1.0570 C.2   1 <1>   0.4620 
 16 C       -4.6800    -6.2840     0.6220 C.ar  1 <1>   0.0540 
 17 C       -4.8420    -7.6560     0.8210 C.ar  1 <1>  -0.1500 
 18 C       -5.7230    -5.6050    -0.0110 C.ar  1 <1>  -0.1500 
 19 C       -5.9880    -8.3290     0.4110 C.ar  1 <1>   0.0820 
 20 C       -6.8690    -6.2560    -0.4260 C.ar  1 <1>  -0.1500 
 21 O       -6.1570    -9.6700     0.6010 O.3   1 <1>  -0.3630 
 22 C       -7.0150    -7.6240    -0.2210 C.ar  1 <1>   0.0820 
 23 C       -5.1770   -10.4630     1.2320 C.3   1 <1>   0.0400 
 24 O       -8.1250    -8.3120    -0.6110 O.3   1 <1>  -0.3630 
 25 C       -9.2060    -7.6810    -1.2550 C.3   1 <1>   0.1200 
 26 C      -10.2640    -8.7420    -1.5460 C.3   1 <1>  -0.2400 
 27 H        0.4860    -3.6480     0.7910 H     1 <1>   0.0800 
 28 H       -0.5160    -2.9760    -0.4720 H     1 <1>   0.0800 
 29 H        2.2370    -1.9710    -2.1870 H     1 <1>   0.0800 
 30 H        1.6480    -3.2840    -1.2110 H     1 <1>   0.0800 
 31 H        2.1800     0.5420     0.5530 H     1 <1>   0.0800 
 32 H        2.5470     0.3300    -1.1360 H     1 <1>   0.0800 
 33 H       -2.0300    -2.0180     1.2250 H     1 <1>   0.0800 
 34 H       -1.0450    -2.6830     2.4970 H     1 <1>   0.0800 
 35 H        4.0800    -3.4680    -1.5750 H     1 <1>   0.0800 
 36 H        3.6960    -3.2910     0.1110 H     1 <1>   0.0800 
 37 H        4.0350    -0.8830     1.2020 H     1 <1>   0.0800 
 38 H        4.6200     0.3880     0.1710 H     1 <1>   0.0800 
 39 H        4.7070    -1.1170    -1.7450 H     1 <1>   0.0800 
 40 H        5.5900    -1.8390    -0.4280 H     1 <1>   0.0800 
 41 H       -4.0470    -8.1860     1.3080 H     1 <1>   0.1500 
 42 H       -5.6340    -4.5460    -0.1810 H     1 <1>   0.1500 
 43 H       -7.6360    -5.6790    -0.9070 H     1 <1>   0.1500 
 44 H       -5.5390   -11.4750     1.2640 H     1 <1>   0.0800 
 45 H       -5.0230   -10.0990     2.2320 H     1 <1>   0.0800 
 46 H       -4.2680   -10.4190     0.6580 H     1 <1>   0.0800 
 47 H       -8.8480    -7.2400    -2.1690 H     1 <1>   0.0800 
 48 H       -9.5980    -6.9240    -0.5990 H     1 <1>   0.0800 
 49 H       -9.8540    -9.5030    -2.1860 H     1 <1>   0.0800 
 50 H      -11.1060    -8.2930    -2.0390 H     1 <1>   0.0800 
 51 H      -10.5990    -9.1890    -0.6270 H     1 <1>   0.0800 
@<TRIPOS>BOND
  1   1   2  2   
  2   2   3  am  
  3   2   4  1   
  4   3   5  1   
  5   3   6  1   
  6   4   7  1   
  7   4  27  1   
  8   4  28  1   
  9   5   8  1   
 10   5  29  1   
 11   5  30  1   
 12   6   9  1   
 13   6  31  1   
 14   6  32  1   
 15   7  10  1   
 16   7  33  1   
 17   7  34  1   
 18   8  11  1   
 19   8  35  1   
 20   8  36  1   
 21   9  11  1   
 22   9  37  1   
 23   9  38  1   
 24  10  12  1   
 25  10  13  2   
 26  11  39  1   
 27  11  40  1   
 28  12  14  1   
 29  13  15  1   
 30  14  15  2   
 31  15  16  1   
 32  16  17  ar  
 33  16  18  ar  
 34  17  19  ar  
 35  17  41  1   
 36  18  20  ar  
 37  18  42  1   
 38  19  21  1   
 39  19  22  ar  
 40  20  22  ar  
 41  20  43  1   
 42  21  23  1   
 43  22  24  1   
 44  23  44  1   
 45  23  45  1   
 46  23  46  1   
 47  24  25  1   
 48  25  26  1   
 49  25  47  1   
 50  25  48  1   
 51  26  49  1   
 52  26  50  1   
 53  26  51  1   
@<TRIPOS>SUBSTRUCTURE
  1 ****  13 GROUP 4 **** **** 0

# MOE 2024.06 (io_trps.svl 2023.06)
