@<TRIPOS>MOLECULE
2-(5-Cyclopropyl-3-difluoromethyl-pyrazol-1-yl)-1-pyrrolidin-1-yl-ethanone
36 38 1 0 0 
SMALL
USER_CHARGES


@<TRIPOS>ATOM
  1 F        1.4670    -0.2880    -1.6670 F     1 <1>  -0.3400 
  2 C        0.9250    -1.5030    -1.6140 C.3   1 <1>   0.7810 
  3 F       -0.0460    -1.3970    -0.7100 F     1 <1>  -0.3400 
  4 C        1.9640    -2.5410    -1.1670 C.2   1 <1>   0.1080 
  5 N        2.1710    -3.6850    -1.7620 N.2   1 <1>  -0.7070 
  6 C        2.8070    -2.3760    -0.0720 C.2   1 <1>  -0.1500 
  7 N        3.1560    -4.2790    -1.0520 N.pl3 1 <1>   0.3140 
  8 C        3.5570    -3.4960    -0.0260 C.2   1 <1>  -0.2370 
  9 C        3.6830    -5.5970    -1.4400 C.3   1 <1>   0.1570 
 10 C        4.6500    -3.8660     0.9590 C.3   1 <1>  -0.0150 
 11 C        3.4400    -6.6230    -0.3550 C.2   1 <1>   0.5690 
 12 C        5.5410    -2.8120     1.5320 C.3   1 <1>  -0.2000 
 13 C        6.0790    -3.7910     0.5310 C.3   1 <1>  -0.2000 
 14 O        4.4120    -7.1160     0.1700 O.2   1 <1>  -0.5700 
 15 N        2.1730    -7.0040     0.0030 N.am  1 <1>  -0.6600 
 16 C        1.9160    -8.0150     1.0510 C.3   1 <1>   0.1400 
 17 C        0.9040    -6.4520    -0.5240 C.3   1 <1>   0.1400 
 18 C        0.4160    -7.9360     1.3120 C.3   1 <1>  -0.1600 
 19 C       -0.1740    -7.3810     0.0180 C.3   1 <1>  -0.1600 
 20 H        0.4820    -1.7210    -2.5670 H     1 <1>   0.0800 
 21 H        2.8350    -1.5220     0.5830 H     1 <1>   0.1500 
 22 H        4.7360    -5.5040    -1.6180 H     1 <1>   0.0800 
 23 H        3.2040    -5.9130    -2.3460 H     1 <1>   0.0800 
 24 H        4.3680    -4.6760     1.6120 H     1 <1>   0.1000 
 25 H        5.8440    -2.9010     2.5610 H     1 <1>   0.1000 
 26 H        5.4020    -1.7900     1.2270 H     1 <1>   0.1000 
 27 H        6.3080    -3.4370    -0.4590 H     1 <1>   0.1000 
 28 H        6.7470    -4.5690     0.8600 H     1 <1>   0.1000 
 29 H        2.4880    -7.8020     1.9380 H     1 <1>   0.0800 
 30 H        2.1850    -8.9870     0.6730 H     1 <1>   0.0800 
 31 H        0.9000    -6.4240    -1.6010 H     1 <1>   0.0800 
 32 H        0.7620    -5.4570    -0.1350 H     1 <1>   0.0800 
 33 H        0.2390    -7.2470     2.1190 H     1 <1>   0.0800 
 34 H        0.0050    -8.8950     1.5740 H     1 <1>   0.0800 
 35 H       -0.3330    -8.1810    -0.6840 H     1 <1>   0.0800 
 36 H       -1.1040    -6.8640     0.1790 H     1 <1>   0.0800 
@<TRIPOS>BOND
  1   1   2  1   
  2   2   3  1   
  3   2   4  1   
  4   2  20  1   
  5   4   5  2   
  6   4   6  1   
  7   5   7  1   
  8   6   8  2   
  9   6  21  1   
 10   7   8  1   
 11   7   9  1   
 12   8  10  1   
 13   9  11  1   
 14   9  22  1   
 15   9  23  1   
 16  10  12  1   
 17  10  13  1   
 18  10  24  1   
 19  11  14  2   
 20  11  15  am  
 21  12  13  1   
 22  12  25  1   
 23  12  26  1   
 24  13  27  1   
 25  13  28  1   
 26  15  16  1   
 27  15  17  1   
 28  16  18  1   
 29  16  29  1   
 30  16  30  1   
 31  17  19  1   
 32  17  31  1   
 33  17  32  1   
 34  18  19  1   
 35  18  33  1   
 36  18  34  1   
 37  19  35  1   
 38  19  36  1   
@<TRIPOS>SUBSTRUCTURE
  1 ****   7 GROUP 4 **** **** 0

# MOE 2024.06 (io_trps.svl 2023.06)
