@<TRIPOS>MOLECULE
N-(2-Hydroxy-6-methoxy-quinolin-3-ylmethyl)-N-isopropyl-propionamide
44 45 1 0 0 
SMALL
USER_CHARGES


@<TRIPOS>ATOM
  1 O       -0.6540    -1.9260     0.8380 O.2   1 <1>  -0.5700 
  2 C       -1.5130    -1.0800     0.7590 C.2   1 <1>   0.5690 
  3 N       -2.7100    -1.2910     0.1060 N.am  1 <1>  -0.6600 
  4 C       -1.1620     0.2670     1.3860 C.3   1 <1>  -0.0990 
  5 C       -2.9400    -2.4740    -0.7820 C.3   1 <1>   0.2200 
  6 C       -3.8660    -0.3420     0.2090 C.3   1 <1>   0.2780 
  7 C       -1.5190     0.3580     2.8780 C.3   1 <1>  -0.2400 
  8 C       -3.0300    -3.7610     0.0400 C.3   1 <1>  -0.2400 
  9 C       -1.8820    -2.5620    -1.8830 C.3   1 <1>  -0.2400 
 10 C       -5.1790    -1.0460     0.5270 C.2   1 <1>  -0.1240 
 11 C       -5.4150    -1.4350     1.8850 C.2   1 <1>   0.6160 
 12 C       -6.1120    -1.2980    -0.4290 C.2   1 <1>  -0.1780 
 13 O       -4.6730    -1.1700     2.8130 O.2   1 <1>  -0.5700 
 14 N       -6.5630    -2.1100     2.1670 N.am  1 <1>  -0.5470 
 15 C       -7.3300    -1.9810    -0.1100 C.ar  1 <1>   0.0280 
 16 C       -7.5380    -2.3930     1.2160 C.ar  1 <1>   0.1170 
 17 C       -8.3120    -2.2600    -1.0590 C.ar  1 <1>  -0.1500 
 18 C       -8.7060    -3.0690     1.5570 C.ar  1 <1>  -0.1500 
 19 C       -9.4690    -2.9280    -0.7170 C.ar  1 <1>   0.0820 
 20 C       -9.6660    -3.3370     0.6040 C.ar  1 <1>  -0.1500 
 21 O      -10.3650    -3.1510    -1.7150 O.3   1 <1>  -0.3630 
 22 C      -11.5880    -3.8100    -1.4660 C.3   1 <1>   0.0400 
 23 H       -1.6190     1.0680     0.8390 H     1 <1>   0.0800 
 24 H       -0.0990     0.3980     1.2890 H     1 <1>   0.0800 
 25 H       -3.8810    -2.3520    -1.2870 H     1 <1>   0.0800 
 26 H       -3.9580     0.1770    -0.7280 H     1 <1>   0.0800 
 27 H       -3.6930     0.3950     0.9720 H     1 <1>   0.0800 
 28 H       -2.5810     0.2880     3.0240 H     1 <1>   0.0800 
 29 H       -1.1770     1.2920     3.2860 H     1 <1>   0.0800 
 30 H       -1.0490    -0.4460     3.4160 H     1 <1>   0.0800 
 31 H       -2.0860    -3.9900     0.4990 H     1 <1>   0.0800 
 32 H       -3.3010    -4.5820    -0.5970 H     1 <1>   0.0800 
 33 H       -3.7770    -3.6630     0.8060 H     1 <1>   0.0800 
 34 H       -0.9190    -2.8180    -1.4790 H     1 <1>   0.0800 
 35 H       -1.8110    -1.6260    -2.4050 H     1 <1>   0.0800 
 36 H       -2.1560    -3.3250    -2.5870 H     1 <1>   0.0800 
 37 H       -5.9720    -1.0050    -1.4540 H     1 <1>   0.1500 
 38 H       -6.6810    -2.3730     3.1440 H     1 <1>   0.3700 
 39 H       -8.1720    -1.9510    -2.0780 H     1 <1>   0.1500 
 40 H       -8.8560    -3.3830     2.5740 H     1 <1>   0.1500 
 41 H      -10.5570    -3.8600     0.8970 H     1 <1>   0.1500 
 42 H      -12.1310    -3.8660    -2.3920 H     1 <1>   0.0800 
 43 H      -12.1510    -3.2430    -0.7460 H     1 <1>   0.0800 
 44 H      -11.3830    -4.8020    -1.1030 H     1 <1>   0.0800 
@<TRIPOS>BOND
  1   1   2  2   
  2   2   3  am  
  3   2   4  1   
  4   3   5  1   
  5   3   6  1   
  6   4   7  1   
  7   4  23  1   
  8   4  24  1   
  9   5   8  1   
 10   5   9  1   
 11   5  25  1   
 12   6  10  1   
 13   6  26  1   
 14   6  27  1   
 15   7  28  1   
 16   7  29  1   
 17   7  30  1   
 18   8  31  1   
 19   8  32  1   
 20   8  33  1   
 21   9  34  1   
 22   9  35  1   
 23   9  36  1   
 24  10  11  1   
 25  10  12  2   
 26  11  13  2   
 27  11  14  am  
 28  12  15  1   
 29  12  37  1   
 30  14  16  1   
 31  14  38  1   
 32  15  16  ar  
 33  15  17  ar  
 34  16  18  ar  
 35  17  19  ar  
 36  17  39  1   
 37  18  20  ar  
 38  18  40  1   
 39  19  20  ar  
 40  19  21  1   
 41  20  41  1   
 42  21  22  1   
 43  22  42  1   
 44  22  43  1   
 45  22  44  1   
@<TRIPOS>SUBSTRUCTURE
  1 ****  10 GROUP 4 **** **** 0

# MOE 2024.06 (io_trps.svl 2023.06)
