@<TRIPOS>MOLECULE
4-[(1-Cyclopropyl-4-hydroxy-2-oxo-1,2,5,6,7,8-hexahydro-quinoline-3-carbonyl)-am
52 55 1 0 0 
SMALL
USER_CHARGES


@<TRIPOS>ATOM
  1 O       -0.1060     0.5950    -0.5370 O.3   1 <1>  -0.8500 
  2 C       -1.1790     1.1270    -0.2290 C.2   1 <1>  -0.0500 
  3 N       -2.3020     0.3030    -0.1360 N.pl3 1 <1>  -0.3690 
  4 C       -1.2940     2.5300     0.0030 C.2   1 <1>   0.0290 
  5 C       -3.5770     0.8630    -0.1070 C.2   1 <1>  -0.0380 
  6 C       -2.0950    -1.1760    -0.1420 C.3   1 <1>   0.0690 
  7 C       -2.5810     3.0390     0.2860 C.2   1 <1>   0.5410 
  8 C       -0.1600     3.3880    -0.0450 C.2   1 <1>   0.6160 
  9 C       -3.7290     2.1920     0.1220 C.2   1 <1>  -0.1240 
 10 C       -4.7740    -0.0560    -0.3620 C.3   1 <1>  -0.0220 
 11 C       -2.6520    -2.0210     0.9690 C.3   1 <1>  -0.2000 
 12 C       -1.1830    -1.7900     0.8780 C.3   1 <1>  -0.2000 
 13 O       -2.7820     4.1970     0.6920 O.2   1 <1>  -0.5700 
 14 O       -0.2210     4.6050    -0.2300 O.2   1 <1>  -0.5700 
 15 N        1.0990     2.8400     0.0810 N.am  1 <1>  -0.5470 
 16 C       -5.1080     2.8580     0.1940 C.3   1 <1>  -0.0220 
 17 C       -6.0460     0.7160    -0.7300 C.3   1 <1>  -0.1600 
 18 C        2.3950     3.3450     0.1120 C.ar  1 <1>   0.1170 
 19 C       -6.2680     1.8580     0.2610 C.3   1 <1>  -0.1600 
 20 C        3.4480     2.4940    -0.1990 C.ar  1 <1>  -0.1500 
 21 C        2.7010     4.6580     0.4550 C.ar  1 <1>  -0.1500 
 22 C        4.7560     2.9370    -0.1760 C.ar  1 <1>  -0.1500 
 23 C        4.0090     5.1000     0.4780 C.ar  1 <1>  -0.1500 
 24 C        5.0780     4.2560     0.1630 C.ar  1 <1>   0.0860 
 25 C        6.4450     4.7350     0.1930 C.2   1 <1>   0.6340 
 26 O        6.7490     5.8730     0.4950 O.2   1 <1>  -0.5700 
 27 O        7.4210     3.8790    -0.1280 O.3   1 <1>  -0.4300 
 28 C        8.7770     4.2680    -0.1240 C.3   1 <1>   0.1200 
 29 C        9.6160     3.0630    -0.5350 C.3   1 <1>  -0.2400 
 30 H       -2.0090    -1.5580    -1.1440 H     1 <1>   0.1000 
 31 H       -4.9620    -0.6340     0.5230 H     1 <1>   0.0800 
 32 H       -4.5450    -0.7310    -1.1670 H     1 <1>   0.0800 
 33 H       -3.0300    -2.9990     0.7350 H     1 <1>   0.1000 
 34 H       -3.1740    -1.5460     1.7790 H     1 <1>   0.1000 
 35 H       -0.6870    -1.0980     1.5370 H     1 <1>   0.1000 
 36 H       -0.5330    -2.5750     0.5410 H     1 <1>   0.1000 
 37 H        0.9850     1.8150    -0.0740 H     1 <1>   0.3700 
 38 H       -5.2210     3.4800    -0.6770 H     1 <1>   0.0800 
 39 H       -5.1610     3.4960     1.0590 H     1 <1>   0.0800 
 40 H       -6.8890     0.0480    -0.7210 H     1 <1>   0.0800 
 41 H       -5.9430     1.1170    -1.7240 H     1 <1>   0.0800 
 42 H       -7.1930     2.3640     0.0440 H     1 <1>   0.0800 
 43 H       -6.3310     1.4570     1.2580 H     1 <1>   0.0800 
 44 H        3.2210     1.4750    -0.4650 H     1 <1>   0.1500 
 45 H        1.9030     5.3330     0.7060 H     1 <1>   0.1500 
 46 H        5.5420     2.2460    -0.4250 H     1 <1>   0.1500 
 47 H        4.2110     6.1230     0.7450 H     1 <1>   0.1500 
 48 H        9.0330     4.5990     0.8680 H     1 <1>   0.0800 
 49 H        8.9000     5.0820    -0.8190 H     1 <1>   0.0800 
 50 H        9.4740     2.2570     0.1620 H     1 <1>   0.0800 
 51 H       10.6570     3.3310    -0.5410 H     1 <1>   0.0800 
 52 H        9.3410     2.7390    -1.5230 H     1 <1>   0.0800 
@<TRIPOS>BOND
  1   1   2  1   
  2   2   3  1   
  3   2   4  2   
  4   3   5  1   
  5   3   6  1   
  6   4   7  1   
  7   4   8  1   
  8   5   9  2   
  9   5  10  1   
 10   6  11  1   
 11   6  12  1   
 12   6  30  1   
 13   7   9  1   
 14   7  13  2   
 15   8  14  2   
 16   8  15  am  
 17   9  16  1   
 18  10  17  1   
 19  10  31  1   
 20  10  32  1   
 21  11  12  1   
 22  11  33  1   
 23  11  34  1   
 24  12  35  1   
 25  12  36  1   
 26  15  18  1   
 27  15  37  1   
 28  16  19  1   
 29  16  38  1   
 30  16  39  1   
 31  17  19  1   
 32  17  40  1   
 33  17  41  1   
 34  18  20  ar  
 35  18  21  ar  
 36  19  42  1   
 37  19  43  1   
 38  20  22  ar  
 39  20  44  1   
 40  21  23  ar  
 41  21  45  1   
 42  22  24  ar  
 43  22  46  1   
 44  23  24  ar  
 45  23  47  1   
 46  24  25  1   
 47  25  26  2   
 48  25  27  1   
 49  27  28  1   
 50  28  29  1   
 51  28  48  1   
 52  28  49  1   
 53  29  50  1   
 54  29  51  1   
 55  29  52  1   
@<TRIPOS>SUBSTRUCTURE
  1 ****  15 GROUP 4 **** **** 0

# MOE 2024.06 (io_trps.svl 2023.06)
