@<TRIPOS>MOLECULE
5-(5-Acetyl-2-methoxy-phenyl)-4,6-dioxo-1,3a,4,5,6,6a-hexahydro-pyrrolo[3,4-c]py
43 45 1 0 0 
SMALL
USER_CHARGES


@<TRIPOS>ATOM
  1 O       -0.9500    -1.2900    -2.4850 O.2   1 <1>  -0.5700 
  2 C       -0.3920    -1.9610    -1.6530 C.2   1 <1>   0.5690 
  3 N       -0.9290    -2.9750    -0.8920 N.am  1 <1>  -0.2370 
  4 C        1.0480    -1.8140    -1.2120 C.3   1 <1>   0.2510 
  5 C       -2.2700    -3.0040    -0.4700 C.ar  1 <1>   0.1170 
  6 C        0.1010    -3.6360    -0.2550 C.2   1 <1>   0.5690 
  7 N        2.3140    -1.4350    -1.8400 N.pl3 1 <1>  -0.5280 
  8 C        1.3810    -3.2540    -0.9360 C.3   1 <1>   0.0420 
  9 C       -2.7140    -2.1260     0.5210 C.ar  1 <1>   0.0830 
 10 C       -3.1560    -3.9070    -1.0330 C.ar  1 <1>  -0.1500 
 11 O        0.0160    -4.3830     0.6830 O.2   1 <1>  -0.5700 
 12 N        3.3290    -2.0810    -1.2180 N.2   1 <1>  -0.5030 
 13 C        2.8450    -3.1080    -0.5830 C.2   1 <1>   0.3890 
 14 O       -1.8110    -1.2580     1.0490 O.3   1 <1>  -0.3630 
 15 C       -4.0450    -2.1780     0.9210 C.ar  1 <1>  -0.1500 
 16 C       -4.4960    -3.9810    -0.6480 C.ar  1 <1>   0.0860 
 17 C        3.4990    -4.0660     0.2620 C.2   1 <1>   0.7200 
 18 C       -2.1600    -0.3450     2.0670 C.3   1 <1>   0.0400 
 19 C       -4.9130    -3.0880     0.3460 C.ar  1 <1>  -0.1500 
 20 C       -5.3780    -4.9480    -1.2710 C.2   1 <1>   0.4230 
 21 O        4.6180    -3.9350     0.7330 O.2   1 <1>  -0.5700 
 22 O        2.8330    -5.1930     0.5490 O.3   1 <1>  -0.4300 
 23 O       -5.0140    -5.7110    -2.1270 O.2   1 <1>  -0.5700 
 24 C       -6.8340    -5.0400    -0.8590 C.3   1 <1>  -0.1790 
 25 C        3.3570    -6.1720     1.4180 C.3   1 <1>   0.1200 
 26 C        2.3170    -7.2790     1.5530 C.3   1 <1>  -0.2400 
 27 H        1.0060    -1.2670    -0.2840 H     1 <1>   0.0800 
 28 H        2.4120    -0.5160    -2.3000 H     1 <1>   0.3110 
 29 H        1.3740    -3.8030    -1.8620 H     1 <1>   0.0800 
 30 H       -2.8000    -4.5780    -1.7960 H     1 <1>   0.1500 
 31 H       -4.4220    -1.5180     1.6790 H     1 <1>   0.1500 
 32 H       -1.2840     0.2230     2.3230 H     1 <1>   0.0800 
 33 H       -2.5030    -0.8930     2.9270 H     1 <1>   0.0800 
 34 H       -2.9260     0.3140     1.6980 H     1 <1>   0.0800 
 35 H       -5.9330    -3.0960     0.6840 H     1 <1>   0.1500 
 36 H       -7.3320    -4.1080    -1.0520 H     1 <1>   0.0800 
 37 H       -6.9080    -5.2850     0.1840 H     1 <1>   0.0800 
 38 H       -7.3240    -5.8120    -1.4260 H     1 <1>   0.0800 
 39 H        3.5550    -5.7130     2.3720 H     1 <1>   0.0800 
 40 H        4.2750    -6.5490     0.9990 H     1 <1>   0.0800 
 41 H        1.4000    -6.8770     1.9470 H     1 <1>   0.0800 
 42 H        2.6760    -8.0360     2.2250 H     1 <1>   0.0800 
 43 H        2.1270    -7.7300     0.5950 H     1 <1>   0.0800 
@<TRIPOS>BOND
  1   1   2  2   
  2   2   3  am  
  3   2   4  1   
  4   3   5  1   
  5   3   6  am  
  6   4   7  1   
  7   4   8  1   
  8   4  27  1   
  9   5   9  ar  
 10   5  10  ar  
 11   6   8  1   
 12   6  11  2   
 13   7  12  1   
 14   7  28  1   
 15   8  13  1   
 16   8  29  1   
 17   9  14  1   
 18   9  15  ar  
 19  10  16  ar  
 20  10  30  1   
 21  12  13  2   
 22  13  17  1   
 23  14  18  1   
 24  15  19  ar  
 25  15  31  1   
 26  16  19  ar  
 27  16  20  1   
 28  17  21  2   
 29  17  22  1   
 30  18  32  1   
 31  18  33  1   
 32  18  34  1   
 33  19  35  1   
 34  20  23  2   
 35  20  24  1   
 36  22  25  1   
 37  24  36  1   
 38  24  37  1   
 39  24  38  1   
 40  25  26  1   
 41  25  39  1   
 42  25  40  1   
 43  26  41  1   
 44  26  42  1   
 45  26  43  1   
@<TRIPOS>SUBSTRUCTURE
  1 ****   3 GROUP 4 **** **** 0

# MOE 2024.06 (io_trps.svl 2023.06)
