@<TRIPOS>MOLECULE
7-(2-Hydroxy-2-phenyl-ethyl)-3-methyl-8-(4-methyl-piperazin-1-yl)-3,7-dihydro-pu
54 57 1 0 0 
SMALL
USER_CHARGES


@<TRIPOS>ATOM
  1 O        1.5430     3.4230     0.2130 O.2   1 <1>  -0.5740 
  2 C        2.6790     3.3420    -0.1950 C.2   1 <1>   0.6860 
  3 N        3.6040     2.4730     0.3660 N.am  1 <1>  -0.4410 
  4 N        3.0520     4.1290    -1.2430 N.am  1 <1>  -0.4950 
  5 C        4.8970     2.5040    -0.1350 C.2   1 <1>   0.4210 
  6 C        3.2280     1.6020     1.5170 C.3   1 <1>   0.0530 
  7 C        4.3130     4.1490    -1.7650 C.2   1 <1>   0.6990 
  8 N        5.9720     1.7980     0.3050 N.pl3 1 <1>  -0.7040 
  9 C        5.2940     3.2970    -1.1540 C.2   1 <1>   0.2710 
 10 O        4.5410     4.8690    -2.7180 O.2   1 <1>  -0.5740 
 11 C        7.0400     2.1560    -0.4120 C.cat 1 <1>   1.0690 
 12 N        6.6830     3.0820    -1.3160 N.pl3 1 <1>  -0.7670 
 13 N        8.2720     1.6170    -0.2120 N.pl3 1 <1>  -0.5960 
 14 C        7.5310     4.1850    -1.8990 C.3   1 <1>   0.3480 
 15 C        8.7530     1.1870     1.1470 C.3   1 <1>   0.1610 
 16 C        9.3410     1.6110    -1.2690 C.3   1 <1>   0.1610 
 17 C        8.0050     5.2060    -0.8310 C.3   1 <1>   0.3380 
 18 C        9.6090    -0.0990     1.1090 C.3   1 <1>   0.3370 
 19 C       10.1870     0.3180    -1.2660 C.3   1 <1>   0.3370 
 20 O        8.9690     4.6220    -0.0150 O.3   1 <1>  -0.6840 
 21 C        6.8350     5.6820     0.0320 C.ar  1 <1>  -0.1510 
 22 N       10.7150    -0.0130     0.0990 N.4   1 <1>  -0.9610 
 23 C        5.9770     6.6410    -0.4890 C.ar  1 <1>  -0.1570 
 24 C        6.5650     5.1610     1.2950 C.ar  1 <1>  -0.1570 
 25 C       11.5040    -1.2850     0.0660 C.3   1 <1>   0.2570 
 26 C        4.8610     7.0490     0.2190 C.ar  1 <1>  -0.1570 
 27 C        5.4490     5.5700     2.0030 C.ar  1 <1>  -0.1570 
 28 C        4.5930     6.5100     1.4630 C.ar  1 <1>  -0.1570 
 29 H        2.3510     4.7540    -1.6330 H     1 <1>   0.3640 
 30 H        2.1560     1.5180     1.5940 H     1 <1>   0.0730 
 31 H        3.6020     2.0280     2.4320 H     1 <1>   0.0730 
 32 H        3.6310     0.6140     1.3850 H     1 <1>   0.0730 
 33 H        5.9430     1.1080     1.0460 H     1 <1>   0.4450 
 34 H        6.9600     4.7180    -2.6370 H     1 <1>   0.0730 
 35 H        8.3850     3.7880    -2.4140 H     1 <1>   0.0730 
 36 H        7.9250     1.0300     1.8140 H     1 <1>   0.0730 
 37 H        9.3480     1.9820     1.5650 H     1 <1>   0.0730 
 38 H        9.9940     2.4540    -1.1200 H     1 <1>   0.0730 
 39 H        8.8920     1.7050    -2.2430 H     1 <1>   0.0730 
 40 H        8.4680     6.0480    -1.3190 H     1 <1>   0.0730 
 41 H        8.9720    -0.9360     0.8710 H     1 <1>   0.0730 
 42 H       10.0270    -0.2750     2.0870 H     1 <1>   0.0730 
 43 H       11.0090     0.4330    -1.9540 H     1 <1>   0.0730 
 44 H        9.5780    -0.4970    -1.6220 H     1 <1>   0.0730 
 45 H        9.2450     5.2940     0.6470 H     1 <1>   0.3950 
 46 H       11.3600     0.7410     0.3860 H     1 <1>   0.4450 
 47 H        6.1580     7.0770    -1.4570 H     1 <1>   0.1430 
 48 H        7.2130     4.4330     1.7480 H     1 <1>   0.1430 
 49 H       10.8770    -2.1100    -0.2310 H     1 <1>   0.0730 
 50 H       11.9130    -1.4980     1.0410 H     1 <1>   0.0730 
 51 H       12.3190    -1.2020    -0.6350 H     1 <1>   0.0730 
 52 H        4.2010     7.7920    -0.1970 H     1 <1>   0.1430 
 53 H        5.2450     5.1670     2.9810 H     1 <1>   0.1430 
 54 H        3.7240     6.8310     2.0130 H     1 <1>   0.1430 
@<TRIPOS>BOND
  1   1   2  2   
  2   2   3  am  
  3   2   4  am  
  4   3   5  1   
  5   3   6  1   
  6   4   7  am  
  7   4  29  1   
  8   5   8  1   
  9   5   9  2   
 10   6  30  1   
 11   6  31  1   
 12   6  32  1   
 13   7   9  1   
 14   7  10  2   
 15   8  11  ar  
 16   8  33  1   
 17   9  12  1   
 18  11  12  ar  
 19  11  13  ar  
 20  12  14  1   
 21  13  15  1   
 22  13  16  1   
 23  14  17  1   
 24  14  34  1   
 25  14  35  1   
 26  15  18  1   
 27  15  36  1   
 28  15  37  1   
 29  16  19  1   
 30  16  38  1   
 31  16  39  1   
 32  17  20  1   
 33  17  21  1   
 34  17  40  1   
 35  18  22  1   
 36  18  41  1   
 37  18  42  1   
 38  19  22  1   
 39  19  43  1   
 40  19  44  1   
 41  20  45  1   
 42  21  23  ar  
 43  21  24  ar  
 44  22  25  1   
 45  22  46  1   
 46  23  26  ar  
 47  23  47  1   
 48  24  27  ar  
 49  24  48  1   
 50  25  49  1   
 51  25  50  1   
 52  25  51  1   
 53  26  28  ar  
 54  26  52  1   
 55  27  28  ar  
 56  27  53  1   
 57  28  54  1   
@<TRIPOS>SUBSTRUCTURE
  1 ****  12 GROUP 4 **** **** 0

# MOE 2024.06 (io_trps.svl 2023.06)
