@<TRIPOS>MOLECULE
3-[3-(4-Chloro-phenyl)-[1,2,4]oxadiazol-5-yl]-N-(3-methoxy-propyl)-propionamide
40 41 1 0 0 
SMALL
USER_CHARGES


@<TRIPOS>ATOM
  1 CL       0.8540    -0.0900    -1.2020 Cl    1 <1>  -0.1770 
  2 C        2.1400     0.9810    -0.7100 C.ar  1 <1>   0.1770 
  3 C        2.1440     2.2890    -1.1540 C.ar  1 <1>  -0.1500 
  4 C        3.1400     0.5100     0.1180 C.ar  1 <1>  -0.1500 
  5 C        3.1670     3.1340    -0.7600 C.ar  1 <1>  -0.1500 
  6 C        4.1570     1.3640     0.5040 C.ar  1 <1>  -0.1500 
  7 C        4.1990     2.6960     0.0770 C.ar  1 <1>   0.0540 
  8 C        5.2740     3.5840     0.4900 C.2   1 <1>   0.4620 
  9 N        6.2640     3.2630     1.2470 N.2   1 <1>  -0.4100 
 10 N        5.3400     4.8630     0.1090 N.2   1 <1>  -0.5650 
 11 O        7.0100     4.3120     1.3930 O.3   1 <1>  -0.0190 
 12 C        6.4060     5.2330     0.6880 C.2   1 <1>   0.2980 
 13 C        7.0170     6.6180     0.6250 C.3   1 <1>   0.0200 
 14 C        8.3240     6.6120    -0.1800 C.3   1 <1>  -0.0990 
 15 C        8.9670     7.9800    -0.1790 C.2   1 <1>   0.5690 
 16 O        8.3480     8.9130    -0.6270 O.2   1 <1>  -0.5700 
 17 N       10.2150     8.1160     0.3350 N.am  1 <1>  -0.7300 
 18 C       10.9770     9.3820     0.3710 C.3   1 <1>   0.1400 
 19 C       12.4120     9.1130    -0.0750 C.3   1 <1>  -0.1600 
 20 C       13.2250    10.4050    -0.0940 C.3   1 <1>   0.1200 
 21 O       14.5240    10.0760    -0.4540 O.3   1 <1>  -0.5600 
 22 C       15.3820    11.1670    -0.5380 C.3   1 <1>   0.0400 
 23 H        1.3560     2.6360    -1.7980 H     1 <1>   0.1500 
 24 H        3.1180    -0.5120     0.4520 H     1 <1>   0.1500 
 25 H        3.1660     4.1530    -1.1090 H     1 <1>   0.1500 
 26 H        4.9350     0.9930     1.1500 H     1 <1>   0.1500 
 27 H        7.2020     6.9640     1.6260 H     1 <1>   0.0800 
 28 H        6.3150     7.2910     0.1640 H     1 <1>   0.0800 
 29 H        8.1170     6.3350    -1.1970 H     1 <1>   0.0800 
 30 H        9.0050     5.8910     0.2330 H     1 <1>   0.0800 
 31 H       10.7090     7.3010     0.7000 H     1 <1>   0.3700 
 32 H       10.9650     9.7740     1.3740 H     1 <1>   0.0800 
 33 H       10.5160    10.1040    -0.2840 H     1 <1>   0.0800 
 34 H       12.4050     8.6950    -1.0660 H     1 <1>   0.0800 
 35 H       12.8760     8.4210     0.6040 H     1 <1>   0.0800 
 36 H       13.2440    10.8610     0.8810 H     1 <1>   0.0800 
 37 H       12.8270    11.0950    -0.8190 H     1 <1>   0.0800 
 38 H       16.3550    10.8060    -0.8190 H     1 <1>   0.0800 
 39 H       15.4380    11.6500     0.4220 H     1 <1>   0.0800 
 40 H       15.0180    11.8490    -1.2870 H     1 <1>   0.0800 
@<TRIPOS>BOND
  1   1   2  1   
  2   2   3  ar  
  3   2   4  ar  
  4   3   5  ar  
  5   3  23  1   
  6   4   6  ar  
  7   4  24  1   
  8   5   7  ar  
  9   5  25  1   
 10   6   7  ar  
 11   6  26  1   
 12   7   8  1   
 13   8   9  2   
 14   8  10  1   
 15   9  11  1   
 16  10  12  2   
 17  11  12  1   
 18  12  13  1   
 19  13  14  1   
 20  13  27  1   
 21  13  28  1   
 22  14  15  1   
 23  14  29  1   
 24  14  30  1   
 25  15  16  2   
 26  15  17  am  
 27  17  18  1   
 28  17  31  1   
 29  18  19  1   
 30  18  32  1   
 31  18  33  1   
 32  19  20  1   
 33  19  34  1   
 34  19  35  1   
 35  20  21  1   
 36  20  36  1   
 37  20  37  1   
 38  21  22  1   
 39  22  38  1   
 40  22  39  1   
 41  22  40  1   
@<TRIPOS>SUBSTRUCTURE
  1 ****  12 GROUP 4 **** **** 0

# MOE 2024.06 (io_trps.svl 2023.06)
