@<TRIPOS>MOLECULE
N-[2-(4-Acetyl-piperazin-1-yl)-phenyl]-2-(4-isopropyl-phenoxy)-acetamide
58 60 1 0 0 
SMALL
USER_CHARGES


@<TRIPOS>ATOM
  1 O        0.4090     0.0680     0.8870 O.2   1 <1>  -0.5700 
  2 C       -0.3900     0.9160     0.5690 C.2   1 <1>   0.5690 
  3 N       -0.0430     2.1650     0.1500 N.am  1 <1>  -0.5470 
  4 C       -1.8750     0.5900     0.6710 C.3   1 <1>   0.1810 
  5 C        1.1550     2.8880     0.0510 C.ar  1 <1>   0.1170 
  6 O       -2.6710     1.6340     0.1160 O.3   1 <1>  -0.3630 
  7 C        1.0330     4.2590    -0.2150 C.ar  1 <1>   0.1000 
  8 C        2.4140     2.3240     0.1910 C.ar  1 <1>  -0.1500 
  9 C       -4.0210     1.6460     0.2380 C.ar  1 <1>   0.0830 
 10 N       -0.2450     4.8300    -0.3410 N.pl3 1 <1>  -0.8380 
 11 C        2.1790     5.0310    -0.3400 C.ar  1 <1>  -0.1500 
 12 C        3.5500     3.1060     0.0650 C.ar  1 <1>  -0.1500 
 13 C       -4.7420     0.7230     0.9890 C.ar  1 <1>  -0.1500 
 14 C       -4.6990     2.6540    -0.4270 C.ar  1 <1>  -0.1500 
 15 C       -0.9040     5.3700     0.8770 C.3   1 <1>   0.2090 
 16 C       -0.6180     5.5800    -1.5690 C.3   1 <1>   0.2090 
 17 C        3.4330     4.4600    -0.2010 C.ar  1 <1>  -0.1500 
 18 C       -6.1190     0.8290     1.0760 C.ar  1 <1>  -0.1500 
 19 C       -6.0740     2.7560    -0.3370 C.ar  1 <1>  -0.1500 
 20 C       -2.4340     5.2820     0.7300 C.3   1 <1>   0.1400 
 21 C       -2.1380     5.4930    -1.7860 C.3   1 <1>   0.1400 
 22 C       -6.7990     1.8460     0.4180 C.ar  1 <1>  -0.1430 
 23 N       -2.9270     5.8780    -0.5620 N.am  1 <1>  -0.6600 
 24 C       -8.3170     1.9750     0.5090 C.3   1 <1>   0.0630 
 25 C       -4.0900     6.5910    -0.6890 C.2   1 <1>   0.5690 
 26 C       -8.7570     2.2240     1.9550 C.3   1 <1>  -0.2400 
 27 C       -9.0080     0.7340    -0.0650 C.3   1 <1>  -0.2400 
 28 O       -4.4720     7.0110    -1.7540 O.2   1 <1>  -0.5700 
 29 C       -4.9600     6.8670     0.5150 C.3   1 <1>  -0.1790 
 30 H       -0.8320     2.7710    -0.1020 H     1 <1>   0.3700 
 31 H       -2.1270     0.4800     1.7090 H     1 <1>   0.0800 
 32 H       -2.0880    -0.3180     0.1400 H     1 <1>   0.0800 
 33 H        2.5120     1.2730     0.3950 H     1 <1>   0.1500 
 34 H        2.0870     6.0810    -0.5410 H     1 <1>   0.1500 
 35 H        4.5230     2.6590     0.1750 H     1 <1>   0.1500 
 36 H       -4.2580    -0.0790     1.5110 H     1 <1>   0.1500 
 37 H       -4.1500     3.3610    -1.0200 H     1 <1>   0.1500 
 38 H       -0.6130     6.3960     1.0190 H     1 <1>   0.0800 
 39 H       -0.5890     4.8070     1.7390 H     1 <1>   0.0800 
 40 H       -0.1050     5.1620    -2.4180 H     1 <1>   0.0800 
 41 H       -0.3270     6.6110    -1.4700 H     1 <1>   0.0800 
 42 H        4.3160     5.0670    -0.2990 H     1 <1>   0.1500 
 43 H       -6.6640     0.1110     1.6620 H     1 <1>   0.1500 
 44 H       -6.5750     3.5510    -0.8630 H     1 <1>   0.1500 
 45 H       -2.8820     5.7730     1.5730 H     1 <1>   0.0800 
 46 H       -2.7190     4.2460     0.7660 H     1 <1>   0.0800 
 47 H       -2.3860     4.4820    -2.0540 H     1 <1>   0.0800 
 48 H       -2.4030     6.1250    -2.6150 H     1 <1>   0.0800 
 49 H       -8.6280     2.8230    -0.0780 H     1 <1>   0.0800 
 50 H       -8.5190     1.3820     2.5800 H     1 <1>   0.0800 
 51 H       -9.8180     2.3930     1.9980 H     1 <1>   0.0800 
 52 H       -8.2560     3.0930     2.3450 H     1 <1>   0.0800 
 53 H       -8.7750    -0.1390     0.5160 H     1 <1>   0.0800 
 54 H       -8.6810     0.5700    -1.0770 H     1 <1>   0.0800 
 55 H      -10.0740     0.8710    -0.0690 H     1 <1>   0.0800 
 56 H       -4.4330     7.4910     1.2110 H     1 <1>   0.0800 
 57 H       -5.2390     5.9430     0.9850 H     1 <1>   0.0800 
 58 H       -5.8540     7.3780     0.2050 H     1 <1>   0.0800 
@<TRIPOS>BOND
  1   1   2  2   
  2   2   3  am  
  3   2   4  1   
  4   3   5  1   
  5   3  30  1   
  6   4   6  1   
  7   4  31  1   
  8   4  32  1   
  9   5   7  ar  
 10   5   8  ar  
 11   6   9  1   
 12   7  10  1   
 13   7  11  ar  
 14   8  12  ar  
 15   8  33  1   
 16   9  13  ar  
 17   9  14  ar  
 18  10  15  1   
 19  10  16  1   
 20  11  17  ar  
 21  11  34  1   
 22  12  17  ar  
 23  12  35  1   
 24  13  18  ar  
 25  13  36  1   
 26  14  19  ar  
 27  14  37  1   
 28  15  20  1   
 29  15  38  1   
 30  15  39  1   
 31  16  21  1   
 32  16  40  1   
 33  16  41  1   
 34  17  42  1   
 35  18  22  ar  
 36  18  43  1   
 37  19  22  ar  
 38  19  44  1   
 39  20  23  1   
 40  20  45  1   
 41  20  46  1   
 42  21  23  1   
 43  21  47  1   
 44  21  48  1   
 45  22  24  1   
 46  23  25  am  
 47  24  26  1   
 48  24  27  1   
 49  24  49  1   
 50  25  28  2   
 51  25  29  1   
 52  26  50  1   
 53  26  51  1   
 54  26  52  1   
 55  27  53  1   
 56  27  54  1   
 57  27  55  1   
 58  29  56  1   
 59  29  57  1   
 60  29  58  1   
@<TRIPOS>SUBSTRUCTURE
  1 ****   6 GROUP 4 **** **** 0

# MOE 2024.06 (io_trps.svl 2023.06)
