@<TRIPOS>MOLECULE
1-{2-[4-(Benzyl-methyl-sulfamoyl)-phenoxy]-acetyl}-piperidine-4-carboxylic acid
58 60 1 0 0 
SMALL
USER_CHARGES


@<TRIPOS>ATOM
  1 S        0.5150    -0.7680    -1.6930 S.o2  1 <1>   1.4470 
  2 O        0.2700    -2.1250    -2.1350 O.2   1 <1>  -0.6500 
  3 O        0.5020     0.3040    -2.6630 O.2   1 <1>  -0.6500 
  4 N       -0.6760    -0.4140    -0.5430 N.am  1 <1>  -0.8490 
  5 C        2.0560    -0.6890    -0.7430 C.ar  1 <1>  -0.0090 
  6 C       -1.9430    -0.1300    -1.2240 C.3   1 <1>   0.3390 
  7 C       -0.8390    -1.4850     0.4530 C.3   1 <1>   0.1160 
  8 C        2.3330     0.4000     0.0760 C.ar  1 <1>  -0.1500 
  9 C        2.9980    -1.7090    -0.8110 C.ar  1 <1>  -0.1500 
 10 C       -3.0300     0.2830    -0.2380 C.ar  1 <1>  -0.1430 
 11 C        3.5090     0.4700     0.8000 C.ar  1 <1>  -0.1500 
 12 C        4.1790    -1.6500    -0.0910 C.ar  1 <1>  -0.1500 
 13 C       -2.8680     1.4190     0.5410 C.ar  1 <1>  -0.1500 
 14 C       -4.1890    -0.4690    -0.1090 C.ar  1 <1>  -0.1500 
 15 C        4.4410    -0.5490     0.7150 C.ar  1 <1>   0.0830 
 16 C       -3.8500     1.8000     1.4380 C.ar  1 <1>  -0.1500 
 17 C       -5.1720    -0.0890     0.7880 C.ar  1 <1>  -0.1500 
 18 O        5.5760    -0.3990     1.4320 O.3   1 <1>  -0.3630 
 19 C       -5.0040     1.0460     1.5620 C.ar  1 <1>  -0.1500 
 20 C        6.7290    -1.1730     1.1400 C.3   1 <1>   0.1810 
 21 C        7.9740    -0.5720     1.7840 C.2   1 <1>   0.5690 
 22 O        8.5860    -1.2810     2.5500 O.2   1 <1>  -0.5700 
 23 N        8.4010     0.7030     1.4830 N.am  1 <1>  -0.6600 
 24 C        9.5670     1.3080     2.1850 C.3   1 <1>   0.1400 
 25 C        7.7320     1.6220     0.5180 C.3   1 <1>   0.1400 
 26 C       10.6050     1.7580     1.1550 C.3   1 <1>  -0.1600 
 27 C        8.7460     2.0810    -0.5330 C.3   1 <1>  -0.1600 
 28 C        9.9890     2.7160     0.1170 C.3   1 <1>  -0.0190 
 29 C       11.0050     3.1590    -0.9320 C.2   1 <1>   0.5690 
 30 O       11.2150     4.3320    -1.1000 O.2   1 <1>  -0.5700 
 31 N       11.6600     2.2470    -1.6740 N.am  1 <1>  -0.8000 
 32 H       -2.2580    -0.9950    -1.7840 H     1 <1>   0.0800 
 33 H       -1.8060     0.6810    -1.9210 H     1 <1>   0.0800 
 34 H        0.1070    -1.7090     0.9160 H     1 <1>   0.0800 
 35 H       -1.2190    -2.3810    -0.0100 H     1 <1>   0.0800 
 36 H       -1.5190    -1.1770     1.2290 H     1 <1>   0.0800 
 37 H        1.6150     1.2020     0.1450 H     1 <1>   0.1500 
 38 H        2.8020    -2.5650    -1.4370 H     1 <1>   0.1500 
 39 H        3.7110     1.3170     1.4310 H     1 <1>   0.1500 
 40 H        4.8720    -2.4670    -0.1670 H     1 <1>   0.1500 
 41 H       -1.9700     2.0050     0.4490 H     1 <1>   0.1500 
 42 H       -4.3340    -1.3530    -0.7050 H     1 <1>   0.1500 
 43 H       -3.7170     2.6830     2.0380 H     1 <1>   0.1500 
 44 H       -6.0700    -0.6750     0.8840 H     1 <1>   0.1500 
 45 H       -5.7680     1.3420     2.2590 H     1 <1>   0.1500 
 46 H        6.8670    -1.2050     0.0750 H     1 <1>   0.0800 
 47 H        6.5690    -2.1660     1.5180 H     1 <1>   0.0800 
 48 H       10.0160     0.6020     2.8640 H     1 <1>   0.0800 
 49 H        9.2290     2.1520     2.7620 H     1 <1>   0.0800 
 50 H        7.3480     2.4720     1.0550 H     1 <1>   0.0800 
 51 H        6.9070     1.1440     0.0220 H     1 <1>   0.0800 
 52 H       11.0040     0.8840     0.6710 H     1 <1>   0.0800 
 53 H       11.4160     2.2510     1.6630 H     1 <1>   0.0800 
 54 H        8.2790     2.7990    -1.1840 H     1 <1>   0.0800 
 55 H        9.0320     1.2350    -1.1320 H     1 <1>   0.0800 
 56 H        9.6710     3.6020     0.6390 H     1 <1>   0.0800 
 57 H       12.3370     2.5630    -2.3690 H     1 <1>   0.3700 
 58 H       11.5360     1.2400    -1.5750 H     1 <1>   0.3700 
@<TRIPOS>BOND
  1   1   2  2   
  2   1   3  2   
  3   1   4  am  
  4   1   5  1   
  5   4   6  1   
  6   4   7  1   
  7   5   8  ar  
  8   5   9  ar  
  9   6  10  1   
 10   6  32  1   
 11   6  33  1   
 12   7  34  1   
 13   7  35  1   
 14   7  36  1   
 15   8  11  ar  
 16   8  37  1   
 17   9  12  ar  
 18   9  38  1   
 19  10  13  ar  
 20  10  14  ar  
 21  11  15  ar  
 22  11  39  1   
 23  12  15  ar  
 24  12  40  1   
 25  13  16  ar  
 26  13  41  1   
 27  14  17  ar  
 28  14  42  1   
 29  15  18  1   
 30  16  19  ar  
 31  16  43  1   
 32  17  19  ar  
 33  17  44  1   
 34  18  20  1   
 35  19  45  1   
 36  20  21  1   
 37  20  46  1   
 38  20  47  1   
 39  21  22  2   
 40  21  23  am  
 41  23  24  1   
 42  23  25  1   
 43  24  26  1   
 44  24  48  1   
 45  24  49  1   
 46  25  27  1   
 47  25  50  1   
 48  25  51  1   
 49  26  28  1   
 50  26  52  1   
 51  26  53  1   
 52  27  28  1   
 53  27  54  1   
 54  27  55  1   
 55  28  29  1   
 56  28  56  1   
 57  29  30  2   
 58  29  31  am  
 59  31  57  1   
 60  31  58  1   
@<TRIPOS>SUBSTRUCTURE
  1 ****  11 GROUP 4 **** **** 0

# MOE 2024.06 (io_trps.svl 2023.06)
