@<TRIPOS>MOLECULE
2,3-Dihydro-benzo[1,4]dioxine-6-carboxylic acid [2-(4-acetyl-piperazin-1-yl)-phe
51 54 1 0 0 
SMALL
USER_CHARGES


@<TRIPOS>ATOM
  1 O        0.2580    -0.0120     0.0860 O.2   1 <1>  -0.5700 
  2 C       -0.0930     1.1530     0.0610 C.2   1 <1>   0.5440 
  3 N        0.8390     2.1490    -0.0730 N.am  1 <1>  -0.5470 
  4 C       -1.5000     1.5010     0.1550 C.ar  1 <1>   0.0860 
  5 C        2.2390     2.2080    -0.1430 C.ar  1 <1>   0.1170 
  6 C       -1.9210     2.7740     0.5570 C.ar  1 <1>  -0.1500 
  7 C       -2.4930     0.5690    -0.1610 C.ar  1 <1>  -0.1500 
  8 C        2.7910     3.4870    -0.3040 C.ar  1 <1>   0.1000 
  9 C        3.0760     1.1040    -0.0610 C.ar  1 <1>  -0.1500 
 10 C       -3.2620     3.1000     0.6230 C.ar  1 <1>   0.0830 
 11 C       -3.8390     0.8830    -0.0900 C.ar  1 <1>  -0.1500 
 12 N        1.9450     4.6110    -0.3800 N.pl3 1 <1>  -0.8380 
 13 C        4.1710     3.6220    -0.3860 C.ar  1 <1>  -0.1500 
 14 C        4.4500     1.2550    -0.1420 C.ar  1 <1>  -0.1500 
 15 O       -3.6100     4.3580     0.9940 O.3   1 <1>  -0.3630 
 16 C       -4.2320     2.1480     0.3060 C.ar  1 <1>   0.0830 
 17 C        1.9550     5.5720     0.7690 C.3   1 <1>   0.2090 
 18 C        1.7390     5.2290    -1.7310 C.3   1 <1>   0.2090 
 19 C        4.9980     2.5150    -0.3060 C.ar  1 <1>  -0.1500 
 20 C       -4.9450     4.7550     0.7370 C.3   1 <1>   0.1200 
 21 O       -5.5510     2.4370     0.3860 O.3   1 <1>  -0.3630 
 22 C        2.8100     6.8260     0.5010 C.3   1 <1>   0.1400 
 23 C        2.6150     6.4730    -1.9530 C.3   1 <1>   0.1400 
 24 C       -5.9170     3.6160     1.0770 C.3   1 <1>   0.1200 
 25 N        2.4750     7.4390    -0.8200 N.am  1 <1>  -0.6600 
 26 C        1.9630     8.6940    -1.0160 C.2   1 <1>   0.5690 
 27 O        1.6020     9.0750    -2.1020 O.2   1 <1>  -0.5700 
 28 C        1.8240     9.6570     0.1400 C.3   1 <1>  -0.1790 
 29 H        0.4730     3.0990    -0.1730 H     1 <1>   0.3700 
 30 H       -1.2060     3.5280     0.8290 H     1 <1>   0.1500 
 31 H       -2.1980    -0.4200    -0.4680 H     1 <1>   0.1500 
 32 H        2.6630     0.1200     0.0660 H     1 <1>   0.1500 
 33 H       -4.5880     0.1510    -0.3360 H     1 <1>   0.1500 
 34 H        4.6010     4.5950    -0.5160 H     1 <1>   0.1500 
 35 H        5.0880     0.3900    -0.0770 H     1 <1>   0.1500 
 36 H        2.3230     5.0720     1.6490 H     1 <1>   0.0800 
 37 H        0.9430     5.8790     0.9680 H     1 <1>   0.0800 
 38 H        0.7060     5.5110    -1.8320 H     1 <1>   0.0800 
 39 H        1.9560     4.5020    -2.4950 H     1 <1>   0.0800 
 40 H        6.0660     2.6320    -0.3710 H     1 <1>   0.1500 
 41 H       -5.0230     5.0130    -0.3050 H     1 <1>   0.0800 
 42 H       -5.1530     5.6260     1.3320 H     1 <1>   0.0800 
 43 H        3.8490     6.5480     0.5040 H     1 <1>   0.0800 
 44 H        2.6620     7.5250     1.3030 H     1 <1>   0.0800 
 45 H        2.3360     6.9350    -2.8840 H     1 <1>   0.0800 
 46 H        3.6430     6.1730    -2.0370 H     1 <1>   0.0800 
 47 H       -6.9210     3.8700     0.7910 H     1 <1>   0.0800 
 48 H       -5.8920     3.4060     2.1320 H     1 <1>   0.0800 
 49 H        1.1100     9.2780     0.8460 H     1 <1>   0.0800 
 50 H        1.4790    10.6070    -0.2230 H     1 <1>   0.0800 
 51 H        2.7750     9.7970     0.6160 H     1 <1>   0.0800 
@<TRIPOS>BOND
  1   1   2  2   
  2   2   3  am  
  3   2   4  1   
  4   3   5  1   
  5   3  29  1   
  6   4   6  ar  
  7   4   7  ar  
  8   5   8  ar  
  9   5   9  ar  
 10   6  10  ar  
 11   6  30  1   
 12   7  11  ar  
 13   7  31  1   
 14   8  12  1   
 15   8  13  ar  
 16   9  14  ar  
 17   9  32  1   
 18  10  15  1   
 19  10  16  ar  
 20  11  16  ar  
 21  11  33  1   
 22  12  17  1   
 23  12  18  1   
 24  13  19  ar  
 25  13  34  1   
 26  14  19  ar  
 27  14  35  1   
 28  15  20  1   
 29  16  21  1   
 30  17  22  1   
 31  17  36  1   
 32  17  37  1   
 33  18  23  1   
 34  18  38  1   
 35  18  39  1   
 36  19  40  1   
 37  20  24  1   
 38  20  41  1   
 39  20  42  1   
 40  21  24  1   
 41  22  25  1   
 42  22  43  1   
 43  22  44  1   
 44  23  25  1   
 45  23  45  1   
 46  23  46  1   
 47  24  47  1   
 48  24  48  1   
 49  25  26  am  
 50  26  27  2   
 51  26  28  1   
 52  28  49  1   
 53  28  50  1   
 54  28  51  1   
@<TRIPOS>SUBSTRUCTURE
  1 ****   3 GROUP 4 **** **** 0

# MOE 2024.06 (io_trps.svl 2023.06)
