@<TRIPOS>MOLECULE
1-(4-Fluoro-benzenesulfonyl)-piperidine-3-carboxylic acid (2-hydroxy-ethyl)-amid
41 42 1 0 0 
SMALL
USER_CHARGES


@<TRIPOS>ATOM
  1 S       -0.1660    -0.4500     1.2880 S.o2  1 <1>   1.4470 
  2 O       -1.1610    -1.3410     1.8420 O.2   1 <1>  -0.6500 
  3 O        0.8260     0.1380     2.1630 O.2   1 <1>  -0.6500 
  4 N        0.6880    -1.3310     0.1170 N.am  1 <1>  -0.8490 
  5 C       -0.9950     0.8410     0.3160 C.ar  1 <1>  -0.0090 
  6 C        1.8410    -0.5950    -0.4510 C.3   1 <1>   0.1960 
  7 C        0.9870    -2.6960     0.5830 C.3   1 <1>   0.1960 
  8 C       -1.7220     0.5130    -0.8280 C.ar  1 <1>  -0.1500 
  9 C       -0.9270     2.1810     0.6950 C.ar  1 <1>  -0.1500 
 10 C        3.1740    -1.0420     0.1670 C.3   1 <1>  -0.0190 
 11 C        2.1120    -3.3370    -0.2360 C.3   1 <1>  -0.1600 
 12 C       -2.3590     1.4860    -1.5800 C.ar  1 <1>  -0.1500 
 13 C       -1.5570     3.1690    -0.0440 C.ar  1 <1>  -0.1500 
 14 C        4.3100    -0.1690    -0.3410 C.2   1 <1>   0.5690 
 15 C        3.4260    -2.5390    -0.1220 C.3   1 <1>  -0.1600 
 16 C       -2.2630     2.8020    -1.1720 C.ar  1 <1>   0.1900 
 17 O        4.3540     0.1320    -1.5090 O.2   1 <1>  -0.5700 
 18 N        5.2610     0.2460     0.5350 N.am  1 <1>  -0.7300 
 19 F       -2.8590     3.7260    -1.8740 F     1 <1>  -0.1900 
 20 C        6.4030     1.1220     0.1720 C.3   1 <1>   0.1400 
 21 C        7.5600     0.2840    -0.3760 C.3   1 <1>   0.1200 
 22 O        8.6000     1.1240    -0.7480 O.3   1 <1>  -0.6800 
 23 H        1.7150     0.4680    -0.3220 H     1 <1>   0.0800 
 24 H        1.8760    -0.7830    -1.5110 H     1 <1>   0.0800 
 25 H        0.0930    -3.2940     0.5140 H     1 <1>   0.0800 
 26 H        1.2850    -2.6690     1.6200 H     1 <1>   0.0800 
 27 H       -1.7860    -0.5200    -1.1300 H     1 <1>   0.1500 
 28 H       -0.3730     2.4530     1.5790 H     1 <1>   0.1500 
 29 H        3.1000    -0.8960     1.2290 H     1 <1>   0.0800 
 30 H        1.7980    -3.3810    -1.2640 H     1 <1>   0.0800 
 31 H        2.2730    -4.3470     0.0970 H     1 <1>   0.0800 
 32 H       -2.9180     1.2340    -2.4630 H     1 <1>   0.1500 
 33 H       -1.5040     4.2040     0.2460 H     1 <1>   0.1500 
 34 H        4.0350    -2.9450     0.6660 H     1 <1>   0.0800 
 35 H        3.9710    -2.6480    -1.0450 H     1 <1>   0.0800 
 36 H        5.2070    -0.0330     1.5170 H     1 <1>   0.3700 
 37 H        6.7250     1.6660     1.0430 H     1 <1>   0.0800 
 38 H        6.0800     1.8230    -0.5790 H     1 <1>   0.0800 
 39 H        7.2510    -0.2750    -1.2440 H     1 <1>   0.0800 
 40 H        7.9330    -0.3870     0.3780 H     1 <1>   0.0800 
 41 H        8.3530     1.6380    -1.5420 H     1 <1>   0.4000 
@<TRIPOS>BOND
  1   1   2  2   
  2   1   3  2   
  3   1   4  am  
  4   1   5  1   
  5   4   6  1   
  6   4   7  1   
  7   5   8  ar  
  8   5   9  ar  
  9   6  10  1   
 10   6  23  1   
 11   6  24  1   
 12   7  11  1   
 13   7  25  1   
 14   7  26  1   
 15   8  12  ar  
 16   8  27  1   
 17   9  13  ar  
 18   9  28  1   
 19  10  14  1   
 20  10  15  1   
 21  10  29  1   
 22  11  15  1   
 23  11  30  1   
 24  11  31  1   
 25  12  16  ar  
 26  12  32  1   
 27  13  16  ar  
 28  13  33  1   
 29  14  17  2   
 30  14  18  am  
 31  15  34  1   
 32  15  35  1   
 33  16  19  1   
 34  18  20  1   
 35  18  36  1   
 36  20  21  1   
 37  20  37  1   
 38  20  38  1   
 39  21  22  1   
 40  21  39  1   
 41  21  40  1   
 42  22  41  1   
@<TRIPOS>SUBSTRUCTURE
  1 ****   6 GROUP 4 **** **** 0

# MOE 2024.06 (io_trps.svl 2023.06)
