@<TRIPOS>MOLECULE
4-(2-Fluoro-phenoxy)-piperidine
29 30 1 0 0 
SMALL
USER_CHARGES


@<TRIPOS>ATOM
  1 F       -1.2550     0.3040     1.7130 F     1 <1>  -0.1900 
  2 C       -1.8830    -0.5290     0.9190 C.ar  1 <1>   0.1900 
  3 C       -1.2810    -1.7340     0.5740 C.ar  1 <1>   0.0820 
  4 C       -3.1250    -0.1650     0.4370 C.ar  1 <1>  -0.1500 
  5 O       -0.0630    -2.0730     1.0610 O.3   1 <1>  -0.3630 
  6 C       -1.9610    -2.5990    -0.2710 C.ar  1 <1>  -0.1500 
  7 C       -3.7890    -1.0340    -0.4150 C.ar  1 <1>  -0.1500 
  8 C        1.0320    -2.0110     0.1830 C.3   1 <1>   0.2000 
  9 C       -3.2080    -2.2450    -0.7650 C.ar  1 <1>  -0.1500 
 10 C        2.1560    -2.8360     0.8140 C.3   1 <1>  -0.1600 
 11 C        1.4430    -0.5430     0.0110 C.3   1 <1>  -0.1600 
 12 C        3.4670    -2.6660     0.0530 C.3   1 <1>   0.3430 
 13 C        2.7700    -0.4170    -0.7300 C.3   1 <1>   0.3430 
 14 N        3.8090    -1.2200    -0.0300 N.4   1 <1>  -0.9060 
 15 H       -3.5620     0.7750     0.7230 H     1 <1>   0.1500 
 16 H       -1.5260    -3.5460    -0.5350 H     1 <1>   0.1500 
 17 H       -4.7590    -0.7710    -0.8020 H     1 <1>   0.1500 
 18 H        0.7410    -2.4410    -0.7620 H     1 <1>   0.0800 
 19 H       -3.7360    -2.9180    -1.4210 H     1 <1>   0.1500 
 20 H        1.8770    -3.8750     0.8060 H     1 <1>   0.0800 
 21 H        2.2970    -2.5380     1.8380 H     1 <1>   0.0800 
 22 H        1.5260    -0.0720     0.9750 H     1 <1>   0.0800 
 23 H        0.6860    -0.0220    -0.5480 H     1 <1>   0.0800 
 24 H        3.3650    -3.0760    -0.9400 H     1 <1>   0.0800 
 25 H        4.2520    -3.2040     0.5620 H     1 <1>   0.0800 
 26 H        3.0640     0.6200    -0.7680 H     1 <1>   0.0800 
 27 H        2.6520    -0.7730    -1.7420 H     1 <1>   0.0800 
 28 H        4.7160    -1.1010    -0.5010 H     1 <1>   0.4500 
 29 H        3.9210    -0.8510     0.9240 H     1 <1>   0.4500 
@<TRIPOS>BOND
  1   1   2  1   
  2   2   3  ar  
  3   2   4  ar  
  4   3   5  1   
  5   3   6  ar  
  6   4   7  ar  
  7   4  15  1   
  8   5   8  1   
  9   6   9  ar  
 10   6  16  1   
 11   7   9  ar  
 12   7  17  1   
 13   8  10  1   
 14   8  11  1   
 15   8  18  1   
 16   9  19  1   
 17  10  12  1   
 18  10  20  1   
 19  10  21  1   
 20  11  13  1   
 21  11  22  1   
 22  11  23  1   
 23  12  14  1   
 24  12  24  1   
 25  12  25  1   
 26  13  14  1   
 27  13  26  1   
 28  13  27  1   
 29  14  28  1   
 30  14  29  1   
@<TRIPOS>SUBSTRUCTURE
  1 ****   5 GROUP 4 **** **** 0

# MOE 2024.06 (io_trps.svl 2023.06)
