@<TRIPOS>MOLECULE
N-(2-Bromo-4,5-dimethyl-phenyl)-2-(3-cyano-4-methoxymethyl-6-methyl-2-oxo-2H-pyr
46 47 1 0 0 
SMALL
USER_CHARGES


@<TRIPOS>ATOM
  1 BR      -0.5950     0.6070    -0.5640 Br    1 <1>  -0.1110 
  2 C        1.2480     1.1720    -0.6610 C.ar  1 <1>   0.1110 
  3 C        1.5490     2.4230    -1.1860 C.ar  1 <1>   0.1170 
  4 C        2.2160     0.3060    -0.1940 C.ar  1 <1>  -0.1500 
  5 N        0.5510     3.2940    -1.6470 N.am  1 <1>  -0.5470 
  6 C        2.8890     2.7770    -1.2470 C.ar  1 <1>  -0.1500 
  7 C        3.5490     0.6860    -0.2490 C.ar  1 <1>  -0.1440 
  8 C        0.1540     4.5030    -1.1630 C.2   1 <1>   0.5690 
  9 C        3.8840     1.9300    -0.7790 C.ar  1 <1>  -0.1440 
 10 C        4.6130    -0.2710     0.2710 C.3   1 <1>  -0.0960 
 11 O       -0.7860     5.0530    -1.6830 O.2   1 <1>  -0.5700 
 12 C        0.8220     5.1320     0.0670 C.3   1 <1>   0.2010 
 13 C        5.3320     2.3940    -0.8630 C.3   1 <1>  -0.0970 
 14 N        1.0750     6.6130    -0.0740 N.am  1 <1>  -0.4690 
 15 C        2.2360     7.0100    -0.7280 C.2   1 <1>   0.6160 
 16 C        0.1720     7.5640     0.3760 C.2   1 <1>  -0.0290 
 17 O        3.0190     6.1520    -1.1240 O.2   1 <1>  -0.5700 
 18 C        2.4910     8.4030    -0.9230 C.2   1 <1>   0.0790 
 19 C        0.4240     8.8880     0.1880 C.2   1 <1>  -0.1500 
 20 C       -1.1080     7.1300     1.0750 C.3   1 <1>  -0.1020 
 21 C        3.7030     8.7510    -1.5950 C.1   1 <1>   0.4920 
 22 C        1.5920     9.3320    -0.4730 C.2   1 <1>  -0.1380 
 23 N        4.6400     9.1090    -2.1390 N.1   1 <1>  -0.5570 
 24 C        1.7760    10.8370    -0.6380 C.3   1 <1>   0.2580 
 25 O        2.0290    11.3750     0.6180 O.3   1 <1>  -0.5600 
 26 C        2.2860    12.7420     0.6120 C.3   1 <1>   0.0400 
 27 H        1.9250    -0.6480     0.2050 H     1 <1>   0.1500 
 28 H       -0.0640     2.9370    -2.3800 H     1 <1>   0.3700 
 29 H        3.1530     3.7300    -1.6710 H     1 <1>   0.1500 
 30 H        4.1710    -1.1890     0.6140 H     1 <1>   0.0800 
 31 H        5.1430     0.1770     1.0910 H     1 <1>   0.0800 
 32 H        5.3110    -0.5060    -0.5120 H     1 <1>   0.0800 
 33 H        1.7530     4.6370     0.2680 H     1 <1>   0.0800 
 34 H        0.1970     4.9430     0.9160 H     1 <1>   0.0800 
 35 H        5.3960     3.3930    -1.2560 H     1 <1>   0.0800 
 36 H        5.8920     1.7420    -1.5090 H     1 <1>   0.0800 
 37 H        5.7800     2.3910     0.1140 H     1 <1>   0.0800 
 38 H       -0.2620     9.6380     0.5440 H     1 <1>   0.1500 
 39 H       -1.7170     7.9810     1.3180 H     1 <1>   0.0800 
 40 H       -1.6830     6.4850     0.4350 H     1 <1>   0.0800 
 41 H       -0.8790     6.6150     1.9900 H     1 <1>   0.0800 
 42 H        0.8760    11.2830    -1.0280 H     1 <1>   0.0800 
 43 H        2.6000    11.0790    -1.2870 H     1 <1>   0.0800 
 44 H        2.4580    13.0540     1.6270 H     1 <1>   0.0800 
 45 H        1.4350    13.2650     0.2120 H     1 <1>   0.0800 
 46 H        3.1660    12.9370     0.0220 H     1 <1>   0.0800 
@<TRIPOS>BOND
  1   1   2  1   
  2   2   3  ar  
  3   2   4  ar  
  4   3   5  1   
  5   3   6  ar  
  6   4   7  ar  
  7   4  27  1   
  8   5   8  am  
  9   5  28  1   
 10   6   9  ar  
 11   6  29  1   
 12   7   9  ar  
 13   7  10  1   
 14   8  11  2   
 15   8  12  1   
 16   9  13  1   
 17  10  30  1   
 18  10  31  1   
 19  10  32  1   
 20  12  14  1   
 21  12  33  1   
 22  12  34  1   
 23  13  35  1   
 24  13  36  1   
 25  13  37  1   
 26  14  15  am  
 27  14  16  1   
 28  15  17  2   
 29  15  18  1   
 30  16  19  2   
 31  16  20  1   
 32  18  21  1   
 33  18  22  2   
 34  19  22  1   
 35  19  38  1   
 36  20  39  1   
 37  20  40  1   
 38  20  41  1   
 39  21  23  3   
 40  22  24  1   
 41  24  25  1   
 42  24  42  1   
 43  24  43  1   
 44  25  26  1   
 45  26  44  1   
 46  26  45  1   
 47  26  46  1   
@<TRIPOS>SUBSTRUCTURE
  1 ****  12 GROUP 4 **** **** 0

# MOE 2024.06 (io_trps.svl 2023.06)
