@<TRIPOS>MOLECULE
5-(3-Chloro-phenyl)-8,8-dimethyl-5,8,9,10-tetrahydro-1H,7H-pyrimido[4,5-b]quinol
44 47 1 0 0 
SMALL
USER_CHARGES


@<TRIPOS>ATOM
  1 CL      -0.3450    -0.5220    -0.7820 Cl    1 <1>  -0.1770 
  2 C       -1.8230     0.3800    -0.5630 C.ar  1 <1>   0.1770 
  3 C       -1.7760     1.7610    -0.5470 C.ar  1 <1>  -0.1500 
  4 C       -3.0130    -0.3030    -0.4250 C.ar  1 <1>  -0.1500 
  5 C       -2.9320     2.5150    -0.3590 C.ar  1 <1>  -0.1440 
  6 C       -4.1780     0.4260    -0.2870 C.ar  1 <1>  -0.1500 
  7 C       -4.1330     1.8100    -0.2720 C.ar  1 <1>  -0.1500 
  8 C       -2.9140     4.0660    -0.3820 C.3   1 <1>   0.3400 
  9 C       -1.6360     4.9110    -0.2680 C.2   1 <1>  -0.1240 
 10 C       -4.0530     4.9640     0.1500 C.2   1 <1>  -0.1240 
 11 C       -1.7440     6.1610    -0.8080 C.2   1 <1>   0.2090 
 12 C       -0.4200     4.5620     0.3780 C.2   1 <1>   0.6160 
 13 C       -4.0740     6.2170    -0.3880 C.2   1 <1>  -0.0380 
 14 C       -4.9830     4.5680     1.1600 C.2   1 <1>   0.4950 
 15 N       -0.6310     6.9500    -0.9500 N.am  1 <1>  -0.5390 
 16 N       -2.9820     6.7040    -1.0900 N.pl3 1 <1>  -0.6000 
 17 O       -0.2620     3.6220     1.1320 O.2   1 <1>  -0.5700 
 18 N        0.6570     5.3800     0.1950 N.am  1 <1>  -0.4900 
 19 C       -5.2220     7.1860    -0.1480 C.3   1 <1>  -0.0220 
 20 O       -4.8770     3.5940     1.8620 O.2   1 <1>  -0.5700 
 21 C       -6.1590     5.4850     1.4630 C.3   1 <1>  -0.0990 
 22 C        0.5780     6.5670    -0.4550 C.2   1 <1>   0.6900 
 23 C       -6.5020     6.4570     0.3130 C.3   1 <1>   0.0000 
 24 O        1.5480     7.2780    -0.5790 O.2   1 <1>  -0.5700 
 25 C       -7.5330     7.4860     0.8050 C.3   1 <1>  -0.2400 
 26 C       -7.1270     5.6800    -0.8630 C.3   1 <1>  -0.2400 
 27 H       -0.8170     2.2100    -0.7020 H     1 <1>   0.1500 
 28 H       -3.0240    -1.3770    -0.4340 H     1 <1>   0.1500 
 29 H       -5.1230    -0.0810    -0.1930 H     1 <1>   0.1500 
 30 H       -5.0700     2.3280    -0.1960 H     1 <1>   0.1500 
 31 H       -3.0980     4.1480    -1.4410 H     1 <1>   0.0800 
 32 H       -0.6580     7.8740    -1.3750 H     1 <1>   0.3700 
 33 H       -3.0290     7.6330    -1.5210 H     1 <1>   0.4000 
 34 H        1.5290     5.1330     0.6490 H     1 <1>   0.3700 
 35 H       -5.4290     7.7340    -1.0500 H     1 <1>   0.0800 
 36 H       -4.9120     7.8930     0.6020 H     1 <1>   0.0800 
 37 H       -5.9050     6.0430     2.3450 H     1 <1>   0.0800 
 38 H       -7.0160     4.8810     1.7000 H     1 <1>   0.0800 
 39 H       -7.1430     8.0530     1.6320 H     1 <1>   0.0800 
 40 H       -8.4330     6.9930     1.1310 H     1 <1>   0.0800 
 41 H       -7.7910     8.1710     0.0170 H     1 <1>   0.0800 
 42 H       -6.4490     4.9460    -1.2600 H     1 <1>   0.0800 
 43 H       -7.3910     6.3520    -1.6610 H     1 <1>   0.0800 
 44 H       -8.0210     5.1710    -0.5470 H     1 <1>   0.0800 
@<TRIPOS>BOND
  1   1   2  1   
  2   2   3  ar  
  3   2   4  ar  
  4   3   5  ar  
  5   3  27  1   
  6   4   6  ar  
  7   4  28  1   
  8   5   7  ar  
  9   5   8  1   
 10   6   7  ar  
 11   6  29  1   
 12   7  30  1   
 13   8   9  1   
 14   8  10  1   
 15   8  31  1   
 16   9  11  2   
 17   9  12  1   
 18  10  13  2   
 19  10  14  1   
 20  11  15  1   
 21  11  16  1   
 22  12  17  2   
 23  12  18  am  
 24  13  16  1   
 25  13  19  1   
 26  14  20  2   
 27  14  21  1   
 28  15  22  am  
 29  15  32  1   
 30  16  33  1   
 31  18  22  am  
 32  18  34  1   
 33  19  23  1   
 34  19  35  1   
 35  19  36  1   
 36  21  23  1   
 37  21  37  1   
 38  21  38  1   
 39  22  24  2   
 40  23  25  1   
 41  23  26  1   
 42  25  39  1   
 43  25  40  1   
 44  25  41  1   
 45  26  42  1   
 46  26  43  1   
 47  26  44  1   
@<TRIPOS>SUBSTRUCTURE
  1 ****   8 GROUP 4 **** **** 0

# MOE 2024.06 (io_trps.svl 2023.06)
