@<TRIPOS>MOLECULE
2-(3-Oxo-1,3-dihydro-isobenzofuran-1-ylamino)-5,6-dihydro-4H-cyclopenta[b]thioph
38 41 1 0 0 
SMALL
USER_CHARGES


@<TRIPOS>ATOM
  1 S       -0.3260    -0.3230     0.4570 S.3   1 <1>  -0.0800 
  2 C       -1.3980     0.6280    -0.5840 C.2   1 <1>   0.1240 
  3 C        0.6400     1.0940     0.7890 C.2   1 <1>  -0.1400 
  4 N       -2.4520    -0.0080    -1.1820 N.pl3 1 <1>  -0.8530 
  5 C       -0.9980     1.9450    -0.6450 C.2   1 <1>  -0.0860 
  6 C        0.1760     2.1600     0.1610 C.2   1 <1>  -0.1810 
  7 C        1.8570     1.2760     1.6360 C.3   1 <1>   0.0200 
  8 C       -2.7640    -1.4300    -1.1380 C.3   1 <1>   0.7130 
  9 C       -1.6280     2.9920    -1.3960 C.2   1 <1>   0.8060 
 10 C        1.0350     3.3600     0.4720 C.3   1 <1>   0.0210 
 11 C        2.1230     2.7890     1.4270 C.3   1 <1>  -0.1600 
 12 O       -3.4160    -1.7150    -2.3500 O.3   1 <1>  -0.4300 
 13 C       -3.8000    -1.7400    -0.0750 C.ar  1 <1>  -0.1440 
 14 O       -1.2310     4.1460    -1.4080 O.2   1 <1>  -0.5700 
 15 O       -2.7140     2.6950    -2.1300 O.3   1 <1>  -0.4300 
 16 C       -4.6410    -2.1700    -2.1240 C.2   1 <1>   0.6340 
 17 C       -4.9200    -2.1980    -0.7230 C.ar  1 <1>   0.0860 
 18 C       -3.7550    -1.6320     1.3030 C.ar  1 <1>  -0.1500 
 19 C       -3.3840     3.6750    -2.9000 C.3   1 <1>   0.0400 
 20 O       -5.3630    -2.4990    -3.0350 O.2   1 <1>  -0.5700 
 21 C       -6.0390    -2.5750     0.0110 C.ar  1 <1>  -0.1500 
 22 C       -4.8720    -2.0070     2.0360 C.ar  1 <1>  -0.1500 
 23 C       -6.0080    -2.4780     1.3920 C.ar  1 <1>  -0.1500 
 24 H       -3.0540     0.5060    -1.8330 H     1 <1>   0.4000 
 25 H        2.6700     0.6730     1.2730 H     1 <1>   0.0800 
 26 H        1.6440     1.0470     2.6650 H     1 <1>   0.0800 
 27 H       -1.8800    -2.0420    -1.0560 H     1 <1>   0.0800 
 28 H        0.4520     4.1250     0.9550 H     1 <1>   0.0800 
 29 H        1.4710     3.7530    -0.4300 H     1 <1>   0.0800 
 30 H        3.0980     2.9330     0.9960 H     1 <1>   0.0800 
 31 H        2.0860     3.3020     2.3710 H     1 <1>   0.0800 
 32 H       -2.8740    -1.2600     1.7980 H     1 <1>   0.1500 
 33 H       -4.2140     3.2080    -3.3980 H     1 <1>   0.0800 
 34 H       -2.6970     4.0800    -3.6230 H     1 <1>   0.0800 
 35 H       -3.7350     4.4540    -2.2440 H     1 <1>   0.0800 
 36 H       -6.9140    -2.9360    -0.5020 H     1 <1>   0.1500 
 37 H       -4.8560    -1.9290     3.1100 H     1 <1>   0.1500 
 38 H       -6.8690    -2.7680     1.9710 H     1 <1>   0.1500 
@<TRIPOS>BOND
  1   1   2  1   
  2   1   3  1   
  3   2   4  1   
  4   2   5  2   
  5   3   6  2   
  6   3   7  1   
  7   4   8  1   
  8   4  24  1   
  9   5   6  1   
 10   5   9  1   
 11   6  10  1   
 12   7  11  1   
 13   7  25  1   
 14   7  26  1   
 15   8  12  1   
 16   8  13  1   
 17   8  27  1   
 18   9  14  2   
 19   9  15  1   
 20  10  11  1   
 21  10  28  1   
 22  10  29  1   
 23  11  30  1   
 24  11  31  1   
 25  12  16  1   
 26  13  17  ar  
 27  13  18  ar  
 28  15  19  1   
 29  16  17  1   
 30  16  20  2   
 31  17  21  ar  
 32  18  22  ar  
 33  18  32  1   
 34  19  33  1   
 35  19  34  1   
 36  19  35  1   
 37  21  23  ar  
 38  21  36  1   
 39  22  23  ar  
 40  22  37  1   
 41  23  38  1   
@<TRIPOS>SUBSTRUCTURE
  1 ****   4 GROUP 4 **** **** 0

# MOE 2024.06 (io_trps.svl 2023.06)
