@<TRIPOS>MOLECULE
Piperidin-1-yl-[4-(thiophene-2-carbonyl)-piperazin-1-yl]-methanone
42 44 1 0 0 
SMALL
USER_CHARGES


@<TRIPOS>ATOM
  1 S        0.4770     0.1620    -1.2230 S.3   1 <1>  -0.0800 
  2 C        1.8050     0.1080    -0.0580 C.2   1 <1>  -0.0450 
  3 C        0.1320    -1.5420    -1.0240 C.2   1 <1>  -0.1100 
  4 C        2.5360     1.3230     0.2170 C.2   1 <1>   0.7150 
  5 C        1.9110    -1.1630     0.4130 C.2   1 <1>  -0.1500 
  6 C        0.9750    -2.0900    -0.1300 C.2   1 <1>  -0.1500 
  7 O        1.9830     2.4050     0.1330 O.2   1 <1>  -0.5700 
  8 N        3.8640     1.2950     0.5830 N.am  1 <1>  -0.6600 
  9 C        4.5300     2.4850     1.1980 C.3   1 <1>   0.1400 
 10 C        4.8340     0.2830     0.0590 C.3   1 <1>   0.1400 
 11 C        5.5120     3.1360     0.2130 C.3   1 <1>   0.1400 
 12 C        5.8210     0.9350    -0.9220 C.3   1 <1>   0.1400 
 13 N        6.4790     2.1240    -0.3070 N.am  1 <1>  -0.6600 
 14 C        7.7200     2.0000     0.2620 C.2   1 <1>   0.6900 
 15 O        8.0950     0.8990     0.6300 O.2   1 <1>  -0.5700 
 16 N        8.5240     3.0990     0.4380 N.am  1 <1>  -0.6600 
 17 C        9.6830     3.0600     1.3710 C.3   1 <1>   0.1400 
 18 C        8.5310     4.2430    -0.5140 C.3   1 <1>   0.1400 
 19 C       10.9920     3.0480     0.5750 C.3   1 <1>  -0.1600 
 20 C        9.8370     4.2450    -1.3160 C.3   1 <1>  -0.1600 
 21 C       11.0700     4.2290    -0.4020 C.3   1 <1>  -0.1600 
 22 H       -0.6740    -1.9570    -1.6020 H     1 <1>   0.1500 
 23 H        2.6310    -1.4790     1.1480 H     1 <1>   0.1500 
 24 H        0.9730    -3.1230     0.1730 H     1 <1>   0.1500 
 25 H        5.0680     2.1720     2.0760 H     1 <1>   0.0800 
 26 H        3.7970     3.2110     1.5070 H     1 <1>   0.0800 
 27 H        4.3240    -0.5140    -0.4490 H     1 <1>   0.0800 
 28 H        5.3860    -0.1420     0.8810 H     1 <1>   0.0800 
 29 H        6.0360     3.9290     0.7150 H     1 <1>   0.0800 
 30 H        4.9640     3.5630    -0.6090 H     1 <1>   0.0800 
 31 H        5.2950     1.2430    -1.8090 H     1 <1>   0.0800 
 32 H        6.5670     0.2150    -1.2150 H     1 <1>   0.0800 
 33 H        9.6310     2.1870     2.0000 H     1 <1>   0.0800 
 34 H        9.6480     3.9280     2.0050 H     1 <1>   0.0800 
 35 H        8.4390     5.1600     0.0410 H     1 <1>   0.0800 
 36 H        7.7010     4.1740    -1.1960 H     1 <1>   0.0800 
 37 H       11.0550     2.1200     0.0330 H     1 <1>   0.0800 
 38 H       11.8220     3.0850     1.2580 H     1 <1>   0.0800 
 39 H        9.8660     5.1160    -1.9470 H     1 <1>   0.0800 
 40 H        9.8500     3.3780    -1.9540 H     1 <1>   0.0800 
 41 H       11.9640     4.1510    -0.9960 H     1 <1>   0.0800 
 42 H       11.1170     5.1500     0.1530 H     1 <1>   0.0800 
@<TRIPOS>BOND
  1   1   2  1   
  2   1   3  1   
  3   2   4  1   
  4   2   5  2   
  5   3   6  2   
  6   3  22  1   
  7   4   7  2   
  8   4   8  am  
  9   5   6  1   
 10   5  23  1   
 11   6  24  1   
 12   8   9  1   
 13   8  10  1   
 14   9  11  1   
 15   9  25  1   
 16   9  26  1   
 17  10  12  1   
 18  10  27  1   
 19  10  28  1   
 20  11  13  1   
 21  11  29  1   
 22  11  30  1   
 23  12  13  1   
 24  12  31  1   
 25  12  32  1   
 26  13  14  am  
 27  14  15  2   
 28  14  16  am  
 29  16  17  1   
 30  16  18  1   
 31  17  19  1   
 32  17  33  1   
 33  17  34  1   
 34  18  20  1   
 35  18  35  1   
 36  18  36  1   
 37  19  21  1   
 38  19  37  1   
 39  19  38  1   
 40  20  21  1   
 41  20  39  1   
 42  20  40  1   
 43  21  41  1   
 44  21  42  1   
@<TRIPOS>SUBSTRUCTURE
  1 ****  13 GROUP 4 **** **** 0

# MOE 2024.06 (io_trps.svl 2023.06)
