@<TRIPOS>MOLECULE
N-{4-[2-Hydroxy-3-(2-methyl-imidazol-1-yl)-propoxy]-phenyl}-acetamide
40 41 1 0 0 
SMALL
USER_CHARGES


@<TRIPOS>ATOM
  1 O        0.4080    -0.2030     0.6480 O.2   1 <1>  -0.5700 
  2 C       -0.2300     0.7050     0.1810 C.2   1 <1>   0.5690 
  3 N       -1.5510     0.6300    -0.1560 N.am  1 <1>  -0.5470 
  4 C        0.4620     2.0260    -0.0420 C.3   1 <1>  -0.1790 
  5 C       -2.4640    -0.4370    -0.0870 C.ar  1 <1>   0.1170 
  6 C       -3.8240    -0.1510    -0.1000 C.ar  1 <1>  -0.1500 
  7 C       -2.0720    -1.7710    -0.0220 C.ar  1 <1>  -0.1500 
  8 C       -4.7710    -1.1590    -0.0470 C.ar  1 <1>  -0.1500 
  9 C       -3.0120    -2.7840     0.0330 C.ar  1 <1>  -0.1500 
 10 C       -4.3650    -2.4890     0.0200 C.ar  1 <1>   0.0820 
 11 O       -5.2220    -3.5430     0.0740 O.3   1 <1>  -0.3630 
 12 C       -6.6210    -3.3410    -0.0110 C.3   1 <1>   0.1200 
 13 C       -7.3400    -4.6960     0.0860 C.3   1 <1>   0.2000 
 14 O       -6.7430    -5.5800    -0.7970 O.3   1 <1>  -0.6800 
 15 C       -8.8320    -4.6290    -0.2590 C.3   1 <1>   0.0960 
 16 N       -9.4980    -3.5610     0.5150 N.pl3 1 <1>   0.0480 
 17 C       -9.9670    -2.3620     0.0870 C.2   1 <1>   0.0070 
 18 C       -9.6970    -3.5510     1.8460 C.2   1 <1>  -0.3020 
 19 N      -10.4260    -1.6170     1.0380 N.2   1 <1>  -0.5650 
 20 C       -9.9630    -1.9170    -1.3620 C.3   1 <1>  -0.0600 
 21 C      -10.2620    -2.3630     2.1450 C.2   1 <1>   0.0770 
 22 H       -1.9550     1.5040    -0.4820 H     1 <1>   0.3700 
 23 H        0.0080     2.7830     0.5690 H     1 <1>   0.0800 
 24 H        0.3930     2.3040    -1.0770 H     1 <1>   0.0800 
 25 H        1.4990     1.9400     0.2250 H     1 <1>   0.0800 
 26 H       -4.1510     0.8710    -0.1480 H     1 <1>   0.1500 
 27 H       -1.0290    -2.0280    -0.0160 H     1 <1>   0.1500 
 28 H       -5.8090    -0.8880    -0.0550 H     1 <1>   0.1500 
 29 H       -2.6960    -3.8100     0.0870 H     1 <1>   0.1500 
 30 H       -6.8380    -2.8660    -0.9510 H     1 <1>   0.0800 
 31 H       -6.9240    -2.7010     0.8000 H     1 <1>   0.0800 
 32 H       -7.2160    -5.0940     1.0780 H     1 <1>   0.0800 
 33 H       -5.7690    -5.4660    -0.7330 H     1 <1>   0.4000 
 34 H       -9.3000    -5.5670    -0.0250 H     1 <1>   0.0800 
 35 H       -8.9530    -4.4320    -1.3080 H     1 <1>   0.0800 
 36 H       -9.4350    -4.3660     2.4960 H     1 <1>   0.1500 
 37 H      -10.3940    -0.9350    -1.4400 H     1 <1>   0.0800 
 38 H       -8.9590    -1.8820    -1.7420 H     1 <1>   0.0800 
 39 H      -10.5490    -2.5940    -1.9570 H     1 <1>   0.0800 
 40 H      -10.5660    -1.9980     3.1120 H     1 <1>   0.1500 
@<TRIPOS>BOND
  1   1   2  2   
  2   2   3  am  
  3   2   4  1   
  4   3   5  1   
  5   3  22  1   
  6   4  23  1   
  7   4  24  1   
  8   4  25  1   
  9   5   6  ar  
 10   5   7  ar  
 11   6   8  ar  
 12   6  26  1   
 13   7   9  ar  
 14   7  27  1   
 15   8  10  ar  
 16   8  28  1   
 17   9  10  ar  
 18   9  29  1   
 19  10  11  1   
 20  11  12  1   
 21  12  13  1   
 22  12  30  1   
 23  12  31  1   
 24  13  14  1   
 25  13  15  1   
 26  13  32  1   
 27  14  33  1   
 28  15  16  1   
 29  15  34  1   
 30  15  35  1   
 31  16  17  1   
 32  16  18  1   
 33  17  19  2   
 34  17  20  1   
 35  18  21  2   
 36  18  36  1   
 37  19  21  1   
 38  20  37  1   
 39  20  38  1   
 40  20  39  1   
 41  21  40  1   
@<TRIPOS>SUBSTRUCTURE
  1 ****   8 GROUP 4 **** **** 0

# MOE 2024.06 (io_trps.svl 2023.06)
