@<TRIPOS>MOLECULE
N-(1-sec-Butyl-6-methyl-1H-pyrazolo[3,4-b]quinolin-3-yl)-succinamic acid
47 49 1 0 0 
SMALL
USER_CHARGES


@<TRIPOS>ATOM
  1 O        0.7530    -1.5610     2.0150 O.co2 1 <1>  -0.9000 
  2 C        0.8450    -2.1720     0.9480 C.2   1 <1>   0.9060 
  3 O        1.6990    -1.9300     0.0940 O.co2 1 <1>  -0.9000 
  4 C       -0.1510    -3.2650     0.6740 C.3   1 <1>  -0.2660 
  5 C       -1.4460    -2.6880     0.0610 C.3   1 <1>  -0.0990 
  6 C       -2.5260    -3.7090    -0.2530 C.2   1 <1>   0.5690 
  7 O       -3.4650    -3.3600    -0.9270 O.2   1 <1>  -0.5700 
  8 N       -2.3830    -4.9690     0.2330 N.am  1 <1>  -0.4930 
  9 C       -3.1470    -6.1220     0.1090 C.2   1 <1>   0.3520 
 10 N       -2.5500    -7.2510     0.2400 N.2   1 <1>  -0.7070 
 11 C       -4.5450    -6.2470    -0.1190 C.ar  1 <1>   0.0000 
 12 N       -3.5270    -8.1940     0.0710 N.pl3 1 <1>   0.3140 
 13 C       -4.7520    -7.6250    -0.1450 C.ar  1 <1>   0.1050 
 14 C       -5.6370    -5.4230    -0.2790 C.ar  1 <1>  -0.1500 
 15 C       -3.2550    -9.6580     0.1330 C.3   1 <1>   0.1760 
 16 N       -5.9080    -8.2460    -0.3280 N.ar  1 <1>  -0.5670 
 17 C       -6.8820    -6.0150    -0.4810 C.ar  1 <1>   0.0000 
 18 C       -2.7720   -10.0400     1.5480 C.3   1 <1>  -0.1600 
 19 C       -2.2500   -10.0520    -0.9620 C.3   1 <1>  -0.2400 
 20 C       -6.9650    -7.4360    -0.4990 C.ar  1 <1>   0.3100 
 21 C       -8.0630    -5.2580    -0.6680 C.ar  1 <1>  -0.1500 
 22 C       -2.6540   -11.5560     1.7680 C.3   1 <1>  -0.2400 
 23 C       -8.2340    -8.0160    -0.7040 C.ar  1 <1>  -0.1500 
 24 C       -9.2750    -5.8570    -0.8630 C.ar  1 <1>  -0.1440 
 25 C       -9.3570    -7.2590    -0.8810 C.ar  1 <1>  -0.1500 
 26 C      -10.5440    -5.0490    -1.0650 C.3   1 <1>  -0.0970 
 27 H       -0.3540    -3.7500     1.6100 H     1 <1>   0.0800 
 28 H        0.3070    -3.9660     0.0010 H     1 <1>   0.0800 
 29 H       -1.1950    -2.1720    -0.8490 H     1 <1>   0.0800 
 30 H       -1.8570    -1.9610     0.7380 H     1 <1>   0.0800 
 31 H       -1.4800    -5.1630     0.6580 H     1 <1>   0.3700 
 32 H       -5.5430    -4.3540    -0.2480 H     1 <1>   0.1500 
 33 H       -4.1830   -10.1670    -0.0580 H     1 <1>   0.0800 
 34 H       -3.4750    -9.6510     2.2640 H     1 <1>   0.0800 
 35 H       -1.8170    -9.5790     1.7370 H     1 <1>   0.0800 
 36 H       -1.2910    -9.6040    -0.7700 H     1 <1>   0.0800 
 37 H       -2.6060    -9.7210    -1.9220 H     1 <1>   0.0800 
 38 H       -2.1310   -11.1190    -1.0020 H     1 <1>   0.0800 
 39 H       -7.9750    -4.1860    -0.6530 H     1 <1>   0.1500 
 40 H       -3.5880   -12.0430     1.5470 H     1 <1>   0.0800 
 41 H       -2.4020   -11.7560     2.7950 H     1 <1>   0.0800 
 42 H       -1.8830   -11.9780     1.1480 H     1 <1>   0.0800 
 43 H       -8.2840    -9.0880    -0.7160 H     1 <1>   0.1500 
 44 H      -10.3140    -7.7260    -1.0350 H     1 <1>   0.1500 
 45 H      -10.3360    -3.9940    -1.0310 H     1 <1>   0.0800 
 46 H      -11.2540    -5.2830    -0.2920 H     1 <1>   0.0800 
 47 H      -10.9780    -5.2810    -2.0200 H     1 <1>   0.0800 
@<TRIPOS>BOND
  1   1   2  ar  
  2   2   3  ar  
  3   2   4  1   
  4   4   5  1   
  5   4  27  1   
  6   4  28  1   
  7   5   6  1   
  8   5  29  1   
  9   5  30  1   
 10   6   7  2   
 11   6   8  am  
 12   8   9  1   
 13   8  31  1   
 14   9  10  2   
 15   9  11  1   
 16  10  12  1   
 17  11  13  ar  
 18  11  14  ar  
 19  12  13  1   
 20  12  15  1   
 21  13  16  ar  
 22  14  17  ar  
 23  14  32  1   
 24  15  18  1   
 25  15  19  1   
 26  15  33  1   
 27  16  20  ar  
 28  17  20  ar  
 29  17  21  ar  
 30  18  22  1   
 31  18  34  1   
 32  18  35  1   
 33  19  36  1   
 34  19  37  1   
 35  19  38  1   
 36  20  23  ar  
 37  21  24  ar  
 38  21  39  1   
 39  22  40  1   
 40  22  41  1   
 41  22  42  1   
 42  23  25  ar  
 43  23  43  1   
 44  24  25  ar  
 45  24  26  1   
 46  25  44  1   
 47  26  45  1   
 48  26  46  1   
 49  26  47  1   
@<TRIPOS>SUBSTRUCTURE
  1 ****  11 GROUP 4 **** **** 0

# MOE 2024.06 (io_trps.svl 2023.06)
