@<TRIPOS>MOLECULE
1-(4-Methoxy-3-methyl-benzenesulfonyl)-piperidine-4-carboxylic acid cycloheptyla
60 62 1 0 0 
SMALL
USER_CHARGES


@<TRIPOS>ATOM
  1 S       -0.0280    -0.5370    -2.3670 S.o2  1 <1>   1.4470 
  2 O        0.3050    -1.8400    -2.9010 O.2   1 <1>  -0.6500 
  3 O       -0.4720     0.5040    -3.2700 O.2   1 <1>  -0.6500 
  4 N        1.3620     0.0600    -1.5990 N.am  1 <1>  -0.8490 
  5 C       -1.2020    -0.7330    -0.9980 C.ar  1 <1>  -0.0090 
  6 C        1.1770     1.4350    -1.1240 C.3   1 <1>   0.1960 
  7 C        2.5390    -0.0610    -2.4620 C.3   1 <1>   0.1960 
  8 C       -2.4710    -0.1670    -1.0460 C.ar  1 <1>  -0.1500 
  9 C       -0.8570    -1.4540     0.1380 C.ar  1 <1>  -0.1500 
 10 C        2.3920     1.8810    -0.3080 C.3   1 <1>  -0.1600 
 11 C        3.8030     0.3470    -1.7000 C.3   1 <1>  -0.1600 
 12 C       -3.3690    -0.3040     0.0000 C.ar  1 <1>  -0.1430 
 13 C       -1.7390    -1.6030     1.1920 C.ar  1 <1>  -0.1500 
 14 C        3.6850     1.7710    -1.1330 C.3   1 <1>  -0.0190 
 15 C       -3.0040    -1.0260     1.1320 C.ar  1 <1>   0.0830 
 16 C       -4.7470     0.3360    -0.0990 C.3   1 <1>  -0.0970 
 17 C        4.9190     2.1500    -0.3170 C.2   1 <1>   0.5690 
 18 O       -3.9130    -1.1340     2.1350 O.3   1 <1>  -0.3630 
 19 O        5.1180     1.5990     0.7380 O.2   1 <1>  -0.5700 
 20 N        5.7550     3.1000    -0.8220 N.am  1 <1>  -0.7300 
 21 C       -3.6420    -1.8640     3.3100 C.3   1 <1>   0.0400 
 22 C        7.0050     3.6140    -0.2170 C.3   1 <1>   0.2200 
 23 C        7.9960     2.4570    -0.0110 C.3   1 <1>  -0.1600 
 24 C        6.6680     4.3470     1.0910 C.3   1 <1>  -0.1600 
 25 C        9.4800     2.8570    -0.0820 C.3   1 <1>  -0.1600 
 26 C        7.7890     5.2480     1.6330 C.3   1 <1>  -0.1600 
 27 C        9.8570     4.2100     0.5440 C.3   1 <1>  -0.1600 
 28 C        9.1340     4.5390     1.8580 C.3   1 <1>  -0.1600 
 29 H        0.3010     1.4900    -0.4990 H     1 <1>   0.0800 
 30 H        1.0340     2.0990    -1.9620 H     1 <1>   0.0800 
 31 H        2.4140     0.5550    -3.3380 H     1 <1>   0.0800 
 32 H        2.6510    -1.0830    -2.7850 H     1 <1>   0.0800 
 33 H       -2.7550     0.3910    -1.9230 H     1 <1>   0.1500 
 34 H        0.1220    -1.9030     0.1940 H     1 <1>   0.1500 
 35 H        2.4640     1.2640     0.5720 H     1 <1>   0.0800 
 36 H        2.2540     2.8970     0.0150 H     1 <1>   0.0800 
 37 H        4.6520     0.2860    -2.3570 H     1 <1>   0.0800 
 38 H        3.9620    -0.3510    -0.8950 H     1 <1>   0.0800 
 39 H       -1.4240    -2.1680     2.0480 H     1 <1>   0.1500 
 40 H        3.6070     2.4530    -1.9610 H     1 <1>   0.0800 
 41 H       -4.8720     0.8560    -1.0310 H     1 <1>   0.0800 
 42 H       -4.8820     1.0360     0.7060 H     1 <1>   0.0800 
 43 H       -5.5050    -0.4230    -0.0240 H     1 <1>   0.0800 
 44 H        5.5280     3.5240    -1.7200 H     1 <1>   0.3700 
 45 H       -4.5080    -1.8090     3.9440 H     1 <1>   0.0800 
 46 H       -2.7960    -1.4240     3.8080 H     1 <1>   0.0800 
 47 H       -3.4460    -2.8880     3.0460 H     1 <1>   0.0800 
 48 H        7.4300     4.3170    -0.9130 H     1 <1>   0.0800 
 49 H        7.8280     1.7040    -0.7600 H     1 <1>   0.0800 
 50 H        7.8030     1.9970     0.9430 H     1 <1>   0.0800 
 51 H        6.4080     3.6260     1.8470 H     1 <1>   0.0800 
 52 H        5.8040     4.9660     0.9270 H     1 <1>   0.0800 
 53 H        9.7860     2.8730    -1.1140 H     1 <1>   0.0800 
 54 H       10.0510     2.0830     0.4010 H     1 <1>   0.0800 
 55 H        7.4600     5.6510     2.5750 H     1 <1>   0.0800 
 56 H        7.9300     6.0820     0.9670 H     1 <1>   0.0800 
 57 H        9.6840     4.9980    -0.1690 H     1 <1>   0.0800 
 58 H       10.9170     4.1960     0.7320 H     1 <1>   0.0800 
 59 H        9.0030     3.6520     2.4550 H     1 <1>   0.0800 
 60 H        9.7610     5.2090     2.4200 H     1 <1>   0.0800 
@<TRIPOS>BOND
  1   1   2  2   
  2   1   3  2   
  3   1   4  am  
  4   1   5  1   
  5   4   6  1   
  6   4   7  1   
  7   5   8  ar  
  8   5   9  ar  
  9   6  10  1   
 10   6  29  1   
 11   6  30  1   
 12   7  11  1   
 13   7  31  1   
 14   7  32  1   
 15   8  12  ar  
 16   8  33  1   
 17   9  13  ar  
 18   9  34  1   
 19  10  14  1   
 20  10  35  1   
 21  10  36  1   
 22  11  14  1   
 23  11  37  1   
 24  11  38  1   
 25  12  15  ar  
 26  12  16  1   
 27  13  15  ar  
 28  13  39  1   
 29  14  17  1   
 30  14  40  1   
 31  15  18  1   
 32  16  41  1   
 33  16  42  1   
 34  16  43  1   
 35  17  19  2   
 36  17  20  am  
 37  18  21  1   
 38  20  22  1   
 39  20  44  1   
 40  21  45  1   
 41  21  46  1   
 42  21  47  1   
 43  22  23  1   
 44  22  24  1   
 45  22  48  1   
 46  23  25  1   
 47  23  49  1   
 48  23  50  1   
 49  24  26  1   
 50  24  51  1   
 51  24  52  1   
 52  25  27  1   
 53  25  53  1   
 54  25  54  1   
 55  26  28  1   
 56  26  55  1   
 57  26  56  1   
 58  27  28  1   
 59  27  57  1   
 60  27  58  1   
 61  28  59  1   
 62  28  60  1   
@<TRIPOS>SUBSTRUCTURE
  1 ****  10 GROUP 4 **** **** 0

# MOE 2024.06 (io_trps.svl 2023.06)
