@<TRIPOS>MOLECULE
N-(3-Hydroxy-propyl)-2-[2-methyl-4-(piperidine-1-sulfonyl)-phenoxy]-acetamide
51 52 1 0 0 
SMALL
USER_CHARGES


@<TRIPOS>ATOM
  1 S       -0.4070     0.5540     1.1680 S.o2  1 <1>   1.4470 
  2 O       -0.5950    -0.3210     2.3050 O.2   1 <1>  -0.6500 
  3 O       -1.0180     1.8670     1.1760 O.2   1 <1>  -0.6500 
  4 N       -1.0050    -0.2550    -0.1970 N.am  1 <1>  -0.8490 
  5 C        1.3660     0.6880     0.8170 C.ar  1 <1>  -0.0090 
  6 C       -0.9930     0.5990    -1.3900 C.3   1 <1>   0.1960 
  7 C       -2.3470    -0.7910     0.0500 C.3   1 <1>   0.1960 
  8 C        2.0300     1.9060     0.9150 C.ar  1 <1>  -0.1500 
  9 C        2.1020    -0.4310     0.4420 C.ar  1 <1>  -0.1500 
 10 C       -1.3900    -0.2140    -2.6270 C.3   1 <1>  -0.1600 
 11 C       -2.8070    -1.6460    -1.1360 C.3   1 <1>  -0.1600 
 12 C        3.3860     2.0220     0.6510 C.ar  1 <1>  -0.1430 
 13 C        3.4550    -0.3380     0.1780 C.ar  1 <1>  -0.1500 
 14 C       -2.7710    -0.8550    -2.4490 C.3   1 <1>  -0.1600 
 15 C        4.0980     0.8820     0.2920 C.ar  1 <1>   0.0820 
 16 C        4.0500     3.3880     0.7560 C.3   1 <1>  -0.0970 
 17 O        5.4210     0.9280     0.0440 O.3   1 <1>  -0.3630 
 18 C        6.2750     0.9610     1.1820 C.3   1 <1>   0.1810 
 19 C        7.2390     2.1360     1.1100 C.2   1 <1>   0.5690 
 20 O        7.7680     2.5170     2.1260 O.2   1 <1>  -0.5700 
 21 N        7.4770     2.7290    -0.0920 N.am  1 <1>  -0.7300 
 22 C        8.3780     3.8740    -0.3290 C.3   1 <1>   0.1400 
 23 C        9.4500     3.4630    -1.3350 C.3   1 <1>  -0.1600 
 24 C       10.4260     4.6130    -1.5760 C.3   1 <1>   0.1200 
 25 O       11.3410     4.2130    -2.5290 O.3   1 <1>  -0.6800 
 26 H       -0.0050     1.0020    -1.5410 H     1 <1>   0.0800 
 27 H       -1.6770     1.4230    -1.2610 H     1 <1>   0.0800 
 28 H       -3.0390     0.0200     0.2150 H     1 <1>   0.0800 
 29 H       -2.3370    -1.4080     0.9330 H     1 <1>   0.0800 
 30 H        1.4670     2.7780     1.2030 H     1 <1>   0.1500 
 31 H        1.6030    -1.3820     0.3580 H     1 <1>   0.1500 
 32 H       -0.6500    -0.9780    -2.7910 H     1 <1>   0.0800 
 33 H       -1.3980     0.4290    -3.4890 H     1 <1>   0.0800 
 34 H       -3.8060    -2.0000    -0.9540 H     1 <1>   0.0800 
 35 H       -2.1620    -2.5040    -1.2110 H     1 <1>   0.0800 
 36 H        4.0150    -1.2090    -0.1140 H     1 <1>   0.1500 
 37 H       -2.9850    -1.5070    -3.2790 H     1 <1>   0.0800 
 38 H       -3.5230    -0.0850    -2.4240 H     1 <1>   0.0800 
 39 H        3.3160     4.1730     0.7690 H     1 <1>   0.0800 
 40 H        4.6980     3.5520    -0.0870 H     1 <1>   0.0800 
 41 H        4.6300     3.4500     1.6590 H     1 <1>   0.0800 
 42 H        6.8280     0.0410     1.2070 H     1 <1>   0.0800 
 43 H        5.6810     1.0400     2.0760 H     1 <1>   0.0800 
 44 H        6.9580     2.3750    -0.9010 H     1 <1>   0.3700 
 45 H        8.8390     4.1730     0.5990 H     1 <1>   0.0800 
 46 H        7.8050     4.7030    -0.7080 H     1 <1>   0.0800 
 47 H        8.9790     3.2000    -2.2660 H     1 <1>   0.0800 
 48 H        9.9860     2.6150    -0.9470 H     1 <1>   0.0800 
 49 H       10.9600     4.8720    -0.6770 H     1 <1>   0.0800 
 50 H        9.9150     5.4830    -1.9540 H     1 <1>   0.0800 
 51 H       11.8420     3.4340    -2.2190 H     1 <1>   0.4000 
@<TRIPOS>BOND
  1   1   2  2   
  2   1   3  2   
  3   1   4  am  
  4   1   5  1   
  5   4   6  1   
  6   4   7  1   
  7   5   8  ar  
  8   5   9  ar  
  9   6  10  1   
 10   6  26  1   
 11   6  27  1   
 12   7  11  1   
 13   7  28  1   
 14   7  29  1   
 15   8  12  ar  
 16   8  30  1   
 17   9  13  ar  
 18   9  31  1   
 19  10  14  1   
 20  10  32  1   
 21  10  33  1   
 22  11  14  1   
 23  11  34  1   
 24  11  35  1   
 25  12  15  ar  
 26  12  16  1   
 27  13  15  ar  
 28  13  36  1   
 29  14  37  1   
 30  14  38  1   
 31  15  17  1   
 32  16  39  1   
 33  16  40  1   
 34  16  41  1   
 35  17  18  1   
 36  18  19  1   
 37  18  42  1   
 38  18  43  1   
 39  19  20  2   
 40  19  21  am  
 41  21  22  1   
 42  21  44  1   
 43  22  23  1   
 44  22  45  1   
 45  22  46  1   
 46  23  24  1   
 47  23  47  1   
 48  23  48  1   
 49  24  25  1   
 50  24  49  1   
 51  24  50  1   
 52  25  51  1   
@<TRIPOS>SUBSTRUCTURE
  1 ****  12 GROUP 4 **** **** 0

# MOE 2024.06 (io_trps.svl 2023.06)
