@<TRIPOS>MOLECULE
3-[5-(4-Chloro-phenyl)-5-hydroxy-3-methyl-4,5-dihydro-pyrazol-1-yl]-3-oxo-propio
31 32 1 0 0 
SMALL
USER_CHARGES


@<TRIPOS>ATOM
  1 CL       1.9930     0.2700     2.9320 Cl    1 <1>  -0.1770 
  2 C        2.7470    -0.8340     1.8110 C.ar  1 <1>   0.1770 
  3 C        2.5950    -0.6340     0.4540 C.ar  1 <1>  -0.1500 
  4 C        3.4850    -1.8960     2.2960 C.ar  1 <1>  -0.1500 
  5 C        3.1940    -1.5120    -0.4330 C.ar  1 <1>  -0.1500 
  6 C        4.0800    -2.7710     1.4040 C.ar  1 <1>  -0.1500 
  7 C        3.9500    -2.5890     0.0280 C.ar  1 <1>  -0.1430 
  8 C        4.6150    -3.5720    -0.9540 C.3   1 <1>   0.7240 
  9 O        4.8720    -2.9690    -2.1620 O.3   1 <1>  -0.6800 
 10 N        5.9030    -4.1070    -0.4630 N.am  1 <1>  -0.2980 
 11 C        3.7760    -4.8280    -1.1760 C.3   1 <1>  -0.0990 
 12 N        5.8520    -5.4810    -0.3190 N.2   1 <1>  -0.5120 
 13 C        6.9760    -3.2890    -0.1960 C.2   1 <1>   0.5690 
 14 C        4.7270    -5.8960    -0.7020 C.2   1 <1>   0.3280 
 15 O        7.0160    -2.1350    -0.5600 O.2   1 <1>  -0.5700 
 16 C        8.1530    -3.8480     0.5670 C.3   1 <1>   0.1010 
 17 C        4.2790    -7.3390    -0.7110 C.3   1 <1>  -0.1790 
 18 C        7.7740    -3.9660     1.9950 C.1   1 <1>   0.3570 
 19 N        7.4750    -4.0520     3.0890 N.1   1 <1>  -0.5570 
 20 H        2.0150     0.1990     0.1000 H     1 <1>   0.1500 
 21 H        3.5920    -2.0340     3.3570 H     1 <1>   0.1500 
 22 H        3.0650    -1.3460    -1.4900 H     1 <1>   0.1500 
 23 H        4.6490    -3.5970     1.8020 H     1 <1>   0.1500 
 24 H        5.5700    -2.3040    -1.9750 H     1 <1>   0.4000 
 25 H        3.5190    -4.9610    -2.2100 H     1 <1>   0.0800 
 26 H        2.8910    -4.8160    -0.5690 H     1 <1>   0.0800 
 27 H        8.9930    -3.1860     0.4760 H     1 <1>   0.0800 
 28 H        8.4240    -4.8110     0.1810 H     1 <1>   0.0800 
 29 H        3.4170    -7.4610    -0.0810 H     1 <1>   0.0800 
 30 H        5.0680    -7.9690    -0.3420 H     1 <1>   0.0800 
 31 H        4.0340    -7.6410    -1.7120 H     1 <1>   0.0800 
@<TRIPOS>BOND
  1   1   2  1   
  2   2   3  ar  
  3   2   4  ar  
  4   3   5  ar  
  5   3  20  1   
  6   4   6  ar  
  7   4  21  1   
  8   5   7  ar  
  9   5  22  1   
 10   6   7  ar  
 11   6  23  1   
 12   7   8  1   
 13   8   9  1   
 14   8  10  1   
 15   8  11  1   
 16   9  24  1   
 17  10  12  1   
 18  10  13  am  
 19  11  14  1   
 20  11  25  1   
 21  11  26  1   
 22  12  14  2   
 23  13  15  2   
 24  13  16  1   
 25  14  17  1   
 26  16  18  1   
 27  16  27  1   
 28  16  28  1   
 29  17  29  1   
 30  17  30  1   
 31  17  31  1   
 32  18  19  3   
@<TRIPOS>SUBSTRUCTURE
  1 ****   7 GROUP 4 **** **** 0

# MOE 2024.06 (io_trps.svl 2023.06)
