@<TRIPOS>MOLECULE
1-(4-Fluoro-benzenesulfonyl)-piperidine-3-carboxylic acid (3-hydroxy-propyl)-ami
44 45 1 0 0 
SMALL
USER_CHARGES


@<TRIPOS>ATOM
  1 S        0.1050    -0.4920     1.4090 S.o2  1 <1>   1.4470 
  2 O       -0.8570    -1.2750     2.1530 O.2   1 <1>  -0.6500 
  3 O        1.2470     0.0710     2.1000 O.2   1 <1>  -0.6500 
  4 N        0.7230    -1.4950     0.1900 N.am  1 <1>  -0.8490 
  5 C       -0.7690     0.8010     0.4810 C.ar  1 <1>  -0.0090 
  6 C        1.8510    -0.8900    -0.5550 C.3   1 <1>   0.1960 
  7 C        0.9660    -2.8610     0.6870 C.3   1 <1>   0.1960 
  8 C       -1.6610     0.4660    -0.5360 C.ar  1 <1>  -0.1500 
  9 C       -0.5730     2.1510     0.7710 C.ar  1 <1>  -0.1500 
 10 C        3.2060    -1.4120    -0.0620 C.3   1 <1>  -0.0190 
 11 C        1.9380    -3.6280    -0.2180 C.3   1 <1>  -0.1600 
 12 C       -2.3370     1.4420    -1.2520 C.ar  1 <1>  -0.1500 
 13 C       -1.2390     3.1410     0.0680 C.ar  1 <1>  -0.1500 
 14 C        4.3310    -0.6420    -0.7350 C.2   1 <1>   0.5690 
 15 C        3.3130    -2.9360    -0.2970 C.3   1 <1>  -0.1600 
 16 C       -2.1110     2.7660    -0.9350 C.ar  1 <1>   0.1900 
 17 O        4.3500    -0.5560    -1.9390 O.2   1 <1>  -0.5700 
 18 N        5.2780    -0.0600     0.0450 N.am  1 <1>  -0.7300 
 19 F       -2.7420     3.6920    -1.6030 F     1 <1>  -0.1900 
 20 C        6.4370     0.7020    -0.4620 C.3   1 <1>   0.1400 
 21 C        7.6950     0.2430     0.2710 C.3   1 <1>  -0.1600 
 22 C        8.9180     0.9970    -0.2450 C.3   1 <1>   0.1200 
 23 O       10.0290     0.5460     0.4400 O.3   1 <1>  -0.6800 
 24 H        1.8210     0.1840    -0.4820 H     1 <1>   0.0800 
 25 H        1.7470    -1.1400    -1.5980 H     1 <1>   0.0800 
 26 H        0.0260    -3.3850     0.7480 H     1 <1>   0.0800 
 27 H        1.3830    -2.8180     1.6810 H     1 <1>   0.0800 
 28 H       -1.8260    -0.5730    -0.7680 H     1 <1>   0.1500 
 29 H        0.1090     2.4290     1.5580 H     1 <1>   0.1500 
 30 H        3.2640    -1.2200     0.9930 H     1 <1>   0.0800 
 31 H        1.5040    -3.6940    -1.2010 H     1 <1>   0.0800 
 32 H        2.0590    -4.6320     0.1490 H     1 <1>   0.0800 
 33 H       -3.0240     1.1840    -2.0380 H     1 <1>   0.1500 
 34 H       -1.0890     4.1830     0.2900 H     1 <1>   0.1500 
 35 H        3.9780    -3.3530     0.4380 H     1 <1>   0.0800 
 36 H        3.7370    -3.1310    -1.2680 H     1 <1>   0.0800 
 37 H        5.1990    -0.1220     1.0610 H     1 <1>   0.3700 
 38 H        6.2690     1.7530    -0.2970 H     1 <1>   0.0800 
 39 H        6.5480     0.5370    -1.5220 H     1 <1>   0.0800 
 40 H        7.8360    -0.8100     0.0980 H     1 <1>   0.0800 
 41 H        7.5790     0.4250     1.3240 H     1 <1>   0.0800 
 42 H        8.8270     2.0580    -0.0840 H     1 <1>   0.0800 
 43 H        9.0760     0.8050    -1.2940 H     1 <1>   0.0800 
 44 H        9.9340     0.7040     1.3990 H     1 <1>   0.4000 
@<TRIPOS>BOND
  1   1   2  2   
  2   1   3  2   
  3   1   4  am  
  4   1   5  1   
  5   4   6  1   
  6   4   7  1   
  7   5   8  ar  
  8   5   9  ar  
  9   6  10  1   
 10   6  24  1   
 11   6  25  1   
 12   7  11  1   
 13   7  26  1   
 14   7  27  1   
 15   8  12  ar  
 16   8  28  1   
 17   9  13  ar  
 18   9  29  1   
 19  10  14  1   
 20  10  15  1   
 21  10  30  1   
 22  11  15  1   
 23  11  31  1   
 24  11  32  1   
 25  12  16  ar  
 26  12  33  1   
 27  13  16  ar  
 28  13  34  1   
 29  14  17  2   
 30  14  18  am  
 31  15  35  1   
 32  15  36  1   
 33  16  19  1   
 34  18  20  1   
 35  18  37  1   
 36  20  21  1   
 37  20  38  1   
 38  20  39  1   
 39  21  22  1   
 40  21  40  1   
 41  21  41  1   
 42  22  23  1   
 43  22  42  1   
 44  22  43  1   
 45  23  44  1   
@<TRIPOS>SUBSTRUCTURE
  1 ****   6 GROUP 4 **** **** 0

# MOE 2024.06 (io_trps.svl 2023.06)
