@<TRIPOS>MOLECULE
8-(3,5-Dimethyl-phenyl)-1-methyl-3-(2-oxo-propyl)-5,6,7,8-tetrahydro-1H-1,3,4b,8
52 55 1 0 0 
SMALL
USER_CHARGES


@<TRIPOS>ATOM
  1 O        1.0340     0.5970     2.1870 O.2   1 <1>  -0.5740 
  2 C        1.9430     1.2260     1.6850 C.2   1 <1>   0.6860 
  3 N        1.7160     2.5160     1.2270 N.am  1 <1>  -0.4250 
  4 N        3.2020     0.6530     1.5640 N.am  1 <1>  -0.4410 
  5 C        2.7360     3.2740     0.6760 C.2   1 <1>   0.6990 
  6 C        0.3130     2.8930     0.8680 C.3   1 <1>   0.1940 
  7 C        4.1840     1.3800     0.9170 C.2   1 <1>   0.4210 
  8 C        3.4560    -0.7400     2.0350 C.3   1 <1>   0.0520 
  9 O        2.5470     4.4410     0.3710 O.2   1 <1>  -0.5740 
 10 C        4.0050     2.6460     0.4800 C.2   1 <1>   0.2710 
 11 C       -0.0120     2.4390    -0.5550 C.2   1 <1>   0.4430 
 12 N        5.4500     0.9870     0.6050 N.pl3 1 <1>  -0.7040 
 13 N        5.2170     3.0290    -0.1110 N.pl3 1 <1>  -0.7670 
 14 O        0.8280     1.9940    -1.2840 O.2   1 <1>  -0.5740 
 15 C       -1.4490     2.5790    -1.0080 C.3   1 <1>  -0.1860 
 16 C        6.0450     1.9970    -0.0240 C.cat 1 <1>   1.0690 
 17 C        5.5370     4.3100    -0.7700 C.3   1 <1>   0.3480 
 18 N        7.2930     2.0100    -0.5230 N.pl3 1 <1>  -0.5800 
 19 C        7.0610     4.4710    -0.8080 C.3   1 <1>  -0.1670 
 20 C        8.1340     0.9000    -0.4410 C.ar  1 <1>   0.3050 
 21 C        7.7750     3.1950    -1.2820 C.3   1 <1>   0.1610 
 22 C        9.0730     0.8080     0.5760 C.ar  1 <1>  -0.1570 
 23 C        8.0090    -0.1410    -1.3510 C.ar  1 <1>  -0.1570 
 24 C        9.8710    -0.3150     0.6950 C.ar  1 <1>  -0.1510 
 25 C        8.7990    -1.2700    -1.2390 C.ar  1 <1>  -0.1510 
 26 C        9.7270    -1.3510    -0.2140 C.ar  1 <1>  -0.1570 
 27 C       10.9030    -0.4290     1.8030 C.3   1 <1>  -0.1040 
 28 C        8.6670    -2.4120    -2.2320 C.3   1 <1>  -0.1040 
 29 H        0.1910     3.9600     0.9360 H     1 <1>   0.0720 
 30 H       -0.3810     2.4420     1.5550 H     1 <1>   0.0720 
 31 H        2.7720    -1.0000     2.8250 H     1 <1>   0.0720 
 32 H        4.4570    -0.8310     2.4170 H     1 <1>   0.0720 
 33 H        3.3170    -1.4280     1.2200 H     1 <1>   0.0720 
 34 H        5.8920     0.0870     0.7770 H     1 <1>   0.4450 
 35 H       -1.7510     3.6090    -0.9620 H     1 <1>   0.0720 
 36 H       -2.0920     1.9880    -0.3820 H     1 <1>   0.0720 
 37 H       -1.5440     2.2360    -2.0230 H     1 <1>   0.0720 
 38 H        5.0900     5.1290    -0.2280 H     1 <1>   0.0720 
 39 H        5.1360     4.3030    -1.7710 H     1 <1>   0.0720 
 40 H        7.4140     4.7300     0.1750 H     1 <1>   0.0720 
 41 H        7.3160     5.2880    -1.4590 H     1 <1>   0.0720 
 42 H        7.5850     3.0370    -2.3310 H     1 <1>   0.0720 
 43 H        8.8390     3.3050    -1.1470 H     1 <1>   0.0720 
 44 H        9.1780     1.6180     1.2750 H     1 <1>   0.1430 
 45 H        7.2940    -0.0670    -2.1500 H     1 <1>   0.1430 
 46 H       10.3480    -2.2260    -0.1240 H     1 <1>   0.1430 
 47 H       10.9560     0.4770     2.3810 H     1 <1>   0.0720 
 48 H       11.8740    -0.6180     1.3810 H     1 <1>   0.0720 
 49 H       10.6500    -1.2410     2.4600 H     1 <1>   0.0720 
 50 H        7.7110    -2.3880    -2.7220 H     1 <1>   0.0720 
 51 H        8.7650    -3.3580    -1.7280 H     1 <1>   0.0720 
 52 H        9.4390    -2.3380    -2.9760 H     1 <1>   0.0720 
@<TRIPOS>BOND
  1   1   2  2   
  2   2   3  am  
  3   2   4  am  
  4   3   5  am  
  5   3   6  1   
  6   4   7  1   
  7   4   8  1   
  8   5   9  2   
  9   5  10  1   
 10   6  11  1   
 11   6  29  1   
 12   6  30  1   
 13   7  10  2   
 14   7  12  1   
 15   8  31  1   
 16   8  32  1   
 17   8  33  1   
 18  10  13  1   
 19  11  14  2   
 20  11  15  1   
 21  12  16  ar  
 22  12  34  1   
 23  13  16  ar  
 24  13  17  1   
 25  15  35  1   
 26  15  36  1   
 27  15  37  1   
 28  16  18  ar  
 29  17  19  1   
 30  17  38  1   
 31  17  39  1   
 32  18  20  1   
 33  18  21  1   
 34  19  21  1   
 35  19  40  1   
 36  19  41  1   
 37  20  22  ar  
 38  20  23  ar  
 39  21  42  1   
 40  21  43  1   
 41  22  24  ar  
 42  22  44  1   
 43  23  25  ar  
 44  23  45  1   
 45  24  26  ar  
 46  24  27  1   
 47  25  26  ar  
 48  25  28  1   
 49  26  46  1   
 50  27  47  1   
 51  27  48  1   
 52  27  49  1   
 53  28  50  1   
 54  28  51  1   
 55  28  52  1   
@<TRIPOS>SUBSTRUCTURE
  1 ****  12 GROUP 4 **** **** 0

# MOE 2024.06 (io_trps.svl 2023.06)
