@<TRIPOS>MOLECULE
N-(5-Chloro-2-hydroxy-phenyl)-2-(4-methyl-5-morpholin-4-ylmethyl-4H-[1,2,4]triaz
46 48 1 0 0 
SMALL
USER_CHARGES


@<TRIPOS>ATOM
  1 CL      -0.1050    -0.3940    -2.4080 Cl    1 <1>  -0.1770 
  2 C       -0.1400    -1.4590    -1.0250 C.ar  1 <1>   0.1770 
  3 C        0.1660    -2.7960    -1.1930 C.ar  1 <1>  -0.1500 
  4 C       -0.4800    -0.9410     0.2110 C.ar  1 <1>  -0.1500 
  5 C        0.1340    -3.6570    -0.1020 C.ar  1 <1>   0.1170 
  6 C       -0.5180    -1.7850     1.3080 C.ar  1 <1>  -0.1500 
  7 N        0.4050    -5.0340    -0.2070 N.am  1 <1>  -0.5470 
  8 C       -0.2140    -3.1280     1.1470 C.ar  1 <1>   0.0830 
  9 C        1.0630    -5.7690    -1.1570 C.2   1 <1>   0.5690 
 10 O       -0.2630    -3.9410     2.2230 O.3   1 <1>  -0.5320 
 11 O        1.6170    -5.2720    -2.1080 O.2   1 <1>  -0.5700 
 12 C        1.1100    -7.2840    -1.0160 C.3   1 <1>   0.1310 
 13 S       -0.5600    -7.9980    -1.3980 S.3   1 <1>  -0.2860 
 14 C       -1.5260    -7.4600     0.0120 C.2   1 <1>   0.2430 
 15 N       -1.0280    -7.3060     1.1880 N.2   1 <1>  -0.3380 
 16 N       -2.8030    -7.1020    -0.0830 N.pl3 1 <1>   0.0480 
 17 N       -2.0100    -6.7860     1.9280 N.2   1 <1>  -0.3380 
 18 C       -3.0420    -6.6540     1.1580 C.2   1 <1>   0.0060 
 19 C       -3.6690    -7.0780    -1.2790 C.3   1 <1>   0.0160 
 20 C       -4.3500    -6.0080     1.5900 C.3   1 <1>   0.2900 
 21 N       -4.6920    -4.8610     0.7220 N.3   1 <1>  -0.8100 
 22 C       -5.9740    -4.2570     1.1330 C.3   1 <1>   0.1100 
 23 C       -3.6300    -3.8280     0.7540 C.3   1 <1>   0.1100 
 24 C       -6.2960    -3.0080     0.2920 C.3   1 <1>   0.1200 
 25 C       -4.0250    -2.5890    -0.0670 C.3   1 <1>   0.1200 
 26 O       -5.2510    -2.0810     0.3750 O.3   1 <1>  -0.5600 
 27 H        0.4210    -3.1540    -2.1730 H     1 <1>   0.1500 
 28 H       -0.7120     0.1050     0.3060 H     1 <1>   0.1500 
 29 H       -0.7810    -1.3920     2.2730 H     1 <1>   0.1500 
 30 H        0.0440    -5.5640     0.6010 H     1 <1>   0.3700 
 31 H       -0.4970    -3.4890     3.0520 H     1 <1>   0.4500 
 32 H        1.3740    -7.5760    -0.0170 H     1 <1>   0.0800 
 33 H        1.8030    -7.7060    -1.7200 H     1 <1>   0.0800 
 34 H       -3.5290    -6.1450    -1.7940 H     1 <1>   0.0800 
 35 H       -4.6980    -7.1670    -0.9830 H     1 <1>   0.0800 
 36 H       -3.4130    -7.8930    -1.9310 H     1 <1>   0.0800 
 37 H       -4.2580    -5.6780     2.6120 H     1 <1>   0.0800 
 38 H       -5.1340    -6.7430     1.5430 H     1 <1>   0.0800 
 39 H       -5.9340    -3.9710     2.1710 H     1 <1>   0.0800 
 40 H       -6.7660    -4.9750     1.0110 H     1 <1>   0.0800 
 41 H       -2.7170    -4.2260     0.3460 H     1 <1>   0.0800 
 42 H       -3.4350    -3.5260     1.7690 H     1 <1>   0.0800 
 43 H       -7.1870    -2.5310     0.6570 H     1 <1>   0.0800 
 44 H       -6.4400    -3.2740    -0.7410 H     1 <1>   0.0800 
 45 H       -4.1090    -2.8390    -1.1110 H     1 <1>   0.0800 
 46 H       -3.2880    -1.8150     0.0450 H     1 <1>   0.0800 
@<TRIPOS>BOND
  1   1   2  1   
  2   2   3  ar  
  3   2   4  ar  
  4   3   5  ar  
  5   3  27  1   
  6   4   6  ar  
  7   4  28  1   
  8   5   7  1   
  9   5   8  ar  
 10   6   8  ar  
 11   6  29  1   
 12   7   9  am  
 13   7  30  1   
 14   8  10  1   
 15   9  11  2   
 16   9  12  1   
 17  10  31  1   
 18  12  13  1   
 19  12  32  1   
 20  12  33  1   
 21  13  14  1   
 22  14  15  2   
 23  14  16  1   
 24  15  17  1   
 25  16  18  1   
 26  16  19  1   
 27  17  18  2   
 28  18  20  1   
 29  19  34  1   
 30  19  35  1   
 31  19  36  1   
 32  20  21  1   
 33  20  37  1   
 34  20  38  1   
 35  21  22  1   
 36  21  23  1   
 37  22  24  1   
 38  22  39  1   
 39  22  40  1   
 40  23  25  1   
 41  23  41  1   
 42  23  42  1   
 43  24  26  1   
 44  24  43  1   
 45  24  44  1   
 46  25  26  1   
 47  25  45  1   
 48  25  46  1   
@<TRIPOS>SUBSTRUCTURE
  1 ****  23 GROUP 4 **** **** 0

# MOE 2024.06 (io_trps.svl 2023.06)
