@<TRIPOS>MOLECULE
C-[4-(2-Fluoro-phenyl)-tetrahydro-pyran-4-yl]-methylamine
32 33 1 0 0 
SMALL
USER_CHARGES


@<TRIPOS>ATOM
  1 F       -0.9160     0.0470    -1.3620 F     1 <1>  -0.1900 
  2 C       -1.1410     1.3040    -1.0790 C.ar  1 <1>   0.1900 
  3 C       -2.2830     1.6610    -0.3580 C.ar  1 <1>  -0.1440 
  4 C       -0.1980     2.2150    -1.5130 C.ar  1 <1>  -0.1500 
  5 C       -2.4310     3.0200    -0.0770 C.ar  1 <1>  -0.1500 
  6 C       -3.3010     0.5870     0.0940 C.3   1 <1>   0.1440 
  7 C       -0.3790     3.5530    -1.2210 C.ar  1 <1>  -0.1500 
  8 C       -1.4930     3.9480    -0.5030 C.ar  1 <1>  -0.1500 
  9 C       -3.8850    -0.1140    -1.1700 C.3   1 <1>  -0.1600 
 10 C       -4.5100     1.1920     0.8570 C.3   1 <1>  -0.1600 
 11 C       -2.5270    -0.3670     1.0570 C.3   1 <1>   0.3430 
 12 C       -5.2950    -0.7020    -0.9740 C.3   1 <1>   0.1200 
 13 C       -5.6290     0.1790     1.1680 C.3   1 <1>   0.1200 
 14 N       -3.0100    -1.7770     1.0630 N.4   1 <1>  -0.8530 
 15 O       -5.4830    -0.9700     0.3820 O.3   1 <1>  -0.5600 
 16 H        0.6620     1.8850    -2.0690 H     1 <1>   0.1500 
 17 H       -3.2690     3.4050     0.4740 H     1 <1>   0.1500 
 18 H        0.3420     4.2830    -1.5490 H     1 <1>   0.1500 
 19 H       -1.6330     4.9920    -0.2760 H     1 <1>   0.1500 
 20 H       -3.2290    -0.8850    -1.5270 H     1 <1>   0.0800 
 21 H       -3.9570     0.6040    -1.9690 H     1 <1>   0.0800 
 22 H       -4.9560     1.9590     0.2480 H     1 <1>   0.0800 
 23 H       -4.1970     1.6640     1.7730 H     1 <1>   0.0800 
 24 H       -2.5960     0.0400     2.0520 H     1 <1>   0.0800 
 25 H       -1.4820    -0.3670     0.7940 H     1 <1>   0.0800 
 26 H       -5.4130    -1.6210    -1.5240 H     1 <1>   0.0800 
 27 H       -6.0580    -0.0100    -1.2960 H     1 <1>   0.0800 
 28 H       -6.6000     0.6060     0.9730 H     1 <1>   0.0800 
 29 H       -5.5950    -0.1270     2.2000 H     1 <1>   0.0800 
 30 H       -4.0470    -1.7560     0.9830 H     1 <1>   0.4500 
 31 H       -2.7500    -2.2870     1.9110 H     1 <1>   0.4500 
 32 H       -2.6680    -2.2830     0.2420 H     1 <1>   0.4500 
@<TRIPOS>BOND
  1   1   2  1   
  2   2   3  ar  
  3   2   4  ar  
  4   3   5  ar  
  5   3   6  1   
  6   4   7  ar  
  7   4  16  1   
  8   5   8  ar  
  9   5  17  1   
 10   6   9  1   
 11   6  10  1   
 12   6  11  1   
 13   7   8  ar  
 14   7  18  1   
 15   8  19  1   
 16   9  12  1   
 17   9  20  1   
 18   9  21  1   
 19  10  13  1   
 20  10  22  1   
 21  10  23  1   
 22  11  14  1   
 23  11  24  1   
 24  11  25  1   
 25  12  15  1   
 26  12  26  1   
 27  12  27  1   
 28  13  15  1   
 29  13  28  1   
 30  13  29  1   
 31  14  30  1   
 32  14  31  1   
 33  14  32  1   
@<TRIPOS>SUBSTRUCTURE
  1 ****   6 GROUP 4 **** **** 0

# MOE 2024.06 (io_trps.svl 2023.06)
