@<TRIPOS>MOLECULE
N-(4-Ethyl-phenyl)-N-[2-(4-ethyl-piperazin-1-yl)-2-oxo-ethyl]-methanesulfonamide
52 53 1 0 0 
SMALL
USER_CHARGES


@<TRIPOS>ATOM
  1 S        1.4980     1.4940     1.1210 S.o2  1 <1>   1.3330 
  2 O        2.2810     1.8660     2.2760 O.2   1 <1>  -0.6500 
  3 O        2.2070     1.2520    -0.1140 O.2   1 <1>  -0.6500 
  4 N        0.3850     2.7870     0.8650 N.am  1 <1>  -0.6930 
  5 C        0.4480     0.1180     1.5400 C.3   1 <1>  -0.1350 
  6 C       -0.7610     2.5870     0.1070 C.ar  1 <1>   0.1990 
  7 C        0.9570     4.1700     0.8720 C.3   1 <1>   0.2570 
  8 C       -0.6930     2.2970    -1.2500 C.ar  1 <1>  -0.1500 
  9 C       -2.0080     2.6590     0.7120 C.ar  1 <1>  -0.1500 
 10 C        1.9220     4.4450    -0.2940 C.2   1 <1>   0.5690 
 11 C       -1.8450     2.0730    -1.9810 C.ar  1 <1>  -0.1500 
 12 C       -3.1620     2.4350    -0.0170 C.ar  1 <1>  -0.1500 
 13 O        1.4220     4.7760    -1.3440 O.2   1 <1>  -0.5700 
 14 N        3.2930     4.3130    -0.1980 N.am  1 <1>  -0.6600 
 15 C       -3.0870     2.1360    -1.3690 C.ar  1 <1>  -0.1430 
 16 C        4.0910     4.0620     1.0450 C.3   1 <1>   0.1400 
 17 C        4.1130     4.2140    -1.4440 C.3   1 <1>   0.1400 
 18 C       -4.3540     1.8890    -2.1730 C.3   1 <1>  -0.0170 
 19 C        4.8710     2.7290     0.9620 C.3   1 <1>   0.3430 
 20 C        4.7870     2.8340    -1.5130 C.3   1 <1>   0.3430 
 21 C       -4.8880     3.2020    -2.7500 C.3   1 <1>  -0.2400 
 22 N        5.6630     2.5770    -0.3110 N.4   1 <1>  -0.9590 
 23 C        6.2620     1.2200    -0.3610 C.3   1 <1>   0.3430 
 24 C        7.3530     1.1750    -1.4240 C.3   1 <1>  -0.2400 
 25 H        1.0410    -0.7450     1.7690 H     1 <1>   0.0800 
 26 H       -0.2010    -0.1200     0.7190 H     1 <1>   0.0800 
 27 H       -0.1540     0.3580     2.3940 H     1 <1>   0.0800 
 28 H        1.4320     4.3560     1.8150 H     1 <1>   0.0800 
 29 H        0.1460     4.8720     0.7880 H     1 <1>   0.0800 
 30 H        0.2640     2.2560    -1.7380 H     1 <1>   0.1500 
 31 H       -2.0720     2.8920     1.7590 H     1 <1>   0.1500 
 32 H       -1.7730     1.8540    -3.0320 H     1 <1>   0.1500 
 33 H       -4.1210     2.4960     0.4680 H     1 <1>   0.1500 
 34 H        3.4630     4.0470     1.9160 H     1 <1>   0.0800 
 35 H        4.7890     4.8700     1.1770 H     1 <1>   0.0800 
 36 H        4.8540     4.9940    -1.4530 H     1 <1>   0.0800 
 37 H        3.5010     4.3390    -2.3210 H     1 <1>   0.0800 
 38 H       -5.1020     1.4410    -1.5430 H     1 <1>   0.0800 
 39 H       -4.1470     1.2010    -2.9730 H     1 <1>   0.0800 
 40 H        4.1680     1.9190     1.0300 H     1 <1>   0.0800 
 41 H        5.5260     2.6550     1.8130 H     1 <1>   0.0800 
 42 H        5.3710     2.7760    -2.4150 H     1 <1>   0.0800 
 43 H        4.0140     2.0830    -1.5670 H     1 <1>   0.0800 
 44 H       -5.1120     3.8920    -1.9570 H     1 <1>   0.0800 
 45 H       -5.7830     3.0210    -3.3180 H     1 <1>   0.0800 
 46 H       -4.1520     3.6480    -3.3960 H     1 <1>   0.0800 
 47 H        6.4200     3.2710    -0.3060 H     1 <1>   0.4500 
 48 H        5.4990     0.4860    -0.5750 H     1 <1>   0.0800 
 49 H        6.6990     0.9800     0.5960 H     1 <1>   0.0800 
 50 H        6.9490     1.3130    -2.4110 H     1 <1>   0.0800 
 51 H        7.8250     0.2090    -1.4000 H     1 <1>   0.0800 
 52 H        8.1080     1.9170    -1.2320 H     1 <1>   0.0800 
@<TRIPOS>BOND
  1   1   2  2   
  2   1   3  2   
  3   1   4  am  
  4   1   5  1   
  5   4   6  1   
  6   4   7  1   
  7   5  25  1   
  8   5  26  1   
  9   5  27  1   
 10   6   8  ar  
 11   6   9  ar  
 12   7  10  1   
 13   7  28  1   
 14   7  29  1   
 15   8  11  ar  
 16   8  30  1   
 17   9  12  ar  
 18   9  31  1   
 19  10  13  2   
 20  10  14  am  
 21  11  15  ar  
 22  11  32  1   
 23  12  15  ar  
 24  12  33  1   
 25  14  16  1   
 26  14  17  1   
 27  15  18  1   
 28  16  19  1   
 29  16  34  1   
 30  16  35  1   
 31  17  20  1   
 32  17  36  1   
 33  17  37  1   
 34  18  21  1   
 35  18  38  1   
 36  18  39  1   
 37  19  22  1   
 38  19  40  1   
 39  19  41  1   
 40  20  22  1   
 41  20  42  1   
 42  20  43  1   
 43  21  44  1   
 44  21  45  1   
 45  21  46  1   
 46  22  23  1   
 47  22  47  1   
 48  23  24  1   
 49  23  48  1   
 50  23  49  1   
 51  24  50  1   
 52  24  51  1   
 53  24  52  1   
@<TRIPOS>SUBSTRUCTURE
  1 ****   4 GROUP 4 **** **** 0

# MOE 2024.06 (io_trps.svl 2023.06)
