@<TRIPOS>MOLECULE
1-(4-Methoxy-3-methyl-benzenesulfonyl)-piperidine-4-carboxylic acid (2,6-difluor
51 53 1 0 0 
SMALL
USER_CHARGES


@<TRIPOS>ATOM
  1 S       -0.2050     0.0990    -2.4150 S.o2  1 <1>   1.4470 
  2 O        0.4840    -0.9380    -3.1550 O.2   1 <1>  -0.6500 
  3 O       -0.9290     1.1190    -3.1410 O.2   1 <1>  -0.6500 
  4 N        0.9770     0.8850    -1.4840 N.am  1 <1>  -0.8490 
  5 C       -1.2960    -0.6420    -1.1690 C.ar  1 <1>  -0.0090 
  6 C        1.7250     1.8600    -2.2800 C.3   1 <1>   0.1960 
  7 C        1.8680    -0.0660    -0.8120 C.3   1 <1>   0.1960 
  8 C       -1.6950     0.0780    -0.0500 C.ar  1 <1>  -0.1500 
  9 C       -1.7640    -1.9430    -1.3050 C.ar  1 <1>  -0.1500 
 10 C        2.6700     2.6630    -1.3820 C.3   1 <1>  -0.1600 
 11 C        2.8050     0.6760     0.1430 C.3   1 <1>  -0.1600 
 12 C       -2.5230    -0.4730     0.9150 C.ar  1 <1>  -0.1430 
 13 C       -2.5930    -2.5100    -0.3540 C.ar  1 <1>  -0.1500 
 14 C        3.6240     1.7440    -0.6010 C.3   1 <1>  -0.0190 
 15 C       -2.9780    -1.7790     0.7660 C.ar  1 <1>   0.0820 
 16 C       -2.9260     0.3560     2.1260 C.3   1 <1>  -0.0970 
 17 C        4.5100     2.5420     0.3540 C.2   1 <1>   0.5690 
 18 O       -3.7880    -2.2820     1.7340 O.3   1 <1>  -0.3630 
 19 O        4.0030     3.1530     1.2620 O.2   1 <1>  -0.5700 
 20 N        5.8610     2.5130     0.1570 N.am  1 <1>  -0.5470 
 21 C       -4.3240    -3.5830     1.6540 C.3   1 <1>   0.0400 
 22 C        6.8430     3.2060     0.9000 C.ar  1 <1>   0.1170 
 23 C        6.8400     4.5890     1.0900 C.ar  1 <1>   0.1900 
 24 C        7.9060     2.5270     1.4920 C.ar  1 <1>   0.1900 
 25 F        5.9160     5.3190     0.5180 F     1 <1>  -0.1900 
 26 C        7.7990     5.2500     1.8400 C.ar  1 <1>  -0.1500 
 27 F        7.9970     1.2300     1.3290 F     1 <1>  -0.1900 
 28 C        8.8850     3.1530     2.2450 C.ar  1 <1>  -0.1500 
 29 C        8.8270     4.5270     2.4250 C.ar  1 <1>  -0.1500 
 30 H        1.0400     2.5460    -2.7530 H     1 <1>   0.0800 
 31 H        2.2800     1.3530    -3.0530 H     1 <1>   0.0800 
 32 H        2.4430    -0.6120    -1.5420 H     1 <1>   0.0800 
 33 H        1.2850    -0.7730    -0.2450 H     1 <1>   0.0800 
 34 H       -1.3440     1.0900     0.0620 H     1 <1>   0.1500 
 35 H       -1.4740    -2.5190    -2.1670 H     1 <1>   0.1500 
 36 H        2.0790     3.2440    -0.6940 H     1 <1>   0.0800 
 37 H        3.2370     3.3510    -1.9840 H     1 <1>   0.0800 
 38 H        3.4670    -0.0290     0.6140 H     1 <1>   0.0800 
 39 H        2.2160     1.1390     0.9160 H     1 <1>   0.0800 
 40 H       -2.9280    -3.5190    -0.5030 H     1 <1>   0.1500 
 41 H        4.2550     1.2430    -1.3130 H     1 <1>   0.0800 
 42 H       -2.4730     1.3300     2.1020 H     1 <1>   0.0800 
 43 H       -2.6190    -0.1430     3.0280 H     1 <1>   0.0800 
 44 H       -3.9950     0.4740     2.1450 H     1 <1>   0.0800 
 45 H        6.2160     1.7990    -0.4780 H     1 <1>   0.3700 
 46 H       -4.9360    -3.7450     2.5220 H     1 <1>   0.0800 
 47 H       -3.5160    -4.2930     1.6390 H     1 <1>   0.0800 
 48 H       -4.9230    -3.6600     0.7640 H     1 <1>   0.0800 
 49 H        7.7390     6.3180     1.9590 H     1 <1>   0.1500 
 50 H        9.6780     2.5730     2.6840 H     1 <1>   0.1500 
 51 H        9.5780     5.0300     3.0120 H     1 <1>   0.1500 
@<TRIPOS>BOND
  1   1   2  2   
  2   1   3  2   
  3   1   4  am  
  4   1   5  1   
  5   4   6  1   
  6   4   7  1   
  7   5   8  ar  
  8   5   9  ar  
  9   6  10  1   
 10   6  30  1   
 11   6  31  1   
 12   7  11  1   
 13   7  32  1   
 14   7  33  1   
 15   8  12  ar  
 16   8  34  1   
 17   9  13  ar  
 18   9  35  1   
 19  10  14  1   
 20  10  36  1   
 21  10  37  1   
 22  11  14  1   
 23  11  38  1   
 24  11  39  1   
 25  12  15  ar  
 26  12  16  1   
 27  13  15  ar  
 28  13  40  1   
 29  14  17  1   
 30  14  41  1   
 31  15  18  1   
 32  16  42  1   
 33  16  43  1   
 34  16  44  1   
 35  17  19  2   
 36  17  20  am  
 37  18  21  1   
 38  20  22  1   
 39  20  45  1   
 40  21  46  1   
 41  21  47  1   
 42  21  48  1   
 43  22  23  ar  
 44  22  24  ar  
 45  23  25  1   
 46  23  26  ar  
 47  24  27  1   
 48  24  28  ar  
 49  26  29  ar  
 50  26  49  1   
 51  28  29  ar  
 52  28  50  1   
 53  29  51  1   
@<TRIPOS>SUBSTRUCTURE
  1 ****  11 GROUP 4 **** **** 0

# MOE 2024.06 (io_trps.svl 2023.06)
