@<TRIPOS>MOLECULE
1-Cyclopropyl-4-hydroxy-2-oxo-1,2,5,6,7,8-hexahydro-quinoline-3-carboxylic acid
47 51 1 0 0 
SMALL
USER_CHARGES


@<TRIPOS>ATOM
  1 O        0.2870     0.9180    -0.3860 O.3   1 <1>  -0.8530 
  2 C       -0.8830     1.3040    -0.5000 C.2   1 <1>  -0.0590 
  3 N       -1.9090     0.4500    -0.1050 N.pl3 1 <1>  -0.3750 
  4 C       -1.1950     2.5990    -0.9960 C.2   1 <1>   0.0200 
  5 C       -3.1930     0.9610     0.1150 C.2   1 <1>  -0.0470 
  6 C       -1.5920    -0.9900     0.1510 C.3   1 <1>   0.0610 
  7 C       -2.5310     3.0300    -0.9600 C.2   1 <1>   0.5360 
  8 C       -0.1750     3.4290    -1.5080 C.2   1 <1>   0.8960 
  9 C       -3.5040     2.2230    -0.2860 C.2   1 <1>  -0.1320 
 10 C       -4.2110     0.0830     0.8550 C.3   1 <1>  -0.0310 
 11 C       -0.7930    -1.7810    -0.8460 C.3   1 <1>  -0.2080 
 12 C       -2.2490    -2.0460    -0.6940 C.3   1 <1>  -0.2080 
 13 O       -2.8920     4.0790    -1.5110 O.2   1 <1>  -0.5750 
 14 O       -0.1710     4.6540    -1.5740 O.2   1 <1>  -0.5750 
 15 N        0.9920     2.8530    -1.8970 N.pl3 1 <1>  -0.7330 
 16 C       -4.8780     2.8510    -0.0410 C.3   1 <1>  -0.0310 
 17 C       -5.6450     0.6280     0.8180 C.3   1 <1>  -0.1680 
 18 C        2.0540     3.1220    -1.1920 C.cat 1 <1>   1.0690 
 19 C       -5.6630     2.1350     1.0620 C.3   1 <1>  -0.1680 
 20 N        2.7870     4.2180    -1.2630 N.pl3 1 <1>  -0.7040 
 21 N        2.5210     2.3150    -0.2680 N.pl3 1 <1>  -0.7040 
 22 C        3.7830     4.1280    -0.3060 C.ar  1 <1>   0.3020 
 23 C        3.6070     2.9110     0.3320 C.ar  1 <1>   0.3020 
 24 C        4.8060     4.9880     0.0720 C.ar  1 <1>  -0.1170 
 25 C        4.4440     2.5200     1.3690 C.ar  1 <1>  -0.1170 
 26 C        5.6440     4.6000     1.1010 C.ar  1 <1>  -0.1580 
 27 C        5.4640     3.3730     1.7470 C.ar  1 <1>  -0.1580 
 28 H       -1.4000    -1.1780     1.1920 H     1 <1>   0.0920 
 29 H       -3.8910    -0.0020     1.8780 H     1 <1>   0.0720 
 30 H       -4.2460    -0.9030     0.4400 H     1 <1>   0.0720 
 31 H       -0.0870    -2.4970    -0.4680 H     1 <1>   0.0920 
 32 H       -0.4360    -1.2650    -1.7190 H     1 <1>   0.0920 
 33 H       -2.9070    -1.7340    -1.4850 H     1 <1>   0.0920 
 34 H       -2.5540    -2.9650    -0.2280 H     1 <1>   0.0920 
 35 H        0.7790     1.8480    -1.7420 H     1 <1>   0.4440 
 36 H       -5.4350     2.8230    -0.9610 H     1 <1>   0.0720 
 37 H       -4.7640     3.8830     0.2420 H     1 <1>   0.0720 
 38 H       -6.2390     0.1270     1.5610 H     1 <1>   0.0720 
 39 H       -6.0740     0.4220    -0.1470 H     1 <1>   0.0720 
 40 H       -6.6760     2.4960     1.0770 H     1 <1>   0.0720 
 41 H       -5.2140     2.3490     2.0160 H     1 <1>   0.0720 
 42 H        2.5270     5.0070    -1.8530 H     1 <1>   0.4440 
 43 H        1.9250     1.4990     0.0080 H     1 <1>   0.4440 
 44 H        4.9360     5.9320    -0.4280 H     1 <1>   0.1420 
 45 H        4.2890     1.5730     1.8570 H     1 <1>   0.1420 
 46 H        6.4480     5.2460     1.4160 H     1 <1>   0.1420 
 47 H        6.1300     3.0960     2.5480 H     1 <1>   0.1420 
@<TRIPOS>BOND
  1   1   2  1   
  2   2   3  1   
  3   2   4  2   
  4   3   5  1   
  5   3   6  1   
  6   4   7  1   
  7   4   8  1   
  8   5   9  2   
  9   5  10  1   
 10   6  11  1   
 11   6  12  1   
 12   6  28  1   
 13   7   9  1   
 14   7  13  2   
 15   8  14  2   
 16   8  15  1   
 17   9  16  1   
 18  10  17  1   
 19  10  29  1   
 20  10  30  1   
 21  11  12  1   
 22  11  31  1   
 23  11  32  1   
 24  12  33  1   
 25  12  34  1   
 26  15  18  ar  
 27  15  35  1   
 28  16  19  1   
 29  16  36  1   
 30  16  37  1   
 31  17  19  1   
 32  17  38  1   
 33  17  39  1   
 34  18  20  ar  
 35  18  21  ar  
 36  19  40  1   
 37  19  41  1   
 38  20  22  1   
 39  20  42  1   
 40  21  23  1   
 41  21  43  1   
 42  22  23  ar  
 43  22  24  ar  
 44  23  25  ar  
 45  24  26  ar  
 46  24  44  1   
 47  25  27  ar  
 48  25  45  1   
 49  26  27  ar  
 50  26  46  1   
 51  27  47  1   
@<TRIPOS>SUBSTRUCTURE
  1 ****   2 GROUP 4 **** **** 0

# MOE 2024.06 (io_trps.svl 2023.06)
