@<TRIPOS>MOLECULE
2-(3-Methyl-benzylamino)-5-propyl-4H-[1,2,4]triazolo[1,5-a]pyrimidin-7-one
41 43 1 0 0 
SMALL
USER_CHARGES


@<TRIPOS>ATOM
  1 O        0.0150    -0.3120    -1.1110 O.2   1 <1>  -0.5700 
  2 C       -0.2540    -1.3730    -0.5640 C.2   1 <1>   0.5650 
  3 N       -1.5370    -1.6610    -0.0470 N.pl3 1 <1>   0.5610 
  4 C        0.7390    -2.3900    -0.4280 C.2   1 <1>  -0.1360 
  5 N       -2.6950    -0.9560    -0.0020 N.2   1 <1>  -0.7070 
  6 C       -1.7820    -2.8620     0.5320 C.2   1 <1>   0.2700 
  7 C        0.4780    -3.5910     0.1610 C.2   1 <1>  -0.0380 
  8 C       -3.4820    -1.7800     0.5940 C.2   1 <1>   0.5990 
  9 N       -2.9910    -2.9730     0.9380 N.2   1 <1>  -0.5650 
 10 N       -0.7920    -3.8260     0.6400 N.pl3 1 <1>  -0.5840 
 11 C        1.4720    -4.7320     0.3500 C.3   1 <1>  -0.0220 
 12 N       -4.7830    -1.5030     0.8910 N.pl3 1 <1>  -0.8520 
 13 C        2.8810    -4.4480    -0.1920 C.3   1 <1>  -0.1600 
 14 C       -5.5520    -0.8000    -0.1500 C.3   1 <1>   0.3530 
 15 C        3.8170    -5.6390     0.0360 C.3   1 <1>  -0.2400 
 16 C       -6.8850    -1.5100    -0.3020 C.ar  1 <1>  -0.1430 
 17 C       -7.8980    -1.2920     0.6200 C.ar  1 <1>  -0.1500 
 18 C       -7.1000    -2.3870    -1.3540 C.ar  1 <1>  -0.1500 
 19 C       -9.1190    -1.9330     0.4940 C.ar  1 <1>  -0.1430 
 20 C       -8.3180    -3.0320    -1.4840 C.ar  1 <1>  -0.1500 
 21 C       -9.3240    -2.8050    -0.5630 C.ar  1 <1>  -0.1500 
 22 C      -10.2200    -1.6870     1.5100 C.3   1 <1>  -0.0970 
 23 H        1.7030    -2.1360    -0.8240 H     1 <1>   0.1500 
 24 H       -1.0600    -4.7050     1.0990 H     1 <1>   0.4000 
 25 H        1.0830    -5.6080    -0.1400 H     1 <1>   0.0800 
 26 H        1.5440    -4.9500     1.4020 H     1 <1>   0.0800 
 27 H       -5.2510    -2.3830     1.1110 H     1 <1>   0.4000 
 28 H        3.2900    -3.5830     0.3020 H     1 <1>   0.0800 
 29 H        2.8270    -4.2430    -1.2480 H     1 <1>   0.0800 
 30 H       -5.0250    -0.8010    -1.0890 H     1 <1>   0.0800 
 31 H       -5.7050     0.2210     0.1520 H     1 <1>   0.0800 
 32 H        3.9090    -5.8530     1.0860 H     1 <1>   0.0800 
 33 H        4.7960    -5.4150    -0.3520 H     1 <1>   0.0800 
 34 H        3.4450    -6.5150    -0.4660 H     1 <1>   0.0800 
 35 H       -7.7280    -0.6190     1.4430 H     1 <1>   0.1500 
 36 H       -6.3220    -2.5730    -2.0740 H     1 <1>   0.1500 
 37 H       -8.4820    -3.7110    -2.3020 H     1 <1>   0.1500 
 38 H      -10.2670    -3.3110    -0.6710 H     1 <1>   0.1500 
 39 H      -10.1570    -0.6860     1.8970 H     1 <1>   0.0800 
 40 H      -10.1230    -2.3810     2.3250 H     1 <1>   0.0800 
 41 H      -11.1860    -1.8150     1.0570 H     1 <1>   0.0800 
@<TRIPOS>BOND
  1   1   2  2   
  2   2   3  1   
  3   2   4  1   
  4   3   5  1   
  5   3   6  1   
  6   4   7  2   
  7   4  23  1   
  8   5   8  2   
  9   6   9  2   
 10   6  10  1   
 11   7  10  1   
 12   7  11  1   
 13   8   9  1   
 14   8  12  1   
 15  10  24  1   
 16  11  13  1   
 17  11  25  1   
 18  11  26  1   
 19  12  14  1   
 20  12  27  1   
 21  13  15  1   
 22  13  28  1   
 23  13  29  1   
 24  14  16  1   
 25  14  30  1   
 26  14  31  1   
 27  15  32  1   
 28  15  33  1   
 29  15  34  1   
 30  16  17  ar  
 31  16  18  ar  
 32  17  19  ar  
 33  17  35  1   
 34  18  20  ar  
 35  18  36  1   
 36  19  21  ar  
 37  19  22  1   
 38  20  21  ar  
 39  20  37  1   
 40  21  38  1   
 41  22  39  1   
 42  22  40  1   
 43  22  41  1   
@<TRIPOS>SUBSTRUCTURE
  1 ****   8 GROUP 4 **** **** 0

# MOE 2024.06 (io_trps.svl 2023.06)
