@<TRIPOS>MOLECULE
Cyclohexanecarboxylic acid [3-(2-chloro-phenyl)-[1,2,4]oxadiazol-5-ylmethyl]-ami
40 42 1 0 0 
SMALL
USER_CHARGES


@<TRIPOS>ATOM
  1 CL      -0.8480    -0.9490     0.5890 Cl    1 <1>  -0.1770 
  2 C        0.2820    -2.2740     0.7540 C.ar  1 <1>   0.1770 
  3 C        1.6570    -2.0500     0.6760 C.ar  1 <1>   0.0540 
  4 C       -0.2430    -3.5320     0.9830 C.ar  1 <1>  -0.1500 
  5 C        2.2190    -0.7440     0.4240 C.2   1 <1>   0.4620 
  6 C        2.4910    -3.1530     0.8590 C.ar  1 <1>  -0.1500 
  7 C        0.6070    -4.6110     1.1500 C.ar  1 <1>  -0.1500 
  8 N        3.0800    -0.1510     1.1710 N.2   1 <1>  -0.4100 
  9 N        1.9130    -0.0220    -0.6560 N.2   1 <1>  -0.5650 
 10 C        1.9760    -4.4170     1.0900 C.ar  1 <1>  -0.1500 
 11 O        3.3640     0.9860     0.6190 O.3   1 <1>  -0.0190 
 12 C        2.6360     1.0050    -0.4670 C.2   1 <1>   0.2980 
 13 C        2.7130     2.2230    -1.3750 C.3   1 <1>   0.3200 
 14 N        4.0410     2.3370    -2.0330 N.am  1 <1>  -0.7300 
 15 C        5.1250     3.0600    -1.6670 C.2   1 <1>   0.5690 
 16 O        6.1030     3.0200    -2.3690 O.2   1 <1>  -0.5700 
 17 C        5.1250     3.9260    -0.4010 C.3   1 <1>  -0.0190 
 18 C        4.6580     5.3600    -0.7160 C.3   1 <1>  -0.1600 
 19 C        6.5030     3.9540     0.2920 C.3   1 <1>  -0.1600 
 20 C        4.6340     6.2370     0.5440 C.3   1 <1>  -0.1600 
 21 C        6.4800     4.8250     1.5560 C.3   1 <1>  -0.1600 
 22 C        6.0030     6.2470     1.2370 C.3   1 <1>  -0.1600 
 23 H       -1.3100    -3.6630     1.0320 H     1 <1>   0.1500 
 24 H        3.5580    -3.0140     0.8160 H     1 <1>   0.1500 
 25 H        0.2060    -5.5950     1.3290 H     1 <1>   0.1500 
 26 H        2.6420    -5.2530     1.2250 H     1 <1>   0.1500 
 27 H        2.5030     3.1070    -0.8000 H     1 <1>   0.0800 
 28 H        1.9560     2.1380    -2.1350 H     1 <1>   0.0800 
 29 H        4.1810     1.7380    -2.8500 H     1 <1>   0.3700 
 30 H        4.4390     3.4960     0.3030 H     1 <1>   0.0800 
 31 H        3.6750     5.3370    -1.1540 H     1 <1>   0.0800 
 32 H        5.3270     5.7950    -1.4390 H     1 <1>   0.0800 
 33 H        7.2400     4.3420    -0.3910 H     1 <1>   0.0800 
 34 H        6.7950     2.9500     0.5510 H     1 <1>   0.0800 
 35 H        3.8920     5.8620     1.2290 H     1 <1>   0.0800 
 36 H        4.3600     7.2430     0.2780 H     1 <1>   0.0800 
 37 H        7.4670     4.8630     1.9840 H     1 <1>   0.0800 
 38 H        5.8230     4.3810     2.2850 H     1 <1>   0.0800 
 39 H        5.9430     6.8200     2.1470 H     1 <1>   0.0800 
 40 H        6.7230     6.7260     0.5940 H     1 <1>   0.0800 
@<TRIPOS>BOND
  1   1   2  1   
  2   2   3  ar  
  3   2   4  ar  
  4   3   5  1   
  5   3   6  ar  
  6   4   7  ar  
  7   4  23  1   
  8   5   8  2   
  9   5   9  1   
 10   6  10  ar  
 11   6  24  1   
 12   7  10  ar  
 13   7  25  1   
 14   8  11  1   
 15   9  12  2   
 16  10  26  1   
 17  11  12  1   
 18  12  13  1   
 19  13  14  1   
 20  13  27  1   
 21  13  28  1   
 22  14  15  am  
 23  14  29  1   
 24  15  16  2   
 25  15  17  1   
 26  17  18  1   
 27  17  19  1   
 28  17  30  1   
 29  18  20  1   
 30  18  31  1   
 31  18  32  1   
 32  19  21  1   
 33  19  33  1   
 34  19  34  1   
 35  20  22  1   
 36  20  35  1   
 37  20  36  1   
 38  21  22  1   
 39  21  37  1   
 40  21  38  1   
 41  22  39  1   
 42  22  40  1   
@<TRIPOS>SUBSTRUCTURE
  1 ****  11 GROUP 4 **** **** 0

# MOE 2024.06 (io_trps.svl 2023.06)
