@<TRIPOS>MOLECULE
NONAME
33 36 1 0 0 
SMALL
USER_CHARGES


@<TRIPOS>ATOM
  1 O        0.2620     0.5070     0.1470 O.2   1 <1>  -0.5700 
  2 C       -0.3330     1.5520     0.0280 C.2   1 <1>   0.5690 
  3 N        0.1250     2.7410     0.5040 N.am  1 <1>  -0.6600 
  4 C       -1.6370     1.6990    -0.7310 C.3   1 <1>  -0.0190 
  5 C       -0.8160     3.8300     0.2130 C.3   1 <1>   0.5000 
  6 C        1.5140     3.0730     0.8510 C.3   1 <1>   0.1400 
  7 C       -2.0770     3.0860    -0.2680 C.3   1 <1>   0.4180 
  8 C       -2.8700     0.8420    -0.3270 C.3   1 <1>  -0.1860 
  9 O       -0.2290     4.6210    -0.7830 O.3   1 <1>  -0.5600 
 10 C        2.0200     4.0950    -0.1690 C.3   1 <1>  -0.1600 
 11 O       -2.8880     2.7400     0.8150 O.3   1 <1>  -0.5600 
 12 C       -3.1480     3.6250    -1.1880 C.2   1 <1>  -0.2880 
 13 C       -3.5460     0.0740    -1.4350 C.2   1 <1>   0.9060 
 14 C       -3.8120     1.9280     0.1890 C.3   1 <1>   0.4180 
 15 C        0.9840     5.2010    -0.4130 C.3   1 <1>   0.1200 
 16 C       -4.2200     2.8900    -0.9150 C.2   1 <1>  -0.2880 
 17 O       -3.1490     0.1790    -2.6000 O.co2 1 <1>  -0.9000 
 18 O       -4.4990    -0.6530    -1.1340 O.co2 1 <1>  -0.9000 
 19 C       -4.9030     1.5440     1.1790 C.3   1 <1>  -0.2400 
 20 H       -1.4330     1.7040    -1.7850 H     1 <1>   0.0800 
 21 H       -1.0260     4.4350     1.0770 H     1 <1>   0.0800 
 22 H        2.1220     2.1840     0.8320 H     1 <1>   0.0800 
 23 H        1.5360     3.4880     1.8440 H     1 <1>   0.0800 
 24 H       -2.6220     0.1560     0.4590 H     1 <1>   0.0800 
 25 H        2.2210     3.5940    -1.1000 H     1 <1>   0.0800 
 26 H        2.9430     4.5240     0.1760 H     1 <1>   0.0800 
 27 H       -2.9420     4.4070    -1.8940 H     1 <1>   0.1500 
 28 H        0.8280     5.7950     0.4720 H     1 <1>   0.0800 
 29 H        1.3000     5.8430    -1.2170 H     1 <1>   0.0800 
 30 H       -5.2110     2.8560    -1.3320 H     1 <1>   0.1500 
 31 H       -4.4790     0.9860     1.9920 H     1 <1>   0.0800 
 32 H       -5.6290     0.9270     0.6820 H     1 <1>   0.0800 
 33 H       -5.3890     2.4260     1.5510 H     1 <1>   0.0800 
@<TRIPOS>BOND
  1   1   2  2   
  2   2   3  am  
  3   2   4  1   
  4   3   5  1   
  5   3   6  1   
  6   4   7  1   
  7   4   8  1   
  8   4  20  1   
  9   5   7  1   
 10   5   9  1   
 11   5  21  1   
 12   6  10  1   
 13   6  22  1   
 14   6  23  1   
 15   7  11  1   
 16   7  12  1   
 17   8  13  1   
 18   8  14  1   
 19   8  24  1   
 20   9  15  1   
 21  10  15  1   
 22  10  25  1   
 23  10  26  1   
 24  11  14  1   
 25  12  16  2   
 26  12  27  1   
 27  13  17  ar  
 28  13  18  ar  
 29  14  16  1   
 30  14  19  1   
 31  15  28  1   
 32  15  29  1   
 33  16  30  1   
 34  19  31  1   
 35  19  32  1   
 36  19  33  1   
@<TRIPOS>SUBSTRUCTURE
  1 ****   4 GROUP 4 **** **** 0

# MOE 2024.06 (io_trps.svl 2023.06)
