@<TRIPOS>MOLECULE
5-Cyclopropyl-2-methyl-2H-pyrazole-3-carboxylic acid
21 22 1 0 0 
SMALL
USER_CHARGES


@<TRIPOS>ATOM
  1 O        0.2670     0.3810    -0.8170 O.co2 1 <1>  -0.9000 
  2 C        0.5280     1.5970    -0.7870 C.2   1 <1>   1.0320 
  3 O       -0.3680     2.4110    -1.0600 O.co2 1 <1>  -0.9000 
  4 C        1.8420     2.0680    -0.4430 C.2   1 <1>  -0.3840 
  5 N        2.8990     1.2820    -0.1300 N.pl3 1 <1>   0.3140 
  6 C        2.3060     3.3430    -0.3550 C.2   1 <1>  -0.1500 
  7 N        4.0050     2.0020     0.1510 N.2   1 <1>  -0.7070 
  8 C        2.9380    -0.1860    -0.0750 C.3   1 <1>   0.0160 
  9 C        3.6350     3.2380     0.0090 C.2   1 <1>   0.2030 
 10 C        4.5760     4.4070     0.2320 C.3   1 <1>  -0.0140 
 11 C        4.5220     5.6240    -0.6440 C.3   1 <1>  -0.2000 
 12 C        5.6740     4.6730    -0.7530 C.3   1 <1>  -0.2000 
 13 H        1.7450     4.2420    -0.5340 H     1 <1>   0.1500 
 14 H        2.2220    -0.5260     0.6490 H     1 <1>   0.0800 
 15 H        3.9230    -0.5080     0.2020 H     1 <1>   0.0800 
 16 H        2.6810    -0.5770    -1.0410 H     1 <1>   0.0800 
 17 H        4.8070     4.5400     1.2730 H     1 <1>   0.1000 
 18 H        4.6770     6.5860    -0.1910 H     1 <1>   0.1000 
 19 H        3.8020     5.6510    -1.4430 H     1 <1>   0.1000 
 20 H        5.7410     4.0170    -1.6040 H     1 <1>   0.1000 
 21 H        6.6370     4.9580    -0.3710 H     1 <1>   0.1000 
@<TRIPOS>BOND
  1   1   2  ar  
  2   2   3  ar  
  3   2   4  1   
  4   4   5  1   
  5   4   6  2   
  6   5   7  1   
  7   5   8  1   
  8   6   9  1   
  9   6  13  1   
 10   7   9  2   
 11   8  14  1   
 12   8  15  1   
 13   8  16  1   
 14   9  10  1   
 15  10  11  1   
 16  10  12  1   
 17  10  17  1   
 18  11  12  1   
 19  11  18  1   
 20  11  19  1   
 21  12  20  1   
 22  12  21  1   
@<TRIPOS>SUBSTRUCTURE
  1 ****   6 GROUP 4 **** **** 0

# MOE 2024.06 (io_trps.svl 2023.06)
