@<TRIPOS>MOLECULE
8-(3,5-Dimethyl-piperidin-1-ylmethyl)-7-(2-methoxy-ethyl)-1,3-dimethyl-3,7-dihyd
56 58 1 0 0 
SMALL
USER_CHARGES


@<TRIPOS>ATOM
  1 O        0.1400     0.1790     0.9270 O.2   1 <1>  -0.5700 
  2 C        1.1380     0.7750     0.5790 C.2   1 <1>   0.6900 
  3 N        1.0320     1.8650    -0.2790 N.am  1 <1>  -0.4200 
  4 N        2.3830     0.3640     1.0320 N.am  1 <1>  -0.4360 
  5 C        2.1610     2.5230    -0.7500 C.2   1 <1>   0.7030 
  6 C       -0.3300     2.3020    -0.7230 C.3   1 <1>   0.0600 
  7 C        3.4990     1.0230     0.5540 C.2   1 <1>   0.4260 
  8 C        2.5200    -0.7810     1.9800 C.3   1 <1>   0.0600 
  9 O        2.0560     3.4720    -1.5090 O.2   1 <1>  -0.5700 
 10 C        3.4480     2.0610    -0.3150 C.2   1 <1>   0.2770 
 11 N        4.8000     0.7780     0.8420 N.pl3 1 <1>  -0.7000 
 12 N        4.7710     2.4370    -0.5670 N.pl3 1 <1>  -0.7640 
 13 C        5.5480     1.6460     0.1700 C.cat 1 <1>   0.6560 
 14 C        5.1870     3.5640    -1.4580 C.3   1 <1>   0.3540 
 15 C        7.0810     1.6480     0.2930 C.3   1 <1>   0.2540 
 16 C        5.4550     4.8450    -0.6550 C.3   1 <1>   0.1200 
 17 N        7.6210     0.2930     0.5960 N.3   1 <1>  -0.8100 
 18 O        6.4320     4.5960     0.3140 O.3   1 <1>  -0.5600 
 19 C        7.5050    -0.6110    -0.5790 C.3   1 <1>   0.1100 
 20 C        8.9860     0.3610     1.1800 C.3   1 <1>   0.1100 
 21 C        6.7520     5.7110     1.0880 C.3   1 <1>   0.0400 
 22 C        8.4960    -1.7800    -0.4980 C.3   1 <1>  -0.0800 
 23 C       10.0780     0.1400     0.1220 C.3   1 <1>  -0.0800 
 24 C        9.9490    -1.2620    -0.5080 C.3   1 <1>  -0.1600 
 25 C        8.2700    -2.7810    -1.6380 C.3   1 <1>  -0.2400 
 26 C       11.4770     0.3380     0.7200 C.3   1 <1>  -0.2400 
 27 H       -0.6650     1.6730    -1.5290 H     1 <1>   0.0800 
 28 H       -0.3200     3.3250    -1.0570 H     1 <1>   0.0800 
 29 H       -1.0290     2.2230     0.0930 H     1 <1>   0.0800 
 30 H        1.5890    -0.9690     2.4890 H     1 <1>   0.0800 
 31 H        3.2670    -0.5620     2.7230 H     1 <1>   0.0800 
 32 H        2.8010    -1.6680     1.4400 H     1 <1>   0.0800 
 33 H        5.2200     0.0620     1.4410 H     1 <1>   0.4500 
 34 H        4.4240     3.7570    -2.1920 H     1 <1>   0.0800 
 35 H        6.0810     3.2950    -1.9930 H     1 <1>   0.0800 
 36 H        7.3290     2.3180     1.0960 H     1 <1>   0.0800 
 37 H        7.5270     2.0330    -0.6060 H     1 <1>   0.0800 
 38 H        4.5520     5.1720    -0.1680 H     1 <1>   0.0800 
 39 H        5.8090     5.6220    -1.3110 H     1 <1>   0.0800 
 40 H        7.7060    -0.0660    -1.4870 H     1 <1>   0.0800 
 41 H        6.5020    -0.9960    -0.6360 H     1 <1>   0.0800 
 42 H        9.0740    -0.4120     1.9260 H     1 <1>   0.0800 
 43 H        9.1400     1.3020     1.6800 H     1 <1>   0.0800 
 44 H        7.5050     5.4230     1.8020 H     1 <1>   0.0800 
 45 H        5.8730     6.0500     1.6090 H     1 <1>   0.0800 
 46 H        7.1380     6.4900     0.4530 H     1 <1>   0.0800 
 47 H        8.3160    -2.2950     0.4310 H     1 <1>   0.0800 
 48 H        9.9460     0.8810    -0.6480 H     1 <1>   0.0800 
 49 H       10.3250    -1.2130    -1.5150 H     1 <1>   0.0800 
 50 H       10.5570    -1.9710     0.0270 H     1 <1>   0.0800 
 51 H        8.4130    -2.3110    -2.5950 H     1 <1>   0.0800 
 52 H        7.2710    -3.1790    -1.5960 H     1 <1>   0.0800 
 53 H        8.9620    -3.6010    -1.5530 H     1 <1>   0.0800 
 54 H       11.6520    -0.3620     1.5180 H     1 <1>   0.0800 
 55 H       11.5800     1.3350     1.1100 H     1 <1>   0.0800 
 56 H       12.2280     0.1910    -0.0360 H     1 <1>   0.0800 
@<TRIPOS>BOND
  1   1   2  2   
  2   2   3  am  
  3   2   4  am  
  4   3   5  am  
  5   3   6  1   
  6   4   7  1   
  7   4   8  1   
  8   5   9  2   
  9   5  10  1   
 10   6  27  1   
 11   6  28  1   
 12   6  29  1   
 13   7  10  2   
 14   7  11  1   
 15   8  30  1   
 16   8  31  1   
 17   8  32  1   
 18  10  12  1   
 19  11  13  ar  
 20  11  33  1   
 21  12  13  ar  
 22  12  14  1   
 23  13  15  1   
 24  14  16  1   
 25  14  34  1   
 26  14  35  1   
 27  15  17  1   
 28  15  36  1   
 29  15  37  1   
 30  16  18  1   
 31  16  38  1   
 32  16  39  1   
 33  17  19  1   
 34  17  20  1   
 35  18  21  1   
 36  19  22  1   
 37  19  40  1   
 38  19  41  1   
 39  20  23  1   
 40  20  42  1   
 41  20  43  1   
 42  21  44  1   
 43  21  45  1   
 44  21  46  1   
 45  22  24  1   
 46  22  25  1   
 47  22  47  1   
 48  23  24  1   
 49  23  26  1   
 50  23  48  1   
 51  24  49  1   
 52  24  50  1   
 53  25  51  1   
 54  25  52  1   
 55  25  53  1   
 56  26  54  1   
 57  26  55  1   
 58  26  56  1   
@<TRIPOS>SUBSTRUCTURE
  1 ****  13 GROUP 4 **** **** 0

# MOE 2024.06 (io_trps.svl 2023.06)
