@<TRIPOS>MOLECULE
1-(3,4-Dihydro-1H-isoquinolin-2-yl)-2-(2,4-dimethyl-phenoxy)-ethanone
43 45 1 0 0 
SMALL
USER_CHARGES


@<TRIPOS>ATOM
  1 O        0.6140     1.2300    -2.8650 O.2   1 <1>  -0.5700 
  2 C        0.3070     1.8190    -1.8520 C.2   1 <1>   0.5690 
  3 N        1.1510     1.8630    -0.7690 N.am  1 <1>  -0.6600 
  4 C       -1.0410     2.5360    -1.8490 C.3   1 <1>   0.1810 
  5 C        2.4760     1.1800    -0.8240 C.3   1 <1>   0.2840 
  6 C        0.8300     2.4810     0.5470 C.3   1 <1>   0.1400 
  7 O       -1.9140     1.9890    -0.8730 O.3   1 <1>  -0.3630 
  8 C        3.5570     1.9000    -0.0170 C.ar  1 <1>  -0.1440 
  9 C        1.8660     3.5560     0.8700 C.3   1 <1>  -0.0160 
 10 C       -3.0580     2.6270    -0.5150 C.ar  1 <1>   0.0820 
 11 C        3.2800     3.0050     0.7810 C.ar  1 <1>  -0.1430 
 12 C        4.8580     1.4220    -0.0840 C.ar  1 <1>  -0.1500 
 13 C       -3.6930     2.2090     0.6500 C.ar  1 <1>  -0.1440 
 14 C       -3.6030     3.6710    -1.2590 C.ar  1 <1>  -0.1500 
 15 C        4.2990     3.6160     1.4950 C.ar  1 <1>  -0.1500 
 16 C        5.8720     2.0340     0.6310 C.ar  1 <1>  -0.1500 
 17 C       -4.8540     2.8440     1.0620 C.ar  1 <1>  -0.1500 
 18 C       -3.1250     1.0620     1.4740 C.3   1 <1>  -0.0970 
 19 C       -4.7620     4.2950    -0.8360 C.ar  1 <1>  -0.1500 
 20 C        5.5920     3.1320     1.4220 C.ar  1 <1>  -0.1500 
 21 C       -5.3930     3.8860     0.3260 C.ar  1 <1>  -0.1430 
 22 C       -6.6650     4.5710     0.7930 C.3   1 <1>  -0.0970 
 23 H       -1.5080     2.4300    -2.8110 H     1 <1>   0.0800 
 24 H       -0.8860     3.5760    -1.6300 H     1 <1>   0.0800 
 25 H        2.8060     1.1070    -1.8470 H     1 <1>   0.0800 
 26 H        2.3610     0.1800    -0.4430 H     1 <1>   0.0800 
 27 H        0.8580     1.7160     1.3050 H     1 <1>   0.0800 
 28 H       -0.1500     2.9200     0.5550 H     1 <1>   0.0800 
 29 H        1.6810     3.9310     1.8610 H     1 <1>   0.0800 
 30 H        1.7590     4.3720     0.1790 H     1 <1>   0.0800 
 31 H        5.0890     0.5690    -0.6980 H     1 <1>   0.1500 
 32 H       -3.1470     4.0070    -2.1700 H     1 <1>   0.1500 
 33 H        4.0910     4.4730     2.1110 H     1 <1>   0.1500 
 34 H        6.8780     1.6560     0.5710 H     1 <1>   0.1500 
 35 H       -5.3470     2.5250     1.9640 H     1 <1>   0.1500 
 36 H       -3.0450     0.1810     0.8610 H     1 <1>   0.0800 
 37 H       -3.7550     0.8370     2.3150 H     1 <1>   0.0800 
 38 H       -2.1470     1.3210     1.8350 H     1 <1>   0.0800 
 39 H       -5.1740     5.1020    -1.4170 H     1 <1>   0.1500 
 40 H        6.3790     3.6100     1.9790 H     1 <1>   0.1500 
 41 H       -7.3230     3.8610     1.2600 H     1 <1>   0.0800 
 42 H       -7.1830     5.0160    -0.0370 H     1 <1>   0.0800 
 43 H       -6.4230     5.3410     1.5050 H     1 <1>   0.0800 
@<TRIPOS>BOND
  1   1   2  2   
  2   2   3  am  
  3   2   4  1   
  4   3   5  1   
  5   3   6  1   
  6   4   7  1   
  7   4  23  1   
  8   4  24  1   
  9   5   8  1   
 10   5  25  1   
 11   5  26  1   
 12   6   9  1   
 13   6  27  1   
 14   6  28  1   
 15   7  10  1   
 16   8  11  ar  
 17   8  12  ar  
 18   9  11  1   
 19   9  29  1   
 20   9  30  1   
 21  10  13  ar  
 22  10  14  ar  
 23  11  15  ar  
 24  12  16  ar  
 25  12  31  1   
 26  13  17  ar  
 27  13  18  1   
 28  14  19  ar  
 29  14  32  1   
 30  15  20  ar  
 31  15  33  1   
 32  16  20  ar  
 33  16  34  1   
 34  17  21  ar  
 35  17  35  1   
 36  18  36  1   
 37  18  37  1   
 38  18  38  1   
 39  19  21  ar  
 40  19  39  1   
 41  20  40  1   
 42  21  22  1   
 43  22  41  1   
 44  22  42  1   
 45  22  43  1   
@<TRIPOS>SUBSTRUCTURE
  1 ****   6 GROUP 4 **** **** 0

# MOE 2024.06 (io_trps.svl 2023.06)
