@<TRIPOS>MOLECULE
N-[1-(4-Ethyl-5-mercapto-4H-[1,2,4]triazol-3-yl)-2-methyl-propyl]-benzamide
41 42 1 0 0 
SMALL
USER_CHARGES


@<TRIPOS>ATOM
  1 S       -1.0420     0.5350    -1.9640 S.3   1 <1>  -0.9360 
  2 C       -0.8840     2.0070    -1.3040 C.cat 1 <1>   0.7360 
  3 N        0.2380     2.6880    -1.2560 N.pl3 1 <1>  -0.3930 
  4 N       -1.8340     2.7170    -0.7230 N.pl3 1 <1>  -0.7640 
  5 N        0.0500     3.8830    -0.6250 N.2   1 <1>  -0.2600 
  6 C       -1.2010     3.8760    -0.3140 C.2   1 <1>   0.4850 
  7 C       -3.2240     2.2470    -0.5800 C.3   1 <1>   0.3540 
  8 C       -1.9040     5.0240     0.4400 C.3   1 <1>   0.3880 
  9 C       -4.0360     2.7070    -1.7840 C.3   1 <1>  -0.2400 
 10 N       -1.4670     6.3500    -0.0830 N.am  1 <1>  -0.7300 
 11 C       -1.6350     4.9610     1.9690 C.3   1 <1>  -0.0800 
 12 C       -2.2470     7.4170    -0.3910 C.2   1 <1>   0.5440 
 13 C       -2.0690     3.6220     2.5920 C.3   1 <1>  -0.2400 
 14 C       -2.3320     6.0980     2.7410 C.3   1 <1>  -0.2400 
 15 O       -1.6910     8.4900    -0.4390 O.2   1 <1>  -0.5700 
 16 C       -3.6710     7.2960    -0.6190 C.ar  1 <1>   0.0860 
 17 C       -4.5900     7.8970     0.2380 C.ar  1 <1>  -0.1500 
 18 C       -4.1670     6.5650    -1.6980 C.ar  1 <1>  -0.1500 
 19 C       -5.9520     7.7560     0.0410 C.ar  1 <1>  -0.1500 
 20 C       -5.5280     6.4190    -1.8990 C.ar  1 <1>  -0.1500 
 21 C       -6.4230     7.0130    -1.0260 C.ar  1 <1>  -0.1500 
 22 H        1.0970     2.3120    -1.6580 H     1 <1>   0.4500 
 23 H       -3.6540     2.6340     0.3260 H     1 <1>   0.0800 
 24 H       -3.2420     1.1700    -0.5210 H     1 <1>   0.0800 
 25 H       -2.9610     4.9240     0.2800 H     1 <1>   0.0800 
 26 H       -4.0350     3.7760    -1.8570 H     1 <1>   0.0800 
 27 H       -5.0510     2.3670    -1.6880 H     1 <1>   0.0800 
 28 H       -3.6220     2.2840    -2.6830 H     1 <1>   0.0800 
 29 H       -0.4720     6.5590     0.0220 H     1 <1>   0.3700 
 30 H       -0.5720     5.0560     2.1210 H     1 <1>   0.0800 
 31 H       -3.1290     3.4730     2.4820 H     1 <1>   0.0800 
 32 H       -1.8390     3.6120     3.6440 H     1 <1>   0.0800 
 33 H       -1.5500     2.7930     2.1430 H     1 <1>   0.0800 
 34 H       -3.3960     6.0760     2.5780 H     1 <1>   0.0800 
 35 H       -1.9570     7.0600     2.4370 H     1 <1>   0.0800 
 36 H       -2.1480     6.0020     3.7970 H     1 <1>   0.0800 
 37 H       -4.2250     8.4850     1.0630 H     1 <1>   0.1500 
 38 H       -3.4730     6.1150    -2.3870 H     1 <1>   0.1500 
 39 H       -6.6470     8.2280     0.7160 H     1 <1>   0.1500 
 40 H       -5.8940     5.8520    -2.7390 H     1 <1>   0.1500 
 41 H       -7.4830     6.9040    -1.1820 H     1 <1>   0.1500 
@<TRIPOS>BOND
  1   1   2  1   
  2   2   3  ar  
  3   2   4  ar  
  4   3   5  1   
  5   3  22  1   
  6   4   6  1   
  7   4   7  1   
  8   5   6  2   
  9   6   8  1   
 10   7   9  1   
 11   7  23  1   
 12   7  24  1   
 13   8  10  1   
 14   8  11  1   
 15   8  25  1   
 16   9  26  1   
 17   9  27  1   
 18   9  28  1   
 19  10  12  am  
 20  10  29  1   
 21  11  13  1   
 22  11  14  1   
 23  11  30  1   
 24  12  15  2   
 25  12  16  1   
 26  13  31  1   
 27  13  32  1   
 28  13  33  1   
 29  14  34  1   
 30  14  35  1   
 31  14  36  1   
 32  16  17  ar  
 33  16  18  ar  
 34  17  19  ar  
 35  17  37  1   
 36  18  20  ar  
 37  18  38  1   
 38  19  21  ar  
 39  19  39  1   
 40  20  21  ar  
 41  20  40  1   
 42  21  41  1   
@<TRIPOS>SUBSTRUCTURE
  1 ****   8 GROUP 4 **** **** 0

# MOE 2024.06 (io_trps.svl 2023.06)
