@<TRIPOS>MOLECULE
N-[2-(4-Isobutyryl-piperazin-1-yl)-phenyl]-2-p-tolyloxy-acetamide
58 60 1 0 0 
SMALL
USER_CHARGES


@<TRIPOS>ATOM
  1 O       -3.2420     1.3060    -1.7800 O.2   1 <1>  -0.5700 
  2 C       -3.3020     1.6650    -0.6260 C.2   1 <1>   0.5690 
  3 N       -2.6010     2.7670    -0.1980 N.am  1 <1>  -0.6600 
  4 C       -4.2010     0.8650     0.3350 C.3   1 <1>  -0.0190 
  5 C       -2.8080     3.5040     1.0870 C.3   1 <1>   0.1400 
  6 C       -1.7190     3.5320    -1.1330 C.3   1 <1>   0.1400 
  7 C       -4.2900    -0.6260    -0.0370 C.3   1 <1>  -0.2400 
  8 C       -5.6200     1.4580     0.3970 C.3   1 <1>  -0.2400 
  9 C       -3.4510     4.8770     0.8290 C.3   1 <1>   0.2090 
 10 C       -2.3260     4.9080    -1.4580 C.3   1 <1>   0.2090 
 11 N       -2.7280     5.6580    -0.2250 N.pl3 1 <1>  -0.8380 
 12 C       -2.0680     6.8440     0.1500 C.ar  1 <1>   0.1000 
 13 C       -2.8110     8.0060     0.4080 C.ar  1 <1>   0.1170 
 14 C       -0.6880     6.8840     0.2890 C.ar  1 <1>  -0.1500 
 15 N       -4.1960     7.9110     0.2280 N.am  1 <1>  -0.5470 
 16 C       -2.1660     9.1670     0.8070 C.ar  1 <1>  -0.1500 
 17 C       -0.0490     8.0490     0.6820 C.ar  1 <1>  -0.1500 
 18 C       -5.2750     8.5810     0.7170 C.2   1 <1>   0.5690 
 19 C       -0.7880     9.1900     0.9430 C.ar  1 <1>  -0.1500 
 20 O       -5.2020     9.6280     1.3140 O.2   1 <1>  -0.5700 
 21 C       -6.6430     7.9410     0.5140 C.3   1 <1>   0.1810 
 22 O       -6.5050     6.6140     0.0100 O.3   1 <1>  -0.3630 
 23 C       -7.5740     5.8150    -0.2140 C.ar  1 <1>   0.0820 
 24 C       -8.8760     6.1410     0.1550 C.ar  1 <1>  -0.1500 
 25 C       -7.3270     4.6090    -0.8490 C.ar  1 <1>  -0.1500 
 26 C       -9.9090     5.2570    -0.1080 C.ar  1 <1>  -0.1500 
 27 C       -8.3620     3.7290    -1.1090 C.ar  1 <1>  -0.1500 
 28 C       -9.6580     4.0480    -0.7370 C.ar  1 <1>  -0.1440 
 29 C      -10.7920     3.0800    -1.0260 C.3   1 <1>  -0.0970 
 30 H       -3.7640     0.9040     1.3150 H     1 <1>   0.0800 
 31 H       -1.8550     3.6510     1.5640 H     1 <1>   0.0800 
 32 H       -3.4300     2.9520     1.7650 H     1 <1>   0.0800 
 33 H       -1.5680     2.9870    -2.0480 H     1 <1>   0.0800 
 34 H       -0.7570     3.6700    -0.6750 H     1 <1>   0.0800 
 35 H       -4.7530    -0.7460    -1.0010 H     1 <1>   0.0800 
 36 H       -4.8660    -1.1660     0.6930 H     1 <1>   0.0800 
 37 H       -3.3030    -1.0530    -0.0810 H     1 <1>   0.0800 
 38 H       -6.0800     1.4110    -0.5740 H     1 <1>   0.0800 
 39 H       -5.5900     2.4860     0.7080 H     1 <1>   0.0800 
 40 H       -6.2280     0.9090     1.0940 H     1 <1>   0.0800 
 41 H       -3.4670     5.4390     1.7470 H     1 <1>   0.0800 
 42 H       -4.4710     4.7330     0.5170 H     1 <1>   0.0800 
 43 H       -3.1960     4.7640    -2.0750 H     1 <1>   0.0800 
 44 H       -1.6180     5.4900    -2.0230 H     1 <1>   0.0800 
 45 H       -0.1130     5.9990     0.0960 H     1 <1>   0.1500 
 46 H       -4.4220     7.0170    -0.2240 H     1 <1>   0.3700 
 47 H       -2.7400    10.0550     1.0060 H     1 <1>   0.1500 
 48 H        1.0210     8.0670     0.7880 H     1 <1>   0.1500 
 49 H       -0.2960    10.0960     1.2520 H     1 <1>   0.1500 
 50 H       -7.2140     8.5160    -0.1910 H     1 <1>   0.0800 
 51 H       -7.1520     7.8970     1.4590 H     1 <1>   0.0800 
 52 H       -9.1060     7.0670     0.6440 H     1 <1>   0.1500 
 53 H       -6.3230     4.3610    -1.1430 H     1 <1>   0.1500 
 54 H      -10.9130     5.5150     0.1800 H     1 <1>   0.1500 
 55 H       -8.1550     2.7970    -1.6050 H     1 <1>   0.1500 
 56 H      -11.1440     3.2230    -2.0320 H     1 <1>   0.0800 
 57 H      -11.6090     3.2380    -0.3460 H     1 <1>   0.0800 
 58 H      -10.4530     2.0650    -0.9180 H     1 <1>   0.0800 
@<TRIPOS>BOND
  1   1   2  2   
  2   2   3  am  
  3   2   4  1   
  4   3   5  1   
  5   3   6  1   
  6   4   7  1   
  7   4   8  1   
  8   4  30  1   
  9   5   9  1   
 10   5  31  1   
 11   5  32  1   
 12   6  10  1   
 13   6  33  1   
 14   6  34  1   
 15   7  35  1   
 16   7  36  1   
 17   7  37  1   
 18   8  38  1   
 19   8  39  1   
 20   8  40  1   
 21   9  11  1   
 22   9  41  1   
 23   9  42  1   
 24  10  11  1   
 25  10  43  1   
 26  10  44  1   
 27  11  12  1   
 28  12  13  ar  
 29  12  14  ar  
 30  13  15  1   
 31  13  16  ar  
 32  14  17  ar  
 33  14  45  1   
 34  15  18  am  
 35  15  46  1   
 36  16  19  ar  
 37  16  47  1   
 38  17  19  ar  
 39  17  48  1   
 40  18  20  2   
 41  18  21  1   
 42  19  49  1   
 43  21  22  1   
 44  21  50  1   
 45  21  51  1   
 46  22  23  1   
 47  23  24  ar  
 48  23  25  ar  
 49  24  26  ar  
 50  24  52  1   
 51  25  27  ar  
 52  25  53  1   
 53  26  28  ar  
 54  26  54  1   
 55  27  28  ar  
 56  27  55  1   
 57  28  29  1   
 58  29  56  1   
 59  29  57  1   
 60  29  58  1   
@<TRIPOS>SUBSTRUCTURE
  1 ****   9 GROUP 4 **** **** 0

# MOE 2024.06 (io_trps.svl 2023.06)
