@<TRIPOS>MOLECULE
1-(3-Amino-propyl)-piperidin-4-ol
31 31 1 0 0 
SMALL
USER_CHARGES


@<TRIPOS>ATOM
  1 O       -0.4440     0.0010     0.5290 O.3   1 <1>  -0.6800 
  2 C       -1.5980     0.1370    -0.2010 C.3   1 <1>   0.2000 
  3 C       -2.4450     1.2260     0.4540 C.3   1 <1>  -0.1600 
  4 C       -2.3000    -1.2190    -0.1730 C.3   1 <1>  -0.1600 
  5 C       -3.8540     1.2520    -0.1330 C.3   1 <1>   0.3430 
  6 C       -3.7090    -1.1230    -0.7470 C.3   1 <1>   0.3430 
  7 N       -4.4920    -0.0950     0.0140 N.4   1 <1>  -0.9590 
  8 C       -5.9320    -0.0370    -0.3770 C.3   1 <1>   0.3430 
  9 C       -6.7020    -1.2650     0.1400 C.3   1 <1>  -0.1600 
 10 C       -8.2030    -1.1460    -0.1600 C.3   1 <1>   0.3430 
 11 N       -8.9340    -2.3300     0.3650 N.4   1 <1>  -0.8530 
 12 H        0.1380     0.7830     0.4390 H     1 <1>   0.4000 
 13 H       -1.3310     0.4050    -1.2110 H     1 <1>   0.0800 
 14 H       -1.9830     2.1840     0.2930 H     1 <1>   0.0800 
 15 H       -2.5070     1.0590     1.5160 H     1 <1>   0.0800 
 16 H       -2.3500    -1.5890     0.8360 H     1 <1>   0.0800 
 17 H       -1.7300    -1.9210    -0.7560 H     1 <1>   0.0800 
 18 H       -3.8060     1.5260    -1.1750 H     1 <1>   0.0800 
 19 H       -4.4370     1.9980     0.3860 H     1 <1>   0.0800 
 20 H       -4.1810    -2.0880    -0.6720 H     1 <1>   0.0800 
 21 H       -3.6560    -0.8500    -1.7890 H     1 <1>   0.0800 
 22 H       -4.4110    -0.3360     1.0130 H     1 <1>   0.4500 
 23 H       -6.0140     0.0320    -1.4510 H     1 <1>   0.0800 
 24 H       -6.3730     0.8530     0.0460 H     1 <1>   0.0800 
 25 H       -6.5610    -1.3390     1.2040 H     1 <1>   0.0800 
 26 H       -6.3200    -2.1510    -0.3360 H     1 <1>   0.0800 
 27 H       -8.3580    -1.0710    -1.2260 H     1 <1>   0.0800 
 28 H       -8.5960    -0.2500     0.2980 H     1 <1>   0.0800 
 29 H       -8.6160    -3.2080    -0.0640 H     1 <1>   0.4500 
 30 H       -9.9430    -2.2550     0.1710 H     1 <1>   0.4500 
 31 H       -8.8380    -2.4260     1.3850 H     1 <1>   0.4500 
@<TRIPOS>BOND
  1   1   2  1   
  2   1  12  1   
  3   2   3  1   
  4   2   4  1   
  5   2  13  1   
  6   3   5  1   
  7   3  14  1   
  8   3  15  1   
  9   4   6  1   
 10   4  16  1   
 11   4  17  1   
 12   5   7  1   
 13   5  18  1   
 14   5  19  1   
 15   6   7  1   
 16   6  20  1   
 17   6  21  1   
 18   7   8  1   
 19   7  22  1   
 20   8   9  1   
 21   8  23  1   
 22   8  24  1   
 23   9  10  1   
 24   9  25  1   
 25   9  26  1   
 26  10  11  1   
 27  10  27  1   
 28  10  28  1   
 29  11  29  1   
 30  11  30  1   
 31  11  31  1   
@<TRIPOS>SUBSTRUCTURE
  1 ****   7 GROUP 4 **** **** 0

# MOE 2024.06 (io_trps.svl 2023.06)
