@<TRIPOS>MOLECULE
[1,3-Dimethyl-8-(2-methyl-piperidin-1-ylmethyl)-2,6-dioxo-1,2,3,6-tetrahydro-pur
55 57 1 0 0 
SMALL
USER_CHARGES


@<TRIPOS>ATOM
  1 O        0.5090    -0.5240    -0.8800 O.2   1 <1>  -0.5700 
  2 C        1.3680     0.2460    -0.4860 C.2   1 <1>   0.6900 
  3 N        0.9950     1.3940     0.2020 N.am  1 <1>  -0.4200 
  4 N        2.7040    -0.0250    -0.7160 N.am  1 <1>  -0.4230 
  5 C        1.9500     2.2530     0.7140 C.2   1 <1>   0.7150 
  6 C       -0.4550     1.6720     0.4230 C.3   1 <1>   0.0600 
  7 C        3.6640     0.8480    -0.2190 C.2   1 <1>   0.2900 
  8 C        3.1440    -1.2310    -1.4700 C.3   1 <1>   0.0600 
  9 O        1.6260     3.2300     1.3640 O.2   1 <1>  -0.5700 
 10 C        3.3170     1.9540     0.4710 C.2   1 <1>  -0.2370 
 11 N        4.9910     0.7230    -0.3420 N.2   1 <1>  -0.5650 
 12 N        4.4860     2.5740     0.8010 N.pl3 1 <1>   0.0480 
 13 C        5.4540     1.7720     0.2790 C.2   1 <1>   0.0060 
 14 C        4.6350     3.8360     1.5800 C.3   1 <1>   0.1570 
 15 C        6.9560     2.0470     0.3890 C.3   1 <1>   0.5230 
 16 C        5.3100     4.8980     0.7440 C.2   1 <1>   0.6590 
 17 N        7.6750     0.8070    -0.0090 N.4   1 <1>  -0.9590 
 18 O        6.5010     4.8660     0.5600 O.2   1 <1>  -0.5700 
 19 O        4.5290     5.8310     0.2250 O.3   1 <1>  -0.4300 
 20 C        8.3140     0.0630     1.1090 C.3   1 <1>   0.4230 
 21 C        8.5860     1.0810    -1.1530 C.3   1 <1>   0.3430 
 22 C        5.0380     6.8730    -0.5760 C.3   1 <1>   0.1200 
 23 C        8.8970    -1.2540     0.5760 C.3   1 <1>  -0.1600 
 24 C        7.2950    -0.2400     2.2100 C.3   1 <1>  -0.2400 
 25 C        9.1540    -0.2270    -1.7000 C.3   1 <1>  -0.1600 
 26 C        3.8670     7.7480    -1.0090 C.3   1 <1>  -0.2400 
 27 C        9.8520    -1.0360    -0.6030 C.3   1 <1>  -0.1600 
 28 H       -0.8030     1.1070     1.2700 H     1 <1>   0.0800 
 29 H       -1.0230     1.3850    -0.4460 H     1 <1>   0.0800 
 30 H       -0.6230     2.7190     0.6040 H     1 <1>   0.0800 
 31 H        2.3070    -1.7230    -1.9360 H     1 <1>   0.0800 
 32 H        3.6220    -1.9190    -0.7970 H     1 <1>   0.0800 
 33 H        3.8410    -0.9420    -2.2370 H     1 <1>   0.0800 
 34 H        5.2310     3.6410     2.4510 H     1 <1>   0.0800 
 35 H        3.6830     4.2040     1.9050 H     1 <1>   0.0800 
 36 H        7.2180     2.3360     1.3920 H     1 <1>   0.0800 
 37 H        7.2140     2.8530    -0.2770 H     1 <1>   0.0800 
 38 H        6.9000     0.2150    -0.3590 H     1 <1>   0.4500 
 39 H        9.1170     0.6540     1.5200 H     1 <1>   0.0800 
 40 H        9.3970     1.7140    -0.8280 H     1 <1>   0.0800 
 41 H        8.0490     1.5910    -1.9370 H     1 <1>   0.0800 
 42 H        5.5320     6.4410    -1.4300 H     1 <1>   0.0800 
 43 H        5.7470     7.4390     0.0060 H     1 <1>   0.0800 
 44 H        8.0950    -1.9050     0.2710 H     1 <1>   0.0800 
 45 H        9.4300    -1.7520     1.3670 H     1 <1>   0.0800 
 46 H        6.4410    -0.7600     1.8110 H     1 <1>   0.0800 
 47 H        6.9720     0.6540     2.7080 H     1 <1>   0.0800 
 48 H        7.7480    -0.8690     2.9560 H     1 <1>   0.0800 
 49 H        9.8580    -0.0050    -2.4840 H     1 <1>   0.0800 
 50 H        8.3580    -0.8060    -2.1360 H     1 <1>   0.0800 
 51 H        3.1610     7.1700    -1.5790 H     1 <1>   0.0800 
 52 H        4.2240     8.5540    -1.6240 H     1 <1>   0.0800 
 53 H        3.3770     8.1670    -0.1490 H     1 <1>   0.0800 
 54 H       10.1700    -1.9880    -0.9970 H     1 <1>   0.0800 
 55 H       10.7300    -0.5100    -0.2670 H     1 <1>   0.0800 
@<TRIPOS>BOND
  1   1   2  2   
  2   2   3  am  
  3   2   4  am  
  4   3   5  am  
  5   3   6  1   
  6   4   7  1   
  7   4   8  1   
  8   5   9  2   
  9   5  10  1   
 10   6  28  1   
 11   6  29  1   
 12   6  30  1   
 13   7  10  2   
 14   7  11  1   
 15   8  31  1   
 16   8  32  1   
 17   8  33  1   
 18  10  12  1   
 19  11  13  2   
 20  12  13  1   
 21  12  14  1   
 22  13  15  1   
 23  14  16  1   
 24  14  34  1   
 25  14  35  1   
 26  15  17  1   
 27  15  36  1   
 28  15  37  1   
 29  16  18  2   
 30  16  19  1   
 31  17  20  1   
 32  17  21  1   
 33  17  38  1   
 34  19  22  1   
 35  20  23  1   
 36  20  24  1   
 37  20  39  1   
 38  21  25  1   
 39  21  40  1   
 40  21  41  1   
 41  22  26  1   
 42  22  42  1   
 43  22  43  1   
 44  23  27  1   
 45  23  44  1   
 46  23  45  1   
 47  24  46  1   
 48  24  47  1   
 49  24  48  1   
 50  25  27  1   
 51  25  49  1   
 52  25  50  1   
 53  26  51  1   
 54  26  52  1   
 55  26  53  1   
 56  27  54  1   
 57  27  55  1   
@<TRIPOS>SUBSTRUCTURE
  1 ****  13 GROUP 4 **** **** 0

# MOE 2024.06 (io_trps.svl 2023.06)
