@<TRIPOS>MOLECULE
1-(2,5-Dimethyl-phenyl)-5-oxo-pyrrolidine-3-carboxylic acid (4-ethoxy-phenyl)-am
50 52 1 0 0 
SMALL
USER_CHARGES


@<TRIPOS>ATOM
  1 O       -0.1160    -1.2410     1.4500 O.2   1 <1>  -0.5700 
  2 C        0.9660    -1.1080     0.9350 C.2   1 <1>   0.5690 
  3 N        1.6310    -2.0200     0.1720 N.am  1 <1>  -0.4770 
  4 C        1.7620     0.1580     1.0810 C.3   1 <1>  -0.0990 
  5 C        1.2290    -3.3170    -0.1870 C.ar  1 <1>   0.1170 
  6 C        2.9470    -1.5040    -0.2440 C.3   1 <1>   0.1400 
  7 C        2.8600     0.0080     0.0140 C.3   1 <1>  -0.0190 
  8 C        0.1390    -3.5530    -1.0290 C.ar  1 <1>  -0.1440 
  9 C        1.9520    -4.4020     0.2980 C.ar  1 <1>  -0.1500 
 10 C        4.1870     0.6540     0.4020 C.2   1 <1>   0.5690 
 11 C       -0.1980    -4.8550    -1.3620 C.ar  1 <1>  -0.1500 
 12 C       -0.6950    -2.4100    -1.5940 C.3   1 <1>  -0.0970 
 13 C        1.6160    -5.7010    -0.0400 C.ar  1 <1>  -0.1440 
 14 O        5.1640    -0.0290     0.5750 O.2   1 <1>  -0.5700 
 15 N        4.2790     1.9990     0.5650 N.am  1 <1>  -0.5470 
 16 C        0.5340    -5.9220    -0.8740 C.ar  1 <1>  -0.1500 
 17 C        2.4120    -6.8760     0.4980 C.3   1 <1>  -0.0970 
 18 C        3.2920     2.9750     0.4120 C.ar  1 <1>   0.1170 
 19 C        2.7960     3.6420     1.5240 C.ar  1 <1>  -0.1500 
 20 C        2.7890     3.2880    -0.8440 C.ar  1 <1>  -0.1500 
 21 C        1.8020     4.5950     1.3910 C.ar  1 <1>  -0.1500 
 22 C        1.7950     4.2400    -0.9820 C.ar  1 <1>  -0.1500 
 23 C        1.2920     4.8960     0.1300 C.ar  1 <1>   0.0820 
 24 O        0.3140     5.8110    -0.0950 O.3   1 <1>  -0.3620 
 25 C       -0.2780     6.5180     0.9690 C.3   1 <1>   0.1200 
 26 C       -1.3370     7.4480     0.3850 C.3   1 <1>  -0.2400 
 27 H        2.1770     0.1910     2.0720 H     1 <1>   0.0800 
 28 H        1.1450     1.0200     0.9080 H     1 <1>   0.0800 
 29 H        3.1320    -1.7200    -1.2820 H     1 <1>   0.0800 
 30 H        3.7050    -1.9700     0.3630 H     1 <1>   0.0800 
 31 H        2.5160     0.4620    -0.8970 H     1 <1>   0.0800 
 32 H        2.7820    -4.2180     0.9530 H     1 <1>   0.1500 
 33 H       -1.0380    -5.0480    -2.0060 H     1 <1>   0.1500 
 34 H       -0.0570    -1.6290    -1.9650 H     1 <1>   0.0800 
 35 H       -1.3250    -2.0070    -0.8210 H     1 <1>   0.0800 
 36 H       -1.3180    -2.7490    -2.4000 H     1 <1>   0.0800 
 37 H        5.1960     2.3120     0.8890 H     1 <1>   0.3700 
 38 H        0.2560    -6.9260    -1.1440 H     1 <1>   0.1500 
 39 H        3.3460    -6.5460     0.9150 H     1 <1>   0.0800 
 40 H        2.6190    -7.5750    -0.2920 H     1 <1>   0.0800 
 41 H        1.8480    -7.3750     1.2650 H     1 <1>   0.0800 
 42 H        3.1860     3.4090     2.4990 H     1 <1>   0.1500 
 43 H        3.1770     2.7910    -1.7140 H     1 <1>   0.1500 
 44 H        1.4380     5.0880     2.2720 H     1 <1>   0.1500 
 45 H        1.4010     4.4840    -1.9520 H     1 <1>   0.1500 
 46 H        0.4880     7.0840     1.4720 H     1 <1>   0.0800 
 47 H       -0.7260     5.8090     1.6440 H     1 <1>   0.0800 
 48 H       -0.8830     8.1410    -0.3010 H     1 <1>   0.0800 
 49 H       -1.8090     8.0050     1.1740 H     1 <1>   0.0800 
 50 H       -2.0890     6.8750    -0.1280 H     1 <1>   0.0800 
@<TRIPOS>BOND
  1   1   2  2   
  2   2   3  am  
  3   2   4  1   
  4   3   5  1   
  5   3   6  1   
  6   4   7  1   
  7   4  27  1   
  8   4  28  1   
  9   5   8  ar  
 10   5   9  ar  
 11   6   7  1   
 12   6  29  1   
 13   6  30  1   
 14   7  10  1   
 15   7  31  1   
 16   8  11  ar  
 17   8  12  1   
 18   9  13  ar  
 19   9  32  1   
 20  10  14  2   
 21  10  15  am  
 22  11  16  ar  
 23  11  33  1   
 24  12  34  1   
 25  12  35  1   
 26  12  36  1   
 27  13  16  ar  
 28  13  17  1   
 29  15  18  1   
 30  15  37  1   
 31  16  38  1   
 32  17  39  1   
 33  17  40  1   
 34  17  41  1   
 35  18  19  ar  
 36  18  20  ar  
 37  19  21  ar  
 38  19  42  1   
 39  20  22  ar  
 40  20  43  1   
 41  21  23  ar  
 42  21  44  1   
 43  22  23  ar  
 44  22  45  1   
 45  23  24  1   
 46  24  25  1   
 47  25  26  1   
 48  25  46  1   
 49  25  47  1   
 50  26  48  1   
 51  26  49  1   
 52  26  50  1   
@<TRIPOS>SUBSTRUCTURE
  1 ****   4 GROUP 4 **** **** 0

# MOE 2024.06 (io_trps.svl 2023.06)
