@<TRIPOS>MOLECULE
8,8-Dimethyl-2-phenethyl-3-propyl-8,9-dihydro-2H,6H-7-oxa-11-thia-2,4,10-triaza-
58 62 1 0 0 
SMALL
USER_CHARGES


@<TRIPOS>ATOM
  1 S       -0.3980    -1.5330     1.5150 S.3   1 <1>  -0.0800 
  2 C       -1.5970    -0.4160     0.8510 C.ar  1 <1>   0.2970 
  3 C        0.9280    -0.4300     1.1130 C.2   1 <1>  -0.0450 
  4 N       -2.8890    -0.6920     0.8530 N.ar  1 <1>  -0.5670 
  5 C       -0.9690     0.7230     0.3630 C.ar  1 <1>   0.0000 
  6 C        2.3030    -0.6280     1.3440 C.2   1 <1>   0.7150 
  7 C        0.4580     0.6900     0.5250 C.2   1 <1>   0.1250 
  8 C       -3.6320     0.2620     0.3160 C.ar  1 <1>   0.1660 
  9 C       -1.7770     1.7010    -0.1920 C.ar  1 <1>  -0.1500 
 10 O        2.7470    -1.6210     1.9080 O.2   1 <1>  -0.5700 
 11 N        3.1440     0.3750     0.8910 N.am  1 <1>  -0.4200 
 12 N        1.3140     1.6870     0.1430 N.2   1 <1>  -0.5750 
 13 C       -3.1360     1.4580    -0.2110 C.ar  1 <1>  -0.1430 
 14 C       -5.1230    -0.0020     0.2730 C.3   1 <1>  -0.0170 
 15 C        2.5800     1.5220     0.3300 C.2   1 <1>   0.4490 
 16 C        4.6190     0.1560     1.0460 C.3   1 <1>   0.1400 
 17 C       -4.0760     2.5060    -0.7910 C.3   1 <1>   0.2640 
 18 C       -5.9390     1.2870     0.0890 C.3   1 <1>   0.2800 
 19 C        3.4630     2.6960    -0.0910 C.3   1 <1>  -0.0990 
 20 C        5.1430    -0.8740     0.0360 C.3   1 <1>  -0.0170 
 21 O       -5.3800     2.0230    -0.9540 O.3   1 <1>  -0.5600 
 22 C       -5.9980     2.1410     1.3670 C.3   1 <1>  -0.2400 
 23 C       -7.3640     0.9570    -0.3590 C.3   1 <1>  -0.2400 
 24 C        4.1260     2.4910    -1.4630 C.3   1 <1>  -0.1600 
 25 C        6.6600    -0.9160     0.0940 C.ar  1 <1>  -0.1430 
 26 C        4.9800     3.7000    -1.8550 C.3   1 <1>  -0.2400 
 27 C        7.2960    -1.7080     1.0380 C.ar  1 <1>  -0.1500 
 28 C        7.4220    -0.1620    -0.7860 C.ar  1 <1>  -0.1500 
 29 C        8.6780    -1.7440     1.1030 C.ar  1 <1>  -0.1500 
 30 C        8.8040    -0.1970    -0.7210 C.ar  1 <1>  -0.1500 
 31 C        9.4330    -0.9870     0.2240 C.ar  1 <1>  -0.1500 
 32 H       -1.3400     2.6030    -0.5820 H     1 <1>   0.1500 
 33 H       -5.4280    -0.4940     1.1790 H     1 <1>   0.0800 
 34 H       -5.3170    -0.6740    -0.5420 H     1 <1>   0.0800 
 35 H        4.8220    -0.1950     2.0440 H     1 <1>   0.0800 
 36 H        5.1660     1.0700     0.9220 H     1 <1>   0.0800 
 37 H       -3.7290     2.8160    -1.7610 H     1 <1>   0.0800 
 38 H       -4.1140     3.3700    -0.1510 H     1 <1>   0.0800 
 39 H        4.1960     2.9060     0.6650 H     1 <1>   0.0800 
 40 H        2.8420     3.5740    -0.1530 H     1 <1>   0.0800 
 41 H        4.8270    -0.6200    -0.9590 H     1 <1>   0.0800 
 42 H        4.7550    -1.8500     0.2680 H     1 <1>   0.0800 
 43 H       -5.0180     2.3210     1.7680 H     1 <1>   0.0800 
 44 H       -6.5630     1.6270     2.1220 H     1 <1>   0.0800 
 45 H       -6.4810     3.0800     1.1640 H     1 <1>   0.0800 
 46 H       -7.3470     0.4080    -1.2830 H     1 <1>   0.0800 
 47 H       -7.9260     1.8620    -0.5040 H     1 <1>   0.0800 
 48 H       -7.8620     0.3610     0.3840 H     1 <1>   0.0800 
 49 H        3.3600     2.3410    -2.2070 H     1 <1>   0.0800 
 50 H        4.7490     1.6170    -1.4520 H     1 <1>   0.0800 
 51 H        4.3750     4.5890    -1.9040 H     1 <1>   0.0800 
 52 H        5.4250     3.5390    -2.8210 H     1 <1>   0.0800 
 53 H        5.7680     3.8560    -1.1380 H     1 <1>   0.0800 
 54 H        6.7190    -2.3010     1.7260 H     1 <1>   0.1500 
 55 H        6.9480     0.4560    -1.5280 H     1 <1>   0.1500 
 56 H        9.1660    -2.3610     1.8380 H     1 <1>   0.1500 
 57 H        9.3900     0.3900    -1.4060 H     1 <1>   0.1500 
 58 H       10.5080    -1.0160     0.2750 H     1 <1>   0.1500 
@<TRIPOS>BOND
  1   1   2  1   
  2   1   3  1   
  3   2   4  ar  
  4   2   5  ar  
  5   3   6  1   
  6   3   7  2   
  7   4   8  ar  
  8   5   7  1   
  9   5   9  ar  
 10   6  10  2   
 11   6  11  am  
 12   7  12  1   
 13   8  13  ar  
 14   8  14  1   
 15   9  13  ar  
 16   9  32  1   
 17  11  15  1   
 18  11  16  1   
 19  12  15  2   
 20  13  17  1   
 21  14  18  1   
 22  14  33  1   
 23  14  34  1   
 24  15  19  1   
 25  16  20  1   
 26  16  35  1   
 27  16  36  1   
 28  17  21  1   
 29  17  37  1   
 30  17  38  1   
 31  18  21  1   
 32  18  22  1   
 33  18  23  1   
 34  19  24  1   
 35  19  39  1   
 36  19  40  1   
 37  20  25  1   
 38  20  41  1   
 39  20  42  1   
 40  22  43  1   
 41  22  44  1   
 42  22  45  1   
 43  23  46  1   
 44  23  47  1   
 45  23  48  1   
 46  24  26  1   
 47  24  49  1   
 48  24  50  1   
 49  25  27  ar  
 50  25  28  ar  
 51  26  51  1   
 52  26  52  1   
 53  26  53  1   
 54  27  29  ar  
 55  27  54  1   
 56  28  30  ar  
 57  28  55  1   
 58  29  31  ar  
 59  29  56  1   
 60  30  31  ar  
 61  30  57  1   
 62  31  58  1   
@<TRIPOS>SUBSTRUCTURE
  1 ****   7 GROUP 4 **** **** 0

# MOE 2024.06 (io_trps.svl 2023.06)
