@<TRIPOS>MOLECULE
1-Allyl-4-hydroxy-6,7-dimethoxy-2-oxo-1,2-dihydro-quinoline-3-carboxylic acid se
49 50 1 0 0 
SMALL
USER_CHARGES


@<TRIPOS>ATOM
  1 O       -0.3740     0.4670    -0.9080 O.2   1 <1>  -0.5700 
  2 C       -1.3770     1.0670    -0.5100 C.2   1 <1>   0.5350 
  3 N       -2.5950     0.3960    -0.5590 N.am  1 <1>  -0.4770 
  4 C       -1.3090     2.3950    -0.0500 C.3   1 <1>  -0.7150 
  5 C       -3.7850     1.0050    -0.1150 C.ar  1 <1>   0.1170 
  6 C       -2.6350    -0.9590    -1.1880 C.3   1 <1>   0.2780 
  7 C       -2.5140     3.0820     0.1680 C.2   1 <1>   0.3890 
  8 C       -0.0780     3.0250     0.2040 C.2   1 <1>   0.5350 
  9 C       -3.7600     2.3630     0.2360 C.ar  1 <1>   0.0860 
 10 C       -4.9910     0.3050    -0.0060 C.ar  1 <1>  -0.1500 
 11 C       -2.6820    -2.0840    -0.1540 C.2   1 <1>  -0.2880 
 12 O       -2.5510     4.3140     0.2690 O.2   1 <1>  -0.5700 
 13 O        0.1430     3.6540     1.2340 O.2   1 <1>  -0.5700 
 14 N        0.9210     2.8650    -0.7100 N.am  1 <1>  -0.7300 
 15 C       -4.9480     2.9800     0.6430 C.ar  1 <1>  -0.1500 
 16 C       -6.1530     0.9210     0.4090 C.ar  1 <1>   0.0820 
 17 C       -2.5900    -1.9640     1.1760 C.2   1 <1>  -0.3000 
 18 C        2.3660     3.0610    -0.5050 C.3   1 <1>   0.2200 
 19 C       -6.1350     2.2860     0.7140 C.ar  1 <1>   0.0820 
 20 O       -7.2720     0.1630     0.5010 O.3   1 <1>  -0.3630 
 21 C        2.8600     2.1880     0.6610 C.3   1 <1>  -0.1600 
 22 C        2.6700     4.5500    -0.3360 C.3   1 <1>  -0.2400 
 23 O       -7.2560     2.9600     1.0780 O.3   1 <1>  -0.3630 
 24 C       -7.8380     0.0150     1.7850 C.3   1 <1>   0.0400 
 25 C        4.3910     2.1090     0.7550 C.3   1 <1>  -0.2400 
 26 C       -8.1550     3.2310     0.0280 C.3   1 <1>   0.0400 
 27 H       -1.7830    -1.1060    -1.8270 H     1 <1>   0.0800 
 28 H       -3.5000    -1.0160    -1.8220 H     1 <1>   0.0800 
 29 H       -5.0420    -0.7400    -0.2320 H     1 <1>   0.1500 
 30 H       -2.7950    -3.0430    -0.6270 H     1 <1>   0.1500 
 31 H        0.6980     2.0260    -1.2530 H     1 <1>   0.3700 
 32 H       -4.9280     4.0230     0.9020 H     1 <1>   0.1500 
 33 H       -2.6250    -2.7900     1.8630 H     1 <1>   0.1500 
 34 H       -2.4630    -1.0230     1.6860 H     1 <1>   0.1500 
 35 H        2.8530     2.7240    -1.4030 H     1 <1>   0.0800 
 36 H        2.4690     1.1940     0.5280 H     1 <1>   0.0800 
 37 H        2.4670     2.5740     1.5850 H     1 <1>   0.0800 
 38 H        2.2750     4.9080     0.5980 H     1 <1>   0.0800 
 39 H        2.2180     5.1040    -1.1380 H     1 <1>   0.0800 
 40 H        3.7290     4.7230    -0.3510 H     1 <1>   0.0800 
 41 H       -7.0640    -0.2720     2.4750 H     1 <1>   0.0800 
 42 H       -8.5900    -0.7500     1.7340 H     1 <1>   0.0800 
 43 H       -8.2820     0.9460     2.0870 H     1 <1>   0.0800 
 44 H        4.8040     1.7430    -0.1680 H     1 <1>   0.0800 
 45 H        4.6690     1.4360     1.5470 H     1 <1>   0.0800 
 46 H        4.8080     3.0760     0.9690 H     1 <1>   0.0800 
 47 H       -8.9780     3.7970     0.4260 H     1 <1>   0.0800 
 48 H       -8.5090     2.3020    -0.3820 H     1 <1>   0.0800 
 49 H       -7.6430     3.8030    -0.7270 H     1 <1>   0.0800 
@<TRIPOS>BOND
  1   1   2  2   
  2   2   3  am  
  3   2   4  1   
  4   3   5  1   
  5   3   6  1   
  6   4   7  1   
  7   4   8  1   
  8   5   9  ar  
  9   5  10  ar  
 10   6  11  1   
 11   6  27  1   
 12   6  28  1   
 13   7   9  1   
 14   7  12  2   
 15   8  13  2   
 16   8  14  am  
 17   9  15  ar  
 18  10  16  ar  
 19  10  29  1   
 20  11  17  2   
 21  11  30  1   
 22  14  18  1   
 23  14  31  1   
 24  15  19  ar  
 25  15  32  1   
 26  16  19  ar  
 27  16  20  1   
 28  17  33  1   
 29  17  34  1   
 30  18  21  1   
 31  18  22  1   
 32  18  35  1   
 33  19  23  1   
 34  20  24  1   
 35  21  25  1   
 36  21  36  1   
 37  21  37  1   
 38  22  38  1   
 39  22  39  1   
 40  22  40  1   
 41  23  26  1   
 42  24  41  1   
 43  24  42  1   
 44  24  43  1   
 45  25  44  1   
 46  25  45  1   
 47  25  46  1   
 48  26  47  1   
 49  26  48  1   
 50  26  49  1   
@<TRIPOS>SUBSTRUCTURE
  1 ****   7 GROUP 4 **** **** 0

# MOE 2024.06 (io_trps.svl 2023.06)
