@<TRIPOS>MOLECULE
[5-(2,4-Dichloro-phenyl)-isoxazol-3-yl]-piperidin-1-yl-methanone
35 37 1 0 0 
SMALL
USER_CHARGES


@<TRIPOS>ATOM
  1 CL       0.5910     0.0440     0.2030 Cl    1 <1>  -0.1770 
  2 C       -0.1710     1.6140     0.2830 C.ar  1 <1>   0.1770 
  3 C        0.5850     2.7800     0.1240 C.ar  1 <1>   0.0530 
  4 C       -1.5310     1.6460     0.5280 C.ar  1 <1>  -0.1500 
  5 C        2.0020     2.7680    -0.1420 C.2   1 <1>   0.0870 
  6 C       -0.0870     3.9990     0.2350 C.ar  1 <1>  -0.1500 
  7 C       -2.1580     2.8710     0.6250 C.ar  1 <1>   0.1770 
  8 O        2.4950     2.0210    -1.1140 O.3   1 <1>  -0.0190 
  9 C        2.9920     3.4550     0.4510 C.2   1 <1>  -0.1500 
 10 C       -1.4490     4.0490     0.4830 C.ar  1 <1>  -0.1500 
 11 CL      -3.8720     2.9350     0.9350 Cl    1 <1>  -0.1770 
 12 N        3.7890     2.2250    -1.1490 N.2   1 <1>  -0.4100 
 13 C        4.1380     3.0710    -0.2230 C.2   1 <1>   0.2030 
 14 C        5.4680     3.5860     0.0800 C.2   1 <1>   0.7160 
 15 O        5.5500     4.6690     0.6390 O.2   1 <1>  -0.5700 
 16 N        6.6470     2.9220    -0.2240 N.am  1 <1>  -0.6600 
 17 C        7.9570     3.6340    -0.2610 C.3   1 <1>   0.1400 
 18 C        6.7340     1.4600    -0.5090 C.3   1 <1>   0.1400 
 19 C        8.9370     2.9830     0.7200 C.3   1 <1>  -0.1600 
 20 C        7.7240     0.7940     0.4540 C.3   1 <1>  -0.1600 
 21 C        9.0950     1.4830     0.4410 C.3   1 <1>  -0.1600 
 22 H       -2.0890     0.7360     0.6440 H     1 <1>   0.1500 
 23 H        0.4640     4.9170     0.1190 H     1 <1>   0.1500 
 24 H        2.9510     4.1550     1.2640 H     1 <1>   0.1500 
 25 H       -1.9610     4.9920     0.5640 H     1 <1>   0.1500 
 26 H        7.8380     4.6750    -0.0130 H     1 <1>   0.0800 
 27 H        8.3540     3.5770    -1.2600 H     1 <1>   0.0800 
 28 H        7.0580     1.3200    -1.5260 H     1 <1>   0.0800 
 29 H        5.7800     0.9810    -0.3910 H     1 <1>   0.0800 
 30 H        8.5740     3.1340     1.7220 H     1 <1>   0.0800 
 31 H        9.8930     3.4690     0.6420 H     1 <1>   0.0800 
 32 H        7.8380    -0.2410     0.1840 H     1 <1>   0.0800 
 33 H        7.3130     0.8270     1.4480 H     1 <1>   0.0800 
 34 H        9.7330     1.0400     1.1860 H     1 <1>   0.0800 
 35 H        9.5570     1.3450    -0.5210 H     1 <1>   0.0800 
@<TRIPOS>BOND
  1   1   2  1   
  2   2   3  ar  
  3   2   4  ar  
  4   3   5  1   
  5   3   6  ar  
  6   4   7  ar  
  7   4  22  1   
  8   5   8  1   
  9   5   9  2   
 10   6  10  ar  
 11   6  23  1   
 12   7  10  ar  
 13   7  11  1   
 14   8  12  1   
 15   9  13  1   
 16   9  24  1   
 17  10  25  1   
 18  12  13  2   
 19  13  14  1   
 20  14  15  2   
 21  14  16  am  
 22  16  17  1   
 23  16  18  1   
 24  17  19  1   
 25  17  26  1   
 26  17  27  1   
 27  18  20  1   
 28  18  28  1   
 29  18  29  1   
 30  19  21  1   
 31  19  30  1   
 32  19  31  1   
 33  20  21  1   
 34  20  32  1   
 35  20  33  1   
 36  21  34  1   
 37  21  35  1   
@<TRIPOS>SUBSTRUCTURE
  1 ****   9 GROUP 4 **** **** 0

# MOE 2024.06 (io_trps.svl 2023.06)
