@<TRIPOS>MOLECULE
(6-Chloro-5,7-dimethyl-[1,2,4]triazolo[1,5-a]pyrimidin-2-yl)-(4-ethyl-benzyl)-am
41 43 1 0 0 
SMALL
USER_CHARGES


@<TRIPOS>ATOM
  1 CL      -2.3680    -1.0350     2.7660 Cl    1 <1>  -0.1400 
  2 C       -3.4670    -1.2250     1.4110 C.2   1 <1>   0.1540 
  3 C       -3.5560    -2.4840     0.7690 C.2   1 <1>   0.3750 
  4 C       -4.2330    -0.1830     0.9700 C.2   1 <1>   0.2410 
  5 N       -4.3470    -2.7120    -0.2430 N.2   1 <1>  -0.6120 
  6 C       -2.7070    -3.6450     1.2550 C.3   1 <1>  -0.1790 
  7 N       -5.0540    -0.4480    -0.0950 N.pl3 1 <1>  -0.3220 
  8 C       -4.2500     1.2240     1.5520 C.3   1 <1>  -0.1020 
  9 C       -5.0790    -1.6700    -0.6430 C.cat 1 <1>   0.9620 
 10 N       -5.9280     0.3610    -0.7640 N.2   1 <1>  -0.2600 
 11 N       -5.9400    -1.6560    -1.6300 N.pl3 1 <1>  -0.7000 
 12 C       -6.4380    -0.4170    -1.6710 C.2   1 <1>   0.7490 
 13 N       -7.3760    -0.1110    -2.6050 N.pl3 1 <1>  -0.8650 
 14 C       -8.3240     0.9950    -2.3470 C.3   1 <1>   0.3530 
 15 C       -9.3620     0.4870    -1.3640 C.ar  1 <1>  -0.1430 
 16 C       -9.2670     0.8000    -0.0170 C.ar  1 <1>  -0.1500 
 17 C      -10.4110    -0.3080    -1.8030 C.ar  1 <1>  -0.1500 
 18 C      -10.2030     0.3170     0.8810 C.ar  1 <1>  -0.1500 
 19 C      -11.3450    -0.7910    -0.9040 C.ar  1 <1>  -0.1500 
 20 C      -11.2450    -0.4840     0.4430 C.ar  1 <1>  -0.1430 
 21 C      -12.2740    -1.0140     1.4290 C.3   1 <1>  -0.0170 
 22 C      -13.4440    -0.0370     1.5590 C.3   1 <1>  -0.2400 
 23 H       -1.6630    -3.3990     1.1780 H     1 <1>   0.0800 
 24 H       -2.8910    -4.5250     0.6650 H     1 <1>   0.0800 
 25 H       -2.9380    -3.8710     2.2800 H     1 <1>   0.0800 
 26 H       -5.2400     1.4650     1.8970 H     1 <1>   0.0800 
 27 H       -3.9680     1.9360     0.7970 H     1 <1>   0.0800 
 28 H       -3.5730     1.3240     2.3800 H     1 <1>   0.0800 
 29 H       -6.1490    -2.4380    -2.2350 H     1 <1>   0.4500 
 30 H       -7.8690    -0.9150    -2.9950 H     1 <1>   0.4000 
 31 H       -8.7990     1.2890    -3.2680 H     1 <1>   0.0800 
 32 H       -7.8090     1.8540    -1.9480 H     1 <1>   0.0800 
 33 H       -8.4690     1.4230     0.3460 H     1 <1>   0.1500 
 34 H      -10.5130    -0.5560    -2.8450 H     1 <1>   0.1500 
 35 H      -10.1220     0.5690     1.9240 H     1 <1>   0.1500 
 36 H      -12.1560    -1.4040    -1.2560 H     1 <1>   0.1500 
 37 H      -11.8160    -1.1570     2.3930 H     1 <1>   0.0800 
 38 H      -12.6380    -1.9700     1.0960 H     1 <1>   0.0800 
 39 H      -13.0930     0.9180     1.9100 H     1 <1>   0.0800 
 40 H      -14.1690    -0.4170     2.2570 H     1 <1>   0.0800 
 41 H      -13.9200     0.1010     0.6050 H     1 <1>   0.0800 
@<TRIPOS>BOND
  1   1   2  1   
  2   2   3  1   
  3   2   4  2   
  4   3   5  2   
  5   3   6  1   
  6   4   7  1   
  7   4   8  1   
  8   5   9  1   
  9   6  23  1   
 10   6  24  1   
 11   6  25  1   
 12   7   9  ar  
 13   7  10  1   
 14   8  26  1   
 15   8  27  1   
 16   8  28  1   
 17   9  11  ar  
 18  10  12  2   
 19  11  12  1   
 20  11  29  1   
 21  12  13  1   
 22  13  14  1   
 23  13  30  1   
 24  14  15  1   
 25  14  31  1   
 26  14  32  1   
 27  15  16  ar  
 28  15  17  ar  
 29  16  18  ar  
 30  16  33  1   
 31  17  19  ar  
 32  17  34  1   
 33  18  20  ar  
 34  18  35  1   
 35  19  20  ar  
 36  19  36  1   
 37  20  21  1   
 38  21  22  1   
 39  21  37  1   
 40  21  38  1   
 41  22  39  1   
 42  22  40  1   
 43  22  41  1   
@<TRIPOS>SUBSTRUCTURE
  1 ****  10 GROUP 4 **** **** 0

# MOE 2024.06 (io_trps.svl 2023.06)
