@<TRIPOS>MOLECULE
N-[1-(3-Phenyl-[1,2,4]oxadiazol-5-yl)-ethyl]-butyramide
36 37 1 0 0 
SMALL
USER_CHARGES


@<TRIPOS>ATOM
  1 O       -2.0400    -0.1280    -2.3700 O.2   1 <1>  -0.5700 
  2 C       -2.7030    -0.1400    -1.3660 C.2   1 <1>   0.5690 
  3 N       -3.9950    -0.5210    -1.4430 N.am  1 <1>  -0.7300 
  4 C       -2.0910     0.2700    -0.0310 C.3   1 <1>  -0.0990 
  5 C       -4.9990    -0.6500    -0.3660 C.3   1 <1>   0.4000 
  6 C       -0.5780     0.5470    -0.0860 C.3   1 <1>  -0.1600 
  7 C       -5.1230    -2.1090     0.0890 C.2   1 <1>   0.2980 
  8 C       -6.3120    -0.0710    -0.8960 C.3   1 <1>  -0.2400 
  9 C       -0.0280     0.9370     1.2900 C.3   1 <1>  -0.2400 
 10 O       -4.1510    -2.5970     0.8130 O.3   1 <1>  -0.0190 
 11 N       -6.0760    -2.9180    -0.1530 N.2   1 <1>  -0.5650 
 12 N       -4.5140    -3.8160     1.0540 N.2   1 <1>  -0.4100 
 13 C       -5.6480    -4.0150     0.4820 C.2   1 <1>   0.4620 
 14 C       -6.4020    -5.2580     0.4990 C.ar  1 <1>   0.0540 
 15 C       -7.6350    -5.3800    -0.1460 C.ar  1 <1>  -0.1500 
 16 C       -5.9210    -6.3860     1.1670 C.ar  1 <1>  -0.1500 
 17 C       -8.3500    -6.5640    -0.1270 C.ar  1 <1>  -0.1500 
 18 C       -6.6300    -7.5730     1.1900 C.ar  1 <1>  -0.1500 
 19 C       -7.8480    -7.6640     0.5420 C.ar  1 <1>  -0.1500 
 20 H       -4.3010    -0.8490    -2.3610 H     1 <1>   0.3700 
 21 H       -2.2680    -0.5160     0.6790 H     1 <1>   0.0800 
 22 H       -2.5940     1.1560     0.3100 H     1 <1>   0.0800 
 23 H       -4.6940    -0.0650     0.4830 H     1 <1>   0.0800 
 24 H       -0.3850     1.3410    -0.7880 H     1 <1>   0.0800 
 25 H       -0.0670    -0.3340    -0.4390 H     1 <1>   0.0800 
 26 H       -6.6550    -0.6320    -1.7470 H     1 <1>   0.0800 
 27 H       -6.1800     0.9590    -1.1730 H     1 <1>   0.0800 
 28 H       -7.0650    -0.1260    -0.1310 H     1 <1>   0.0800 
 29 H       -0.5090     1.8300     1.6490 H     1 <1>   0.0800 
 30 H        1.0290     1.1240     1.2200 H     1 <1>   0.0800 
 31 H       -0.1880     0.1450     1.9990 H     1 <1>   0.0800 
 32 H       -8.0410    -4.5340    -0.6730 H     1 <1>   0.1500 
 33 H       -4.9740    -6.3340     1.6770 H     1 <1>   0.1500 
 34 H       -9.2970    -6.6290    -0.6340 H     1 <1>   0.1500 
 35 H       -6.2350    -8.4270     1.7130 H     1 <1>   0.1500 
 36 H       -8.4030    -8.5870     0.5580 H     1 <1>   0.1500 
@<TRIPOS>BOND
  1   1   2  2   
  2   2   3  am  
  3   2   4  1   
  4   3   5  1   
  5   3  20  1   
  6   4   6  1   
  7   4  21  1   
  8   4  22  1   
  9   5   7  1   
 10   5   8  1   
 11   5  23  1   
 12   6   9  1   
 13   6  24  1   
 14   6  25  1   
 15   7  10  1   
 16   7  11  2   
 17   8  26  1   
 18   8  27  1   
 19   8  28  1   
 20   9  29  1   
 21   9  30  1   
 22   9  31  1   
 23  10  12  1   
 24  11  13  1   
 25  12  13  2   
 26  13  14  1   
 27  14  15  ar  
 28  14  16  ar  
 29  15  17  ar  
 30  15  32  1   
 31  16  18  ar  
 32  16  33  1   
 33  17  19  ar  
 34  17  34  1   
 35  18  19  ar  
 36  18  35  1   
 37  19  36  1   
@<TRIPOS>SUBSTRUCTURE
  1 ****   7 GROUP 4 **** **** 0

# MOE 2024.06 (io_trps.svl 2023.06)
