@<TRIPOS>MOLECULE
5-Ethyl-6,8-dimethyl-5H-[1,2,4]triazino[5,6-b]indole-3-thiol
32 34 1 0 0 
SMALL
USER_CHARGES


@<TRIPOS>ATOM
  1 S       -0.4180     1.0300    -0.4750 S.2   1 <1>  -0.3800 
  2 C       -2.0090     1.3470    -0.3860 C.2   1 <1>   0.6510 
  3 N       -2.4740     2.6100    -0.6050 N.2   1 <1>  -0.2110 
  4 N       -2.8410     0.3180    -0.0890 N.am  1 <1>  -0.4940 
  5 N       -3.7380     2.8770    -0.5410 N.2   1 <1>  -0.1250 
  6 C       -4.1800     0.5810    -0.0150 C.2   1 <1>  -0.0880 
  7 C       -4.5950     1.8650    -0.2480 C.2   1 <1>   0.1250 
  8 N       -5.2440    -0.2260     0.2530 N.pl3 1 <1>   0.0480 
  9 C       -6.0040     1.8650    -0.1220 C.ar  1 <1>   0.0000 
 10 C       -6.4000     0.5600     0.1900 C.ar  1 <1>  -0.1520 
 11 C       -5.1170    -1.6740     0.5390 C.3   1 <1>   0.0960 
 12 C       -6.9390     2.8900    -0.2560 C.ar  1 <1>  -0.1500 
 13 C       -7.7660     0.2840     0.3690 C.ar  1 <1>  -0.1440 
 14 C       -5.1270    -2.4840    -0.7610 C.3   1 <1>  -0.2400 
 15 C       -8.2750     2.6160    -0.0800 C.ar  1 <1>  -0.1430 
 16 C       -8.6750     1.3160     0.2310 C.ar  1 <1>  -0.1500 
 17 C       -8.2990    -1.0980     0.7120 C.3   1 <1>  -0.0970 
 18 C       -9.3230     3.7050    -0.2170 C.3   1 <1>  -0.0970 
 19 H       -2.4320    -0.6050     0.0560 H     1 <1>   0.3700 
 20 H       -5.9090    -1.9850     1.1900 H     1 <1>   0.0800 
 21 H       -4.1910    -1.8390     1.0610 H     1 <1>   0.0800 
 22 H       -6.5930     3.8790    -0.4970 H     1 <1>   0.1500 
 23 H       -6.0370    -2.3100    -1.3070 H     1 <1>   0.0800 
 24 H       -5.0580    -3.5340    -0.5380 H     1 <1>   0.0800 
 25 H       -4.2910    -2.2100    -1.3790 H     1 <1>   0.0800 
 26 H       -9.7260     1.1290     0.3650 H     1 <1>   0.1500 
 27 H       -7.9580    -1.8190    -0.0050 H     1 <1>   0.0800 
 28 H       -9.3740    -1.1080     0.7010 H     1 <1>   0.0800 
 29 H       -7.9770    -1.3810     1.6970 H     1 <1>   0.0800 
 30 H       -8.8670     4.6480    -0.4590 H     1 <1>   0.0800 
 31 H       -9.8630     3.8110     0.7060 H     1 <1>   0.0800 
 32 H      -10.0150     3.4490    -0.9990 H     1 <1>   0.0800 
@<TRIPOS>BOND
  1   1   2  2   
  2   2   3  1   
  3   2   4  am  
  4   3   5  2   
  5   4   6  1   
  6   4  19  1   
  7   5   7  1   
  8   6   7  2   
  9   6   8  1   
 10   7   9  1   
 11   8  10  1   
 12   8  11  1   
 13   9  10  ar  
 14   9  12  ar  
 15  10  13  ar  
 16  11  14  1   
 17  11  20  1   
 18  11  21  1   
 19  12  15  ar  
 20  12  22  1   
 21  13  16  ar  
 22  13  17  1   
 23  14  23  1   
 24  14  24  1   
 25  14  25  1   
 26  15  16  ar  
 27  15  18  1   
 28  16  26  1   
 29  17  27  1   
 30  17  28  1   
 31  17  29  1   
 32  18  30  1   
 33  18  31  1   
 34  18  32  1   
@<TRIPOS>SUBSTRUCTURE
  1 ****   9 GROUP 4 **** **** 0

# MOE 2024.06 (io_trps.svl 2023.06)
