@<TRIPOS>MOLECULE
1-(2,5-Dimethyl-phenyl)-5-oxo-pyrrolidine-3-carboxylic acid (2-ethoxy-phenyl)-am
50 52 1 0 0 
SMALL
USER_CHARGES


@<TRIPOS>ATOM
  1 O        0.1900    -0.4430     1.5760 O.2   1 <1>  -0.5700 
  2 C        1.3000    -0.3780     1.1110 C.2   1 <1>   0.5690 
  3 N        1.9500    -1.3400     0.3960 N.am  1 <1>  -0.4770 
  4 C        2.1490     0.8550     1.2550 C.3   1 <1>  -0.0990 
  5 C        1.5150    -2.6380     0.0840 C.ar  1 <1>   0.1170 
  6 C        3.2920    -0.8870    -0.0050 C.3   1 <1>   0.1400 
  7 C        3.2610     0.6300     0.2190 C.3   1 <1>  -0.0190 
  8 C        0.4570    -2.8780    -0.7960 C.ar  1 <1>  -0.1440 
  9 C        2.1750    -3.7200     0.6550 C.ar  1 <1>  -0.1500 
 10 C        4.6140     1.1700     0.6440 C.2   1 <1>   0.5690 
 11 C        0.0900    -4.1820    -1.0830 C.ar  1 <1>  -0.1500 
 12 C       -0.3090    -1.7350    -1.4500 C.3   1 <1>  -0.0970 
 13 C        1.8080    -5.0220     0.3660 C.ar  1 <1>  -0.1440 
 14 O        5.1590     0.6830     1.6040 O.2   1 <1>  -0.5700 
 15 N        5.1660     2.1800    -0.0850 N.am  1 <1>  -0.5470 
 16 C        0.7600    -5.2480    -0.5090 C.ar  1 <1>  -0.1500 
 17 C        2.5350    -6.1960     0.9960 C.3   1 <1>  -0.0970 
 18 C        6.4990     2.6080    -0.0130 C.ar  1 <1>   0.1170 
 19 C        7.5310     1.8570    -0.5830 C.ar  1 <1>   0.0830 
 20 C        6.8120     3.8010     0.6220 C.ar  1 <1>  -0.1500 
 21 O        7.2480     0.6860    -1.2070 O.3   1 <1>  -0.3630 
 22 C        8.8410     2.3050    -0.5290 C.ar  1 <1>  -0.1500 
 23 C        8.1230     4.2450     0.6820 C.ar  1 <1>  -0.1500 
 24 C        7.6410    -0.4770    -0.5180 C.3   1 <1>   0.1200 
 25 C        9.1370     3.5000     0.1060 C.ar  1 <1>  -0.1500 
 26 C        7.1020    -1.6850    -1.2780 C.3   1 <1>  -0.2400 
 27 H        2.5390     0.8850     2.2560 H     1 <1>   0.0800 
 28 H        1.5790     1.7430     1.0540 H     1 <1>   0.0800 
 29 H        3.4860    -1.1340    -1.0340 H     1 <1>   0.0800 
 30 H        4.0230    -1.3620     0.6280 H     1 <1>   0.0800 
 31 H        2.9640     1.0870    -0.7080 H     1 <1>   0.0800 
 32 H        2.9810    -3.5310     1.3390 H     1 <1>   0.1500 
 33 H       -0.7260    -4.3790    -1.7550 H     1 <1>   0.1500 
 34 H        0.3730    -1.0040    -1.8420 H     1 <1>   0.0800 
 35 H       -0.9450    -1.2650    -0.7210 H     1 <1>   0.0800 
 36 H       -0.9220    -2.0940    -2.2560 H     1 <1>   0.0800 
 37 H        4.6610     2.4990    -0.9090 H     1 <1>   0.3700 
 38 H        0.4600    -6.2540    -0.7450 H     1 <1>   0.1500 
 39 H        3.1520    -5.8690     1.8130 H     1 <1>   0.0800 
 40 H        3.1580    -6.6750     0.2620 H     1 <1>   0.0800 
 41 H        1.8250    -6.9100     1.3720 H     1 <1>   0.0800 
 42 H        6.0280     4.3810     1.0740 H     1 <1>   0.1500 
 43 H        9.6230     1.7260    -0.9850 H     1 <1>   0.1500 
 44 H        8.3540     5.1720     1.1790 H     1 <1>   0.1500 
 45 H        7.2350    -0.4370     0.4800 H     1 <1>   0.0800 
 46 H        8.7150    -0.5010    -0.4700 H     1 <1>   0.0800 
 47 H       10.1550     3.8480     0.1500 H     1 <1>   0.1500 
 48 H        6.0290    -1.6420    -1.3290 H     1 <1>   0.0800 
 49 H        7.3850    -2.5880    -0.7690 H     1 <1>   0.0800 
 50 H        7.5100    -1.7070    -2.2720 H     1 <1>   0.0800 
@<TRIPOS>BOND
  1   1   2  2   
  2   2   3  am  
  3   2   4  1   
  4   3   5  1   
  5   3   6  1   
  6   4   7  1   
  7   4  27  1   
  8   4  28  1   
  9   5   8  ar  
 10   5   9  ar  
 11   6   7  1   
 12   6  29  1   
 13   6  30  1   
 14   7  10  1   
 15   7  31  1   
 16   8  11  ar  
 17   8  12  1   
 18   9  13  ar  
 19   9  32  1   
 20  10  14  2   
 21  10  15  am  
 22  11  16  ar  
 23  11  33  1   
 24  12  34  1   
 25  12  35  1   
 26  12  36  1   
 27  13  16  ar  
 28  13  17  1   
 29  15  18  1   
 30  15  37  1   
 31  16  38  1   
 32  17  39  1   
 33  17  40  1   
 34  17  41  1   
 35  18  19  ar  
 36  18  20  ar  
 37  19  21  1   
 38  19  22  ar  
 39  20  23  ar  
 40  20  42  1   
 41  21  24  1   
 42  22  25  ar  
 43  22  43  1   
 44  23  25  ar  
 45  23  44  1   
 46  24  26  1   
 47  24  45  1   
 48  24  46  1   
 49  25  47  1   
 50  26  48  1   
 51  26  49  1   
 52  26  50  1   
@<TRIPOS>SUBSTRUCTURE
  1 ****   6 GROUP 4 **** **** 0

# MOE 2024.06 (io_trps.svl 2023.06)
