@<TRIPOS>MOLECULE
5-Ethyl-8-fluoro-3-(2-piperidin-1-yl-ethylsulfanyl)-5H-[1,2,4]triazino[5,6-b]ind
48 51 1 0 0 
SMALL
USER_CHARGES


@<TRIPOS>ATOM
  1 S       -0.6160     0.7870     1.1040 S.3   1 <1>  -0.3320 
  2 C       -2.3070     1.1210     0.6230 C.ar  1 <1>   0.7220 
  3 C       -0.4730    -1.0600     1.0490 C.3   1 <1>   0.0700 
  4 N       -2.6370     2.4310     0.5940 N.ar  1 <1>  -0.3100 
  5 N       -3.0500     0.0800     0.3410 N.ar  1 <1>  -0.5670 
  6 C        0.9590    -1.4560     1.4330 C.3   1 <1>   0.3430 
  7 N       -3.8430     2.7820     0.2530 N.ar  1 <1>  -0.2560 
  8 C       -4.2870     0.4580    -0.0030 C.ar  1 <1>   0.1050 
  9 N        1.9720    -0.6300     0.7030 N.4   1 <1>  -0.9590 
 10 C       -4.6810     1.7840    -0.0480 C.ar  1 <1>   0.2560 
 11 N       -5.3470    -0.3390    -0.3560 N.pl3 1 <1>   0.0480 
 12 C        2.0250    -0.9320    -0.7580 C.3   1 <1>   0.3430 
 13 C        3.3160    -0.7250     1.3430 C.3   1 <1>   0.3430 
 14 C       -6.0430     1.8070    -0.4470 C.ar  1 <1>   0.0000 
 15 C       -6.4310     0.4790    -0.6310 C.ar  1 <1>  -0.1520 
 16 C       -5.3370    -1.8170    -0.4150 C.3   1 <1>   0.0960 
 17 C        2.9550     0.0630    -1.4550 C.3   1 <1>  -0.1600 
 18 C        4.2700     0.2730     0.6850 C.3   1 <1>  -0.1600 
 19 C       -6.9580     2.8390    -0.6610 C.ar  1 <1>  -0.1500 
 20 C       -7.7340     0.1570    -1.0270 C.ar  1 <1>  -0.1500 
 21 C       -5.8740    -2.4120     0.8890 C.3   1 <1>  -0.2400 
 22 C        4.3570     0.0630    -0.8330 C.3   1 <1>  -0.1600 
 23 C       -8.2310     2.4960    -1.0510 C.ar  1 <1>   0.1900 
 24 C       -8.6380     1.1760    -1.2380 C.ar  1 <1>  -0.1500 
 25 F       -9.1080     3.4450    -1.2580 F     1 <1>  -0.1900 
 26 H       -0.7240    -1.3780     0.0530 H     1 <1>   0.0800 
 27 H       -1.1890    -1.4630     1.7450 H     1 <1>   0.0800 
 28 H        1.1170    -2.5030     1.2340 H     1 <1>   0.0800 
 29 H        1.0740    -1.2980     2.4930 H     1 <1>   0.0800 
 30 H        1.6620     0.3520     0.7900 H     1 <1>   0.4500 
 31 H        1.0400    -0.8570    -1.1910 H     1 <1>   0.0800 
 32 H        2.3910    -1.9350    -0.9120 H     1 <1>   0.0800 
 33 H        3.7050    -1.7240     1.2280 H     1 <1>   0.0800 
 34 H        3.2420    -0.5070     2.3960 H     1 <1>   0.0800 
 35 H       -4.3280    -2.1510    -0.5830 H     1 <1>   0.0800 
 36 H       -5.9400    -2.1360    -1.2470 H     1 <1>   0.0800 
 37 H        2.5270     1.0490    -1.3970 H     1 <1>   0.0800 
 38 H        3.0280    -0.1940    -2.4970 H     1 <1>   0.0800 
 39 H        5.2500     0.1590     1.1160 H     1 <1>   0.0800 
 40 H        3.9410     1.2750     0.8980 H     1 <1>   0.0800 
 41 H       -6.6690     3.8650    -0.5230 H     1 <1>   0.1500 
 42 H       -8.0260    -0.8700    -1.1630 H     1 <1>   0.1500 
 43 H       -5.2630    -2.1050     1.7200 H     1 <1>   0.0800 
 44 H       -5.8600    -3.4860     0.8340 H     1 <1>   0.0800 
 45 H       -6.8880    -2.0930     1.0590 H     1 <1>   0.0800 
 46 H        4.9540     0.8430    -1.2760 H     1 <1>   0.0800 
 47 H        4.8420    -0.8770    -1.0390 H     1 <1>   0.0800 
 48 H       -9.6500     0.9750    -1.5430 H     1 <1>   0.1500 
@<TRIPOS>BOND
  1   1   2  1   
  2   1   3  1   
  3   2   4  ar  
  4   2   5  ar  
  5   3   6  1   
  6   3  26  1   
  7   3  27  1   
  8   4   7  ar  
  9   5   8  ar  
 10   6   9  1   
 11   6  28  1   
 12   6  29  1   
 13   7  10  ar  
 14   8  10  ar  
 15   8  11  1   
 16   9  12  1   
 17   9  13  1   
 18   9  30  1   
 19  10  14  1   
 20  11  15  1   
 21  11  16  1   
 22  12  17  1   
 23  12  31  1   
 24  12  32  1   
 25  13  18  1   
 26  13  33  1   
 27  13  34  1   
 28  14  15  ar  
 29  14  19  ar  
 30  15  20  ar  
 31  16  21  1   
 32  16  35  1   
 33  16  36  1   
 34  17  22  1   
 35  17  37  1   
 36  17  38  1   
 37  18  22  1   
 38  18  39  1   
 39  18  40  1   
 40  19  23  ar  
 41  19  41  1   
 42  20  24  ar  
 43  20  42  1   
 44  21  43  1   
 45  21  44  1   
 46  21  45  1   
 47  22  46  1   
 48  22  47  1   
 49  23  24  ar  
 50  23  25  1   
 51  24  48  1   
@<TRIPOS>SUBSTRUCTURE
  1 ****   5 GROUP 4 **** **** 0

# MOE 2024.06 (io_trps.svl 2023.06)
