@<TRIPOS>MOLECULE
1-(3-Methoxy-benzyl)-piperidine-2-carboxylic acid
37 38 1 0 0 
SMALL
USER_CHARGES


@<TRIPOS>ATOM
  1 O        0.3200     1.4350     1.1560 O.co2 1 <1>  -0.9000 
  2 C        1.2830     1.3970     0.3900 C.2   1 <1>   0.9060 
  3 O        1.5250     2.2770    -0.4500 O.co2 1 <1>  -0.9000 
  4 C        2.3330     0.2720     0.5470 C.3   1 <1>   0.3170 
  5 N        3.7430     0.7340     0.2110 N.4   1 <1>  -0.9590 
  6 C        1.9640    -0.9250    -0.3450 C.3   1 <1>  -0.1600 
  7 C        4.7860    -0.3210     0.2400 C.3   1 <1>   0.3430 
  8 C        4.1000     1.9360     1.0120 C.3   1 <1>   0.4860 
  9 C        3.0130    -2.0430    -0.3070 C.3   1 <1>  -0.1600 
 10 C        4.3910    -1.4810    -0.6730 C.3   1 <1>  -0.1600 
 11 C        5.2980     2.5940     0.3590 C.ar  1 <1>  -0.1440 
 12 C        6.5770     2.4090     0.8600 C.ar  1 <1>  -0.1500 
 13 C        5.1110     3.3870    -0.7630 C.ar  1 <1>  -0.1500 
 14 C        7.6690     2.9950     0.2420 C.ar  1 <1>   0.0820 
 15 C        6.1970     3.9800    -1.3840 C.ar  1 <1>  -0.1500 
 16 O        8.8820     2.7480     0.7940 O.3   1 <1>  -0.3620 
 17 C        7.4750     3.7850    -0.8880 C.ar  1 <1>  -0.1500 
 18 C       10.0540     3.3450     0.2840 C.3   1 <1>   0.0400 
 19 H        2.2980    -0.0420     1.5750 H     1 <1>   0.0800 
 20 H        3.6400     1.1100    -0.7440 H     1 <1>   0.4500 
 21 H        1.8340    -0.5780    -1.3560 H     1 <1>   0.0800 
 22 H        1.0130    -1.3130    -0.0200 H     1 <1>   0.0800 
 23 H        4.9010    -0.6840     1.2480 H     1 <1>   0.0800 
 24 H        5.7290     0.0860    -0.0860 H     1 <1>   0.0800 
 25 H        4.3240     1.6600     2.0280 H     1 <1>   0.0800 
 26 H        3.2830     2.6410     1.0190 H     1 <1>   0.0800 
 27 H        2.7390    -2.8200    -1.0000 H     1 <1>   0.0800 
 28 H        3.0440    -2.4740     0.6800 H     1 <1>   0.0800 
 29 H        5.1290    -2.2590    -0.5890 H     1 <1>   0.0800 
 30 H        4.3910    -1.1420    -1.6950 H     1 <1>   0.0800 
 31 H        6.7500     1.8100     1.7360 H     1 <1>   0.1500 
 32 H        4.1170     3.5490    -1.1570 H     1 <1>   0.1500 
 33 H        6.0450     4.5950    -2.2540 H     1 <1>   0.1500 
 34 H        8.2990     4.2550    -1.3890 H     1 <1>   0.1500 
 35 H       10.8830     3.0270     0.8910 H     1 <1>   0.0800 
 36 H        9.9520     4.4150     0.3370 H     1 <1>   0.0800 
 37 H       10.1990     3.0210    -0.7310 H     1 <1>   0.0800 
@<TRIPOS>BOND
  1   1   2  ar  
  2   2   3  ar  
  3   2   4  1   
  4   4   5  1   
  5   4   6  1   
  6   4  19  1   
  7   5   7  1   
  8   5   8  1   
  9   5  20  1   
 10   6   9  1   
 11   6  21  1   
 12   6  22  1   
 13   7  10  1   
 14   7  23  1   
 15   7  24  1   
 16   8  11  1   
 17   8  25  1   
 18   8  26  1   
 19   9  10  1   
 20   9  27  1   
 21   9  28  1   
 22  10  29  1   
 23  10  30  1   
 24  11  12  ar  
 25  11  13  ar  
 26  12  14  ar  
 27  12  31  1   
 28  13  15  ar  
 29  13  32  1   
 30  14  16  1   
 31  14  17  ar  
 32  15  17  ar  
 33  15  33  1   
 34  16  18  1   
 35  17  34  1   
 36  18  35  1   
 37  18  36  1   
 38  18  37  1   
@<TRIPOS>SUBSTRUCTURE
  1 ****   8 GROUP 4 **** **** 0

# MOE 2024.06 (io_trps.svl 2023.06)
