@<TRIPOS>MOLECULE
8-Cyclohexylamino-7-(2-hydroxy-3-p-tolyloxy-propyl)-3-methyl-3,7-dihydro-purine-
61 64 1 0 0 
SMALL
USER_CHARGES


@<TRIPOS>ATOM
  1 O        1.2790     1.7610    -1.9460 O.2   1 <1>  -0.5740 
  2 C        2.3000     1.8180    -1.3020 C.2   1 <1>   0.6870 
  3 N        3.2870     0.8470    -1.3910 N.am  1 <1>  -0.4410 
  4 N        2.4810     2.8810    -0.4650 N.am  1 <1>  -0.4940 
  5 C        4.4320     1.0230    -0.6270 C.2   1 <1>   0.4220 
  6 C        3.1250    -0.3350    -2.2870 C.3   1 <1>   0.0540 
  7 C        3.6000     3.0670     0.2950 C.2   1 <1>   0.7000 
  8 N        5.5320     0.2240    -0.5780 N.pl3 1 <1>  -0.7030 
  9 C        4.6280     2.0720     0.2050 C.2   1 <1>   0.2720 
 10 O        3.6810     4.0560     0.9970 O.2   1 <1>  -0.5740 
 11 C        6.4050     0.7740     0.2610 C.cat 1 <1>   1.0690 
 12 N        5.8960     1.8890     0.7880 N.pl3 1 <1>  -0.7670 
 13 N        7.6100     0.2940     0.5120 N.pl3 1 <1>  -0.7170 
 14 C        6.4730     2.7690     1.8560 C.3   1 <1>   0.3490 
 15 C        8.2470    -0.9240    -0.0010 C.3   1 <1>   0.2420 
 16 C        7.6600     3.6130     1.3530 C.3   1 <1>   0.1940 
 17 C        9.1010    -1.5540     1.1120 C.3   1 <1>  -0.1660 
 18 C        9.0930    -0.5680    -1.2260 C.3   1 <1>  -0.1660 
 19 O        8.7260     2.7800     1.0140 O.3   1 <1>  -0.6830 
 20 C        8.1440     4.6270     2.4050 C.3   1 <1>   0.1140 
 21 C       10.2870    -2.3770     0.5730 C.3   1 <1>  -0.1660 
 22 C        9.7290    -1.8270    -1.8470 C.3   1 <1>  -0.1660 
 23 O        9.3940     5.1690     2.0180 O.3   1 <1>  -0.3670 
 24 C        9.9980    -2.9450    -0.8220 C.3   1 <1>  -0.1660 
 25 C        9.5230     5.9160     0.8930 C.ar  1 <1>   0.0760 
 26 C       10.7620     5.9150     0.2760 C.ar  1 <1>  -0.1560 
 27 C        8.4810     6.6520     0.3370 C.ar  1 <1>  -0.1560 
 28 C       10.9580     6.6180    -0.8990 C.ar  1 <1>  -0.1560 
 29 C        8.6810     7.3530    -0.8390 C.ar  1 <1>  -0.1560 
 30 C        9.9180     7.3380    -1.4640 C.ar  1 <1>  -0.1500 
 31 C       10.1370     8.1060    -2.7550 C.3   1 <1>  -0.1030 
 32 H        1.7370     3.5750    -0.4250 H     1 <1>   0.3650 
 33 H        2.1120    -0.4060    -2.6460 H     1 <1>   0.0740 
 34 H        3.3550    -1.2390    -1.7530 H     1 <1>   0.0740 
 35 H        3.7800    -0.2410    -3.1360 H     1 <1>   0.0740 
 36 H        5.7090    -0.6210    -1.1120 H     1 <1>   0.4460 
 37 H        8.2710     0.9770     0.9140 H     1 <1>   0.4460 
 38 H        6.7970     2.1640     2.6860 H     1 <1>   0.0740 
 39 H        5.7120     3.4310     2.2280 H     1 <1>   0.0740 
 40 H        7.4950    -1.6360    -0.2990 H     1 <1>   0.0740 
 41 H        7.3610     4.1460     0.4670 H     1 <1>   0.0740 
 42 H        9.4980    -0.7950     1.7650 H     1 <1>   0.0740 
 43 H        8.4700    -2.1980     1.6990 H     1 <1>   0.0740 
 44 H        9.8820     0.0990    -0.9220 H     1 <1>   0.0740 
 45 H        8.5010    -0.0700    -1.9720 H     1 <1>   0.0740 
 46 H        9.5190     3.3600     0.8970 H     1 <1>   0.3950 
 47 H        8.2940     4.1390     3.3520 H     1 <1>   0.0740 
 48 H        7.4410     5.4270     2.5480 H     1 <1>   0.0740 
 49 H       10.5140    -3.1780     1.2560 H     1 <1>   0.0740 
 50 H       11.1590    -1.7490     0.5110 H     1 <1>   0.0740 
 51 H        9.0890    -2.2180    -2.6200 H     1 <1>   0.0740 
 52 H       10.6570    -1.5440    -2.3150 H     1 <1>   0.0740 
 53 H        9.1420    -3.5950    -0.7630 H     1 <1>   0.0740 
 54 H       10.8310    -3.5410    -1.1540 H     1 <1>   0.0740 
 55 H       11.5740     5.3640     0.7150 H     1 <1>   0.1440 
 56 H        7.5160     6.7010     0.8040 H     1 <1>   0.1440 
 57 H       11.9240     6.6060    -1.3720 H     1 <1>   0.1440 
 58 H        7.8710     7.9190    -1.2660 H     1 <1>   0.1440 
 59 H       10.0240     7.4450    -3.5950 H     1 <1>   0.0740 
 60 H       11.1260     8.5270    -2.7740 H     1 <1>   0.0740 
 61 H        9.4260     8.9070    -2.8450 H     1 <1>   0.0740 
@<TRIPOS>BOND
  1   1   2  2   
  2   2   3  am  
  3   2   4  am  
  4   3   5  1   
  5   3   6  1   
  6   4   7  am  
  7   4  32  1   
  8   5   8  1   
  9   5   9  2   
 10   6  33  1   
 11   6  34  1   
 12   6  35  1   
 13   7   9  1   
 14   7  10  2   
 15   8  11  ar  
 16   8  36  1   
 17   9  12  1   
 18  11  12  ar  
 19  11  13  ar  
 20  12  14  1   
 21  13  15  1   
 22  13  37  1   
 23  14  16  1   
 24  14  38  1   
 25  14  39  1   
 26  15  17  1   
 27  15  18  1   
 28  15  40  1   
 29  16  19  1   
 30  16  20  1   
 31  16  41  1   
 32  17  21  1   
 33  17  42  1   
 34  17  43  1   
 35  18  22  1   
 36  18  44  1   
 37  18  45  1   
 38  19  46  1   
 39  20  23  1   
 40  20  47  1   
 41  20  48  1   
 42  21  24  1   
 43  21  49  1   
 44  21  50  1   
 45  22  24  1   
 46  22  51  1   
 47  22  52  1   
 48  23  25  1   
 49  24  53  1   
 50  24  54  1   
 51  25  26  ar  
 52  25  27  ar  
 53  26  28  ar  
 54  26  55  1   
 55  27  29  ar  
 56  27  56  1   
 57  28  30  ar  
 58  28  57  1   
 59  29  30  ar  
 60  29  58  1   
 61  30  31  1   
 62  31  59  1   
 63  31  60  1   
 64  31  61  1   
@<TRIPOS>SUBSTRUCTURE
  1 ****  12 GROUP 4 **** **** 0

# MOE 2024.06 (io_trps.svl 2023.06)
