@<TRIPOS>MOLECULE
8-(4-Ethoxy-phenyl)-1,7-dimethyl-3-(1-methyl-2-oxo-propyl)-1H,8H-imidazo[2,1-f]p
54 57 1 0 0 
SMALL
USER_CHARGES


@<TRIPOS>ATOM
  1 O        0.7690     0.1810     0.4250 O.2   1 <1>  -0.5740 
  2 C        1.7280     0.8250     0.0510 C.2   1 <1>   0.6870 
  3 N        1.5570     2.1070    -0.4690 N.am  1 <1>  -0.4250 
  4 N        2.9990     0.2690     0.1490 N.am  1 <1>  -0.4410 
  5 C        2.6420     2.8330    -0.9370 C.2   1 <1>   0.7000 
  6 C        0.2930     2.8590    -0.1510 C.3   1 <1>   0.2750 
  7 C        4.0780     1.0380    -0.2340 C.2   1 <1>   0.4210 
  8 C        3.1840    -1.0910     0.7370 C.3   1 <1>   0.0530 
  9 O        2.4900     3.9110    -1.4870 O.2   1 <1>  -0.5740 
 10 C        3.9430     2.2750    -0.7700 C.2   1 <1>   0.2710 
 11 C        0.0990     2.9180     1.3750 C.2   1 <1>   0.4430 
 12 C       -0.8820     2.3140    -0.9840 C.3   1 <1>  -0.2460 
 13 N        5.4060     0.7220    -0.1560 N.pl3 1 <1>  -0.7030 
 14 N        5.2420     2.7320    -1.0370 N.pl3 1 <1>  -0.6330 
 15 O        1.0390     3.1220     2.0880 O.2   1 <1>  -0.5740 
 16 C       -1.2830     2.7250     1.9670 C.3   1 <1>  -0.1860 
 17 C        6.0700     1.7730    -0.6470 C.cat 1 <1>   1.0690 
 18 C        6.0230     3.7660    -1.5180 C.2   1 <1>   0.2230 
 19 N        7.3500     2.1090    -0.8430 N.pl3 1 <1>  -0.5550 
 20 C        7.3130     3.3820    -1.3990 C.2   1 <1>   0.1580 
 21 C        8.4720     1.3220    -0.5390 C.ar  1 <1>   0.3050 
 22 C        8.5830     4.1250    -1.7740 C.3   1 <1>  -0.1090 
 23 C        9.1300     1.4770     0.6730 C.ar  1 <1>  -0.1570 
 24 C        8.9230     0.3710    -1.4430 C.ar  1 <1>  -0.1570 
 25 C       10.2200     0.6850     0.9870 C.ar  1 <1>  -0.1570 
 26 C       10.0120    -0.4220    -1.1310 C.ar  1 <1>  -0.1570 
 27 C       10.6650    -0.2740     0.0820 C.ar  1 <1>   0.0750 
 28 O       11.7190    -1.0950     0.3060 O.3   1 <1>  -0.3680 
 29 C       12.4970    -0.9910     1.4760 C.3   1 <1>   0.1130 
 30 C       13.6130    -2.0280     1.3960 C.3   1 <1>  -0.2460 
 31 H        0.4090     3.8850    -0.4510 H     1 <1>   0.0730 
 32 H        2.3220    -1.7050     0.5380 H     1 <1>   0.0730 
 33 H        3.3090    -1.0100     1.8030 H     1 <1>   0.0730 
 34 H        4.0430    -1.5770     0.3090 H     1 <1>   0.0730 
 35 H       -1.1600     1.3210    -0.6820 H     1 <1>   0.0730 
 36 H       -0.6200     2.3050    -2.0270 H     1 <1>   0.0730 
 37 H       -1.7400     2.9510    -0.8670 H     1 <1>   0.0730 
 38 H        5.8390    -0.1210     0.2160 H     1 <1>   0.4450 
 39 H       -1.6400     1.7340     1.7510 H     1 <1>   0.0730 
 40 H       -1.9660     3.4510     1.5670 H     1 <1>   0.0730 
 41 H       -1.2390     2.8450     3.0340 H     1 <1>   0.0730 
 42 H        5.5990     4.6820    -1.9020 H     1 <1>   0.1430 
 43 H        9.1420     3.5610    -2.4990 H     1 <1>   0.0730 
 44 H        9.1970     4.2720    -0.9030 H     1 <1>   0.0730 
 45 H        8.3470     5.0860    -2.1940 H     1 <1>   0.0730 
 46 H        8.7940     2.2190     1.3750 H     1 <1>   0.1430 
 47 H        8.4330     0.2480    -2.3920 H     1 <1>   0.1430 
 48 H       10.7120     0.8250     1.9330 H     1 <1>   0.1430 
 49 H       10.3710    -1.1630    -1.8260 H     1 <1>   0.1430 
 50 H       11.8640    -1.1810     2.3260 H     1 <1>   0.0730 
 51 H       12.9070     0.0030     1.5280 H     1 <1>   0.0730 
 52 H       13.1950    -3.0160     1.3290 H     1 <1>   0.0730 
 53 H       14.2240    -1.9730     2.2780 H     1 <1>   0.0730 
 54 H       14.2310    -1.8400     0.5370 H     1 <1>   0.0730 
@<TRIPOS>BOND
  1   1   2  2   
  2   2   3  am  
  3   2   4  am  
  4   3   5  am  
  5   3   6  1   
  6   4   7  1   
  7   4   8  1   
  8   5   9  2   
  9   5  10  1   
 10   6  11  1   
 11   6  12  1   
 12   6  31  1   
 13   7  10  2   
 14   7  13  1   
 15   8  32  1   
 16   8  33  1   
 17   8  34  1   
 18  10  14  1   
 19  11  15  2   
 20  11  16  1   
 21  12  35  1   
 22  12  36  1   
 23  12  37  1   
 24  13  17  ar  
 25  13  38  1   
 26  14  17  ar  
 27  14  18  1   
 28  16  39  1   
 29  16  40  1   
 30  16  41  1   
 31  17  19  ar  
 32  18  20  2   
 33  18  42  1   
 34  19  20  1   
 35  19  21  1   
 36  20  22  1   
 37  21  23  ar  
 38  21  24  ar  
 39  22  43  1   
 40  22  44  1   
 41  22  45  1   
 42  23  25  ar  
 43  23  46  1   
 44  24  26  ar  
 45  24  47  1   
 46  25  27  ar  
 47  25  48  1   
 48  26  27  ar  
 49  26  49  1   
 50  27  28  1   
 51  28  29  1   
 52  29  30  1   
 53  29  50  1   
 54  29  51  1   
 55  30  52  1   
 56  30  53  1   
 57  30  54  1   
@<TRIPOS>SUBSTRUCTURE
  1 ****  13 GROUP 4 **** **** 0

# MOE 2024.06 (io_trps.svl 2023.06)
