@<TRIPOS>MOLECULE
2-[4-(3,4-Dimethoxy-benzenesulfonyl)-piperazin-1-yl]-pyrimidine
45 47 1 0 0 
SMALL
USER_CHARGES


@<TRIPOS>ATOM
  1 S       -0.3500     0.2620    -1.6860 S.o2  1 <1>   1.4470 
  2 O       -0.1980     1.3220    -2.6580 O.2   1 <1>  -0.6500 
  3 O       -0.8550    -1.0260    -2.1110 O.2   1 <1>  -0.6500 
  4 N       -1.4080     0.8370    -0.4950 N.am  1 <1>  -0.8490 
  5 C        1.2110     0.0550    -0.7860 C.ar  1 <1>  -0.0090 
  6 C       -1.7610    -0.2030     0.4960 C.3   1 <1>   0.1960 
  7 C       -2.6410     1.3840    -1.1000 C.3   1 <1>   0.1960 
  8 C        1.8290    -1.1860    -0.6920 C.ar  1 <1>  -0.1500 
  9 C        1.8200     1.1360    -0.1610 C.ar  1 <1>  -0.1500 
 10 C       -2.6890     0.3430     1.5980 C.3   1 <1>   0.2090 
 11 C       -3.6180     1.9510    -0.0490 C.3   1 <1>   0.2090 
 12 C        3.0210    -1.3550     0.0050 C.ar  1 <1>   0.0820 
 13 C        3.0060     0.9900     0.5380 C.ar  1 <1>  -0.1500 
 14 N       -3.9270     0.9260     0.9950 N.pl3 1 <1>  -0.8380 
 15 O        3.6420    -2.5650     0.1060 O.3   1 <1>  -0.3630 
 16 C        3.6160    -0.2560     0.6290 C.ar  1 <1>   0.0820 
 17 C       -5.1550     0.3040     1.0630 C.ar  1 <1>   0.7200 
 18 C        3.1990    -3.6950    -0.6130 C.3   1 <1>   0.0400 
 19 O        4.7830    -0.4530     1.3060 O.3   1 <1>  -0.3630 
 20 N       -6.2060     0.9940     0.6240 N.ar  1 <1>  -0.6200 
 21 N       -5.1850    -0.9350     1.5550 N.ar  1 <1>  -0.6200 
 22 C        5.4950     0.6130     1.8920 C.3   1 <1>   0.0400 
 23 C       -7.3690     0.3950     0.6980 C.ar  1 <1>   0.1600 
 24 C       -6.3610    -1.5090     1.6150 C.ar  1 <1>   0.1600 
 25 C       -7.5050    -0.8780     1.1940 C.ar  1 <1>  -0.1500 
 26 H       -0.8660    -0.5810     0.9590 H     1 <1>   0.0800 
 27 H       -2.2590    -1.0270     0.0110 H     1 <1>   0.0800 
 28 H       -3.1450     0.6140    -1.6600 H     1 <1>   0.0800 
 29 H       -2.3860     2.1750    -1.7840 H     1 <1>   0.0800 
 30 H        1.3550    -2.0200    -1.1760 H     1 <1>   0.1500 
 31 H        1.3560     2.1060    -0.2260 H     1 <1>   0.1500 
 32 H       -2.1710     1.1100     2.1450 H     1 <1>   0.0800 
 33 H       -2.9240    -0.4430     2.2940 H     1 <1>   0.0800 
 34 H       -4.5100     2.2840    -0.5490 H     1 <1>   0.0800 
 35 H       -3.1720     2.8090     0.4220 H     1 <1>   0.0800 
 36 H        3.4350     1.8570     1.0020 H     1 <1>   0.1500 
 37 H        3.8860    -4.4990    -0.4230 H     1 <1>   0.0800 
 38 H        3.1930    -3.4610    -1.6630 H     1 <1>   0.0800 
 39 H        2.2160    -3.9660    -0.2700 H     1 <1>   0.0800 
 40 H        6.3890     0.2110     2.3340 H     1 <1>   0.0800 
 41 H        4.8850     1.0660     2.6520 H     1 <1>   0.0800 
 42 H        5.7540     1.3230     1.1260 H     1 <1>   0.0800 
 43 H       -8.2360     0.9330     0.3540 H     1 <1>   0.1500 
 44 H       -6.4140    -2.5090     2.0110 H     1 <1>   0.1500 
 45 H       -8.4630    -1.3580     1.2490 H     1 <1>   0.1500 
@<TRIPOS>BOND
  1   1   2  2   
  2   1   3  2   
  3   1   4  am  
  4   1   5  1   
  5   4   6  1   
  6   4   7  1   
  7   5   8  ar  
  8   5   9  ar  
  9   6  10  1   
 10   6  26  1   
 11   6  27  1   
 12   7  11  1   
 13   7  28  1   
 14   7  29  1   
 15   8  12  ar  
 16   8  30  1   
 17   9  13  ar  
 18   9  31  1   
 19  10  14  1   
 20  10  32  1   
 21  10  33  1   
 22  11  14  1   
 23  11  34  1   
 24  11  35  1   
 25  12  15  1   
 26  12  16  ar  
 27  13  16  ar  
 28  13  36  1   
 29  14  17  1   
 30  15  18  1   
 31  16  19  1   
 32  17  20  ar  
 33  17  21  ar  
 34  18  37  1   
 35  18  38  1   
 36  18  39  1   
 37  19  22  1   
 38  20  23  ar  
 39  21  24  ar  
 40  22  40  1   
 41  22  41  1   
 42  22  42  1   
 43  23  25  ar  
 44  23  43  1   
 45  24  25  ar  
 46  24  44  1   
 47  25  45  1   
@<TRIPOS>SUBSTRUCTURE
  1 ****   6 GROUP 4 **** **** 0

# MOE 2024.06 (io_trps.svl 2023.06)
