@<TRIPOS>MOLECULE
N-(2-Ethyl-2H-tetrazol-5-yl)-2-p-tolyloxy-acetamide
34 35 1 0 0 
SMALL
USER_CHARGES


@<TRIPOS>ATOM
  1 O       -0.5740    -0.8480     2.6100 O.2   1 <1>  -0.5700 
  2 C       -0.1890    -1.2840     1.5520 C.2   1 <1>   0.5690 
  3 N       -0.9780    -1.4100     0.4520 N.am  1 <1>  -0.4930 
  4 C        1.2670    -1.7180     1.4510 C.3   1 <1>   0.1810 
  5 C       -2.3120    -1.1020     0.2460 C.2   1 <1>   0.5790 
  6 O        1.5710    -2.2110     0.1520 O.3   1 <1>  -0.3630 
  7 N       -3.1390    -0.5840     1.1520 N.2   1 <1>  -0.2270 
  8 N       -2.8400    -1.3180    -0.8970 N.2   1 <1>  -0.7070 
  9 C        2.8160    -2.6520    -0.1550 C.ar  1 <1>   0.0830 
 10 N       -4.2630    -0.4560     0.5620 N.2   1 <1>  -0.4180 
 11 N       -4.0720    -0.8980    -0.6690 N.pl3 1 <1>   0.5800 
 12 C        3.8800    -2.6630     0.7430 C.ar  1 <1>  -0.1500 
 13 C        3.0140    -3.1140    -1.4460 C.ar  1 <1>  -0.1500 
 14 C       -5.1350    -0.9260    -1.6950 C.3   1 <1>   0.0960 
 15 C        5.1190    -3.1320     0.3430 C.ar  1 <1>  -0.1500 
 16 C        4.2540    -3.5830    -1.8420 C.ar  1 <1>  -0.1500 
 17 C       -5.0860     0.3160    -2.5970 C.3   1 <1>  -0.2400 
 18 C        5.3130    -3.5960    -0.9480 C.ar  1 <1>  -0.1430 
 19 C        6.6750    -4.1080    -1.3830 C.3   1 <1>  -0.0970 
 20 H       -0.5320    -1.7930    -0.3780 H     1 <1>   0.3700 
 21 H        1.4530    -2.5000     2.1640 H     1 <1>   0.0800 
 22 H        1.9020    -0.8760     1.6530 H     1 <1>   0.0800 
 23 H        3.7700    -2.3130     1.7520 H     1 <1>   0.1500 
 24 H        2.1940    -3.1060    -2.1410 H     1 <1>   0.1500 
 25 H       -6.0840    -0.9800    -1.1940 H     1 <1>   0.0800 
 26 H       -5.0060    -1.8160    -2.2840 H     1 <1>   0.0800 
 27 H        5.9370    -3.1360     1.0430 H     1 <1>   0.1500 
 28 H        4.3910    -3.9370    -2.8480 H     1 <1>   0.1500 
 29 H       -5.2230     1.2090    -2.0110 H     1 <1>   0.0800 
 30 H       -5.8690     0.2660    -3.3320 H     1 <1>   0.0800 
 31 H       -4.1400     0.3680    -3.1090 H     1 <1>   0.0800 
 32 H        6.5680    -4.8680    -2.1360 H     1 <1>   0.0800 
 33 H        7.2020    -4.5320    -0.5480 H     1 <1>   0.0800 
 34 H        7.2560    -3.2990    -1.7870 H     1 <1>   0.0800 
@<TRIPOS>BOND
  1   1   2  2   
  2   2   3  am  
  3   2   4  1   
  4   3   5  1   
  5   3  20  1   
  6   4   6  1   
  7   4  21  1   
  8   4  22  1   
  9   5   7  1   
 10   5   8  2   
 11   6   9  1   
 12   7  10  2   
 13   8  11  1   
 14   9  12  ar  
 15   9  13  ar  
 16  10  11  1   
 17  11  14  1   
 18  12  15  ar  
 19  12  23  1   
 20  13  16  ar  
 21  13  24  1   
 22  14  17  1   
 23  14  25  1   
 24  14  26  1   
 25  15  18  ar  
 26  15  27  1   
 27  16  18  ar  
 28  16  28  1   
 29  17  29  1   
 30  17  30  1   
 31  17  31  1   
 32  18  19  1   
 33  19  32  1   
 34  19  33  1   
 35  19  34  1   
@<TRIPOS>SUBSTRUCTURE
  1 ****   6 GROUP 4 **** **** 0

# MOE 2024.06 (io_trps.svl 2023.06)
