@<TRIPOS>MOLECULE
3,4-Diethoxy-N-[2-(5-methyl-1H-indol-3-yl)-ethyl]-benzamide
53 55 1 0 0 
SMALL
USER_CHARGES


@<TRIPOS>ATOM
  1 O       -0.2750     0.2550    -1.3150 O.2   1 <1>  -0.5700 
  2 C       -0.1240    -0.6650    -0.5350 C.2   1 <1>   0.5440 
  3 N        0.9360    -0.6230     0.3290 N.am  1 <1>  -0.7300 
  4 C       -1.0570    -1.7780    -0.5090 C.ar  1 <1>   0.0860 
  5 C        1.9700     0.4410     0.3810 C.3   1 <1>   0.1400 
  6 C       -0.6920    -3.0390    -0.0380 C.ar  1 <1>  -0.1500 
  7 C       -2.3670    -1.6290    -0.9590 C.ar  1 <1>  -0.1500 
  8 C        3.3410    -0.1450     0.0400 C.3   1 <1>   0.0210 
  9 C       -1.5750    -4.1020     0.0050 C.ar  1 <1>   0.0820 
 10 C       -3.2720    -2.6730    -0.9240 C.ar  1 <1>  -0.1500 
 11 C        4.4590     0.8730     0.1880 C.2   1 <1>  -0.1810 
 12 O       -1.0360    -5.2550     0.4940 O.3   1 <1>  -0.3630 
 13 C       -2.8990    -3.9230    -0.4350 C.ar  1 <1>   0.0820 
 14 C        5.8270     0.5380     0.0630 C.ar  1 <1>   0.0000 
 15 C        4.3890     2.2020     0.4480 C.2   1 <1>  -0.3020 
 16 C       -1.5720    -6.5250     0.2020 C.3   1 <1>   0.1200 
 17 O       -3.7910    -4.9490    -0.3670 O.3   1 <1>  -0.3630 
 18 C        6.5420     1.7130     0.2630 C.ar  1 <1>  -0.1520 
 19 C        6.5170    -0.6510    -0.2000 C.ar  1 <1>  -0.1500 
 20 N        5.6490     2.7260     0.4960 N.pl3 1 <1>   0.0330 
 21 C       -0.5250    -7.5740     0.5600 C.3   1 <1>  -0.2400 
 22 C       -5.1440    -4.8140    -0.7350 C.3   1 <1>   0.1200 
 23 C        7.9370     1.7220     0.2070 C.ar  1 <1>  -0.1500 
 24 C        7.8930    -0.6490    -0.2560 C.ar  1 <1>  -0.1430 
 25 C       -5.8300    -6.1550    -0.4950 C.3   1 <1>  -0.2400 
 26 C        8.6000     0.5440    -0.0510 C.ar  1 <1>  -0.1500 
 27 C        8.6670    -1.9230    -0.5400 C.3   1 <1>  -0.0970 
 28 H        1.0040    -1.3390     1.0540 H     1 <1>   0.3700 
 29 H        1.9910     0.8630     1.3710 H     1 <1>   0.0800 
 30 H        1.7330     1.2260    -0.3170 H     1 <1>   0.0800 
 31 H        0.3130    -3.2110     0.2970 H     1 <1>   0.1500 
 32 H       -2.6760    -0.6710    -1.3420 H     1 <1>   0.1500 
 33 H        3.3290    -0.5020    -0.9740 H     1 <1>   0.0800 
 34 H        3.5460    -0.9710     0.6960 H     1 <1>   0.0800 
 35 H       -4.2660    -2.4860    -1.2830 H     1 <1>   0.1500 
 36 H        3.5200     2.8190     0.6010 H     1 <1>   0.1500 
 37 H       -1.8100    -6.5640    -0.8480 H     1 <1>   0.0800 
 38 H       -2.4620    -6.6610     0.7910 H     1 <1>   0.0800 
 39 H        5.9520    -1.5510    -0.3550 H     1 <1>   0.1500 
 40 H        5.8990     3.7040     0.6680 H     1 <1>   0.2700 
 41 H        0.3660    -7.4210    -0.0220 H     1 <1>   0.0800 
 42 H       -0.9090    -8.5560     0.3500 H     1 <1>   0.0800 
 43 H       -0.2870    -7.5150     1.6070 H     1 <1>   0.0800 
 44 H       -5.1900    -4.5440    -1.7760 H     1 <1>   0.0800 
 45 H       -5.5880    -4.0450    -0.1270 H     1 <1>   0.0800 
 46 H        8.4770     2.6380     0.3640 H     1 <1>   0.1500 
 47 H       -5.3690    -6.9190    -1.0950 H     1 <1>   0.0800 
 48 H       -6.8690    -6.0870    -0.7660 H     1 <1>   0.0800 
 49 H       -5.7630    -6.4240     0.5440 H     1 <1>   0.0800 
 50 H        9.6740     0.5320    -0.0970 H     1 <1>   0.1500 
 51 H        8.0010    -2.7540    -0.6790 H     1 <1>   0.0800 
 52 H        9.3220    -2.1420     0.2840 H     1 <1>   0.0800 
 53 H        9.2560    -1.8010    -1.4310 H     1 <1>   0.0800 
@<TRIPOS>BOND
  1   1   2  2   
  2   2   3  am  
  3   2   4  1   
  4   3   5  1   
  5   3  28  1   
  6   4   6  ar  
  7   4   7  ar  
  8   5   8  1   
  9   5  29  1   
 10   5  30  1   
 11   6   9  ar  
 12   6  31  1   
 13   7  10  ar  
 14   7  32  1   
 15   8  11  1   
 16   8  33  1   
 17   8  34  1   
 18   9  12  1   
 19   9  13  ar  
 20  10  13  ar  
 21  10  35  1   
 22  11  14  1   
 23  11  15  2   
 24  12  16  1   
 25  13  17  1   
 26  14  18  ar  
 27  14  19  ar  
 28  15  20  1   
 29  15  36  1   
 30  16  21  1   
 31  16  37  1   
 32  16  38  1   
 33  17  22  1   
 34  18  20  1   
 35  18  23  ar  
 36  19  24  ar  
 37  19  39  1   
 38  20  40  1   
 39  21  41  1   
 40  21  42  1   
 41  21  43  1   
 42  22  25  1   
 43  22  44  1   
 44  22  45  1   
 45  23  26  ar  
 46  23  46  1   
 47  24  26  ar  
 48  24  27  1   
 49  25  47  1   
 50  25  48  1   
 51  25  49  1   
 52  26  50  1   
 53  27  51  1   
 54  27  52  1   
 55  27  53  1   
@<TRIPOS>SUBSTRUCTURE
  1 ****   3 GROUP 4 **** **** 0

# MOE 2024.06 (io_trps.svl 2023.06)
