@<TRIPOS>MOLECULE
N-Cyclohexyl-2-[4-ethyl-5-(7-methoxy-benzofuran-2-yl)-4H-[1,2,4]triazol-3-ylsulf
55 58 1 0 0 
SMALL
USER_CHARGES


@<TRIPOS>ATOM
  1 S       -2.1790    -0.9120     0.6660 S.3   1 <1>  -0.2860 
  2 C       -1.5410     0.7500     0.4200 C.2   1 <1>   0.2420 
  3 C       -2.8220    -1.4060    -1.0010 C.3   1 <1>   0.1310 
  4 N       -0.2860     1.0090     0.4860 N.2   1 <1>  -0.3380 
  5 N       -2.2980     1.8210     0.1810 N.pl3 1 <1>   0.0480 
  6 C       -4.3120    -1.7000    -0.9130 C.2   1 <1>   0.5690 
  7 N       -0.1760     2.3200     0.2920 N.2   1 <1>  -0.3380 
  8 C       -1.3760     2.8120     0.1310 C.2   1 <1>   0.1860 
  9 C       -3.7740     1.8900     0.0390 C.3   1 <1>   0.0960 
 10 O       -5.0860    -0.8870    -1.3510 O.2   1 <1>  -0.5700 
 11 N       -4.7880    -2.8400    -0.3580 N.am  1 <1>  -0.7300 
 12 C       -1.6310     4.2200    -0.0530 C.2   1 <1>   0.1400 
 13 C       -4.1830     2.1590    -1.4160 C.3   1 <1>  -0.2400 
 14 C       -4.0540    -3.9170     0.3270 C.3   1 <1>   0.2200 
 15 O       -2.8670     4.7250     0.0390 O.3   1 <1>  -0.2800 
 16 C       -0.7580     5.2230    -0.3120 C.2   1 <1>  -0.1500 
 17 C       -4.3670    -5.2470    -0.3640 C.3   1 <1>  -0.1600 
 18 C       -4.4750    -3.9430     1.7990 C.3   1 <1>  -0.1600 
 19 C       -2.8090     6.0480    -0.1680 C.ar  1 <1>   0.1400 
 20 C       -1.4940     6.4150    -0.3940 C.ar  1 <1>   0.0000 
 21 C       -3.7080    -6.4230     0.3730 C.3   1 <1>  -0.1600 
 22 C       -3.8170    -5.1140     2.5430 C.3   1 <1>  -0.1600 
 23 C       -3.8390     7.0010    -0.1780 C.ar  1 <1>   0.0830 
 24 C       -1.1670     7.7510    -0.6370 C.ar  1 <1>  -0.1500 
 25 C       -4.1190    -6.4500     1.8520 C.3   1 <1>  -0.1600 
 26 O       -5.1610     6.7450     0.0310 O.3   1 <1>  -0.3630 
 27 C       -3.4990     8.3190    -0.4200 C.ar  1 <1>  -0.1500 
 28 C       -2.1730     8.6930    -0.6480 C.ar  1 <1>  -0.1500 
 29 C       -5.6310     5.4430     0.2910 C.3   1 <1>   0.0400 
 30 H       -2.2740    -2.2740    -1.3130 H     1 <1>   0.0800 
 31 H       -2.6300    -0.5950    -1.6770 H     1 <1>   0.0800 
 32 H       -4.1490     2.6660     0.6800 H     1 <1>   0.0800 
 33 H       -4.2070     0.9620     0.3690 H     1 <1>   0.0800 
 34 H       -5.8050    -2.9380    -0.3500 H     1 <1>   0.3700 
 35 H       -3.8010     1.3940    -2.0660 H     1 <1>   0.0800 
 36 H       -3.8250     3.1150    -1.7520 H     1 <1>   0.0800 
 37 H       -5.2550     2.1530    -1.4930 H     1 <1>   0.0800 
 38 H       -2.9930    -3.7390     0.2750 H     1 <1>   0.0800 
 39 H        0.3070     5.1470    -0.4340 H     1 <1>   0.1500 
 40 H       -4.0090    -5.2190    -1.3780 H     1 <1>   0.0800 
 41 H       -5.4320    -5.4020    -0.3830 H     1 <1>   0.0800 
 42 H       -5.5440    -4.0420     1.8680 H     1 <1>   0.0800 
 43 H       -4.1880    -3.0180     2.2690 H     1 <1>   0.0800 
 44 H       -2.6370    -6.3330     0.3040 H     1 <1>   0.0800 
 45 H       -3.9920    -7.3490    -0.0970 H     1 <1>   0.0800 
 46 H       -4.1740    -5.1430     3.5580 H     1 <1>   0.0800 
 47 H       -2.7510    -4.9620     2.5750 H     1 <1>   0.0800 
 48 H       -0.1420     8.0250    -0.8110 H     1 <1>   0.1500 
 49 H       -3.5950    -7.2440     2.3570 H     1 <1>   0.0800 
 50 H       -5.1740    -6.6570     1.9240 H     1 <1>   0.0800 
 51 H       -4.2720     9.0660    -0.4330 H     1 <1>   0.1500 
 52 H       -1.9430     9.7290    -0.8340 H     1 <1>   0.1500 
 53 H       -6.6960     5.4920     0.4290 H     1 <1>   0.0800 
 54 H       -5.1620     5.0760     1.1870 H     1 <1>   0.0800 
 55 H       -5.4000     4.8160    -0.5510 H     1 <1>   0.0800 
@<TRIPOS>BOND
  1   1   2  1   
  2   1   3  1   
  3   2   4  2   
  4   2   5  1   
  5   3   6  1   
  6   3  30  1   
  7   3  31  1   
  8   4   7  1   
  9   5   8  1   
 10   5   9  1   
 11   6  10  2   
 12   6  11  am  
 13   7   8  2   
 14   8  12  1   
 15   9  13  1   
 16   9  32  1   
 17   9  33  1   
 18  11  14  1   
 19  11  34  1   
 20  12  15  1   
 21  12  16  2   
 22  13  35  1   
 23  13  36  1   
 24  13  37  1   
 25  14  17  1   
 26  14  18  1   
 27  14  38  1   
 28  15  19  1   
 29  16  20  1   
 30  16  39  1   
 31  17  21  1   
 32  17  40  1   
 33  17  41  1   
 34  18  22  1   
 35  18  42  1   
 36  18  43  1   
 37  19  20  ar  
 38  19  23  ar  
 39  20  24  ar  
 40  21  25  1   
 41  21  44  1   
 42  21  45  1   
 43  22  25  1   
 44  22  46  1   
 45  22  47  1   
 46  23  26  1   
 47  23  27  ar  
 48  24  28  ar  
 49  24  48  1   
 50  25  49  1   
 51  25  50  1   
 52  26  29  1   
 53  27  28  ar  
 54  27  51  1   
 55  28  52  1   
 56  29  53  1   
 57  29  54  1   
 58  29  55  1   
@<TRIPOS>SUBSTRUCTURE
  1 ****   9 GROUP 4 **** **** 0

# MOE 2024.06 (io_trps.svl 2023.06)
