@<TRIPOS>MOLECULE
N-(3-Cyano-4,5,6,7-tetrahydro-benzo[b]thiophen-2-yl)-2-(4-methyl-piperidin-1-yl)
46 48 1 0 0 
SMALL
USER_CHARGES


@<TRIPOS>ATOM
  1 S       -0.1680    -0.2610    -0.4330 S.3   1 <1>  -0.0800 
  2 C        0.8330     1.1590    -0.1200 C.2   1 <1>   0.1040 
  3 C       -1.6370     0.6800    -0.2740 C.2   1 <1>  -0.1400 
  4 N        2.2300     1.0440    -0.0950 N.am  1 <1>  -0.4940 
  5 C        0.0440     2.2470     0.0980 C.2   1 <1>   0.0190 
  6 C       -1.3610     1.9600     0.0110 C.2   1 <1>  -0.1810 
  7 C       -2.9910     0.0300    -0.4550 C.3   1 <1>   0.0200 
  8 C        3.0480     0.0510    -0.5790 C.2   1 <1>   0.5690 
  9 C        0.5580     3.5480     0.3880 C.1   1 <1>   0.5380 
 10 C       -2.4730     2.9830     0.2070 C.3   1 <1>   0.0210 
 11 C       -4.0610     1.1290    -0.5840 C.3   1 <1>  -0.1600 
 12 O        2.6630    -0.8660    -1.2640 O.2   1 <1>  -0.5700 
 13 C        4.5510     0.0730    -0.2490 C.3   1 <1>   0.4040 
 14 N        1.0530     4.5470     0.6280 N.1   1 <1>  -0.5570 
 15 C       -3.8320     2.2830     0.4150 C.3   1 <1>  -0.1600 
 16 N        5.2030    -1.2870    -0.3610 N.4   1 <1>  -0.9590 
 17 C        4.7090    -2.2290     0.6880 C.3   1 <1>   0.3430 
 18 C        6.6900    -1.2160    -0.4190 C.3   1 <1>   0.3430 
 19 C        5.2550    -3.6310     0.4180 C.3   1 <1>  -0.1600 
 20 C        7.2600    -2.6060    -0.7040 C.3   1 <1>  -0.1600 
 21 C        6.7880    -3.6380     0.3310 C.3   1 <1>  -0.0800 
 22 C        7.3010    -5.0360    -0.0300 C.3   1 <1>  -0.2400 
 23 H        2.6940     1.8580     0.3160 H     1 <1>   0.3700 
 24 H       -3.1960    -0.5900     0.4000 H     1 <1>   0.0800 
 25 H       -2.9920    -0.5890    -1.3350 H     1 <1>   0.0800 
 26 H       -2.5230     3.6130    -0.6640 H     1 <1>   0.0800 
 27 H       -2.2650     3.6040     1.0610 H     1 <1>   0.0800 
 28 H       -5.0350     0.6980    -0.4320 H     1 <1>   0.0800 
 29 H       -4.0300     1.5270    -1.5840 H     1 <1>   0.0800 
 30 H        4.6870     0.4580     0.7470 H     1 <1>   0.0800 
 31 H        5.0240     0.7490    -0.9400 H     1 <1>   0.0800 
 32 H       -4.6230     3.0070     0.3220 H     1 <1>   0.0800 
 33 H       -3.8690     1.8850     1.4150 H     1 <1>   0.0800 
 34 H        4.8580    -1.6810    -1.2540 H     1 <1>   0.4500 
 35 H        3.6300    -2.2640     0.6760 H     1 <1>   0.0800 
 36 H        5.0320    -1.8990     1.6620 H     1 <1>   0.0800 
 37 H        7.0770    -0.8570     0.5210 H     1 <1>   0.0800 
 38 H        7.0000    -0.5380    -1.1980 H     1 <1>   0.0800 
 39 H        4.8270    -4.0060    -0.4960 H     1 <1>   0.0800 
 40 H        4.9380    -4.2850     1.2110 H     1 <1>   0.0800 
 41 H        8.3350    -2.5500    -0.6880 H     1 <1>   0.0800 
 42 H        6.9700    -2.9120    -1.6940 H     1 <1>   0.0800 
 43 H        7.1910    -3.3710     1.2950 H     1 <1>   0.0800 
 44 H        6.9250    -5.3510    -0.9880 H     1 <1>   0.0800 
 45 H        6.9890    -5.7520     0.7100 H     1 <1>   0.0800 
 46 H        8.3770    -5.0440    -0.0670 H     1 <1>   0.0800 
@<TRIPOS>BOND
  1   1   2  1   
  2   1   3  1   
  3   2   4  1   
  4   2   5  2   
  5   3   6  2   
  6   3   7  1   
  7   4   8  am  
  8   4  23  1   
  9   5   6  1   
 10   5   9  1   
 11   6  10  1   
 12   7  11  1   
 13   7  24  1   
 14   7  25  1   
 15   8  12  2   
 16   8  13  1   
 17   9  14  3   
 18  10  15  1   
 19  10  26  1   
 20  10  27  1   
 21  11  15  1   
 22  11  28  1   
 23  11  29  1   
 24  13  16  1   
 25  13  30  1   
 26  13  31  1   
 27  15  32  1   
 28  15  33  1   
 29  16  17  1   
 30  16  18  1   
 31  16  34  1   
 32  17  19  1   
 33  17  35  1   
 34  17  36  1   
 35  18  20  1   
 36  18  37  1   
 37  18  38  1   
 38  19  21  1   
 39  19  39  1   
 40  19  40  1   
 41  20  21  1   
 42  20  41  1   
 43  20  42  1   
 44  21  22  1   
 45  21  43  1   
 46  22  44  1   
 47  22  45  1   
 48  22  46  1   
@<TRIPOS>SUBSTRUCTURE
  1 ****   4 GROUP 4 **** **** 0

# MOE 2024.06 (io_trps.svl 2023.06)
