@<TRIPOS>MOLECULE
2-Ethoxy-6-(4-methoxy-phenyl)-3-(5-propyl-[1,2,4]oxadiazol-3-yl)-pyridine
46 48 1 0 0 
SMALL
USER_CHARGES


@<TRIPOS>ATOM
  1 O       -0.5610    -0.0290    -1.2590 O.3   1 <1>  -0.0190 
  2 N       -1.4720    -0.9450    -1.3580 N.2   1 <1>  -0.4100 
  3 C       -1.1630     0.9570    -0.6470 C.2   1 <1>   0.2980 
  4 C       -2.5450    -0.4960    -0.8100 C.2   1 <1>   0.4620 
  5 N       -2.3790     0.7470    -0.3460 N.2   1 <1>  -0.5650 
  6 C       -0.3540     2.2170    -0.3730 C.3   1 <1>   0.0200 
  7 C       -3.8170    -1.1730    -0.7070 C.ar  1 <1>   0.0540 
  8 C       -1.1540     3.3190     0.3430 C.3   1 <1>  -0.1600 
  9 C       -3.9360    -2.5140    -0.3190 C.ar  1 <1>   0.3920 
 10 C       -4.9940    -0.4970    -0.9950 C.ar  1 <1>  -0.1500 
 11 C       -0.2990     4.5660     0.5960 C.3   1 <1>  -0.2400 
 12 O       -2.8070    -3.1790     0.0090 O.3   1 <1>  -0.3630 
 13 N       -5.0820    -3.1830    -0.2320 N.ar  1 <1>  -0.6200 
 14 C       -6.1830    -1.1820    -0.8990 C.ar  1 <1>  -0.1500 
 15 C       -2.8280    -4.5340     0.4040 C.3   1 <1>   0.1200 
 16 C       -6.2010    -2.5200    -0.5160 C.ar  1 <1>   0.3100 
 17 C       -1.3920    -4.9640     0.6890 C.3   1 <1>  -0.2400 
 18 C       -7.4590    -3.2300    -0.4210 C.ar  1 <1>   0.0000 
 19 C       -8.5540    -2.6890     0.2550 C.ar  1 <1>  -0.1500 
 20 C       -7.6210    -4.4850    -1.0070 C.ar  1 <1>  -0.1500 
 21 C       -9.7600    -3.3610     0.3330 C.ar  1 <1>  -0.1500 
 22 C       -8.8240    -5.1630    -0.9330 C.ar  1 <1>  -0.1500 
 23 C       -9.9040    -4.6090    -0.2660 C.ar  1 <1>   0.0830 
 24 O      -11.0470    -5.3330    -0.2400 O.3   1 <1>  -0.3620 
 25 C      -12.2000    -4.8710     0.4270 C.3   1 <1>   0.0400 
 26 H        0.0100     2.5930    -1.3120 H     1 <1>   0.0800 
 27 H        0.4950     1.9460     0.2280 H     1 <1>   0.0800 
 28 H       -1.5190     2.9400     1.2830 H     1 <1>   0.0800 
 29 H       -2.0060     3.5870    -0.2580 H     1 <1>   0.0800 
 30 H       -4.9700     0.5380    -1.2900 H     1 <1>   0.1500 
 31 H        0.5470     4.3260     1.2160 H     1 <1>   0.0800 
 32 H       -0.8850     5.3160     1.0960 H     1 <1>   0.0800 
 33 H        0.0570     4.9760    -0.3330 H     1 <1>   0.0800 
 34 H       -7.1080    -0.6860    -1.1270 H     1 <1>   0.1500 
 35 H       -3.2540    -5.1150    -0.3960 H     1 <1>   0.0800 
 36 H       -3.4400    -4.6220     1.2860 H     1 <1>   0.0800 
 37 H       -0.7920    -4.8520    -0.1970 H     1 <1>   0.0800 
 38 H       -1.3740    -5.9960     0.9890 H     1 <1>   0.0800 
 39 H       -0.9780    -4.3660     1.4810 H     1 <1>   0.0800 
 40 H       -8.4560    -1.7300     0.7320 H     1 <1>   0.1500 
 41 H       -6.7890    -4.9290    -1.5240 H     1 <1>   0.1500 
 42 H      -10.5740    -2.9050     0.8640 H     1 <1>   0.1500 
 43 H       -8.9340    -6.1290    -1.3910 H     1 <1>   0.1500 
 44 H      -12.9700    -5.6130     0.3150 H     1 <1>   0.0800 
 45 H      -12.5160    -3.9460    -0.0230 H     1 <1>   0.0800 
 46 H      -11.9700    -4.7360     1.4690 H     1 <1>   0.0800 
@<TRIPOS>BOND
  1   1   2  1   
  2   1   3  1   
  3   2   4  2   
  4   3   5  2   
  5   3   6  1   
  6   4   5  1   
  7   4   7  1   
  8   6   8  1   
  9   6  26  1   
 10   6  27  1   
 11   7   9  ar  
 12   7  10  ar  
 13   8  11  1   
 14   8  28  1   
 15   8  29  1   
 16   9  12  1   
 17   9  13  ar  
 18  10  14  ar  
 19  10  30  1   
 20  11  31  1   
 21  11  32  1   
 22  11  33  1   
 23  12  15  1   
 24  13  16  ar  
 25  14  16  ar  
 26  14  34  1   
 27  15  17  1   
 28  15  35  1   
 29  15  36  1   
 30  16  18  1   
 31  17  37  1   
 32  17  38  1   
 33  17  39  1   
 34  18  19  ar  
 35  18  20  ar  
 36  19  21  ar  
 37  19  40  1   
 38  20  22  ar  
 39  20  41  1   
 40  21  23  ar  
 41  21  42  1   
 42  22  23  ar  
 43  22  43  1   
 44  23  24  1   
 45  24  25  1   
 46  25  44  1   
 47  25  45  1   
 48  25  46  1   
@<TRIPOS>SUBSTRUCTURE
  1 ****   9 GROUP 4 **** **** 0

# MOE 2024.06 (io_trps.svl 2023.06)
