@<TRIPOS>MOLECULE
2-(4-Morpholin-4-yl-2,3-dihydro-1H-6-thia-5,8,10-triaza-cyclopenta[c]fluoren-7-y
48 52 1 0 0 
SMALL
USER_CHARGES


@<TRIPOS>ATOM
  1 S       -0.5950    -0.3320    -0.0370 S.3   1 <1>  -0.0800 
  2 C       -2.0750     0.6240    -0.1810 C.ar  1 <1>   0.2970 
  3 C        0.4170     1.1200     0.1270 C.ar  1 <1>   0.0400 
  4 N       -3.2420     0.0380    -0.3350 N.ar  1 <1>  -0.5670 
  5 C       -1.7810     1.9840    -0.1050 C.ar  1 <1>   0.0000 
  6 C        1.8030     1.2260     0.2950 C.ar  1 <1>   0.4100 
  7 C       -0.3810     2.2320     0.0700 C.ar  1 <1>   0.3070 
  8 C       -4.2670     0.8810    -0.4280 C.ar  1 <1>   0.4100 
  9 C       -2.8700     2.8460    -0.2120 C.ar  1 <1>  -0.1430 
 10 N        2.3570     2.4410     0.4080 N.ar  1 <1>  -0.6200 
 11 N        2.6930     0.2270     0.3600 N.pl3 1 <1>  -0.8690 
 12 N        0.2370     3.4310     0.1890 N.ar  1 <1>  -0.1250 
 13 N       -5.5180     0.3360    -0.5800 N.pl3 1 <1>  -0.8380 
 14 C       -4.0990     2.2740    -0.3690 C.ar  1 <1>  -0.1430 
 15 C       -2.9650     4.3570    -0.1930 C.3   1 <1>  -0.0170 
 16 C        1.5800     3.4870     0.3530 C.ar  1 <1>   0.5210 
 17 C        2.4830    -1.2410     0.2410 C.3   1 <1>   0.2090 
 18 C       -6.4210     0.2790     0.6070 C.3   1 <1>   0.2090 
 19 C       -5.7110    -0.8270    -1.5010 C.3   1 <1>   0.2090 
 20 C       -5.1860     3.3160    -0.4800 C.3   1 <1>  -0.0170 
 21 C       -4.4090     4.6320    -0.6460 C.3   1 <1>  -0.1600 
 22 C        3.8210    -1.9840     0.3050 C.3   1 <1>   0.1200 
 23 C       -6.3970    -1.1170     1.2580 C.3   1 <1>   0.1200 
 24 C       -5.7390    -2.1590    -0.7280 C.3   1 <1>   0.1200 
 25 O        3.5990    -3.3510     0.2200 O.3   1 <1>  -0.6800 
 26 O       -6.6730    -2.1150     0.3150 O.3   1 <1>  -0.5600 
 27 H        3.6730     0.5050     0.4790 H     1 <1>   0.4000 
 28 H       -0.3170     4.2870     0.1550 H     1 <1>   0.4570 
 29 H       -2.2710     4.8190    -0.8720 H     1 <1>   0.0800 
 30 H       -2.8200     4.7230     0.8090 H     1 <1>   0.0800 
 31 H        2.0380     4.4610     0.4440 H     1 <1>   0.1500 
 32 H        2.0080    -1.4590    -0.7010 H     1 <1>   0.0800 
 33 H        1.8500    -1.5740     1.0460 H     1 <1>   0.0800 
 34 H       -7.4260     0.5100     0.3000 H     1 <1>   0.0800 
 35 H       -6.1170     1.0110     1.3340 H     1 <1>   0.0800 
 36 H       -4.9180    -0.8530    -2.2280 H     1 <1>   0.0800 
 37 H       -6.6390    -0.7070    -2.0310 H     1 <1>   0.0800 
 38 H       -5.7720     3.3280     0.4210 H     1 <1>   0.0800 
 39 H       -5.8260     3.1240    -1.3250 H     1 <1>   0.0800 
 40 H       -4.4060     4.8980    -1.6900 H     1 <1>   0.0800 
 41 H       -4.8620     5.4320    -0.0870 H     1 <1>   0.0800 
 42 H        4.3350    -1.7830     1.2290 H     1 <1>   0.0800 
 43 H        4.4410    -1.7040    -0.5280 H     1 <1>   0.0800 
 44 H       -7.1430    -1.1790     2.0300 H     1 <1>   0.0800 
 45 H       -5.4310    -1.3100     1.6900 H     1 <1>   0.0800 
 46 H       -4.7680    -2.3690    -0.3140 H     1 <1>   0.0800 
 47 H       -6.0160    -2.9630    -1.3850 H     1 <1>   0.0800 
 48 H        3.2490    -3.7100     1.0600 H     1 <1>   0.4000 
@<TRIPOS>BOND
  1   1   2  1   
  2   1   3  1   
  3   2   4  ar  
  4   2   5  ar  
  5   3   6  ar  
  6   3   7  ar  
  7   4   8  ar  
  8   5   7  1   
  9   5   9  ar  
 10   6  10  ar  
 11   6  11  1   
 12   7  12  ar  
 13   8  13  1   
 14   8  14  ar  
 15   9  14  ar  
 16   9  15  1   
 17  10  16  ar  
 18  11  17  1   
 19  11  27  1   
 20  12  16  ar  
 21  12  28  1   
 22  13  18  1   
 23  13  19  1   
 24  14  20  1   
 25  15  21  1   
 26  15  29  1   
 27  15  30  1   
 28  16  31  1   
 29  17  22  1   
 30  17  32  1   
 31  17  33  1   
 32  18  23  1   
 33  18  34  1   
 34  18  35  1   
 35  19  24  1   
 36  19  36  1   
 37  19  37  1   
 38  20  21  1   
 39  20  38  1   
 40  20  39  1   
 41  21  40  1   
 42  21  41  1   
 43  22  25  1   
 44  22  42  1   
 45  22  43  1   
 46  23  26  1   
 47  23  44  1   
 48  23  45  1   
 49  24  26  1   
 50  24  46  1   
 51  24  47  1   
 52  25  48  1   
@<TRIPOS>SUBSTRUCTURE
  1 ****   2 GROUP 4 **** **** 0

# MOE 2024.06 (io_trps.svl 2023.06)
