@<TRIPOS>MOLECULE
1-(5-Methyl-furan-2-yl)-ethylamine
21 21 1 0 0 
SMALL
USER_CHARGES


@<TRIPOS>ATOM
  1 O       -0.0640     0.1580    -0.2520 O.3   1 <1>  -0.2800 
  2 C        1.0160     0.8980    -0.0700 C.2   1 <1>  -0.0400 
  3 C       -1.1080     0.8730     0.1140 C.2   1 <1>  -0.0400 
  4 C        0.6760     2.1100     0.4260 C.2   1 <1>  -0.1500 
  5 C        2.3500     0.2710    -0.4240 C.3   1 <1>   0.6030 
  6 C       -0.7190     2.0910     0.5450 C.2   1 <1>  -0.1500 
  7 C       -2.4910     0.2670     0.0000 C.3   1 <1>  -0.0600 
  8 N        2.3660    -1.0330     0.2330 N.4   1 <1>  -0.8530 
  9 C        3.5460     1.0770     0.0680 C.3   1 <1>  -0.2400 
 10 H        1.2950     2.9510     0.6900 H     1 <1>   0.1500 
 11 H        2.4020     0.1440    -1.4940 H     1 <1>   0.0800 
 12 H       -1.3270     2.9020     0.9070 H     1 <1>   0.1500 
 13 H       -2.5570    -0.6170     0.6080 H     1 <1>   0.0800 
 14 H       -2.6920     0.0040    -1.0230 H     1 <1>   0.0800 
 15 H       -3.2330     0.9720     0.3290 H     1 <1>   0.0800 
 16 H        2.4180    -0.8980     1.2450 H     1 <1>   0.4500 
 17 H        3.1280    -1.6280    -0.0970 H     1 <1>   0.4500 
 18 H        1.4540    -1.4640     0.0330 H     1 <1>   0.4500 
 19 H        3.4970     1.2370     1.1310 H     1 <1>   0.0800 
 20 H        3.5470     2.0390    -0.4130 H     1 <1>   0.0800 
 21 H        4.4690     0.5840    -0.1820 H     1 <1>   0.0800 
@<TRIPOS>BOND
  1   1   2  1   
  2   1   3  1   
  3   2   4  2   
  4   2   5  1   
  5   3   6  2   
  6   3   7  1   
  7   4   6  1   
  8   4  10  1   
  9   5   8  1   
 10   5   9  1   
 11   5  11  1   
 12   6  12  1   
 13   7  13  1   
 14   7  14  1   
 15   7  15  1   
 16   8  16  1   
 17   8  17  1   
 18   8  18  1   
 19   9  19  1   
 20   9  20  1   
 21   9  21  1   
@<TRIPOS>SUBSTRUCTURE
  1 ****   2 GROUP 4 **** **** 0

# MOE 2024.06 (io_trps.svl 2023.06)
