@<TRIPOS>MOLECULE
3-tert-Butyl-6-pyridin-2-yl-[1,2,4]triazolo[3,4-b][1,3,4]thiadiazole
31 33 1 0 0 
SMALL
USER_CHARGES


@<TRIPOS>ATOM
  1 S       -0.0530    -0.1070    -0.5990 S.3   1 <1>  -0.1970 
  2 C        1.0030     1.2730    -0.4430 C.2   1 <1>   0.2420 
  3 C       -1.4630     0.9700    -0.3580 C.2   1 <1>   0.5050 
  4 N        2.2710     1.4710    -0.4760 N.2   1 <1>  -0.3380 
  5 N        0.2680     2.3500    -0.2410 N.pl3 1 <1>   0.5050 
  6 N       -1.1170     2.2010    -0.1840 N.2   1 <1>  -0.6520 
  7 C       -2.7870     0.3630    -0.3920 C.ar  1 <1>   0.3960 
  8 N        2.4040     2.7960    -0.2790 N.2   1 <1>  -0.3380 
  9 C        1.2130     3.3060    -0.1420 C.2   1 <1>   0.0060 
 10 N       -3.8210     1.1120    -0.8070 N.ar  1 <1>  -0.6200 
 11 C       -2.9780    -0.9670     0.0020 C.ar  1 <1>  -0.1500 
 12 C        0.8840     4.7860     0.1000 C.3   1 <1>   0.1800 
 13 C       -5.0130     0.5470    -0.8340 C.ar  1 <1>   0.1600 
 14 C       -4.2260    -1.5480    -0.0320 C.ar  1 <1>  -0.1500 
 15 C        0.1430     4.9510     1.4350 C.3   1 <1>  -0.2400 
 16 C        0.0090     5.3260    -1.0410 C.3   1 <1>  -0.2400 
 17 C        2.1700     5.6280     0.1590 C.3   1 <1>  -0.2400 
 18 C       -5.2680    -0.7610    -0.4650 C.ar  1 <1>  -0.1500 
 19 H       -2.1470    -1.5560     0.3440 H     1 <1>   0.1500 
 20 H       -5.8350     1.1580    -1.1700 H     1 <1>   0.1500 
 21 H       -4.3830    -2.5710     0.2670 H     1 <1>   0.1500 
 22 H        0.7350     4.5520     2.2390 H     1 <1>   0.0800 
 23 H       -0.8000     4.4330     1.4180 H     1 <1>   0.0800 
 24 H       -0.0510     5.9900     1.6350 H     1 <1>   0.0800 
 25 H       -0.9340     4.8110    -1.0800 H     1 <1>   0.0800 
 26 H        0.5080     5.1910    -1.9850 H     1 <1>   0.0800 
 27 H       -0.1870     6.3740    -0.9050 H     1 <1>   0.0800 
 28 H        2.8060     5.2830     0.9550 H     1 <1>   0.0800 
 29 H        1.9430     6.6660     0.3280 H     1 <1>   0.0800 
 30 H        2.7130     5.5430    -0.7660 H     1 <1>   0.0800 
 31 H       -6.2690    -1.1520    -0.5150 H     1 <1>   0.1500 
@<TRIPOS>BOND
  1   1   2  1   
  2   1   3  1   
  3   2   4  2   
  4   2   5  1   
  5   3   6  2   
  6   3   7  1   
  7   4   8  1   
  8   5   6  1   
  9   5   9  1   
 10   7  10  ar  
 11   7  11  ar  
 12   8   9  2   
 13   9  12  1   
 14  10  13  ar  
 15  11  14  ar  
 16  11  19  1   
 17  12  15  1   
 18  12  16  1   
 19  12  17  1   
 20  13  18  ar  
 21  13  20  1   
 22  14  18  ar  
 23  14  21  1   
 24  15  22  1   
 25  15  23  1   
 26  15  24  1   
 27  16  25  1   
 28  16  26  1   
 29  16  27  1   
 30  17  28  1   
 31  17  29  1   
 32  17  30  1   
 33  18  31  1   
@<TRIPOS>SUBSTRUCTURE
  1 ****   6 GROUP 4 **** **** 0

# MOE 2024.06 (io_trps.svl 2023.06)
