@<TRIPOS>MOLECULE
1-(3-Chloro-4-methoxy-benzenesulfonyl)-piperidine-4-carboxylic acid cyclopropyla
45 47 1 0 0 
SMALL
USER_CHARGES


@<TRIPOS>ATOM
  1 CL       1.0000     0.4650     2.7800 Cl    1 <1>  -0.1770 
  2 C        2.0150     0.6030     1.3610 C.ar  1 <1>   0.1770 
  3 C        1.8530     1.6680     0.4820 C.ar  1 <1>   0.0830 
  4 C        2.9720    -0.3700     1.1490 C.ar  1 <1>  -0.1500 
  5 O        0.8930     2.5910     0.7510 O.3   1 <1>  -0.3630 
  6 C        2.6850     1.7330    -0.6320 C.ar  1 <1>  -0.1500 
  7 C        3.8100    -0.3090     0.0410 C.ar  1 <1>  -0.0090 
  8 C        0.6470     3.6820    -0.1100 C.3   1 <1>   0.0400 
  9 C        3.6440     0.7550    -0.8400 C.ar  1 <1>  -0.1500 
 10 S        5.0830    -1.5670    -0.2500 S.o2  1 <1>   1.4470 
 11 O        4.8640    -2.1630    -1.5490 O.2   1 <1>  -0.6500 
 12 O        5.2230    -2.4190     0.9110 O.2   1 <1>  -0.6500 
 13 N        6.5050    -0.6470    -0.3540 N.am  1 <1>  -0.8490 
 14 C        6.8850    -0.0440     0.9350 C.3   1 <1>   0.1960 
 15 C        7.6100    -1.4020    -0.9420 C.3   1 <1>   0.1960 
 16 C        8.2770     0.6110     0.8920 C.3   1 <1>  -0.1600 
 17 C        8.7450    -0.4490    -1.3490 C.3   1 <1>  -0.1600 
 18 C        8.7550     0.8710    -0.5470 C.3   1 <1>  -0.0190 
 19 C       10.1040     1.5840    -0.6030 C.2   1 <1>   0.5690 
 20 O       10.1650     2.6620    -1.1420 O.2   1 <1>  -0.5700 
 21 N       11.1880     0.9860    -0.0390 N.am  1 <1>  -0.5790 
 22 C       12.5490     1.5380    -0.0110 C.3   1 <1>   0.0490 
 23 C       13.6920     0.5860    -0.1180 C.3   1 <1>  -0.2000 
 24 C       13.3940     1.2590     1.1880 C.3   1 <1>  -0.2000 
 25 H        3.0640    -1.1780     1.8540 H     1 <1>   0.1500 
 26 H        2.6020     2.5320    -1.3450 H     1 <1>   0.1500 
 27 H       -0.1590     4.2580     0.3070 H     1 <1>   0.0800 
 28 H        0.3640     3.3070    -1.0780 H     1 <1>   0.0800 
 29 H        1.5340     4.2870    -0.1710 H     1 <1>   0.0800 
 30 H        4.2840     0.8160    -1.7060 H     1 <1>   0.1500 
 31 H        6.8790    -0.7870     1.7160 H     1 <1>   0.0800 
 32 H        6.1550     0.7070     1.1890 H     1 <1>   0.0800 
 33 H        7.2810    -1.9370    -1.8190 H     1 <1>   0.0800 
 34 H        7.9660    -2.1270    -0.2270 H     1 <1>   0.0800 
 35 H        8.9740    -0.0370     1.3940 H     1 <1>   0.0800 
 36 H        8.2500     1.5350     1.4420 H     1 <1>   0.0800 
 37 H        8.6440    -0.2120    -2.3940 H     1 <1>   0.0800 
 38 H        9.6770    -0.9730    -1.2370 H     1 <1>   0.0800 
 39 H        8.0350     1.5300    -1.0020 H     1 <1>   0.0800 
 40 H       11.0860     0.0770     0.4060 H     1 <1>   0.3700 
 41 H       12.6310     2.5020    -0.4890 H     1 <1>   0.1000 
 42 H       14.5680     0.8950    -0.6610 H     1 <1>   0.1000 
 43 H       13.4900    -0.4650    -0.2250 H     1 <1>   0.1000 
 44 H       12.9820     0.6800     1.9950 H     1 <1>   0.1000 
 45 H       14.0670     2.0250     1.5300 H     1 <1>   0.1000 
@<TRIPOS>BOND
  1   1   2  1   
  2   2   3  ar  
  3   2   4  ar  
  4   3   5  1   
  5   3   6  ar  
  6   4   7  ar  
  7   4  25  1   
  8   5   8  1   
  9   6   9  ar  
 10   6  26  1   
 11   7   9  ar  
 12   7  10  1   
 13   8  27  1   
 14   8  28  1   
 15   8  29  1   
 16   9  30  1   
 17  10  11  2   
 18  10  12  2   
 19  10  13  am  
 20  13  14  1   
 21  13  15  1   
 22  14  16  1   
 23  14  31  1   
 24  14  32  1   
 25  15  17  1   
 26  15  33  1   
 27  15  34  1   
 28  16  18  1   
 29  16  35  1   
 30  16  36  1   
 31  17  18  1   
 32  17  37  1   
 33  17  38  1   
 34  18  19  1   
 35  18  39  1   
 36  19  20  2   
 37  19  21  am  
 38  21  22  1   
 39  21  40  1   
 40  22  23  1   
 41  22  24  1   
 42  22  41  1   
 43  23  24  1   
 44  23  42  1   
 45  23  43  1   
 46  24  44  1   
 47  24  45  1   
@<TRIPOS>SUBSTRUCTURE
  1 ****  14 GROUP 4 **** **** 0

# MOE 2024.06 (io_trps.svl 2023.06)
