@<TRIPOS>MOLECULE
2-Isopropyl-1-methanesulfonyl-3-(toluene-4-sulfonyl)-imidazolidine
44 45 1 0 0 
SMALL
USER_CHARGES


@<TRIPOS>ATOM
  1 S        0.2900    -0.3700    -1.8380 S.o2  1 <1>   1.4470 
  2 O       -0.0600     0.7810    -2.6420 O.2   1 <1>  -0.6500 
  3 O        0.5540    -1.6270    -2.4970 O.2   1 <1>  -0.6500 
  4 N        1.6520     0.0740    -0.9320 N.am  1 <1>  -0.8490 
  5 C       -1.0330    -0.6130    -0.6110 C.ar  1 <1>  -0.0090 
  6 C        2.0290    -0.8490     0.1290 C.3   1 <1>   0.6310 
  7 C        1.5220     1.3950    -0.3220 C.3   1 <1>   0.1960 
  8 C       -1.7830     0.4570    -0.1340 C.ar  1 <1>  -0.1500 
  9 C       -1.3170    -1.8740    -0.0980 C.ar  1 <1>  -0.1500 
 10 N        2.5600    -0.0190     1.2150 N.am  1 <1>  -0.8490 
 11 C        2.8780    -2.1060    -0.2480 C.3   1 <1>  -0.0800 
 12 C        1.6710     1.1340     1.1640 C.3   1 <1>   0.1960 
 13 C       -2.7510     0.2820     0.8390 C.ar  1 <1>  -0.1500 
 14 C       -2.2840    -2.0570     0.8750 C.ar  1 <1>  -0.1500 
 15 S        4.1760     0.5160     1.1720 S.o2  1 <1>   1.3330 
 16 C        3.7370    -1.9900    -1.5230 C.3   1 <1>  -0.2400 
 17 C        2.0490    -3.4040    -0.3170 C.3   1 <1>  -0.2400 
 18 C       -3.0030    -0.9770     1.3540 C.ar  1 <1>  -0.1440 
 19 O        4.5550     0.9090    -0.1620 O.2   1 <1>  -0.6500 
 20 O        4.2800     1.5120     2.2140 O.2   1 <1>  -0.6500 
 21 C        5.2320    -0.8090     1.7250 C.3   1 <1>  -0.1350 
 22 C       -4.0670    -1.1730     2.4190 C.3   1 <1>  -0.0970 
 23 H        1.1180    -1.2510     0.5350 H     1 <1>   0.0800 
 24 H        0.5920     1.8890    -0.5390 H     1 <1>   0.0800 
 25 H        2.3230     2.0250    -0.6710 H     1 <1>   0.0800 
 26 H       -1.6180     1.4430    -0.5330 H     1 <1>   0.1500 
 27 H       -0.7800    -2.7310    -0.4670 H     1 <1>   0.1500 
 28 H        3.5240    -2.2970     0.5780 H     1 <1>   0.0800 
 29 H        0.7150     0.8720     1.5850 H     1 <1>   0.0800 
 30 H        2.0410     1.9990     1.6880 H     1 <1>   0.0800 
 31 H       -3.3150     1.1300     1.1890 H     1 <1>   0.1500 
 32 H       -2.4780    -3.0460     1.2530 H     1 <1>   0.1500 
 33 H        3.1150    -1.8880    -2.3940 H     1 <1>   0.0800 
 34 H        4.3450    -2.8680    -1.6480 H     1 <1>   0.0800 
 35 H        4.3880    -1.1390    -1.4870 H     1 <1>   0.0800 
 36 H        1.4330    -3.4440    -1.1930 H     1 <1>   0.0800 
 37 H        1.4280    -3.5070     0.5560 H     1 <1>   0.0800 
 38 H        2.7090    -4.2530    -0.3530 H     1 <1>   0.0800 
 39 H        5.4270    -1.5050     0.9350 H     1 <1>   0.0800 
 40 H        4.7910    -1.3160     2.5600 H     1 <1>   0.0800 
 41 H        6.1750    -0.4030     2.0350 H     1 <1>   0.0800 
 42 H       -4.1490    -0.2970     3.0380 H     1 <1>   0.0800 
 43 H       -3.8220    -2.0100     3.0490 H     1 <1>   0.0800 
 44 H       -5.0180    -1.3580     1.9530 H     1 <1>   0.0800 
@<TRIPOS>BOND
  1   1   2  2   
  2   1   3  2   
  3   1   4  am  
  4   1   5  1   
  5   4   6  1   
  6   4   7  1   
  7   5   8  ar  
  8   5   9  ar  
  9   6  10  1   
 10   6  11  1   
 11   6  23  1   
 12   7  12  1   
 13   7  24  1   
 14   7  25  1   
 15   8  13  ar  
 16   8  26  1   
 17   9  14  ar  
 18   9  27  1   
 19  10  12  1   
 20  10  15  am  
 21  11  16  1   
 22  11  17  1   
 23  11  28  1   
 24  12  29  1   
 25  12  30  1   
 26  13  18  ar  
 27  13  31  1   
 28  14  18  ar  
 29  14  32  1   
 30  15  19  2   
 31  15  20  2   
 32  15  21  1   
 33  16  33  1   
 34  16  34  1   
 35  16  35  1   
 36  17  36  1   
 37  17  37  1   
 38  17  38  1   
 39  18  22  1   
 40  21  39  1   
 41  21  40  1   
 42  21  41  1   
 43  22  42  1   
 44  22  43  1   
 45  22  44  1   
@<TRIPOS>SUBSTRUCTURE
  1 ****   6 GROUP 4 **** **** 0

# MOE 2024.06 (io_trps.svl 2023.06)
