@<TRIPOS>MOLECULE
2-Pyrrolidin-1-yl-1-[3-(toluene-4-sulfonyl)-imidazolidin-1-yl]-ethanone
47 49 1 0 0 
SMALL
USER_CHARGES


@<TRIPOS>ATOM
  1 S        0.1200    -0.3290     0.7070 S.o2  1 <1>   1.4470 
  2 O        0.3400    -0.7880     2.0620 O.2   1 <1>  -0.6500 
  3 O        1.1740     0.3570    -0.0040 O.2   1 <1>  -0.6500 
  4 N       -0.2340    -1.7120    -0.1930 N.am  1 <1>  -0.8490 
  5 C       -1.4350     0.5960     0.5990 C.ar  1 <1>  -0.0090 
  6 C       -1.1110    -2.6020     0.5070 C.3   1 <1>   0.4960 
  7 C        0.9450    -2.5000    -0.5250 C.3   1 <1>   0.1960 
  8 C       -2.1540     0.9380     1.7380 C.ar  1 <1>  -0.1500 
  9 C       -1.9590     0.9650    -0.6340 C.ar  1 <1>  -0.1500 
 10 N       -0.9710    -3.8510    -0.2520 N.am  1 <1>  -0.6600 
 11 C        0.3900    -3.8830    -0.8380 C.3   1 <1>   0.1400 
 12 C       -3.3590     1.6140     1.6490 C.ar  1 <1>  -0.1500 
 13 C       -3.1630     1.6410    -0.7300 C.ar  1 <1>  -0.1500 
 14 C       -1.9730    -4.6680    -0.6890 C.2   1 <1>   0.5690 
 15 C       -3.8720     1.9660     0.4130 C.ar  1 <1>  -0.1430 
 16 O       -1.7480    -5.5990    -1.4290 O.2   1 <1>  -0.5700 
 17 C       -3.4390    -4.4570    -0.2600 C.3   1 <1>   0.4040 
 18 C       -5.1890     2.7150     0.3130 C.3   1 <1>  -0.0970 
 19 N       -4.3020    -5.6800    -0.4680 N.4   1 <1>  -0.9590 
 20 C       -5.7610    -5.4620    -0.3560 C.3   1 <1>   0.3430 
 21 C       -3.9620    -6.8070     0.4320 C.3   1 <1>   0.3430 
 22 C       -6.3320    -6.8590    -0.1480 C.3   1 <1>  -0.1600 
 23 C       -5.1700    -7.7280     0.3450 C.3   1 <1>  -0.1600 
 24 H       -2.1200    -2.2240     0.4980 H     1 <1>   0.0800 
 25 H       -0.7810    -2.7660     1.5220 H     1 <1>   0.0800 
 26 H        1.6140    -2.5600     0.3190 H     1 <1>   0.0800 
 27 H        1.4730    -2.0780    -1.3650 H     1 <1>   0.0800 
 28 H       -1.7680     0.6790     2.7110 H     1 <1>   0.1500 
 29 H       -1.4140     0.7220    -1.5310 H     1 <1>   0.1500 
 30 H        0.9890    -4.6570    -0.3910 H     1 <1>   0.0800 
 31 H        0.3360    -4.0360    -1.9030 H     1 <1>   0.0800 
 32 H       -3.8930     1.8710     2.5480 H     1 <1>   0.1500 
 33 H       -3.5420     1.9190    -1.6990 H     1 <1>   0.1500 
 34 H       -3.8320    -3.6430    -0.8430 H     1 <1>   0.0800 
 35 H       -3.4610    -4.1710     0.7770 H     1 <1>   0.0800 
 36 H       -5.8390     2.4470     1.1270 H     1 <1>   0.0800 
 37 H       -5.6880     2.4820    -0.6100 H     1 <1>   0.0800 
 38 H       -5.0070     3.7740     0.3500 H     1 <1>   0.0800 
 39 H       -4.0840    -6.0200    -1.4200 H     1 <1>   0.4500 
 40 H       -6.1660    -4.9940    -1.2400 H     1 <1>   0.0800 
 41 H       -5.9780    -4.8530     0.5070 H     1 <1>   0.0800 
 42 H       -3.8510    -6.4510     1.4440 H     1 <1>   0.0800 
 43 H       -3.0540    -7.3030     0.1210 H     1 <1>   0.0800 
 44 H       -6.7150    -7.2390    -1.0800 H     1 <1>   0.0800 
 45 H       -7.1390    -6.8300     0.5650 H     1 <1>   0.0800 
 46 H       -5.3760    -8.1690     1.3040 H     1 <1>   0.0800 
 47 H       -4.9700    -8.5190    -0.3580 H     1 <1>   0.0800 
@<TRIPOS>BOND
  1   1   2  2   
  2   1   3  2   
  3   1   4  am  
  4   1   5  1   
  5   4   6  1   
  6   4   7  1   
  7   5   8  ar  
  8   5   9  ar  
  9   6  10  1   
 10   6  24  1   
 11   6  25  1   
 12   7  11  1   
 13   7  26  1   
 14   7  27  1   
 15   8  12  ar  
 16   8  28  1   
 17   9  13  ar  
 18   9  29  1   
 19  10  11  1   
 20  10  14  am  
 21  11  30  1   
 22  11  31  1   
 23  12  15  ar  
 24  12  32  1   
 25  13  15  ar  
 26  13  33  1   
 27  14  16  2   
 28  14  17  1   
 29  15  18  1   
 30  17  19  1   
 31  17  34  1   
 32  17  35  1   
 33  18  36  1   
 34  18  37  1   
 35  18  38  1   
 36  19  20  1   
 37  19  21  1   
 38  19  39  1   
 39  20  22  1   
 40  20  40  1   
 41  20  41  1   
 42  21  23  1   
 43  21  42  1   
 44  21  43  1   
 45  22  23  1   
 46  22  44  1   
 47  22  45  1   
 48  23  46  1   
 49  23  47  1   
@<TRIPOS>SUBSTRUCTURE
  1 ****   6 GROUP 4 **** **** 0

# MOE 2024.06 (io_trps.svl 2023.06)
