@<TRIPOS>MOLECULE
N-Cyclohexyl-2-(thiophene-2-sulfonylamino)-benzamide
44 46 1 0 0 
SMALL
USER_CHARGES


@<TRIPOS>ATOM
  1 S        0.2170    -0.6440    -0.2760 S.o2  1 <1>   1.5000 
  2 O       -0.1900    -1.4810     0.8270 O.2   1 <1>  -0.6500 
  3 O       -0.5840    -0.5710    -1.4740 O.2   1 <1>  -0.6500 
  4 N        1.7460    -1.2010    -0.8280 N.am  1 <1>  -0.7570 
  5 C        0.5890     1.0360     0.2780 C.2   1 <1>  -0.0220 
  6 C        2.9280    -1.3790    -0.1200 C.ar  1 <1>   0.1990 
  7 S        1.2670     1.2530     1.8910 S.3   1 <1>  -0.0800 
  8 C        0.4730     2.2410    -0.3200 C.2   1 <1>  -0.1500 
  9 C        4.1600    -0.9910    -0.6800 C.ar  1 <1>   0.0860 
 10 C        2.9100    -1.9700     1.1420 C.ar  1 <1>  -0.1500 
 11 C        1.3430     2.9930     1.6960 C.2   1 <1>  -0.1100 
 12 C        0.8920     3.3500     0.4810 C.2   1 <1>  -0.1500 
 13 C        4.2370    -0.3280    -1.9680 C.2   1 <1>   0.5440 
 14 C        5.3260    -1.2660     0.0380 C.ar  1 <1>  -0.1500 
 15 C        4.0740    -2.1980     1.8450 C.ar  1 <1>  -0.1500 
 16 O        3.4970    -0.6350    -2.8830 O.2   1 <1>  -0.5700 
 17 N        5.1190     0.6680    -2.2590 N.am  1 <1>  -0.7300 
 18 C        5.2910    -1.8510     1.2870 C.ar  1 <1>  -0.1500 
 19 C        5.3900     1.9270    -1.5220 C.3   1 <1>   0.2200 
 20 C        6.6630     1.8220    -0.6810 C.3   1 <1>  -0.1600 
 21 C        4.1980     2.4150    -0.6760 C.3   1 <1>  -0.1600 
 22 C        7.0900     3.2050    -0.1490 C.3   1 <1>  -0.1600 
 23 C        4.6140     3.4230     0.4170 C.3   1 <1>  -0.1600 
 24 C        5.9060     4.1700     0.0580 C.3   1 <1>  -0.1600 
 25 H        1.8560    -0.9940    -1.8270 H     1 <1>   0.4200 
 26 H        0.0930     2.3950    -1.3170 H     1 <1>   0.1500 
 27 H        1.9770    -2.2730     1.5800 H     1 <1>   0.1500 
 28 H        1.7220     3.5690     2.5220 H     1 <1>   0.1500 
 29 H        0.8330     4.3580     0.1070 H     1 <1>   0.1500 
 30 H        6.2770    -1.0190    -0.4000 H     1 <1>   0.1500 
 31 H        4.0380    -2.6540     2.8200 H     1 <1>   0.1500 
 32 H        5.1840     0.8160    -3.2680 H     1 <1>   0.3700 
 33 H        6.2040    -2.0420     1.8260 H     1 <1>   0.1500 
 34 H        5.5760     2.6830    -2.2680 H     1 <1>   0.0800 
 35 H        7.4630     1.3960    -1.2610 H     1 <1>   0.0800 
 36 H        6.4730     1.1860     0.1630 H     1 <1>   0.0800 
 37 H        3.7060     1.5980    -0.1850 H     1 <1>   0.0800 
 38 H        3.4870     2.8810    -1.3350 H     1 <1>   0.0800 
 39 H        7.7850     3.6580    -0.8360 H     1 <1>   0.0800 
 40 H        7.6080     3.0670     0.7850 H     1 <1>   0.0800 
 41 H        4.7730     2.8920     1.3410 H     1 <1>   0.0800 
 42 H        3.8190     4.1280     0.5820 H     1 <1>   0.0800 
 43 H        5.7400     4.7300    -0.8470 H     1 <1>   0.0800 
 44 H        6.1500     4.8770     0.8330 H     1 <1>   0.0800 
@<TRIPOS>BOND
  1   1   2  2   
  2   1   3  2   
  3   1   4  am  
  4   1   5  1   
  5   4   6  1   
  6   4  25  1   
  7   5   7  1   
  8   5   8  2   
  9   6   9  ar  
 10   6  10  ar  
 11   7  11  1   
 12   8  12  1   
 13   8  26  1   
 14   9  13  1   
 15   9  14  ar  
 16  10  15  ar  
 17  10  27  1   
 18  11  12  2   
 19  11  28  1   
 20  12  29  1   
 21  13  16  2   
 22  13  17  am  
 23  14  18  ar  
 24  14  30  1   
 25  15  18  ar  
 26  15  31  1   
 27  17  19  1   
 28  17  32  1   
 29  18  33  1   
 30  19  20  1   
 31  19  21  1   
 32  19  34  1   
 33  20  22  1   
 34  20  35  1   
 35  20  36  1   
 36  21  23  1   
 37  21  37  1   
 38  21  38  1   
 39  22  24  1   
 40  22  39  1   
 41  22  40  1   
 42  23  24  1   
 43  23  41  1   
 44  23  42  1   
 45  24  43  1   
 46  24  44  1   
@<TRIPOS>SUBSTRUCTURE
  1 ****   9 GROUP 4 **** **** 0

# MOE 2024.06 (io_trps.svl 2023.06)
