@<TRIPOS>MOLECULE
N-(2-Hydroxy-quinolin-3-ylmethyl)-3-methyl-N-(tetrahydro-furan-2-ylmethyl)-benza
52 55 1 0 0 
SMALL
USER_CHARGES


@<TRIPOS>ATOM
  1 O        0.5700    -0.7880    -1.9970 O.2   1 <1>  -0.5700 
  2 C        1.3450    -0.7800    -1.0590 C.2   1 <1>   0.5440 
  3 N        1.9390     0.4100    -0.6950 N.am  1 <1>  -0.6600 
  4 C        1.6280    -2.0230    -0.3690 C.ar  1 <1>   0.0860 
  5 C        1.5220     1.6980    -1.3180 C.3   1 <1>   0.2780 
  6 C        3.0180     0.5190     0.3410 C.3   1 <1>   0.1400 
  7 C        2.2570    -3.0750    -1.0330 C.ar  1 <1>  -0.1500 
  8 C        1.2870    -2.2110     0.9690 C.ar  1 <1>  -0.1500 
  9 C        0.5030     2.3830    -0.4270 C.2   1 <1>  -0.1240 
 10 C        4.3450    -0.0870    -0.1410 C.3   1 <1>   0.2000 
 11 C        2.5570    -4.2630    -0.3890 C.ar  1 <1>  -0.1440 
 12 C        1.5830    -3.3930     1.6230 C.ar  1 <1>  -0.1500 
 13 C        0.9370     3.4970     0.3590 C.2   1 <1>   0.6160 
 14 C       -0.7860     1.9590    -0.3680 C.2   1 <1>  -0.1780 
 15 O        5.3210     0.1120     0.8280 O.3   1 <1>  -0.5600 
 16 C        4.9240     0.5550    -1.3930 C.3   1 <1>  -0.1600 
 17 C        2.2200    -4.4170     0.9450 C.ar  1 <1>  -0.1500 
 18 C        3.2480    -5.3940    -1.1290 C.3   1 <1>  -0.0970 
 19 O        2.0720     3.9390     0.3460 O.2   1 <1>  -0.5700 
 20 N        0.0230     4.1060     1.1650 N.am  1 <1>  -0.5470 
 21 C       -1.7360     2.6100     0.4820 C.ar  1 <1>   0.0280 
 22 C        6.5940     0.0890     0.2600 C.3   1 <1>   0.1200 
 23 C        6.4090     0.2800    -1.2440 C.3   1 <1>  -0.1600 
 24 C       -1.3050     3.7010     1.2560 C.ar  1 <1>   0.1170 
 25 C       -3.0680     2.2050     0.5750 C.ar  1 <1>  -0.1500 
 26 C       -2.2050     4.3550     2.0930 C.ar  1 <1>  -0.1500 
 27 C       -3.9500     2.8610     1.4090 C.ar  1 <1>  -0.1500 
 28 C       -3.5180     3.9390     2.1710 C.ar  1 <1>  -0.1500 
 29 H        1.0800     1.5170    -2.2830 H     1 <1>   0.0800 
 30 H        2.3830     2.3230    -1.4790 H     1 <1>   0.0800 
 31 H        2.7100     0.0170     1.2400 H     1 <1>   0.0800 
 32 H        3.1830     1.5540     0.5870 H     1 <1>   0.0800 
 33 H        2.5070    -2.9450    -2.0710 H     1 <1>   0.1500 
 34 H        0.7840    -1.4190     1.4960 H     1 <1>   0.1500 
 35 H        4.2480    -1.1500    -0.2740 H     1 <1>   0.0800 
 36 H        1.3160    -3.5180     2.6580 H     1 <1>   0.1500 
 37 H       -1.1280     1.1200    -0.9500 H     1 <1>   0.1500 
 38 H        4.7420     1.6160    -1.3750 H     1 <1>   0.0800 
 39 H        4.5070     0.1340    -2.2900 H     1 <1>   0.0800 
 40 H        2.4490    -5.3340     1.4590 H     1 <1>   0.1500 
 41 H        3.2380    -5.2200    -2.1900 H     1 <1>   0.0800 
 42 H        2.7460    -6.3240    -0.9330 H     1 <1>   0.0800 
 43 H        4.2690    -5.4740    -0.8020 H     1 <1>   0.0800 
 44 H        0.3740     4.8940     1.7050 H     1 <1>   0.3700 
 45 H        7.0510    -0.8590     0.4860 H     1 <1>   0.0800 
 46 H        7.1670     0.8880     0.6970 H     1 <1>   0.0800 
 47 H        7.0110     1.0880    -1.6190 H     1 <1>   0.0800 
 48 H        6.6800    -0.6280    -1.7540 H     1 <1>   0.0800 
 49 H       -3.4040     1.3700    -0.0130 H     1 <1>   0.1500 
 50 H       -1.8710     5.1890     2.6820 H     1 <1>   0.1500 
 51 H       -4.9760     2.5400     1.4730 H     1 <1>   0.1500 
 52 H       -4.2120     4.4460     2.8190 H     1 <1>   0.1500 
@<TRIPOS>BOND
  1   1   2  2   
  2   2   3  am  
  3   2   4  1   
  4   3   5  1   
  5   3   6  1   
  6   4   7  ar  
  7   4   8  ar  
  8   5   9  1   
  9   5  29  1   
 10   5  30  1   
 11   6  10  1   
 12   6  31  1   
 13   6  32  1   
 14   7  11  ar  
 15   7  33  1   
 16   8  12  ar  
 17   8  34  1   
 18   9  13  1   
 19   9  14  2   
 20  10  15  1   
 21  10  16  1   
 22  10  35  1   
 23  11  17  ar  
 24  11  18  1   
 25  12  17  ar  
 26  12  36  1   
 27  13  19  2   
 28  13  20  am  
 29  14  21  1   
 30  14  37  1   
 31  15  22  1   
 32  16  23  1   
 33  16  38  1   
 34  16  39  1   
 35  17  40  1   
 36  18  41  1   
 37  18  42  1   
 38  18  43  1   
 39  20  24  1   
 40  20  44  1   
 41  21  24  ar  
 42  21  25  ar  
 43  22  23  1   
 44  22  45  1   
 45  22  46  1   
 46  23  47  1   
 47  23  48  1   
 48  24  26  ar  
 49  25  27  ar  
 50  25  49  1   
 51  26  28  ar  
 52  26  50  1   
 53  27  28  ar  
 54  27  51  1   
 55  28  52  1   
@<TRIPOS>SUBSTRUCTURE
  1 ****   3 GROUP 4 **** **** 0

# MOE 2024.06 (io_trps.svl 2023.06)
