@<TRIPOS>MOLECULE
Cyclohexyl-(1-phenyl-1H-tetrazol-5-yl)-amine
35 37 1 0 0 
SMALL
USER_CHARGES


@<TRIPOS>ATOM
  1 N        0.1980    -0.7570     1.6870 N.2   1 <1>   0.0000 
  2 N       -0.2800    -1.8720     1.2830 N.2   1 <1>  -0.4180 
  3 N        1.5080    -0.6850     1.4680 N.2   1 <1>  -0.3380 
  4 N        0.7400    -2.5710     0.7870 N.pl3 1 <1>   0.5930 
  5 C        1.8350    -1.7960     0.9070 C.2   1 <1>   0.2700 
  6 C        0.6220    -3.8740     0.2240 C.ar  1 <1>  -0.0230 
  7 N        3.1330    -2.1180     0.4810 N.pl3 1 <1>  -0.8530 
  8 C        1.5220    -4.8820     0.5600 C.ar  1 <1>  -0.1500 
  9 C       -0.3980    -4.1660    -0.6780 C.ar  1 <1>  -0.1500 
 10 C        4.1970    -1.0990     0.4320 C.3   1 <1>   0.2890 
 11 C        1.4130    -6.1430     0.0010 C.ar  1 <1>  -0.1500 
 12 C       -0.5080    -5.4260    -1.2370 C.ar  1 <1>  -0.1500 
 13 C        4.1470    -0.3920    -0.9270 C.3   1 <1>  -0.1600 
 14 C        5.5440    -1.7940     0.6470 C.3   1 <1>  -0.1600 
 15 C        0.3990    -6.4150    -0.9000 C.ar  1 <1>  -0.1500 
 16 C        5.3100     0.6000    -1.0810 C.3   1 <1>  -0.1600 
 17 C        6.7110    -0.8060     0.4970 C.3   1 <1>  -0.1600 
 18 C        6.6630    -0.0930    -0.8620 C.3   1 <1>  -0.1600 
 19 H        3.2180    -2.8170    -0.2640 H     1 <1>   0.4000 
 20 H        2.3120    -4.6860     1.2660 H     1 <1>   0.1500 
 21 H       -1.1110    -3.4030    -0.9440 H     1 <1>   0.1500 
 22 H        4.0490    -0.3760     1.2170 H     1 <1>   0.0800 
 23 H        2.1150    -6.9150     0.2670 H     1 <1>   0.1500 
 24 H       -1.3000    -5.6390    -1.9350 H     1 <1>   0.1500 
 25 H        3.2160     0.1400    -1.0140 H     1 <1>   0.0800 
 26 H        4.2010    -1.1210    -1.7150 H     1 <1>   0.0800 
 27 H        5.6610    -2.5840    -0.0730 H     1 <1>   0.0800 
 28 H        5.5660    -2.2230     1.6330 H     1 <1>   0.0800 
 29 H        0.3120    -7.3960    -1.3350 H     1 <1>   0.1500 
 30 H        5.1970     1.3950    -0.3640 H     1 <1>   0.0800 
 31 H        5.2840     1.0370    -2.0650 H     1 <1>   0.0800 
 32 H        7.6450    -1.3320     0.5950 H     1 <1>   0.0800 
 33 H        6.6620    -0.0730     1.2850 H     1 <1>   0.0800 
 34 H        7.4530     0.6360    -0.9140 H     1 <1>   0.0800 
 35 H        6.8260    -0.8110    -1.6470 H     1 <1>   0.0800 
@<TRIPOS>BOND
  1   1   2  2   
  2   1   3  1   
  3   2   4  1   
  4   3   5  2   
  5   4   5  1   
  6   4   6  1   
  7   5   7  1   
  8   6   8  ar  
  9   6   9  ar  
 10   7  10  1   
 11   7  19  1   
 12   8  11  ar  
 13   8  20  1   
 14   9  12  ar  
 15   9  21  1   
 16  10  13  1   
 17  10  14  1   
 18  10  22  1   
 19  11  15  ar  
 20  11  23  1   
 21  12  15  ar  
 22  12  24  1   
 23  13  16  1   
 24  13  25  1   
 25  13  26  1   
 26  14  17  1   
 27  14  27  1   
 28  14  28  1   
 29  15  29  1   
 30  16  18  1   
 31  16  30  1   
 32  16  31  1   
 33  17  18  1   
 34  17  32  1   
 35  17  33  1   
 36  18  34  1   
 37  18  35  1   
@<TRIPOS>SUBSTRUCTURE
  1 ****   7 GROUP 4 **** **** 0

# MOE 2024.06 (io_trps.svl 2023.06)
