@<TRIPOS>MOLECULE
3-tert-Butyl-6-pyridin-3-yl-[1,2,4]triazolo[3,4-b][1,3,4]thiadiazole
31 33 1 0 0 
SMALL
USER_CHARGES


@<TRIPOS>ATOM
  1 S       -0.2300    -0.2460     0.5590 S.3   1 <1>  -0.1970 
  2 C        0.6550     1.2550     0.4460 C.2   1 <1>   0.2420 
  3 C       -1.7450     0.6530     0.2620 C.2   1 <1>   0.5050 
  4 N        1.8860     1.6070     0.5350 N.2   1 <1>  -0.3380 
  5 N       -0.1980     2.2340     0.2120 N.pl3 1 <1>   0.5050 
  6 N       -1.5560     1.9150     0.1050 N.2   1 <1>  -0.6520 
  7 C       -2.9910    -0.0800     0.2250 C.ar  1 <1>   0.0860 
  8 N        1.8630     2.9390     0.3440 N.2   1 <1>  -0.3380 
  9 C        0.6250     3.3000     0.1540 C.2   1 <1>   0.0060 
 10 C       -4.1860     0.6050    -0.0060 C.ar  1 <1>   0.1600 
 11 C       -3.0910    -1.4570     0.4090 C.ar  1 <1>  -0.1500 
 12 C        0.1310     4.7310    -0.1040 C.3   1 <1>   0.1800 
 13 N       -5.3940     0.0700    -0.0660 N.ar  1 <1>  -0.6200 
 14 C       -4.3410    -2.0340     0.3500 C.ar  1 <1>  -0.1500 
 15 C        1.3080     5.7220    -0.1120 C.3   1 <1>  -0.2400 
 16 C       -0.5690     4.8100    -1.4680 C.3   1 <1>  -0.2400 
 17 C       -0.8470     5.1590     1.0010 C.3   1 <1>  -0.2400 
 18 C       -5.4470    -1.2390     0.1130 C.ar  1 <1>   0.1600 
 19 H       -4.1360     1.6720    -0.1510 H     1 <1>   0.1500 
 20 H       -2.2290    -2.0730     0.5930 H     1 <1>   0.1500 
 21 H       -4.4630    -3.0940     0.4860 H     1 <1>   0.1500 
 22 H        2.0130     5.4590    -0.8800 H     1 <1>   0.0800 
 23 H        1.8210     5.7010     0.8340 H     1 <1>   0.0800 
 24 H        0.9660     6.7250    -0.2920 H     1 <1>   0.0800 
 25 H       -0.8770     5.8190    -1.6780 H     1 <1>   0.0800 
 26 H        0.1000     4.4890    -2.2470 H     1 <1>   0.0800 
 27 H       -1.4420     4.1820    -1.4900 H     1 <1>   0.0800 
 28 H       -0.3730     5.0840     1.9630 H     1 <1>   0.0800 
 29 H       -1.7220     4.5340     1.0030 H     1 <1>   0.0800 
 30 H       -1.1620     6.1760     0.8540 H     1 <1>   0.0800 
 31 H       -6.4210    -1.6990     0.0690 H     1 <1>   0.1500 
@<TRIPOS>BOND
  1   1   2  1   
  2   1   3  1   
  3   2   4  2   
  4   2   5  1   
  5   3   6  2   
  6   3   7  1   
  7   4   8  1   
  8   5   6  1   
  9   5   9  1   
 10   7  10  ar  
 11   7  11  ar  
 12   8   9  2   
 13   9  12  1   
 14  10  13  ar  
 15  10  19  1   
 16  11  14  ar  
 17  11  20  1   
 18  12  15  1   
 19  12  16  1   
 20  12  17  1   
 21  13  18  ar  
 22  14  18  ar  
 23  14  21  1   
 24  15  22  1   
 25  15  23  1   
 26  15  24  1   
 27  16  25  1   
 28  16  26  1   
 29  16  27  1   
 30  17  28  1   
 31  17  29  1   
 32  17  30  1   
 33  18  31  1   
@<TRIPOS>SUBSTRUCTURE
  1 ****   6 GROUP 4 **** **** 0

# MOE 2024.06 (io_trps.svl 2023.06)
