@<TRIPOS>MOLECULE
1-(2,5-Dimethoxy-benzenesulfonyl)-piperidine-4-carboxylic acid (3-acetyl-phenyl)
57 59 1 0 0 
SMALL
USER_CHARGES


@<TRIPOS>ATOM
  1 S        0.1990    -0.5640     1.3370 S.o2  1 <1>   1.4470 
  2 O        0.4020    -1.9320     1.7670 O.2   1 <1>  -0.6500 
  3 O       -0.0080     0.4320     2.3690 O.2   1 <1>  -0.6500 
  4 N        1.6110    -0.1150     0.5080 N.am  1 <1>  -0.8490 
  5 C       -1.1040    -0.5690     0.0740 C.ar  1 <1>  -0.0090 
  6 C        2.7960    -0.3990     1.3230 C.3   1 <1>   0.1960 
  7 C        1.5710     1.2870     0.0750 C.3   1 <1>   0.1960 
  8 C       -1.8540     0.5640    -0.2360 C.ar  1 <1>   0.0820 
  9 C       -1.3700    -1.7330    -0.6380 C.ar  1 <1>  -0.1500 
 10 C        4.0780    -0.0970     0.5430 C.3   1 <1>  -0.1600 
 11 C        2.8170     1.6360    -0.7430 C.3   1 <1>  -0.1600 
 12 O       -1.6210     1.7370     0.3900 O.3   1 <1>  -0.3620 
 13 C       -2.8360     0.5320    -1.2150 C.ar  1 <1>  -0.1500 
 14 C       -2.3570    -1.7790    -1.6180 C.ar  1 <1>   0.0820 
 15 C        4.1020     1.3590     0.0530 C.3   1 <1>  -0.0190 
 16 C       -2.5480     2.1090     1.3860 C.3   1 <1>   0.0400 
 17 C       -3.0880    -0.6390    -1.9010 C.ar  1 <1>  -0.1500 
 18 O       -2.6590    -2.8920    -2.3350 O.3   1 <1>  -0.3630 
 19 C        5.3610     1.6560    -0.7620 C.2   1 <1>   0.5690 
 20 C       -1.9700    -4.1050    -2.1270 C.3   1 <1>   0.0400 
 21 O        5.5010     1.1280    -1.8370 O.2   1 <1>  -0.5700 
 22 N        6.2840     2.5050    -0.2110 N.am  1 <1>  -0.5470 
 23 C        7.5180     2.9720    -0.6890 C.ar  1 <1>   0.1170 
 24 C        8.4180     3.5030     0.2230 C.ar  1 <1>  -0.1500 
 25 C        7.8800     2.9430    -2.0310 C.ar  1 <1>  -0.1500 
 26 C        9.6670     4.0020    -0.1480 C.ar  1 <1>   0.0860 
 27 C        9.1090     3.4270    -2.4350 C.ar  1 <1>  -0.1500 
 28 C       10.5590     4.5420     0.8610 C.2   1 <1>   0.4230 
 29 C        9.9910     3.9480    -1.5070 C.ar  1 <1>  -0.1500 
 30 O       10.2610     4.6200     2.0240 O.2   1 <1>  -0.5700 
 31 C       11.9400     5.0430     0.4810 C.3   1 <1>  -0.1790 
 32 H        2.8050    -1.4400     1.6010 H     1 <1>   0.0800 
 33 H        2.7650     0.1870     2.2280 H     1 <1>   0.0800 
 34 H        1.4970     1.9370     0.9320 H     1 <1>   0.0800 
 35 H        0.7090     1.4500    -0.5460 H     1 <1>   0.0800 
 36 H       -0.7870    -2.6070    -0.4100 H     1 <1>   0.1500 
 37 H        4.1370    -0.7670    -0.2990 H     1 <1>   0.0800 
 38 H        4.9300    -0.2860     1.1710 H     1 <1>   0.0800 
 39 H        2.7790     2.6730    -1.0240 H     1 <1>   0.0800 
 40 H        2.8110     1.0520    -1.6470 H     1 <1>   0.0800 
 41 H       -3.3940     1.4230    -1.4420 H     1 <1>   0.1500 
 42 H        4.0970     2.0000     0.9160 H     1 <1>   0.0800 
 43 H       -2.2140     3.0310     1.8280 H     1 <1>   0.0800 
 44 H       -2.5820     1.3380     2.1370 H     1 <1>   0.0800 
 45 H       -3.5160     2.2430     0.9380 H     1 <1>   0.0800 
 46 H       -3.8480    -0.6780    -2.6610 H     1 <1>   0.1500 
 47 H       -2.3760    -4.8390    -2.7990 H     1 <1>   0.0800 
 48 H       -2.1160    -4.4210    -1.1090 H     1 <1>   0.0800 
 49 H       -0.9260    -3.9550    -2.3390 H     1 <1>   0.0800 
 50 H        6.0620     2.8200     0.7310 H     1 <1>   0.3700 
 51 H        8.1490     3.5320     1.2630 H     1 <1>   0.1500 
 52 H        7.2070     2.5470    -2.7680 H     1 <1>   0.1500 
 53 H        9.3760     3.3950    -3.4780 H     1 <1>   0.1500 
 54 H       10.9380     4.3160    -1.8580 H     1 <1>   0.1500 
 55 H       12.5060     4.2520     0.0250 H     1 <1>   0.0800 
 56 H       12.4620     5.3740     1.3600 H     1 <1>   0.0800 
 57 H       11.8560     5.8700    -0.1990 H     1 <1>   0.0800 
@<TRIPOS>BOND
  1   1   2  2   
  2   1   3  2   
  3   1   4  am  
  4   1   5  1   
  5   4   6  1   
  6   4   7  1   
  7   5   8  ar  
  8   5   9  ar  
  9   6  10  1   
 10   6  32  1   
 11   6  33  1   
 12   7  11  1   
 13   7  34  1   
 14   7  35  1   
 15   8  12  1   
 16   8  13  ar  
 17   9  14  ar  
 18   9  36  1   
 19  10  15  1   
 20  10  37  1   
 21  10  38  1   
 22  11  15  1   
 23  11  39  1   
 24  11  40  1   
 25  12  16  1   
 26  13  17  ar  
 27  13  41  1   
 28  14  17  ar  
 29  14  18  1   
 30  15  19  1   
 31  15  42  1   
 32  16  43  1   
 33  16  44  1   
 34  16  45  1   
 35  17  46  1   
 36  18  20  1   
 37  19  21  2   
 38  19  22  am  
 39  20  47  1   
 40  20  48  1   
 41  20  49  1   
 42  22  23  1   
 43  22  50  1   
 44  23  24  ar  
 45  23  25  ar  
 46  24  26  ar  
 47  24  51  1   
 48  25  27  ar  
 49  25  52  1   
 50  26  28  1   
 51  26  29  ar  
 52  27  29  ar  
 53  27  53  1   
 54  28  30  2   
 55  28  31  1   
 56  29  54  1   
 57  31  55  1   
 58  31  56  1   
 59  31  57  1   
@<TRIPOS>SUBSTRUCTURE
  1 ****  11 GROUP 4 **** **** 0

# MOE 2024.06 (io_trps.svl 2023.06)
