@<TRIPOS>MOLECULE
N-(4-Methoxy-phenyl)-2-[4-(toluene-4-sulfonyl)-piperazin-1-yl]-acetamide
53 55 1 0 0 
SMALL
USER_CHARGES


@<TRIPOS>ATOM
  1 S       -0.1270     0.2930    -1.8880 S.o2  1 <1>   1.4470 
  2 O       -0.4330    -0.8000    -2.7870 O.2   1 <1>  -0.6500 
  3 O        0.1820     1.5960    -2.4340 O.2   1 <1>  -0.6500 
  4 N       -1.4860     0.4930    -0.8950 N.am  1 <1>  -0.8490 
  5 C        1.1660    -0.1970    -0.7140 C.ar  1 <1>  -0.0090 
  6 C       -2.5680     1.1860    -1.6110 C.3   1 <1>   0.1960 
  7 C       -1.9830    -0.7870    -0.3630 C.3   1 <1>   0.1960 
  8 C        1.4780     0.6060     0.3770 C.ar  1 <1>  -0.1500 
  9 C        1.8700    -1.3860    -0.8660 C.ar  1 <1>  -0.1500 
 10 C       -3.8020     1.3940    -0.7100 C.3   1 <1>   0.1100 
 11 C       -3.2060    -0.5780     0.5480 C.3   1 <1>   0.1100 
 12 C        2.4520     0.2340     1.2880 C.ar  1 <1>  -0.1500 
 13 C        2.8440    -1.7640     0.0420 C.ar  1 <1>  -0.1500 
 14 N       -4.3040     0.1130    -0.1700 N.3   1 <1>  -0.8100 
 15 C        3.1390    -0.9560     1.1260 C.ar  1 <1>  -0.1430 
 16 C       -5.4750     0.3360     0.7320 C.3   1 <1>   0.1710 
 17 C        4.2090    -1.3650     2.1220 C.3   1 <1>  -0.0970 
 18 C       -6.2660    -0.9390     1.0360 C.2   1 <1>   0.5690 
 19 O       -6.9040    -1.0040     2.0590 O.2   1 <1>  -0.5700 
 20 N       -6.1800    -1.9360     0.1060 N.am  1 <1>  -0.5470 
 21 C       -6.7160    -3.2310     0.0260 C.ar  1 <1>   0.1170 
 22 C       -6.2750    -4.0650    -0.9950 C.ar  1 <1>  -0.1500 
 23 C       -7.6680    -3.7210     0.9150 C.ar  1 <1>  -0.1500 
 24 C       -6.7650    -5.3520    -1.1220 C.ar  1 <1>  -0.1500 
 25 C       -8.1620    -5.0080     0.7930 C.ar  1 <1>  -0.1500 
 26 C       -7.7090    -5.8350    -0.2310 C.ar  1 <1>   0.0830 
 27 O       -8.1370    -7.1100    -0.4240 O.3   1 <1>  -0.3630 
 28 C       -9.0910    -7.6910     0.4370 C.3   1 <1>   0.0400 
 29 H       -2.8560     0.6190    -2.4820 H     1 <1>   0.0800 
 30 H       -2.2200     2.1500    -1.9430 H     1 <1>   0.0800 
 31 H       -1.2060    -1.2680     0.2060 H     1 <1>   0.0800 
 32 H       -2.2610    -1.4450    -1.1710 H     1 <1>   0.0800 
 33 H        0.9500     1.5350     0.5120 H     1 <1>   0.1500 
 34 H        1.6550    -2.0250    -1.7050 H     1 <1>   0.1500 
 35 H       -4.5760     1.8660    -1.2890 H     1 <1>   0.0800 
 36 H       -3.5340     2.0550     0.0960 H     1 <1>   0.0800 
 37 H       -2.9040     0.0000     1.4050 H     1 <1>   0.0800 
 38 H       -3.5450    -1.5380     0.8980 H     1 <1>   0.0800 
 39 H        2.6730     0.8780     2.1220 H     1 <1>   0.1500 
 40 H        3.3740    -2.6900    -0.1020 H     1 <1>   0.1500 
 41 H       -6.1580     1.0230     0.2650 H     1 <1>   0.0800 
 42 H       -5.1500     0.7740     1.6590 H     1 <1>   0.0800 
 43 H        3.9670    -1.0020     3.1050 H     1 <1>   0.0800 
 44 H        5.1580    -0.9560     1.8250 H     1 <1>   0.0800 
 45 H        4.2930    -2.4360     2.1680 H     1 <1>   0.0800 
 46 H       -5.5320    -1.6750    -0.6430 H     1 <1>   0.3700 
 47 H       -5.5430    -3.7090    -1.6960 H     1 <1>   0.1500 
 48 H       -8.0330    -3.0990     1.7100 H     1 <1>   0.1500 
 49 H       -6.4200    -5.9930    -1.9120 H     1 <1>   0.1500 
 50 H       -8.8940    -5.3450     1.5010 H     1 <1>   0.1500 
 51 H       -9.2760    -8.6960     0.1010 H     1 <1>   0.0800 
 52 H      -10.0000    -7.1170     0.3890 H     1 <1>   0.0800 
 53 H       -8.6960    -7.7060     1.4370 H     1 <1>   0.0800 
@<TRIPOS>BOND
  1   1   2  2   
  2   1   3  2   
  3   1   4  am  
  4   1   5  1   
  5   4   6  1   
  6   4   7  1   
  7   5   8  ar  
  8   5   9  ar  
  9   6  10  1   
 10   6  29  1   
 11   6  30  1   
 12   7  11  1   
 13   7  31  1   
 14   7  32  1   
 15   8  12  ar  
 16   8  33  1   
 17   9  13  ar  
 18   9  34  1   
 19  10  14  1   
 20  10  35  1   
 21  10  36  1   
 22  11  14  1   
 23  11  37  1   
 24  11  38  1   
 25  12  15  ar  
 26  12  39  1   
 27  13  15  ar  
 28  13  40  1   
 29  14  16  1   
 30  15  17  1   
 31  16  18  1   
 32  16  41  1   
 33  16  42  1   
 34  17  43  1   
 35  17  44  1   
 36  17  45  1   
 37  18  19  2   
 38  18  20  am  
 39  20  21  1   
 40  20  46  1   
 41  21  22  ar  
 42  21  23  ar  
 43  22  24  ar  
 44  22  47  1   
 45  23  25  ar  
 46  23  48  1   
 47  24  26  ar  
 48  24  49  1   
 49  25  26  ar  
 50  25  50  1   
 51  26  27  1   
 52  27  28  1   
 53  28  51  1   
 54  28  52  1   
 55  28  53  1   
@<TRIPOS>SUBSTRUCTURE
  1 ****  11 GROUP 4 **** **** 0

# MOE 2024.06 (io_trps.svl 2023.06)
