@<TRIPOS>MOLECULE
7-(2-Chloro-6-fluoro-benzyl)-8-(4-ethyl-piperazin-1-ylmethyl)-3-methyl-3,7-dihyd
55 58 1 0 0 
SMALL
USER_CHARGES


@<TRIPOS>ATOM
  1 CL      -0.6020    -2.0630    -1.4820 Cl    1 <1>  -0.1770 
  2 C        1.0040    -1.8380    -0.8340 C.ar  1 <1>   0.1770 
  3 C        1.3740    -2.4330     0.3660 C.ar  1 <1>  -0.1440 
  4 C        1.8800    -1.0450    -1.5560 C.ar  1 <1>  -0.1500 
  5 C        2.6640    -2.1810     0.8100 C.ar  1 <1>   0.1900 
  6 C        0.4080    -3.3060     1.1640 C.3   1 <1>   0.2390 
  7 C        3.1640    -0.8200    -1.0850 C.ar  1 <1>  -0.1500 
  8 F        3.0690    -2.7110     1.9330 F     1 <1>  -0.1900 
  9 C        3.5610    -1.3930     0.1120 C.ar  1 <1>  -0.1500 
 10 N        0.1130    -4.5860     0.4600 N.pl3 1 <1>   0.0480 
 11 C       -1.1130    -5.0030     0.0400 C.2   1 <1>  -0.2370 
 12 C        0.9670    -5.5660     0.0560 C.2   1 <1>   0.0060 
 13 C       -2.4260    -4.4780     0.1650 C.2   1 <1>   0.7150 
 14 C       -0.9040    -6.1660    -0.6160 C.2   1 <1>   0.2900 
 15 N        0.3810    -6.5300    -0.6000 N.2   1 <1>  -0.5650 
 16 C        2.4730    -5.5120     0.3450 C.3   1 <1>   0.2900 
 17 O       -2.7050    -3.4860     0.8070 O.2   1 <1>  -0.5700 
 18 N       -3.4220    -5.1590    -0.4560 N.am  1 <1>  -0.4900 
 19 N       -1.9550    -6.8540    -1.2230 N.am  1 <1>  -0.4230 
 20 N        3.1380    -6.8300     0.2500 N.3   1 <1>  -0.8100 
 21 C       -3.2260    -6.3200    -1.1410 C.2   1 <1>   0.6900 
 22 C       -1.6590    -8.0860    -1.9960 C.3   1 <1>   0.0600 
 23 C        4.6150    -6.7470     0.2430 C.3   1 <1>   0.1100 
 24 C        2.6700    -7.7910     1.2790 C.3   1 <1>   0.1100 
 25 O       -4.1900    -6.8500    -1.6550 O.2   1 <1>  -0.5700 
 26 C        5.2680    -8.1460     0.0860 C.3   1 <1>   0.3430 
 27 C        3.2580    -9.2040     1.0490 C.3   1 <1>   0.3430 
 28 N        4.2230    -9.2070    -0.1040 N.4   1 <1>  -0.9590 
 29 C        4.7810   -10.5330    -0.4560 C.3   1 <1>   0.3430 
 30 C        3.6760   -11.4230    -1.0130 C.3   1 <1>  -0.2400 
 31 H        1.5540    -0.6050    -2.4820 H     1 <1>   0.1500 
 32 H       -0.5010    -2.7580     1.3180 H     1 <1>   0.0800 
 33 H        0.8050    -3.5390     2.1340 H     1 <1>   0.0800 
 34 H        3.8460    -0.2020    -1.6450 H     1 <1>   0.1500 
 35 H        4.5510    -1.2270     0.5000 H     1 <1>   0.1500 
 36 H        2.6360    -5.1140     1.3310 H     1 <1>   0.0800 
 37 H        2.9200    -4.8420    -0.3700 H     1 <1>   0.0800 
 38 H       -4.3640    -4.7940    -0.4010 H     1 <1>   0.3700 
 39 H       -0.9800    -7.8490    -2.7960 H     1 <1>   0.0800 
 40 H       -2.5580    -8.5050    -2.4120 H     1 <1>   0.0800 
 41 H       -1.2000    -8.8120    -1.3490 H     1 <1>   0.0800 
 42 H        4.9640    -6.2890     1.1530 H     1 <1>   0.0800 
 43 H        4.9310    -6.1240    -0.5770 H     1 <1>   0.0800 
 44 H        1.5960    -7.8670     1.2560 H     1 <1>   0.0800 
 45 H        2.9460    -7.4430     2.2590 H     1 <1>   0.0800 
 46 H        5.8580    -8.3630     0.9610 H     1 <1>   0.0800 
 47 H        5.9310    -8.1260    -0.7630 H     1 <1>   0.0800 
 48 H        2.4450    -9.8800     0.8460 H     1 <1>   0.0800 
 49 H        3.7480    -9.5380     1.9480 H     1 <1>   0.0800 
 50 H        3.6490    -8.8420    -0.8830 H     1 <1>   0.4500 
 51 H        5.2280   -10.9920     0.4110 H     1 <1>   0.0800 
 52 H        5.5440   -10.4140    -1.2090 H     1 <1>   0.0800 
 53 H        2.9430   -11.6570    -0.2630 H     1 <1>   0.0800 
 54 H        4.1060   -12.3500    -1.3480 H     1 <1>   0.0800 
 55 H        3.1980   -10.9560    -1.8560 H     1 <1>   0.0800 
@<TRIPOS>BOND
  1   1   2  1   
  2   2   3  ar  
  3   2   4  ar  
  4   3   5  ar  
  5   3   6  1   
  6   4   7  ar  
  7   4  31  1   
  8   5   8  1   
  9   5   9  ar  
 10   6  10  1   
 11   6  32  1   
 12   6  33  1   
 13   7   9  ar  
 14   7  34  1   
 15   9  35  1   
 16  10  11  1   
 17  10  12  1   
 18  11  13  1   
 19  11  14  2   
 20  12  15  2   
 21  12  16  1   
 22  13  17  2   
 23  13  18  am  
 24  14  15  1   
 25  14  19  1   
 26  16  20  1   
 27  16  36  1   
 28  16  37  1   
 29  18  21  am  
 30  18  38  1   
 31  19  21  am  
 32  19  22  1   
 33  20  23  1   
 34  20  24  1   
 35  21  25  2   
 36  22  39  1   
 37  22  40  1   
 38  22  41  1   
 39  23  26  1   
 40  23  42  1   
 41  23  43  1   
 42  24  27  1   
 43  24  44  1   
 44  24  45  1   
 45  26  28  1   
 46  26  46  1   
 47  26  47  1   
 48  27  28  1   
 49  27  48  1   
 50  27  49  1   
 51  28  29  1   
 52  28  50  1   
 53  29  30  1   
 54  29  51  1   
 55  29  52  1   
 56  30  53  1   
 57  30  54  1   
 58  30  55  1   
@<TRIPOS>SUBSTRUCTURE
  1 ****  12 GROUP 4 **** **** 0

# MOE 2024.06 (io_trps.svl 2023.06)
