@<TRIPOS>MOLECULE
3,4,5,6-Tetrahydro-2H-[1,2']bipyridinyl-3-carboxylic acid
28 29 1 0 0 
SMALL
USER_CHARGES


@<TRIPOS>ATOM
  1 O       -0.1110    -1.2780     1.8930 O.co2 1 <1>  -0.9000 
  2 C       -0.3540    -1.7300     0.7700 C.2   1 <1>   0.9060 
  3 O        0.4630    -1.6750    -0.1560 O.co2 1 <1>  -0.9000 
  4 C       -1.6950    -2.3940     0.5290 C.3   1 <1>  -0.1860 
  5 C       -1.4420    -3.8170     0.0340 C.3   1 <1>   0.2090 
  6 C       -2.5750    -1.6070    -0.4630 C.3   1 <1>  -0.1600 
  7 N       -2.7470    -4.5030    -0.2140 N.pl3 1 <1>  -0.8380 
  8 C       -3.8700    -2.3790    -0.7630 C.3   1 <1>  -0.1600 
  9 C       -2.8120    -5.8790    -0.0860 C.ar  1 <1>   0.4100 
 10 C       -3.5820    -3.8100    -1.2280 C.3   1 <1>   0.2090 
 11 N       -3.2160    -6.5820    -1.1420 N.ar  1 <1>  -0.6200 
 12 C       -2.4620    -6.4720     1.1260 C.ar  1 <1>  -0.1500 
 13 C       -3.2560    -7.8940    -0.9850 C.ar  1 <1>   0.1600 
 14 C       -2.5090    -7.8380     1.2760 C.ar  1 <1>  -0.1500 
 15 C       -2.9200    -8.5650     0.1770 C.ar  1 <1>  -0.1500 
 16 H       -2.1950    -2.4530     1.4770 H     1 <1>   0.0800 
 17 H       -0.8600    -4.3520     0.7630 H     1 <1>   0.0800 
 18 H       -0.8770    -3.7840    -0.8820 H     1 <1>   0.0800 
 19 H       -2.0230    -1.4580    -1.3760 H     1 <1>   0.0800 
 20 H       -2.8030    -0.6400    -0.0510 H     1 <1>   0.0800 
 21 H       -4.4300    -1.8640    -1.5210 H     1 <1>   0.0800 
 22 H       -4.4740    -2.4240     0.1260 H     1 <1>   0.0800 
 23 H       -4.5090    -4.3410    -1.3620 H     1 <1>   0.0800 
 24 H       -3.0560    -3.7980    -2.1680 H     1 <1>   0.0800 
 25 H       -2.1630    -5.8390     1.9390 H     1 <1>   0.1500 
 26 H       -3.5770    -8.4690    -1.8360 H     1 <1>   0.1500 
 27 H       -2.2410    -8.3150     2.2020 H     1 <1>   0.1500 
 28 H       -2.9800    -9.6370     0.2210 H     1 <1>   0.1500 
@<TRIPOS>BOND
  1   1   2  ar  
  2   2   3  ar  
  3   2   4  1   
  4   4   5  1   
  5   4   6  1   
  6   4  16  1   
  7   5   7  1   
  8   5  17  1   
  9   5  18  1   
 10   6   8  1   
 11   6  19  1   
 12   6  20  1   
 13   7   9  1   
 14   7  10  1   
 15   8  10  1   
 16   8  21  1   
 17   8  22  1   
 18   9  11  ar  
 19   9  12  ar  
 20  10  23  1   
 21  10  24  1   
 22  11  13  ar  
 23  12  14  ar  
 24  12  25  1   
 25  13  15  ar  
 26  13  26  1   
 27  14  15  ar  
 28  14  27  1   
 29  15  28  1   
@<TRIPOS>SUBSTRUCTURE
  1 ****   7 GROUP 4 **** **** 0

# MOE 2024.06 (io_trps.svl 2023.06)
