@<TRIPOS>MOLECULE
N-Ethyl-4-[3-(2-methoxy-phenyl)-[1,2,4]oxadiazol-5-yl]-butyramide
40 41 1 0 0 
SMALL
USER_CHARGES


@<TRIPOS>ATOM
  1 O       -0.3830    -1.7800     2.0440 O.2   1 <1>  -0.5700 
  2 C       -1.2280    -2.2540     1.3290 C.2   1 <1>   0.5690 
  3 N       -0.9260    -3.3070     0.5320 N.am  1 <1>  -0.7300 
  4 C       -2.6210    -1.6530     1.3390 C.3   1 <1>  -0.0990 
  5 C       -1.7780    -4.0110    -0.4490 C.3   1 <1>   0.1400 
  6 C       -2.7990    -0.6050     0.2230 C.3   1 <1>  -0.1600 
  7 C       -2.2770    -5.3080     0.1750 C.3   1 <1>  -0.2400 
  8 C       -4.2730    -0.2270     0.0030 C.3   1 <1>   0.0200 
  9 C       -5.0900    -1.4160    -0.4700 C.2   1 <1>   0.2980 
 10 O       -4.8020    -1.9590    -1.6250 O.3   1 <1>  -0.0190 
 11 N       -6.0330    -1.9660     0.1710 N.2   1 <1>  -0.5650 
 12 N       -5.6280    -2.9520    -1.7220 N.2   1 <1>  -0.4100 
 13 C       -6.3720    -2.9460    -0.6730 C.2   1 <1>   0.4620 
 14 C       -7.4180    -3.9030    -0.3890 C.ar  1 <1>   0.0540 
 15 C       -8.7500    -3.5200    -0.1840 C.ar  1 <1>   0.0820 
 16 C       -7.1060    -5.2610    -0.3180 C.ar  1 <1>  -0.1500 
 17 O       -9.0520    -2.2000    -0.2900 O.3   1 <1>  -0.3630 
 18 C       -9.7170    -4.4810     0.1030 C.ar  1 <1>  -0.1500 
 19 C       -8.0690    -6.2100    -0.0370 C.ar  1 <1>  -0.1500 
 20 C      -10.3480    -1.6980    -0.0520 C.3   1 <1>   0.0400 
 21 C       -9.3780    -5.8190     0.1770 C.ar  1 <1>  -0.1500 
 22 H        0.0270    -3.6630     0.6330 H     1 <1>   0.3700 
 23 H       -2.7870    -1.1900     2.2950 H     1 <1>   0.0800 
 24 H       -3.3340    -2.4500     1.2470 H     1 <1>   0.0800 
 25 H       -1.2010    -4.2230    -1.3340 H     1 <1>   0.0800 
 26 H       -2.6150    -3.3980    -0.7360 H     1 <1>   0.0800 
 27 H       -2.3950    -0.9860    -0.6990 H     1 <1>   0.0800 
 28 H       -2.2360     0.2760     0.4820 H     1 <1>   0.0800 
 29 H       -1.4480    -5.9400     0.4400 H     1 <1>   0.0800 
 30 H       -2.8960    -5.8320    -0.5300 H     1 <1>   0.0800 
 31 H       -2.8620    -5.0980     1.0520 H     1 <1>   0.0800 
 32 H       -4.3410     0.5500    -0.7350 H     1 <1>   0.0800 
 33 H       -4.6940     0.1480     0.9190 H     1 <1>   0.0800 
 34 H       -6.0890    -5.5700    -0.4850 H     1 <1>   0.1500 
 35 H      -10.7420    -4.2080     0.2690 H     1 <1>   0.1500 
 36 H       -7.8040    -7.2530     0.0150 H     1 <1>   0.1500 
 37 H      -10.3190    -0.6300    -0.1750 H     1 <1>   0.0800 
 38 H      -10.6380    -1.9420     0.9540 H     1 <1>   0.0800 
 39 H      -11.0270    -2.1290    -0.7670 H     1 <1>   0.0800 
 40 H      -10.1310    -6.5560     0.3990 H     1 <1>   0.1500 
@<TRIPOS>BOND
  1   1   2  2   
  2   2   3  am  
  3   2   4  1   
  4   3   5  1   
  5   3  22  1   
  6   4   6  1   
  7   4  23  1   
  8   4  24  1   
  9   5   7  1   
 10   5  25  1   
 11   5  26  1   
 12   6   8  1   
 13   6  27  1   
 14   6  28  1   
 15   7  29  1   
 16   7  30  1   
 17   7  31  1   
 18   8   9  1   
 19   8  32  1   
 20   8  33  1   
 21   9  10  1   
 22   9  11  2   
 23  10  12  1   
 24  11  13  1   
 25  12  13  2   
 26  13  14  1   
 27  14  15  ar  
 28  14  16  ar  
 29  15  17  1   
 30  15  18  ar  
 31  16  19  ar  
 32  16  34  1   
 33  17  20  1   
 34  18  21  ar  
 35  18  35  1   
 36  19  21  ar  
 37  19  36  1   
 38  20  37  1   
 39  20  38  1   
 40  20  39  1   
 41  21  40  1   
@<TRIPOS>SUBSTRUCTURE
  1 ****  13 GROUP 4 **** **** 0

# MOE 2024.06 (io_trps.svl 2023.06)
