@<TRIPOS>MOLECULE
4,6-Dimethyl-2-oxo-1-(2-oxo-2-pyrrolidin-1-yl-ethyl)-1,2-dihydro-pyridine-3-carb
36 37 1 0 0 
SMALL
USER_CHARGES


@<TRIPOS>ATOM
  1 O        1.5610    -0.7320     2.5510 O.2   1 <1>  -0.5700 
  2 C        1.2780    -1.4830     1.6210 C.2   1 <1>   0.6160 
  3 N        2.2260    -1.7210     0.6290 N.am  1 <1>  -0.4690 
  4 C       -0.0040    -2.1110     1.5380 C.2   1 <1>   0.0790 
  5 C        1.9270    -2.5860    -0.4150 C.2   1 <1>  -0.0290 
  6 C        3.5810    -1.0550     0.7430 C.3   1 <1>   0.2010 
  7 C       -0.9370    -1.8030     2.5750 C.1   1 <1>   0.4920 
  8 C       -0.2850    -2.9580     0.4970 C.2   1 <1>  -0.1380 
  9 C        0.7090    -3.1870    -0.4800 C.2   1 <1>  -0.1500 
 10 C        2.9590    -2.8700    -1.4990 C.3   1 <1>  -0.1020 
 11 C        3.8480     0.0420    -0.2910 C.2   1 <1>   0.5690 
 12 N       -1.7280    -1.5900     3.3700 N.1   1 <1>  -0.5570 
 13 C       -1.6110    -3.6870     0.3010 C.3   1 <1>  -0.1020 
 14 O        4.6960    -0.1760    -1.1280 O.2   1 <1>  -0.5700 
 15 N        3.1810     1.2390    -0.2660 N.am  1 <1>  -0.6600 
 16 C        2.2030     1.6840     0.7510 C.3   1 <1>   0.1400 
 17 C        3.4150     2.2950    -1.2740 C.3   1 <1>   0.1400 
 18 C        2.0180     3.1730     0.4870 C.3   1 <1>  -0.1600 
 19 C        2.3480     3.3460    -0.9930 C.3   1 <1>  -0.1600 
 20 H        4.3410    -1.8050     0.6390 H     1 <1>   0.0800 
 21 H        3.7210    -0.6270     1.7180 H     1 <1>   0.0800 
 22 H        0.4710    -3.8570    -1.2890 H     1 <1>   0.1500 
 23 H        3.8890    -3.1960    -1.0710 H     1 <1>   0.0800 
 24 H        3.1300    -1.9890    -2.0910 H     1 <1>   0.0800 
 25 H        2.6140    -3.6430    -2.1610 H     1 <1>   0.0800 
 26 H       -1.4440    -4.7500     0.2900 H     1 <1>   0.0800 
 27 H       -2.0490    -3.4010    -0.6390 H     1 <1>   0.0800 
 28 H       -2.3220    -3.4720     1.0790 H     1 <1>   0.0800 
 29 H        2.5650     1.5060     1.7490 H     1 <1>   0.0800 
 30 H        1.2730     1.1630     0.5980 H     1 <1>   0.0800 
 31 H        3.3340     1.8970    -2.2710 H     1 <1>   0.0800 
 32 H        4.4010     2.7040    -1.1280 H     1 <1>   0.0800 
 33 H        2.7230     3.7240     1.0850 H     1 <1>   0.0800 
 34 H        1.0220     3.5010     0.7280 H     1 <1>   0.0800 
 35 H        1.4790     3.1280    -1.5900 H     1 <1>   0.0800 
 36 H        2.6930     4.3380    -1.2250 H     1 <1>   0.0800 
@<TRIPOS>BOND
  1   1   2  2   
  2   2   3  am  
  3   2   4  1   
  4   3   5  1   
  5   3   6  1   
  6   4   7  1   
  7   4   8  2   
  8   5   9  2   
  9   5  10  1   
 10   6  11  1   
 11   6  20  1   
 12   6  21  1   
 13   7  12  3   
 14   8   9  1   
 15   8  13  1   
 16   9  22  1   
 17  10  23  1   
 18  10  24  1   
 19  10  25  1   
 20  11  14  2   
 21  11  15  am  
 22  13  26  1   
 23  13  27  1   
 24  13  28  1   
 25  15  16  1   
 26  15  17  1   
 27  16  18  1   
 28  16  29  1   
 29  16  30  1   
 30  17  19  1   
 31  17  31  1   
 32  17  32  1   
 33  18  19  1   
 34  18  33  1   
 35  18  34  1   
 36  19  35  1   
 37  19  36  1   
@<TRIPOS>SUBSTRUCTURE
  1 ****   3 GROUP 4 **** **** 0

# MOE 2024.06 (io_trps.svl 2023.06)
