@<TRIPOS>MOLECULE
1-(Naphthalene-2-sulfonyl)-piperidine-4-carboxylic acid phenethyl-amide
56 59 1 0 0 
SMALL
USER_CHARGES


@<TRIPOS>ATOM
  1 S        0.3460    -0.0440    -0.1400 S.o2  1 <1>   1.4470 
  2 O       -0.0480     0.7630     0.9940 O.2   1 <1>  -0.6500 
  3 O        0.0190     0.3980    -1.4790 O.2   1 <1>  -0.6500 
  4 N        2.0350    -0.1860    -0.0770 N.am  1 <1>  -0.8490 
  5 C       -0.2140    -1.7510     0.1150 C.ar  1 <1>  -0.0090 
  6 C        2.5930    -0.8440    -1.2580 C.3   1 <1>   0.1960 
  7 C        2.6670     1.1230     0.1470 C.3   1 <1>   0.1960 
  8 C       -0.8340    -2.4710    -0.8750 C.ar  1 <1>  -0.1500 
  9 C        0.0020    -2.3840     1.3520 C.ar  1 <1>  -0.1500 
 10 C        4.0510    -1.2470    -0.9910 C.3   1 <1>  -0.1600 
 11 C        4.1940     1.0820    -0.0410 C.3   1 <1>  -0.1600 
 12 C       -1.2500    -3.8050    -0.6940 C.ar  1 <1>   0.0000 
 13 C       -0.3890    -3.6770     1.5640 C.ar  1 <1>  -0.1500 
 14 C        4.7530    -0.3480     0.0490 C.3   1 <1>  -0.0190 
 15 C       -1.0220    -4.4230     0.5520 C.ar  1 <1>   0.0000 
 16 C       -1.8850    -4.5460    -1.7120 C.ar  1 <1>  -0.1500 
 17 C        6.2710    -0.3850    -0.1050 C.2   1 <1>   0.5690 
 18 C       -1.4340    -5.7580     0.7340 C.ar  1 <1>  -0.1500 
 19 C       -2.2740    -5.8410    -1.5090 C.ar  1 <1>  -0.1500 
 20 O        6.7800     0.1020    -1.0860 O.2   1 <1>  -0.5700 
 21 N        7.0140    -0.9770     0.8660 N.am  1 <1>  -0.7300 
 22 C       -2.0460    -6.4540    -0.2720 C.ar  1 <1>  -0.1500 
 23 C        8.4950    -1.0580     0.8580 C.3   1 <1>   0.1400 
 24 C        8.9430    -2.4050     0.2910 C.3   1 <1>  -0.0170 
 25 C       10.4590    -2.5050     0.3140 C.ar  1 <1>  -0.1430 
 26 C       11.1080    -3.1660     1.3460 C.ar  1 <1>  -0.1500 
 27 C       11.2070    -1.9270    -0.7000 C.ar  1 <1>  -0.1500 
 28 C       12.4900    -3.2490     1.3630 C.ar  1 <1>  -0.1500 
 29 C       12.5890    -2.0080    -0.6830 C.ar  1 <1>  -0.1500 
 30 C       13.2310    -2.6700     0.3490 C.ar  1 <1>  -0.1500 
 31 H        2.5440    -0.1710    -2.0990 H     1 <1>   0.0800 
 32 H        2.0250    -1.7250    -1.5050 H     1 <1>   0.0800 
 33 H        2.4440     1.4390     1.1530 H     1 <1>   0.0800 
 34 H        2.2470     1.8550    -0.5250 H     1 <1>   0.0800 
 35 H       -1.0170    -2.0140    -1.8330 H     1 <1>   0.1500 
 36 H        0.4860    -1.8220     2.1330 H     1 <1>   0.1500 
 37 H        4.5800    -1.2100    -1.9280 H     1 <1>   0.0800 
 38 H        4.0810    -2.2670    -0.6510 H     1 <1>   0.0800 
 39 H        4.6610     1.7120     0.6940 H     1 <1>   0.0800 
 40 H        4.4340     1.4930    -1.0070 H     1 <1>   0.0800 
 41 H       -0.2180    -4.1480     2.5160 H     1 <1>   0.1500 
 42 H        4.5060    -0.7230     1.0270 H     1 <1>   0.0800 
 43 H       -2.0590    -4.0700    -2.6600 H     1 <1>   0.1500 
 44 H       -1.2580    -6.2250     1.6860 H     1 <1>   0.1500 
 45 H       -2.7580    -6.4020    -2.2900 H     1 <1>   0.1500 
 46 H        6.5500    -1.4010     1.6700 H     1 <1>   0.3700 
 47 H       -2.3590    -7.4740    -0.1280 H     1 <1>   0.1500 
 48 H        8.8680    -0.9380     1.8610 H     1 <1>   0.0800 
 49 H        8.9000    -0.2630     0.2530 H     1 <1>   0.0800 
 50 H        8.5960    -2.4970    -0.7240 H     1 <1>   0.0800 
 51 H        8.5180    -3.2050     0.8690 H     1 <1>   0.0800 
 52 H       10.5430    -3.6210     2.1400 H     1 <1>   0.1500 
 53 H       10.7160    -1.4100    -1.5060 H     1 <1>   0.1500 
 54 H       12.9880    -3.7640     2.1660 H     1 <1>   0.1500 
 55 H       13.1630    -1.5570    -1.4740 H     1 <1>   0.1500 
 56 H       14.3050    -2.7340     0.3620 H     1 <1>   0.1500 
@<TRIPOS>BOND
  1   1   2  2   
  2   1   3  2   
  3   1   4  am  
  4   1   5  1   
  5   4   6  1   
  6   4   7  1   
  7   5   8  ar  
  8   5   9  ar  
  9   6  10  1   
 10   6  31  1   
 11   6  32  1   
 12   7  11  1   
 13   7  33  1   
 14   7  34  1   
 15   8  12  ar  
 16   8  35  1   
 17   9  13  ar  
 18   9  36  1   
 19  10  14  1   
 20  10  37  1   
 21  10  38  1   
 22  11  14  1   
 23  11  39  1   
 24  11  40  1   
 25  12  15  ar  
 26  12  16  ar  
 27  13  15  ar  
 28  13  41  1   
 29  14  17  1   
 30  14  42  1   
 31  15  18  ar  
 32  16  19  ar  
 33  16  43  1   
 34  17  20  2   
 35  17  21  am  
 36  18  22  ar  
 37  18  44  1   
 38  19  22  ar  
 39  19  45  1   
 40  21  23  1   
 41  21  46  1   
 42  22  47  1   
 43  23  24  1   
 44  23  48  1   
 45  23  49  1   
 46  24  25  1   
 47  24  50  1   
 48  24  51  1   
 49  25  26  ar  
 50  25  27  ar  
 51  26  28  ar  
 52  26  52  1   
 53  27  29  ar  
 54  27  53  1   
 55  28  30  ar  
 56  28  54  1   
 57  29  30  ar  
 58  29  55  1   
 59  30  56  1   
@<TRIPOS>SUBSTRUCTURE
  1 ****  10 GROUP 4 **** **** 0

# MOE 2024.06 (io_trps.svl 2023.06)
