@<TRIPOS>MOLECULE
4-(4-Chloro-phenoxy)-N-[5-(tetrahydro-furan-2-yl)-[1,3,4]thiadiazol-2-yl]-butyra
42 44 1 0 0 
SMALL
USER_CHARGES


@<TRIPOS>ATOM
  1 CL      -1.1240     2.4660    -0.4120 Cl    1 <1>  -0.1770 
  2 C        0.5980     2.7510    -0.3640 C.ar  1 <1>   0.1770 
  3 C        1.0700     4.0500    -0.3440 C.ar  1 <1>  -0.1500 
  4 C        1.4630     1.6710    -0.3460 C.ar  1 <1>  -0.1500 
  5 C        2.4370     4.2690    -0.3060 C.ar  1 <1>  -0.1500 
  6 C        2.8300     1.8940    -0.3080 C.ar  1 <1>  -0.1500 
  7 C        3.3210     3.2000    -0.2880 C.ar  1 <1>   0.0830 
  8 O        4.6410     3.5080    -0.2500 O.3   1 <1>  -0.3630 
  9 C        5.6310     2.5060    -0.2240 C.3   1 <1>   0.1200 
 10 C        6.9990     3.1870    -0.1860 C.3   1 <1>  -0.1600 
 11 C        8.1420     2.1540    -0.1590 C.3   1 <1>  -0.0990 
 12 C        9.5400     2.7660    -0.1470 C.2   1 <1>   0.5690 
 13 O        9.6690     3.9480     0.0370 O.2   1 <1>  -0.5700 
 14 N       10.6610     2.0250    -0.3530 N.am  1 <1>  -0.4940 
 15 C       10.9560     0.6870    -0.5080 C.2   1 <1>   0.4420 
 16 S        9.7950    -0.5650    -0.1880 S.3   1 <1>  -0.0800 
 17 N       12.0900     0.2100    -0.8680 N.2   1 <1>  -0.3380 
 18 C       11.0200    -1.7130    -0.6190 C.2   1 <1>   0.1980 
 19 N       12.1190    -1.1550    -0.9350 N.2   1 <1>  -0.3380 
 20 C       10.6870    -3.2000    -0.5730 C.3   1 <1>   0.3800 
 21 O        9.4080    -3.4540    -1.0670 O.3   1 <1>  -0.5600 
 22 C       10.6650    -3.7860     0.8330 C.3   1 <1>  -0.1600 
 23 C        8.9510    -4.6840    -0.6000 C.3   1 <1>   0.1200 
 24 C        9.6870    -4.9450     0.7130 C.3   1 <1>  -0.1600 
 25 H        0.3780     4.8720    -0.3580 H     1 <1>   0.1500 
 26 H        1.0660     0.6720    -0.3620 H     1 <1>   0.1500 
 27 H        2.8280     5.2710    -0.2900 H     1 <1>   0.1500 
 28 H        3.4890     1.0480    -0.2950 H     1 <1>   0.1500 
 29 H        5.5280     1.9060    -1.1120 H     1 <1>   0.0800 
 30 H        5.4790     1.9040     0.6550 H     1 <1>   0.0800 
 31 H        7.0590     3.8090     0.6910 H     1 <1>   0.0800 
 32 H        7.1060     3.8140    -1.0550 H     1 <1>   0.0800 
 33 H        8.0550     1.5300    -1.0300 H     1 <1>   0.0800 
 34 H        8.0360     1.5430     0.7180 H     1 <1>   0.0800 
 35 H       11.4860     2.6180    -0.4170 H     1 <1>   0.3700 
 36 H       11.3830    -3.7440    -1.1890 H     1 <1>   0.0800 
 37 H       10.2900    -3.0540     1.5260 H     1 <1>   0.0800 
 38 H       11.6460    -4.0980     1.1450 H     1 <1>   0.0800 
 39 H        9.1880    -5.4320    -1.3380 H     1 <1>   0.0800 
 40 H        7.8850    -4.6240    -0.4650 H     1 <1>   0.0800 
 41 H        9.0010    -4.9710     1.5420 H     1 <1>   0.0800 
 42 H       10.2030    -5.8890     0.6580 H     1 <1>   0.0800 
@<TRIPOS>BOND
  1   1   2  1   
  2   2   3  ar  
  3   2   4  ar  
  4   3   5  ar  
  5   3  25  1   
  6   4   6  ar  
  7   4  26  1   
  8   5   7  ar  
  9   5  27  1   
 10   6   7  ar  
 11   6  28  1   
 12   7   8  1   
 13   8   9  1   
 14   9  10  1   
 15   9  29  1   
 16   9  30  1   
 17  10  11  1   
 18  10  31  1   
 19  10  32  1   
 20  11  12  1   
 21  11  33  1   
 22  11  34  1   
 23  12  13  2   
 24  12  14  am  
 25  14  15  1   
 26  14  35  1   
 27  15  16  1   
 28  15  17  2   
 29  16  18  1   
 30  17  19  1   
 31  18  19  2   
 32  18  20  1   
 33  20  21  1   
 34  20  22  1   
 35  20  36  1   
 36  21  23  1   
 37  22  24  1   
 38  22  37  1   
 39  22  38  1   
 40  23  24  1   
 41  23  39  1   
 42  23  40  1   
 43  24  41  1   
 44  24  42  1   
@<TRIPOS>SUBSTRUCTURE
  1 ****  11 GROUP 4 **** **** 0

# MOE 2024.06 (io_trps.svl 2023.06)
