@<TRIPOS>MOLECULE
5-Acetyl-4-(4-cyclopentyloxy-phenyl)-6-methyl-3,4-dihydro-1H-pyrimidin-2-one
45 47 1 0 0 
SMALL
USER_CHARGES


@<TRIPOS>ATOM
  1 O        0.6330     0.2630    -0.2530 O.2   1 <1>  -0.5700 
  2 C        1.1330     1.3310     0.0120 C.2   1 <1>   0.6900 
  3 N        0.7240     2.4560    -0.6250 N.am  1 <1>  -0.5390 
  4 N        2.1130     1.4270     0.9220 N.am  1 <1>  -0.7300 
  5 C        1.2630     3.7080    -0.4220 C.2   1 <1>  -0.0290 
  6 C        2.9180     2.6480     1.1240 C.3   1 <1>   0.5020 
  7 C        2.3360     3.8720     0.4040 C.2   1 <1>  -0.1240 
  8 C        0.5250     4.8070    -1.1690 C.3   1 <1>  -0.1020 
  9 C        4.3370     2.3640     0.6330 C.ar  1 <1>  -0.1440 
 10 C        3.0560     5.0620     0.7300 C.2   1 <1>   0.4950 
 11 C        5.4240     2.6290     1.4550 C.ar  1 <1>  -0.1500 
 12 C        4.5660     1.8530    -0.6390 C.ar  1 <1>  -0.1500 
 13 O        3.5330     5.2510     1.8230 O.2   1 <1>  -0.5700 
 14 C        3.3090     6.1450    -0.2970 C.3   1 <1>  -0.1790 
 15 C        6.7150     2.3840     1.0220 C.ar  1 <1>  -0.1500 
 16 C        5.8560     1.6060    -1.0730 C.ar  1 <1>  -0.1500 
 17 C        6.9380     1.8680    -0.2510 C.ar  1 <1>   0.0820 
 18 O        8.1660     1.5970    -0.7600 O.3   1 <1>  -0.3620 
 19 C        9.3580     1.7990    -0.0270 C.3   1 <1>   0.2000 
 20 C       10.5260     1.6930    -1.0000 C.3   1 <1>  -0.1600 
 21 C        9.5780     0.6210     0.9220 C.3   1 <1>  -0.1600 
 22 C       10.7800     0.1920    -1.1750 C.3   1 <1>  -0.1600 
 23 C       10.1800    -0.4930     0.0590 C.3   1 <1>  -0.1600 
 24 H       -0.0550     2.2980    -1.2630 H     1 <1>   0.3700 
 25 H        2.5280     0.5570     1.2460 H     1 <1>   0.3700 
 26 H        2.9380     2.8470     2.1830 H     1 <1>   0.0800 
 27 H       -0.5360     4.6360    -1.1220 H     1 <1>   0.0800 
 28 H        0.8250     4.8170    -2.2020 H     1 <1>   0.0800 
 29 H        0.7070     5.7720    -0.7390 H     1 <1>   0.0800 
 30 H        5.2690     3.0390     2.4400 H     1 <1>   0.1500 
 31 H        3.7400     1.6430    -1.2970 H     1 <1>   0.1500 
 32 H        2.6520     6.9760    -0.1210 H     1 <1>   0.0800 
 33 H        3.1690     5.7690    -1.2930 H     1 <1>   0.0800 
 34 H        4.3240     6.4860    -0.2050 H     1 <1>   0.0800 
 35 H        7.5280     2.6000     1.6870 H     1 <1>   0.1500 
 36 H        6.0320     1.2080    -2.0560 H     1 <1>   0.1500 
 37 H        9.3250     2.7600     0.4560 H     1 <1>   0.0800 
 38 H       11.3920     2.1440    -0.5500 H     1 <1>   0.0800 
 39 H       10.3180     2.1890    -1.9320 H     1 <1>   0.0800 
 40 H        8.6730     0.3120     1.4130 H     1 <1>   0.0800 
 41 H       10.2970     0.9120     1.6670 H     1 <1>   0.0800 
 42 H       11.8320    -0.0140    -1.2720 H     1 <1>   0.0800 
 43 H       10.2730    -0.1580    -2.0580 H     1 <1>   0.0800 
 44 H        9.4000    -1.1680    -0.2520 H     1 <1>   0.0800 
 45 H       10.9230    -1.0470     0.6060 H     1 <1>   0.0800 
@<TRIPOS>BOND
  1   1   2  2   
  2   2   3  am  
  3   2   4  am  
  4   3   5  1   
  5   3  24  1   
  6   4   6  1   
  7   4  25  1   
  8   5   7  2   
  9   5   8  1   
 10   6   7  1   
 11   6   9  1   
 12   6  26  1   
 13   7  10  1   
 14   8  27  1   
 15   8  28  1   
 16   8  29  1   
 17   9  11  ar  
 18   9  12  ar  
 19  10  13  2   
 20  10  14  1   
 21  11  15  ar  
 22  11  30  1   
 23  12  16  ar  
 24  12  31  1   
 25  14  32  1   
 26  14  33  1   
 27  14  34  1   
 28  15  17  ar  
 29  15  35  1   
 30  16  17  ar  
 31  16  36  1   
 32  17  18  1   
 33  18  19  1   
 34  19  20  1   
 35  19  21  1   
 36  19  37  1   
 37  20  22  1   
 38  20  38  1   
 39  20  39  1   
 40  21  23  1   
 41  21  40  1   
 42  21  41  1   
 43  22  23  1   
 44  22  42  1   
 45  22  43  1   
 46  23  44  1   
 47  23  45  1   
@<TRIPOS>SUBSTRUCTURE
  1 ****   9 GROUP 4 **** **** 0

# MOE 2024.06 (io_trps.svl 2023.06)
