@<TRIPOS>MOLECULE
3-tert-Butyl-6-m-tolyloxymethyl-[1,2,4]triazolo[3,4-b][1,3,4]thiadiazole
39 41 1 0 0 
SMALL
USER_CHARGES


@<TRIPOS>ATOM
  1 S       -0.4480     0.1070    -2.1240 S.3   1 <1>  -0.1970 
  2 C        0.6820     1.3990    -1.7830 C.2   1 <1>   0.2420 
  3 C       -1.6380     0.9500    -1.1110 C.2   1 <1>   0.5300 
  4 N        1.8910     1.6730    -2.1140 N.2   1 <1>  -0.3380 
  5 N        0.1000     2.2860    -0.9930 N.pl3 1 <1>   0.5050 
  6 N       -1.2280     2.0470    -0.6100 N.2   1 <1>  -0.6520 
  7 C       -2.9990     0.2920    -0.9690 C.3   1 <1>   0.1810 
  8 N        2.1480     2.8400    -1.4950 N.2   1 <1>  -0.3380 
  9 C        1.0810     3.1940    -0.8340 C.2   1 <1>   0.0060 
 10 O       -2.8640    -0.9610    -0.3270 O.3   1 <1>  -0.3630 
 11 C        0.9260     4.4610     0.0190 C.3   1 <1>   0.1800 
 12 C       -3.9410    -1.7530    -0.1000 C.ar  1 <1>   0.0820 
 13 C        0.6120     4.0820     1.4740 C.3   1 <1>  -0.2400 
 14 C       -0.2060     5.3370    -0.5390 C.3   1 <1>  -0.2400 
 15 C        2.2220     5.2890     0.0090 C.3   1 <1>  -0.2400 
 16 C       -5.2480    -1.4000    -0.4260 C.ar  1 <1>  -0.1500 
 17 C       -3.6930    -2.9800     0.4920 C.ar  1 <1>  -0.1500 
 18 C       -6.2940    -2.2690    -0.1610 C.ar  1 <1>  -0.1430 
 19 C       -4.7340    -3.8510     0.7570 C.ar  1 <1>  -0.1500 
 20 C       -6.0310    -3.4950     0.4300 C.ar  1 <1>  -0.1500 
 21 C       -7.7210    -1.8890    -0.5160 C.3   1 <1>  -0.0970 
 22 H       -3.4320     0.1320    -1.9400 H     1 <1>   0.0800 
 23 H       -3.6400     0.9120    -0.3700 H     1 <1>   0.0800 
 24 H        1.3880     3.4490     1.8660 H     1 <1>   0.0800 
 25 H       -0.3230     3.5550     1.5410 H     1 <1>   0.0800 
 26 H        0.5460     4.9620     2.0880 H     1 <1>   0.0800 
 27 H       -1.1490     4.8230    -0.4910 H     1 <1>   0.0800 
 28 H       -0.0070     5.5880    -1.5660 H     1 <1>   0.0800 
 29 H       -0.2910     6.2480     0.0250 H     1 <1>   0.0800 
 30 H        3.0390     4.7090     0.4010 H     1 <1>   0.0800 
 31 H        2.1170     6.1770     0.6060 H     1 <1>   0.0800 
 32 H        2.4710     5.5810    -0.9970 H     1 <1>   0.0800 
 33 H       -5.4720    -0.4570    -0.8850 H     1 <1>   0.1500 
 34 H       -2.6830    -3.2500     0.7430 H     1 <1>   0.1500 
 35 H       -4.5370    -4.8040     1.2160 H     1 <1>   0.1500 
 36 H       -6.8360    -4.1790     0.6380 H     1 <1>   0.1500 
 37 H       -7.8440    -0.8210    -0.5020 H     1 <1>   0.0800 
 38 H       -8.4090    -2.3170     0.1910 H     1 <1>   0.0800 
 39 H       -7.9600    -2.2550    -1.4980 H     1 <1>   0.0800 
@<TRIPOS>BOND
  1   1   2  1   
  2   1   3  1   
  3   2   4  2   
  4   2   5  1   
  5   3   6  2   
  6   3   7  1   
  7   4   8  1   
  8   5   6  1   
  9   5   9  1   
 10   7  10  1   
 11   7  22  1   
 12   7  23  1   
 13   8   9  2   
 14   9  11  1   
 15  10  12  1   
 16  11  13  1   
 17  11  14  1   
 18  11  15  1   
 19  12  16  ar  
 20  12  17  ar  
 21  13  24  1   
 22  13  25  1   
 23  13  26  1   
 24  14  27  1   
 25  14  28  1   
 26  14  29  1   
 27  15  30  1   
 28  15  31  1   
 29  15  32  1   
 30  16  18  ar  
 31  16  33  1   
 32  17  19  ar  
 33  17  34  1   
 34  18  20  ar  
 35  18  21  1   
 36  19  20  ar  
 37  19  35  1   
 38  20  36  1   
 39  21  37  1   
 40  21  38  1   
 41  21  39  1   
@<TRIPOS>SUBSTRUCTURE
  1 ****   3 GROUP 4 **** **** 0

# MOE 2024.06 (io_trps.svl 2023.06)
