@<TRIPOS>MOLECULE
5-Amino-2-methyl-3-oxo-7-phenyl-2,3-dihydro-7H-thiazolo[3,2-a]pyridine-6,8-dicar
47 49 1 0 0 
SMALL
USER_CHARGES


@<TRIPOS>ATOM
  1 S       -0.2970     0.3120     1.3030 S.3   1 <1>  -0.3310 
  2 C        1.0150     1.3290     0.6690 C.2   1 <1>   0.2100 
  3 C        0.7890    -0.8840     2.1530 C.3   1 <1>   0.2110 
  4 N        2.2420     0.7680     1.0160 N.am  1 <1>  -0.2780 
  5 C        0.8260     2.4680    -0.0390 C.2   1 <1>  -0.1240 
  6 C        2.1830    -0.3300     1.8850 C.2   1 <1>   0.5690 
  7 C        0.5200    -2.2680     1.5530 C.3   1 <1>  -0.2400 
  8 C        3.3980     1.2940     0.4180 C.2   1 <1>   0.2090 
  9 C       -0.4200     3.0830    -0.3890 C.2   1 <1>   0.7060 
 10 C        2.0710     3.2210    -0.4960 C.3   1 <1>   0.3400 
 11 O        3.1300    -0.8440     2.4380 O.2   1 <1>  -0.5700 
 12 N        4.5370     0.5710     0.6000 N.pl3 1 <1>  -0.9000 
 13 C        3.3800     2.4430    -0.3300 C.2   1 <1>  -0.1240 
 14 O       -1.4760     2.8470     0.1620 O.2   1 <1>  -0.5700 
 15 O       -0.4200     3.9810    -1.3840 O.3   1 <1>  -0.4300 
 16 C        2.1700     4.5290     0.2930 C.ar  1 <1>  -0.1430 
 17 C        4.4810     3.0400    -1.0070 C.2   1 <1>   0.7060 
 18 C       -1.5790     4.6740    -1.8020 C.3   1 <1>   0.1200 
 19 C        2.2550     4.5160     1.6800 C.ar  1 <1>  -0.1500 
 20 C        2.1780     5.7480    -0.3700 C.ar  1 <1>  -0.1500 
 21 O        4.3480     3.8850    -1.8820 O.2   1 <1>  -0.5700 
 22 O        5.7390     2.6760    -0.6980 O.3   1 <1>  -0.4300 
 23 C       -2.3250     3.8210    -2.8270 C.3   1 <1>  -0.2400 
 24 C        2.3390     5.7000     2.3890 C.ar  1 <1>  -0.1500 
 25 C        2.2620     6.9330     0.3390 C.ar  1 <1>  -0.1500 
 26 C        6.8590     3.2690    -1.3310 C.3   1 <1>   0.0400 
 27 C        2.3420     6.9110     1.7200 C.ar  1 <1>  -0.1500 
 28 H        0.5590    -0.8460     3.2020 H     1 <1>   0.0800 
 29 H        0.7110    -2.2620     0.4950 H     1 <1>   0.0800 
 30 H       -0.5030    -2.5530     1.7250 H     1 <1>   0.0800 
 31 H        1.1640    -2.9960     2.0150 H     1 <1>   0.0800 
 32 H        1.9550     3.4340    -1.5450 H     1 <1>   0.0800 
 33 H        5.4590     0.9310     0.3240 H     1 <1>   0.4000 
 34 H        4.5520    -0.1910     1.3000 H     1 <1>   0.4000 
 35 H       -1.2600     5.6000    -2.2470 H     1 <1>   0.0800 
 36 H       -2.1940     4.8940    -0.9440 H     1 <1>   0.0800 
 37 H        2.2570     3.5840     2.2200 H     1 <1>   0.1500 
 38 H        2.1230     5.7830    -1.4450 H     1 <1>   0.1500 
 39 H       -1.6890     3.6060    -3.6670 H     1 <1>   0.0800 
 40 H       -3.1900     4.3540    -3.1780 H     1 <1>   0.0800 
 41 H       -2.6550     2.9020    -2.3770 H     1 <1>   0.0800 
 42 H        2.4020     5.6810     3.4640 H     1 <1>   0.1500 
 43 H        2.2680     7.8730    -0.1850 H     1 <1>   0.1500 
 44 H        6.8030     3.0780    -2.3880 H     1 <1>   0.0800 
 45 H        7.7530     2.8340    -0.9220 H     1 <1>   0.0800 
 46 H        6.8440     4.3290    -1.1430 H     1 <1>   0.0800 
 47 H        2.4070     7.8320     2.2710 H     1 <1>   0.1500 
@<TRIPOS>BOND
  1   1   2  1   
  2   1   3  1   
  3   2   4  1   
  4   2   5  2   
  5   3   6  1   
  6   3   7  1   
  7   3  28  1   
  8   4   6  am  
  9   4   8  1   
 10   5   9  1   
 11   5  10  1   
 12   6  11  2   
 13   7  29  1   
 14   7  30  1   
 15   7  31  1   
 16   8  12  1   
 17   8  13  2   
 18   9  14  2   
 19   9  15  1   
 20  10  13  1   
 21  10  16  1   
 22  10  32  1   
 23  12  33  1   
 24  12  34  1   
 25  13  17  1   
 26  15  18  1   
 27  16  19  ar  
 28  16  20  ar  
 29  17  21  2   
 30  17  22  1   
 31  18  23  1   
 32  18  35  1   
 33  18  36  1   
 34  19  24  ar  
 35  19  37  1   
 36  20  25  ar  
 37  20  38  1   
 38  22  26  1   
 39  23  39  1   
 40  23  40  1   
 41  23  41  1   
 42  24  27  ar  
 43  24  42  1   
 44  25  27  ar  
 45  25  43  1   
 46  26  44  1   
 47  26  45  1   
 48  26  46  1   
 49  27  47  1   
@<TRIPOS>SUBSTRUCTURE
  1 ****  10 GROUP 4 **** **** 0

# MOE 2024.06 (io_trps.svl 2023.06)
