@<TRIPOS>MOLECULE
(8-Cyclohexyl-1,6-dimethyl-2,4-dioxo-1,4,5,6,7,8-hexahydro-2H-1,3,4b,8,9-pentaaz
56 59 1 0 0 
SMALL
USER_CHARGES


@<TRIPOS>ATOM
  1 O        0.5950    -0.2810    -0.1190 O.2   1 <1>  -0.5740 
  2 C        1.5580     0.4430    -0.2680 C.2   1 <1>   0.6870 
  3 N        1.3660     1.7940    -0.5210 N.am  1 <1>  -0.4250 
  4 N        2.8430    -0.0760    -0.1770 N.am  1 <1>  -0.4410 
  5 C        2.4390     2.6480    -0.7150 C.2   1 <1>   0.7000 
  6 C        0.0640     2.4100    -0.0980 C.3   1 <1>   0.1950 
  7 C        3.9040     0.8040    -0.2800 C.2   1 <1>   0.4210 
  8 C        3.0630    -1.5220     0.1170 C.3   1 <1>   0.0530 
  9 O        2.2500     3.8140    -1.0210 O.2   1 <1>  -0.5740 
 10 C        3.7570     2.1190    -0.5450 C.2   1 <1>   0.2710 
 11 C        0.1040     2.8240     1.3780 C.2   1 <1>   0.6560 
 12 N        5.2330     0.5360    -0.1390 N.pl3 1 <1>  -0.7030 
 13 N        5.0520     2.6570    -0.5700 N.pl3 1 <1>  -0.7670 
 14 O        1.1290     2.7400     2.0090 O.2   1 <1>  -0.5740 
 15 O       -0.9990     3.2880     1.9570 O.3   1 <1>  -0.4350 
 16 C        5.9080     1.6750    -0.3070 C.cat 1 <1>   1.0690 
 17 C        5.4250     4.0690    -0.7810 C.3   1 <1>   0.3490 
 18 C       -2.2660     3.3970     1.3430 C.3   1 <1>   0.0330 
 19 N        7.2390     1.8680    -0.2240 N.pl3 1 <1>  -0.5960 
 20 C        6.8830     4.1300    -1.2630 C.3   1 <1>  -0.0870 
 21 C        8.2470     0.8280     0.1280 C.3   1 <1>   0.2420 
 22 C        7.8020     3.2410    -0.4040 C.3   1 <1>   0.1610 
 23 C        7.3950     5.5780    -1.2780 C.3   1 <1>  -0.2460 
 24 C        8.2970    -0.2810    -0.9350 C.3   1 <1>  -0.1660 
 25 C        8.0130     0.2770     1.5440 C.3   1 <1>  -0.1660 
 26 C        9.3410    -1.3430    -0.5650 C.3   1 <1>  -0.1660 
 27 C        9.0600    -0.7900     1.8930 C.3   1 <1>  -0.1660 
 28 C        9.0900    -1.9050     0.8400 C.3   1 <1>  -0.1660 
 29 H       -0.7390     1.7110    -0.2500 H     1 <1>   0.0730 
 30 H       -0.1390     3.2780    -0.6990 H     1 <1>   0.0730 
 31 H        2.2150    -2.1050    -0.2010 H     1 <1>   0.0730 
 32 H        3.1970    -1.6600     1.1760 H     1 <1>   0.0730 
 33 H        3.9300    -1.8840    -0.4060 H     1 <1>   0.0730 
 34 H        5.6710    -0.3510     0.0890 H     1 <1>   0.4450 
 35 H        5.3130     4.6060     0.1470 H     1 <1>   0.0730 
 36 H        4.7760     4.5180    -1.5150 H     1 <1>   0.0730 
 37 H       -2.9490     3.8130     2.0620 H     1 <1>   0.0730 
 38 H       -2.6040     2.4170     1.0500 H     1 <1>   0.0730 
 39 H       -2.1940     4.0510     0.4920 H     1 <1>   0.0730 
 40 H        6.9150     3.7670    -2.2770 H     1 <1>   0.0730 
 41 H        9.2220     1.2900     0.1370 H     1 <1>   0.0730 
 42 H        8.7650     3.1790    -0.8830 H     1 <1>   0.0730 
 43 H        7.9400     3.6860     0.5680 H     1 <1>   0.0730 
 44 H        7.3900     6.0020    -0.2880 H     1 <1>   0.0730 
 45 H        6.7760     6.1900    -1.9130 H     1 <1>   0.0730 
 46 H        8.4010     5.6170    -1.6590 H     1 <1>   0.0730 
 47 H        8.5610     0.1460    -1.8870 H     1 <1>   0.0730 
 48 H        7.3480    -0.7710    -1.0340 H     1 <1>   0.0730 
 49 H        7.0430    -0.1710     1.6360 H     1 <1>   0.0730 
 50 H        8.0860     1.0790     2.2590 H     1 <1>   0.0730 
 51 H       10.3260    -0.9090    -0.6010 H     1 <1>   0.0730 
 52 H        9.3140    -2.1450    -1.2830 H     1 <1>   0.0730 
 53 H        8.8400    -1.2120     2.8590 H     1 <1>   0.0730 
 54 H       10.0340    -0.3340     1.9530 H     1 <1>   0.0730 
 55 H        9.8700    -2.6060     1.0870 H     1 <1>   0.0730 
 56 H        8.1570    -2.4410     0.8540 H     1 <1>   0.0730 
@<TRIPOS>BOND
  1   1   2  2   
  2   2   3  am  
  3   2   4  am  
  4   3   5  am  
  5   3   6  1   
  6   4   7  1   
  7   4   8  1   
  8   5   9  2   
  9   5  10  1   
 10   6  11  1   
 11   6  29  1   
 12   6  30  1   
 13   7  10  2   
 14   7  12  1   
 15   8  31  1   
 16   8  32  1   
 17   8  33  1   
 18  10  13  1   
 19  11  14  2   
 20  11  15  1   
 21  12  16  ar  
 22  12  34  1   
 23  13  16  ar  
 24  13  17  1   
 25  15  18  1   
 26  16  19  ar  
 27  17  20  1   
 28  17  35  1   
 29  17  36  1   
 30  18  37  1   
 31  18  38  1   
 32  18  39  1   
 33  19  21  1   
 34  19  22  1   
 35  20  22  1   
 36  20  23  1   
 37  20  40  1   
 38  21  24  1   
 39  21  25  1   
 40  21  41  1   
 41  22  42  1   
 42  22  43  1   
 43  23  44  1   
 44  23  45  1   
 45  23  46  1   
 46  24  26  1   
 47  24  47  1   
 48  24  48  1   
 49  25  27  1   
 50  25  49  1   
 51  25  50  1   
 52  26  28  1   
 53  26  51  1   
 54  26  52  1   
 55  27  28  1   
 56  27  53  1   
 57  27  54  1   
 58  28  55  1   
 59  28  56  1   
@<TRIPOS>SUBSTRUCTURE
  1 ****   7 GROUP 4 **** **** 0

# MOE 2024.06 (io_trps.svl 2023.06)
