@<TRIPOS>MOLECULE
4-Ethoxy-N-(4-fluoro-phenyl)-N-(2-morpholin-4-yl-2-oxo-ethyl)-benzenesulfonamide
52 54 1 0 0 
SMALL
USER_CHARGES


@<TRIPOS>ATOM
  1 S       -0.6280     2.1920    -2.2760 S.o2  1 <1>   1.4470 
  2 O       -1.6910     2.6720    -3.1250 O.2   1 <1>  -0.6500 
  3 O        0.7370     2.2500    -2.7520 O.2   1 <1>  -0.6500 
  4 N       -0.6410     3.1390    -0.8180 N.am  1 <1>  -0.6930 
  5 C       -1.0080     0.5040    -1.7270 C.ar  1 <1>  -0.0090 
  6 C       -1.7390     3.8910    -0.4000 C.ar  1 <1>   0.1990 
  7 C        0.5780     3.0650     0.0480 C.3   1 <1>   0.2570 
  8 C       -0.3860    -0.5880    -2.3240 C.ar  1 <1>  -0.1500 
  9 C       -1.9260     0.2470    -0.7130 C.ar  1 <1>  -0.1500 
 10 C       -2.3130     3.6790     0.8540 C.ar  1 <1>  -0.1500 
 11 C       -2.2720     4.8850    -1.2200 C.ar  1 <1>  -0.1500 
 12 C        0.7840     1.6980     0.7210 C.2   1 <1>   0.5690 
 13 C       -0.6480    -1.8810    -1.9080 C.ar  1 <1>  -0.1500 
 14 C       -2.1920    -1.0420    -0.2860 C.ar  1 <1>  -0.1500 
 15 C       -3.3940     4.4320     1.2800 C.ar  1 <1>  -0.1500 
 16 C       -3.3530     5.6460    -0.8110 C.ar  1 <1>  -0.1500 
 17 O        0.1160     1.4780     1.7060 O.2   1 <1>  -0.5700 
 18 N        1.6610     0.7500     0.2420 N.am  1 <1>  -0.6600 
 19 C       -1.5440    -2.1190    -0.8820 C.ar  1 <1>   0.0830 
 20 C       -3.8950     5.4040     0.4360 C.ar  1 <1>   0.1900 
 21 C        2.6730     0.9260    -0.8480 C.3   1 <1>   0.1400 
 22 C        1.6670    -0.6410     0.7960 C.3   1 <1>   0.1400 
 23 O       -1.7310    -3.4110    -0.5190 O.3   1 <1>  -0.3630 
 24 F       -4.9170     6.1200     0.8320 F     1 <1>  -0.1900 
 25 C        4.0470     0.3920    -0.4100 C.3   1 <1>   0.1200 
 26 C        3.0950    -1.0870     1.1430 C.3   1 <1>   0.1200 
 27 C       -2.6240    -3.7640     0.5110 C.3   1 <1>   0.1200 
 28 O        3.9440    -0.9280     0.0420 O.3   1 <1>  -0.5600 
 29 C       -2.5890    -5.2810     0.6680 C.3   1 <1>  -0.2400 
 30 H        0.4890     3.7960     0.8310 H     1 <1>   0.0800 
 31 H        1.4360     3.3430    -0.5310 H     1 <1>   0.0800 
 32 H        0.3170    -0.4250    -3.1240 H     1 <1>   0.1500 
 33 H       -2.4390     1.0670    -0.2430 H     1 <1>   0.1500 
 34 H       -1.9180     2.9180     1.5020 H     1 <1>   0.1500 
 35 H       -1.8350     5.0610    -2.1870 H     1 <1>   0.1500 
 36 H       -0.1550    -2.7160    -2.3760 H     1 <1>   0.1500 
 37 H       -2.9000    -1.1850     0.5080 H     1 <1>   0.1500 
 38 H       -3.8420     4.2720     2.2450 H     1 <1>   0.1500 
 39 H       -3.7690     6.4100    -1.4430 H     1 <1>   0.1500 
 40 H        2.7820     1.9560    -1.1270 H     1 <1>   0.0800 
 41 H        2.3530     0.3820    -1.7190 H     1 <1>   0.0800 
 42 H        1.2590    -1.3150     0.0640 H     1 <1>   0.0800 
 43 H        1.0530    -0.7090     1.6770 H     1 <1>   0.0800 
 44 H        4.4560     0.9960     0.3810 H     1 <1>   0.0800 
 45 H        4.7300     0.4000    -1.2410 H     1 <1>   0.0800 
 46 H        3.1020    -2.1280     1.4150 H     1 <1>   0.0800 
 47 H        3.4820    -0.5120     1.9660 H     1 <1>   0.0800 
 48 H       -3.6110    -3.4320     0.2360 H     1 <1>   0.0800 
 49 H       -2.3060    -3.2800     1.4190 H     1 <1>   0.0800 
 50 H       -2.8930    -5.7540    -0.2490 H     1 <1>   0.0800 
 51 H       -3.2630    -5.5820     1.4490 H     1 <1>   0.0800 
 52 H       -1.5960    -5.6030     0.9270 H     1 <1>   0.0800 
@<TRIPOS>BOND
  1   1   2  2   
  2   1   3  2   
  3   1   4  am  
  4   1   5  1   
  5   4   6  1   
  6   4   7  1   
  7   5   8  ar  
  8   5   9  ar  
  9   6  10  ar  
 10   6  11  ar  
 11   7  12  1   
 12   7  30  1   
 13   7  31  1   
 14   8  13  ar  
 15   8  32  1   
 16   9  14  ar  
 17   9  33  1   
 18  10  15  ar  
 19  10  34  1   
 20  11  16  ar  
 21  11  35  1   
 22  12  17  2   
 23  12  18  am  
 24  13  19  ar  
 25  13  36  1   
 26  14  19  ar  
 27  14  37  1   
 28  15  20  ar  
 29  15  38  1   
 30  16  20  ar  
 31  16  39  1   
 32  18  21  1   
 33  18  22  1   
 34  19  23  1   
 35  20  24  1   
 36  21  25  1   
 37  21  40  1   
 38  21  41  1   
 39  22  26  1   
 40  22  42  1   
 41  22  43  1   
 42  23  27  1   
 43  25  28  1   
 44  25  44  1   
 45  25  45  1   
 46  26  28  1   
 47  26  46  1   
 48  26  47  1   
 49  27  29  1   
 50  27  48  1   
 51  27  49  1   
 52  29  50  1   
 53  29  51  1   
 54  29  52  1   
@<TRIPOS>SUBSTRUCTURE
  1 ****   5 GROUP 4 **** **** 0

# MOE 2024.06 (io_trps.svl 2023.06)
