@<TRIPOS>MOLECULE
4-Methyl-2-(5-methyl-furan-2-ylmethyl)-2H-pyrazol-3-ylamine
27 28 1 0 0 
SMALL
USER_CHARGES


@<TRIPOS>ATOM
  1 O        0.6210    -0.1350     0.4140 O.3   1 <1>  -0.2800 
  2 C        1.9120     0.1100     0.2990 C.2   1 <1>  -0.0400 
  3 C        0.2190    -0.7120    -0.7000 C.2   1 <1>  -0.0400 
  4 C        2.3620    -0.3090    -0.9050 C.2   1 <1>  -0.1500 
  5 C        2.6140     0.7810     1.4690 C.3   1 <1>   0.2760 
  6 C        1.2500    -0.8490    -1.5610 C.2   1 <1>  -0.1500 
  7 C       -1.2350    -1.1040    -0.8310 C.3   1 <1>  -0.0600 
  8 N        4.0060     1.1710     1.1620 N.pl3 1 <1>   0.3140 
  9 N        5.0420     0.7480     1.9340 N.2   1 <1>  -0.7070 
 10 C        4.4270     2.0610     0.2150 C.2   1 <1>  -0.0680 
 11 C        6.0790     1.3550     1.4500 C.2   1 <1>   0.1390 
 12 N        3.6290     2.7100    -0.7410 N.pl3 1 <1>  -0.8840 
 13 C        5.7640     2.1870     0.3800 C.2   1 <1>  -0.1810 
 14 C        6.7480     3.0290    -0.4090 C.3   1 <1>  -0.0590 
 15 H        3.3600    -0.2510    -1.3080 H     1 <1>   0.1500 
 16 H        2.6260     0.1110     2.3070 H     1 <1>   0.0800 
 17 H        2.0770     1.6660     1.7480 H     1 <1>   0.0800 
 18 H        1.2570    -1.2760    -2.5470 H     1 <1>   0.1500 
 19 H       -1.8560    -0.2320    -0.7370 H     1 <1>   0.0800 
 20 H       -1.4930    -1.8020    -0.0550 H     1 <1>   0.0800 
 21 H       -1.4130    -1.5610    -1.7870 H     1 <1>   0.0800 
 22 H        7.0740     1.2240     1.8420 H     1 <1>   0.1500 
 23 H        3.9140     3.6670    -0.9720 H     1 <1>   0.4000 
 24 H        2.6100     2.6300    -0.6370 H     1 <1>   0.4000 
 25 H        6.2660     3.4610    -1.2670 H     1 <1>   0.0800 
 26 H        7.5630     2.4160    -0.7480 H     1 <1>   0.0800 
 27 H        7.1340     3.8180     0.2100 H     1 <1>   0.0800 
@<TRIPOS>BOND
  1   1   2  1   
  2   1   3  1   
  3   2   4  2   
  4   2   5  1   
  5   3   6  2   
  6   3   7  1   
  7   4   6  1   
  8   4  15  1   
  9   5   8  1   
 10   5  16  1   
 11   5  17  1   
 12   6  18  1   
 13   7  19  1   
 14   7  20  1   
 15   7  21  1   
 16   8   9  1   
 17   8  10  1   
 18   9  11  2   
 19  10  12  1   
 20  10  13  2   
 21  11  13  1   
 22  11  22  1   
 23  12  23  1   
 24  12  24  1   
 25  13  14  1   
 26  14  25  1   
 27  14  26  1   
 28  14  27  1   
@<TRIPOS>SUBSTRUCTURE
  1 ****   2 GROUP 4 **** **** 0

# MOE 2024.06 (io_trps.svl 2023.06)
