@<TRIPOS>MOLECULE
4-(4-Methyl-piperazin-1-yl)-pentanoic acid
34 34 1 0 0 
SMALL
USER_CHARGES


@<TRIPOS>ATOM
  1 O       -0.3980     0.7370    -0.4070 O.co2 1 <1>  -0.9000 
  2 C       -1.4420     0.9200     0.2150 C.2   1 <1>   0.9060 
  3 O       -1.6020     1.8310     1.0340 O.co2 1 <1>  -0.9000 
  4 C       -2.6090     0.0000    -0.0680 C.3   1 <1>  -0.2660 
  5 C       -3.9580     0.7140     0.1520 C.3   1 <1>  -0.1600 
  6 C       -5.2020    -0.0340    -0.3480 C.3   1 <1>   0.4230 
  7 N       -6.4270     0.7170     0.0660 N.4   1 <1>  -0.9590 
  8 C       -5.2630    -1.4530     0.2310 C.3   1 <1>  -0.2400 
  9 C       -7.7070     0.0790    -0.4110 C.3   1 <1>   0.3430 
 10 C       -6.4010     2.1650    -0.3660 C.3   1 <1>   0.3430 
 11 C       -8.9560     0.8680     0.0340 C.3   1 <1>   0.1100 
 12 C       -7.6670     2.9310     0.0680 C.3   1 <1>   0.1100 
 13 N       -8.8910     2.2680    -0.4150 N.3   1 <1>  -0.8100 
 14 C      -10.0940     3.0140    -0.0210 C.3   1 <1>   0.0300 
 15 H       -2.5020    -0.8430     0.5860 H     1 <1>   0.0800 
 16 H       -2.5150    -0.3320    -1.0850 H     1 <1>   0.0800 
 17 H       -3.8700     1.6500    -0.3710 H     1 <1>   0.0800 
 18 H       -4.0510     0.9250     1.2030 H     1 <1>   0.0800 
 19 H       -5.1580    -0.0940    -1.4240 H     1 <1>   0.0800 
 20 H       -6.4310     0.7150     1.0910 H     1 <1>   0.4500 
 21 H       -5.3020    -1.4270     1.3050 H     1 <1>   0.0800 
 22 H       -4.3840    -2.0010    -0.0540 H     1 <1>   0.0800 
 23 H       -6.0960    -2.0100    -0.1530 H     1 <1>   0.0800 
 24 H       -7.7870    -0.9240    -0.0280 H     1 <1>   0.0800 
 25 H       -7.7050     0.0270    -1.4870 H     1 <1>   0.0800 
 26 H       -6.3180     2.2220    -1.4380 H     1 <1>   0.0800 
 27 H       -5.5460     2.6640     0.0590 H     1 <1>   0.0800 
 28 H       -9.0480     0.8260     1.1060 H     1 <1>   0.0800 
 29 H       -9.8280     0.4020    -0.3920 H     1 <1>   0.0800 
 30 H       -7.6210     3.9280    -0.3380 H     1 <1>   0.0800 
 31 H       -7.6880     3.0130     1.1420 H     1 <1>   0.0800 
 32 H      -10.9710     2.5410    -0.4290 H     1 <1>   0.0800 
 33 H      -10.0460     4.0190    -0.4060 H     1 <1>   0.0800 
 34 H      -10.1850     3.0540     1.0520 H     1 <1>   0.0800 
@<TRIPOS>BOND
  1   1   2  ar  
  2   2   3  ar  
  3   2   4  1   
  4   4   5  1   
  5   4  15  1   
  6   4  16  1   
  7   5   6  1   
  8   5  17  1   
  9   5  18  1   
 10   6   7  1   
 11   6   8  1   
 12   6  19  1   
 13   7   9  1   
 14   7  10  1   
 15   7  20  1   
 16   8  21  1   
 17   8  22  1   
 18   8  23  1   
 19   9  11  1   
 20   9  24  1   
 21   9  25  1   
 22  10  12  1   
 23  10  26  1   
 24  10  27  1   
 25  11  13  1   
 26  11  28  1   
 27  11  29  1   
 28  12  13  1   
 29  12  30  1   
 30  12  31  1   
 31  13  14  1   
 32  14  32  1   
 33  14  33  1   
 34  14  34  1   
@<TRIPOS>SUBSTRUCTURE
  1 ****   7 GROUP 4 **** **** 0

# MOE 2024.06 (io_trps.svl 2023.06)
