@<TRIPOS>MOLECULE
8-Dimethylaminomethyl-3-methyl-3,7-dihydro-purine-2,6-dione
30 31 1 0 0 
SMALL
USER_CHARGES


@<TRIPOS>ATOM
  1 O        0.2380     1.8580    -0.7910 O.2   1 <1>  -0.5700 
  2 C        1.4440     1.7350    -0.8230 C.2   1 <1>   0.6900 
  3 N        2.1550     1.0950     0.1910 N.am  1 <1>  -0.4240 
  4 N        2.1200     2.2420    -1.8930 N.am  1 <1>  -0.4900 
  5 C        3.5460     0.9790     0.0640 C.2   1 <1>  -0.0880 
  6 C        1.4460     0.5270     1.3700 C.3   1 <1>   0.0600 
  7 C        3.4740     2.1580    -2.0490 C.2   1 <1>   0.7160 
  8 N        4.4530     0.4080     0.8730 N.pl3 1 <1>   0.0330 
  9 C        4.2150     1.4840    -1.0120 C.2   1 <1>   0.1410 
 10 O        3.9660     2.6570    -3.0440 O.2   1 <1>  -0.5700 
 11 C        5.6520     0.5930     0.2490 C.2   1 <1>   0.0060 
 12 N        5.5520     1.2270    -0.8760 N.2   1 <1>  -0.5650 
 13 C        6.9830     0.0960     0.8090 C.3   1 <1>   0.5230 
 14 N        8.0740     0.7030    -0.0080 N.4   1 <1>  -0.9590 
 15 C        9.2780    -0.1670    -0.1440 C.3   1 <1>   0.2630 
 16 C        8.4100     2.0860     0.4460 C.3   1 <1>   0.2630 
 17 H        1.5840     2.7060    -2.6160 H     1 <1>   0.3700 
 18 H        0.4370     0.8990     1.4230 H     1 <1>   0.0800 
 19 H        1.9550     0.8080     2.2750 H     1 <1>   0.0800 
 20 H        1.4130    -0.5450     1.2900 H     1 <1>   0.0800 
 21 H        4.2520    -0.0650     1.7590 H     1 <1>   0.2700 
 22 H        7.0140    -0.9770     0.7250 H     1 <1>   0.0800 
 23 H        7.0900     0.3720     1.8450 H     1 <1>   0.0800 
 24 H        7.6090     0.8170    -0.9330 H     1 <1>   0.4500 
 25 H        9.7500    -0.3110     0.8140 H     1 <1>   0.0800 
 26 H        9.9900     0.2870    -0.8140 H     1 <1>   0.0800 
 27 H        9.0020    -1.1300    -0.5450 H     1 <1>   0.0800 
 28 H        8.8350     2.0690     1.4360 H     1 <1>   0.0800 
 29 H        7.5220     2.6980     0.4560 H     1 <1>   0.0800 
 30 H        9.1210     2.5360    -0.2280 H     1 <1>   0.0800 
@<TRIPOS>BOND
  1   1   2  2   
  2   2   3  am  
  3   2   4  am  
  4   3   5  1   
  5   3   6  1   
  6   4   7  am  
  7   4  17  1   
  8   5   8  1   
  9   5   9  2   
 10   6  18  1   
 11   6  19  1   
 12   6  20  1   
 13   7   9  1   
 14   7  10  2   
 15   8  11  1   
 16   8  21  1   
 17   9  12  1   
 18  11  12  2   
 19  11  13  1   
 20  13  14  1   
 21  13  22  1   
 22  13  23  1   
 23  14  15  1   
 24  14  16  1   
 25  14  24  1   
 26  15  25  1   
 27  15  26  1   
 28  15  27  1   
 29  16  28  1   
 30  16  29  1   
 31  16  30  1   
@<TRIPOS>SUBSTRUCTURE
  1 ****   9 GROUP 4 **** **** 0

# MOE 2024.06 (io_trps.svl 2023.06)
