@<TRIPOS>MOLECULE
C-(3-Propyl-isoxazol-5-yl)-methylamine
22 22 1 0 0 
SMALL
USER_CHARGES


@<TRIPOS>ATOM
  1 O        0.2180     0.3920    -1.3990 O.3   1 <1>  -0.0190 
  2 N       -0.8770     1.0540    -1.6420 N.2   1 <1>  -0.4100 
  3 C        0.9860     1.0160    -0.5460 C.2   1 <1>  -0.0400 
  4 C       -0.8140     2.1230    -0.9290 C.2   1 <1>   0.1080 
  5 C        0.3700     2.1560    -0.1970 C.2   1 <1>  -0.1500 
  6 C        2.3080     0.3930    -0.1440 C.3   1 <1>   0.2900 
  7 C       -1.8870     3.1940    -0.8950 C.3   1 <1>   0.0210 
  8 N        3.1020     1.3380     0.6370 N.3   1 <1>  -0.9900 
  9 C       -2.7480     3.0710     0.3690 C.3   1 <1>  -0.1600 
 10 C       -3.8390     4.1460     0.4180 C.3   1 <1>  -0.2400 
 11 H        0.6900     2.9220     0.4850 H     1 <1>   0.1500 
 12 H        2.8500     0.1130    -1.0310 H     1 <1>   0.0800 
 13 H        2.1210    -0.4930     0.4390 H     1 <1>   0.0800 
 14 H       -2.5080     3.0920    -1.7680 H     1 <1>   0.0800 
 15 H       -1.4180     4.1600    -0.9290 H     1 <1>   0.0800 
 16 H        3.2550     2.1750     0.0650 H     1 <1>   0.3600 
 17 H        4.0210     0.9270     0.8300 H     1 <1>   0.3600 
 18 H       -2.1200     3.1590     1.2400 H     1 <1>   0.0800 
 19 H       -3.2050     2.0960     0.3890 H     1 <1>   0.0800 
 20 H       -3.4020     5.1290     0.4200 H     1 <1>   0.0800 
 21 H       -4.4270     4.0310     1.3120 H     1 <1>   0.0800 
 22 H       -4.4930     4.0570    -0.4320 H     1 <1>   0.0800 
@<TRIPOS>BOND
  1   1   2  1   
  2   1   3  1   
  3   2   4  2   
  4   3   5  2   
  5   3   6  1   
  6   4   5  1   
  7   4   7  1   
  8   5  11  1   
  9   6   8  1   
 10   6  12  1   
 11   6  13  1   
 12   7   9  1   
 13   7  14  1   
 14   7  15  1   
 15   8  16  1   
 16   8  17  1   
 17   9  10  1   
 18   9  18  1   
 19   9  19  1   
 20  10  20  1   
 21  10  21  1   
 22  10  22  1   
@<TRIPOS>SUBSTRUCTURE
  1 ****   4 GROUP 4 **** **** 0

# MOE 2024.06 (io_trps.svl 2023.06)
