@<TRIPOS>MOLECULE
1-Benzyl-5-oxo-pyrrolidine-3-carboxylic acid (5-methyl-isoxazol-3-yl)-amide
39 41 1 0 0 
SMALL
USER_CHARGES


@<TRIPOS>ATOM
  1 O        2.1740     0.1670     2.6930 O.2   1 <1>  -0.5700 
  2 C        2.0490     0.4680     1.5340 C.2   1 <1>   0.5690 
  3 N        2.2180    -0.3570     0.4790 N.am  1 <1>  -0.6600 
  4 C        1.6940     1.8540     1.0720 C.3   1 <1>  -0.0990 
  5 C        1.9120     0.3040    -0.8030 C.3   1 <1>   0.1400 
  6 C        2.3990    -1.8270     0.5720 C.3   1 <1>   0.2840 
  7 C        1.9720     1.7970    -0.4450 C.3   1 <1>  -0.0190 
  8 C        1.2450    -2.5310    -0.1240 C.ar  1 <1>  -0.1440 
  9 C        3.3500     2.3510    -0.7810 C.2   1 <1>   0.5690 
 10 C       -0.0120    -2.5400     0.4620 C.ar  1 <1>  -0.1500 
 11 C        1.4310    -3.1600    -1.3460 C.ar  1 <1>  -0.1500 
 12 O        3.4130     3.3200    -1.4960 O.2   1 <1>  -0.5700 
 13 N        4.4490     1.7260    -0.2740 N.am  1 <1>  -0.4930 
 14 C       -1.0720    -3.1710    -0.1650 C.ar  1 <1>  -0.1500 
 15 C        0.3710    -3.7920    -1.9740 C.ar  1 <1>  -0.1500 
 16 C        5.8030     1.9910    -0.4640 C.2   1 <1>   0.3520 
 17 C       -0.8810    -3.7980    -1.3840 C.ar  1 <1>  -0.1500 
 18 N        6.7090     1.2140     0.0140 N.2   1 <1>  -0.4100 
 19 C        6.3810     3.0570    -1.1550 C.2   1 <1>  -0.1500 
 20 O        7.8570     1.7360    -0.3400 O.3   1 <1>  -0.0190 
 21 C        7.6960     2.8310    -1.0350 C.2   1 <1>  -0.0400 
 22 C        8.9040     3.5900    -1.5420 C.3   1 <1>  -0.0600 
 23 H        2.2860     2.5970     1.5770 H     1 <1>   0.0800 
 24 H        0.6520     2.0250     1.2650 H     1 <1>   0.0800 
 25 H        0.9190     0.0290    -1.1180 H     1 <1>   0.0800 
 26 H        2.6220     0.0330    -1.5660 H     1 <1>   0.0800 
 27 H        2.4320    -2.1260     1.6060 H     1 <1>   0.0800 
 28 H        3.3340    -2.0990     0.1160 H     1 <1>   0.0800 
 29 H        1.2330     2.3490    -0.9980 H     1 <1>   0.0800 
 30 H       -0.1650    -2.0530     1.4100 H     1 <1>   0.1500 
 31 H        2.3990    -3.1640    -1.8160 H     1 <1>   0.1500 
 32 H        4.2850     0.9050     0.3110 H     1 <1>   0.3700 
 33 H       -2.0440    -3.1750     0.2960 H     1 <1>   0.1500 
 34 H        0.5190    -4.2810    -2.9220 H     1 <1>   0.1500 
 35 H       -1.7040    -4.2900    -1.8720 H     1 <1>   0.1500 
 36 H        5.8580     3.8520    -1.6520 H     1 <1>   0.1500 
 37 H        8.5930     4.4590    -2.0910 H     1 <1>   0.0800 
 38 H        9.4870     2.9580    -2.1870 H     1 <1>   0.0800 
 39 H        9.5140     3.8990    -0.7120 H     1 <1>   0.0800 
@<TRIPOS>BOND
  1   1   2  2   
  2   2   3  am  
  3   2   4  1   
  4   3   5  1   
  5   3   6  1   
  6   4   7  1   
  7   4  23  1   
  8   4  24  1   
  9   5   7  1   
 10   5  25  1   
 11   5  26  1   
 12   6   8  1   
 13   6  27  1   
 14   6  28  1   
 15   7   9  1   
 16   7  29  1   
 17   8  10  ar  
 18   8  11  ar  
 19   9  12  2   
 20   9  13  am  
 21  10  14  ar  
 22  10  30  1   
 23  11  15  ar  
 24  11  31  1   
 25  13  16  1   
 26  13  32  1   
 27  14  17  ar  
 28  14  33  1   
 29  15  17  ar  
 30  15  34  1   
 31  16  18  2   
 32  16  19  1   
 33  17  35  1   
 34  18  20  1   
 35  19  21  2   
 36  19  36  1   
 37  20  21  1   
 38  21  22  1   
 39  22  37  1   
 40  22  38  1   
 41  22  39  1   
@<TRIPOS>SUBSTRUCTURE
  1 ****   5 GROUP 4 **** **** 0

# MOE 2024.06 (io_trps.svl 2023.06)
