@<TRIPOS>MOLECULE
Pyrrolidine-1-carboxylic acid (4-hydroxy-6-methyl-quinolin-3-yl)-amide
37 39 1 0 0 
SMALL
USER_CHARGES


@<TRIPOS>ATOM
  1 O       -0.3070     0.2200    -0.0950 O.2   1 <1>  -0.5700 
  2 C       -0.0830     1.4150    -0.0370 C.2   1 <1>   0.6900 
  3 N       -1.1210     2.3060     0.0010 N.am  1 <1>  -0.6600 
  4 N        1.1880     1.8980    -0.0070 N.am  1 <1>  -0.5390 
  5 C       -1.0120     3.7810     0.0170 C.3   1 <1>   0.1400 
  6 C       -2.5340     1.8720     0.0100 C.3   1 <1>   0.1400 
  7 C        2.4690     1.2830    -0.0400 C.2   1 <1>   0.1230 
  8 C       -2.4380     4.2760    -0.2050 C.3   1 <1>  -0.1600 
  9 C       -3.3260     3.1410     0.3010 C.3   1 <1>  -0.1600 
 10 C        3.6040     2.1590     0.0290 C.2   1 <1>   0.4690 
 11 C        2.6680    -0.0620    -0.1320 C.2   1 <1>  -0.0500 
 12 O        3.4340     3.3760     0.1100 O.2   1 <1>  -0.5700 
 13 C        4.9280     1.5930     0.0000 C.ar  1 <1>   0.0860 
 14 N        3.9400    -0.5980    -0.1600 N.pl3 1 <1>  -0.6000 
 15 C        5.0710     0.1990    -0.0950 C.ar  1 <1>   0.1000 
 16 C        6.0900     2.3720     0.0640 C.ar  1 <1>  -0.1500 
 17 C        6.3430    -0.3700    -0.1240 C.ar  1 <1>  -0.1500 
 18 C        7.3460     1.8030     0.0350 C.ar  1 <1>  -0.1440 
 19 C        7.4670     0.4210    -0.0600 C.ar  1 <1>  -0.1500 
 20 C        8.5970     2.6600     0.1040 C.3   1 <1>  -0.0970 
 21 H        1.2490     2.9120     0.0670 H     1 <1>   0.3700 
 22 H       -0.3520     4.1310    -0.7580 H     1 <1>   0.0800 
 23 H       -0.6510     4.0970     0.9810 H     1 <1>   0.0800 
 24 H       -2.6980     1.1160     0.7600 H     1 <1>   0.0800 
 25 H       -2.7840     1.4780    -0.9600 H     1 <1>   0.0800 
 26 H       -2.5960     4.4200    -1.2590 H     1 <1>   0.0800 
 27 H       -2.6240     5.2030     0.3080 H     1 <1>   0.0800 
 28 H       -3.4630     3.2290     1.3640 H     1 <1>   0.0800 
 29 H       -4.2890     3.1280    -0.1770 H     1 <1>   0.0800 
 30 H        1.8470    -0.7570    -0.1870 H     1 <1>   0.1500 
 31 H        4.0550    -1.6160    -0.2290 H     1 <1>   0.4000 
 32 H        5.9830     3.4400     0.1370 H     1 <1>   0.1500 
 33 H        6.4420    -1.4370    -0.1980 H     1 <1>   0.1500 
 34 H        8.4450    -0.0280    -0.0840 H     1 <1>   0.1500 
 35 H        8.3470     3.7030     0.1750 H     1 <1>   0.0800 
 36 H        9.1930     2.5110    -0.7780 H     1 <1>   0.0800 
 37 H        9.1790     2.3890     0.9670 H     1 <1>   0.0800 
@<TRIPOS>BOND
  1   1   2  2   
  2   2   3  am  
  3   2   4  am  
  4   3   5  1   
  5   3   6  1   
  6   4   7  1   
  7   4  21  1   
  8   5   8  1   
  9   5  22  1   
 10   5  23  1   
 11   6   9  1   
 12   6  24  1   
 13   6  25  1   
 14   7  10  1   
 15   7  11  2   
 16   8   9  1   
 17   8  26  1   
 18   8  27  1   
 19   9  28  1   
 20   9  29  1   
 21  10  12  2   
 22  10  13  1   
 23  11  14  1   
 24  11  30  1   
 25  13  15  ar  
 26  13  16  ar  
 27  14  15  1   
 28  14  31  1   
 29  15  17  ar  
 30  16  18  ar  
 31  16  32  1   
 32  17  19  ar  
 33  17  33  1   
 34  18  19  ar  
 35  18  20  1   
 36  19  34  1   
 37  20  35  1   
 38  20  36  1   
 39  20  37  1   
@<TRIPOS>SUBSTRUCTURE
  1 ****   7 GROUP 4 **** **** 0

# MOE 2024.06 (io_trps.svl 2023.06)
