@<TRIPOS>MOLECULE
6-(3,4-Dimethyl-phenyl)-3-isopropyl-[1,2,4]triazolo[3,4-b][1,3,4]thiadiazole
35 37 1 0 0 
SMALL
USER_CHARGES


@<TRIPOS>ATOM
  1 S       -0.3670    -0.1090    -0.7810 S.3   1 <1>  -0.1970 
  2 C        0.5270     1.3850    -0.6580 C.2   1 <1>   0.2420 
  3 C       -1.8650     0.7760    -0.3570 C.2   1 <1>   0.5050 
  4 N        1.7490     1.7510    -0.8010 N.2   1 <1>  -0.3380 
  5 N       -0.3140     2.3470    -0.3330 N.pl3 1 <1>   0.5050 
  6 N       -1.6610     2.0310    -0.1590 N.2   1 <1>  -0.6520 
  7 C       -3.1120     0.0390    -0.2790 C.ar  1 <1>   0.0860 
  8 N        1.7310     3.0760    -0.5530 N.2   1 <1>  -0.3380 
  9 C        0.5040     3.4110    -0.2770 C.2   1 <1>   0.0060 
 10 C       -4.2980     0.7090     0.0280 C.ar  1 <1>  -0.1500 
 11 C       -3.2090    -1.3370    -0.4980 C.ar  1 <1>  -0.1500 
 12 C       -0.0080     4.8070     0.0640 C.3   1 <1>   0.1000 
 13 C       -5.5190     0.0600     0.1160 C.ar  1 <1>  -0.1440 
 14 C       -4.4200    -1.9970    -0.4130 C.ar  1 <1>  -0.1500 
 15 C       -0.5570     5.4860    -1.1950 C.3   1 <1>  -0.2400 
 16 C        1.0860     5.6750     0.6980 C.3   1 <1>  -0.2400 
 17 C       -5.5830    -1.3090    -0.1070 C.ar  1 <1>  -0.1430 
 18 C       -6.7650     0.8660     0.4560 C.3   1 <1>  -0.0970 
 19 C       -6.8970    -2.0730    -0.0230 C.3   1 <1>  -0.0970 
 20 H       -4.2560     1.7700     0.2010 H     1 <1>   0.1500 
 21 H       -2.3370    -1.9180    -0.7380 H     1 <1>   0.1500 
 22 H       -0.8090     4.7090     0.7780 H     1 <1>   0.0800 
 23 H       -4.4530    -3.0580    -0.5880 H     1 <1>   0.1500 
 24 H        0.2190     5.5820    -1.9330 H     1 <1>   0.0800 
 25 H       -0.9350     6.4650    -0.9590 H     1 <1>   0.0800 
 26 H       -1.3580     4.9020    -1.6120 H     1 <1>   0.0800 
 27 H        1.8970     5.8220     0.0060 H     1 <1>   0.0800 
 28 H        1.4740     5.1930     1.5780 H     1 <1>   0.0800 
 29 H        0.6920     6.6350     0.9770 H     1 <1>   0.0800 
 30 H       -6.5290     1.9060     0.5950 H     1 <1>   0.0800 
 31 H       -7.2070     0.4970     1.3640 H     1 <1>   0.0800 
 32 H       -7.4830     0.7880    -0.3410 H     1 <1>   0.0800 
 33 H       -7.5950    -1.6850    -0.7430 H     1 <1>   0.0800 
 34 H       -7.3180    -1.9760     0.9620 H     1 <1>   0.0800 
 35 H       -6.7510    -3.1180    -0.2250 H     1 <1>   0.0800 
@<TRIPOS>BOND
  1   1   2  1   
  2   1   3  1   
  3   2   4  2   
  4   2   5  1   
  5   3   6  2   
  6   3   7  1   
  7   4   8  1   
  8   5   6  1   
  9   5   9  1   
 10   7  10  ar  
 11   7  11  ar  
 12   8   9  2   
 13   9  12  1   
 14  10  13  ar  
 15  10  20  1   
 16  11  14  ar  
 17  11  21  1   
 18  12  15  1   
 19  12  16  1   
 20  12  22  1   
 21  13  17  ar  
 22  13  18  1   
 23  14  17  ar  
 24  14  23  1   
 25  15  24  1   
 26  15  25  1   
 27  15  26  1   
 28  16  27  1   
 29  16  28  1   
 30  16  29  1   
 31  17  19  1   
 32  18  30  1   
 33  18  31  1   
 34  18  32  1   
 35  19  33  1   
 36  19  34  1   
 37  19  35  1   
@<TRIPOS>SUBSTRUCTURE
  1 ****   3 GROUP 4 **** **** 0

# MOE 2024.06 (io_trps.svl 2023.06)
