@<TRIPOS>MOLECULE
4-(3,4-Dimethoxy-phenyl)-3,6-dihydroxy-6-methyl-4,5,6,7-tetrahydro-1H-indazole-5
58 61 1 0 0 
SMALL
USER_CHARGES


@<TRIPOS>ATOM
  1 O        0.8800     2.7120     2.8390 O.2   1 <1>  -0.5700 
  2 C        0.9460     3.0320     1.6800 C.2   1 <1>   0.6590 
  3 O       -0.1470     3.2390     0.9580 O.3   1 <1>  -0.4300 
  4 C        2.2730     3.1560     0.9550 C.3   1 <1>  -0.0190 
  5 C       -1.4320     3.0200     1.4930 C.3   1 <1>   0.2640 
  6 C        2.7880     4.6150     0.8310 C.3   1 <1>   0.2800 
  7 C        2.2130     2.4320    -0.4120 C.3   1 <1>   0.2440 
  8 C       -2.3800     2.7520     0.3370 C.ar  1 <1>  -0.1440 
  9 O        2.7980     5.1850     2.0860 O.3   1 <1>  -0.6800 
 10 C        4.2480     4.6270     0.3120 C.3   1 <1>   0.0200 
 11 C        1.8930     5.5240    -0.0260 C.3   1 <1>  -0.2400 
 12 C        1.9690     0.9350    -0.2250 C.ar  1 <1>  -0.1430 
 13 C        3.4910     2.7200    -1.1850 C.2   1 <1>  -0.1810 
 14 C       -2.8010     3.7900    -0.4800 C.ar  1 <1>  -0.1500 
 15 C       -2.8270     1.4630     0.0860 C.ar  1 <1>  -0.1500 
 16 C        4.3830     3.6790    -0.8670 C.2   1 <1>  -0.3320 
 17 C        2.9710     0.1030     0.2520 C.ar  1 <1>  -0.1500 
 18 C        0.7320     0.3870    -0.5320 C.ar  1 <1>  -0.1500 
 19 C        4.0200     2.1450    -2.3320 C.2   1 <1>   0.3510 
 20 C       -3.6630     3.5430    -1.5350 C.ar  1 <1>  -0.1500 
 21 C       -3.6890     1.2150    -0.9680 C.ar  1 <1>  -0.1500 
 22 N        5.3770     3.6180    -1.7840 N.pl3 1 <1>   0.3000 
 23 C        2.7460    -1.2530     0.4160 C.ar  1 <1>   0.0830 
 24 C        0.4940    -0.9660    -0.3620 C.ar  1 <1>  -0.1500 
 25 O        3.4830     1.1650    -3.0540 O.3   1 <1>  -0.5120 
 26 N        5.1430     2.6570    -2.7080 N.2   1 <1>  -0.7070 
 27 C       -4.1080     2.2550    -1.7790 C.ar  1 <1>  -0.1500 
 28 O        3.7760    -2.0020     0.8810 O.3   1 <1>  -0.3630 
 29 C        1.4960    -1.8040     0.1190 C.ar  1 <1>   0.0830 
 30 C        4.3720    -2.8790    -0.0470 C.3   1 <1>   0.0400 
 31 O        1.3040    -3.1420     0.3170 O.3   1 <1>  -0.3630 
 32 C        0.0320    -3.7320     0.1700 C.3   1 <1>   0.0400 
 33 H        2.9920     2.6290     1.5550 H     1 <1>   0.0800 
 34 H       -1.7230     3.8960     2.0450 H     1 <1>   0.0800 
 35 H       -1.4000     2.1730     2.1570 H     1 <1>   0.0800 
 36 H        1.4090     2.8350    -1.0010 H     1 <1>   0.0800 
 37 H        2.9650     6.1440     2.0230 H     1 <1>   0.4000 
 38 H        4.9110     4.2910     1.0910 H     1 <1>   0.0800 
 39 H        4.5330     5.6210     0.0190 H     1 <1>   0.0800 
 40 H        0.8930     5.5600     0.3660 H     1 <1>   0.0800 
 41 H        1.8440     5.1620    -1.0370 H     1 <1>   0.0800 
 42 H        2.2850     6.5240    -0.0590 H     1 <1>   0.0800 
 43 H       -2.4560     4.7930    -0.2980 H     1 <1>   0.1500 
 44 H       -2.5040     0.6470     0.7090 H     1 <1>   0.1500 
 45 H        3.9410     0.4970     0.4940 H     1 <1>   0.1500 
 46 H       -0.0600     1.0140    -0.9090 H     1 <1>   0.1500 
 47 H       -3.9870     4.3520    -2.1660 H     1 <1>   0.1500 
 48 H       -4.0350     0.2140    -1.1580 H     1 <1>   0.1500 
 49 H        6.2160     4.2120    -1.8160 H     1 <1>   0.2700 
 50 H       -0.4780    -1.3430    -0.6130 H     1 <1>   0.1500 
 51 H        4.1140     0.9950    -3.7730 H     1 <1>   0.4500 
 52 H       -4.7780     2.0640    -2.5990 H     1 <1>   0.1500 
 53 H        5.2380    -3.3160     0.4140 H     1 <1>   0.0800 
 54 H        4.6580    -2.3180    -0.9190 H     1 <1>   0.0800 
 55 H        3.6690    -3.6480    -0.3090 H     1 <1>   0.0800 
 56 H        0.1160    -4.7710     0.4320 H     1 <1>   0.0800 
 57 H       -0.2810    -3.6370    -0.8540 H     1 <1>   0.0800 
 58 H       -0.6580    -3.2420     0.8350 H     1 <1>   0.0800 
@<TRIPOS>BOND
  1   1   2  2   
  2   2   3  1   
  3   2   4  1   
  4   3   5  1   
  5   4   6  1   
  6   4   7  1   
  7   4  33  1   
  8   5   8  1   
  9   5  34  1   
 10   5  35  1   
 11   6   9  1   
 12   6  10  1   
 13   6  11  1   
 14   7  12  1   
 15   7  13  1   
 16   7  36  1   
 17   8  14  ar  
 18   8  15  ar  
 19   9  37  1   
 20  10  16  1   
 21  10  38  1   
 22  10  39  1   
 23  11  40  1   
 24  11  41  1   
 25  11  42  1   
 26  12  17  ar  
 27  12  18  ar  
 28  13  16  2   
 29  13  19  1   
 30  14  20  ar  
 31  14  43  1   
 32  15  21  ar  
 33  15  44  1   
 34  16  22  1   
 35  17  23  ar  
 36  17  45  1   
 37  18  24  ar  
 38  18  46  1   
 39  19  25  1   
 40  19  26  2   
 41  20  27  ar  
 42  20  47  1   
 43  21  27  ar  
 44  21  48  1   
 45  22  26  1   
 46  22  49  1   
 47  23  28  1   
 48  23  29  ar  
 49  24  29  ar  
 50  24  50  1   
 51  25  51  1   
 52  27  52  1   
 53  28  30  1   
 54  29  31  1   
 55  30  53  1   
 56  30  54  1   
 57  30  55  1   
 58  31  32  1   
 59  32  56  1   
 60  32  57  1   
 61  32  58  1   
@<TRIPOS>SUBSTRUCTURE
  1 ****  12 GROUP 4 **** **** 0

# MOE 2024.06 (io_trps.svl 2023.06)
