@<TRIPOS>MOLECULE
(4-Chloro-phenyl)-dimethylamino-acetic acid
26 26 1 0 0 
SMALL
USER_CHARGES


@<TRIPOS>ATOM
  1 CL       0.0230     0.0810    -0.6960 Cl    1 <1>  -0.1770 
  2 C        1.6600     0.5810    -0.3600 C.ar  1 <1>   0.1770 
  3 C        2.6880     0.1250    -1.1630 C.ar  1 <1>  -0.1500 
  4 C        1.9050     1.4260     0.7050 C.ar  1 <1>  -0.1500 
  5 C        3.9850     0.5290    -0.8970 C.ar  1 <1>  -0.1500 
  6 C        3.2050     1.8270     0.9680 C.ar  1 <1>  -0.1500 
  7 C        4.2510     1.3870     0.1650 C.ar  1 <1>  -0.1430 
  8 C        5.6790     1.8600     0.4550 C.3   1 <1>   0.4610 
  9 N        6.0950     2.8630    -0.6140 N.4   1 <1>  -0.9590 
 10 C        6.6820     0.6840     0.5390 C.2   1 <1>   0.9060 
 11 C        7.4080     3.4720    -0.2520 C.3   1 <1>   0.2630 
 12 C        5.0530     3.8620    -0.9830 C.3   1 <1>   0.2630 
 13 O        7.2210     0.3380    -0.5260 O.co2 1 <1>  -0.9000 
 14 O        7.0170     0.2400     1.6400 O.co2 1 <1>  -0.9000 
 15 H        2.4740    -0.5400    -1.9800 H     1 <1>   0.1500 
 16 H        1.0880     1.7580     1.3200 H     1 <1>   0.1500 
 17 H        4.7880     0.1610    -1.5180 H     1 <1>   0.1500 
 18 H        3.3940     2.4780     1.8050 H     1 <1>   0.1500 
 19 H        5.6910     2.3370     1.4170 H     1 <1>   0.0800 
 20 H        6.2960     2.2180    -1.4030 H     1 <1>   0.4500 
 21 H        7.3170     4.0550     0.6490 H     1 <1>   0.0800 
 22 H        7.7570     4.1080    -1.0490 H     1 <1>   0.0800 
 23 H        8.1420     2.6970    -0.0910 H     1 <1>   0.0800 
 24 H        4.8010     4.4700    -0.1300 H     1 <1>   0.0800 
 25 H        4.1620     3.3620    -1.3260 H     1 <1>   0.0800 
 26 H        5.4130     4.5000    -1.7740 H     1 <1>   0.0800 
@<TRIPOS>BOND
  1   1   2  1   
  2   2   3  ar  
  3   2   4  ar  
  4   3   5  ar  
  5   3  15  1   
  6   4   6  ar  
  7   4  16  1   
  8   5   7  ar  
  9   5  17  1   
 10   6   7  ar  
 11   6  18  1   
 12   7   8  1   
 13   8   9  1   
 14   8  10  1   
 15   8  19  1   
 16   9  11  1   
 17   9  12  1   
 18   9  20  1   
 19  10  13  ar  
 20  10  14  ar  
 21  11  21  1   
 22  11  22  1   
 23  11  23  1   
 24  12  24  1   
 25  12  25  1   
 26  12  26  1   
@<TRIPOS>SUBSTRUCTURE
  1 ****   7 GROUP 4 **** **** 0

# MOE 2024.06 (io_trps.svl 2023.06)
