@<TRIPOS>MOLECULE
2-[5-(4-Chloro-phenoxymethyl)-[1,3,4]oxadiazol-2-ylsulfanyl]-1-(4-methyl-piperaz
45 47 1 0 0 
SMALL
USER_CHARGES


@<TRIPOS>ATOM
  1 CL       1.2090    -3.1730     2.6340 Cl    1 <1>  -0.1770 
  2 C        2.8230    -3.0910     1.9740 C.ar  1 <1>   0.1770 
  3 C        3.0040    -2.6370     0.6800 C.ar  1 <1>  -0.1500 
  4 C        3.8960    -3.4810     2.7540 C.ar  1 <1>  -0.1500 
  5 C        4.2830    -2.5700     0.1520 C.ar  1 <1>  -0.1500 
  6 C        5.1730    -3.4130     2.2240 C.ar  1 <1>  -0.1500 
  7 C        5.3760    -2.9610     0.9280 C.ar  1 <1>   0.0830 
  8 O        6.6600    -2.9300     0.4920 O.3   1 <1>  -0.3630 
  9 C        6.9870    -2.4320    -0.7910 C.3   1 <1>   0.3000 
 10 C        8.4890    -2.5180    -1.0050 C.2   1 <1>   0.2980 
 11 O        9.2930    -1.7780    -0.3050 O.3   1 <1>  -0.2800 
 12 N        9.1120    -3.2670    -1.8420 N.2   1 <1>  -0.3380 
 13 C       10.4490    -2.1210    -0.7580 C.2   1 <1>   0.5340 
 14 N       10.4090    -2.9990    -1.6840 N.2   1 <1>  -0.3380 
 15 S       11.9140    -1.3810    -0.0490 S.3   1 <1>  -0.2860 
 16 C       13.3340    -2.3010    -0.8200 C.3   1 <1>   0.1310 
 17 C       13.8620    -3.3500     0.1540 C.2   1 <1>   0.5690 
 18 O       14.8540    -3.0640     0.7780 O.2   1 <1>  -0.5700 
 19 N       13.2580    -4.5750     0.3390 N.am  1 <1>  -0.6600 
 20 C       12.2660    -5.1980    -0.5940 C.3   1 <1>   0.1400 
 21 C       13.5470    -5.3710     1.5760 C.3   1 <1>   0.1400 
 22 C       12.5670    -6.6880    -0.8550 C.3   1 <1>   0.3430 
 23 C       13.8590    -6.8410     1.2490 C.3   1 <1>   0.3430 
 24 N       12.7740    -7.4670     0.4150 N.4   1 <1>  -0.9590 
 25 C       13.0770    -8.9010     0.1240 C.3   1 <1>   0.2630 
 26 H        2.1490    -2.3410     0.0980 H     1 <1>   0.1500 
 27 H        3.7300    -3.8300     3.7570 H     1 <1>   0.1500 
 28 H        4.3990    -2.2160    -0.8540 H     1 <1>   0.1500 
 29 H        6.0210    -3.7110     2.8160 H     1 <1>   0.1500 
 30 H        6.6650    -1.4090    -0.8540 H     1 <1>   0.0800 
 31 H        6.4800    -3.0310    -1.5260 H     1 <1>   0.0800 
 32 H       14.0980    -1.5690    -1.0090 H     1 <1>   0.0800 
 33 H       13.0110    -2.7190    -1.7520 H     1 <1>   0.0800 
 34 H       12.2830    -4.6990    -1.5440 H     1 <1>   0.0800 
 35 H       11.2770    -5.0980    -0.1800 H     1 <1>   0.0800 
 36 H       12.6960    -5.3200     2.2320 H     1 <1>   0.0800 
 37 H       14.3840    -4.9540     2.1110 H     1 <1>   0.0800 
 38 H       13.4550    -6.7510    -1.4630 H     1 <1>   0.0800 
 39 H       11.7530    -7.1140    -1.4200 H     1 <1>   0.0800 
 40 H       13.9770    -7.3870     2.1700 H     1 <1>   0.0800 
 41 H       14.7970    -6.8800     0.7190 H     1 <1>   0.0800 
 42 H       11.8970    -7.4160     0.9550 H     1 <1>   0.4500 
 43 H       13.9910    -8.9850    -0.4420 H     1 <1>   0.0800 
 44 H       12.2770    -9.3450    -0.4470 H     1 <1>   0.0800 
 45 H       13.1890    -9.4550     1.0420 H     1 <1>   0.0800 
@<TRIPOS>BOND
  1   1   2  1   
  2   2   3  ar  
  3   2   4  ar  
  4   3   5  ar  
  5   3  26  1   
  6   4   6  ar  
  7   4  27  1   
  8   5   7  ar  
  9   5  28  1   
 10   6   7  ar  
 11   6  29  1   
 12   7   8  1   
 13   8   9  1   
 14   9  10  1   
 15   9  30  1   
 16   9  31  1   
 17  10  11  1   
 18  10  12  2   
 19  11  13  1   
 20  12  14  1   
 21  13  14  2   
 22  13  15  1   
 23  15  16  1   
 24  16  17  1   
 25  16  32  1   
 26  16  33  1   
 27  17  18  2   
 28  17  19  am  
 29  19  20  1   
 30  19  21  1   
 31  20  22  1   
 32  20  34  1   
 33  20  35  1   
 34  21  23  1   
 35  21  36  1   
 36  21  37  1   
 37  22  24  1   
 38  22  38  1   
 39  22  39  1   
 40  23  24  1   
 41  23  40  1   
 42  23  41  1   
 43  24  25  1   
 44  24  42  1   
 45  25  43  1   
 46  25  44  1   
 47  25  45  1   
@<TRIPOS>SUBSTRUCTURE
  1 ****  10 GROUP 4 **** **** 0

# MOE 2024.06 (io_trps.svl 2023.06)
