@<TRIPOS>MOLECULE
2-(3,4-Dimethoxy-phenyl)-acetamidine
29 29 1 0 0 
SMALL
USER_CHARGES


@<TRIPOS>ATOM
  1 O       -0.8550     0.5860     1.3040 O.3   1 <1>  -0.3630 
  2 C       -1.8870     0.9550     0.4950 C.ar  1 <1>   0.0830 
  3 C       -0.2730    -0.6970     1.2260 C.3   1 <1>   0.0400 
  4 C       -2.8640     0.1020    -0.0440 C.ar  1 <1>   0.0830 
  5 C       -1.9380     2.3110     0.2210 C.ar  1 <1>  -0.1500 
  6 O       -2.8450    -1.2300     0.2510 O.3   1 <1>  -0.3630 
  7 C       -3.8530     0.6480    -0.8590 C.ar  1 <1>  -0.1500 
  8 C       -2.9370     2.8490    -0.5720 C.ar  1 <1>  -0.1430 
  9 C       -3.7620    -2.1450    -0.3090 C.3   1 <1>   0.0400 
 10 C       -3.8910     2.0070    -1.1190 C.ar  1 <1>  -0.1500 
 11 C       -2.9930     4.3540    -0.8070 C.3   1 <1>   0.0880 
 12 C       -3.6490     5.0890     0.3650 C.cat 1 <1>   0.6040 
 13 N       -3.9970     4.4200     1.4360 N.pl3 1 <1>  -0.7540 
 14 N       -3.8540     6.3800     0.2860 N.pl3 1 <1>  -0.7540 
 15 H        0.6960    -0.6550     1.6890 H     1 <1>   0.0800 
 16 H       -0.1760    -0.9780     0.1920 H     1 <1>   0.0800 
 17 H       -0.8970    -1.3950     1.7540 H     1 <1>   0.0800 
 18 H       -1.1710     2.9350     0.6470 H     1 <1>   0.1500 
 19 H       -4.6130     0.0320    -1.3010 H     1 <1>   0.1500 
 20 H       -3.5160    -3.1270     0.0520 H     1 <1>   0.0800 
 21 H       -3.6730    -2.1180    -1.3810 H     1 <1>   0.0800 
 22 H       -4.7570    -1.8810     0.0040 H     1 <1>   0.0800 
 23 H       -4.6730     2.3930    -1.7510 H     1 <1>   0.1500 
 24 H       -3.5450     4.5580    -1.7070 H     1 <1>   0.0800 
 25 H       -1.9940     4.7280    -0.9430 H     1 <1>   0.0800 
 26 H       -4.4370     4.8000     2.2760 H     1 <1>   0.4500 
 27 H       -3.8330     3.4040     1.4990 H     1 <1>   0.4500 
 28 H       -4.2860     6.9370     1.0270 H     1 <1>   0.4500 
 29 H       -3.6000     6.9510    -0.5270 H     1 <1>   0.4500 
@<TRIPOS>BOND
  1   1   2  1   
  2   1   3  1   
  3   2   4  ar  
  4   2   5  ar  
  5   3  15  1   
  6   3  16  1   
  7   3  17  1   
  8   4   6  1   
  9   4   7  ar  
 10   5   8  ar  
 11   5  18  1   
 12   6   9  1   
 13   7  10  ar  
 14   7  19  1   
 15   8  10  ar  
 16   8  11  1   
 17   9  20  1   
 18   9  21  1   
 19   9  22  1   
 20  10  23  1   
 21  11  12  1   
 22  11  24  1   
 23  11  25  1   
 24  12  13  ar  
 25  12  14  ar  
 26  13  26  1   
 27  13  27  1   
 28  14  28  1   
 29  14  29  1   
@<TRIPOS>SUBSTRUCTURE
  1 ****   5 GROUP 4 **** **** 0

# MOE 2024.06 (io_trps.svl 2023.06)
