@<TRIPOS>MOLECULE
3-(3,4-Diethoxy-phenyl)-propionic acid
34 34 1 0 0 
SMALL
USER_CHARGES


@<TRIPOS>ATOM
  1 O       -0.3320    -1.0560    -0.9460 O.co2 1 <1>  -0.9000 
  2 C       -0.3170    -2.0460    -0.2090 C.2   1 <1>   0.9060 
  3 O        0.7250    -2.5640     0.2000 O.co2 1 <1>  -0.9000 
  4 C       -1.6300    -2.6650     0.1930 C.3   1 <1>  -0.2660 
  5 C       -2.0000    -3.8080    -0.7560 C.3   1 <1>  -0.0170 
  6 C       -3.3110    -4.4610    -0.3410 C.ar  1 <1>  -0.1440 
  7 C       -4.5140    -4.0100    -0.8630 C.ar  1 <1>  -0.1500 
  8 C       -3.3140    -5.5070     0.5690 C.ar  1 <1>  -0.1500 
  9 C       -5.7110    -4.5960    -0.4830 C.ar  1 <1>   0.0820 
 10 C       -4.5040    -6.1090     0.9430 C.ar  1 <1>  -0.1500 
 11 O       -6.8550    -4.0810    -0.9960 O.3   1 <1>  -0.3620 
 12 C       -5.7060    -5.6720     0.4110 C.ar  1 <1>   0.0820 
 13 C       -7.6610    -3.3710    -0.0870 C.3   1 <1>   0.1200 
 14 O       -6.8340    -6.3220     0.7970 O.3   1 <1>  -0.3630 
 15 C       -8.8840    -2.8560    -0.8410 C.3   1 <1>  -0.2400 
 16 C       -7.5670    -6.9770    -0.2120 C.3   1 <1>   0.1200 
 17 C       -8.6410    -7.8260     0.4600 C.3   1 <1>  -0.2400 
 18 H       -2.3860    -1.9040     0.1710 H     1 <1>   0.0800 
 19 H       -1.5340    -3.0310     1.1970 H     1 <1>   0.0800 
 20 H       -1.2090    -4.5390    -0.7520 H     1 <1>   0.0800 
 21 H       -2.0790    -3.4230    -1.7580 H     1 <1>   0.0800 
 22 H       -4.5270    -3.1920    -1.5600 H     1 <1>   0.1500 
 23 H       -2.3830    -5.8500     0.9870 H     1 <1>   0.1500 
 24 H       -4.5040    -6.9220     1.6450 H     1 <1>   0.1500 
 25 H       -7.9530    -4.0320     0.7100 H     1 <1>   0.0800 
 26 H       -7.0810    -2.5570     0.3120 H     1 <1>   0.0800 
 27 H       -9.5170    -2.3050    -0.1710 H     1 <1>   0.0800 
 28 H       -9.4430    -3.6820    -1.2420 H     1 <1>   0.0800 
 29 H       -8.5770    -2.2050    -1.6400 H     1 <1>   0.0800 
 30 H       -8.0140    -6.2410    -0.8560 H     1 <1>   0.0800 
 31 H       -6.8900    -7.5920    -0.7800 H     1 <1>   0.0800 
 32 H       -9.2170    -8.3420    -0.2860 H     1 <1>   0.0800 
 33 H       -9.3020    -7.1990     1.0320 H     1 <1>   0.0800 
 34 H       -8.1850    -8.5530     1.1080 H     1 <1>   0.0800 
@<TRIPOS>BOND
  1   1   2  ar  
  2   2   3  ar  
  3   2   4  1   
  4   4   5  1   
  5   4  18  1   
  6   4  19  1   
  7   5   6  1   
  8   5  20  1   
  9   5  21  1   
 10   6   7  ar  
 11   6   8  ar  
 12   7   9  ar  
 13   7  22  1   
 14   8  10  ar  
 15   8  23  1   
 16   9  11  1   
 17   9  12  ar  
 18  10  12  ar  
 19  10  24  1   
 20  11  13  1   
 21  12  14  1   
 22  13  15  1   
 23  13  25  1   
 24  13  26  1   
 25  14  16  1   
 26  15  27  1   
 27  15  28  1   
 28  15  29  1   
 29  16  17  1   
 30  16  30  1   
 31  16  31  1   
 32  17  32  1   
 33  17  33  1   
 34  17  34  1   
@<TRIPOS>SUBSTRUCTURE
  1 ****   7 GROUP 4 **** **** 0

# MOE 2024.06 (io_trps.svl 2023.06)
