@<TRIPOS>MOLECULE
1-(4-Ethoxy-3-methyl-benzenesulfonyl)-piperidine-3-carboxylic acid amide
44 45 1 0 0 
SMALL
USER_CHARGES


@<TRIPOS>ATOM
  1 S       -0.0380    -0.8420     1.7860 S.o2  1 <1>   1.4470 
  2 O        0.8890     0.0290     2.4800 O.2   1 <1>  -0.6500 
  3 O       -0.5090    -2.0390     2.4480 O.2   1 <1>  -0.6500 
  4 N        0.7470    -1.3420     0.3680 N.am  1 <1>  -0.8490 
  5 C       -1.4560     0.1080     1.1710 C.ar  1 <1>  -0.0090 
  6 C        1.4090    -0.2350    -0.3610 C.3   1 <1>   0.1960 
  7 C        1.5900    -2.5240     0.6090 C.3   1 <1>   0.1960 
  8 C       -2.2750    -0.3990     0.1690 C.ar  1 <1>  -0.1500 
  9 C       -1.7650     1.3600     1.6880 C.ar  1 <1>  -0.1500 
 10 C        2.9210    -0.1980    -0.1030 C.3   1 <1>  -0.0190 
 11 C        2.6300    -2.7100    -0.5020 C.3   1 <1>  -0.1600 
 12 C       -3.3610     0.3130    -0.3160 C.ar  1 <1>  -0.1440 
 13 C       -2.8450     2.0860     1.2190 C.ar  1 <1>  -0.1500 
 14 C        3.5330     1.0320    -0.7530 C.2   1 <1>   0.5690 
 15 C        3.5840    -1.5040    -0.5970 C.3   1 <1>  -0.1600 
 16 C       -3.6520     1.5670     0.2100 C.ar  1 <1>   0.0820 
 17 C       -4.2240    -0.2840    -1.4180 C.3   1 <1>  -0.0960 
 18 O        3.2640     1.3140    -1.8910 O.2   1 <1>  -0.5700 
 19 N        4.3800     1.8080    -0.0510 N.am  1 <1>  -0.8000 
 20 O       -4.7250     2.2300    -0.2940 O.3   1 <1>  -0.3620 
 21 C       -5.1010     3.5030     0.1750 C.3   1 <1>   0.1200 
 22 C       -6.3360     3.9470    -0.6050 C.3   1 <1>  -0.2400 
 23 H        0.9670     0.7120    -0.0970 H     1 <1>   0.0800 
 24 H        1.2450    -0.3760    -1.4170 H     1 <1>   0.0800 
 25 H        0.9610    -3.3970     0.6750 H     1 <1>   0.0800 
 26 H        2.1060    -2.4180     1.5500 H     1 <1>   0.0800 
 27 H       -2.0480    -1.3710    -0.2360 H     1 <1>   0.1500 
 28 H       -1.1490     1.7730     2.4690 H     1 <1>   0.1500 
 29 H        3.0660    -0.1120     0.9590 H     1 <1>   0.0800 
 30 H        2.1080    -2.8390    -1.4350 H     1 <1>   0.0800 
 31 H        3.1960    -3.6070    -0.3230 H     1 <1>   0.0800 
 32 H       -3.0400     3.0490     1.6500 H     1 <1>   0.1500 
 33 H        4.4670    -1.6860    -0.0100 H     1 <1>   0.0800 
 34 H        3.8930    -1.3940    -1.6240 H     1 <1>   0.0800 
 35 H       -3.8660    -1.2530    -1.7140 H     1 <1>   0.0800 
 36 H       -4.2150     0.3640    -2.2770 H     1 <1>   0.0800 
 37 H       -5.2380    -0.3820    -1.0730 H     1 <1>   0.0800 
 38 H        4.7850     2.6320    -0.4970 H     1 <1>   0.3700 
 39 H        4.6340     1.6440     0.9230 H     1 <1>   0.3700 
 40 H       -4.2830     4.1830     0.0090 H     1 <1>   0.0800 
 41 H       -5.3220     3.4280     1.2260 H     1 <1>   0.0800 
 42 H       -6.1100     4.0010    -1.6550 H     1 <1>   0.0800 
 43 H       -6.6500     4.9180    -0.2700 H     1 <1>   0.0800 
 44 H       -7.1420     3.2520    -0.4460 H     1 <1>   0.0800 
@<TRIPOS>BOND
  1   1   2  2   
  2   1   3  2   
  3   1   4  am  
  4   1   5  1   
  5   4   6  1   
  6   4   7  1   
  7   5   8  ar  
  8   5   9  ar  
  9   6  10  1   
 10   6  23  1   
 11   6  24  1   
 12   7  11  1   
 13   7  25  1   
 14   7  26  1   
 15   8  12  ar  
 16   8  27  1   
 17   9  13  ar  
 18   9  28  1   
 19  10  14  1   
 20  10  15  1   
 21  10  29  1   
 22  11  15  1   
 23  11  30  1   
 24  11  31  1   
 25  12  16  ar  
 26  12  17  1   
 27  13  16  ar  
 28  13  32  1   
 29  14  18  2   
 30  14  19  am  
 31  15  33  1   
 32  15  34  1   
 33  16  20  1   
 34  17  35  1   
 35  17  36  1   
 36  17  37  1   
 37  19  38  1   
 38  19  39  1   
 39  20  21  1   
 40  21  22  1   
 41  21  40  1   
 42  21  41  1   
 43  22  42  1   
 44  22  43  1   
 45  22  44  1   
@<TRIPOS>SUBSTRUCTURE
  1 ****   5 GROUP 4 **** **** 0

# MOE 2024.06 (io_trps.svl 2023.06)
