@<TRIPOS>MOLECULE
2-(3-Bromo-phenyl)-thiazolidine-3,4-dicarboxylic acid 3-tert-butyl ester
39 40 1 0 0 
SMALL
USER_CHARGES


@<TRIPOS>ATOM
  1 BR      -0.7350     0.1980    -1.1740 Br    1 <1>  -0.1110 
  2 C       -0.4480     1.8780    -0.2820 C.ar  1 <1>   0.1110 
  3 C        0.0060     2.9540    -1.0210 C.ar  1 <1>  -0.1500 
  4 C       -0.7020     1.9620     1.0730 C.ar  1 <1>  -0.1500 
  5 C        0.2170     4.1720    -0.3880 C.ar  1 <1>  -0.1440 
  6 C       -0.4910     3.1750     1.7040 C.ar  1 <1>  -0.1500 
  7 C       -0.0360     4.2660     0.9780 C.ar  1 <1>  -0.1500 
  8 C        0.7230     5.3550    -1.2190 C.3   1 <1>   0.5940 
  9 S        2.5110     5.2080    -1.3530 S.3   1 <1>  -0.4600 
 10 N        0.5320     6.6770    -0.6060 N.am  1 <1>  -0.6600 
 11 C        2.8860     6.2880     0.0360 C.3   1 <1>   0.0700 
 12 C       -0.6710     7.2940    -0.7000 C.2   1 <1>   0.7800 
 13 C        1.7610     7.3190     0.0240 C.3   1 <1>   0.1140 
 14 O       -1.6300     6.7620    -1.2300 O.2   1 <1>  -0.5700 
 15 O       -0.7530     8.5280    -0.2100 O.3   1 <1>  -0.4300 
 16 C        1.6260     7.9190     1.4350 C.2   1 <1>   0.9060 
 17 C       -1.9080     9.2840     0.0490 C.3   1 <1>   0.2800 
 18 O        1.1320     7.2490     2.3520 O.co2 1 <1>  -0.9000 
 19 O        2.0960     9.0460     1.6380 O.co2 1 <1>  -0.9000 
 20 C       -2.8270     8.5170     1.0060 C.3   1 <1>  -0.2400 
 21 C       -1.3980    10.5490     0.7410 C.3   1 <1>  -0.2400 
 22 C       -2.6030     9.6590    -1.2640 C.3   1 <1>  -0.2400 
 23 H        0.1930     2.8360    -2.0720 H     1 <1>   0.1500 
 24 H       -1.0540     1.1060     1.6180 H     1 <1>   0.1500 
 25 H       -0.6760     3.2840     2.7590 H     1 <1>   0.1500 
 26 H        0.1180     5.1980     1.4970 H     1 <1>   0.1500 
 27 H        0.3180     5.3350    -2.2160 H     1 <1>   0.0800 
 28 H        3.8560     6.7300    -0.0970 H     1 <1>   0.0800 
 29 H        2.8550     5.6900     0.9310 H     1 <1>   0.0800 
 30 H        2.0600     8.1260    -0.6180 H     1 <1>   0.0800 
 31 H       -2.2730     8.2080     1.8750 H     1 <1>   0.0800 
 32 H       -3.2450     7.6500     0.5290 H     1 <1>   0.0800 
 33 H       -3.6390     9.1460     1.3220 H     1 <1>   0.0800 
 34 H       -0.8620    10.2840     1.6370 H     1 <1>   0.0800 
 35 H       -2.2150    11.1930     1.0070 H     1 <1>   0.0800 
 36 H       -0.7310    11.0850     0.0920 H     1 <1>   0.0800 
 37 H       -3.0230     8.7920    -1.7380 H     1 <1>   0.0800 
 38 H       -1.9030    10.1260    -1.9320 H     1 <1>   0.0800 
 39 H       -3.4040    10.3480    -1.0700 H     1 <1>   0.0800 
@<TRIPOS>BOND
  1   1   2  1   
  2   2   3  ar  
  3   2   4  ar  
  4   3   5  ar  
  5   3  23  1   
  6   4   6  ar  
  7   4  24  1   
  8   5   7  ar  
  9   5   8  1   
 10   6   7  ar  
 11   6  25  1   
 12   7  26  1   
 13   8   9  1   
 14   8  10  1   
 15   8  27  1   
 16   9  11  1   
 17  10  12  am  
 18  10  13  1   
 19  11  13  1   
 20  11  28  1   
 21  11  29  1   
 22  12  14  2   
 23  12  15  1   
 24  13  16  1   
 25  13  30  1   
 26  15  17  1   
 27  16  18  ar  
 28  16  19  ar  
 29  17  20  1   
 30  17  21  1   
 31  17  22  1   
 32  20  31  1   
 33  20  32  1   
 34  20  33  1   
 35  21  34  1   
 36  21  35  1   
 37  21  36  1   
 38  22  37  1   
 39  22  38  1   
 40  22  39  1   
@<TRIPOS>SUBSTRUCTURE
  1 ****  10 GROUP 4 **** **** 0

# MOE 2024.06 (io_trps.svl 2023.06)
