@<TRIPOS>MOLECULE
2-[2-Chloro-4-(piperidine-1-sulfonyl)-phenoxy]-N-pyridin-4-ylmethyl-acetamide
50 52 1 0 0 
SMALL
USER_CHARGES


@<TRIPOS>ATOM
  1 CL       5.4300    -2.5480     0.5270 Cl    1 <1>  -0.1770 
  2 C        4.1810    -2.7880    -0.6750 C.ar  1 <1>   0.1770 
  3 C        4.5020    -2.7750    -2.0260 C.ar  1 <1>   0.0820 
  4 C        2.8810    -2.9700    -0.2490 C.ar  1 <1>  -0.1500 
  5 O        5.7910    -2.5980    -2.4060 O.3   1 <1>  -0.3630 
  6 C        3.4850    -2.9530    -2.9540 C.ar  1 <1>  -0.1500 
  7 C        1.8530    -3.1460    -1.1690 C.ar  1 <1>  -0.0090 
  8 C        6.1010    -1.5980    -3.3720 C.3   1 <1>   0.1810 
  9 C        2.1800    -3.1310    -2.5230 C.ar  1 <1>  -0.1500 
 10 S        0.1420    -3.3730    -0.6100 S.o2  1 <1>   1.4470 
 11 C        5.8030    -0.1920    -2.8570 C.2   1 <1>   0.5690 
 12 O       -0.6550    -3.9470    -1.6720 O.2   1 <1>  -0.6500 
 13 O       -0.2930    -2.1510     0.0300 O.2   1 <1>  -0.6500 
 14 N        0.2920    -4.5540     0.5970 N.am  1 <1>  -0.8490 
 15 O        5.4900     0.6640    -3.6490 O.2   1 <1>  -0.5700 
 16 N        5.8970     0.0700    -1.5290 N.am  1 <1>  -0.7300 
 17 C        0.5610    -5.8830     0.0360 C.3   1 <1>   0.1960 
 18 C       -0.8900    -4.5840     1.4650 C.3   1 <1>   0.1960 
 19 C        5.6170     1.3670    -0.8980 C.3   1 <1>   0.2840 
 20 C        0.8540    -6.8830     1.1590 C.3   1 <1>  -0.1600 
 21 C       -0.6650    -5.5450     2.6380 C.3   1 <1>  -0.1600 
 22 C        6.4520     1.4660     0.3640 C.ar  1 <1>  -0.1430 
 23 C       -0.3110    -6.9550     2.1530 C.3   1 <1>  -0.1600 
 24 C        6.0290     0.9260     1.5630 C.ar  1 <1>  -0.1500 
 25 C        7.6810     2.0940     0.3780 C.ar  1 <1>  -0.1500 
 26 C        6.8310     1.0410     2.6860 C.ar  1 <1>   0.1600 
 27 C        8.4050     2.1550     1.5570 C.ar  1 <1>   0.1600 
 28 N        8.0080     1.6450     2.7110 N.ar  1 <1>  -0.6200 
 29 H        2.6620    -2.9730     0.8050 H     1 <1>   0.1500 
 30 H        3.6990    -2.9610    -4.0080 H     1 <1>   0.1500 
 31 H        5.5490    -1.7880    -4.2720 H     1 <1>   0.0800 
 32 H        7.1500    -1.6740    -3.5890 H     1 <1>   0.0800 
 33 H        1.3970    -3.2640    -3.2530 H     1 <1>   0.1500 
 34 H        6.1440    -0.6850    -0.8820 H     1 <1>   0.3700 
 35 H        1.4130    -5.8380    -0.6210 H     1 <1>   0.0800 
 36 H       -0.2890    -6.2200    -0.5380 H     1 <1>   0.0800 
 37 H       -1.7540    -4.8880     0.8960 H     1 <1>   0.0800 
 38 H       -1.0790    -3.6000     1.8610 H     1 <1>   0.0800 
 39 H        4.5700     1.4300    -0.6590 H     1 <1>   0.0800 
 40 H        5.8610     2.1670    -1.5780 H     1 <1>   0.0800 
 41 H        1.7510    -6.5790     1.6700 H     1 <1>   0.0800 
 42 H        1.0290    -7.8560     0.7360 H     1 <1>   0.0800 
 43 H       -1.5540    -5.5820     3.2430 H     1 <1>   0.0800 
 44 H        0.1320    -5.1600     3.2500 H     1 <1>   0.0800 
 45 H       -0.0440    -7.5770     2.9910 H     1 <1>   0.0800 
 46 H       -1.1680    -7.3930     1.6700 H     1 <1>   0.0800 
 47 H        5.0850     0.4150     1.6340 H     1 <1>   0.1500 
 48 H        8.0820     2.5320    -0.5180 H     1 <1>   0.1500 
 49 H        6.4870     0.6130     3.6110 H     1 <1>   0.1500 
 50 H        9.3620     2.6490     1.5490 H     1 <1>   0.1500 
@<TRIPOS>BOND
  1   1   2  1   
  2   2   3  ar  
  3   2   4  ar  
  4   3   5  1   
  5   3   6  ar  
  6   4   7  ar  
  7   4  29  1   
  8   5   8  1   
  9   6   9  ar  
 10   6  30  1   
 11   7   9  ar  
 12   7  10  1   
 13   8  11  1   
 14   8  31  1   
 15   8  32  1   
 16   9  33  1   
 17  10  12  2   
 18  10  13  2   
 19  10  14  am  
 20  11  15  2   
 21  11  16  am  
 22  14  17  1   
 23  14  18  1   
 24  16  19  1   
 25  16  34  1   
 26  17  20  1   
 27  17  35  1   
 28  17  36  1   
 29  18  21  1   
 30  18  37  1   
 31  18  38  1   
 32  19  22  1   
 33  19  39  1   
 34  19  40  1   
 35  20  23  1   
 36  20  41  1   
 37  20  42  1   
 38  21  23  1   
 39  21  43  1   
 40  21  44  1   
 41  22  24  ar  
 42  22  25  ar  
 43  23  45  1   
 44  23  46  1   
 45  24  26  ar  
 46  24  47  1   
 47  25  27  ar  
 48  25  48  1   
 49  26  28  ar  
 50  26  49  1   
 51  27  28  ar  
 52  27  50  1   
@<TRIPOS>SUBSTRUCTURE
  1 ****   2 GROUP 4 **** **** 0

# MOE 2024.06 (io_trps.svl 2023.06)
