@<TRIPOS>MOLECULE
1-(3,4-Dimethyl-benzenesulfonyl)-piperidine-4-carboxylic acid ethyl ester
45 46 1 0 0 
SMALL
USER_CHARGES


@<TRIPOS>ATOM
  1 S       -0.0770     0.2760    -2.2980 S.o2  1 <1>   1.4470 
  2 O       -0.2110    -0.9100    -3.1190 O.2   1 <1>  -0.6500 
  3 O        0.1310     1.5570    -2.9380 O.2   1 <1>  -0.6500 
  4 N       -1.5110     0.3940    -1.3980 N.am  1 <1>  -0.8490 
  5 C        1.1870     0.0260    -1.0220 C.ar  1 <1>  -0.0090 
  6 C       -1.8790    -0.8870    -0.7900 C.3   1 <1>   0.1960 
  7 C       -2.6030     0.9350    -2.2100 C.3   1 <1>   0.1960 
  8 C        2.0320    -1.0760    -1.0450 C.ar  1 <1>  -0.1500 
  9 C        1.3340     0.9300     0.0210 C.ar  1 <1>  -0.1500 
 10 C       -3.0780    -0.7010     0.1420 C.3   1 <1>  -0.1600 
 11 C       -3.8360     1.1790    -1.3370 C.3   1 <1>  -0.1600 
 12 C        2.9900    -1.2850    -0.0650 C.ar  1 <1>  -0.1430 
 13 C        2.2840     0.7370     1.0060 C.ar  1 <1>  -0.1500 
 14 C       -4.2800    -0.1050    -0.6110 C.3   1 <1>  -0.0190 
 15 C        3.1170    -0.3690     0.9720 C.ar  1 <1>  -0.1430 
 16 C        3.8820    -2.5150    -0.1530 C.3   1 <1>  -0.0970 
 17 C       -5.4670     0.1130     0.3250 C.2   1 <1>   0.6590 
 18 C        4.1530    -0.5500     2.0730 C.3   1 <1>  -0.0960 
 19 O       -5.8540     1.2080     0.6460 O.2   1 <1>  -0.5700 
 20 O       -6.0530    -0.9930     0.7650 O.3   1 <1>  -0.4300 
 21 C       -7.1600    -0.9430     1.6340 C.3   1 <1>   0.1200 
 22 C       -7.5780    -2.3750     1.9510 C.3   1 <1>  -0.2400 
 23 H       -1.0510    -1.2710    -0.2170 H     1 <1>   0.0800 
 24 H       -2.1180    -1.6070    -1.5570 H     1 <1>   0.0800 
 25 H       -2.8380     0.2520    -3.0110 H     1 <1>   0.0800 
 26 H       -2.3020     1.8740    -2.6470 H     1 <1>   0.0800 
 27 H        1.9320    -1.7840    -1.8510 H     1 <1>   0.1500 
 28 H        0.6920     1.7940     0.0600 H     1 <1>   0.1500 
 29 H       -2.7930    -0.0500     0.9510 H     1 <1>   0.0800 
 30 H       -3.3480    -1.6520     0.5640 H     1 <1>   0.0800 
 31 H       -4.6400     1.5460    -1.9510 H     1 <1>   0.0800 
 32 H       -3.6000     1.9450    -0.6180 H     1 <1>   0.0800 
 33 H        2.3700     1.4580     1.8000 H     1 <1>   0.1500 
 34 H       -4.5960    -0.8140    -1.3550 H     1 <1>   0.0800 
 35 H        3.6430    -3.1060    -1.0190 H     1 <1>   0.0800 
 36 H        3.7520    -3.1290     0.7200 H     1 <1>   0.0800 
 37 H        4.9130    -2.2180    -0.2230 H     1 <1>   0.0800 
 38 H        3.9810    -1.4750     2.5930 H     1 <1>   0.0800 
 39 H        4.1010     0.2520     2.7870 H     1 <1>   0.0800 
 40 H        5.1410    -0.5610     1.6510 H     1 <1>   0.0800 
 41 H       -7.9550    -0.4060     1.1450 H     1 <1>   0.0800 
 42 H       -6.8680    -0.4180     2.5290 H     1 <1>   0.0800 
 43 H       -7.8560    -2.8890     1.0480 H     1 <1>   0.0800 
 44 H       -8.4250    -2.3670     2.6130 H     1 <1>   0.0800 
 45 H       -6.7730    -2.9000     2.4320 H     1 <1>   0.0800 
@<TRIPOS>BOND
  1   1   2  2   
  2   1   3  2   
  3   1   4  am  
  4   1   5  1   
  5   4   6  1   
  6   4   7  1   
  7   5   8  ar  
  8   5   9  ar  
  9   6  10  1   
 10   6  23  1   
 11   6  24  1   
 12   7  11  1   
 13   7  25  1   
 14   7  26  1   
 15   8  12  ar  
 16   8  27  1   
 17   9  13  ar  
 18   9  28  1   
 19  10  14  1   
 20  10  29  1   
 21  10  30  1   
 22  11  14  1   
 23  11  31  1   
 24  11  32  1   
 25  12  15  ar  
 26  12  16  1   
 27  13  15  ar  
 28  13  33  1   
 29  14  17  1   
 30  14  34  1   
 31  15  18  1   
 32  16  35  1   
 33  16  36  1   
 34  16  37  1   
 35  17  19  2   
 36  17  20  1   
 37  18  38  1   
 38  18  39  1   
 39  18  40  1   
 40  20  21  1   
 41  21  22  1   
 42  21  41  1   
 43  21  42  1   
 44  22  43  1   
 45  22  44  1   
 46  22  45  1   
@<TRIPOS>SUBSTRUCTURE
  1 ****   6 GROUP 4 **** **** 0

# MOE 2024.06 (io_trps.svl 2023.06)
