@<TRIPOS>MOLECULE
1-(4-Methoxycarbonylmethoxy-3-methyl-benzenesulfonyl)-piperidine-4-carboxylic ac
52 53 1 0 0 
SMALL
USER_CHARGES


@<TRIPOS>ATOM
  1 S        0.2320     0.0930     2.2750 S.o2  1 <1>   1.4470 
  2 O       -0.0480     1.3630     2.9090 O.2   1 <1>  -0.6500 
  3 O        0.2400    -1.1120     3.0780 O.2   1 <1>  -0.6500 
  4 N       -0.9520    -0.1390     1.0820 N.am  1 <1>  -0.8490 
  5 C        1.7670     0.2250     1.3160 C.ar  1 <1>  -0.0090 
  6 C       -2.2960     0.0680     1.6250 C.3   1 <1>   0.1960 
  7 C       -0.8310    -1.4520     0.4400 C.3   1 <1>   0.1960 
  8 C        2.8700    -0.5720     1.6070 C.ar  1 <1>  -0.1500 
  9 C        1.8710     1.1220     0.2590 C.ar  1 <1>  -0.1500 
 10 C       -3.3340     0.0110     0.5010 C.3   1 <1>  -0.1600 
 11 C       -1.8080    -1.5530    -0.7320 C.3   1 <1>  -0.1600 
 12 C        4.0440    -0.4910     0.8750 C.ar  1 <1>  -0.1430 
 13 C        3.0340     1.2210    -0.4820 C.ar  1 <1>  -0.1500 
 14 C       -3.2590    -1.3180    -0.2710 C.3   1 <1>  -0.0190 
 15 C        4.1220     0.4240    -0.1690 C.ar  1 <1>   0.0830 
 16 C        5.2110    -1.4040     1.2250 C.3   1 <1>  -0.0970 
 17 C       -4.2670    -1.3500    -1.4200 C.2   1 <1>   0.6590 
 18 O        5.2460     0.5410    -0.9060 O.3   1 <1>  -0.3630 
 19 O       -3.9360    -1.3360    -2.5780 O.2   1 <1>  -0.5700 
 20 O       -5.5410    -1.4000    -1.0550 O.3   1 <1>  -0.4300 
 21 C        6.2360     1.4400    -0.4250 C.3   1 <1>   0.1810 
 22 C       -6.5780    -1.4310    -2.0080 C.3   1 <1>   0.1200 
 23 C        5.8230     2.8990    -0.5670 C.2   1 <1>   0.6590 
 24 C       -7.9070    -1.4700    -1.2600 C.3   1 <1>  -0.2400 
 25 O        5.7770     3.6350     0.3860 O.2   1 <1>  -0.5700 
 26 O        5.5440     3.3240    -1.7960 O.3   1 <1>  -0.4300 
 27 C        5.1550     4.6580    -2.0500 C.3   1 <1>   0.0400 
 28 H       -2.3540     1.0360     2.0950 H     1 <1>   0.0800 
 29 H       -2.5090    -0.6800     2.3710 H     1 <1>   0.0800 
 30 H       -1.0320    -2.2340     1.1550 H     1 <1>   0.0800 
 31 H        0.1710    -1.5860     0.0670 H     1 <1>   0.0800 
 32 H        2.8000    -1.2710     2.4240 H     1 <1>   0.1500 
 33 H        1.0280     1.7470     0.0160 H     1 <1>   0.1500 
 34 H       -3.1620     0.8340    -0.1710 H     1 <1>   0.0800 
 35 H       -4.3160     0.1320     0.9240 H     1 <1>   0.0800 
 36 H       -1.7250    -2.5250    -1.1840 H     1 <1>   0.0800 
 37 H       -1.5340    -0.8230    -1.4750 H     1 <1>   0.0800 
 38 H        3.1000     1.9130    -1.3030 H     1 <1>   0.1500 
 39 H       -3.5270    -2.1140     0.4010 H     1 <1>   0.0800 
 40 H        4.8710    -2.2620     1.7760 H     1 <1>   0.0800 
 41 H        5.9270    -0.8710     1.8240 H     1 <1>   0.0800 
 42 H        5.6940    -1.7510     0.3290 H     1 <1>   0.0800 
 43 H        7.1290     1.2700    -0.9940 H     1 <1>   0.0800 
 44 H        6.4270     1.2160     0.6080 H     1 <1>   0.0800 
 45 H       -6.4520    -2.3080    -2.6210 H     1 <1>   0.0800 
 46 H       -6.5040    -0.5490    -2.6220 H     1 <1>   0.0800 
 47 H       -7.9610    -2.3510    -0.6460 H     1 <1>   0.0800 
 48 H       -8.7170    -1.4950    -1.9650 H     1 <1>   0.0800 
 49 H       -8.0130    -0.5940    -0.6470 H     1 <1>   0.0800 
 50 H        4.9720     4.7660    -3.1040 H     1 <1>   0.0800 
 51 H        5.9490     5.3170    -1.7420 H     1 <1>   0.0800 
 52 H        4.2590     4.8710    -1.4930 H     1 <1>   0.0800 
@<TRIPOS>BOND
  1   1   2  2   
  2   1   3  2   
  3   1   4  am  
  4   1   5  1   
  5   4   6  1   
  6   4   7  1   
  7   5   8  ar  
  8   5   9  ar  
  9   6  10  1   
 10   6  28  1   
 11   6  29  1   
 12   7  11  1   
 13   7  30  1   
 14   7  31  1   
 15   8  12  ar  
 16   8  32  1   
 17   9  13  ar  
 18   9  33  1   
 19  10  14  1   
 20  10  34  1   
 21  10  35  1   
 22  11  14  1   
 23  11  36  1   
 24  11  37  1   
 25  12  15  ar  
 26  12  16  1   
 27  13  15  ar  
 28  13  38  1   
 29  14  17  1   
 30  14  39  1   
 31  15  18  1   
 32  16  40  1   
 33  16  41  1   
 34  16  42  1   
 35  17  19  2   
 36  17  20  1   
 37  18  21  1   
 38  20  22  1   
 39  21  23  1   
 40  21  43  1   
 41  21  44  1   
 42  22  24  1   
 43  22  45  1   
 44  22  46  1   
 45  23  25  2   
 46  23  26  1   
 47  24  47  1   
 48  24  48  1   
 49  24  49  1   
 50  26  27  1   
 51  27  50  1   
 52  27  51  1   
 53  27  52  1   
@<TRIPOS>SUBSTRUCTURE
  1 ****   9 GROUP 4 **** **** 0

# MOE 2024.06 (io_trps.svl 2023.06)
