@<TRIPOS>MOLECULE
Pentanoic acid (3-o-tolyl-[1,2,4]oxadiazol-5-ylmethyl)-amide
39 40 1 0 0 
SMALL
USER_CHARGES


@<TRIPOS>ATOM
  1 O       -1.1660    -0.8130     1.9880 O.2   1 <1>  -0.5700 
  2 C       -2.2760    -0.5390     1.6110 C.2   1 <1>   0.5690 
  3 N       -3.3200    -1.2510     2.0880 N.am  1 <1>  -0.7300 
  4 C       -2.4980     0.5940     0.6150 C.3   1 <1>  -0.0990 
  5 C       -4.7670    -1.1200     1.7700 C.3   1 <1>   0.3200 
  6 C       -1.2020     1.1800     0.0270 C.3   1 <1>  -0.1600 
  7 C       -5.2150    -2.1520     0.7450 C.2   1 <1>   0.2980 
  8 C       -1.4980     2.2980    -0.9810 C.3   1 <1>  -0.1600 
  9 O       -4.7730    -2.0440    -0.4800 O.3   1 <1>  -0.0190 
 10 N       -5.9980    -3.1280     0.9600 N.2   1 <1>  -0.5650 
 11 C       -0.2020     2.8720    -1.5580 C.3   1 <1>  -0.2400 
 12 N       -5.3180    -3.0420    -1.1000 N.2   1 <1>  -0.4100 
 13 C       -6.0410    -3.6870    -0.2550 C.2   1 <1>   0.4620 
 14 C       -6.7940    -4.8930    -0.5520 C.ar  1 <1>   0.0540 
 15 C       -8.1320    -5.0930    -0.1810 C.ar  1 <1>  -0.1430 
 16 C       -6.1570    -5.9190    -1.2520 C.ar  1 <1>  -0.1500 
 17 C       -8.7740    -6.2810    -0.4930 C.ar  1 <1>  -0.1500 
 18 C       -8.9230    -4.0230     0.5600 C.3   1 <1>  -0.0970 
 19 C       -6.8020    -7.1000    -1.5640 C.ar  1 <1>  -0.1500 
 20 C       -8.1160    -7.2840    -1.1810 C.ar  1 <1>  -0.1500 
 21 H       -3.0680    -2.0410     2.6860 H     1 <1>   0.3700 
 22 H       -3.0400     1.3760     1.1140 H     1 <1>   0.0800 
 23 H       -3.1010     0.2220    -0.1920 H     1 <1>   0.0800 
 24 H       -4.9790    -0.1360     1.3930 H     1 <1>   0.0800 
 25 H       -5.3340    -1.2580     2.6730 H     1 <1>   0.0800 
 26 H       -0.6470     0.3950    -0.4580 H     1 <1>   0.0800 
 27 H       -0.5930     1.5670     0.8270 H     1 <1>   0.0800 
 28 H       -2.0490     3.0870    -0.4970 H     1 <1>   0.0800 
 29 H       -2.1010     1.9120    -1.7850 H     1 <1>   0.0800 
 30 H        0.4090     3.2830    -0.7740 H     1 <1>   0.0800 
 31 H       -0.4260     3.6540    -2.2630 H     1 <1>   0.0800 
 32 H        0.3560     2.1050    -2.0650 H     1 <1>   0.0800 
 33 H       -5.1330    -5.7850    -1.5560 H     1 <1>   0.1500 
 34 H       -9.7990    -6.4370    -0.2030 H     1 <1>   0.1500 
 35 H       -8.7820    -3.0640     0.0940 H     1 <1>   0.0800 
 36 H       -8.5930    -3.9660     1.5820 H     1 <1>   0.0800 
 37 H       -9.9750    -4.2450     0.5550 H     1 <1>   0.0800 
 38 H       -6.2840    -7.8740    -2.1030 H     1 <1>   0.1500 
 39 H       -8.6250    -8.2020    -1.4180 H     1 <1>   0.1500 
@<TRIPOS>BOND
  1   1   2  2   
  2   2   3  am  
  3   2   4  1   
  4   3   5  1   
  5   3  21  1   
  6   4   6  1   
  7   4  22  1   
  8   4  23  1   
  9   5   7  1   
 10   5  24  1   
 11   5  25  1   
 12   6   8  1   
 13   6  26  1   
 14   6  27  1   
 15   7   9  1   
 16   7  10  2   
 17   8  11  1   
 18   8  28  1   
 19   8  29  1   
 20   9  12  1   
 21  10  13  1   
 22  11  30  1   
 23  11  31  1   
 24  11  32  1   
 25  12  13  2   
 26  13  14  1   
 27  14  15  ar  
 28  14  16  ar  
 29  15  17  ar  
 30  15  18  1   
 31  16  19  ar  
 32  16  33  1   
 33  17  20  ar  
 34  17  34  1   
 35  18  35  1   
 36  18  36  1   
 37  18  37  1   
 38  19  20  ar  
 39  19  38  1   
 40  20  39  1   
@<TRIPOS>SUBSTRUCTURE
  1 ****   9 GROUP 4 **** **** 0

# MOE 2024.06 (io_trps.svl 2023.06)
