@<TRIPOS>MOLECULE
7-(2-Hydroxy-3-m-tolyloxy-propyl)-1,3-dimethyl-8-pyrrolidin-1-yl-3,7-dihydro-pur
58 61 1 0 0 
SMALL
USER_CHARGES


@<TRIPOS>ATOM
  1 O        0.2850    -0.0360     0.1270 O.2   1 <1>  -0.5740 
  2 C        1.2340     0.7030     0.2860 C.2   1 <1>   0.6870 
  3 N        1.0530     1.9520     0.8710 N.am  1 <1>  -0.4250 
  4 N        2.5000     0.2990    -0.1160 N.am  1 <1>  -0.4410 
  5 C        2.1250     2.8090     1.0800 C.2   1 <1>   0.7000 
  6 C       -0.3250     2.3550     1.2960 C.3   1 <1>   0.0530 
  7 C        3.5510     1.1770     0.0720 C.2   1 <1>   0.4210 
  8 C        2.7110    -1.0350    -0.7520 C.3   1 <1>   0.0530 
  9 O        1.9610     3.8960     1.6120 O.2   1 <1>  -0.5740 
 10 C        3.4250     2.3860     0.6510 C.2   1 <1>   0.2710 
 11 N        4.8490     1.0060    -0.2870 N.pl3 1 <1>  -0.7030 
 12 N        4.7100     2.9660     0.6570 N.pl3 1 <1>  -0.7670 
 13 C        5.5400     2.0990     0.0490 C.cat 1 <1>   1.0690 
 14 C        4.9140     4.3870     1.0790 C.3   1 <1>   0.3490 
 15 N        6.8650     2.2010    -0.2160 N.pl3 1 <1>  -0.5960 
 16 C        4.5040     5.3780    -0.0330 C.3   1 <1>   0.1940 
 17 C        7.6680     1.1080    -0.8280 C.3   1 <1>   0.1610 
 18 C        7.7340     3.3870     0.0010 C.3   1 <1>   0.1610 
 19 O        5.0400     4.9750    -1.2560 O.3   1 <1>  -0.6830 
 20 C        4.9630     6.8120     0.2620 C.3   1 <1>   0.1140 
 21 C        9.1200     1.5410    -0.6850 C.3   1 <1>  -0.1660 
 22 C        9.0570     3.0600    -0.6780 C.3   1 <1>  -0.1660 
 23 O        4.7810     7.5990    -0.8970 O.3   1 <1>  -0.3680 
 24 C        5.1750     8.8970    -0.9330 C.ar  1 <1>   0.0760 
 25 C        5.7020     9.5790     0.1620 C.ar  1 <1>  -0.1560 
 26 C        5.0350     9.5570    -2.1430 C.ar  1 <1>  -0.1560 
 27 C        6.0900    10.9040     0.0400 C.ar  1 <1>  -0.1500 
 28 C        5.4190    10.8800    -2.2670 C.ar  1 <1>  -0.1560 
 29 C        5.9460    11.5500    -1.1770 C.ar  1 <1>  -0.1560 
 30 C        6.6650    11.6530     1.2290 C.3   1 <1>  -0.1030 
 31 H       -1.0470     2.0390     0.5620 H     1 <1>   0.0730 
 32 H       -0.4040     3.4230     1.4050 H     1 <1>   0.0730 
 33 H       -0.5620     1.8880     2.2370 H     1 <1>   0.0730 
 34 H        1.9100    -1.7090    -0.4980 H     1 <1>   0.0730 
 35 H        3.6320    -1.4720    -0.4110 H     1 <1>   0.0730 
 36 H        2.7390    -0.9260    -1.8230 H     1 <1>   0.0730 
 37 H        5.2420     0.2140    -0.7810 H     1 <1>   0.4450 
 38 H        5.9360     4.5560     1.3560 H     1 <1>   0.0730 
 39 H        4.3290     4.5900     1.9600 H     1 <1>   0.0730 
 40 H        3.4320     5.3770    -0.1340 H     1 <1>   0.0730 
 41 H        7.4170     1.0250    -1.8730 H     1 <1>   0.0730 
 42 H        7.5020     0.1660    -0.3320 H     1 <1>   0.0730 
 43 H        7.8940     3.5250     1.0560 H     1 <1>   0.0730 
 44 H        7.3090     4.2760    -0.4310 H     1 <1>   0.0730 
 45 H        4.9660     5.7350    -1.8790 H     1 <1>   0.3950 
 46 H        6.0080     6.8310     0.5190 H     1 <1>   0.0730 
 47 H        4.3810     7.2400     1.0600 H     1 <1>   0.0730 
 48 H        9.7350     1.1610    -1.4830 H     1 <1>   0.0730 
 49 H        9.5090     1.1840     0.2540 H     1 <1>   0.0730 
 50 H        9.8930     3.5030    -0.1640 H     1 <1>   0.0730 
 51 H        9.0380     3.4320    -1.6890 H     1 <1>   0.0730 
 52 H        5.8150     9.0980     1.1130 H     1 <1>   0.1440 
 53 H        4.6250     9.0330    -2.9870 H     1 <1>   0.1440 
 54 H        5.3090    11.3880    -3.2090 H     1 <1>   0.1440 
 55 H        6.2420    12.5800    -1.2800 H     1 <1>   0.1440 
 56 H        7.0540    10.9680     1.9600 H     1 <1>   0.0730 
 57 H        5.8970    12.2510     1.6870 H     1 <1>   0.0730 
 58 H        7.4640    12.2980     0.9110 H     1 <1>   0.0730 
@<TRIPOS>BOND
  1   1   2  2   
  2   2   3  am  
  3   2   4  am  
  4   3   5  am  
  5   3   6  1   
  6   4   7  1   
  7   4   8  1   
  8   5   9  2   
  9   5  10  1   
 10   6  31  1   
 11   6  32  1   
 12   6  33  1   
 13   7  10  2   
 14   7  11  1   
 15   8  34  1   
 16   8  35  1   
 17   8  36  1   
 18  10  12  1   
 19  11  13  ar  
 20  11  37  1   
 21  12  13  ar  
 22  12  14  1   
 23  13  15  ar  
 24  14  16  1   
 25  14  38  1   
 26  14  39  1   
 27  15  17  1   
 28  15  18  1   
 29  16  19  1   
 30  16  20  1   
 31  16  40  1   
 32  17  21  1   
 33  17  41  1   
 34  17  42  1   
 35  18  22  1   
 36  18  43  1   
 37  18  44  1   
 38  19  45  1   
 39  20  23  1   
 40  20  46  1   
 41  20  47  1   
 42  21  22  1   
 43  21  48  1   
 44  21  49  1   
 45  22  50  1   
 46  22  51  1   
 47  23  24  1   
 48  24  25  ar  
 49  24  26  ar  
 50  25  27  ar  
 51  25  52  1   
 52  26  28  ar  
 53  26  53  1   
 54  27  29  ar  
 55  27  30  1   
 56  28  29  ar  
 57  28  54  1   
 58  29  55  1   
 59  30  56  1   
 60  30  57  1   
 61  30  58  1   
@<TRIPOS>SUBSTRUCTURE
  1 ****  16 GROUP 4 **** **** 0

# MOE 2024.06 (io_trps.svl 2023.06)
