@<TRIPOS>MOLECULE
1-(2-m-Tolyloxy-acetyl)-piperidine-4-carboxylic acid ethyl ester
45 46 1 0 0 
SMALL
USER_CHARGES


@<TRIPOS>ATOM
  1 O       -1.0720    -0.4470     0.2510 O.2   1 <1>  -0.5700 
  2 C       -0.8560    -1.6180     0.4390 C.2   1 <1>   0.6590 
  3 O        0.3590    -2.0700     0.7170 O.3   1 <1>  -0.4300 
  4 C       -1.9520    -2.6810     0.3760 C.3   1 <1>  -0.0190 
  5 C        1.4660    -1.2030     0.7970 C.3   1 <1>   0.1200 
  6 C       -1.7890    -3.5710    -0.8710 C.3   1 <1>  -0.1600 
  7 C       -3.3730    -2.0800     0.4110 C.3   1 <1>  -0.1600 
  8 C        2.7010    -2.0390     1.1160 C.3   1 <1>  -0.2400 
  9 C       -2.8820    -4.6390    -0.9520 C.3   1 <1>   0.1400 
 10 C       -4.4510    -3.1620     0.3160 C.3   1 <1>   0.1400 
 11 N       -4.2200    -3.9890    -0.9020 N.am  1 <1>  -0.6600 
 12 C       -5.1530    -4.2020    -1.8940 C.2   1 <1>   0.5690 
 13 O       -4.9040    -4.8900    -2.8580 O.2   1 <1>  -0.5700 
 14 C       -6.5340    -3.5530    -1.8530 C.3   1 <1>   0.1810 
 15 O       -7.2760    -3.9780    -0.7180 O.3   1 <1>  -0.3630 
 16 C       -8.4670    -3.4100    -0.4090 C.ar  1 <1>   0.0820 
 17 C       -9.0290    -3.7670     0.8070 C.ar  1 <1>  -0.1500 
 18 C       -9.1320    -2.5060    -1.2330 C.ar  1 <1>  -0.1500 
 19 C      -10.2380    -3.2280     1.2140 C.ar  1 <1>  -0.1440 
 20 C      -10.3410    -1.9670    -0.8290 C.ar  1 <1>  -0.1500 
 21 C      -10.8910    -2.3260     0.3900 C.ar  1 <1>  -0.1500 
 22 C      -10.8500    -3.6230     2.5460 C.3   1 <1>  -0.0970 
 23 H       -1.8340    -3.3000     1.2470 H     1 <1>   0.0800 
 24 H        1.2760    -0.4790     1.5730 H     1 <1>   0.0800 
 25 H        1.5730    -0.6980    -0.1480 H     1 <1>   0.0800 
 26 H       -0.8280    -4.0550    -0.8500 H     1 <1>   0.0800 
 27 H       -1.8300    -2.9650    -1.7600 H     1 <1>   0.0800 
 28 H       -3.4990    -1.3930    -0.4090 H     1 <1>   0.0800 
 29 H       -3.5070    -1.5250     1.3220 H     1 <1>   0.0800 
 30 H        2.5750    -2.5430     2.0570 H     1 <1>   0.0800 
 31 H        3.5630    -1.4010     1.1810 H     1 <1>   0.0800 
 32 H        2.8690    -2.7630     0.3380 H     1 <1>   0.0800 
 33 H       -2.7940    -5.3220    -0.1250 H     1 <1>   0.0800 
 34 H       -2.7640    -5.2040    -1.8610 H     1 <1>   0.0800 
 35 H       -5.4170    -2.6920     0.2990 H     1 <1>   0.0800 
 36 H       -4.4100    -3.8000     1.1830 H     1 <1>   0.0800 
 37 H       -7.0850    -3.8280    -2.7330 H     1 <1>   0.0800 
 38 H       -6.4230    -2.4860    -1.8110 H     1 <1>   0.0800 
 39 H       -8.5080    -4.4720     1.4280 H     1 <1>   0.1500 
 40 H       -8.7340    -2.2140    -2.1850 H     1 <1>   0.1500 
 41 H      -10.8580    -1.2680    -1.4630 H     1 <1>   0.1500 
 42 H      -11.8320    -1.9020     0.6940 H     1 <1>   0.1500 
 43 H      -10.1070    -4.0530     3.1940 H     1 <1>   0.0800 
 44 H      -11.6310    -4.3450     2.3870 H     1 <1>   0.0800 
 45 H      -11.2670    -2.7600     3.0330 H     1 <1>   0.0800 
@<TRIPOS>BOND
  1   1   2  2   
  2   2   3  1   
  3   2   4  1   
  4   3   5  1   
  5   4   6  1   
  6   4   7  1   
  7   4  23  1   
  8   5   8  1   
  9   5  24  1   
 10   5  25  1   
 11   6   9  1   
 12   6  26  1   
 13   6  27  1   
 14   7  10  1   
 15   7  28  1   
 16   7  29  1   
 17   8  30  1   
 18   8  31  1   
 19   8  32  1   
 20   9  11  1   
 21   9  33  1   
 22   9  34  1   
 23  10  11  1   
 24  10  35  1   
 25  10  36  1   
 26  11  12  am  
 27  12  13  2   
 28  12  14  1   
 29  14  15  1   
 30  14  37  1   
 31  14  38  1   
 32  15  16  1   
 33  16  17  ar  
 34  16  18  ar  
 35  17  19  ar  
 36  17  39  1   
 37  18  20  ar  
 38  18  40  1   
 39  19  21  ar  
 40  19  22  1   
 41  20  21  ar  
 42  20  41  1   
 43  21  42  1   
 44  22  43  1   
 45  22  44  1   
 46  22  45  1   
@<TRIPOS>SUBSTRUCTURE
  1 ****  10 GROUP 4 **** **** 0

# MOE 2024.06 (io_trps.svl 2023.06)
