@<TRIPOS>MOLECULE
N-tert-Butyl-2-(2-phenylmethanesulfonyl-benzoimidazol-1-yl)-acetamide
50 52 1 0 0 
SMALL
USER_CHARGES


@<TRIPOS>ATOM
  1 S       -0.7040     0.7100     1.1680 S.o2  1 <1>   1.2570 
  2 O       -0.0690    -0.3950     1.8620 O.2   1 <1>  -0.6500 
  3 O       -0.9720     1.9050     1.9410 O.2   1 <1>  -0.6500 
  4 C       -2.2520     0.1340     0.3740 C.2   1 <1>   0.1240 
  5 C        0.2430     1.1580    -0.2940 C.3   1 <1>   0.0890 
  6 N       -3.0770     0.8980    -0.2760 N.2   1 <1>  -0.5650 
  7 N       -2.6470    -1.1800     0.3710 N.pl3 1 <1>   0.0480 
  8 C        1.6960     1.5440    -0.0350 C.ar  1 <1>  -0.1440 
  9 C       -4.0630     0.0770    -0.7150 C.ar  1 <1>   0.2270 
 10 C       -3.8160    -1.2230    -0.3280 C.ar  1 <1>  -0.1520 
 11 C       -1.9540    -2.3800     0.9070 C.3   1 <1>   0.1570 
 12 C        2.0170     2.5670     0.8460 C.ar  1 <1>  -0.1500 
 13 C        2.7160     0.8740    -0.6950 C.ar  1 <1>  -0.1500 
 14 C       -5.2010     0.3890    -1.4570 C.ar  1 <1>  -0.1500 
 15 C       -4.6980    -2.2510    -0.6800 C.ar  1 <1>  -0.1500 
 16 C       -0.6610    -2.6890     0.1640 C.2   1 <1>   0.5690 
 17 C        3.3400     2.9060     1.0710 C.ar  1 <1>  -0.1500 
 18 C        4.0380     1.2130    -0.4700 C.ar  1 <1>  -0.1500 
 19 C       -6.0740    -0.6170    -1.8030 C.ar  1 <1>  -0.1500 
 20 C       -5.8200    -1.9380    -1.4140 C.ar  1 <1>  -0.1500 
 21 O       -0.4260    -2.1200    -0.8780 O.2   1 <1>  -0.5700 
 22 N        0.1930    -3.5900     0.7230 N.am  1 <1>  -0.7300 
 23 C        4.3520     2.2290     0.4140 C.ar  1 <1>  -0.1500 
 24 C        1.5340    -3.9790     0.2750 C.3   1 <1>   0.3000 
 25 C        2.4420    -2.7500     0.2420 C.3   1 <1>  -0.2400 
 26 C        2.0620    -4.9750     1.3050 C.3   1 <1>  -0.2400 
 27 C        1.4490    -4.6520    -1.0950 C.3   1 <1>  -0.2400 
 28 H       -0.2430     1.9820    -0.7800 H     1 <1>   0.0800 
 29 H        0.2250     0.3360    -0.9810 H     1 <1>   0.0800 
 30 H       -2.6030    -3.2290     0.8250 H     1 <1>   0.0800 
 31 H       -1.7420    -2.2220     1.9470 H     1 <1>   0.0800 
 32 H        1.2440     3.1080     1.3660 H     1 <1>   0.1500 
 33 H        2.4880     0.0840    -1.3900 H     1 <1>   0.1500 
 34 H       -5.3680     1.4120    -1.7420 H     1 <1>   0.1500 
 35 H       -4.5070    -3.2680    -0.3880 H     1 <1>   0.1500 
 36 H        3.5800     3.6980     1.7590 H     1 <1>   0.1500 
 37 H        4.8240     0.6860    -0.9840 H     1 <1>   0.1500 
 38 H       -6.9580    -0.3970    -2.3760 H     1 <1>   0.1500 
 39 H       -6.5160    -2.7090    -1.6990 H     1 <1>   0.1500 
 40 H       -0.0120    -3.9500     1.6540 H     1 <1>   0.3700 
 41 H        5.3790     2.4930     0.5910 H     1 <1>   0.1500 
 42 H        2.4270    -2.2400     1.1890 H     1 <1>   0.0800 
 43 H        2.1220    -2.0690    -0.5240 H     1 <1>   0.0800 
 44 H        3.4530    -3.0390     0.0240 H     1 <1>   0.0800 
 45 H        2.1260    -4.5180     2.2770 H     1 <1>   0.0800 
 46 H        3.0480    -5.3030     1.0270 H     1 <1>   0.0800 
 47 H        1.4260    -5.8400     1.3580 H     1 <1>   0.0800 
 48 H        1.1070    -3.9570    -1.8400 H     1 <1>   0.0800 
 49 H        0.7760    -5.4890    -1.0630 H     1 <1>   0.0800 
 50 H        2.4190    -5.0050    -1.3940 H     1 <1>   0.0800 
@<TRIPOS>BOND
  1   1   2  2   
  2   1   3  2   
  3   1   4  1   
  4   1   5  1   
  5   4   6  2   
  6   4   7  1   
  7   5   8  1   
  8   5  28  1   
  9   5  29  1   
 10   6   9  1   
 11   7  10  1   
 12   7  11  1   
 13   8  12  ar  
 14   8  13  ar  
 15   9  10  ar  
 16   9  14  ar  
 17  10  15  ar  
 18  11  16  1   
 19  11  30  1   
 20  11  31  1   
 21  12  17  ar  
 22  12  32  1   
 23  13  18  ar  
 24  13  33  1   
 25  14  19  ar  
 26  14  34  1   
 27  15  20  ar  
 28  15  35  1   
 29  16  21  2   
 30  16  22  am  
 31  17  23  ar  
 32  17  36  1   
 33  18  23  ar  
 34  18  37  1   
 35  19  20  ar  
 36  19  38  1   
 37  20  39  1   
 38  22  24  1   
 39  22  40  1   
 40  23  41  1   
 41  24  25  1   
 42  24  26  1   
 43  24  27  1   
 44  25  42  1   
 45  25  43  1   
 46  25  44  1   
 47  26  45  1   
 48  26  46  1   
 49  26  47  1   
 50  27  48  1   
 51  27  49  1   
 52  27  50  1   
@<TRIPOS>SUBSTRUCTURE
  1 ****  21 GROUP 4 **** **** 0

# MOE 2024.06 (io_trps.svl 2023.06)
