@<TRIPOS>MOLECULE
8-(4-Methoxy-benzyl)-1,6,7-trimethyl-3-propyl-1H,8H-imidazo[2,1-f]purine-2,4-dio
55 58 1 0 0 
SMALL
USER_CHARGES


@<TRIPOS>ATOM
  1 O        3.5420     0.5920     2.3490 O.2   1 <1>  -0.5740 
  2 C        3.9520     1.3300     1.4760 C.2   1 <1>   0.6870 
  3 N        3.1290     2.3220     0.9490 N.am  1 <1>  -0.4250 
  4 N        5.2480     1.1770     1.0000 N.am  1 <1>  -0.4410 
  5 C        3.5700     3.1660    -0.0630 C.2   1 <1>   0.7000 
  6 C        1.7320     2.4590     1.4590 C.3   1 <1>   0.1340 
  7 C        5.6680     2.0100    -0.0140 C.2   1 <1>   0.4210 
  8 C        6.1480     0.1100     1.5360 C.3   1 <1>   0.0530 
  9 O        2.8430     4.0370    -0.5140 O.2   1 <1>  -0.5740 
 10 C        4.8960     2.9820    -0.5560 C.2   1 <1>   0.2710 
 11 C        0.7820     1.5870     0.6310 C.3   1 <1>  -0.1660 
 12 N        6.8790     2.0070    -0.6300 N.pl3 1 <1>  -0.7030 
 13 N        5.6820     3.6000    -1.5500 N.pl3 1 <1>  -0.6330 
 14 C       -0.6590     1.7080     1.1360 C.3   1 <1>  -0.2460 
 15 C        6.8530     2.9770    -1.5500 C.cat 1 <1>   1.0690 
 16 C        5.7480     4.5730    -2.5260 C.2   1 <1>   0.2350 
 17 N        7.6890     3.4860    -2.4690 N.pl3 1 <1>  -0.5710 
 18 C        6.9800     4.5030    -3.0890 C.2   1 <1>   0.1580 
 19 C        4.5620     5.4790    -2.7940 C.3   1 <1>  -0.1090 
 20 C        9.0860     3.0570    -2.7680 C.3   1 <1>   0.3060 
 21 C        7.5940     5.3310    -4.2050 C.3   1 <1>  -0.1090 
 22 C        9.4760     1.9440    -1.8120 C.ar  1 <1>  -0.1500 
 23 C       10.0270     2.2490    -0.5750 C.ar  1 <1>  -0.1570 
 24 C        9.1950     0.6240    -2.1300 C.ar  1 <1>  -0.1570 
 25 C       10.2480     1.2500     0.3560 C.ar  1 <1>  -0.1570 
 26 C        9.4110    -0.3730    -1.1980 C.ar  1 <1>  -0.1570 
 27 C        9.9210    -0.0680     0.0530 C.ar  1 <1>   0.0760 
 28 O       10.0620    -1.0950     0.9210 O.3   1 <1>  -0.3680 
 29 C       10.8180    -0.9560     2.1050 C.3   1 <1>   0.0330 
 30 H        1.4190     3.4880     1.4070 H     1 <1>   0.0730 
 31 H        1.6870     2.1630     2.4940 H     1 <1>   0.0730 
 32 H        5.8380    -0.1880     2.5230 H     1 <1>   0.0730 
 33 H        7.1610     0.4680     1.6000 H     1 <1>   0.0730 
 34 H        6.1160    -0.7510     0.8910 H     1 <1>   0.0730 
 35 H        1.0880     0.5570     0.6990 H     1 <1>   0.0730 
 36 H        0.8150     1.8920    -0.4010 H     1 <1>   0.0730 
 37 H        7.6990     1.4080    -0.4790 H     1 <1>   0.4450 
 38 H       -0.7280     1.3890     2.1610 H     1 <1>   0.0730 
 39 H       -1.3090     1.0880     0.5430 H     1 <1>   0.0730 
 40 H       -1.0010     2.7260     1.0630 H     1 <1>   0.0730 
 41 H        4.3120     6.0300    -1.9050 H     1 <1>   0.0730 
 42 H        3.7080     4.8910    -3.0820 H     1 <1>   0.0730 
 43 H        4.7770     6.1770    -3.5810 H     1 <1>   0.0730 
 44 H        9.1480     2.7090    -3.7860 H     1 <1>   0.0730 
 45 H        9.7550     3.8930    -2.6530 H     1 <1>   0.0730 
 46 H        7.8710     4.6980    -5.0290 H     1 <1>   0.0730 
 47 H        8.4710     5.8430    -3.8490 H     1 <1>   0.0730 
 48 H        6.8980     6.0670    -4.5650 H     1 <1>   0.0730 
 49 H       10.2770     3.2660    -0.3200 H     1 <1>   0.1430 
 50 H        8.7940     0.3600    -3.0960 H     1 <1>   0.1430 
 51 H       10.6710     1.5110     1.3090 H     1 <1>   0.1430 
 52 H        9.1890    -1.4010    -1.4330 H     1 <1>   0.1430 
 53 H       10.3250    -0.2600     2.7590 H     1 <1>   0.0730 
 54 H       11.8060    -0.6120     1.8510 H     1 <1>   0.0730 
 55 H       10.8790    -1.9200     2.5780 H     1 <1>   0.0730 
@<TRIPOS>BOND
  1   1   2  2   
  2   2   3  am  
  3   2   4  am  
  4   3   5  am  
  5   3   6  1   
  6   4   7  1   
  7   4   8  1   
  8   5   9  2   
  9   5  10  1   
 10   6  11  1   
 11   6  30  1   
 12   6  31  1   
 13   7  10  2   
 14   7  12  1   
 15   8  32  1   
 16   8  33  1   
 17   8  34  1   
 18  10  13  1   
 19  11  14  1   
 20  11  35  1   
 21  11  36  1   
 22  12  15  ar  
 23  12  37  1   
 24  13  15  ar  
 25  13  16  1   
 26  14  38  1   
 27  14  39  1   
 28  14  40  1   
 29  15  17  ar  
 30  16  18  2   
 31  16  19  1   
 32  17  18  1   
 33  17  20  1   
 34  18  21  1   
 35  19  41  1   
 36  19  42  1   
 37  19  43  1   
 38  20  22  1   
 39  20  44  1   
 40  20  45  1   
 41  21  46  1   
 42  21  47  1   
 43  21  48  1   
 44  22  23  ar  
 45  22  24  ar  
 46  23  25  ar  
 47  23  49  1   
 48  24  26  ar  
 49  24  50  1   
 50  25  27  ar  
 51  25  51  1   
 52  26  27  ar  
 53  26  52  1   
 54  27  28  1   
 55  28  29  1   
 56  29  53  1   
 57  29  54  1   
 58  29  55  1   
@<TRIPOS>SUBSTRUCTURE
  1 ****  12 GROUP 4 **** **** 0

# MOE 2024.06 (io_trps.svl 2023.06)
