@<TRIPOS>MOLECULE
1,7-Dimethyl-8-(tetrahydro-furan-2-ylmethyl)-1H,8H-imidazo[2,1-f]purine-2,4-dion
40 43 1 0 0 
SMALL
USER_CHARGES


@<TRIPOS>ATOM
  1 O        2.0530    -1.1780     0.1370 O.2   1 <1>  -0.5760 
  2 C        2.7180    -0.1690     0.1460 C.2   1 <1>   0.6850 
  3 N        4.0910    -0.1880     0.3560 N.am  1 <1>  -0.4430 
  4 N        2.0900     1.0260    -0.0640 N.am  1 <1>  -0.4970 
  5 C        4.7650     1.0220     0.3300 C.2   1 <1>   0.4190 
  6 C        4.8200    -1.4670     0.5940 C.3   1 <1>   0.0500 
  7 C        2.7370     2.2300    -0.0970 C.2   1 <1>   0.6980 
  8 N        6.1000     1.2380     0.4930 N.pl3 1 <1>  -0.7050 
  9 C        4.1490     2.2130     0.1080 C.2   1 <1>   0.2690 
 10 O        2.0940     3.2410    -0.2990 O.2   1 <1>  -0.5760 
 11 C        6.3000     2.5470     0.3510 C.cat 1 <1>   1.0680 
 12 N        5.1590     3.1880     0.1250 N.pl3 1 <1>  -0.6340 
 13 N        7.3470     3.3840     0.3680 N.pl3 1 <1>  -0.5730 
 14 C        5.4750     4.5240    -0.0190 C.2   1 <1>   0.2200 
 15 C        6.8140     4.6440     0.1320 C.2   1 <1>   0.1560 
 16 C        8.7700     3.0380     0.6790 C.3   1 <1>   0.1580 
 17 C        7.6670     5.8980     0.0700 C.3   1 <1>  -0.1120 
 18 C        9.3580     1.9480    -0.2390 C.3   1 <1>   0.1910 
 19 O        8.6680     0.7440    -0.1000 O.3   1 <1>  -0.5660 
 20 C       10.7990     1.5910     0.0960 C.3   1 <1>  -0.1690 
 21 C        9.4690    -0.3080    -0.5470 C.3   1 <1>   0.1100 
 22 C       10.9140     0.1470    -0.3640 C.3   1 <1>  -0.1690 
 23 H        1.0830     1.0070    -0.2130 H     1 <1>   0.3620 
 24 H        4.1310    -2.2590     0.8340 H     1 <1>   0.0700 
 25 H        5.5050    -1.3550     1.4150 H     1 <1>   0.0700 
 26 H        5.3660    -1.7430    -0.2920 H     1 <1>   0.0700 
 27 H        6.9070     0.5990     0.4730 H     1 <1>   0.4430 
 28 H        4.7280     5.2780    -0.2150 H     1 <1>   0.1410 
 29 H        8.8370     2.7090     1.7020 H     1 <1>   0.0700 
 30 H        9.3800     3.9180     0.5850 H     1 <1>   0.0700 
 31 H        7.0540     6.7590    -0.1300 H     1 <1>   0.0700 
 32 H        8.1730     6.0510     1.0060 H     1 <1>   0.0700 
 33 H        8.3980     5.8120    -0.7140 H     1 <1>   0.0700 
 34 H        9.2920     2.2500    -1.2720 H     1 <1>   0.0700 
 35 H       10.9620     1.6490     1.1590 H     1 <1>   0.0700 
 36 H       11.5000     2.2360    -0.4040 H     1 <1>   0.0700 
 37 H        9.2500    -0.4830    -1.5870 H     1 <1>   0.0700 
 38 H        9.2470    -1.1880     0.0320 H     1 <1>   0.0700 
 39 H       11.4230    -0.4590     0.3650 H     1 <1>   0.0700 
 40 H       11.4390     0.0770    -1.3010 H     1 <1>   0.0700 
@<TRIPOS>BOND
  1   1   2  2   
  2   2   3  am  
  3   2   4  am  
  4   3   5  1   
  5   3   6  1   
  6   4   7  am  
  7   4  23  1   
  8   5   8  1   
  9   5   9  2   
 10   6  24  1   
 11   6  25  1   
 12   6  26  1   
 13   7   9  1   
 14   7  10  2   
 15   8  11  ar  
 16   8  27  1   
 17   9  12  1   
 18  11  12  ar  
 19  11  13  ar  
 20  12  14  1   
 21  13  15  1   
 22  13  16  1   
 23  14  15  2   
 24  14  28  1   
 25  15  17  1   
 26  16  18  1   
 27  16  29  1   
 28  16  30  1   
 29  17  31  1   
 30  17  32  1   
 31  17  33  1   
 32  18  19  1   
 33  18  20  1   
 34  18  34  1   
 35  19  21  1   
 36  20  22  1   
 37  20  35  1   
 38  20  36  1   
 39  21  22  1   
 40  21  37  1   
 41  21  38  1   
 42  22  39  1   
 43  22  40  1   
@<TRIPOS>SUBSTRUCTURE
  1 ****   8 GROUP 4 **** **** 0

# MOE 2024.06 (io_trps.svl 2023.06)
