@<TRIPOS>MOLECULE
2-[(8,8-Dimethyl-8,9-dihydro-6H-7-oxa-11-thia-2,4,10-triaza-benzo[b]fluoren-1-yl
47 50 1 0 0 
SMALL
USER_CHARGES


@<TRIPOS>ATOM
  1 S       -0.2920    -0.5280     0.1410 S.3   1 <1>  -0.0800 
  2 C       -1.8270     0.3350    -0.0120 C.ar  1 <1>   0.2970 
  3 C        0.6270     0.9950     0.1820 C.ar  1 <1>   0.0400 
  4 N       -2.9770    -0.3080    -0.0870 N.ar  1 <1>  -0.5670 
  5 C       -1.6100     1.7050    -0.0340 C.ar  1 <1>   0.0000 
  6 C        1.9950     1.1930     0.2910 C.ar  1 <1>   0.4100 
  7 C       -0.2200     2.0660     0.0740 C.ar  1 <1>   0.2560 
  8 C       -4.0230     0.4960    -0.1990 C.ar  1 <1>   0.1660 
  9 C       -2.7250     2.5160    -0.1500 C.ar  1 <1>  -0.1500 
 10 N        2.4640     2.4290     0.2830 N.ar  1 <1>  -0.6200 
 11 N        2.8980     0.1530     0.4130 N.pl3 1 <1>  -0.8380 
 12 N        0.2520     3.3100     0.0720 N.ar  1 <1>  -0.5660 
 13 C       -3.9540     1.8900    -0.2330 C.ar  1 <1>  -0.1430 
 14 C       -5.3740    -0.1810    -0.3090 C.3   1 <1>  -0.0170 
 15 C        1.5660     3.4010     0.1750 C.ar  1 <1>   0.4700 
 16 C        2.7910    -0.7790     1.5780 C.3   1 <1>   0.2090 
 17 C        4.2470     0.2430    -0.2080 C.3   1 <1>   0.2090 
 18 C       -5.2180     2.7330    -0.3440 C.3   1 <1>   0.2630 
 19 C       -6.5340     0.7680     0.0280 C.3   1 <1>   0.2800 
 20 C        2.7120    -2.2550     1.1480 C.3   1 <1>   0.1200 
 21 C        4.1370    -0.1910    -1.6640 C.3   1 <1>  -0.2400 
 22 O       -6.3450     1.9650    -0.6600 O.3   1 <1>  -0.5600 
 23 C       -6.6600     1.0400     1.5360 C.3   1 <1>  -0.2400 
 24 C       -7.8570     0.2010    -0.4910 C.3   1 <1>  -0.2400 
 25 O        3.9660    -2.7460     0.7890 O.3   1 <1>  -0.6800 
 26 H       -2.6160     3.5870    -0.1710 H     1 <1>   0.1500 
 27 H       -5.4050    -1.0330     0.3450 H     1 <1>   0.0800 
 28 H       -5.4810    -0.5420    -1.3160 H     1 <1>   0.0800 
 29 H        1.9680     4.4000     0.1710 H     1 <1>   0.1500 
 30 H        1.9010    -0.5400     2.1330 H     1 <1>   0.0800 
 31 H        3.6270    -0.6390     2.2410 H     1 <1>   0.0800 
 32 H        4.9410    -0.3960     0.3100 H     1 <1>   0.0800 
 33 H        4.6230     1.2500    -0.1510 H     1 <1>   0.0800 
 34 H       -5.1060     3.4660    -1.1240 H     1 <1>   0.0800 
 35 H       -5.4090     3.2480     0.5810 H     1 <1>   0.0800 
 36 H        2.0470    -2.3580     0.3090 H     1 <1>   0.0800 
 37 H        2.3510    -2.8530     1.9650 H     1 <1>   0.0800 
 38 H        3.7710    -1.1990    -1.7190 H     1 <1>   0.0800 
 39 H        5.1050    -0.1470    -2.1290 H     1 <1>   0.0800 
 40 H        3.4690     0.4640    -2.1930 H     1 <1>   0.0800 
 41 H       -5.7250     1.3560     1.9620 H     1 <1>   0.0800 
 42 H       -6.9550     0.1400     2.0450 H     1 <1>   0.0800 
 43 H       -7.4080     1.7900     1.7170 H     1 <1>   0.0800 
 44 H       -7.8090     0.0570    -1.5550 H     1 <1>   0.0800 
 45 H       -8.6630     0.8760    -0.2680 H     1 <1>   0.0800 
 46 H       -8.0660    -0.7460    -0.0270 H     1 <1>   0.0800 
 47 H        3.8840    -3.6310     0.3840 H     1 <1>   0.4000 
@<TRIPOS>BOND
  1   1   2  1   
  2   1   3  1   
  3   2   4  ar  
  4   2   5  ar  
  5   3   6  ar  
  6   3   7  ar  
  7   4   8  ar  
  8   5   7  1   
  9   5   9  ar  
 10   6  10  ar  
 11   6  11  1   
 12   7  12  ar  
 13   8  13  ar  
 14   8  14  1   
 15   9  13  ar  
 16   9  26  1   
 17  10  15  ar  
 18  11  16  1   
 19  11  17  1   
 20  12  15  ar  
 21  13  18  1   
 22  14  19  1   
 23  14  27  1   
 24  14  28  1   
 25  15  29  1   
 26  16  20  1   
 27  16  30  1   
 28  16  31  1   
 29  17  21  1   
 30  17  32  1   
 31  17  33  1   
 32  18  22  1   
 33  18  34  1   
 34  18  35  1   
 35  19  22  1   
 36  19  23  1   
 37  19  24  1   
 38  20  25  1   
 39  20  36  1   
 40  20  37  1   
 41  21  38  1   
 42  21  39  1   
 43  21  40  1   
 44  23  41  1   
 45  23  42  1   
 46  23  43  1   
 47  24  44  1   
 48  24  45  1   
 49  24  46  1   
 50  25  47  1   
@<TRIPOS>SUBSTRUCTURE
  1 ****   2 GROUP 4 **** **** 0

# MOE 2024.06 (io_trps.svl 2023.06)
