@<TRIPOS>MOLECULE
3-(4-Fluoro-benzoylamino)-4-(4-methyl-piperazin-1-yl)-benzoic acid methyl ester
50 52 1 0 0 
SMALL
USER_CHARGES


@<TRIPOS>ATOM
  1 F       -1.8750     0.1550    -1.7910 F     1 <1>  -0.1900 
  2 C       -2.3700    -0.9530    -1.3150 C.ar  1 <1>   0.1900 
  3 C       -2.8340    -0.9760    -0.0150 C.ar  1 <1>  -0.1500 
  4 C       -2.4120    -2.0700    -2.1270 C.ar  1 <1>  -0.1500 
  5 C       -3.3590    -2.1570     0.4800 C.ar  1 <1>  -0.1500 
  6 C       -2.9400    -3.2430    -1.6160 C.ar  1 <1>  -0.1500 
  7 C       -3.4300    -3.3140    -0.3050 C.ar  1 <1>   0.0860 
  8 C       -3.9900    -4.5390     0.2340 C.2   1 <1>   0.5440 
  9 O       -3.8830    -4.7950     1.4180 O.2   1 <1>  -0.5700 
 10 N       -4.6540    -5.4080    -0.5930 N.am  1 <1>  -0.5470 
 11 C       -5.2260    -6.6540    -0.2760 C.ar  1 <1>   0.1170 
 12 C       -4.4520    -7.8150    -0.0840 C.ar  1 <1>   0.1000 
 13 C       -6.6040    -6.7330    -0.1930 C.ar  1 <1>  -0.1500 
 14 N       -3.0560    -7.8040    -0.1370 N.pl3 1 <1>  -0.8380 
 15 C       -5.1120    -9.0080     0.1800 C.ar  1 <1>  -0.1500 
 16 C       -7.2780    -7.9270     0.0730 C.ar  1 <1>   0.0860 
 17 C       -2.3230    -7.3420     1.0820 C.3   1 <1>   0.2090 
 18 C       -2.3160    -8.6380    -1.1300 C.3   1 <1>   0.2090 
 19 C       -6.4890    -9.0640     0.2570 C.ar  1 <1>  -0.1500 
 20 C       -8.7240    -7.9670     0.1480 C.2   1 <1>   0.6340 
 21 C       -1.4320    -8.4450     1.6840 C.3   1 <1>   0.3430 
 22 C       -1.4260    -9.7000    -0.4470 C.3   1 <1>   0.3430 
 23 O       -9.4290    -7.0030    -0.0770 O.2   1 <1>  -0.5700 
 24 O       -9.3070    -9.1260     0.4760 O.3   1 <1>  -0.4300 
 25 N       -0.5660    -9.1240     0.6510 N.4   1 <1>  -0.9590 
 26 C      -10.7120    -9.2490     0.5740 C.3   1 <1>   0.0400 
 27 C        0.3030   -10.1670     1.2730 C.3   1 <1>   0.2630 
 28 H       -2.7840    -0.0890     0.5910 H     1 <1>   0.1500 
 29 H       -2.0370    -2.0140    -3.1330 H     1 <1>   0.1500 
 30 H       -3.7230    -2.1930     1.4930 H     1 <1>   0.1500 
 31 H       -2.9620    -4.1170    -2.2430 H     1 <1>   0.1500 
 32 H       -4.8790    -5.0540    -1.5200 H     1 <1>   0.3700 
 33 H       -7.1850    -5.8380    -0.3340 H     1 <1>   0.1500 
 34 H       -4.5410    -9.9030     0.3340 H     1 <1>   0.1500 
 35 H       -3.0330    -7.0370     1.8330 H     1 <1>   0.0800 
 36 H       -1.7270    -6.4820     0.8320 H     1 <1>   0.0800 
 37 H       -1.7040    -7.9920    -1.7350 H     1 <1>   0.0800 
 38 H       -3.0170    -9.1250    -1.7860 H     1 <1>   0.0800 
 39 H       -6.9650   -10.0080     0.4650 H     1 <1>   0.1500 
 40 H       -2.0760    -9.1740     2.1490 H     1 <1>   0.0800 
 41 H       -0.8170    -8.0110     2.4550 H     1 <1>   0.0800 
 42 H       -0.8040   -10.1650    -1.1940 H     1 <1>   0.0800 
 43 H       -2.0690   -10.4600    -0.0360 H     1 <1>   0.0800 
 44 H        0.0270    -8.3950     0.2290 H     1 <1>   0.4500 
 45 H      -10.9480   -10.2610     0.8490 H     1 <1>   0.0800 
 46 H      -11.1500    -9.0120    -0.3810 H     1 <1>   0.0800 
 47 H      -11.0700    -8.5670     1.3260 H     1 <1>   0.0800 
 48 H       -0.3000   -10.9370     1.7260 H     1 <1>   0.0800 
 49 H        0.9280    -9.7280     2.0340 H     1 <1>   0.0800 
 50 H        0.9380   -10.6190     0.5280 H     1 <1>   0.0800 
@<TRIPOS>BOND
  1   1   2  1   
  2   2   3  ar  
  3   2   4  ar  
  4   3   5  ar  
  5   3  28  1   
  6   4   6  ar  
  7   4  29  1   
  8   5   7  ar  
  9   5  30  1   
 10   6   7  ar  
 11   6  31  1   
 12   7   8  1   
 13   8   9  2   
 14   8  10  am  
 15  10  11  1   
 16  10  32  1   
 17  11  12  ar  
 18  11  13  ar  
 19  12  14  1   
 20  12  15  ar  
 21  13  16  ar  
 22  13  33  1   
 23  14  17  1   
 24  14  18  1   
 25  15  19  ar  
 26  15  34  1   
 27  16  19  ar  
 28  16  20  1   
 29  17  21  1   
 30  17  35  1   
 31  17  36  1   
 32  18  22  1   
 33  18  37  1   
 34  18  38  1   
 35  19  39  1   
 36  20  23  2   
 37  20  24  1   
 38  21  25  1   
 39  21  40  1   
 40  21  41  1   
 41  22  25  1   
 42  22  42  1   
 43  22  43  1   
 44  24  26  1   
 45  25  27  1   
 46  25  44  1   
 47  26  45  1   
 48  26  46  1   
 49  26  47  1   
 50  27  48  1   
 51  27  49  1   
 52  27  50  1   
@<TRIPOS>SUBSTRUCTURE
  1 ****  11 GROUP 4 **** **** 0

# MOE 2024.06 (io_trps.svl 2023.06)
