@<TRIPOS>MOLECULE
3-(2-Fluoro-benzyl)-8-(3-methoxy-propyl)-1,6,7-trimethyl-1H,8H-imidazo[2,1-f]pur
55 58 1 0 0 
SMALL
USER_CHARGES


@<TRIPOS>ATOM
  1 F        1.7720    -1.5360     0.5990 F     1 <1>  -0.1960 
  2 C        1.0580    -2.6290     0.6220 C.ar  1 <1>   0.1840 
  3 C        0.9310    -3.3880    -0.5330 C.ar  1 <1>  -0.1500 
  4 C        0.4630    -2.9860     1.8180 C.ar  1 <1>  -0.1570 
  5 C        0.1780    -4.5510    -0.4610 C.ar  1 <1>  -0.1570 
  6 C        1.5920    -2.9770    -1.8420 C.3   1 <1>   0.2780 
  7 C       -0.2860    -4.1480     1.8680 C.ar  1 <1>  -0.1570 
  8 C       -0.4250    -4.9270     0.7300 C.ar  1 <1>  -0.1570 
  9 N        3.0340    -3.3380    -1.8050 N.am  1 <1>  -0.4250 
 10 C        3.3860    -4.6770    -1.8830 C.2   1 <1>   0.6870 
 11 C        3.9770    -2.3590    -1.5360 C.2   1 <1>   0.7000 
 12 O        2.6040    -5.4890    -2.3340 O.2   1 <1>  -0.5740 
 13 N        4.6480    -5.0850    -1.4690 N.am  1 <1>  -0.4410 
 14 O        3.7150    -1.1790    -1.6920 O.2   1 <1>  -0.5740 
 15 C        5.2680    -2.7870    -1.1070 C.2   1 <1>   0.2710 
 16 C        5.5520    -4.1130    -1.0930 C.2   1 <1>   0.4210 
 17 C        5.0210    -6.5290    -1.4510 C.3   1 <1>   0.0530 
 18 N        6.4280    -2.1320    -0.6550 N.pl3 1 <1>  -0.6330 
 19 N        6.8310    -4.2900    -0.6630 N.pl3 1 <1>  -0.7030 
 20 C        7.3200    -3.0800    -0.4030 C.cat 1 <1>   1.0690 
 21 C        7.0200    -0.9320    -0.3260 C.2   1 <1>   0.2350 
 22 N        8.4680    -2.5780     0.0640 N.pl3 1 <1>  -0.5710 
 23 C        8.2740    -1.2040     0.1140 C.2   1 <1>   0.1580 
 24 C        6.2600     0.3690    -0.4870 C.3   1 <1>  -0.1090 
 25 C        9.6890    -3.3510     0.4180 C.3   1 <1>   0.1610 
 26 C        9.3580    -0.2590     0.6030 C.3   1 <1>  -0.1090 
 27 C        9.4230    -4.3080     1.5900 C.3   1 <1>  -0.1670 
 28 C        9.5730    -5.7840     1.2060 C.3   1 <1>   0.1130 
 29 O        8.7010    -6.0820     0.1610 O.3   1 <1>  -0.5640 
 30 C        8.8200    -7.4000    -0.2830 C.3   1 <1>   0.0330 
 31 H        0.5850    -2.3660     2.6880 H     1 <1>   0.1430 
 32 H        0.0600    -5.1770    -1.3300 H     1 <1>   0.1430 
 33 H        1.4610    -1.9190    -1.9980 H     1 <1>   0.0730 
 34 H        1.1190    -3.4810    -2.6670 H     1 <1>   0.0730 
 35 H       -0.7600    -4.4470     2.7870 H     1 <1>   0.1430 
 36 H       -1.0070    -5.8320     0.7710 H     1 <1>   0.1430 
 37 H        4.1400    -7.1460    -1.3930 H     1 <1>   0.0730 
 38 H        5.6370    -6.7450    -0.5960 H     1 <1>   0.0730 
 39 H        5.5570    -6.7760    -2.3510 H     1 <1>   0.0730 
 40 H        7.3730    -5.1440    -0.4630 H     1 <1>   0.4450 
 41 H        5.9800     0.5060    -1.5160 H     1 <1>   0.0730 
 42 H        6.8560     1.2080    -0.1800 H     1 <1>   0.0730 
 43 H        5.3650     0.3480     0.1100 H     1 <1>   0.0730 
 44 H       10.4790    -2.6730     0.6900 H     1 <1>   0.0730 
 45 H       10.0220    -3.8990    -0.4480 H     1 <1>   0.0730 
 46 H        9.6340    -0.5040     1.6140 H     1 <1>   0.0730 
 47 H        9.0180     0.7600     0.5840 H     1 <1>   0.0730 
 48 H       10.2280    -0.3370    -0.0250 H     1 <1>   0.0730 
 49 H        8.4560    -4.1440     2.0310 H     1 <1>   0.0730 
 50 H       10.1510    -4.1060     2.3570 H     1 <1>   0.0730 
 51 H        9.3350    -6.4160     2.0470 H     1 <1>   0.0730 
 52 H       10.5810    -5.9860     0.8840 H     1 <1>   0.0730 
 53 H        8.1290    -7.5550    -1.0920 H     1 <1>   0.0730 
 54 H        8.5860    -8.0720     0.5260 H     1 <1>   0.0730 
 55 H        9.8240    -7.5710    -0.6310 H     1 <1>   0.0730 
@<TRIPOS>BOND
  1   1   2  1   
  2   2   3  ar  
  3   2   4  ar  
  4   3   5  ar  
  5   3   6  1   
  6   4   7  ar  
  7   4  31  1   
  8   5   8  ar  
  9   5  32  1   
 10   6   9  1   
 11   6  33  1   
 12   6  34  1   
 13   7   8  ar  
 14   7  35  1   
 15   8  36  1   
 16   9  10  am  
 17   9  11  am  
 18  10  12  2   
 19  10  13  am  
 20  11  14  2   
 21  11  15  1   
 22  13  16  1   
 23  13  17  1   
 24  15  16  2   
 25  15  18  1   
 26  16  19  1   
 27  17  37  1   
 28  17  38  1   
 29  17  39  1   
 30  18  20  ar  
 31  18  21  1   
 32  19  20  ar  
 33  19  40  1   
 34  20  22  ar  
 35  21  23  2   
 36  21  24  1   
 37  22  23  1   
 38  22  25  1   
 39  23  26  1   
 40  24  41  1   
 41  24  42  1   
 42  24  43  1   
 43  25  27  1   
 44  25  44  1   
 45  25  45  1   
 46  26  46  1   
 47  26  47  1   
 48  26  48  1   
 49  27  28  1   
 50  27  49  1   
 51  27  50  1   
 52  28  29  1   
 53  28  51  1   
 54  28  52  1   
 55  29  30  1   
 56  30  53  1   
 57  30  54  1   
 58  30  55  1   
@<TRIPOS>SUBSTRUCTURE
  1 ****  15 GROUP 4 **** **** 0

# MOE 2024.06 (io_trps.svl 2023.06)
