@<TRIPOS>MOLECULE
1-(2,5-Dimethoxy-benzenesulfonyl)-piperidine-4-carboxylic acid cyclopentylamide
55 57 1 0 0 
SMALL
USER_CHARGES


@<TRIPOS>ATOM
  1 S        0.1210    -0.3210    -1.3730 S.o2  1 <1>   1.4470 
  2 O        0.5810    -1.5280    -2.0280 O.2   1 <1>  -0.6500 
  3 O       -0.8250     0.5070    -2.0920 O.2   1 <1>  -0.6500 
  4 N        1.5040     0.6300    -1.1110 N.am  1 <1>  -0.8490 
  5 C       -0.4530    -0.7840     0.2850 C.ar  1 <1>  -0.0090 
  6 C        1.1690     1.9360    -0.5330 C.3   1 <1>   0.1960 
  7 C        2.2580     0.7900    -2.3580 C.3   1 <1>   0.1960 
  8 C       -1.3400     0.0010     1.0210 C.ar  1 <1>   0.0830 
  9 C        0.0080    -1.9580     0.8720 C.ar  1 <1>  -0.1500 
 10 C        2.4450     2.7050    -0.1890 C.3   1 <1>  -0.1600 
 11 C        3.5800     1.5110    -2.0890 C.3   1 <1>  -0.1600 
 12 O       -1.8000     1.1690     0.5260 O.3   1 <1>  -0.3620 
 13 C       -1.7510    -0.3750     2.2920 C.ar  1 <1>  -0.1500 
 14 C       -0.4040    -2.3490     2.1420 C.ar  1 <1>   0.0830 
 15 C        3.3450     2.8770    -1.4240 C.3   1 <1>  -0.0190 
 16 C       -3.1220     1.1620     0.0330 C.3   1 <1>   0.0400 
 17 C       -1.2850    -1.5500     2.8480 C.ar  1 <1>  -0.1500 
 18 O        0.0080    -3.4900     2.7530 O.3   1 <1>  -0.3630 
 19 C        4.6560     3.5750    -1.0800 C.2   1 <1>   0.5690 
 20 C        0.8340    -4.4190     2.0860 C.3   1 <1>   0.0400 
 21 O        4.9130     4.6310    -1.6050 O.2   1 <1>  -0.5700 
 22 N        5.4940     2.9850    -0.1920 N.am  1 <1>  -0.7300 
 23 C        6.7840     3.5220     0.2640 C.3   1 <1>   0.2200 
 24 C        7.8540     2.4600     0.0510 C.3   1 <1>  -0.1600 
 25 C        6.7360     3.6720     1.7790 C.3   1 <1>  -0.1600 
 26 C        7.7220     1.4930     1.2340 C.3   1 <1>  -0.1600 
 27 C        7.0080     2.2740     2.3460 C.3   1 <1>  -0.1600 
 28 H        0.6070     1.8010     0.3750 H     1 <1>   0.0800 
 29 H        0.5650     2.5050    -1.2220 H     1 <1>   0.0800 
 30 H        1.6690     1.3430    -3.0740 H     1 <1>   0.0800 
 31 H        2.4770    -0.1760    -2.7820 H     1 <1>   0.0800 
 32 H        0.6980    -2.5630     0.3140 H     1 <1>   0.1500 
 33 H        2.9660     2.1690     0.5850 H     1 <1>   0.0800 
 34 H        2.1830     3.6720     0.2010 H     1 <1>   0.0800 
 35 H        4.1040     1.6500    -3.0180 H     1 <1>   0.0800 
 36 H        4.1860     0.8850    -1.4590 H     1 <1>   0.0800 
 37 H       -2.4270     0.2540     2.8420 H     1 <1>   0.1500 
 38 H        2.8240     3.5040    -2.1280 H     1 <1>   0.0800 
 39 H       -3.3350     2.1360    -0.3690 H     1 <1>   0.0800 
 40 H       -3.8000     0.9360     0.8360 H     1 <1>   0.0800 
 41 H       -3.2000     0.4230    -0.7460 H     1 <1>   0.0800 
 42 H       -1.5990    -1.8530     3.8310 H     1 <1>   0.1500 
 43 H        0.9960    -5.2530     2.7440 H     1 <1>   0.0800 
 44 H        1.7730    -3.9490     1.8540 H     1 <1>   0.0800 
 45 H        0.3370    -4.7510     1.1920 H     1 <1>   0.0800 
 46 H        5.2390     2.0950     0.2310 H     1 <1>   0.3700 
 47 H        7.0140     4.4490    -0.2370 H     1 <1>   0.0800 
 48 H        8.8170     2.9360     0.0950 H     1 <1>   0.0800 
 49 H        7.7580     1.9710    -0.9030 H     1 <1>   0.0800 
 50 H        5.8020     4.0870     2.1170 H     1 <1>   0.0800 
 51 H        7.5320     4.3320     2.0790 H     1 <1>   0.0800 
 52 H        8.6890     1.1460     1.5550 H     1 <1>   0.0800 
 53 H        7.1260     0.6430     0.9480 H     1 <1>   0.0800 
 54 H        6.0780     1.7900     2.5900 H     1 <1>   0.0800 
 55 H        7.6120     2.3330     3.2350 H     1 <1>   0.0800 
@<TRIPOS>BOND
  1   1   2  2   
  2   1   3  2   
  3   1   4  am  
  4   1   5  1   
  5   4   6  1   
  6   4   7  1   
  7   5   8  ar  
  8   5   9  ar  
  9   6  10  1   
 10   6  28  1   
 11   6  29  1   
 12   7  11  1   
 13   7  30  1   
 14   7  31  1   
 15   8  12  1   
 16   8  13  ar  
 17   9  14  ar  
 18   9  32  1   
 19  10  15  1   
 20  10  33  1   
 21  10  34  1   
 22  11  15  1   
 23  11  35  1   
 24  11  36  1   
 25  12  16  1   
 26  13  17  ar  
 27  13  37  1   
 28  14  17  ar  
 29  14  18  1   
 30  15  19  1   
 31  15  38  1   
 32  16  39  1   
 33  16  40  1   
 34  16  41  1   
 35  17  42  1   
 36  18  20  1   
 37  19  21  2   
 38  19  22  am  
 39  20  43  1   
 40  20  44  1   
 41  20  45  1   
 42  22  23  1   
 43  22  46  1   
 44  23  24  1   
 45  23  25  1   
 46  23  47  1   
 47  24  26  1   
 48  24  48  1   
 49  24  49  1   
 50  25  27  1   
 51  25  50  1   
 52  25  51  1   
 53  26  27  1   
 54  26  52  1   
 55  26  53  1   
 56  27  54  1   
 57  27  55  1   
@<TRIPOS>SUBSTRUCTURE
  1 ****   4 GROUP 4 **** **** 0

# MOE 2024.06 (io_trps.svl 2023.06)
