@<TRIPOS>MOLECULE
3-Methyl-5-(3-oxo-1,3-dihydro-isobenzofuran-1-ylamino)-thiophene-2,4-dicarboxyli
46 48 1 0 0 
SMALL
USER_CHARGES


@<TRIPOS>ATOM
  1 S       -0.2050    -0.4000    -0.0460 S.3   1 <1>  -0.0800 
  2 C       -1.3400     0.6810    -0.8110 C.2   1 <1>   0.1240 
  3 C        0.9580     0.8850     0.2960 C.2   1 <1>  -0.0450 
  4 N       -2.5050     0.1560    -1.2830 N.pl3 1 <1>  -0.8530 
  5 C       -0.8500     1.9660    -0.8230 C.2   1 <1>  -0.0860 
  6 C        0.4340     2.0610    -0.1700 C.2   1 <1>  -0.1810 
  7 C        2.1670     0.4690     0.9580 C.2   1 <1>   0.8050 
  8 C       -2.9280    -1.2390    -1.2640 C.3   1 <1>   0.7130 
  9 C       -1.5560     3.0620    -1.4420 C.2   1 <1>   0.8060 
 10 C        1.1260     3.4140    -0.0100 C.3   1 <1>  -0.0590 
 11 O        2.3200    -0.6410     1.4340 O.2   1 <1>  -0.5700 
 12 O        3.1780     1.3410     1.0430 O.3   1 <1>  -0.4300 
 13 O       -3.8090    -1.3820    -2.3500 O.3   1 <1>  -0.4300 
 14 C       -3.7820    -1.5440    -0.0490 C.ar  1 <1>  -0.1440 
 15 O       -1.0450     4.1260    -1.7430 O.2   1 <1>  -0.5700 
 16 O       -2.8640     2.9130    -1.7150 O.3   1 <1>  -0.4300 
 17 C        4.4190     1.0260     1.6300 C.3   1 <1>   0.2000 
 18 C       -5.0120    -1.7470    -1.9290 C.2   1 <1>   0.6340 
 19 C       -5.0390    -1.8550    -0.5050 C.ar  1 <1>   0.0860 
 20 C       -3.4830    -1.5490     1.3020 C.ar  1 <1>  -0.1500 
 21 C       -3.6250     3.9360    -2.3300 C.3   1 <1>   0.0400 
 22 C        5.0420     2.3390     2.0950 C.3   1 <1>  -0.2400 
 23 C        5.2910     0.3380     0.5790 C.3   1 <1>  -0.2400 
 24 O       -5.9130    -1.9430    -2.7090 O.2   1 <1>  -0.5700 
 25 C       -6.0410    -2.1910     0.3980 C.ar  1 <1>  -0.1500 
 26 C       -4.4820    -1.8820     2.2040 C.ar  1 <1>  -0.1500 
 27 C       -5.7550    -2.2040     1.7540 C.ar  1 <1>  -0.1500 
 28 H       -3.1950     0.7640    -1.7370 H     1 <1>   0.4000 
 29 H       -2.1030    -1.9220    -1.3810 H     1 <1>   0.0800 
 30 H        1.9550     3.3780     0.6670 H     1 <1>   0.0800 
 31 H        0.4350     4.1390     0.3820 H     1 <1>   0.0800 
 32 H        1.4830     3.7600    -0.9640 H     1 <1>   0.0800 
 33 H        4.2580     0.3800     2.4780 H     1 <1>   0.0800 
 34 H       -2.4950    -1.2950     1.6490 H     1 <1>   0.1500 
 35 H       -4.6360     3.5880    -2.4450 H     1 <1>   0.0800 
 36 H       -3.1980     4.1580    -3.2930 H     1 <1>   0.0800 
 37 H       -3.6040     4.8110    -1.7030 H     1 <1>   0.0800 
 38 H        5.1840     3.0040     1.2620 H     1 <1>   0.0800 
 39 H        5.9970     2.1510     2.5520 H     1 <1>   0.0800 
 40 H        4.4050     2.8090     2.8230 H     1 <1>   0.0800 
 41 H        5.4210     0.9730    -0.2790 H     1 <1>   0.0800 
 42 H        4.8420    -0.5900     0.2730 H     1 <1>   0.0800 
 43 H        6.2580     0.1180     0.9940 H     1 <1>   0.0800 
 44 H       -7.0250    -2.4360     0.0350 H     1 <1>   0.1500 
 45 H       -4.2670    -1.8910     3.2600 H     1 <1>   0.1500 
 46 H       -6.5240    -2.4620     2.4630 H     1 <1>   0.1500 
@<TRIPOS>BOND
  1   1   2  1   
  2   1   3  1   
  3   2   4  1   
  4   2   5  2   
  5   3   6  2   
  6   3   7  1   
  7   4   8  1   
  8   4  28  1   
  9   5   6  1   
 10   5   9  1   
 11   6  10  1   
 12   7  11  2   
 13   7  12  1   
 14   8  13  1   
 15   8  14  1   
 16   8  29  1   
 17   9  15  2   
 18   9  16  1   
 19  10  30  1   
 20  10  31  1   
 21  10  32  1   
 22  12  17  1   
 23  13  18  1   
 24  14  19  ar  
 25  14  20  ar  
 26  16  21  1   
 27  17  22  1   
 28  17  23  1   
 29  17  33  1   
 30  18  19  1   
 31  18  24  2   
 32  19  25  ar  
 33  20  26  ar  
 34  20  34  1   
 35  21  35  1   
 36  21  36  1   
 37  21  37  1   
 38  22  38  1   
 39  22  39  1   
 40  22  40  1   
 41  23  41  1   
 42  23  42  1   
 43  23  43  1   
 44  25  27  ar  
 45  25  44  1   
 46  26  27  ar  
 47  26  45  1   
 48  27  46  1   
@<TRIPOS>SUBSTRUCTURE
  1 ****   2 GROUP 4 **** **** 0

# MOE 2024.06 (io_trps.svl 2023.06)
