@<TRIPOS>MOLECULE
N-Butyl-4-(3-phenyl-[1,2,4]oxadiazol-5-yl)-butyramide
42 43 1 0 0 
SMALL
USER_CHARGES


@<TRIPOS>ATOM
  1 O       -1.1040    -0.8090    -1.5000 O.2   1 <1>  -0.5700 
  2 C       -1.2960    -1.9240    -1.0850 C.2   1 <1>   0.5690 
  3 N       -0.4760    -2.9260    -1.4750 N.am  1 <1>  -0.7300 
  4 C       -2.4410    -2.1980    -0.1190 C.3   1 <1>  -0.0990 
  5 C       -0.5070    -4.3580    -1.1100 C.3   1 <1>   0.1400 
  6 C       -3.3250    -0.9700     0.1840 C.3   1 <1>  -0.1600 
  7 C        0.6240    -4.6460    -0.1240 C.3   1 <1>  -0.1600 
  8 C       -4.3860    -1.2300     1.2670 C.3   1 <1>   0.0200 
  9 C        0.6250    -6.1180     0.3050 C.3   1 <1>  -0.1600 
 10 C       -5.3140    -2.3830     0.9270 C.2   1 <1>   0.2980 
 11 C        1.7570    -6.4010     1.2970 C.3   1 <1>  -0.2400 
 12 O       -4.9500    -3.5980     1.2450 O.3   1 <1>  -0.0190 
 13 N       -6.4370    -2.2840     0.3490 N.2   1 <1>  -0.5650 
 14 N       -5.9240    -4.3390     0.8220 N.2   1 <1>  -0.4100 
 15 C       -6.8080    -3.5680     0.2930 C.2   1 <1>   0.4620 
 16 C       -8.0620    -3.9980    -0.3030 C.ar  1 <1>   0.0540 
 17 C       -8.4340    -5.3450    -0.3150 C.ar  1 <1>  -0.1500 
 18 C       -8.9470    -3.0900    -0.8900 C.ar  1 <1>  -0.1500 
 19 C       -9.6240    -5.7640    -0.8820 C.ar  1 <1>  -0.1500 
 20 C      -10.1390    -3.5030    -1.4590 C.ar  1 <1>  -0.1500 
 21 C      -10.4800    -4.8430    -1.4560 C.ar  1 <1>  -0.1500 
 22 H        0.2820    -2.6410    -2.0990 H     1 <1>   0.3700 
 23 H       -2.0180    -2.5680     0.7970 H     1 <1>   0.0800 
 24 H       -3.0500    -2.9710    -0.5490 H     1 <1>   0.0800 
 25 H       -0.3820    -4.9520    -2.0000 H     1 <1>   0.0800 
 26 H       -1.4540    -4.6150    -0.6670 H     1 <1>   0.0800 
 27 H       -3.8140    -0.6610    -0.7250 H     1 <1>   0.0800 
 28 H       -2.6990    -0.1550     0.5060 H     1 <1>   0.0800 
 29 H        0.5020    -4.0230     0.7460 H     1 <1>   0.0800 
 30 H        1.5670    -4.4080    -0.5860 H     1 <1>   0.0800 
 31 H       -4.9800    -0.3420     1.3890 H     1 <1>   0.0800 
 32 H       -3.9070    -1.4330     2.2080 H     1 <1>   0.0800 
 33 H        0.7490    -6.7490    -0.5600 H     1 <1>   0.0800 
 34 H       -0.3170    -6.3640     0.7660 H     1 <1>   0.0800 
 35 H        2.7120    -6.1860     0.8510 H     1 <1>   0.0800 
 36 H        1.7420    -7.4370     1.5870 H     1 <1>   0.0800 
 37 H        1.6430    -5.7990     2.1810 H     1 <1>   0.0800 
 38 H       -7.7800    -6.0750     0.1270 H     1 <1>   0.1500 
 39 H       -8.6980    -2.0440    -0.9020 H     1 <1>   0.1500 
 40 H       -9.8840    -6.8090    -0.8760 H     1 <1>   0.1500 
 41 H      -10.8010    -2.7810    -1.9040 H     1 <1>   0.1500 
 42 H      -11.4070    -5.1660    -1.8970 H     1 <1>   0.1500 
@<TRIPOS>BOND
  1   1   2  2   
  2   2   3  am  
  3   2   4  1   
  4   3   5  1   
  5   3  22  1   
  6   4   6  1   
  7   4  23  1   
  8   4  24  1   
  9   5   7  1   
 10   5  25  1   
 11   5  26  1   
 12   6   8  1   
 13   6  27  1   
 14   6  28  1   
 15   7   9  1   
 16   7  29  1   
 17   7  30  1   
 18   8  10  1   
 19   8  31  1   
 20   8  32  1   
 21   9  11  1   
 22   9  33  1   
 23   9  34  1   
 24  10  12  1   
 25  10  13  2   
 26  11  35  1   
 27  11  36  1   
 28  11  37  1   
 29  12  14  1   
 30  13  15  1   
 31  14  15  2   
 32  15  16  1   
 33  16  17  ar  
 34  16  18  ar  
 35  17  19  ar  
 36  17  38  1   
 37  18  20  ar  
 38  18  39  1   
 39  19  21  ar  
 40  19  40  1   
 41  20  21  ar  
 42  20  41  1   
 43  21  42  1   
@<TRIPOS>SUBSTRUCTURE
  1 ****  12 GROUP 4 **** **** 0

# MOE 2024.06 (io_trps.svl 2023.06)
