@<TRIPOS>MOLECULE
2-(1-Methyl-1H-tetrazol-5-ylsulfanyl)-N-p-tolyl-propionamide
34 35 1 0 0 
SMALL
USER_CHARGES


@<TRIPOS>ATOM
  1 S        0.0790    -0.0320    -0.5750 S.3   1 <1>  -0.2860 
  2 C       -0.8800     0.7710     0.7150 C.2   1 <1>   0.2420 
  3 C        1.8430     0.3800    -0.1600 C.3   1 <1>   0.2110 
  4 N       -0.3850     1.3180     1.7560 N.2   1 <1>  -0.3380 
  5 N       -2.1940     0.8770     0.6880 N.pl3 1 <1>   0.3140 
  6 C        2.1430     1.8230    -0.5960 C.2   1 <1>   0.5690 
  7 C        2.7130    -0.7000    -0.8210 C.3   1 <1>  -0.2400 
  8 N       -1.4410     1.7960     2.4100 N.2   1 <1>   0.0000 
  9 N       -2.5350     1.5390     1.7750 N.2   1 <1>  -0.4180 
 10 C       -3.1520     0.4030    -0.3230 C.3   1 <1>   0.0160 
 11 O        2.8300     2.0160    -1.5710 O.2   1 <1>  -0.5700 
 12 N        1.6050     2.8360     0.1540 N.am  1 <1>  -0.5470 
 13 C        1.6400     4.2320     0.0250 C.ar  1 <1>   0.1170 
 14 C        2.5500     4.9120    -0.7780 C.ar  1 <1>  -0.1500 
 15 C        0.7180     4.9780     0.7500 C.ar  1 <1>  -0.1500 
 16 C        2.5330     6.2940    -0.8560 C.ar  1 <1>  -0.1500 
 17 C        0.7000     6.3590     0.6740 C.ar  1 <1>  -0.1500 
 18 C        1.6090     7.0260    -0.1300 C.ar  1 <1>  -0.1440 
 19 C        1.5900     8.5410    -0.2190 C.3   1 <1>  -0.0970 
 20 H        1.9360     0.3040     0.9080 H     1 <1>   0.0800 
 21 H        2.5830    -0.6790    -1.8890 H     1 <1>   0.0800 
 22 H        2.4460    -1.6740    -0.4520 H     1 <1>   0.0800 
 23 H        3.7500    -0.5180    -0.6020 H     1 <1>   0.0800 
 24 H       -2.9320     0.8690    -1.2650 H     1 <1>   0.0800 
 25 H       -4.1490     0.6620    -0.0170 H     1 <1>   0.0800 
 26 H       -3.0690    -0.6640    -0.4170 H     1 <1>   0.0800 
 27 H        0.9920     2.5190     0.9110 H     1 <1>   0.3700 
 28 H        3.2800     4.3690    -1.3470 H     1 <1>   0.1500 
 29 H        0.0040     4.4770     1.3790 H     1 <1>   0.1500 
 30 H        3.2450     6.7950    -1.4880 H     1 <1>   0.1500 
 31 H       -0.0270     6.9120     1.2430 H     1 <1>   0.1500 
 32 H        0.9450     8.8500    -1.0220 H     1 <1>   0.0800 
 33 H        2.5800     8.9190    -0.4020 H     1 <1>   0.0800 
 34 H        1.2300     8.9680     0.7000 H     1 <1>   0.0800 
@<TRIPOS>BOND
  1   1   2  1   
  2   1   3  1   
  3   2   4  2   
  4   2   5  1   
  5   3   6  1   
  6   3   7  1   
  7   3  20  1   
  8   4   8  1   
  9   5   9  1   
 10   5  10  1   
 11   6  11  2   
 12   6  12  am  
 13   7  21  1   
 14   7  22  1   
 15   7  23  1   
 16   8   9  2   
 17  10  24  1   
 18  10  25  1   
 19  10  26  1   
 20  12  13  1   
 21  12  27  1   
 22  13  14  ar  
 23  13  15  ar  
 24  14  16  ar  
 25  14  28  1   
 26  15  17  ar  
 27  15  29  1   
 28  16  18  ar  
 29  16  30  1   
 30  17  18  ar  
 31  17  31  1   
 32  18  19  1   
 33  19  32  1   
 34  19  33  1   
 35  19  34  1   
@<TRIPOS>SUBSTRUCTURE
  1 ****  12 GROUP 4 **** **** 0

# MOE 2024.06 (io_trps.svl 2023.06)
