@<TRIPOS>MOLECULE
2-Methanesulfonylamino-N-[4-(piperidine-1-sulfonyl)-phenyl]-benzamide
52 54 1 0 0 
SMALL
USER_CHARGES


@<TRIPOS>ATOM
  1 S       -0.0650     0.6750     1.3420 S.o2  1 <1>   1.4470 
  2 O        0.0100    -0.7690     1.3190 O.2   1 <1>  -0.6500 
  3 O        0.4050     1.3890     2.5110 O.2   1 <1>  -0.6500 
  4 N        0.8340     1.2520     0.0250 N.am  1 <1>  -0.8490 
  5 C       -1.7610     1.1790     0.9460 C.ar  1 <1>  -0.0090 
  6 C        2.1590     0.6270    -0.0270 C.3   1 <1>   0.1960 
  7 C        0.9430     2.7140     0.0320 C.3   1 <1>   0.1960 
  8 C       -2.5660     1.8070     1.8910 C.ar  1 <1>  -0.1500 
  9 C       -2.3040     0.9450    -0.3110 C.ar  1 <1>  -0.1500 
 10 C        2.8970     1.0440    -1.3040 C.3   1 <1>  -0.1600 
 11 C        1.6230     3.2010    -1.2510 C.3   1 <1>  -0.1600 
 12 C       -3.8550     2.2010     1.5850 C.ar  1 <1>  -0.1500 
 13 C       -3.5940     1.3370    -0.6220 C.ar  1 <1>  -0.1500 
 14 C        3.0090     2.5690    -1.4190 C.3   1 <1>  -0.1600 
 15 C       -4.3850     1.9830     0.3200 C.ar  1 <1>   0.1170 
 16 N       -5.6820     2.4310     0.0520 N.am  1 <1>  -0.5470 
 17 C       -6.2250     2.9350    -1.1050 C.2   1 <1>   0.5440 
 18 O       -5.5750     2.9610    -2.1310 O.2   1 <1>  -0.5700 
 19 C       -7.5600     3.4660    -1.0700 C.ar  1 <1>   0.0860 
 20 C       -7.8160     4.8310    -0.8420 C.ar  1 <1>   0.1990 
 21 C       -8.6400     2.6070    -1.2780 C.ar  1 <1>  -0.1500 
 22 N       -6.8250     5.7800    -0.6230 N.am  1 <1>  -0.7570 
 23 C       -9.1350     5.2770    -0.8430 C.ar  1 <1>  -0.1500 
 24 C       -9.9410     3.0680    -1.2690 C.ar  1 <1>  -0.1500 
 25 S       -5.7550     5.8190     0.7170 S.o2  1 <1>   1.3330 
 26 C      -10.1890     4.4120    -1.0520 C.ar  1 <1>  -0.1500 
 27 O       -6.1240     4.7280     1.5880 O.2   1 <1>  -0.6500 
 28 O       -5.8210     7.1840     1.1650 O.2   1 <1>  -0.6500 
 29 C       -4.1630     5.5350    -0.0320 C.3   1 <1>  -0.1350 
 30 H        2.0570    -0.4460    -0.0260 H     1 <1>   0.0800 
 31 H        2.7310     0.9100     0.8430 H     1 <1>   0.0800 
 32 H        1.5110     3.0380     0.8900 H     1 <1>   0.0800 
 33 H       -0.0390     3.1530     0.0930 H     1 <1>   0.0800 
 34 H       -2.1750     1.9900     2.8780 H     1 <1>   0.1500 
 35 H       -1.7050     0.4500    -1.0580 H     1 <1>   0.1500 
 36 H        2.3610     0.6540    -2.1520 H     1 <1>   0.0800 
 37 H        3.8800     0.6070    -1.3070 H     1 <1>   0.0800 
 38 H        1.7150     4.2720    -1.2230 H     1 <1>   0.0800 
 39 H        1.0010     2.9460    -2.0910 H     1 <1>   0.0800 
 40 H       -4.4540     2.6870     2.3350 H     1 <1>   0.1500 
 41 H       -3.9860     1.1410    -1.6040 H     1 <1>   0.1500 
 42 H        3.4250     2.8370    -2.3750 H     1 <1>   0.0800 
 43 H        3.6670     2.9380    -0.6500 H     1 <1>   0.0800 
 44 H       -6.1950     2.7320     0.8890 H     1 <1>   0.3700 
 45 H       -8.4490     1.5620    -1.4560 H     1 <1>   0.1500 
 46 H       -7.0820     6.7430    -0.8240 H     1 <1>   0.4200 
 47 H       -9.3400     6.3190    -0.6710 H     1 <1>   0.1500 
 48 H      -10.7610     2.3880    -1.4330 H     1 <1>   0.1500 
 49 H      -11.2030     4.7760    -1.0450 H     1 <1>   0.1500 
 50 H       -4.1460     4.6040    -0.5610 H     1 <1>   0.0800 
 51 H       -3.4010     5.5130     0.7210 H     1 <1>   0.0800 
 52 H       -3.9370     6.3200    -0.7260 H     1 <1>   0.0800 
@<TRIPOS>BOND
  1   1   2  2   
  2   1   3  2   
  3   1   4  am  
  4   1   5  1   
  5   4   6  1   
  6   4   7  1   
  7   5   8  ar  
  8   5   9  ar  
  9   6  10  1   
 10   6  30  1   
 11   6  31  1   
 12   7  11  1   
 13   7  32  1   
 14   7  33  1   
 15   8  12  ar  
 16   8  34  1   
 17   9  13  ar  
 18   9  35  1   
 19  10  14  1   
 20  10  36  1   
 21  10  37  1   
 22  11  14  1   
 23  11  38  1   
 24  11  39  1   
 25  12  15  ar  
 26  12  40  1   
 27  13  15  ar  
 28  13  41  1   
 29  14  42  1   
 30  14  43  1   
 31  15  16  1   
 32  16  17  am  
 33  16  44  1   
 34  17  18  2   
 35  17  19  1   
 36  19  20  ar  
 37  19  21  ar  
 38  20  22  1   
 39  20  23  ar  
 40  21  24  ar  
 41  21  45  1   
 42  22  25  am  
 43  22  46  1   
 44  23  26  ar  
 45  23  47  1   
 46  24  26  ar  
 47  24  48  1   
 48  25  27  2   
 49  25  28  2   
 50  25  29  1   
 51  26  49  1   
 52  29  50  1   
 53  29  51  1   
 54  29  52  1   
@<TRIPOS>SUBSTRUCTURE
  1 ****  15 GROUP 4 **** **** 0

# MOE 2024.06 (io_trps.svl 2023.06)
