@<TRIPOS>MOLECULE
N-(6-Acetylamino-benzothiazol-2-yl)-butyramide
34 35 1 0 0 
SMALL
USER_CHARGES


@<TRIPOS>ATOM
  1 S       -0.2740    -0.4160    -1.0200 S.3   1 <1>  -0.0800 
  2 C        0.7770     0.5300     0.0460 C.2   1 <1>   0.4420 
  3 C       -1.6730     0.2020    -0.1730 C.ar  1 <1>   0.0400 
  4 N        0.1510     1.2180     0.9220 N.2   1 <1>  -0.5650 
  5 N        2.1440     0.5040    -0.0840 N.am  1 <1>  -0.4940 
  6 C       -1.2230     1.0510     0.8190 C.ar  1 <1>   0.2270 
  7 C       -3.0050    -0.0710    -0.4070 C.ar  1 <1>  -0.1500 
  8 C        2.9750    -0.1690    -0.9320 C.2   1 <1>   0.5690 
  9 C       -2.1750     1.6600     1.6240 C.ar  1 <1>  -0.1500 
 10 C       -3.9570     0.5420     0.3990 C.ar  1 <1>   0.1170 
 11 O        2.5960    -0.9260    -1.7880 O.2   1 <1>  -0.5700 
 12 C        4.4670     0.0620    -0.7760 C.3   1 <1>  -0.0990 
 13 C       -3.5200     1.4050     1.4140 C.ar  1 <1>  -0.1500 
 14 N       -5.3120     0.2570     0.1690 N.am  1 <1>  -0.5470 
 15 C        5.0360    -0.6310     0.4730 C.3   1 <1>  -0.1600 
 16 C       -6.4450     0.9340     0.5190 C.2   1 <1>   0.5690 
 17 C        6.5430    -0.3910     0.6040 C.3   1 <1>  -0.2400 
 18 O       -6.4570     1.9820     1.1130 O.2   1 <1>  -0.5700 
 19 C       -7.7640     0.3210     0.1190 C.3   1 <1>  -0.1790 
 20 H        2.6020     1.0990     0.5990 H     1 <1>   0.3700 
 21 H       -3.2860    -0.7400    -1.1990 H     1 <1>   0.1500 
 22 H       -1.8520     2.3250     2.4030 H     1 <1>   0.1500 
 23 H        4.6540     1.1190    -0.7310 H     1 <1>   0.0800 
 24 H        4.9610    -0.3210    -1.6510 H     1 <1>   0.0800 
 25 H       -4.2410     1.8820     2.0520 H     1 <1>   0.1500 
 26 H       -5.4770    -0.5790    -0.3880 H     1 <1>   0.3700 
 27 H        4.8510    -1.6910     0.4060 H     1 <1>   0.0800 
 28 H        4.5420    -0.2650     1.3570 H     1 <1>   0.0800 
 29 H        7.0620    -0.7770    -0.2570 H     1 <1>   0.0800 
 30 H        6.9210    -0.8890     1.4790 H     1 <1>   0.0800 
 31 H        6.7540     0.6610     0.6930 H     1 <1>   0.0800 
 32 H       -7.8520    -0.6630     0.5370 H     1 <1>   0.0800 
 33 H       -7.8320     0.2700    -0.9510 H     1 <1>   0.0800 
 34 H       -8.5710     0.9280     0.4890 H     1 <1>   0.0800 
@<TRIPOS>BOND
  1   1   2  1   
  2   1   3  1   
  3   2   4  2   
  4   2   5  1   
  5   3   6  ar  
  6   3   7  ar  
  7   4   6  1   
  8   5   8  am  
  9   5  20  1   
 10   6   9  ar  
 11   7  10  ar  
 12   7  21  1   
 13   8  11  2   
 14   8  12  1   
 15   9  13  ar  
 16   9  22  1   
 17  10  13  ar  
 18  10  14  1   
 19  12  15  1   
 20  12  23  1   
 21  12  24  1   
 22  13  25  1   
 23  14  16  am  
 24  14  26  1   
 25  15  17  1   
 26  15  27  1   
 27  15  28  1   
 28  16  18  2   
 29  16  19  1   
 30  17  29  1   
 31  17  30  1   
 32  17  31  1   
 33  19  32  1   
 34  19  33  1   
 35  19  34  1   
@<TRIPOS>SUBSTRUCTURE
  1 ****   3 GROUP 4 **** **** 0

# MOE 2024.06 (io_trps.svl 2023.06)
