@<TRIPOS>MOLECULE
1-(3-Chloro-4-methoxy-benzenesulfonyl)-piperidine-4-carboxylic acid (2-methoxy-1
51 52 1 0 0 
SMALL
USER_CHARGES


@<TRIPOS>ATOM
  1 CL       3.4530    -0.3670     3.5060 Cl    1 <1>  -0.1770 
  2 C        3.3980    -0.8450     1.8230 C.ar  1 <1>   0.1770 
  3 C        2.8260    -2.0570     1.4550 C.ar  1 <1>   0.0820 
  4 C        3.9370     0.0140     0.8850 C.ar  1 <1>  -0.1500 
  5 O        2.3140    -2.8560     2.4280 O.3   1 <1>  -0.3630 
  6 C        2.8060    -2.3910     0.1040 C.ar  1 <1>  -0.1500 
  7 C        3.9270    -0.3150    -0.4650 C.ar  1 <1>  -0.0090 
  8 C        1.6920    -4.0860     2.1310 C.3   1 <1>   0.0400 
  9 C        3.3500    -1.5270    -0.8340 C.ar  1 <1>  -0.1500 
 10 S        4.6340     0.8080    -1.7020 S.o2  1 <1>   1.4470 
 11 O        4.9510     0.0780    -2.9100 O.2   1 <1>  -0.6500 
 12 O        3.8070     1.9920    -1.7860 O.2   1 <1>  -0.6500 
 13 N        6.1130     1.2650    -1.0080 N.am  1 <1>  -0.8490 
 14 C        6.6400     2.4850    -1.6250 C.3   1 <1>   0.1960 
 15 C        7.0960     0.1760    -1.0380 C.3   1 <1>   0.1960 
 16 C        7.8930     2.9600    -0.8830 C.3   1 <1>  -0.1600 
 17 C        8.3520     0.5760    -0.2620 C.3   1 <1>  -0.1600 
 18 C        8.9690     1.8640    -0.8330 C.3   1 <1>  -0.0190 
 19 C       10.1910     2.3240    -0.0390 C.2   1 <1>   0.5690 
 20 O       10.1170     2.4060     1.1630 O.2   1 <1>  -0.5700 
 21 N       11.3220     2.6390    -0.7260 N.am  1 <1>  -0.7300 
 22 C       12.5920     3.1860    -0.1850 C.3   1 <1>   0.2200 
 23 C       13.0760     2.4330     1.0670 C.3   1 <1>   0.1200 
 24 C       12.4000     4.6810     0.0730 C.3   1 <1>  -0.2400 
 25 O       14.3990     2.7930     1.3390 O.3   1 <1>  -0.5600 
 26 C       14.9050     2.2190     2.5000 C.3   1 <1>   0.0400 
 27 H        4.3690     0.9450     1.2090 H     1 <1>   0.1500 
 28 H        2.3740    -3.3140    -0.2370 H     1 <1>   0.1500 
 29 H        1.3620    -4.5230     3.0560 H     1 <1>   0.0800 
 30 H        2.4070    -4.7340     1.6560 H     1 <1>   0.0800 
 31 H        0.8460    -3.9060     1.4910 H     1 <1>   0.0800 
 32 H        3.3260    -1.7990    -1.8770 H     1 <1>   0.1500 
 33 H        5.9000     3.2670    -1.5780 H     1 <1>   0.0800 
 34 H        6.8660     2.3000    -2.6630 H     1 <1>   0.0800 
 35 H        7.3550    -0.0600    -2.0580 H     1 <1>   0.0800 
 36 H        6.6750    -0.7070    -0.5860 H     1 <1>   0.0800 
 37 H        7.6150     3.2410     0.1180 H     1 <1>   0.0800 
 38 H        8.2850     3.8340    -1.3710 H     1 <1>   0.0800 
 39 H        9.0720    -0.2220    -0.3080 H     1 <1>   0.0800 
 40 H        8.0900     0.7210     0.7720 H     1 <1>   0.0800 
 41 H        9.2840     1.6590    -1.8410 H     1 <1>   0.0800 
 42 H       11.3010     2.5940    -1.7440 H     1 <1>   0.3700 
 43 H       13.3480     3.0590    -0.9410 H     1 <1>   0.0800 
 44 H       13.0440     1.3710     0.8960 H     1 <1>   0.0800 
 45 H       12.4690     2.6890     1.9190 H     1 <1>   0.0800 
 46 H       11.6530     4.8350     0.8310 H     1 <1>   0.0800 
 47 H       12.1050     5.1840    -0.8300 H     1 <1>   0.0800 
 48 H       13.3240     5.1100     0.4160 H     1 <1>   0.0800 
 49 H       15.9210     2.5490     2.6210 H     1 <1>   0.0800 
 50 H       14.8790     1.1470     2.4070 H     1 <1>   0.0800 
 51 H       14.3160     2.5420     3.3410 H     1 <1>   0.0800 
@<TRIPOS>BOND
  1   1   2  1   
  2   2   3  ar  
  3   2   4  ar  
  4   3   5  1   
  5   3   6  ar  
  6   4   7  ar  
  7   4  27  1   
  8   5   8  1   
  9   6   9  ar  
 10   6  28  1   
 11   7   9  ar  
 12   7  10  1   
 13   8  29  1   
 14   8  30  1   
 15   8  31  1   
 16   9  32  1   
 17  10  11  2   
 18  10  12  2   
 19  10  13  am  
 20  13  14  1   
 21  13  15  1   
 22  14  16  1   
 23  14  33  1   
 24  14  34  1   
 25  15  17  1   
 26  15  35  1   
 27  15  36  1   
 28  16  18  1   
 29  16  37  1   
 30  16  38  1   
 31  17  18  1   
 32  17  39  1   
 33  17  40  1   
 34  18  19  1   
 35  18  41  1   
 36  19  20  2   
 37  19  21  am  
 38  21  22  1   
 39  21  42  1   
 40  22  23  1   
 41  22  24  1   
 42  22  43  1   
 43  23  25  1   
 44  23  44  1   
 45  23  45  1   
 46  24  46  1   
 47  24  47  1   
 48  24  48  1   
 49  25  26  1   
 50  26  49  1   
 51  26  50  1   
 52  26  51  1   
@<TRIPOS>SUBSTRUCTURE
  1 ****  17 GROUP 4 **** **** 0

# MOE 2024.06 (io_trps.svl 2023.06)
