@<TRIPOS>MOLECULE
N-Benzo[1,3]dioxol-5-ylmethyl-2-[(2,3-dimethyl-phenyl)-methanesulfonyl-amino]-ac
49 51 1 0 0 
SMALL
USER_CHARGES


@<TRIPOS>ATOM
  1 S        1.5500     1.2230    -0.4980 S.o2  1 <1>   1.3330 
  2 O        1.6920     0.2950     0.5950 O.2   1 <1>  -0.6500 
  3 O        2.7230     1.6900    -1.2010 O.2   1 <1>  -0.6500 
  4 N        0.7590     2.6400     0.0960 N.am  1 <1>  -0.6930 
  5 C        0.3840     0.5980    -1.6870 C.3   1 <1>  -0.1350 
  6 C       -0.4690     2.5490     0.7450 C.ar  1 <1>   0.1990 
  7 C        1.6400     3.7930     0.4590 C.3   1 <1>   0.2570 
  8 C       -1.6570     2.9810     0.1410 C.ar  1 <1>  -0.1440 
  9 C       -0.5120     2.0140     2.0260 C.ar  1 <1>  -0.1500 
 10 C        2.6720     3.4910     1.5530 C.2   1 <1>   0.5690 
 11 C       -2.8630     2.8480     0.8240 C.ar  1 <1>  -0.1440 
 12 C       -1.6510     3.5980    -1.2600 C.3   1 <1>  -0.0970 
 13 C       -1.7070     1.8900     2.7020 C.ar  1 <1>  -0.1500 
 14 O        2.4780     3.9010     2.6730 O.2   1 <1>  -0.5700 
 15 N        3.7890     2.7860     1.2410 N.am  1 <1>  -0.7300 
 16 C       -2.8790     2.3040     2.1000 C.ar  1 <1>  -0.1500 
 17 C       -4.1890     3.2860     0.2150 C.3   1 <1>  -0.0970 
 18 C        4.8100     2.3460     2.2030 C.3   1 <1>   0.2840 
 19 C        6.1780     2.5180     1.5680 C.ar  1 <1>  -0.1430 
 20 C        6.8360     1.4240     1.0130 C.ar  1 <1>  -0.1500 
 21 C        6.7740     3.7790     1.5380 C.ar  1 <1>  -0.1500 
 22 C        8.0800     1.6280     0.4500 C.ar  1 <1>   0.0820 
 23 C        8.0250     3.9650     0.9650 C.ar  1 <1>  -0.1500 
 24 O        8.8860     0.7320    -0.1290 O.3   1 <1>  -0.3620 
 25 C        8.6590     2.8640     0.4270 C.ar  1 <1>   0.0820 
 26 C       10.0500     1.4410    -0.5490 C.3   1 <1>   0.4000 
 27 O        9.8540     2.8010    -0.1690 O.3   1 <1>  -0.3620 
 28 H        0.7710    -0.2880    -2.1500 H     1 <1>   0.0800 
 29 H        0.1980     1.3320    -2.4450 H     1 <1>   0.0800 
 30 H       -0.5430     0.3560    -1.2030 H     1 <1>   0.0800 
 31 H        1.0250     4.6070     0.7990 H     1 <1>   0.0800 
 32 H        2.1620     4.1250    -0.4200 H     1 <1>   0.0800 
 33 H        0.4020     1.6910     2.4940 H     1 <1>   0.1500 
 34 H       -0.6600     3.8200    -1.6100 H     1 <1>   0.0800 
 35 H       -2.2000     4.5220    -1.2600 H     1 <1>   0.0800 
 36 H       -2.1110     2.9220    -1.9570 H     1 <1>   0.0800 
 37 H       -1.7250     1.4730     3.6940 H     1 <1>   0.1500 
 38 H        3.8940     2.3940     0.2940 H     1 <1>   0.3700 
 39 H       -3.8050     2.2010     2.6370 H     1 <1>   0.1500 
 40 H       -4.2110     4.3560     0.1120 H     1 <1>   0.0800 
 41 H       -5.0160     2.9920     0.8360 H     1 <1>   0.0800 
 42 H       -4.3240     2.8350    -0.7520 H     1 <1>   0.0800 
 43 H        4.6380     1.3130     2.4520 H     1 <1>   0.0800 
 44 H        4.7460     2.9280     3.1070 H     1 <1>   0.0800 
 45 H        6.4030     0.4400     1.0130 H     1 <1>   0.1500 
 46 H        6.2550     4.6220     1.9630 H     1 <1>   0.1500 
 47 H        8.4960     4.9310     0.9350 H     1 <1>   0.1500 
 48 H       10.1460     1.3750    -1.6180 H     1 <1>   0.0800 
 49 H       10.9140     1.0470    -0.0450 H     1 <1>   0.0800 
@<TRIPOS>BOND
  1   1   2  2   
  2   1   3  2   
  3   1   4  am  
  4   1   5  1   
  5   4   6  1   
  6   4   7  1   
  7   5  28  1   
  8   5  29  1   
  9   5  30  1   
 10   6   8  ar  
 11   6   9  ar  
 12   7  10  1   
 13   7  31  1   
 14   7  32  1   
 15   8  11  ar  
 16   8  12  1   
 17   9  13  ar  
 18   9  33  1   
 19  10  14  2   
 20  10  15  am  
 21  11  16  ar  
 22  11  17  1   
 23  12  34  1   
 24  12  35  1   
 25  12  36  1   
 26  13  16  ar  
 27  13  37  1   
 28  15  18  1   
 29  15  38  1   
 30  16  39  1   
 31  17  40  1   
 32  17  41  1   
 33  17  42  1   
 34  18  19  1   
 35  18  43  1   
 36  18  44  1   
 37  19  20  ar  
 38  19  21  ar  
 39  20  22  ar  
 40  20  45  1   
 41  21  23  ar  
 42  21  46  1   
 43  22  24  1   
 44  22  25  ar  
 45  23  25  ar  
 46  23  47  1   
 47  24  26  1   
 48  25  27  1   
 49  26  27  1   
 50  26  48  1   
 51  26  49  1   
@<TRIPOS>SUBSTRUCTURE
  1 ****  15 GROUP 4 **** **** 0

# MOE 2024.06 (io_trps.svl 2023.06)
