@<TRIPOS>MOLECULE
1-Methanesulfonyl-piperidine-3-carboxylic acid (2-chloro-phenyl)-amide
37 38 1 0 0 
SMALL
USER_CHARGES


@<TRIPOS>ATOM
  1 CL      -0.6880     0.4680    -1.7630 Cl    1 <1>  -0.1770 
  2 C       -0.4510     1.9230    -0.8160 C.ar  1 <1>   0.1770 
  3 C       -1.5510     2.5250    -0.2050 C.ar  1 <1>   0.1170 
  4 C        0.8290     2.4330    -0.7040 C.ar  1 <1>  -0.1500 
  5 N       -2.8260     1.9430    -0.3660 N.am  1 <1>  -0.5470 
  6 C       -1.3150     3.6830     0.5320 C.ar  1 <1>  -0.1500 
  7 C        1.0370     3.5830     0.0370 C.ar  1 <1>  -0.1500 
  8 C       -4.0410     2.2050     0.2050 C.2   1 <1>   0.5690 
  9 C       -0.0370     4.2040     0.6520 C.ar  1 <1>  -0.1500 
 10 O       -4.2260     3.0730     1.0220 O.2   1 <1>  -0.5700 
 11 C       -5.2160     1.3300    -0.2080 C.3   1 <1>  -0.0190 
 12 C       -6.4780     2.1860    -0.3820 C.3   1 <1>   0.1960 
 13 C       -5.4560     0.2030     0.8140 C.3   1 <1>  -0.1600 
 14 N       -7.6230     1.3440    -0.7520 N.am  1 <1>  -0.8490 
 15 C       -6.7060    -0.6020     0.4310 C.3   1 <1>  -0.1600 
 16 S       -8.9720     2.2050    -1.3090 S.o2  1 <1>   1.3330 
 17 C       -7.9270     0.3030     0.2320 C.3   1 <1>   0.1960 
 18 O      -10.0140     1.2520    -1.6130 O.2   1 <1>  -0.6500 
 19 O       -8.5160     3.1400    -2.3100 O.2   1 <1>  -0.6500 
 20 C       -9.5070     3.1500     0.1050 C.3   1 <1>  -0.1350 
 21 H        1.6490     1.9370    -1.1910 H     1 <1>   0.1500 
 22 H       -2.8190     1.1510    -1.0110 H     1 <1>   0.3700 
 23 H       -2.1250     4.1920     1.0200 H     1 <1>   0.1500 
 24 H        2.0280     3.9940     0.1350 H     1 <1>   0.1500 
 25 H        0.1200     5.0990     1.2300 H     1 <1>   0.1500 
 26 H       -4.9960     0.8920    -1.1650 H     1 <1>   0.0800 
 27 H       -6.2960     2.9150    -1.1550 H     1 <1>   0.0800 
 28 H       -6.6920     2.7110     0.5340 H     1 <1>   0.0800 
 29 H       -5.5930     0.6330     1.7930 H     1 <1>   0.0800 
 30 H       -4.6000    -0.4480     0.8540 H     1 <1>   0.0800 
 31 H       -6.9210    -1.3250     1.1980 H     1 <1>   0.0800 
 32 H       -6.5260    -1.1400    -0.4830 H     1 <1>   0.0800 
 33 H       -8.7500    -0.3000    -0.1180 H     1 <1>   0.0800 
 34 H       -8.2070     0.7510     1.1700 H     1 <1>   0.0800 
 35 H       -9.7660     2.5000     0.9160 H     1 <1>   0.0800 
 36 H      -10.3730     3.7270    -0.1550 H     1 <1>   0.0800 
 37 H       -8.7360     3.8220     0.4230 H     1 <1>   0.0800 
@<TRIPOS>BOND
  1   1   2  1   
  2   2   3  ar  
  3   2   4  ar  
  4   3   5  1   
  5   3   6  ar  
  6   4   7  ar  
  7   4  21  1   
  8   5   8  am  
  9   5  22  1   
 10   6   9  ar  
 11   6  23  1   
 12   7   9  ar  
 13   7  24  1   
 14   8  10  2   
 15   8  11  1   
 16   9  25  1   
 17  11  12  1   
 18  11  13  1   
 19  11  26  1   
 20  12  14  1   
 21  12  27  1   
 22  12  28  1   
 23  13  15  1   
 24  13  29  1   
 25  13  30  1   
 26  14  16  am  
 27  14  17  1   
 28  15  17  1   
 29  15  31  1   
 30  15  32  1   
 31  16  18  2   
 32  16  19  2   
 33  16  20  1   
 34  17  33  1   
 35  17  34  1   
 36  20  35  1   
 37  20  36  1   
 38  20  37  1   
@<TRIPOS>SUBSTRUCTURE
  1 ****   8 GROUP 4 **** **** 0

# MOE 2024.06 (io_trps.svl 2023.06)
