@<TRIPOS>MOLECULE
2-[2-Methyl-4-(piperidine-1-sulfonyl)-phenoxy]-N-pyridin-4-ylmethyl-acetamide
53 55 1 0 0 
SMALL
USER_CHARGES


@<TRIPOS>ATOM
  1 S       -0.1520     0.6960    -1.0070 S.o2  1 <1>   1.4470 
  2 O       -0.5720    -0.0070    -2.2000 O.2   1 <1>  -0.6500 
  3 O       -0.6310     2.0420    -0.7740 O.2   1 <1>  -0.6500 
  4 N       -0.6380    -0.2340     0.3240 N.am  1 <1>  -0.8490 
  5 C        1.6570     0.6450    -0.9020 C.ar  1 <1>  -0.0090 
  6 C       -2.0450    -0.6270     0.2110 C.3   1 <1>   0.1960 
  7 C       -0.3870     0.4550     1.5960 C.3   1 <1>   0.1960 
  8 C        2.4150     1.8100    -0.9570 C.ar  1 <1>  -0.1500 
  9 C        2.3260    -0.5660    -0.7640 C.ar  1 <1>  -0.1500 
 10 C       -2.4230    -1.5900     1.3430 C.3   1 <1>  -0.1600 
 11 C       -0.6910    -0.4770     2.7720 C.3   1 <1>  -0.1600 
 12 C        3.7980     1.7850    -0.8800 C.ar  1 <1>  -0.1430 
 13 C        3.7050    -0.6140    -0.6880 C.ar  1 <1>  -0.1500 
 14 C       -2.1380    -0.9810     2.7200 C.3   1 <1>  -0.1600 
 15 C        4.4400     0.5560    -0.7570 C.ar  1 <1>   0.0820 
 16 C        4.5710     3.0960    -0.9260 C.3   1 <1>  -0.0970 
 17 O        5.7820     0.4690    -0.6980 O.3   1 <1>  -0.3630 
 18 C        6.4750     0.5620    -1.9370 C.3   1 <1>   0.1810 
 19 C        7.5450     1.6440    -1.8850 C.2   1 <1>   0.5690 
 20 O        7.9510     2.1160    -2.9190 O.2   1 <1>  -0.5700 
 21 N        8.0170     2.0600    -0.6840 N.am  1 <1>  -0.7300 
 22 C        9.0650     3.0730    -0.4930 C.3   1 <1>   0.2840 
 23 C        9.7040     2.8390     0.8630 C.ar  1 <1>  -0.1430 
 24 C        9.3180     3.5410     1.9870 C.ar  1 <1>  -0.1500 
 25 C       10.7030     1.9030     1.0400 C.ar  1 <1>  -0.1500 
 26 C        9.9350     3.2820     3.2000 C.ar  1 <1>   0.1600 
 27 C       11.2550     1.7210     2.2980 C.ar  1 <1>   0.1600 
 28 N       10.8940     2.3890     3.3810 N.ar  1 <1>  -0.6200 
 29 H       -2.2110    -1.1250    -0.7310 H     1 <1>   0.0800 
 30 H       -2.6730     0.2490     0.2430 H     1 <1>   0.0800 
 31 H       -1.0010     1.3390     1.6630 H     1 <1>   0.0800 
 32 H        0.6460     0.7570     1.6500 H     1 <1>   0.0800 
 33 H        1.9040     2.7520    -1.0620 H     1 <1>   0.1500 
 34 H        1.7540    -1.4780    -0.7160 H     1 <1>   0.1500 
 35 H       -1.8580    -2.4980     1.2230 H     1 <1>   0.0800 
 36 H       -3.4660    -1.8400     1.2650 H     1 <1>   0.0800 
 37 H       -0.5240     0.0470     3.6960 H     1 <1>   0.0800 
 38 H       -0.0120    -1.3120     2.7390 H     1 <1>   0.0800 
 39 H        4.2130    -1.5550    -0.5790 H     1 <1>   0.1500 
 40 H       -2.3020    -1.7160     3.4900 H     1 <1>   0.0800 
 41 H       -2.8100    -0.1580     2.8930 H     1 <1>   0.0800 
 42 H        3.9210     3.9320    -0.7400 H     1 <1>   0.0800 
 43 H        5.0230     3.2250    -1.8930 H     1 <1>   0.0800 
 44 H        5.3410     3.0990    -0.1770 H     1 <1>   0.0800 
 45 H        5.7760     0.7870    -2.7240 H     1 <1>   0.0800 
 46 H        6.9310    -0.3890    -2.1330 H     1 <1>   0.0800 
 47 H        7.6270     1.6530     0.1700 H     1 <1>   0.3700 
 48 H        8.6260     4.0550    -0.5380 H     1 <1>   0.0800 
 49 H        9.8000     2.9910    -1.2760 H     1 <1>   0.0800 
 50 H        8.5440     4.2850     1.9330 H     1 <1>   0.1500 
 51 H       11.0540     1.3130     0.2130 H     1 <1>   0.1500 
 52 H        9.6220     3.8390     4.0670 H     1 <1>   0.1500 
 53 H       12.0330     0.9870     2.4180 H     1 <1>   0.1500 
@<TRIPOS>BOND
  1   1   2  2   
  2   1   3  2   
  3   1   4  am  
  4   1   5  1   
  5   4   6  1   
  6   4   7  1   
  7   5   8  ar  
  8   5   9  ar  
  9   6  10  1   
 10   6  29  1   
 11   6  30  1   
 12   7  11  1   
 13   7  31  1   
 14   7  32  1   
 15   8  12  ar  
 16   8  33  1   
 17   9  13  ar  
 18   9  34  1   
 19  10  14  1   
 20  10  35  1   
 21  10  36  1   
 22  11  14  1   
 23  11  37  1   
 24  11  38  1   
 25  12  15  ar  
 26  12  16  1   
 27  13  15  ar  
 28  13  39  1   
 29  14  40  1   
 30  14  41  1   
 31  15  17  1   
 32  16  42  1   
 33  16  43  1   
 34  16  44  1   
 35  17  18  1   
 36  18  19  1   
 37  18  45  1   
 38  18  46  1   
 39  19  20  2   
 40  19  21  am  
 41  21  22  1   
 42  21  47  1   
 43  22  23  1   
 44  22  48  1   
 45  22  49  1   
 46  23  24  ar  
 47  23  25  ar  
 48  24  26  ar  
 49  24  50  1   
 50  25  27  ar  
 51  25  51  1   
 52  26  28  ar  
 53  26  52  1   
 54  27  28  ar  
 55  27  53  1   
@<TRIPOS>SUBSTRUCTURE
  1 ****  15 GROUP 4 **** **** 0

# MOE 2024.06 (io_trps.svl 2023.06)
