@<TRIPOS>MOLECULE
N-(7,7-Dimethyl-2,5-dioxo-5,6,7,8-tetrahydro-2H-chromen-3-yl)-4-methoxy-benzamid
44 46 1 0 0 
SMALL
USER_CHARGES


@<TRIPOS>ATOM
  1 O       -1.0240     1.1090    -2.5820 O.2   1 <1>  -0.5700 
  2 C       -1.7740     1.4360    -1.6770 C.2   1 <1>   0.7060 
  3 O       -3.0610     1.0850    -1.7630 O.3   1 <1>  -0.2270 
  4 C       -1.3370     2.1940    -0.5260 C.2   1 <1>   0.1230 
  5 C       -3.9590     1.4160    -0.8390 C.2   1 <1>  -0.0620 
  6 N        0.0370     2.5290    -0.4650 N.am  1 <1>  -0.5390 
  7 C       -2.2640     2.5450     0.4090 C.2   1 <1>  -0.1500 
  8 C       -3.6320     2.1580     0.2590 C.2   1 <1>   0.0140 
  9 C       -5.3660     0.9080    -1.1150 C.3   1 <1>  -0.0220 
 10 C        0.8260     3.0600     0.5280 C.2   1 <1>   0.5440 
 11 C       -4.6280     2.5440     1.2300 C.2   1 <1>   0.4950 
 12 C       -6.2240     0.8530     0.1680 C.3   1 <1>   0.0000 
 13 O        0.3630     3.2240     1.6380 O.2   1 <1>  -0.5700 
 14 C        2.2120     3.3880     0.2500 C.ar  1 <1>   0.0860 
 15 O       -4.3880     3.1610     2.2350 O.2   1 <1>  -0.5700 
 16 C       -6.0770     2.1730     0.9560 C.3   1 <1>  -0.0990 
 17 C       -7.6990     0.6450    -0.2090 C.3   1 <1>  -0.2400 
 18 C       -5.7820    -0.3330     1.0470 C.3   1 <1>  -0.2400 
 19 C        3.1630     3.3980     1.2740 C.ar  1 <1>  -0.1500 
 20 C        2.6590     3.7050    -1.0360 C.ar  1 <1>  -0.1500 
 21 C        4.4920     3.6920     1.0330 C.ar  1 <1>  -0.1500 
 22 C        3.9870     3.9990    -1.2850 C.ar  1 <1>  -0.1500 
 23 C        4.9150     3.9930    -0.2580 C.ar  1 <1>   0.0820 
 24 O        6.1930     4.2890    -0.5840 O.3   1 <1>  -0.3620 
 25 C        7.2170     4.3260     0.3850 C.3   1 <1>   0.0400 
 26 H        0.5520     2.2340    -1.3000 H     1 <1>   0.3700 
 27 H       -2.0100     3.1200     1.2830 H     1 <1>   0.1500 
 28 H       -5.3140    -0.0740    -1.5550 H     1 <1>   0.0800 
 29 H       -5.8210     1.5620    -1.8390 H     1 <1>   0.0800 
 30 H       -6.5190     2.9810     0.4020 H     1 <1>   0.0800 
 31 H       -6.5990     2.1000     1.8940 H     1 <1>   0.0800 
 32 H       -8.0570     1.4560    -0.8180 H     1 <1>   0.0800 
 33 H       -8.3110     0.5930     0.6750 H     1 <1>   0.0800 
 34 H       -7.8240    -0.2710    -0.7590 H     1 <1>   0.0800 
 35 H       -4.7470    -0.2530     1.3300 H     1 <1>   0.0800 
 36 H       -5.9100    -1.2620     0.5210 H     1 <1>   0.0800 
 37 H       -6.3700    -0.3760     1.9470 H     1 <1>   0.0800 
 38 H        2.8460     3.1690     2.2770 H     1 <1>   0.1500 
 39 H        1.9660     3.7340    -1.8580 H     1 <1>   0.1500 
 40 H        5.1810     3.6830     1.8560 H     1 <1>   0.1500 
 41 H        4.3180     4.2390    -2.2800 H     1 <1>   0.1500 
 42 H        8.1360     4.5840    -0.1100 H     1 <1>   0.0800 
 43 H        7.3070     3.3530     0.8360 H     1 <1>   0.0800 
 44 H        6.9760     5.0720     1.1210 H     1 <1>   0.0800 
@<TRIPOS>BOND
  1   1   2  2   
  2   2   3  1   
  3   2   4  1   
  4   3   5  1   
  5   4   6  1   
  6   4   7  2   
  7   5   8  2   
  8   5   9  1   
  9   6  10  am  
 10   6  26  1   
 11   7   8  1   
 12   7  27  1   
 13   8  11  1   
 14   9  12  1   
 15   9  28  1   
 16   9  29  1   
 17  10  13  2   
 18  10  14  1   
 19  11  15  2   
 20  11  16  1   
 21  12  16  1   
 22  12  17  1   
 23  12  18  1   
 24  14  19  ar  
 25  14  20  ar  
 26  16  30  1   
 27  16  31  1   
 28  17  32  1   
 29  17  33  1   
 30  17  34  1   
 31  18  35  1   
 32  18  36  1   
 33  18  37  1   
 34  19  21  ar  
 35  19  38  1   
 36  20  22  ar  
 37  20  39  1   
 38  21  23  ar  
 39  21  40  1   
 40  22  23  ar  
 41  22  41  1   
 42  23  24  1   
 43  24  25  1   
 44  25  42  1   
 45  25  43  1   
 46  25  44  1   
@<TRIPOS>SUBSTRUCTURE
  1 ****   4 GROUP 4 **** **** 0

# MOE 2024.06 (io_trps.svl 2023.06)
