@<TRIPOS>MOLECULE
2-Dimethylaminomethyl-benzylamine
30 30 1 0 0 
SMALL
USER_CHARGES


@<TRIPOS>ATOM
  1 N       -0.9920     0.4320    -0.1250 N.4   1 <1>  -0.9590 
  2 C       -1.0150    -0.6780     0.8830 C.3   1 <1>   0.4860 
  3 C       -0.8130     1.7600     0.5480 C.3   1 <1>   0.2630 
  4 C       -2.2390     0.4730    -0.9610 C.3   1 <1>   0.2630 
  5 C       -0.9780    -2.0540     0.2110 C.ar  1 <1>  -0.1440 
  6 C        0.1770    -2.8300     0.0300 C.ar  1 <1>  -0.1430 
  7 C       -2.2050    -2.5690    -0.1910 C.ar  1 <1>  -0.1500 
  8 C        0.0550    -4.0890    -0.5550 C.ar  1 <1>  -0.1500 
  9 C        1.5670    -2.3890     0.4890 C.3   1 <1>   0.4860 
 10 C       -2.3030    -3.8090    -0.7880 C.ar  1 <1>  -0.1500 
 11 C       -1.1700    -4.5700    -0.9710 C.ar  1 <1>  -0.1500 
 12 N        2.5680    -2.6820    -0.5650 N.4   1 <1>  -0.8530 
 13 H       -0.2100     0.2790    -0.7730 H     1 <1>   0.4500 
 14 H       -1.9120    -0.6030     1.4780 H     1 <1>   0.0800 
 15 H       -0.1780    -0.5810     1.5530 H     1 <1>   0.0800 
 16 H       -1.6380     1.9590     1.2140 H     1 <1>   0.0800 
 17 H       -0.7730     2.5500    -0.1870 H     1 <1>   0.0800 
 18 H        0.1010     1.7790     1.1180 H     1 <1>   0.0800 
 19 H       -3.1100     0.5850    -0.3350 H     1 <1>   0.0800 
 20 H       -2.2030     1.3040    -1.6480 H     1 <1>   0.0800 
 21 H       -2.3400    -0.4340    -1.5350 H     1 <1>   0.0800 
 22 H       -3.1200    -2.0200    -0.0380 H     1 <1>   0.1500 
 23 H        0.8980    -4.7440    -0.6920 H     1 <1>   0.1500 
 24 H        1.8270    -2.9130     1.3970 H     1 <1>   0.0800 
 25 H        1.5650    -1.3330     0.7000 H     1 <1>   0.0800 
 26 H       -3.2620    -4.1910    -1.1020 H     1 <1>   0.1500 
 27 H       -1.2500    -5.5440    -1.4280 H     1 <1>   0.1500 
 28 H        2.6950    -3.6970    -0.6510 H     1 <1>   0.4500 
 29 H        3.4860    -2.2740    -0.3570 H     1 <1>   0.4500 
 30 H        2.2480    -2.3460    -1.4800 H     1 <1>   0.4500 
@<TRIPOS>BOND
  1   1   2  1   
  2   1   3  1   
  3   1   4  1   
  4   1  13  1   
  5   2   5  1   
  6   2  14  1   
  7   2  15  1   
  8   3  16  1   
  9   3  17  1   
 10   3  18  1   
 11   4  19  1   
 12   4  20  1   
 13   4  21  1   
 14   5   6  ar  
 15   5   7  ar  
 16   6   8  ar  
 17   6   9  1   
 18   7  10  ar  
 19   7  22  1   
 20   8  11  ar  
 21   8  23  1   
 22   9  12  1   
 23   9  24  1   
 24   9  25  1   
 25  10  11  ar  
 26  10  26  1   
 27  11  27  1   
 28  12  28  1   
 29  12  29  1   
 30  12  30  1   
@<TRIPOS>SUBSTRUCTURE
  1 ****   5 GROUP 4 **** **** 0

# MOE 2024.06 (io_trps.svl 2023.06)
