@<TRIPOS>MOLECULE
3-(3-Hydroxymethyl-piperidin-1-yl)-propionic acid
30 30 1 0 0 
SMALL
USER_CHARGES


@<TRIPOS>ATOM
  1 O       -2.5640     2.3140     0.5850 O.co2 1 <1>  -0.9000 
  2 C       -2.8300     1.6810    -0.4310 C.2   1 <1>   0.9060 
  3 O       -3.7520     1.9790    -1.1940 O.co2 1 <1>  -0.9000 
  4 C       -2.3070     0.2910    -0.5580 C.3   1 <1>  -0.2660 
  5 C       -3.1430    -0.5750     0.3670 C.3   1 <1>   0.3430 
  6 N       -4.5810    -0.2510     0.1750 N.4   1 <1>  -0.9590 
  7 C       -5.1570     0.4100     1.3770 C.3   1 <1>   0.3430 
  8 C       -5.4150    -1.3220    -0.4240 C.3   1 <1>   0.3430 
  9 C       -6.4760     1.1220     1.0280 C.3   1 <1>  -0.0800 
 10 C       -6.9070    -0.9610    -0.3550 C.3   1 <1>  -0.1600 
 11 C       -7.1470     0.5540    -0.2460 C.3   1 <1>  -0.1600 
 12 C       -6.2390     2.6380     0.9390 C.3   1 <1>   0.1200 
 13 O       -7.4550     3.2730     0.7430 O.3   1 <1>  -0.6800 
 14 H       -1.2750     0.2730    -0.2660 H     1 <1>   0.0800 
 15 H       -2.3930    -0.0350    -1.5770 H     1 <1>   0.0800 
 16 H       -2.8590    -0.3550     1.3840 H     1 <1>   0.0800 
 17 H       -2.9540    -1.6180     0.1750 H     1 <1>   0.0800 
 18 H       -4.5670     0.5400    -0.5210 H     1 <1>   0.4500 
 19 H       -4.4550     1.1350     1.7640 H     1 <1>   0.0800 
 20 H       -5.3360    -0.3300     2.1390 H     1 <1>   0.0800 
 21 H       -5.2470    -2.2540     0.0900 H     1 <1>   0.0800 
 22 H       -5.1250    -1.4470    -1.4550 H     1 <1>   0.0800 
 23 H       -7.1330     0.9610     1.8640 H     1 <1>   0.0800 
 24 H       -7.3430    -1.4500     0.4980 H     1 <1>   0.0800 
 25 H       -7.4000    -1.3490    -1.2290 H     1 <1>   0.0800 
 26 H       -6.7340     1.0360    -1.1180 H     1 <1>   0.0800 
 27 H       -8.2040     0.7640    -0.2240 H     1 <1>   0.0800 
 28 H       -5.5810     2.9020     0.1270 H     1 <1>   0.0800 
 29 H       -5.8180     3.0130     1.8570 H     1 <1>   0.0800 
 30 H       -7.6400     3.3380    -0.2140 H     1 <1>   0.4000 
@<TRIPOS>BOND
  1   1   2  ar  
  2   2   3  ar  
  3   2   4  1   
  4   4   5  1   
  5   4  14  1   
  6   4  15  1   
  7   5   6  1   
  8   5  16  1   
  9   5  17  1   
 10   6   7  1   
 11   6   8  1   
 12   6  18  1   
 13   7   9  1   
 14   7  19  1   
 15   7  20  1   
 16   8  10  1   
 17   8  21  1   
 18   8  22  1   
 19   9  11  1   
 20   9  12  1   
 21   9  23  1   
 22  10  11  1   
 23  10  24  1   
 24  10  25  1   
 25  11  26  1   
 26  11  27  1   
 27  12  13  1   
 28  12  28  1   
 29  12  29  1   
 30  13  30  1   
@<TRIPOS>SUBSTRUCTURE
  1 ****   6 GROUP 4 **** **** 0

# MOE 2024.06 (io_trps.svl 2023.06)
