@<TRIPOS>MOLECULE
7-(3-Allyloxy-2-hydroxy-propyl)-1,3-dimethyl-8-piperidin-1-yl-3,7-dihydro-purine
55 57 1 0 0 
SMALL
USER_CHARGES


@<TRIPOS>ATOM
  1 O        1.7890     3.1510     1.5950 O.2   1 <1>  -0.5740 
  2 C        2.8030     2.8960     0.9780 C.2   1 <1>   0.6870 
  3 N        3.1630     3.6700    -0.1190 N.am  1 <1>  -0.4250 
  4 N        3.6020     1.8310     1.3680 N.am  1 <1>  -0.4410 
  5 C        4.3060     3.3860    -0.8540 C.2   1 <1>   0.7000 
  6 C        2.2740     4.8050    -0.5230 C.3   1 <1>   0.0530 
  7 C        4.7610     1.5940     0.6540 C.2   1 <1>   0.4210 
  8 C        3.2400     0.9900     2.5490 C.3   1 <1>   0.0530 
  9 O        4.5710     4.0290    -1.8580 O.2   1 <1>  -0.5740 
 10 C        5.1560     2.3200    -0.4090 C.2   1 <1>   0.2710 
 11 N        5.6780     0.6210     0.8740 N.pl3 1 <1>  -0.7030 
 12 N        6.3890     1.7740    -0.8290 N.pl3 1 <1>  -0.7670 
 13 C        6.6610     0.7260    -0.0240 C.cat 1 <1>   1.0690 
 14 C        7.2120     2.4090    -1.9100 C.3   1 <1>   0.3490 
 15 N        7.6780    -0.1760    -0.0400 N.pl3 1 <1>  -0.5960 
 16 C        8.1640     3.5160    -1.3860 C.3   1 <1>   0.1940 
 17 C        7.5780    -1.5050     0.6410 C.3   1 <1>   0.1610 
 18 C        9.0550     0.0300    -0.5810 C.3   1 <1>   0.1610 
 19 O        8.7300     3.1510    -0.1700 O.3   1 <1>  -0.6830 
 20 C        7.4900     4.8800    -1.1790 C.3   1 <1>   0.1130 
 21 C        8.5290    -1.5410     1.8400 C.3   1 <1>  -0.1670 
 22 C       10.0630     0.0170     0.5740 C.3   1 <1>  -0.1670 
 23 O        8.3510     5.7050    -0.4480 O.3   1 <1>  -0.5640 
 24 C        9.9740    -1.2730     1.4010 C.3   1 <1>  -0.1670 
 25 C        7.9060     7.0120    -0.2430 C.3   1 <1>   0.2520 
 26 C        6.6730     7.0170     0.6490 C.2   1 <1>  -0.2940 
 27 C        6.6570     7.3730     1.9370 C.2   1 <1>  -0.3060 
 28 H        1.8900     5.3050     0.3500 H     1 <1>   0.0730 
 29 H        1.4460     4.4270    -1.0980 H     1 <1>   0.0730 
 30 H        2.8110     5.5280    -1.1140 H     1 <1>   0.0730 
 31 H        2.1980     1.1060     2.7950 H     1 <1>   0.0730 
 32 H        3.8270     1.2880     3.4000 H     1 <1>   0.0730 
 33 H        3.4160    -0.0490     2.3350 H     1 <1>   0.0730 
 34 H        5.6900    -0.0450     1.6380 H     1 <1>   0.4450 
 35 H        6.5670     2.8280    -2.6630 H     1 <1>   0.0730 
 36 H        7.7860     1.6550    -2.4160 H     1 <1>   0.0730 
 37 H        8.9670     3.6500    -2.0910 H     1 <1>   0.0730 
 38 H        7.8600    -2.2770    -0.0570 H     1 <1>   0.0730 
 39 H        6.5730    -1.7190     0.9590 H     1 <1>   0.0730 
 40 H        9.1590     0.9540    -1.1050 H     1 <1>   0.0730 
 41 H        9.2880    -0.7640    -1.2710 H     1 <1>   0.0730 
 42 H        9.0390     3.9930     0.2480 H     1 <1>   0.3950 
 43 H        6.5910     4.7580    -0.6100 H     1 <1>   0.0730 
 44 H        7.2640     5.3460    -2.1230 H     1 <1>   0.0730 
 45 H        8.4760    -2.5070     2.3120 H     1 <1>   0.0730 
 46 H        8.2270    -0.8050     2.5660 H     1 <1>   0.0730 
 47 H        9.8820     0.8700     1.2070 H     1 <1>   0.0730 
 48 H       11.0580     0.1190     0.1780 H     1 <1>   0.0730 
 49 H       10.3260    -2.1000     0.8070 H     1 <1>   0.0730 
 50 H       10.6120    -1.1960     2.2650 H     1 <1>   0.0730 
 51 H        7.7060     7.4740    -1.1950 H     1 <1>   0.0730 
 52 H        8.7080     7.5460     0.2370 H     1 <1>   0.0730 
 53 H        5.7830     6.7080     0.1300 H     1 <1>   0.1430 
 54 H        5.7730     7.3770     2.5510 H     1 <1>   0.1430 
 55 H        7.5270     7.6890     2.4870 H     1 <1>   0.1430 
@<TRIPOS>BOND
  1   1   2  2   
  2   2   3  am  
  3   2   4  am  
  4   3   5  am  
  5   3   6  1   
  6   4   7  1   
  7   4   8  1   
  8   5   9  2   
  9   5  10  1   
 10   6  28  1   
 11   6  29  1   
 12   6  30  1   
 13   7  10  2   
 14   7  11  1   
 15   8  31  1   
 16   8  32  1   
 17   8  33  1   
 18  10  12  1   
 19  11  13  ar  
 20  11  34  1   
 21  12  13  ar  
 22  12  14  1   
 23  13  15  ar  
 24  14  16  1   
 25  14  35  1   
 26  14  36  1   
 27  15  17  1   
 28  15  18  1   
 29  16  19  1   
 30  16  20  1   
 31  16  37  1   
 32  17  21  1   
 33  17  38  1   
 34  17  39  1   
 35  18  22  1   
 36  18  40  1   
 37  18  41  1   
 38  19  42  1   
 39  20  23  1   
 40  20  43  1   
 41  20  44  1   
 42  21  24  1   
 43  21  45  1   
 44  21  46  1   
 45  22  24  1   
 46  22  47  1   
 47  22  48  1   
 48  23  25  1   
 49  24  49  1   
 50  24  50  1   
 51  25  26  1   
 52  25  51  1   
 53  25  52  1   
 54  26  27  2   
 55  26  53  1   
 56  27  54  1   
 57  27  55  1   
@<TRIPOS>SUBSTRUCTURE
  1 ****  10 GROUP 4 **** **** 0

# MOE 2024.06 (io_trps.svl 2023.06)
