@<TRIPOS>MOLECULE
N-[3-Chloro-2-(4-ethyl-piperazin-1-yl)-phenyl]-2-(4-methoxy-phenoxy)-acetamide
55 57 1 0 0 
SMALL
USER_CHARGES


@<TRIPOS>ATOM
  1 CL       0.4810     1.4600     0.9920 Cl    1 <1>  -0.1770 
  2 C        2.0980     1.0330     0.4610 C.ar  1 <1>   0.1770 
  3 C        3.0090     2.0280     0.0970 C.ar  1 <1>   0.1000 
  4 C        2.4110    -0.3120     0.4130 C.ar  1 <1>  -0.1500 
  5 N        2.6880     3.4030     0.1580 N.pl3 1 <1>  -0.8380 
  6 C        4.2770     1.6110    -0.3510 C.ar  1 <1>   0.1170 
  7 C        3.6660    -0.7030    -0.0160 C.ar  1 <1>  -0.1500 
  8 C        1.9960     3.9950    -1.0270 C.3   1 <1>   0.2090 
  9 C        2.5330     4.0830     1.4790 C.3   1 <1>   0.2090 
 10 N        5.2650     2.5300    -0.7470 N.am  1 <1>  -0.5470 
 11 C        4.5860     0.2580    -0.3960 C.ar  1 <1>  -0.1500 
 12 C        0.5680     4.4620    -0.6890 C.3   1 <1>   0.3430 
 13 C        1.0970     4.6030     1.7190 C.3   1 <1>   0.3430 
 14 C        5.2740     3.3450    -1.8410 C.2   1 <1>   0.5690 
 15 N        0.5230     5.3440     0.5340 N.4   1 <1>  -0.9590 
 16 O        4.4230     3.3110    -2.7010 O.2   1 <1>  -0.5700 
 17 C        6.4130     4.3440    -1.9890 C.3   1 <1>   0.1810 
 18 C       -0.8610     5.8200     0.7810 C.3   1 <1>   0.3430 
 19 O        7.0730     4.5500    -0.7460 O.3   1 <1>  -0.3630 
 20 C       -0.8380     6.9780     1.7710 C.3   1 <1>  -0.2400 
 21 C        8.0850     5.4500    -0.6360 C.ar  1 <1>   0.0830 
 22 C        8.5750     6.1990    -1.7030 C.ar  1 <1>  -0.1500 
 23 C        8.6400     5.6120     0.6230 C.ar  1 <1>  -0.1500 
 24 C        9.6070     7.0970    -1.4960 C.ar  1 <1>  -0.1500 
 25 C        9.6730     6.5100     0.8290 C.ar  1 <1>  -0.1500 
 26 C       10.1620     7.2610    -0.2360 C.ar  1 <1>   0.0830 
 27 O       11.1710     8.1640    -0.1270 O.3   1 <1>  -0.3620 
 28 C       11.8030     8.4030     1.1110 C.3   1 <1>   0.0400 
 29 H        1.6800    -1.0450     0.7050 H     1 <1>   0.1500 
 30 H        3.9240    -1.7480    -0.0600 H     1 <1>   0.1500 
 31 H        1.9520     3.2660    -1.8190 H     1 <1>   0.0800 
 32 H        2.5740     4.8260    -1.3910 H     1 <1>   0.0800 
 33 H        3.2220     4.9080     1.5220 H     1 <1>   0.0800 
 34 H        2.7990     3.3990     2.2670 H     1 <1>   0.0800 
 35 H        6.0240     2.6950    -0.0840 H     1 <1>   0.3700 
 36 H        5.5590    -0.0470    -0.7390 H     1 <1>   0.1500 
 37 H       -0.0410     3.5880    -0.5270 H     1 <1>   0.0800 
 38 H        0.1670     4.9890    -1.5380 H     1 <1>   0.0800 
 39 H        1.1070     5.2440     2.5840 H     1 <1>   0.0800 
 40 H        0.4680     3.7600     1.9500 H     1 <1>   0.0800 
 41 H        1.1260     6.1550     0.3490 H     1 <1>   0.4500 
 42 H        6.0160     5.2850    -2.3240 H     1 <1>   0.0800 
 43 H        7.1270     3.9700    -2.6980 H     1 <1>   0.0800 
 44 H       -1.4700     5.0150     1.1620 H     1 <1>   0.0800 
 45 H       -1.2970     6.1630    -0.1440 H     1 <1>   0.0800 
 46 H       -0.5010     6.6620     2.7420 H     1 <1>   0.0800 
 47 H       -1.8360     7.3620     1.8840 H     1 <1>   0.0800 
 48 H       -0.2160     7.7790     1.4110 H     1 <1>   0.0800 
 49 H        8.1770     6.1030    -2.6950 H     1 <1>   0.1500 
 50 H        8.2600     5.0310     1.4440 H     1 <1>   0.1500 
 51 H        9.9930     7.6810    -2.3120 H     1 <1>   0.1500 
 52 H       10.0800     6.6110     1.8170 H     1 <1>   0.1500 
 53 H       12.5630     9.1490     0.9580 H     1 <1>   0.0800 
 54 H       12.2530     7.4890     1.4560 H     1 <1>   0.0800 
 55 H       11.0730     8.7650     1.8120 H     1 <1>   0.0800 
@<TRIPOS>BOND
  1   1   2  1   
  2   2   3  ar  
  3   2   4  ar  
  4   3   5  1   
  5   3   6  ar  
  6   4   7  ar  
  7   4  29  1   
  8   5   8  1   
  9   5   9  1   
 10   6  10  1   
 11   6  11  ar  
 12   7  11  ar  
 13   7  30  1   
 14   8  12  1   
 15   8  31  1   
 16   8  32  1   
 17   9  13  1   
 18   9  33  1   
 19   9  34  1   
 20  10  14  am  
 21  10  35  1   
 22  11  36  1   
 23  12  15  1   
 24  12  37  1   
 25  12  38  1   
 26  13  15  1   
 27  13  39  1   
 28  13  40  1   
 29  14  16  2   
 30  14  17  1   
 31  15  18  1   
 32  15  41  1   
 33  17  19  1   
 34  17  42  1   
 35  17  43  1   
 36  18  20  1   
 37  18  44  1   
 38  18  45  1   
 39  19  21  1   
 40  20  46  1   
 41  20  47  1   
 42  20  48  1   
 43  21  22  ar  
 44  21  23  ar  
 45  22  24  ar  
 46  22  49  1   
 47  23  25  ar  
 48  23  50  1   
 49  24  26  ar  
 50  24  51  1   
 51  25  26  ar  
 52  25  52  1   
 53  26  27  1   
 54  27  28  1   
 55  28  53  1   
 56  28  54  1   
 57  28  55  1   
@<TRIPOS>SUBSTRUCTURE
  1 ****  10 GROUP 4 **** **** 0

# MOE 2024.06 (io_trps.svl 2023.06)
