@<TRIPOS>MOLECULE
5-Oxo-1-p-tolyl-pyrrolidine-3-carboxylic acid (3-isopropoxy-propyl)-amide
49 50 1 0 0 
SMALL
USER_CHARGES


@<TRIPOS>ATOM
  1 O        1.3240     0.5880    -0.4930 O.2   1 <1>  -0.5700 
  2 C        2.5150     0.3970    -0.5150 C.2   1 <1>   0.5690 
  3 N        3.1760    -0.7570    -0.2040 N.am  1 <1>  -0.4770 
  4 C        3.4690     1.4830    -0.9250 C.3   1 <1>  -0.0990 
  5 C        2.6410    -2.0030     0.1820 C.ar  1 <1>   0.1170 
  6 C        4.6340    -0.5700    -0.3620 C.3   1 <1>   0.1400 
  7 C        4.7750     0.7170    -1.1870 C.3   1 <1>  -0.0190 
  8 C        1.4250    -2.4530    -0.3210 C.ar  1 <1>  -0.1500 
  9 C        3.3230    -2.8290     1.0720 C.ar  1 <1>  -0.1500 
 10 C        6.0370     1.5050    -0.8710 C.2   1 <1>   0.5690 
 11 C        0.9100    -3.6830     0.0450 C.ar  1 <1>  -0.1500 
 12 C        2.8120    -4.0610     1.4390 C.ar  1 <1>  -0.1500 
 13 O        6.9310     0.9750    -0.2590 O.2   1 <1>  -0.5700 
 14 N        6.1280     2.7900    -1.3040 N.am  1 <1>  -0.7300 
 15 C        1.6010    -4.4970     0.9280 C.ar  1 <1>  -0.1430 
 16 C        7.2600     3.6980    -1.0280 C.3   1 <1>   0.1400 
 17 C        1.0360    -5.8470     1.3280 C.3   1 <1>  -0.0970 
 18 C        6.7130     5.0290    -0.5210 C.3   1 <1>  -0.1600 
 19 C        7.8480     5.9860    -0.1720 C.3   1 <1>   0.1200 
 20 O        7.2710     7.1840     0.2310 O.3   1 <1>  -0.5600 
 21 C        8.1610     8.1790     0.6110 C.3   1 <1>   0.2000 
 22 C        8.5020     7.9950     2.0900 C.3   1 <1>  -0.2400 
 23 C        7.4560     9.5100     0.3710 C.3   1 <1>  -0.2400 
 24 H        3.5710     2.1720    -0.1070 H     1 <1>   0.0800 
 25 H        3.1150     1.9930    -1.8010 H     1 <1>   0.0800 
 26 H        5.0800    -1.4100    -0.8650 H     1 <1>   0.0800 
 27 H        5.0760    -0.4540     0.6140 H     1 <1>   0.0800 
 28 H        4.8120     0.4340    -2.2230 H     1 <1>   0.0800 
 29 H        0.8740    -1.8360    -1.0070 H     1 <1>   0.1500 
 30 H        4.2590    -2.5110     1.4900 H     1 <1>   0.1500 
 31 H       -0.0330    -4.0030    -0.3610 H     1 <1>   0.1500 
 32 H        3.3610    -4.6800     2.1270 H     1 <1>   0.1500 
 33 H        5.3620     3.2040    -1.8370 H     1 <1>   0.3700 
 34 H        7.8260     3.8460    -1.9330 H     1 <1>   0.0800 
 35 H        7.9090     3.2600    -0.2870 H     1 <1>   0.0800 
 36 H       -0.0390    -5.8160     1.3360 H     1 <1>   0.0800 
 37 H        1.3740    -6.1210     2.3120 H     1 <1>   0.0800 
 38 H        1.3570    -6.5970     0.6290 H     1 <1>   0.0800 
 39 H        6.1230     4.8590     0.3620 H     1 <1>   0.0800 
 40 H        6.1000     5.4800    -1.2810 H     1 <1>   0.0800 
 41 H        8.4680     6.1750    -1.0320 H     1 <1>   0.0800 
 42 H        8.4420     5.5910     0.6340 H     1 <1>   0.0800 
 43 H        9.0460     8.1240    -0.0010 H     1 <1>   0.0800 
 44 H        7.6030     7.9910     2.6800 H     1 <1>   0.0800 
 45 H        9.1270     8.8030     2.4240 H     1 <1>   0.0800 
 46 H        9.0350     7.0760     2.2470 H     1 <1>   0.0800 
 47 H        6.5560     9.5660     0.9560 H     1 <1>   0.0800 
 48 H        7.2090     9.6080    -0.6710 H     1 <1>   0.0800 
 49 H        8.1000    10.3240     0.6470 H     1 <1>   0.0800 
@<TRIPOS>BOND
  1   1   2  2   
  2   2   3  am  
  3   2   4  1   
  4   3   5  1   
  5   3   6  1   
  6   4   7  1   
  7   4  24  1   
  8   4  25  1   
  9   5   8  ar  
 10   5   9  ar  
 11   6   7  1   
 12   6  26  1   
 13   6  27  1   
 14   7  10  1   
 15   7  28  1   
 16   8  11  ar  
 17   8  29  1   
 18   9  12  ar  
 19   9  30  1   
 20  10  13  2   
 21  10  14  am  
 22  11  15  ar  
 23  11  31  1   
 24  12  15  ar  
 25  12  32  1   
 26  14  16  1   
 27  14  33  1   
 28  15  17  1   
 29  16  18  1   
 30  16  34  1   
 31  16  35  1   
 32  17  36  1   
 33  17  37  1   
 34  17  38  1   
 35  18  19  1   
 36  18  39  1   
 37  18  40  1   
 38  19  20  1   
 39  19  41  1   
 40  19  42  1   
 41  20  21  1   
 42  21  22  1   
 43  21  23  1   
 44  21  43  1   
 45  22  44  1   
 46  22  45  1   
 47  22  46  1   
 48  23  47  1   
 49  23  48  1   
 50  23  49  1   
@<TRIPOS>SUBSTRUCTURE
  1 ****   7 GROUP 4 **** **** 0

# MOE 2024.06 (io_trps.svl 2023.06)
