@<TRIPOS>MOLECULE
4-Benzo[1,3]dioxol-5-yl-6-(4-methyl-piperidin-1-ylmethyl)-2-oxo-1,2,3,4-tetrahyd
57 60 1 0 0 
SMALL
USER_CHARGES


@<TRIPOS>ATOM
  1 O        0.3410     1.0300    -0.3870 O.2   1 <1>  -0.5700 
  2 C       -0.8160     1.2560    -0.1400 C.2   1 <1>   0.6900 
  3 N       -1.7890     0.6550    -0.8680 N.am  1 <1>  -0.5390 
  4 N       -1.1720     2.1020     0.8370 N.am  1 <1>  -0.7300 
  5 C       -3.1480     0.8360    -0.6460 C.2   1 <1>  -0.0290 
  6 C       -2.5440     2.6160     1.0090 C.3   1 <1>   0.5020 
  7 C       -3.5740     1.7410     0.2830 C.2   1 <1>  -0.1240 
  8 C       -4.0680    -0.0530    -1.4870 C.3   1 <1>   0.4810 
  9 C       -2.5890     4.0500     0.4860 C.ar  1 <1>  -0.1440 
 10 C       -4.9150     2.0080     0.7110 C.2   1 <1>   0.7060 
 11 N       -4.6330    -1.1540    -0.6550 N.4   1 <1>  -0.9590 
 12 C       -3.0900     5.0610     1.3040 C.ar  1 <1>  -0.1500 
 13 C       -2.1440     4.3650    -0.8020 C.ar  1 <1>  -0.1500 
 14 O       -5.1900     2.7250     1.6490 O.2   1 <1>  -0.5700 
 15 O       -5.9190     1.3890     0.0770 O.3   1 <1>  -0.4300 
 16 C       -3.5820    -1.9740     0.0220 C.3   1 <1>   0.3430 
 17 C       -5.5760    -1.9940    -1.4450 C.3   1 <1>   0.3430 
 18 C       -3.1280     6.3490     0.8100 C.ar  1 <1>   0.0830 
 19 C       -2.1920     5.6680    -1.2820 C.ar  1 <1>  -0.1500 
 20 C       -7.2680     1.6620     0.4070 C.3   1 <1>   0.1200 
 21 C       -4.2450    -2.9720     0.9720 C.3   1 <1>  -0.1600 
 22 C       -6.2720    -2.9920    -0.5190 C.3   1 <1>  -0.1600 
 23 O       -3.5650     7.4570     1.4180 O.3   1 <1>  -0.3620 
 24 C       -2.6930     6.6450    -0.4480 C.ar  1 <1>   0.0830 
 25 C       -8.1600     0.8130    -0.4920 C.3   1 <1>  -0.2400 
 26 C       -5.2620    -3.8620     0.2420 C.3   1 <1>  -0.0800 
 27 C       -3.3990     8.5250     0.4880 C.3   1 <1>   0.4000 
 28 O       -2.8360     7.9520    -0.6900 O.3   1 <1>  -0.3620 
 29 C       -5.9810    -4.7830     1.2320 C.3   1 <1>  -0.2400 
 30 H       -1.3920     0.0720    -1.6090 H     1 <1>   0.3700 
 31 H       -0.4280     2.6760     1.2340 H     1 <1>   0.3700 
 32 H       -2.7540     2.6130     2.0670 H     1 <1>   0.0800 
 33 H       -4.8720     0.5480    -1.8820 H     1 <1>   0.0800 
 34 H       -3.5180    -0.4600    -2.3180 H     1 <1>   0.0800 
 35 H       -5.1900    -0.6940     0.0800 H     1 <1>   0.4500 
 36 H       -3.4530     4.8690     2.2980 H     1 <1>   0.1500 
 37 H       -1.7500     3.5980    -1.4450 H     1 <1>   0.1500 
 38 H       -2.9150    -1.3400     0.5840 H     1 <1>   0.0800 
 39 H       -3.0030    -2.5090    -0.7140 H     1 <1>   0.0800 
 40 H       -5.0380    -2.5300    -2.2100 H     1 <1>   0.0800 
 41 H       -6.3180    -1.3720    -1.9200 H     1 <1>   0.0800 
 42 H       -1.8500     5.9230    -2.2690 H     1 <1>   0.1500 
 43 H       -7.4280     1.4260     1.4460 H     1 <1>   0.0800 
 44 H       -7.4520     2.7130     0.2480 H     1 <1>   0.0800 
 45 H       -4.7240    -2.4350     1.7720 H     1 <1>   0.0800 
 46 H       -3.4810    -3.5900     1.4120 H     1 <1>   0.0800 
 47 H       -6.9130    -3.6240    -1.1090 H     1 <1>   0.0800 
 48 H       -6.8990    -2.4580     0.1740 H     1 <1>   0.0800 
 49 H       -7.9990    -0.2330    -0.3080 H     1 <1>   0.0800 
 50 H       -7.9770     1.0410    -1.5270 H     1 <1>   0.0800 
 51 H       -9.1910     1.0350    -0.2790 H     1 <1>   0.0800 
 52 H       -4.7340    -4.4800    -0.4670 H     1 <1>   0.0800 
 53 H       -2.7220     9.2550     0.8940 H     1 <1>   0.0800 
 54 H       -4.3580     8.9550     0.2580 H     1 <1>   0.0800 
 55 H       -6.5250    -4.2140     1.9670 H     1 <1>   0.0800 
 56 H       -5.2720    -5.4100     1.7450 H     1 <1>   0.0800 
 57 H       -6.6760    -5.4220     0.7150 H     1 <1>   0.0800 
@<TRIPOS>BOND
  1   1   2  2   
  2   2   3  am  
  3   2   4  am  
  4   3   5  1   
  5   3  30  1   
  6   4   6  1   
  7   4  31  1   
  8   5   7  2   
  9   5   8  1   
 10   6   7  1   
 11   6   9  1   
 12   6  32  1   
 13   7  10  1   
 14   8  11  1   
 15   8  33  1   
 16   8  34  1   
 17   9  12  ar  
 18   9  13  ar  
 19  10  14  2   
 20  10  15  1   
 21  11  16  1   
 22  11  17  1   
 23  11  35  1   
 24  12  18  ar  
 25  12  36  1   
 26  13  19  ar  
 27  13  37  1   
 28  15  20  1   
 29  16  21  1   
 30  16  38  1   
 31  16  39  1   
 32  17  22  1   
 33  17  40  1   
 34  17  41  1   
 35  18  23  1   
 36  18  24  ar  
 37  19  24  ar  
 38  19  42  1   
 39  20  25  1   
 40  20  43  1   
 41  20  44  1   
 42  21  26  1   
 43  21  45  1   
 44  21  46  1   
 45  22  26  1   
 46  22  47  1   
 47  22  48  1   
 48  23  27  1   
 49  24  28  1   
 50  25  49  1   
 51  25  50  1   
 52  25  51  1   
 53  26  29  1   
 54  26  52  1   
 55  27  28  1   
 56  27  53  1   
 57  27  54  1   
 58  29  55  1   
 59  29  56  1   
 60  29  57  1   
@<TRIPOS>SUBSTRUCTURE
  1 ****   7 GROUP 4 **** **** 0

# MOE 2024.06 (io_trps.svl 2023.06)
