@<TRIPOS>MOLECULE
5-Oxo-1-p-tolyl-pyrrolidine-3-carboxylic acid (3-imidazol-1-yl-propyl)-amide
46 48 1 0 0 
SMALL
USER_CHARGES


@<TRIPOS>ATOM
  1 O        0.8810     0.2580    -0.8130 O.2   1 <1>  -0.5700 
  2 C        2.0280     0.3540    -0.4530 C.2   1 <1>   0.5690 
  3 N        2.8480    -0.6500    -0.0200 N.am  1 <1>  -0.4770 
  4 C        2.7410     1.6780    -0.4580 C.3   1 <1>  -0.0990 
  5 C        2.5720    -2.0280     0.0840 C.ar  1 <1>   0.1170 
  6 C        4.1830    -0.1130     0.3160 C.3   1 <1>   0.1400 
  7 C        4.2150     1.2700    -0.3480 C.3   1 <1>  -0.0190 
  8 C        1.7460    -2.6690    -0.8330 C.ar  1 <1>  -0.1500 
  9 C        3.1300    -2.7930     1.1050 C.ar  1 <1>  -0.1500 
 10 C        5.0680     2.2880     0.3920 C.2   1 <1>   0.5690 
 11 C        1.4940    -4.0260    -0.7420 C.ar  1 <1>  -0.1500 
 12 C        2.8810    -4.1510     1.1980 C.ar  1 <1>  -0.1500 
 13 O        5.1400     2.2420     1.5950 O.2   1 <1>  -0.5700 
 14 N        5.7260     3.2330    -0.3290 N.am  1 <1>  -0.7300 
 15 C        2.0630    -4.7770     0.2730 C.ar  1 <1>  -0.1430 
 16 C        6.5790     4.2910     0.2540 C.3   1 <1>   0.1400 
 17 C        1.7840    -6.2660     0.3740 C.3   1 <1>  -0.0970 
 18 C        8.0280     4.0460    -0.1630 C.3   1 <1>  -0.1600 
 19 C        8.9660     5.0670     0.4920 C.3   1 <1>   0.0960 
 20 N       10.3570     4.8330     0.0620 N.pl3 1 <1>   0.0480 
 21 C       11.0500     5.4820    -0.9010 C.2   1 <1>   0.0360 
 22 C       11.2170     3.9160     0.5400 C.2   1 <1>  -0.3020 
 23 N       12.2590     5.0510    -1.0630 N.2   1 <1>  -0.5650 
 24 C       12.3670     4.0640    -0.1540 C.2   1 <1>   0.0770 
 25 H        2.4240     2.2410     0.4020 H     1 <1>   0.0800 
 26 H        2.5350     2.2260    -1.3580 H     1 <1>   0.0800 
 27 H        4.9610    -0.7520    -0.0640 H     1 <1>   0.0800 
 28 H        4.2640    -0.0370     1.3880 H     1 <1>   0.0800 
 29 H        4.6120     1.1390    -1.3390 H     1 <1>   0.0800 
 30 H        1.2950    -2.1020    -1.6270 H     1 <1>   0.1500 
 31 H        3.7590    -2.3280     1.8400 H     1 <1>   0.1500 
 32 H        0.8490    -4.4930    -1.4650 H     1 <1>   0.1500 
 33 H        3.3240    -4.7180     1.9970 H     1 <1>   0.1500 
 34 H        5.6420     3.2460    -1.3470 H     1 <1>   0.3700 
 35 H        6.4980     4.2740     1.3290 H     1 <1>   0.0800 
 36 H        6.2420     5.2530    -0.0950 H     1 <1>   0.0800 
 37 H        0.8990    -6.4300     0.9620 H     1 <1>   0.0800 
 38 H        2.6100    -6.7730     0.8380 H     1 <1>   0.0800 
 39 H        1.6340    -6.6860    -0.6040 H     1 <1>   0.0800 
 40 H        8.1100     4.1210    -1.2330 H     1 <1>   0.0800 
 41 H        8.3180     3.0570     0.1470 H     1 <1>   0.0800 
 42 H        8.9210     4.9820     1.5630 H     1 <1>   0.0800 
 43 H        8.6840     6.0680     0.2150 H     1 <1>   0.0800 
 44 H       10.6180     6.2830    -1.4740 H     1 <1>   0.1500 
 45 H       10.9750     3.2260     1.3270 H     1 <1>   0.1500 
 46 H       13.2800     3.5020    -0.0470 H     1 <1>   0.1500 
@<TRIPOS>BOND
  1   1   2  2   
  2   2   3  am  
  3   2   4  1   
  4   3   5  1   
  5   3   6  1   
  6   4   7  1   
  7   4  25  1   
  8   4  26  1   
  9   5   8  ar  
 10   5   9  ar  
 11   6   7  1   
 12   6  27  1   
 13   6  28  1   
 14   7  10  1   
 15   7  29  1   
 16   8  11  ar  
 17   8  30  1   
 18   9  12  ar  
 19   9  31  1   
 20  10  13  2   
 21  10  14  am  
 22  11  15  ar  
 23  11  32  1   
 24  12  15  ar  
 25  12  33  1   
 26  14  16  1   
 27  14  34  1   
 28  15  17  1   
 29  16  18  1   
 30  16  35  1   
 31  16  36  1   
 32  17  37  1   
 33  17  38  1   
 34  17  39  1   
 35  18  19  1   
 36  18  40  1   
 37  18  41  1   
 38  19  20  1   
 39  19  42  1   
 40  19  43  1   
 41  20  21  1   
 42  20  22  1   
 43  21  23  2   
 44  21  44  1   
 45  22  24  2   
 46  22  45  1   
 47  23  24  1   
 48  24  46  1   
@<TRIPOS>SUBSTRUCTURE
  1 ****   7 GROUP 4 **** **** 0

# MOE 2024.06 (io_trps.svl 2023.06)
