@<TRIPOS>MOLECULE
N-[5-Chloro-2-(4-propionyl-piperazin-1-yl)-phenyl]-2,2-dimethyl-propionamide
50 51 1 0 0 
SMALL
USER_CHARGES


@<TRIPOS>ATOM
  1 CL       0.4690    -0.2120     0.1840 Cl    1 <1>  -0.1770 
  2 C        1.8250     0.8870     0.0950 C.ar  1 <1>   0.1770 
  3 C        1.5920     2.2470     0.0190 C.ar  1 <1>  -0.1500 
  4 C        3.1070     0.3740     0.1010 C.ar  1 <1>  -0.1500 
  5 C        2.6670     3.1210    -0.0520 C.ar  1 <1>   0.1170 
  6 C        4.1830     1.2430     0.0310 C.ar  1 <1>  -0.1500 
  7 N        2.5440     4.5150    -0.1340 N.am  1 <1>  -0.5470 
  8 C        3.9780     2.6170    -0.0430 C.ar  1 <1>   0.1000 
  9 C        1.4950     5.3820    -0.2280 C.2   1 <1>   0.5690 
 10 N        5.0660     3.5060    -0.1150 N.pl3 1 <1>  -0.8380 
 11 O        0.3450     5.0100    -0.2430 O.2   1 <1>  -0.5700 
 12 C        1.8320     6.8930    -0.3210 C.3   1 <1>   0.0610 
 13 C        5.9930     3.5100     1.0570 C.3   1 <1>   0.2090 
 14 C        5.8090     3.5050    -1.4130 C.3   1 <1>   0.2090 
 15 C        0.5610     7.7600    -0.4310 C.3   1 <1>  -0.2400 
 16 C        2.6070     7.3460     0.9320 C.3   1 <1>  -0.2400 
 17 C        2.7020     7.1710    -1.5630 C.3   1 <1>  -0.2400 
 18 C        6.9540     4.7120     0.9980 C.3   1 <1>   0.1400 
 19 C        6.7610     4.7100    -1.4990 C.3   1 <1>   0.1400 
 20 N        7.6780     4.7680    -0.3140 N.am  1 <1>  -0.6600 
 21 C        9.0400     4.8180    -0.4770 C.2   1 <1>   0.5690 
 22 O        9.5390     4.7750    -1.5770 O.2   1 <1>  -0.5700 
 23 C        9.9580     4.9250     0.7400 C.3   1 <1>  -0.0990 
 24 C       11.4490     5.1280     0.4130 C.3   1 <1>  -0.2400 
 25 H        0.5810     2.6080     0.0170 H     1 <1>   0.1500 
 26 H        3.2570    -0.6890     0.1590 H     1 <1>   0.1500 
 27 H        5.1840     0.8550     0.0310 H     1 <1>   0.1500 
 28 H        3.4770     4.9330    -0.1470 H     1 <1>   0.3700 
 29 H        6.5670     2.5990     1.0690 H     1 <1>   0.0800 
 30 H        5.4170     3.5550     1.9650 H     1 <1>   0.0800 
 31 H        5.1070     3.5450    -2.2280 H     1 <1>   0.0800 
 32 H        6.3790     2.5970    -1.5080 H     1 <1>   0.0800 
 33 H        0.8070     8.8050    -0.4950 H     1 <1>   0.0800 
 34 H       -0.0020     7.4870    -1.3060 H     1 <1>   0.0800 
 35 H       -0.0680     7.6090     0.4290 H     1 <1>   0.0800 
 36 H        2.0230     7.1520     1.8150 H     1 <1>   0.0800 
 37 H        2.8160     8.4010     0.8890 H     1 <1>   0.0800 
 38 H        3.5400     6.8200     1.0220 H     1 <1>   0.0800 
 39 H        2.1870     6.8510    -2.4520 H     1 <1>   0.0800 
 40 H        3.6380     6.6450    -1.5070 H     1 <1>   0.0800 
 41 H        2.9120     8.2230    -1.6520 H     1 <1>   0.0800 
 42 H        7.6420     4.6420     1.8200 H     1 <1>   0.0800 
 43 H        6.3860     5.6160     1.1210 H     1 <1>   0.0800 
 44 H        6.1820     5.6140    -1.5390 H     1 <1>   0.0800 
 45 H        7.3230     4.6430    -2.4150 H     1 <1>   0.0800 
 46 H        9.8550     4.0250     1.3170 H     1 <1>   0.0800 
 47 H        9.6290     5.7540     1.3380 H     1 <1>   0.0800 
 48 H       11.8190     4.2980    -0.1650 H     1 <1>   0.0800 
 49 H       12.0250     5.2040     1.3180 H     1 <1>   0.0800 
 50 H       11.5830     6.0280    -0.1610 H     1 <1>   0.0800 
@<TRIPOS>BOND
  1   1   2  1   
  2   2   3  ar  
  3   2   4  ar  
  4   3   5  ar  
  5   3  25  1   
  6   4   6  ar  
  7   4  26  1   
  8   5   7  1   
  9   5   8  ar  
 10   6   8  ar  
 11   6  27  1   
 12   7   9  am  
 13   7  28  1   
 14   8  10  1   
 15   9  11  2   
 16   9  12  1   
 17  10  13  1   
 18  10  14  1   
 19  12  15  1   
 20  12  16  1   
 21  12  17  1   
 22  13  18  1   
 23  13  29  1   
 24  13  30  1   
 25  14  19  1   
 26  14  31  1   
 27  14  32  1   
 28  15  33  1   
 29  15  34  1   
 30  15  35  1   
 31  16  36  1   
 32  16  37  1   
 33  16  38  1   
 34  17  39  1   
 35  17  40  1   
 36  17  41  1   
 37  18  20  1   
 38  18  42  1   
 39  18  43  1   
 40  19  20  1   
 41  19  44  1   
 42  19  45  1   
 43  20  21  am  
 44  21  22  2   
 45  21  23  1   
 46  23  24  1   
 47  23  46  1   
 48  23  47  1   
 49  24  48  1   
 50  24  49  1   
 51  24  50  1   
@<TRIPOS>SUBSTRUCTURE
  1 ****  10 GROUP 4 **** **** 0

# MOE 2024.06 (io_trps.svl 2023.06)
