@<TRIPOS>MOLECULE
2-{[3-(4-Fluoro-phenyl)-2-methyl-5,6,7,8-tetrahydro-pyrazolo[5,1-b]quinazolin-9-
50 53 1 0 0 
SMALL
USER_CHARGES


@<TRIPOS>ATOM
  1 F        0.4940    -0.6150    -0.6360 F     1 <1>  -0.1900 
  2 C        1.7510    -0.9210    -0.4540 C.ar  1 <1>   0.1900 
  3 C        2.1100    -1.6220     0.6810 C.ar  1 <1>  -0.1500 
  4 C        2.6770    -0.5330    -1.4020 C.ar  1 <1>  -0.1500 
  5 C        3.4430    -1.9420     0.8670 C.ar  1 <1>  -0.1500 
  6 C        4.0060    -0.8610    -1.2010 C.ar  1 <1>  -0.1500 
  7 C        4.4100    -1.5690    -0.0680 C.ar  1 <1>   0.0540 
  8 C        5.7980    -1.8990     0.1280 C.2   1 <1>  -0.0540 
  9 C        6.8560    -1.0480     0.2120 C.2   1 <1>  -0.0680 
 10 C        6.3790    -3.1640     0.2610 C.2   1 <1>   0.1080 
 11 N        6.9510     0.3300     0.1310 N.pl3 1 <1>  -0.5840 
 12 N        7.9880    -1.7910     0.4010 N.pl3 1 <1>   0.5610 
 13 N        7.6640    -3.1220     0.4180 N.2   1 <1>  -0.7070 
 14 C        5.6170    -4.4720     0.2170 C.3   1 <1>  -0.0590 
 15 C        8.1430     0.9500     0.2240 C.2   1 <1>  -0.0380 
 16 C        9.2570    -1.2080     0.4390 C.cat 1 <1>   0.3950 
 17 C        9.3050     0.2130     0.3840 C.2   1 <1>  -0.1240 
 18 C        8.0840     2.4730     0.1790 C.3   1 <1>  -0.0220 
 19 N       10.3460    -2.0240     0.5130 N.pl3 1 <1>  -0.0920 
 20 C       10.6320     0.9720     0.5570 C.3   1 <1>  -0.0220 
 21 C        9.4620     3.1360     0.1130 C.3   1 <1>  -0.1600 
 22 C       11.5490    -1.8630    -0.3590 C.3   1 <1>   0.1860 
 23 C       10.3990    -3.2280     1.4020 C.3   1 <1>   0.1060 
 24 C       10.4420     2.4130     1.0360 C.3   1 <1>  -0.1600 
 25 C       11.7610    -3.0710    -1.2810 C.3   1 <1>   0.1200 
 26 O       12.8380    -2.7780    -2.0940 O.3   1 <1>  -0.6800 
 27 H        1.3600    -1.9060     1.3980 H     1 <1>   0.1500 
 28 H        2.3590     0.0100    -2.2740 H     1 <1>   0.1500 
 29 H        3.7420    -2.4810     1.7480 H     1 <1>   0.1500 
 30 H        4.7430    -0.5730    -1.9310 H     1 <1>   0.1500 
 31 H        6.0770     0.8680     0.0280 H     1 <1>   0.4000 
 32 H        4.7900    -4.4000    -0.4650 H     1 <1>   0.0800 
 33 H        5.2460    -4.7100     1.1970 H     1 <1>   0.0800 
 34 H        6.2640    -5.2650    -0.1110 H     1 <1>   0.0800 
 35 H        7.5800     2.8140     1.0680 H     1 <1>   0.0800 
 36 H        7.5020     2.7920    -0.6680 H     1 <1>   0.0800 
 37 H       11.1460     1.0140    -0.3870 H     1 <1>   0.0800 
 38 H       11.2650     0.4720     1.2700 H     1 <1>   0.0800 
 39 H        9.3780     4.1710     0.3980 H     1 <1>   0.0800 
 40 H        9.8280     3.1020    -0.8990 H     1 <1>   0.0800 
 41 H       12.4210    -1.7180     0.2560 H     1 <1>   0.0800 
 42 H       11.4230    -1.0080    -0.9950 H     1 <1>   0.0800 
 43 H       11.3720    -3.3150     1.8520 H     1 <1>   0.0800 
 44 H       10.1870    -4.1180     0.8330 H     1 <1>   0.0800 
 45 H        9.6680    -3.1440     2.1890 H     1 <1>   0.0800 
 46 H       11.3890     2.9260     1.0310 H     1 <1>   0.0800 
 47 H       10.0650     2.4210     2.0450 H     1 <1>   0.0800 
 48 H       10.9020    -3.2360    -1.9110 H     1 <1>   0.0800 
 49 H       12.0000    -3.9630    -0.7280 H     1 <1>   0.0800 
 50 H       13.0230    -3.5030    -2.7300 H     1 <1>   0.4000 
@<TRIPOS>BOND
  1   1   2  1   
  2   2   3  ar  
  3   2   4  ar  
  4   3   5  ar  
  5   3  27  1   
  6   4   6  ar  
  7   4  28  1   
  8   5   7  ar  
  9   5  29  1   
 10   6   7  ar  
 11   6  30  1   
 12   7   8  1   
 13   8   9  2   
 14   8  10  1   
 15   9  11  1   
 16   9  12  1   
 17  10  13  2   
 18  10  14  1   
 19  11  15  1   
 20  11  31  1   
 21  12  13  1   
 22  12  16  ar  
 23  14  32  1   
 24  14  33  1   
 25  14  34  1   
 26  15  17  2   
 27  15  18  1   
 28  16  17  1   
 29  16  19  ar  
 30  17  20  1   
 31  18  21  1   
 32  18  35  1   
 33  18  36  1   
 34  19  22  1   
 35  19  23  1   
 36  20  24  1   
 37  20  37  1   
 38  20  38  1   
 39  21  24  1   
 40  21  39  1   
 41  21  40  1   
 42  22  25  1   
 43  22  41  1   
 44  22  42  1   
 45  23  43  1   
 46  23  44  1   
 47  23  45  1   
 48  24  46  1   
 49  24  47  1   
 50  25  26  1   
 51  25  48  1   
 52  25  49  1   
 53  26  50  1   
@<TRIPOS>SUBSTRUCTURE
  1 ****   9 GROUP 4 **** **** 0

# MOE 2024.06 (io_trps.svl 2023.06)
