@<TRIPOS>MOLECULE
NONAME
53 55 1 0 0 
SMALL
USER_CHARGES


@<TRIPOS>ATOM
  1 O        3.2200    -2.5170    -1.9220 O.2   1 <1>  -0.5700 
  2 C        3.7190    -1.4360    -1.7240 C.2   1 <1>   0.5690 
  3 N        3.9720    -0.5270    -2.7000 N.am  1 <1>  -0.5390 
  4 C        4.1860    -0.8700    -0.3710 C.3   1 <1>   0.4810 
  5 C        4.6290     0.5630    -2.1900 C.2   1 <1>  -0.0290 
  6 C        5.1530    -1.8370     0.3370 C.2   1 <1>  -0.1240 
  7 C        2.9510    -0.5270     0.4720 C.ar  1 <1>  -0.1440 
  8 C        4.8170     0.4490    -0.8510 C.2   1 <1>  -0.1240 
  9 C        5.0350     1.6640    -3.1530 C.3   1 <1>  -0.1020 
 10 C        4.8270    -2.2950     1.5840 C.2   1 <1>   0.1770 
 11 C        6.3420    -2.2110    -0.3570 C.2   1 <1>   0.7060 
 12 C        2.7980    -1.0900     1.7310 C.ar  1 <1>   0.0830 
 13 C        1.9720     0.3490     0.0130 C.ar  1 <1>  -0.1500 
 14 C        5.4470     1.3080     0.0990 C.2   1 <1>   0.7060 
 15 O        3.7130    -1.9440     2.2310 O.3   1 <1>  -0.1590 
 16 N        5.5860    -3.1540     2.3200 N.pl3 1 <1>  -0.9000 
 17 O        7.1600    -3.0180     0.0640 O.2   1 <1>  -0.5700 
 18 O        6.6170    -1.6490    -1.5410 O.3   1 <1>  -0.4300 
 19 C        1.6980    -0.7870     2.5170 C.ar  1 <1>  -0.1500 
 20 C        0.8710     0.6530     0.7970 C.ar  1 <1>  -0.1500 
 21 O        5.9240     2.3830    -0.2000 O.2   1 <1>  -0.5700 
 22 O        5.5030     0.8840     1.3630 O.3   1 <1>  -0.4300 
 23 C        7.7800    -1.9700    -2.2710 C.3   1 <1>   0.1200 
 24 C        0.7330     0.0850     2.0510 C.ar  1 <1>  -0.1500 
 25 C        6.0490     1.5320     2.4890 C.3   1 <1>   0.2800 
 26 C        7.7990    -1.1030    -3.5250 C.3   1 <1>  -0.2400 
 27 C        5.3020     2.8430     2.7530 C.3   1 <1>  -0.2400 
 28 C        7.5550     1.7370     2.2980 C.3   1 <1>  -0.2400 
 29 C        5.8110     0.5700     3.6530 C.3   1 <1>  -0.2400 
 30 H        3.7540    -0.7280    -3.6780 H     1 <1>   0.3700 
 31 H        4.1600     2.0930    -3.6080 H     1 <1>   0.0800 
 32 H        5.6670     1.2630    -3.9240 H     1 <1>   0.0800 
 33 H        5.5720     2.4470    -2.6520 H     1 <1>   0.0800 
 34 H        2.0500     0.8060    -0.9580 H     1 <1>   0.1500 
 35 H        6.4550    -3.5500     1.9290 H     1 <1>   0.4000 
 36 H        5.2860    -3.5290     3.2230 H     1 <1>   0.4000 
 37 H        1.6020    -1.2370     3.4890 H     1 <1>   0.1500 
 38 H        0.1210     1.3320     0.4300 H     1 <1>   0.1500 
 39 H        7.7470    -3.0170    -2.5220 H     1 <1>   0.0800 
 40 H        8.6400    -1.7720    -1.6520 H     1 <1>   0.0800 
 41 H       -0.1230     0.3210     2.6600 H     1 <1>   0.1500 
 42 H        6.9250    -1.2950    -4.1210 H     1 <1>   0.0800 
 43 H        8.6710    -1.3310    -4.1100 H     1 <1>   0.0800 
 44 H        7.8320    -0.0630    -3.2530 H     1 <1>   0.0800 
 45 H        5.5010     3.5650     1.9830 H     1 <1>   0.0800 
 46 H        5.6240     3.2670     3.6860 H     1 <1>   0.0800 
 47 H        4.2430     2.6650     2.8070 H     1 <1>   0.0800 
 48 H        8.0300     0.8060     2.0470 H     1 <1>   0.0800 
 49 H        7.9920     2.1070     3.2080 H     1 <1>   0.0800 
 50 H        7.7540     2.4570     1.5260 H     1 <1>   0.0800 
 51 H        6.3030    -0.3690     3.4680 H     1 <1>   0.0800 
 52 H        4.7580     0.3910     3.7800 H     1 <1>   0.0800 
 53 H        6.1980     0.9820     4.5660 H     1 <1>   0.0800 
@<TRIPOS>BOND
  1   1   2  2   
  2   2   3  am  
  3   2   4  1   
  4   3   5  1   
  5   3  30  1   
  6   4   6  1   
  7   4   7  1   
  8   4   8  1   
  9   5   8  2   
 10   5   9  1   
 11   6  10  2   
 12   6  11  1   
 13   7  12  ar  
 14   7  13  ar  
 15   8  14  1   
 16   9  31  1   
 17   9  32  1   
 18   9  33  1   
 19  10  15  1   
 20  10  16  1   
 21  11  17  2   
 22  11  18  1   
 23  12  15  1   
 24  12  19  ar  
 25  13  20  ar  
 26  13  34  1   
 27  14  21  2   
 28  14  22  1   
 29  16  35  1   
 30  16  36  1   
 31  18  23  1   
 32  19  24  ar  
 33  19  37  1   
 34  20  24  ar  
 35  20  38  1   
 36  22  25  1   
 37  23  26  1   
 38  23  39  1   
 39  23  40  1   
 40  24  41  1   
 41  25  27  1   
 42  25  28  1   
 43  25  29  1   
 44  26  42  1   
 45  26  43  1   
 46  26  44  1   
 47  27  45  1   
 48  27  46  1   
 49  27  47  1   
 50  28  48  1   
 51  28  49  1   
 52  28  50  1   
 53  29  51  1   
 54  29  52  1   
 55  29  53  1   
@<TRIPOS>SUBSTRUCTURE
  1 ****   4 GROUP 4 **** **** 0

# MOE 2024.06 (io_trps.svl 2023.06)
