@<TRIPOS>MOLECULE
1-(3,4-Dimethyl-phenyl)-5-oxo-pyrrolidine-3-carboxylic acid 2-oxo-propyl ester
40 41 1 0 0 
SMALL
USER_CHARGES


@<TRIPOS>ATOM
  1 O        0.3320     0.2720     0.2340 O.2   1 <1>  -0.5700 
  2 C        1.4680     0.6760     0.2230 C.2   1 <1>   0.5690 
  3 N        2.6100    -0.0690     0.1250 N.am  1 <1>  -0.4770 
  4 C        1.7800     2.1430     0.3110 C.3   1 <1>  -0.0990 
  5 C        2.7400    -1.4640    -0.0370 C.ar  1 <1>   0.1170 
  6 C        3.8000     0.8050     0.1280 C.3   1 <1>   0.1400 
  7 C        3.2510     2.2110    -0.1350 C.3   1 <1>  -0.0190 
  8 C        3.8070    -2.1540     0.5320 C.ar  1 <1>  -0.1500 
  9 C        1.8190    -2.1900    -0.7800 C.ar  1 <1>  -0.1500 
 10 C        4.0940     3.2800     0.5380 C.2   1 <1>   0.6590 
 11 C        3.9640    -3.5210     0.3610 C.ar  1 <1>  -0.1440 
 12 C        1.9640    -3.5530    -0.9560 C.ar  1 <1>  -0.1500 
 13 O        3.6300     4.1050     1.2800 O.2   1 <1>  -0.5700 
 14 O        5.3890     3.2470     0.2590 O.3   1 <1>  -0.4300 
 15 C        3.0340    -4.2290    -0.3920 C.ar  1 <1>  -0.1430 
 16 C        5.1530    -4.2170     1.0080 C.3   1 <1>  -0.0970 
 17 C        6.2890     4.1570     0.8740 C.3   1 <1>   0.1810 
 18 C        3.1580    -5.7300    -0.6090 C.3   1 <1>  -0.0970 
 19 C        7.7120     3.8980     0.4050 C.2   1 <1>   0.4480 
 20 O        8.5690     3.5570     1.1620 O.2   1 <1>  -0.5700 
 21 C        8.0060     4.0980    -1.0670 C.3   1 <1>  -0.1790 
 22 H        1.6510     2.4540     1.3320 H     1 <1>   0.0800 
 23 H        1.1360     2.7160    -0.3310 H     1 <1>   0.0800 
 24 H        4.4970     0.5040    -0.6360 H     1 <1>   0.0800 
 25 H        4.2710     0.7500     1.0950 H     1 <1>   0.0800 
 26 H        3.2800     2.3840    -1.1950 H     1 <1>   0.0800 
 27 H        4.5210    -1.6160     1.1240 H     1 <1>   0.1500 
 28 H        0.9800    -1.6880    -1.2260 H     1 <1>   0.1500 
 29 H        1.2310    -4.0840    -1.5370 H     1 <1>   0.1500 
 30 H        5.7640    -3.5190     1.5510 H     1 <1>   0.0800 
 31 H        5.7620    -4.6830     0.2550 H     1 <1>   0.0800 
 32 H        4.8090    -4.9680     1.6960 H     1 <1>   0.0800 
 33 H        6.2300     4.0230     1.9410 H     1 <1>   0.0800 
 34 H        5.9900     5.1590     0.6250 H     1 <1>   0.0800 
 35 H        4.0850    -5.9550    -1.1050 H     1 <1>   0.0800 
 36 H        2.3530    -6.0990    -1.2170 H     1 <1>   0.0800 
 37 H        3.1300    -6.2420     0.3350 H     1 <1>   0.0800 
 38 H        7.4240     3.4120    -1.6530 H     1 <1>   0.0800 
 39 H        9.0490     3.9170    -1.2550 H     1 <1>   0.0800 
 40 H        7.7710     5.1050    -1.3560 H     1 <1>   0.0800 
@<TRIPOS>BOND
  1   1   2  2   
  2   2   3  am  
  3   2   4  1   
  4   3   5  1   
  5   3   6  1   
  6   4   7  1   
  7   4  22  1   
  8   4  23  1   
  9   5   8  ar  
 10   5   9  ar  
 11   6   7  1   
 12   6  24  1   
 13   6  25  1   
 14   7  10  1   
 15   7  26  1   
 16   8  11  ar  
 17   8  27  1   
 18   9  12  ar  
 19   9  28  1   
 20  10  13  2   
 21  10  14  1   
 22  11  15  ar  
 23  11  16  1   
 24  12  15  ar  
 25  12  29  1   
 26  14  17  1   
 27  15  18  1   
 28  16  30  1   
 29  16  31  1   
 30  16  32  1   
 31  17  19  1   
 32  17  33  1   
 33  17  34  1   
 34  18  35  1   
 35  18  36  1   
 36  18  37  1   
 37  19  20  2   
 38  19  21  1   
 39  21  38  1   
 40  21  39  1   
 41  21  40  1   
@<TRIPOS>SUBSTRUCTURE
  1 ****   6 GROUP 4 **** **** 0

# MOE 2024.06 (io_trps.svl 2023.06)
