@<TRIPOS>MOLECULE
N-[2-(4-Acetyl-piperazin-1-yl)-phenyl]-2-p-tolyloxy-acetamide
52 54 1 0 0 
SMALL
USER_CHARGES


@<TRIPOS>ATOM
  1 O        0.2320     0.1740     0.9170 O.2   1 <1>  -0.5700 
  2 C       -0.5490     1.0430     0.6070 C.2   1 <1>   0.5690 
  3 N       -0.1740     2.2690     0.1480 N.am  1 <1>  -0.5470 
  4 C       -2.0400     0.7640     0.7590 C.3   1 <1>   0.1810 
  5 C        1.0470     2.9350    -0.0350 C.ar  1 <1>   0.1170 
  6 O       -2.8250     1.8710     0.3220 O.3   1 <1>  -0.3630 
  7 C        0.9670     4.3010    -0.3430 C.ar  1 <1>   0.1000 
  8 C        2.2870     2.3240     0.0640 C.ar  1 <1>  -0.1500 
  9 C       -4.1790     1.8520     0.4020 C.ar  1 <1>   0.0830 
 10 N       -0.2910     4.9200    -0.4260 N.pl3 1 <1>  -0.8380 
 11 C        2.1360     5.0190    -0.5500 C.ar  1 <1>  -0.1500 
 12 C        3.4470     3.0530    -0.1440 C.ar  1 <1>  -0.1500 
 13 C       -4.8580     2.8950    -0.2070 C.ar  1 <1>  -0.1500 
 14 C       -4.9010     0.8590     1.0570 C.ar  1 <1>  -0.1500 
 15 C       -0.8460     5.5540     0.7990 C.3   1 <1>   0.2090 
 16 C       -0.6940     5.6280    -1.6710 C.3   1 <1>   0.2090 
 17 C        3.3710     4.4000    -0.4520 C.ar  1 <1>  -0.1500 
 18 C       -6.2390     2.9560    -0.1620 C.ar  1 <1>  -0.1500 
 19 C       -6.2840     0.9230     1.0990 C.ar  1 <1>  -0.1500 
 20 C       -2.3840     5.5630     0.7380 C.3   1 <1>   0.1400 
 21 C       -2.2270     5.6340    -1.7910 C.3   1 <1>   0.1400 
 22 C       -6.9600     1.9690     0.4910 C.ar  1 <1>  -0.1430 
 23 N       -2.9000     6.1520    -0.5480 N.am  1 <1>  -0.6600 
 24 C       -8.4760     2.0350     0.5420 C.3   1 <1>  -0.0970 
 25 C       -3.9580     7.0170    -0.6400 C.2   1 <1>   0.5690 
 26 O       -4.3470     7.4430    -1.7000 O.2   1 <1>  -0.5700 
 27 C       -4.6980     7.4660     0.5980 C.3   1 <1>  -0.1790 
 28 H       -0.9490     2.9030    -0.0750 H     1 <1>   0.3700 
 29 H       -2.2520     0.5840     1.7960 H     1 <1>   0.0800 
 30 H       -2.3080    -0.0950     0.1720 H     1 <1>   0.0800 
 31 H        2.3530     1.2770     0.3000 H     1 <1>   0.1500 
 32 H        2.0770     6.0650    -0.7840 H     1 <1>   0.1500 
 33 H        4.4050     2.5690    -0.0650 H     1 <1>   0.1500 
 34 H       -4.3080     3.6600    -0.7220 H     1 <1>   0.1500 
 35 H       -4.4150     0.0330     1.5400 H     1 <1>   0.1500 
 36 H       -0.4810     6.5630     0.8800 H     1 <1>   0.0800 
 37 H       -0.5200     5.0070     1.6680 H     1 <1>   0.0800 
 38 H       -0.2650     5.1320    -2.5240 H     1 <1>   0.0800 
 39 H       -0.3320     6.6410    -1.6490 H     1 <1>   0.0800 
 40 H        4.2720     4.9660    -0.6130 H     1 <1>   0.1500 
 41 H       -6.7490     3.7750    -0.6410 H     1 <1>   0.1500 
 42 H       -6.8350     0.1530     1.6090 H     1 <1>   0.1500 
 43 H       -2.7530     6.1080     1.5860 H     1 <1>   0.0800 
 44 H       -2.7340     4.5500     0.8230 H     1 <1>   0.0800 
 45 H       -2.5600     4.6280    -1.9730 H     1 <1>   0.0800 
 46 H       -2.5040     6.2280    -2.6440 H     1 <1>   0.0800 
 47 H       -8.7880     2.5520     1.4310 H     1 <1>   0.0800 
 48 H       -8.8950     1.0450     0.5500 H     1 <1>   0.0800 
 49 H       -8.8590     2.5570    -0.3160 H     1 <1>   0.0800 
 50 H       -4.0430     8.0390     1.2260 H     1 <1>   0.0800 
 51 H       -5.0680     6.6120     1.1340 H     1 <1>   0.0800 
 52 H       -5.5320     8.0830     0.3170 H     1 <1>   0.0800 
@<TRIPOS>BOND
  1   1   2  2   
  2   2   3  am  
  3   2   4  1   
  4   3   5  1   
  5   3  28  1   
  6   4   6  1   
  7   4  29  1   
  8   4  30  1   
  9   5   7  ar  
 10   5   8  ar  
 11   6   9  1   
 12   7  10  1   
 13   7  11  ar  
 14   8  12  ar  
 15   8  31  1   
 16   9  13  ar  
 17   9  14  ar  
 18  10  15  1   
 19  10  16  1   
 20  11  17  ar  
 21  11  32  1   
 22  12  17  ar  
 23  12  33  1   
 24  13  18  ar  
 25  13  34  1   
 26  14  19  ar  
 27  14  35  1   
 28  15  20  1   
 29  15  36  1   
 30  15  37  1   
 31  16  21  1   
 32  16  38  1   
 33  16  39  1   
 34  17  40  1   
 35  18  22  ar  
 36  18  41  1   
 37  19  22  ar  
 38  19  42  1   
 39  20  23  1   
 40  20  43  1   
 41  20  44  1   
 42  21  23  1   
 43  21  45  1   
 44  21  46  1   
 45  22  24  1   
 46  23  25  am  
 47  24  47  1   
 48  24  48  1   
 49  24  49  1   
 50  25  26  2   
 51  25  27  1   
 52  27  50  1   
 53  27  51  1   
 54  27  52  1   
@<TRIPOS>SUBSTRUCTURE
  1 ****   6 GROUP 4 **** **** 0

# MOE 2024.06 (io_trps.svl 2023.06)
