@<TRIPOS>MOLECULE
1-Isopropyl-2,3-dihydro-1H-indole-5-carbaldehyde
29 30 1 0 0 
SMALL
USER_CHARGES


@<TRIPOS>ATOM
  1 O        0.3460    -0.1470     0.9060 O.2   1 <1>  -0.5700 
  2 C        1.3660     0.4300     0.6160 C.2   1 <1>   0.4240 
  3 C        2.6720    -0.1650     0.5430 C.ar  1 <1>   0.0860 
  4 C        3.7900     0.5970     0.1890 C.ar  1 <1>  -0.1500 
  5 C        2.8780    -1.5210     0.8230 C.ar  1 <1>  -0.1500 
  6 C        5.0360     0.0130     0.1210 C.ar  1 <1>  -0.1440 
  7 C        4.1320    -2.0970     0.7520 C.ar  1 <1>  -0.1500 
  8 C        5.2300    -1.3260     0.3890 C.ar  1 <1>   0.1000 
  9 C        6.3510     0.6620    -0.2330 C.3   1 <1>  -0.0160 
 10 N        6.5590    -1.6880     0.2560 N.pl3 1 <1>  -0.8380 
 11 C        7.3430    -0.5090    -0.2030 C.3   1 <1>   0.2090 
 12 C        7.1030    -3.0240    -0.0900 C.3   1 <1>   0.2890 
 13 C        6.3150    -3.6590    -1.2330 C.3   1 <1>  -0.2400 
 14 C        7.1420    -3.8980     1.1590 C.3   1 <1>  -0.2400 
 15 H        1.2970     1.4790     0.3920 H     1 <1>   0.0600 
 16 H        3.6790     1.6440    -0.0290 H     1 <1>   0.1500 
 17 H        2.0310    -2.1250     1.1020 H     1 <1>   0.1500 
 18 H        4.2590    -3.1360     0.9800 H     1 <1>   0.1500 
 19 H        6.6190     1.4010     0.5000 H     1 <1>   0.0800 
 20 H        6.3160     1.1090    -1.2090 H     1 <1>   0.0800 
 21 H        8.1490    -0.3150     0.4830 H     1 <1>   0.0800 
 22 H        7.7370    -0.6900    -1.1890 H     1 <1>   0.0800 
 23 H        8.1190    -2.8960    -0.4250 H     1 <1>   0.0800 
 24 H        5.3160    -3.9050    -0.9270 H     1 <1>   0.0800 
 25 H        6.8010    -4.5630    -1.5490 H     1 <1>   0.0800 
 26 H        6.2720    -2.9830    -2.0660 H     1 <1>   0.0800 
 27 H        6.1550    -4.0980     1.5240 H     1 <1>   0.0800 
 28 H        7.7070    -3.4040     1.9280 H     1 <1>   0.0800 
 29 H        7.6180    -4.8350     0.9330 H     1 <1>   0.0800 
@<TRIPOS>BOND
  1   1   2  2   
  2   2   3  1   
  3   2  15  1   
  4   3   4  ar  
  5   3   5  ar  
  6   4   6  ar  
  7   4  16  1   
  8   5   7  ar  
  9   5  17  1   
 10   6   8  ar  
 11   6   9  1   
 12   7   8  ar  
 13   7  18  1   
 14   8  10  1   
 15   9  11  1   
 16   9  19  1   
 17   9  20  1   
 18  10  11  1   
 19  10  12  1   
 20  11  21  1   
 21  11  22  1   
 22  12  13  1   
 23  12  14  1   
 24  12  23  1   
 25  13  24  1   
 26  13  25  1   
 27  13  26  1   
 28  14  27  1   
 29  14  28  1   
 30  14  29  1   
@<TRIPOS>SUBSTRUCTURE
  1 ****   8 GROUP 4 **** **** 0

# MOE 2024.06 (io_trps.svl 2023.06)
