@<TRIPOS>MOLECULE
6-Benzo[1,3]dioxol-5-yl-3-tert-butyl-[1,2,4]triazolo[3,4-b][1,3,4]thiadiazole
35 38 1 0 0 
SMALL
USER_CHARGES


@<TRIPOS>ATOM
  1 S       -0.0360    -0.1600     1.1320 S.3   1 <1>  -0.1970 
  2 C        0.8630     1.3250     0.9550 C.2   1 <1>   0.2420 
  3 C       -1.5160     0.6980     0.6110 C.2   1 <1>   0.5050 
  4 N        2.0820     1.6900     1.1200 N.2   1 <1>  -0.3380 
  5 N        0.0390     2.2720     0.5490 N.pl3 1 <1>   0.5050 
  6 N       -1.3040     1.9390     0.3490 N.2   1 <1>  -0.6520 
  7 C       -2.7620    -0.0380     0.5300 C.ar  1 <1>   0.0860 
  8 N        2.0820     2.9970     0.7980 N.2   1 <1>  -0.3380 
  9 C        0.8680     3.3310     0.4620 C.2   1 <1>   0.0060 
 10 C       -3.9260     0.6280     0.1220 C.ar  1 <1>  -0.1500 
 11 C       -2.8730    -1.4070     0.8440 C.ar  1 <1>  -0.1500 
 12 C        0.4030     4.7270     0.0200 C.3   1 <1>   0.1800 
 13 C       -5.1150    -0.0640     0.0440 C.ar  1 <1>   0.0830 
 14 C       -4.0780    -2.0900     0.7600 C.ar  1 <1>  -0.1500 
 15 C       -0.6700     5.2550     0.9840 C.3   1 <1>  -0.2400 
 16 C        1.5780     5.7190     0.0220 C.3   1 <1>  -0.2400 
 17 C       -0.1700     4.6670    -1.4030 C.3   1 <1>  -0.2400 
 18 O       -6.3180     0.3930    -0.3210 O.3   1 <1>  -0.3630 
 19 C       -5.1930    -1.3880     0.3530 C.ar  1 <1>   0.0830 
 20 C       -7.2190    -0.7110    -0.2380 C.3   1 <1>   0.4000 
 21 O       -6.4440    -1.8260     0.1990 O.3   1 <1>  -0.3630 
 22 H       -3.9070     1.6730    -0.1310 H     1 <1>   0.1500 
 23 H       -2.0090    -1.9630     1.1620 H     1 <1>   0.1500 
 24 H       -4.1570    -3.1350     1.0010 H     1 <1>   0.1500 
 25 H       -0.2860     5.2770     1.9890 H     1 <1>   0.0800 
 26 H       -1.5440     4.6280     0.9680 H     1 <1>   0.0800 
 27 H       -0.9680     6.2510     0.7090 H     1 <1>   0.0800 
 28 H        2.3500     5.3860    -0.6490 H     1 <1>   0.0800 
 29 H        2.0030     5.7940     1.0080 H     1 <1>   0.0800 
 30 H        1.2570     6.6980    -0.2860 H     1 <1>   0.0800 
 31 H       -1.0390     4.0350    -1.4420 H     1 <1>   0.0800 
 32 H        0.5660     4.2750    -2.0820 H     1 <1>   0.0800 
 33 H       -0.4550     5.6480    -1.7380 H     1 <1>   0.0800 
 34 H       -7.6310    -0.9160    -1.2100 H     1 <1>   0.0800 
 35 H       -7.9860    -0.4980     0.4850 H     1 <1>   0.0800 
@<TRIPOS>BOND
  1   1   2  1   
  2   1   3  1   
  3   2   4  2   
  4   2   5  1   
  5   3   6  2   
  6   3   7  1   
  7   4   8  1   
  8   5   6  1   
  9   5   9  1   
 10   7  10  ar  
 11   7  11  ar  
 12   8   9  2   
 13   9  12  1   
 14  10  13  ar  
 15  10  22  1   
 16  11  14  ar  
 17  11  23  1   
 18  12  15  1   
 19  12  16  1   
 20  12  17  1   
 21  13  18  1   
 22  13  19  ar  
 23  14  19  ar  
 24  14  24  1   
 25  15  25  1   
 26  15  26  1   
 27  15  27  1   
 28  16  28  1   
 29  16  29  1   
 30  16  30  1   
 31  17  31  1   
 32  17  32  1   
 33  17  33  1   
 34  18  20  1   
 35  19  21  1   
 36  20  21  1   
 37  20  34  1   
 38  20  35  1   
@<TRIPOS>SUBSTRUCTURE
  1 ****   3 GROUP 4 **** **** 0

# MOE 2024.06 (io_trps.svl 2023.06)
