@<TRIPOS>MOLECULE
2-(Benzo[4,5]thiazolo[2,3-c][1,2,4]triazol-3-ylsulfanyl)-butyric acid methyl est
33 35 1 0 0 
SMALL
USER_CHARGES


@<TRIPOS>ATOM
  1 S       -0.4500     0.1430     1.8210 S.3   1 <1>  -0.1580 
  2 C        0.6090     1.5410     1.5380 C.2   1 <1>   0.2420 
  3 C       -1.7110     0.8760     0.7940 C.ar  1 <1>   0.1020 
  4 N        1.7950     1.8440     1.9390 N.2   1 <1>  -0.3380 
  5 N        0.0230     2.4350     0.7460 N.pl3 1 <1>   0.3260 
  6 C       -1.2810     2.1000     0.3050 C.ar  1 <1>  -0.0230 
  7 C       -2.9490     0.3430     0.4990 C.ar  1 <1>  -0.1500 
  8 N        2.0500     3.0420     1.3810 N.2   1 <1>  -0.3380 
  9 C        0.9990     3.3540     0.6940 C.2   1 <1>   0.2420 
 10 C       -2.1290     2.8280    -0.5200 C.ar  1 <1>  -0.1500 
 11 C       -3.7880     1.0780    -0.3250 C.ar  1 <1>  -0.1500 
 12 S        0.8260     4.8700    -0.2550 S.3   1 <1>  -0.2860 
 13 C       -3.3790     2.3090    -0.8290 C.ar  1 <1>  -0.1500 
 14 C        2.4520     5.7360    -0.0160 C.3   1 <1>   0.2110 
 15 C        2.2270     7.2410    -0.1700 C.2   1 <1>   0.6590 
 16 C        3.4590     5.1220    -1.0090 C.3   1 <1>  -0.1600 
 17 O        2.2400     7.7990    -1.2390 O.2   1 <1>  -0.5700 
 18 O        2.0160     7.9090     0.9610 O.3   1 <1>  -0.4300 
 19 C        4.8800     5.6690    -0.8180 C.3   1 <1>  -0.2400 
 20 C        1.7860     9.3030     0.9680 C.3   1 <1>   0.0400 
 21 H       -3.2470    -0.6100     0.8980 H     1 <1>   0.1500 
 22 H       -1.8260     3.7820    -0.9170 H     1 <1>   0.1500 
 23 H       -4.7620     0.6940    -0.5780 H     1 <1>   0.1500 
 24 H       -4.0430     2.8670    -1.4680 H     1 <1>   0.1500 
 25 H        2.7610     5.5370     0.9930 H     1 <1>   0.0800 
 26 H        3.1330     5.3220    -2.0160 H     1 <1>   0.0800 
 27 H        3.4820     4.0550    -0.8730 H     1 <1>   0.0800 
 28 H        4.9100     6.7290    -1.0030 H     1 <1>   0.0800 
 29 H        5.5520     5.1880    -1.5070 H     1 <1>   0.0800 
 30 H        5.2270     5.4790     0.1830 H     1 <1>   0.0800 
 31 H        1.6410     9.6200     1.9850 H     1 <1>   0.0800 
 32 H        0.9070     9.5140     0.3840 H     1 <1>   0.0800 
 33 H        2.6420     9.7990     0.5430 H     1 <1>   0.0800 
@<TRIPOS>BOND
  1   1   2  1   
  2   1   3  1   
  3   2   4  2   
  4   2   5  1   
  5   3   6  ar  
  6   3   7  ar  
  7   4   8  1   
  8   5   6  1   
  9   5   9  1   
 10   6  10  ar  
 11   7  11  ar  
 12   7  21  1   
 13   8   9  2   
 14   9  12  1   
 15  10  13  ar  
 16  10  22  1   
 17  11  13  ar  
 18  11  23  1   
 19  12  14  1   
 20  13  24  1   
 21  14  15  1   
 22  14  16  1   
 23  14  25  1   
 24  15  17  2   
 25  15  18  1   
 26  16  19  1   
 27  16  26  1   
 28  16  27  1   
 29  18  20  1   
 30  19  28  1   
 31  19  29  1   
 32  19  30  1   
 33  20  31  1   
 34  20  32  1   
 35  20  33  1   
@<TRIPOS>SUBSTRUCTURE
  1 ****   9 GROUP 4 **** **** 0

# MOE 2024.06 (io_trps.svl 2023.06)
