@<TRIPOS>MOLECULE
(2,4-Dioxo-imidazolidin-1-yl)-acetic acid
16 16 1 0 0 
SMALL
USER_CHARGES


@<TRIPOS>ATOM
  1 O       -1.2150     0.3690    -2.5290 O.2   1 <1>  -0.5700 
  2 C       -1.8250     0.6540    -1.5210 C.2   1 <1>   0.6900 
  3 N       -1.5790     1.7040    -0.6960 N.am  1 <1>  -0.6600 
  4 N       -2.8800    -0.0620    -1.0780 N.am  1 <1>  -0.4900 
  5 C       -2.5320     1.6590     0.4530 C.3   1 <1>   0.2010 
  6 C       -0.3750     2.6180    -0.6790 C.3   1 <1>   0.0340 
  7 C       -3.3720     0.4500     0.0710 C.2   1 <1>   0.5690 
  8 C        0.1580     3.0150     0.7030 C.2   1 <1>   0.9060 
  9 O       -4.3210     0.0130     0.6730 O.2   1 <1>  -0.5700 
 10 O       -0.5820     3.6460     1.4710 O.co2 1 <1>  -0.9000 
 11 O        1.3080     2.6940     1.0190 O.co2 1 <1>  -0.9000 
 12 H       -3.2270    -0.8830    -1.5540 H     1 <1>   0.3700 
 13 H       -3.1200     2.5570     0.5010 H     1 <1>   0.0800 
 14 H       -2.0150     1.4880     1.3810 H     1 <1>   0.0800 
 15 H       -0.6270     3.5250    -1.1900 H     1 <1>   0.0800 
 16 H        0.4280     2.1470    -1.2150 H     1 <1>   0.0800 
@<TRIPOS>BOND
  1   1   2  2   
  2   2   3  am  
  3   2   4  am  
  4   3   5  1   
  5   3   6  1   
  6   4   7  am  
  7   4  12  1   
  8   5   7  1   
  9   5  13  1   
 10   5  14  1   
 11   6   8  1   
 12   6  15  1   
 13   6  16  1   
 14   7   9  2   
 15   8  10  ar  
 16   8  11  ar  
@<TRIPOS>SUBSTRUCTURE
  1 ****   3 GROUP 4 **** **** 0

# MOE 2024.06 (io_trps.svl 2023.06)
