@<TRIPOS>MOLECULE
4-Benzoyl-piperazine-1-sulfonic acid dimethylamide
39 40 1 0 0 
SMALL
USER_CHARGES


@<TRIPOS>ATOM
  1 S       -0.1890    -0.2800     0.6210 S.o2  1 <1>   1.5760 
  2 O       -0.4100    -0.2490     2.0490 O.2   1 <1>  -0.6500 
  3 O        0.4060    -1.4380    -0.0070 O.2   1 <1>  -0.6500 
  4 N       -1.6540     0.0530    -0.1440 N.am  1 <1>  -0.8490 
  5 N        0.7030     1.0850     0.1680 N.am  1 <1>  -0.8490 
  6 C       -2.5290    -1.1260    -0.1210 C.3   1 <1>   0.1960 
  7 C       -2.3410     1.1990     0.4800 C.3   1 <1>   0.1960 
  8 C        1.9210     1.2180     0.9670 C.3   1 <1>   0.1160 
  9 C        1.0330     1.0870    -1.2600 C.3   1 <1>   0.1160 
 10 C       -3.8540    -0.8720    -0.8630 C.3   1 <1>   0.1400 
 11 C       -3.6460     1.5400    -0.2560 C.3   1 <1>   0.1400 
 12 N       -4.5430     0.3450    -0.3330 N.am  1 <1>  -0.6600 
 13 C       -5.7880     0.3270     0.2620 C.2   1 <1>   0.5440 
 14 O       -6.0990     1.2420     1.0000 O.2   1 <1>  -0.5700 
 15 C       -6.7240    -0.7600     0.0430 C.ar  1 <1>   0.0860 
 16 C       -7.3010    -1.4330     1.1190 C.ar  1 <1>  -0.1500 
 17 C       -7.0810    -1.1700    -1.2420 C.ar  1 <1>  -0.1500 
 18 C       -8.1810    -2.4820     0.9230 C.ar  1 <1>  -0.1500 
 19 C       -7.9610    -2.2180    -1.4450 C.ar  1 <1>  -0.1500 
 20 C       -8.5100    -2.8780    -0.3610 C.ar  1 <1>  -0.1500 
 21 H       -2.7410    -1.4050     0.8980 H     1 <1>   0.0800 
 22 H       -2.0270    -1.9540    -0.5930 H     1 <1>   0.0800 
 23 H       -1.6980     2.0630     0.4570 H     1 <1>   0.0800 
 24 H       -2.5680     0.9840     1.5110 H     1 <1>   0.0800 
 25 H        1.6680     1.2930     2.0120 H     1 <1>   0.0800 
 26 H        2.4550     2.1090     0.6840 H     1 <1>   0.0800 
 27 H        2.5590     0.3610     0.8250 H     1 <1>   0.0800 
 28 H        0.1320     1.0220    -1.8460 H     1 <1>   0.0800 
 29 H        1.6640     0.2490    -1.5050 H     1 <1>   0.0800 
 30 H        1.5410     1.9990    -1.5200 H     1 <1>   0.0800 
 31 H       -4.4780    -1.7420    -0.7570 H     1 <1>   0.0800 
 32 H       -3.6500    -0.7330    -1.9100 H     1 <1>   0.0800 
 33 H       -3.4120     1.8690    -1.2530 H     1 <1>   0.0800 
 34 H       -4.1350     2.3540     0.2510 H     1 <1>   0.0800 
 35 H       -7.0520    -1.1190     2.1180 H     1 <1>   0.1500 
 36 H       -6.6620    -0.6520    -2.0880 H     1 <1>   0.1500 
 37 H       -8.6130    -2.9880     1.7700 H     1 <1>   0.1500 
 38 H       -8.2230    -2.5190    -2.4460 H     1 <1>   0.1500 
 39 H       -9.1950    -3.6940    -0.5150 H     1 <1>   0.1500 
@<TRIPOS>BOND
  1   1   2  2   
  2   1   3  2   
  3   1   4  am  
  4   1   5  am  
  5   4   6  1   
  6   4   7  1   
  7   5   8  1   
  8   5   9  1   
  9   6  10  1   
 10   6  21  1   
 11   6  22  1   
 12   7  11  1   
 13   7  23  1   
 14   7  24  1   
 15   8  25  1   
 16   8  26  1   
 17   8  27  1   
 18   9  28  1   
 19   9  29  1   
 20   9  30  1   
 21  10  12  1   
 22  10  31  1   
 23  10  32  1   
 24  11  12  1   
 25  11  33  1   
 26  11  34  1   
 27  12  13  am  
 28  13  14  2   
 29  13  15  1   
 30  15  16  ar  
 31  15  17  ar  
 32  16  18  ar  
 33  16  35  1   
 34  17  19  ar  
 35  17  36  1   
 36  18  20  ar  
 37  18  37  1   
 38  19  20  ar  
 39  19  38  1   
 40  20  39  1   
@<TRIPOS>SUBSTRUCTURE
  1 ****  10 GROUP 4 **** **** 0

# MOE 2024.06 (io_trps.svl 2023.06)
