@<TRIPOS>MOLECULE
[2-(2-Methoxy-benzylamino)-5-methyl-7-oxo-4,7-dihydro-[1,2,4]triazolo[1,5-a]pyri
45 47 1 0 0 
SMALL
USER_CHARGES


@<TRIPOS>ATOM
  1 O        0.4000    -1.3400    -1.8450 O.2   1 <1>  -0.5700 
  2 C        0.0580    -2.3150    -1.1840 C.2   1 <1>   0.5650 
  3 N       -1.3050    -2.6300    -0.9850 N.pl3 1 <1>   0.5610 
  4 C        1.0340    -3.1910    -0.5900 C.2   1 <1>  -0.1240 
  5 N       -2.4580    -2.0540    -1.4140 N.2   1 <1>  -0.7070 
  6 C       -1.6550    -3.7240    -0.2710 C.2   1 <1>   0.2700 
  7 C        0.6440    -4.2700     0.1540 C.2   1 <1>  -0.0380 
  8 C        2.5040    -2.8220    -0.8360 C.3   1 <1>   0.0390 
  9 C       -3.3450    -2.8460    -0.9280 C.2   1 <1>   0.5990 
 10 N       -2.9230    -3.8870    -0.2060 N.2   1 <1>  -0.5650 
 11 N       -0.6960    -4.5420     0.2990 N.pl3 1 <1>  -0.5840 
 12 C        1.5560    -5.2430     0.8850 C.3   1 <1>  -0.1020 
 13 C        2.9820    -1.7140     0.0840 C.2   1 <1>   0.6590 
 14 N       -4.6860    -2.6840    -1.1120 N.pl3 1 <1>  -0.8520 
 15 O        2.5020    -1.5390     1.1750 O.2   1 <1>  -0.5700 
 16 O        3.9780    -0.9680    -0.3780 O.3   1 <1>  -0.4300 
 17 C       -5.1720    -1.2930    -1.0200 C.3   1 <1>   0.3530 
 18 C        4.5070     0.1070     0.3690 C.3   1 <1>   0.0400 
 19 C       -6.6630    -1.3100    -0.7090 C.ar  1 <1>  -0.1430 
 20 C       -7.1810    -0.6650     0.4120 C.ar  1 <1>   0.0820 
 21 C       -7.5220    -1.9800    -1.5680 C.ar  1 <1>  -0.1500 
 22 O       -6.3130    -0.0140     1.2300 O.3   1 <1>  -0.3620 
 23 C       -8.5530    -0.7050     0.6560 C.ar  1 <1>  -0.1500 
 24 C       -8.8820    -2.0170    -1.3210 C.ar  1 <1>  -0.1500 
 25 C       -6.7400     0.6360     2.4070 C.3   1 <1>   0.0400 
 26 C       -9.3970    -1.3780    -0.2080 C.ar  1 <1>  -0.1500 
 27 H        2.6320    -2.4980    -1.8530 H     1 <1>   0.0800 
 28 H        3.1500    -3.6670    -0.7070 H     1 <1>   0.0800 
 29 H       -1.0450    -5.3380     0.8450 H     1 <1>   0.4000 
 30 H        1.6110    -6.1710     0.3450 H     1 <1>   0.0800 
 31 H        1.1640    -5.4400     1.8680 H     1 <1>   0.0800 
 32 H        2.5470    -4.8540     1.0150 H     1 <1>   0.0800 
 33 H       -5.1710    -3.2540    -0.4190 H     1 <1>   0.4000 
 34 H       -5.0060    -0.8000    -1.9630 H     1 <1>   0.0800 
 35 H       -4.6160    -0.7620    -0.2660 H     1 <1>   0.0800 
 36 H        5.2950     0.5650    -0.2010 H     1 <1>   0.0800 
 37 H        4.8930    -0.2710     1.3000 H     1 <1>   0.0800 
 38 H        3.7210     0.8200     0.5550 H     1 <1>   0.0800 
 39 H       -7.1240    -2.4810    -2.4350 H     1 <1>   0.1500 
 40 H       -8.9840    -0.2190     1.5100 H     1 <1>   0.1500 
 41 H       -9.5370    -2.5420    -1.9950 H     1 <1>   0.1500 
 42 H       -5.8760     1.0580     2.8880 H     1 <1>   0.0800 
 43 H       -7.2030    -0.0860     3.0560 H     1 <1>   0.0800 
 44 H       -7.4300     1.4180     2.1430 H     1 <1>   0.0800 
 45 H      -10.4560    -1.4070    -0.0160 H     1 <1>   0.1500 
@<TRIPOS>BOND
  1   1   2  2   
  2   2   3  1   
  3   2   4  1   
  4   3   5  1   
  5   3   6  1   
  6   4   7  2   
  7   4   8  1   
  8   5   9  2   
  9   6  10  2   
 10   6  11  1   
 11   7  11  1   
 12   7  12  1   
 13   8  13  1   
 14   8  27  1   
 15   8  28  1   
 16   9  10  1   
 17   9  14  1   
 18  11  29  1   
 19  12  30  1   
 20  12  31  1   
 21  12  32  1   
 22  13  15  2   
 23  13  16  1   
 24  14  17  1   
 25  14  33  1   
 26  16  18  1   
 27  17  19  1   
 28  17  34  1   
 29  17  35  1   
 30  18  36  1   
 31  18  37  1   
 32  18  38  1   
 33  19  20  ar  
 34  19  21  ar  
 35  20  22  1   
 36  20  23  ar  
 37  21  24  ar  
 38  21  39  1   
 39  22  25  1   
 40  23  26  ar  
 41  23  40  1   
 42  24  26  ar  
 43  24  41  1   
 44  25  42  1   
 45  25  43  1   
 46  25  44  1   
 47  26  45  1   
@<TRIPOS>SUBSTRUCTURE
  1 ****   5 GROUP 4 **** **** 0

# MOE 2024.06 (io_trps.svl 2023.06)
