@<TRIPOS>MOLECULE
Ethanesulfonic acid [3-(1-acetyl-5-furan-2-yl-4,5-dihydro-1H-pyrazol-3-yl)-pheny
44 46 1 0 0 
SMALL
USER_CHARGES


@<TRIPOS>ATOM
  1 S       -0.1670    -0.8160    -0.4010 S.o2  1 <1>   1.3330 
  2 O       -1.3400    -1.5270    -0.8420 O.2   1 <1>  -0.6500 
  3 O        0.1920     0.4620    -0.9640 O.2   1 <1>  -0.6500 
  4 N        1.1160    -1.9130    -0.7120 N.am  1 <1>  -0.7570 
  5 C       -0.1710    -0.7340     1.3950 C.3   1 <1>  -0.0550 
  6 C        2.4940    -1.7450    -0.6240 C.ar  1 <1>   0.1990 
  7 C       -1.2690     0.1670     1.9870 C.3   1 <1>  -0.2400 
  8 C        3.3170    -2.8330    -0.8780 C.ar  1 <1>  -0.1500 
  9 C        3.0890    -0.5340    -0.2870 C.ar  1 <1>  -0.1500 
 10 C        4.7090    -2.7650    -0.8040 C.ar  1 <1>   0.0860 
 11 C        4.4640    -0.4280    -0.2050 C.ar  1 <1>  -0.1500 
 12 C        5.5180    -3.9340    -1.0780 C.2   1 <1>   0.3030 
 13 C        5.2620    -1.5270    -0.4590 C.ar  1 <1>  -0.1500 
 14 N        5.0890    -5.0880    -1.4030 N.2   1 <1>  -0.5120 
 15 C        7.0310    -3.8780    -1.0110 C.3   1 <1>  -0.0990 
 16 N        6.1380    -5.9600    -1.5780 N.am  1 <1>  -0.2980 
 17 C        7.4340    -5.3310    -1.2460 C.3   1 <1>   0.4000 
 18 C        6.0820    -7.2350    -2.1000 C.2   1 <1>   0.5690 
 19 C        8.0700    -5.9260     0.0080 C.2   1 <1>  -0.0400 
 20 O        7.0690    -7.8900    -2.3360 O.2   1 <1>  -0.5700 
 21 C        4.7290    -7.8390    -2.4030 C.3   1 <1>  -0.1790 
 22 O        9.2290    -5.4350     0.4140 O.3   1 <1>  -0.2800 
 23 C        7.6630    -6.9090     0.8420 C.2   1 <1>  -0.1500 
 24 C        9.5830    -6.0900     1.5010 C.2   1 <1>  -0.0100 
 25 C        8.6570    -7.0180     1.8220 C.2   1 <1>  -0.1500 
 26 H        0.7490    -2.7590    -1.1390 H     1 <1>   0.4200 
 27 H        0.7820    -0.3720     1.7290 H     1 <1>   0.0800 
 28 H       -0.2950    -1.7250     1.7870 H     1 <1>   0.0800 
 29 H       -1.1530     1.1760     1.6320 H     1 <1>   0.0800 
 30 H       -1.2120     0.1690     3.0610 H     1 <1>   0.0800 
 31 H       -2.2410    -0.1910     1.6920 H     1 <1>   0.0800 
 32 H        2.8620    -3.7710    -1.1400 H     1 <1>   0.1500 
 33 H        2.4910     0.3380    -0.0960 H     1 <1>   0.1500 
 34 H        4.9120     0.5160     0.0550 H     1 <1>   0.1500 
 35 H        6.3280    -1.4070    -0.3870 H     1 <1>   0.1500 
 36 H        7.3680    -3.5290    -0.0520 H     1 <1>   0.0800 
 37 H        7.4250    -3.2530    -1.7900 H     1 <1>   0.0800 
 38 H        8.1050    -5.4200    -2.0820 H     1 <1>   0.0800 
 39 H        4.1300    -7.8430    -1.5120 H     1 <1>   0.0800 
 40 H        4.8470    -8.8470    -2.7540 H     1 <1>   0.0800 
 41 H        4.2380    -7.2570    -3.1590 H     1 <1>   0.0800 
 42 H        6.7700    -7.5070     0.7900 H     1 <1>   0.1500 
 43 H       10.5110    -5.8350     1.9830 H     1 <1>   0.1500 
 44 H        8.6510    -7.7110     2.6440 H     1 <1>   0.1500 
@<TRIPOS>BOND
  1   1   2  2   
  2   1   3  2   
  3   1   4  am  
  4   1   5  1   
  5   4   6  1   
  6   4  26  1   
  7   5   7  1   
  8   5  27  1   
  9   5  28  1   
 10   6   8  ar  
 11   6   9  ar  
 12   7  29  1   
 13   7  30  1   
 14   7  31  1   
 15   8  10  ar  
 16   8  32  1   
 17   9  11  ar  
 18   9  33  1   
 19  10  12  1   
 20  10  13  ar  
 21  11  13  ar  
 22  11  34  1   
 23  12  14  2   
 24  12  15  1   
 25  13  35  1   
 26  14  16  1   
 27  15  17  1   
 28  15  36  1   
 29  15  37  1   
 30  16  17  1   
 31  16  18  am  
 32  17  19  1   
 33  17  38  1   
 34  18  20  2   
 35  18  21  1   
 36  19  22  1   
 37  19  23  2   
 38  21  39  1   
 39  21  40  1   
 40  21  41  1   
 41  22  24  1   
 42  23  25  1   
 43  23  42  1   
 44  24  25  2   
 45  24  43  1   
 46  25  44  1   
@<TRIPOS>SUBSTRUCTURE
  1 ****  10 GROUP 4 **** **** 0

# MOE 2024.06 (io_trps.svl 2023.06)
