@<TRIPOS>MOLECULE
1-Methanesulfonyl-piperidine-3-carboxylic acid (2-methylsulfanyl-phenyl)-amide
41 42 1 0 0 
SMALL
USER_CHARGES


@<TRIPOS>ATOM
  1 S        0.3320    -0.2900     1.5200 S.o2  1 <1>   1.3330 
  2 O       -0.6670    -1.2940     1.8020 O.2   1 <1>  -0.6500 
  3 O        0.8690     0.5310     2.5800 O.2   1 <1>  -0.6500 
  4 N        1.6310    -1.0510     0.7420 N.am  1 <1>  -0.8490 
  5 C       -0.3430     0.8030     0.2840 C.3   1 <1>  -0.1350 
  6 C        2.7260    -0.1470     0.3670 C.3   1 <1>   0.1960 
  7 C        1.2450    -1.9780    -0.3240 C.3   1 <1>   0.1960 
  8 C        3.9740    -0.9460    -0.0330 C.3   1 <1>  -0.0190 
  9 C        2.4510    -2.8250    -0.7450 C.3   1 <1>  -0.1600 
 10 C        5.0920    -0.0040    -0.4550 C.2   1 <1>   0.5690 
 11 C        3.6450    -1.9520    -1.1520 C.3   1 <1>  -0.1600 
 12 O        4.8120     0.9750    -1.1050 O.2   1 <1>  -0.5700 
 13 N        6.3640    -0.3350    -0.0860 N.am  1 <1>  -0.5470 
 14 C        7.6220     0.2570    -0.3100 C.ar  1 <1>   0.1170 
 15 C        8.7670    -0.4180     0.1180 C.ar  1 <1>   0.1010 
 16 C        7.7900     1.4880    -0.9380 C.ar  1 <1>  -0.1500 
 17 S        8.5410    -2.0220     0.9400 S.3   1 <1>  -0.3310 
 18 C       10.0350     0.1100    -0.0730 C.ar  1 <1>  -0.1500 
 19 C        9.0530     2.0210    -1.1320 C.ar  1 <1>  -0.1500 
 20 C       10.2240    -2.6550     1.3670 C.3   1 <1>  -0.0100 
 21 C       10.1750     1.3350    -0.7020 C.ar  1 <1>  -0.1500 
 22 H       -0.6700     0.2480    -0.5720 H     1 <1>   0.0800 
 23 H        0.3880     1.5250    -0.0200 H     1 <1>   0.0800 
 24 H       -1.1860     1.3270     0.6910 H     1 <1>   0.0800 
 25 H        2.9760     0.4880     1.2010 H     1 <1>   0.0800 
 26 H        2.4170     0.4800    -0.4530 H     1 <1>   0.0800 
 27 H        0.8700    -1.4300    -1.1720 H     1 <1>   0.0800 
 28 H        0.4670    -2.6360     0.0290 H     1 <1>   0.0800 
 29 H        4.2970    -1.4870     0.8380 H     1 <1>   0.0800 
 30 H        2.1690    -3.4600    -1.5660 H     1 <1>   0.0800 
 31 H        2.7270    -3.4600     0.0790 H     1 <1>   0.0800 
 32 H        4.5010    -2.5730    -1.3520 H     1 <1>   0.0800 
 33 H        3.4060    -1.4150    -2.0550 H     1 <1>   0.0800 
 34 H        6.4510    -1.2110     0.4350 H     1 <1>   0.3700 
 35 H        6.9380     2.0450    -1.2800 H     1 <1>   0.1500 
 36 H       10.9140    -0.4080     0.2540 H     1 <1>   0.1500 
 37 H        9.1590     2.9740    -1.6210 H     1 <1>   0.1500 
 38 H       10.0990    -3.6070     1.8510 H     1 <1>   0.0800 
 39 H       10.6870    -1.9480     2.0320 H     1 <1>   0.0800 
 40 H       10.7810    -2.7620     0.4540 H     1 <1>   0.0800 
 41 H       11.1540     1.7550    -0.8570 H     1 <1>   0.1500 
@<TRIPOS>BOND
  1   1   2  2   
  2   1   3  2   
  3   1   4  am  
  4   1   5  1   
  5   4   6  1   
  6   4   7  1   
  7   5  22  1   
  8   5  23  1   
  9   5  24  1   
 10   6   8  1   
 11   6  25  1   
 12   6  26  1   
 13   7   9  1   
 14   7  27  1   
 15   7  28  1   
 16   8  10  1   
 17   8  11  1   
 18   8  29  1   
 19   9  11  1   
 20   9  30  1   
 21   9  31  1   
 22  10  12  2   
 23  10  13  am  
 24  11  32  1   
 25  11  33  1   
 26  13  14  1   
 27  13  34  1   
 28  14  15  ar  
 29  14  16  ar  
 30  15  17  1   
 31  15  18  ar  
 32  16  19  ar  
 33  16  35  1   
 34  17  20  1   
 35  18  21  ar  
 36  18  36  1   
 37  19  21  ar  
 38  19  37  1   
 39  20  38  1   
 40  20  39  1   
 41  20  40  1   
 42  21  41  1   
@<TRIPOS>SUBSTRUCTURE
  1 ****  10 GROUP 4 **** **** 0

# MOE 2024.06 (io_trps.svl 2023.06)
