@<TRIPOS>MOLECULE
2-(8,8-Dimethyl-1-oxo-8,9-dihydro-1H,6H-7-oxa-11-thia-2,4,10-triaza-benzo[b]fluo
53 57 1 0 0 
SMALL
USER_CHARGES


@<TRIPOS>ATOM
  1 S        1.0760    -0.8690     0.3680 S.3   1 <1>  -0.0800 
  2 C       -0.4510    -0.0490     0.0180 C.ar  1 <1>   0.2970 
  3 C        1.8760     0.6660     0.7360 C.2   1 <1>  -0.0450 
  4 N       -1.5340    -0.7130    -0.3460 N.ar  1 <1>  -0.5670 
  5 C       -0.3070     1.3230     0.1860 C.ar  1 <1>   0.0000 
  6 C        3.2170     0.8540     1.1270 C.2   1 <1>   0.7150 
  7 C        1.0170     1.7020     0.5920 C.2   1 <1>   0.1250 
  8 C       -2.5800     0.0670    -0.5650 C.ar  1 <1>   0.1660 
  9 C       -1.4230     2.1080    -0.0510 C.ar  1 <1>  -0.1500 
 10 O        4.0170    -0.0670     1.2410 O.2   1 <1>  -0.5700 
 11 N        3.5890     2.1620     1.3690 N.am  1 <1>  -0.4200 
 12 N        1.4300     2.9900     0.8250 N.2   1 <1>  -0.5750 
 13 C       -2.5800     1.4580    -0.4330 C.ar  1 <1>  -0.1440 
 14 C       -3.8500    -0.6340    -1.0020 C.3   1 <1>  -0.0170 
 15 C        2.6550     3.1630     1.1840 C.2   1 <1>   0.4500 
 16 C        4.9750     2.5550     1.7860 C.3   1 <1>   0.2810 
 17 C       -3.8440     2.2680    -0.6890 C.3   1 <1>   0.2640 
 18 C       -5.1000     0.2310    -0.7820 C.3   1 <1>   0.2800 
 19 C        6.0290     2.3430     0.6840 C.2   1 <1>   0.5690 
 20 C        5.3560     1.9220     3.1360 C.3   1 <1>  -0.2400 
 21 O       -4.8550     1.5060    -1.2890 O.3   1 <1>  -0.5600 
 22 C       -5.5080     0.3210     0.6980 C.3   1 <1>  -0.2400 
 23 C       -6.2770    -0.3130    -1.5930 C.3   1 <1>  -0.2400 
 24 O        6.5310     3.3310     0.2050 O.2   1 <1>  -0.5700 
 25 N        6.3520     1.0700     0.2920 N.am  1 <1>  -0.5470 
 26 C        7.2750     0.5810    -0.6440 C.ar  1 <1>   0.1170 
 27 C        8.3530     1.3230    -1.1160 C.ar  1 <1>  -0.1500 
 28 C        7.1100    -0.7170    -1.1120 C.ar  1 <1>  -0.1500 
 29 C        9.2380     0.7830    -2.0330 C.ar  1 <1>  -0.1500 
 30 C        7.9930    -1.2620    -2.0280 C.ar  1 <1>  -0.1500 
 31 C        9.0590    -0.5110    -2.4910 C.ar  1 <1>  -0.1500 
 32 H       -1.3660     3.1760     0.0650 H     1 <1>   0.1500 
 33 H       -3.9550    -1.5590    -0.4650 H     1 <1>   0.0800 
 34 H       -3.7540    -0.8740    -2.0450 H     1 <1>   0.0800 
 35 H        2.9930     4.1700     1.3620 H     1 <1>   0.0600 
 36 H        4.9660     3.6170     1.9600 H     1 <1>   0.0800 
 37 H       -3.6290     3.0870    -1.3520 H     1 <1>   0.0800 
 38 H       -4.2260     2.6680     0.2340 H     1 <1>   0.0800 
 39 H        5.4900     0.8590     3.0570 H     1 <1>   0.0800 
 40 H        4.6030     2.1320     3.8740 H     1 <1>   0.0800 
 41 H        6.2860     2.3430     3.4750 H     1 <1>   0.0800 
 42 H       -4.6820     0.6150     1.3200 H     1 <1>   0.0800 
 43 H       -5.8420    -0.6410     1.0430 H     1 <1>   0.0800 
 44 H       -6.3150     1.0210     0.8200 H     1 <1>   0.0800 
 45 H       -6.0320    -0.3310    -2.6400 H     1 <1>   0.0800 
 46 H       -7.1450     0.3060    -1.4500 H     1 <1>   0.0800 
 47 H       -6.5160    -1.3140    -1.2820 H     1 <1>   0.0800 
 48 H        5.7380     0.3450     0.6860 H     1 <1>   0.3700 
 49 H        8.5120     2.3270    -0.7690 H     1 <1>   0.1500 
 50 H        6.2840    -1.3080    -0.7590 H     1 <1>   0.1500 
 51 H       10.0660     1.3700    -2.3900 H     1 <1>   0.1500 
 52 H        7.8510    -2.2680    -2.3810 H     1 <1>   0.1500 
 53 H        9.7460    -0.9310    -3.2040 H     1 <1>   0.1500 
@<TRIPOS>BOND
  1   1   2  1   
  2   1   3  1   
  3   2   4  ar  
  4   2   5  ar  
  5   3   6  1   
  6   3   7  2   
  7   4   8  ar  
  8   5   7  1   
  9   5   9  ar  
 10   6  10  2   
 11   6  11  am  
 12   7  12  1   
 13   8  13  ar  
 14   8  14  1   
 15   9  13  ar  
 16   9  32  1   
 17  11  15  1   
 18  11  16  1   
 19  12  15  2   
 20  13  17  1   
 21  14  18  1   
 22  14  33  1   
 23  14  34  1   
 24  15  35  1   
 25  16  19  1   
 26  16  20  1   
 27  16  36  1   
 28  17  21  1   
 29  17  37  1   
 30  17  38  1   
 31  18  21  1   
 32  18  22  1   
 33  18  23  1   
 34  19  24  2   
 35  19  25  am  
 36  20  39  1   
 37  20  40  1   
 38  20  41  1   
 39  22  42  1   
 40  22  43  1   
 41  22  44  1   
 42  23  45  1   
 43  23  46  1   
 44  23  47  1   
 45  25  26  1   
 46  25  48  1   
 47  26  27  ar  
 48  26  28  ar  
 49  27  29  ar  
 50  27  49  1   
 51  28  30  ar  
 52  28  50  1   
 53  29  31  ar  
 54  29  51  1   
 55  30  31  ar  
 56  30  52  1   
 57  31  53  1   
@<TRIPOS>SUBSTRUCTURE
  1 ****   3 GROUP 4 **** **** 0

# MOE 2024.06 (io_trps.svl 2023.06)
