@<TRIPOS>MOLECULE
2,6-Dimethoxy-benzoic acid (3-cyano-5,6-dihydro-4H-cyclopenta[b]thiophen-2-ylcar
45 47 1 0 0 
SMALL
USER_CHARGES


@<TRIPOS>ATOM
  1 S       -0.4340    -1.2790     1.4390 S.3   1 <1>  -0.0800 
  2 C       -1.7590    -1.0930     0.2730 C.2   1 <1>   0.1040 
  3 C        0.6330    -1.8280     0.1700 C.2   1 <1>  -0.1400 
  4 N       -3.0010    -0.6200     0.7080 N.am  1 <1>  -0.4940 
  5 C       -1.3450    -1.4450    -0.9800 C.2   1 <1>   0.0190 
  6 C        0.0260    -1.8580    -1.0030 C.2   1 <1>  -0.1810 
  7 C        2.0660    -2.2510     0.2050 C.3   1 <1>   0.0200 
  8 C       -3.5710    -0.5310     1.9540 C.2   1 <1>   0.5690 
  9 C       -2.1360    -1.4400    -2.1710 C.1   1 <1>   0.5380 
 10 C        0.9750    -2.3350    -2.0730 C.3   1 <1>   0.0210 
 11 C        2.2970    -2.5880    -1.2910 C.3   1 <1>  -0.1600 
 12 O       -3.0330    -0.9100     2.9660 O.2   1 <1>  -0.5700 
 13 C       -4.9630     0.0880     2.0750 C.3   1 <1>   0.1810 
 14 N       -2.7350    -1.4720    -3.1420 N.1   1 <1>  -0.5570 
 15 O       -5.9260    -0.5690     1.2560 O.3   1 <1>  -0.4300 
 16 C       -6.0040    -0.3630    -0.0610 C.2   1 <1>   0.6340 
 17 O       -5.2490     0.4470    -0.5660 O.2   1 <1>  -0.5700 
 18 C       -6.9260    -1.1660    -0.8100 C.ar  1 <1>   0.0860 
 19 C       -8.2380    -0.7420    -1.0380 C.ar  1 <1>   0.0830 
 20 C       -6.5100    -2.3950    -1.3320 C.ar  1 <1>   0.0830 
 21 O       -8.6120     0.4460    -0.5020 O.3   1 <1>  -0.3630 
 22 C       -9.1070    -1.5280    -1.7890 C.ar  1 <1>  -0.1500 
 23 O       -5.2380    -2.7840    -1.0700 O.3   1 <1>  -0.3630 
 24 C       -7.3880    -3.1700    -2.0840 C.ar  1 <1>  -0.1500 
 25 C       -9.8880     1.0080    -0.7130 C.3   1 <1>   0.0400 
 26 C       -8.6810    -2.7350    -2.3100 C.ar  1 <1>  -0.1500 
 27 C       -4.6590    -3.9310    -1.6540 C.3   1 <1>   0.0400 
 28 H       -3.6370    -0.3010    -0.0370 H     1 <1>   0.3700 
 29 H        2.1930    -3.1130     0.8360 H     1 <1>   0.0800 
 30 H        2.6940    -1.4420     0.5360 H     1 <1>   0.0800 
 31 H        1.1070    -1.5780    -2.8260 H     1 <1>   0.0800 
 32 H        0.6110    -3.2410    -2.5250 H     1 <1>   0.0800 
 33 H        2.5920    -3.6180    -1.3920 H     1 <1>   0.0800 
 34 H        3.0810    -1.9670    -1.6880 H     1 <1>   0.0800 
 35 H       -4.9330     1.1300     1.8120 H     1 <1>   0.0800 
 36 H       -5.2970     0.0010     3.0930 H     1 <1>   0.0800 
 37 H      -10.1180    -1.2200    -1.9790 H     1 <1>   0.1500 
 38 H       -7.0860    -4.1130    -2.4990 H     1 <1>   0.1500 
 39 H       -9.9230     1.9560    -0.2070 H     1 <1>   0.0800 
 40 H      -10.6330     0.3490    -0.3040 H     1 <1>   0.0800 
 41 H      -10.0370     1.1530    -1.7690 H     1 <1>   0.0800 
 42 H       -9.3570    -3.3390    -2.8930 H     1 <1>   0.1500 
 43 H       -3.6430    -4.0040    -1.3110 H     1 <1>   0.0800 
 44 H       -4.6750    -3.8200    -2.7250 H     1 <1>   0.0800 
 45 H       -5.2110    -4.8000    -1.3440 H     1 <1>   0.0800 
@<TRIPOS>BOND
  1   1   2  1   
  2   1   3  1   
  3   2   4  1   
  4   2   5  2   
  5   3   6  2   
  6   3   7  1   
  7   4   8  am  
  8   4  28  1   
  9   5   6  1   
 10   5   9  1   
 11   6  10  1   
 12   7  11  1   
 13   7  29  1   
 14   7  30  1   
 15   8  12  2   
 16   8  13  1   
 17   9  14  3   
 18  10  11  1   
 19  10  31  1   
 20  10  32  1   
 21  11  33  1   
 22  11  34  1   
 23  13  15  1   
 24  13  35  1   
 25  13  36  1   
 26  15  16  1   
 27  16  17  2   
 28  16  18  1   
 29  18  19  ar  
 30  18  20  ar  
 31  19  21  1   
 32  19  22  ar  
 33  20  23  1   
 34  20  24  ar  
 35  21  25  1   
 36  22  26  ar  
 37  22  37  1   
 38  23  27  1   
 39  24  26  ar  
 40  24  38  1   
 41  25  39  1   
 42  25  40  1   
 43  25  41  1   
 44  26  42  1   
 45  27  43  1   
 46  27  44  1   
 47  27  45  1   
@<TRIPOS>SUBSTRUCTURE
  1 ****   4 GROUP 4 **** **** 0

# MOE 2024.06 (io_trps.svl 2023.06)
