@<TRIPOS>MOLECULE
3-(2-Hydroxy-phenyl)-4,5-dihydro-isoxazole-5-carboxylic acid cyclohexylamide
41 43 1 0 0 
SMALL
USER_CHARGES


@<TRIPOS>ATOM
  1 O        0.2660    -3.3120     2.3310 O.2   1 <1>  -0.5700 
  2 C       -0.2040    -3.2670     1.2180 C.2   1 <1>   0.5690 
  3 N        0.3060    -2.4570     0.2520 N.am  1 <1>  -0.7300 
  4 C       -1.4300    -4.1240     0.9000 C.3   1 <1>   0.2610 
  5 C        1.4520    -1.5510     0.3880 C.3   1 <1>   0.2200 
  6 O       -1.5070    -4.3670    -0.4930 O.3   1 <1>  -0.2170 
  7 C       -2.7390    -3.4030     1.1860 C.3   1 <1>  -0.0990 
  8 C        0.9810    -0.1180     0.1180 C.3   1 <1>  -0.1600 
  9 C        2.5390    -1.9760    -0.6030 C.3   1 <1>  -0.1600 
 10 N       -2.5050    -3.7340    -1.0670 N.2   1 <1>  -0.5130 
 11 C       -3.2530    -3.1630    -0.2110 C.2   1 <1>   0.3030 
 12 C        2.1600     0.8670     0.1380 C.3   1 <1>  -0.1600 
 13 C        3.7220    -0.9950    -0.5850 C.3   1 <1>  -0.1600 
 14 C       -4.4340    -2.3690    -0.5130 C.ar  1 <1>   0.0860 
 15 C        3.2540     0.4420    -0.8510 C.3   1 <1>  -0.1600 
 16 C       -5.3570    -1.8770     0.4310 C.ar  1 <1>   0.0820 
 17 C       -4.6980    -2.0530    -1.8510 C.ar  1 <1>  -0.1500 
 18 O       -5.2310    -2.1230     1.7460 O.3   1 <1>  -0.5330 
 19 C       -6.4530    -1.1170     0.0480 C.ar  1 <1>  -0.1500 
 20 C       -5.7900    -1.2970    -2.2350 C.ar  1 <1>  -0.1500 
 21 C       -6.6720    -0.8240    -1.2830 C.ar  1 <1>  -0.1500 
 22 H       -0.1260    -2.5060    -0.6770 H     1 <1>   0.3700 
 23 H       -1.3700    -5.0690     1.4060 H     1 <1>   0.0800 
 24 H        1.8440    -1.6110     1.3910 H     1 <1>   0.0800 
 25 H       -2.5780    -2.4840     1.7200 H     1 <1>   0.0800 
 26 H       -3.4040    -4.0420     1.7360 H     1 <1>   0.0800 
 27 H        0.2670     0.1670     0.8700 H     1 <1>   0.0800 
 28 H        0.5030    -0.0720    -0.8440 H     1 <1>   0.0800 
 29 H        2.1270    -2.0100    -1.5960 H     1 <1>   0.0800 
 30 H        2.8890    -2.9600    -0.3440 H     1 <1>   0.0800 
 31 H        2.5740     0.9050     1.1320 H     1 <1>   0.0800 
 32 H        1.8100     1.8530    -0.1110 H     1 <1>   0.0800 
 33 H        4.4420    -1.2850    -1.3300 H     1 <1>   0.0800 
 34 H        4.2050    -1.0400     0.3760 H     1 <1>   0.0800 
 35 H        4.0920     1.1140    -0.7720 H     1 <1>   0.0800 
 36 H        2.8710     0.5110    -1.8560 H     1 <1>   0.0800 
 37 H       -4.0290    -2.4080    -2.6160 H     1 <1>   0.1500 
 38 H       -5.9430    -1.7340     2.2860 H     1 <1>   0.4500 
 39 H       -7.1450    -0.7480     0.7830 H     1 <1>   0.1500 
 40 H       -5.9530    -1.0770    -3.2760 H     1 <1>   0.1500 
 41 H       -7.5230    -0.2340    -1.5800 H     1 <1>   0.1500 
@<TRIPOS>BOND
  1   1   2  2   
  2   2   3  am  
  3   2   4  1   
  4   3   5  1   
  5   3  22  1   
  6   4   6  1   
  7   4   7  1   
  8   4  23  1   
  9   5   8  1   
 10   5   9  1   
 11   5  24  1   
 12   6  10  1   
 13   7  11  1   
 14   7  25  1   
 15   7  26  1   
 16   8  12  1   
 17   8  27  1   
 18   8  28  1   
 19   9  13  1   
 20   9  29  1   
 21   9  30  1   
 22  10  11  2   
 23  11  14  1   
 24  12  15  1   
 25  12  31  1   
 26  12  32  1   
 27  13  15  1   
 28  13  33  1   
 29  13  34  1   
 30  14  16  ar  
 31  14  17  ar  
 32  15  35  1   
 33  15  36  1   
 34  16  18  1   
 35  16  19  ar  
 36  17  20  ar  
 37  17  37  1   
 38  18  38  1   
 39  19  21  ar  
 40  19  39  1   
 41  20  21  ar  
 42  20  40  1   
 43  21  41  1   
@<TRIPOS>SUBSTRUCTURE
  1 ****  11 GROUP 4 **** **** 0

# MOE 2024.06 (io_trps.svl 2023.06)
