@<TRIPOS>MOLECULE
1-(4-Chloro-phenylmethanesulfonyl)-piperidine-4-carboxylic acid methyl ester
39 40 1 0 0 
SMALL
USER_CHARGES


@<TRIPOS>ATOM
  1 CL      -1.6090     1.3860    -0.8870 Cl    1 <1>  -0.1770 
  2 C       -0.0350     1.9980    -0.4480 C.ar  1 <1>   0.1770 
  3 C        0.9750     1.1090    -0.1340 C.ar  1 <1>  -0.1500 
  4 C        0.1780     3.3630    -0.4200 C.ar  1 <1>  -0.1500 
  5 C        2.2220     1.5970     0.2170 C.ar  1 <1>  -0.1500 
  6 C        1.4270     3.8460    -0.0690 C.ar  1 <1>  -0.1500 
  7 C        2.4520     2.9660     0.2550 C.ar  1 <1>  -0.1430 
  8 C        3.8240     3.5070     0.6440 C.3   1 <1>   0.0890 
  9 S        4.7930     4.1200    -0.7430 S.o2  1 <1>   1.3330 
 10 O        5.1370     3.0360    -1.6370 O.2   1 <1>  -0.6500 
 11 O        4.1470     5.3030    -1.2690 O.2   1 <1>  -0.6500 
 12 N        6.2390     4.6160     0.0010 N.am  1 <1>  -0.8490 
 13 C        6.8570     5.7470    -0.6980 C.3   1 <1>   0.1960 
 14 C        7.1880     3.5080     0.1670 C.3   1 <1>   0.1960 
 15 C        8.0630     6.2680     0.0900 C.3   1 <1>  -0.1600 
 16 C        8.3870     3.9620     1.0010 C.3   1 <1>  -0.1600 
 17 C        9.0990     5.1600     0.3460 C.3   1 <1>  -0.0190 
 18 C       10.2730     5.6780     1.1920 C.2   1 <1>   0.6590 
 19 O       10.2840     5.5320     2.3840 O.2   1 <1>  -0.5700 
 20 O       11.2870     6.3120     0.6040 O.3   1 <1>  -0.4300 
 21 C       11.5190     6.4430    -0.7830 C.3   1 <1>   0.0400 
 22 H        0.7840     0.0520    -0.1670 H     1 <1>   0.1500 
 23 H       -0.6220     4.0350    -0.6740 H     1 <1>   0.1500 
 24 H        3.0100     0.9020     0.4560 H     1 <1>   0.1500 
 25 H        1.5970     4.9110    -0.0560 H     1 <1>   0.1500 
 26 H        4.3730     2.7340     1.1420 H     1 <1>   0.0800 
 27 H        3.6880     4.3050     1.3480 H     1 <1>   0.0800 
 28 H        6.1470     6.5530    -0.7930 H     1 <1>   0.0800 
 29 H        7.1540     5.4460    -1.6900 H     1 <1>   0.0800 
 30 H        7.5230     3.1620    -0.7980 H     1 <1>   0.0800 
 31 H        6.7060     2.6850     0.6670 H     1 <1>   0.0800 
 32 H        7.7150     6.6610     1.0300 H     1 <1>   0.0800 
 33 H        8.5120     7.0800    -0.4530 H     1 <1>   0.0800 
 34 H        9.0780     3.1450     1.1090 H     1 <1>   0.0800 
 35 H        8.0410     4.2290     1.9860 H     1 <1>   0.0800 
 36 H        9.4780     4.8170    -0.5990 H     1 <1>   0.0800 
 37 H       12.4250     7.0070    -0.9150 H     1 <1>   0.0800 
 38 H       10.6980     6.9680    -1.2350 H     1 <1>   0.0800 
 39 H       11.6370     5.4640    -1.2140 H     1 <1>   0.0800 
@<TRIPOS>BOND
  1   1   2  1   
  2   2   3  ar  
  3   2   4  ar  
  4   3   5  ar  
  5   3  22  1   
  6   4   6  ar  
  7   4  23  1   
  8   5   7  ar  
  9   5  24  1   
 10   6   7  ar  
 11   6  25  1   
 12   7   8  1   
 13   8   9  1   
 14   8  26  1   
 15   8  27  1   
 16   9  10  2   
 17   9  11  2   
 18   9  12  am  
 19  12  13  1   
 20  12  14  1   
 21  13  15  1   
 22  13  28  1   
 23  13  29  1   
 24  14  16  1   
 25  14  30  1   
 26  14  31  1   
 27  15  17  1   
 28  15  32  1   
 29  15  33  1   
 30  16  17  1   
 31  16  34  1   
 32  16  35  1   
 33  17  18  1   
 34  17  36  1   
 35  18  19  2   
 36  18  20  1   
 37  20  21  1   
 38  21  37  1   
 39  21  38  1   
 40  21  39  1   
@<TRIPOS>SUBSTRUCTURE
  1 ****   9 GROUP 4 **** **** 0

# MOE 2024.06 (io_trps.svl 2023.06)
