@<TRIPOS>MOLECULE
Cyclohexyl-[3-(4-methoxy-phenyl)-[1,2,4]oxadiazol-5-ylmethyl]-amine
42 44 1 0 0 
SMALL
USER_CHARGES


@<TRIPOS>ATOM
  1 O       -0.3190    -0.1910     0.8300 O.3   1 <1>  -0.0190 
  2 N       -1.5700     0.0920     0.6390 N.2   1 <1>  -0.4100 
  3 C       -0.2770    -1.4970     0.7890 C.2   1 <1>   0.2980 
  4 C       -2.2080    -1.0160     0.4920 C.2   1 <1>   0.4620 
  5 N       -1.3930    -2.0710     0.5940 N.2   1 <1>  -0.5650 
  6 C        1.0690    -2.1830     0.9960 C.3   1 <1>   0.2900 
  7 C       -3.6350    -1.1490     0.2480 C.ar  1 <1>   0.0540 
  8 N        2.0800    -1.7440     0.0140 N.3   1 <1>  -0.9000 
  9 C       -4.4680    -0.0290     0.1950 C.ar  1 <1>  -0.1500 
 10 C       -4.2360    -2.3960     0.0570 C.ar  1 <1>  -0.1500 
 11 C        3.4270    -2.2060     0.3150 C.3   1 <1>   0.1900 
 12 C       -5.8260    -0.1480    -0.0360 C.ar  1 <1>  -0.1500 
 13 C       -5.5930    -2.5240    -0.1740 C.ar  1 <1>  -0.1500 
 14 C        4.4020    -1.3640    -0.5130 C.3   1 <1>  -0.1600 
 15 C        3.5640    -3.6950    -0.0310 C.3   1 <1>  -0.1600 
 16 C       -6.4020    -1.3930    -0.2220 C.ar  1 <1>   0.0830 
 17 C        5.8510    -1.8410    -0.3330 C.3   1 <1>  -0.1600 
 18 C        5.0110    -4.1820     0.1430 C.3   1 <1>  -0.1600 
 19 O       -7.7380    -1.4260    -0.4420 O.3   1 <1>  -0.3620 
 20 C        5.9870    -3.3290    -0.6780 C.3   1 <1>  -0.1600 
 21 C       -8.4200    -2.6440    -0.6430 C.3   1 <1>   0.0400 
 22 H        0.9240    -3.2450     0.9120 H     1 <1>   0.0800 
 23 H        1.4100    -1.9630     1.9920 H     1 <1>   0.0800 
 24 H        2.0910    -0.7170     0.0120 H     1 <1>   0.3600 
 25 H       -4.0460     0.9510     0.3360 H     1 <1>   0.1500 
 26 H       -3.6260    -3.2820     0.0890 H     1 <1>   0.1500 
 27 H        3.6450    -2.0550     1.3610 H     1 <1>   0.0800 
 28 H       -6.4510     0.7260    -0.0740 H     1 <1>   0.1500 
 29 H       -6.0020    -3.5060    -0.3140 H     1 <1>   0.1500 
 30 H        4.3320    -0.3330    -0.2170 H     1 <1>   0.0800 
 31 H        4.1370    -1.4390    -1.5540 H     1 <1>   0.0800 
 32 H        3.2630    -3.8470    -1.0530 H     1 <1>   0.0800 
 33 H        2.9260    -4.2840     0.6010 H     1 <1>   0.0800 
 34 H        6.1570    -1.6810     0.6870 H     1 <1>   0.0800 
 35 H        6.5010    -1.2640    -0.9680 H     1 <1>   0.0800 
 36 H        5.0840    -5.2100    -0.1660 H     1 <1>   0.0800 
 37 H        5.2820    -4.1300     1.1840 H     1 <1>   0.0800 
 38 H        6.9970    -3.6530    -0.4890 H     1 <1>   0.0800 
 39 H        5.7870    -3.4710    -1.7260 H     1 <1>   0.0800 
 40 H       -9.4600    -2.4220    -0.7960 H     1 <1>   0.0800 
 41 H       -8.3010    -3.2580     0.2320 H     1 <1>   0.0800 
 42 H       -8.0180    -3.1300    -1.5140 H     1 <1>   0.0800 
@<TRIPOS>BOND
  1   1   2  1   
  2   1   3  1   
  3   2   4  2   
  4   3   5  2   
  5   3   6  1   
  6   4   5  1   
  7   4   7  1   
  8   6   8  1   
  9   6  22  1   
 10   6  23  1   
 11   7   9  ar  
 12   7  10  ar  
 13   8  11  1   
 14   8  24  1   
 15   9  12  ar  
 16   9  25  1   
 17  10  13  ar  
 18  10  26  1   
 19  11  14  1   
 20  11  15  1   
 21  11  27  1   
 22  12  16  ar  
 23  12  28  1   
 24  13  16  ar  
 25  13  29  1   
 26  14  17  1   
 27  14  30  1   
 28  14  31  1   
 29  15  18  1   
 30  15  32  1   
 31  15  33  1   
 32  16  19  1   
 33  17  20  1   
 34  17  34  1   
 35  17  35  1   
 36  18  20  1   
 37  18  36  1   
 38  18  37  1   
 39  19  21  1   
 40  20  38  1   
 41  20  39  1   
 42  21  40  1   
 43  21  41  1   
 44  21  42  1   
@<TRIPOS>SUBSTRUCTURE
  1 ****   5 GROUP 4 **** **** 0

# MOE 2024.06 (io_trps.svl 2023.06)
