@<TRIPOS>MOLECULE
4-[3-(4-Chloro-phenyl)-[1,2,4]oxadiazol-5-yl]-N,N-dimethyl-butyramide
36 37 1 0 0 
SMALL
USER_CHARGES


@<TRIPOS>ATOM
  1 CL       0.8690     0.1900     2.2320 Cl    1 <1>  -0.1770 
  2 C        2.1390     1.0850     1.4400 C.ar  1 <1>   0.1770 
  3 C        2.3600     2.4040     1.7850 C.ar  1 <1>  -0.1500 
  4 C        2.9110     0.4660     0.4770 C.ar  1 <1>  -0.1500 
  5 C        3.3690     3.1100     1.1530 C.ar  1 <1>  -0.1500 
  6 C        3.9170     1.1820    -0.1480 C.ar  1 <1>  -0.1500 
  7 C        4.1730     2.5190     0.1720 C.ar  1 <1>   0.0540 
  8 C        5.2350     3.2600    -0.4900 C.2   1 <1>   0.4620 
  9 N        6.0460     2.7850    -1.3680 N.2   1 <1>  -0.4100 
 10 N        5.4790     4.5500    -0.2390 N.2   1 <1>  -0.5650 
 11 O        6.8470     3.7380    -1.7260 O.3   1 <1>  -0.0190 
 12 C        6.4610     4.7640    -1.0130 C.2   1 <1>   0.2980 
 13 C        7.2000     6.0820    -1.1660 C.3   1 <1>   0.0200 
 14 C        8.4360     6.1900    -0.2570 C.3   1 <1>  -0.1600 
 15 C        9.4820     5.0820    -0.5040 C.3   1 <1>  -0.0990 
 16 C       10.7590     5.2280     0.3190 C.2   1 <1>   0.5690 
 17 O       10.9850     6.2940     0.8430 O.2   1 <1>  -0.5700 
 18 N       11.6230     4.1650     0.4420 N.am  1 <1>  -0.6600 
 19 C       11.4600     2.8510    -0.2410 C.3   1 <1>   0.0600 
 20 C       12.8310     4.2490     1.3120 C.3   1 <1>   0.0600 
 21 H        1.7480     2.8680     2.5370 H     1 <1>   0.1500 
 22 H        2.7230    -0.5620     0.2220 H     1 <1>   0.1500 
 23 H        3.5370     4.1380     1.4250 H     1 <1>   0.1500 
 24 H        4.5170     0.6950    -0.8990 H     1 <1>   0.1500 
 25 H        6.5210     6.8800    -0.9220 H     1 <1>   0.0800 
 26 H        7.4890     6.2040    -2.1950 H     1 <1>   0.0800 
 27 H        8.1230     6.1520     0.7730 H     1 <1>   0.0800 
 28 H        8.8930     7.1510    -0.4190 H     1 <1>   0.0800 
 29 H        9.7580     5.0770    -1.5420 H     1 <1>   0.0800 
 30 H        9.0420     4.1340    -0.2610 H     1 <1>   0.0800 
 31 H       10.8540     2.9440    -1.1250 H     1 <1>   0.0800 
 32 H       10.9970     2.1490     0.4310 H     1 <1>   0.0800 
 33 H       12.4220     2.4700    -0.5360 H     1 <1>   0.0800 
 34 H       12.8470     5.1750     1.8610 H     1 <1>   0.0800 
 35 H       13.7180     4.1940     0.7060 H     1 <1>   0.0800 
 36 H       12.8290     3.4360     2.0170 H     1 <1>   0.0800 
@<TRIPOS>BOND
  1   1   2  1   
  2   2   3  ar  
  3   2   4  ar  
  4   3   5  ar  
  5   3  21  1   
  6   4   6  ar  
  7   4  22  1   
  8   5   7  ar  
  9   5  23  1   
 10   6   7  ar  
 11   6  24  1   
 12   7   8  1   
 13   8   9  2   
 14   8  10  1   
 15   9  11  1   
 16  10  12  2   
 17  11  12  1   
 18  12  13  1   
 19  13  14  1   
 20  13  25  1   
 21  13  26  1   
 22  14  15  1   
 23  14  27  1   
 24  14  28  1   
 25  15  16  1   
 26  15  29  1   
 27  15  30  1   
 28  16  17  2   
 29  16  18  am  
 30  18  19  1   
 31  18  20  1   
 32  19  31  1   
 33  19  32  1   
 34  19  33  1   
 35  20  34  1   
 36  20  35  1   
 37  20  36  1   
@<TRIPOS>SUBSTRUCTURE
  1 ****   8 GROUP 4 **** **** 0

# MOE 2024.06 (io_trps.svl 2023.06)
