@<TRIPOS>MOLECULE
8-(2,5-Dimethoxy-phenyl)-1,3,6,7-tetramethyl-1H,8H-imidazo[2,1-f]purine-2,4-dion
50 53 1 0 0 
SMALL
USER_CHARGES


@<TRIPOS>ATOM
  1 O        0.9760     0.0330    -1.2140 O.2   1 <1>  -0.5740 
  2 C        1.9340     0.7420    -0.9840 C.2   1 <1>   0.6860 
  3 N        1.7480     2.0810    -0.6540 N.am  1 <1>  -0.4260 
  4 N        3.2160     0.2090    -1.0410 N.am  1 <1>  -0.4410 
  5 C        2.8210     2.8950    -0.3100 C.2   1 <1>   0.6990 
  6 C        0.3580     2.6350    -0.6260 C.3   1 <1>   0.0520 
  7 C        4.2770     1.0260    -0.7040 C.2   1 <1>   0.4210 
  8 C        3.4330    -1.2170    -1.4270 C.3   1 <1>   0.0520 
  9 O        2.6410     4.0570     0.0150 O.2   1 <1>  -0.5740 
 10 C        4.1290     2.3250    -0.3440 C.2   1 <1>   0.2710 
 11 N        5.5980     0.6920    -0.6540 N.pl3 1 <1>  -0.7040 
 12 N        5.4200     2.8020    -0.0580 N.pl3 1 <1>  -0.6330 
 13 C        6.2490     1.7860    -0.2530 C.cat 1 <1>   1.0690 
 14 C        6.1850     3.8520     0.4050 C.2   1 <1>   0.2340 
 15 N        7.5190     2.1070     0.0160 N.pl3 1 <1>  -0.5550 
 16 C        7.4690     3.4260     0.4570 C.2   1 <1>   0.1580 
 17 C        5.5410     5.1780     0.7590 C.3   1 <1>  -0.1090 
 18 C        8.6250     1.2280    -0.0710 C.ar  1 <1>   0.3050 
 19 C        8.7180     4.1590     0.9200 C.3   1 <1>  -0.1090 
 20 C        8.6350    -0.0020     0.6020 C.ar  1 <1>   0.0750 
 21 C        9.7140     1.5810    -0.8500 C.ar  1 <1>  -0.1570 
 22 O        7.5350    -0.3460     1.3350 O.3   1 <1>  -0.3680 
 23 C        9.7450    -0.8360     0.4970 C.ar  1 <1>  -0.1570 
 24 C       10.8150     0.7530    -0.9540 C.ar  1 <1>   0.0750 
 25 C        7.6260    -1.3290     2.3480 C.3   1 <1>   0.0320 
 26 C       10.8300    -0.4600    -0.2740 C.ar  1 <1>  -0.1570 
 27 O       11.8310     1.1960    -1.7360 O.3   1 <1>  -0.3680 
 28 C       13.0090     0.4380    -1.9030 C.3   1 <1>   0.0320 
 29 H       -0.2400     2.1830    -1.3990 H     1 <1>   0.0720 
 30 H        0.3650     3.6990    -0.7880 H     1 <1>   0.0720 
 31 H       -0.0930     2.4280     0.3290 H     1 <1>   0.0720 
 32 H        2.6130    -1.5750    -2.0270 H     1 <1>   0.0720 
 33 H        3.5020    -1.8250    -0.5420 H     1 <1>   0.0720 
 34 H        4.3350    -1.3170    -2.0040 H     1 <1>   0.0720 
 35 H        6.0460    -0.2190    -0.7380 H     1 <1>   0.4450 
 36 H        5.0370     5.5830    -0.1000 H     1 <1>   0.0720 
 37 H        6.2760     5.8880     1.0900 H     1 <1>   0.0720 
 38 H        4.8200     5.0390     1.5450 H     1 <1>   0.0720 
 39 H        9.2270     3.5820     1.6720 H     1 <1>   0.0720 
 40 H        8.4680     5.1150     1.3420 H     1 <1>   0.0720 
 41 H        9.3870     4.3210     0.0940 H     1 <1>   0.0720 
 42 H        9.7200     2.5080    -1.3910 H     1 <1>   0.1430 
 43 H        9.7870    -1.7840     1.0020 H     1 <1>   0.1430 
 44 H        6.7070    -1.3260     2.9070 H     1 <1>   0.0720 
 45 H        8.4470    -1.0870     3.0010 H     1 <1>   0.0720 
 46 H        7.7700    -2.2940     1.8950 H     1 <1>   0.0720 
 47 H       11.6740    -1.1230    -0.3360 H     1 <1>   0.1430 
 48 H       13.6680     0.9840    -2.5530 H     1 <1>   0.0720 
 49 H       12.7570    -0.5070    -2.3500 H     1 <1>   0.0720 
 50 H       13.4760     0.3000    -0.9440 H     1 <1>   0.0720 
@<TRIPOS>BOND
  1   1   2  2   
  2   2   3  am  
  3   2   4  am  
  4   3   5  am  
  5   3   6  1   
  6   4   7  1   
  7   4   8  1   
  8   5   9  2   
  9   5  10  1   
 10   6  29  1   
 11   6  30  1   
 12   6  31  1   
 13   7  10  2   
 14   7  11  1   
 15   8  32  1   
 16   8  33  1   
 17   8  34  1   
 18  10  12  1   
 19  11  13  ar  
 20  11  35  1   
 21  12  13  ar  
 22  12  14  1   
 23  13  15  ar  
 24  14  16  2   
 25  14  17  1   
 26  15  16  1   
 27  15  18  1   
 28  16  19  1   
 29  17  36  1   
 30  17  37  1   
 31  17  38  1   
 32  18  20  ar  
 33  18  21  ar  
 34  19  39  1   
 35  19  40  1   
 36  19  41  1   
 37  20  22  1   
 38  20  23  ar  
 39  21  24  ar  
 40  21  42  1   
 41  22  25  1   
 42  23  26  ar  
 43  23  43  1   
 44  24  26  ar  
 45  24  27  1   
 46  25  44  1   
 47  25  45  1   
 48  25  46  1   
 49  26  47  1   
 50  27  28  1   
 51  28  48  1   
 52  28  49  1   
 53  28  50  1   
@<TRIPOS>SUBSTRUCTURE
  1 ****  13 GROUP 4 **** **** 0

# MOE 2024.06 (io_trps.svl 2023.06)
