@<TRIPOS>MOLECULE
1-(4-Methoxy-3-methyl-benzenesulfonyl)-piperidine-4-carboxylic acid (1-methyl-bu
56 57 1 0 0 
SMALL
USER_CHARGES


@<TRIPOS>ATOM
  1 S        0.1330    -0.2960    -2.4290 S.o2  1 <1>   1.4470 
  2 O        0.6320    -1.4850    -3.0860 O.2   1 <1>  -0.6500 
  3 O       -0.5020     0.7390    -3.2170 O.2   1 <1>  -0.6500 
  4 N        1.4550     0.4360    -1.6570 N.am  1 <1>  -0.8490 
  5 C       -0.9280    -0.7830    -1.0410 C.ar  1 <1>  -0.0090 
  6 C        1.0880     1.7180    -1.0480 C.3   1 <1>   0.1960 
  7 C        2.5800     0.5990    -2.5800 C.3   1 <1>   0.1960 
  8 C       -2.1610    -0.1780    -0.8240 C.ar  1 <1>  -0.1500 
  9 C       -0.5200    -1.7630    -0.1450 C.ar  1 <1>  -0.1500 
 10 C        2.2530     2.2440    -0.2090 C.3   1 <1>  -0.1600 
 11 C        3.8130     1.0880    -1.8170 C.3   1 <1>  -0.1600 
 12 C       -2.9640    -0.5270     0.2500 C.ar  1 <1>  -0.1430 
 13 C       -1.3090    -2.1270     0.9320 C.ar  1 <1>  -0.1500 
 14 C        3.5250     2.3970    -1.0620 C.3   1 <1>  -0.0190 
 15 C       -2.5380    -1.5080     1.1380 C.ar  1 <1>   0.0830 
 16 C       -4.3060     0.1650     0.4460 C.3   1 <1>  -0.0970 
 17 C        4.7210     2.8420    -0.2280 C.2   1 <1>   0.5690 
 18 O       -3.3540    -1.8180     2.1780 O.3   1 <1>  -0.3630 
 19 O        5.2650     3.8840    -0.5000 O.2   1 <1>  -0.5700 
 20 N        5.1390     2.0470     0.7900 N.am  1 <1>  -0.7300 
 21 C       -3.0270    -2.8270     3.1070 C.3   1 <1>   0.0400 
 22 C        6.3060     2.3000     1.6450 C.3   1 <1>   0.2200 
 23 C        7.3230     1.1630     1.4780 C.3   1 <1>  -0.1600 
 24 C        5.8130     2.3960     3.0850 C.3   1 <1>  -0.2400 
 25 C        7.8690     1.0560     0.0440 C.3   1 <1>  -0.1600 
 26 C        8.9320    -0.0400    -0.0610 C.3   1 <1>  -0.2400 
 27 H        0.2310     1.5900    -0.4070 H     1 <1>   0.0800 
 28 H        0.8320     2.4340    -1.8130 H     1 <1>   0.0800 
 29 H        2.3190     1.2970    -3.3600 H     1 <1>   0.0800 
 30 H        2.8160    -0.3460    -3.0420 H     1 <1>   0.0800 
 31 H       -2.4930     0.5810    -1.5120 H     1 <1>   0.1500 
 32 H        0.4310    -2.2460    -0.2970 H     1 <1>   0.1500 
 33 H        2.4230     1.5610     0.6040 H     1 <1>   0.0800 
 34 H        1.9880     3.1980     0.2130 H     1 <1>   0.0800 
 35 H        4.6210     1.2440    -2.5100 H     1 <1>   0.0800 
 36 H        4.1140     0.3170    -1.1310 H     1 <1>   0.0800 
 37 H       -0.9500    -2.8900     1.5950 H     1 <1>   0.1500 
 38 H        3.3420     3.1660    -1.7930 H     1 <1>   0.0800 
 39 H       -4.4890     0.8920    -0.3240 H     1 <1>   0.0800 
 40 H       -4.3250     0.6600     1.4000 H     1 <1>   0.0800 
 41 H       -5.0960    -0.5650     0.4230 H     1 <1>   0.0800 
 42 H        4.6550     1.1690     0.9690 H     1 <1>   0.3700 
 43 H       -3.8290    -2.8970     3.8200 H     1 <1>   0.0800 
 44 H       -2.1150    -2.5580     3.6090 H     1 <1>   0.0800 
 45 H       -2.9210    -3.7620     2.5850 H     1 <1>   0.0800 
 46 H        6.7660     3.2350     1.3660 H     1 <1>   0.0800 
 47 H        6.8720     0.2300     1.7680 H     1 <1>   0.0800 
 48 H        8.1460     1.3470     2.1450 H     1 <1>   0.0800 
 49 H        5.3490     1.4770     3.3940 H     1 <1>   0.0800 
 50 H        5.1070     3.2020     3.1760 H     1 <1>   0.0800 
 51 H        6.6400     2.6000     3.7410 H     1 <1>   0.0800 
 52 H        8.2990     2.0000    -0.2480 H     1 <1>   0.0800 
 53 H        7.0690     0.8350    -0.6410 H     1 <1>   0.0800 
 54 H        9.7610     0.1750     0.5900 H     1 <1>   0.0800 
 55 H        9.2990    -0.0990    -1.0710 H     1 <1>   0.0800 
 56 H        8.5170    -0.9950     0.2080 H     1 <1>   0.0800 
@<TRIPOS>BOND
  1   1   2  2   
  2   1   3  2   
  3   1   4  am  
  4   1   5  1   
  5   4   6  1   
  6   4   7  1   
  7   5   8  ar  
  8   5   9  ar  
  9   6  10  1   
 10   6  27  1   
 11   6  28  1   
 12   7  11  1   
 13   7  29  1   
 14   7  30  1   
 15   8  12  ar  
 16   8  31  1   
 17   9  13  ar  
 18   9  32  1   
 19  10  14  1   
 20  10  33  1   
 21  10  34  1   
 22  11  14  1   
 23  11  35  1   
 24  11  36  1   
 25  12  15  ar  
 26  12  16  1   
 27  13  15  ar  
 28  13  37  1   
 29  14  17  1   
 30  14  38  1   
 31  15  18  1   
 32  16  39  1   
 33  16  40  1   
 34  16  41  1   
 35  17  19  2   
 36  17  20  am  
 37  18  21  1   
 38  20  22  1   
 39  20  42  1   
 40  21  43  1   
 41  21  44  1   
 42  21  45  1   
 43  22  23  1   
 44  22  24  1   
 45  22  46  1   
 46  23  25  1   
 47  23  47  1   
 48  23  48  1   
 49  24  49  1   
 50  24  50  1   
 51  24  51  1   
 52  25  26  1   
 53  25  52  1   
 54  25  53  1   
 55  26  54  1   
 56  26  55  1   
 57  26  56  1   
@<TRIPOS>SUBSTRUCTURE
  1 ****   4 GROUP 4 **** **** 0

# MOE 2024.06 (io_trps.svl 2023.06)
