@<TRIPOS>MOLECULE
[4-(4-Fluoro-benzenesulfonyl)-piperazin-1-yl]-piperidin-1-yl-methanone
46 48 1 0 0 
SMALL
USER_CHARGES


@<TRIPOS>ATOM
  1 S       -0.1020    -0.0420     1.1940 S.o2  1 <1>   1.4470 
  2 O       -0.3180    -1.3670     1.7350 O.2   1 <1>  -0.6500 
  3 O        0.2260     1.0470     2.0870 O.2   1 <1>  -0.6500 
  4 N       -1.5290     0.3920     0.3880 N.am  1 <1>  -0.8490 
  5 C        1.1250    -0.1030    -0.1440 C.ar  1 <1>  -0.0090 
  6 C       -2.0740    -0.7200    -0.4180 C.3   1 <1>   0.1960 
  7 C       -2.5470     0.8830     1.3390 C.3   1 <1>   0.1960 
  8 C        1.8450    -1.2670    -0.4080 C.ar  1 <1>  -0.1500 
  9 C        1.3670     1.0190    -0.9340 C.ar  1 <1>  -0.1500 
 10 C       -3.3480    -0.3100    -1.1760 C.3   1 <1>   0.1400 
 11 C       -3.8440     1.3190     0.6360 C.3   1 <1>   0.1400 
 12 C        2.7780    -1.3180    -1.4320 C.ar  1 <1>  -0.1500 
 13 C        2.2970     0.9890    -1.9620 C.ar  1 <1>  -0.1500 
 14 N       -4.3630     0.2250    -0.2290 N.am  1 <1>  -0.6600 
 15 C        2.9870    -0.1840    -2.1920 C.ar  1 <1>   0.1900 
 16 C       -5.7090     0.0140    -0.3740 C.2   1 <1>   0.6900 
 17 F        3.8630    -0.2240    -3.1580 F     1 <1>  -0.1900 
 18 O       -6.4820     0.9250    -0.1320 O.2   1 <1>  -0.5700 
 19 N       -6.1880    -1.2060    -0.7800 N.am  1 <1>  -0.6600 
 20 C       -7.5390    -1.3200    -1.3930 C.3   1 <1>   0.1400 
 21 C       -5.6400    -2.4790    -0.2390 C.3   1 <1>   0.1400 
 22 C       -8.5260    -1.9130    -0.3820 C.3   1 <1>  -0.1600 
 23 C       -6.6190    -3.0820     0.7750 C.3   1 <1>  -0.1600 
 24 C       -8.0240    -3.2490     0.1810 C.3   1 <1>  -0.1600 
 25 H       -2.3080    -1.5570     0.2180 H     1 <1>   0.0800 
 26 H       -1.3360    -1.0420    -1.1330 H     1 <1>   0.0800 
 27 H       -2.1580     1.7290     1.8810 H     1 <1>   0.0800 
 28 H       -2.7780     0.1120     2.0560 H     1 <1>   0.0800 
 29 H        1.6750    -2.1440     0.1950 H     1 <1>   0.1500 
 30 H        0.8190     1.9270    -0.7380 H     1 <1>   0.1500 
 31 H       -3.7410    -1.1530    -1.7150 H     1 <1>   0.0800 
 32 H       -3.1020     0.4540    -1.8930 H     1 <1>   0.0800 
 33 H       -3.6530     2.1880     0.0320 H     1 <1>   0.0800 
 34 H       -4.5810     1.5800     1.3760 H     1 <1>   0.0800 
 35 H        3.3360    -2.2150    -1.6370 H     1 <1>   0.1500 
 36 H        2.4860     1.8550    -2.5710 H     1 <1>   0.1500 
 37 H       -7.4760    -1.9540    -2.2600 H     1 <1>   0.0800 
 38 H       -7.8840    -0.3510    -1.7140 H     1 <1>   0.0800 
 39 H       -4.6970    -2.3060     0.2480 H     1 <1>   0.0800 
 40 H       -5.4840    -3.1660    -1.0520 H     1 <1>   0.0800 
 41 H       -9.4800    -2.0530    -0.8580 H     1 <1>   0.0800 
 42 H       -8.6600    -1.2060     0.4190 H     1 <1>   0.0800 
 43 H       -6.6660    -2.4350     1.6340 H     1 <1>   0.0800 
 44 H       -6.2490    -4.0360     1.1040 H     1 <1>   0.0800 
 45 H       -7.9960    -3.9820    -0.6070 H     1 <1>   0.0800 
 46 H       -8.7010    -3.6000     0.9400 H     1 <1>   0.0800 
@<TRIPOS>BOND
  1   1   2  2   
  2   1   3  2   
  3   1   4  am  
  4   1   5  1   
  5   4   6  1   
  6   4   7  1   
  7   5   8  ar  
  8   5   9  ar  
  9   6  10  1   
 10   6  25  1   
 11   6  26  1   
 12   7  11  1   
 13   7  27  1   
 14   7  28  1   
 15   8  12  ar  
 16   8  29  1   
 17   9  13  ar  
 18   9  30  1   
 19  10  14  1   
 20  10  31  1   
 21  10  32  1   
 22  11  14  1   
 23  11  33  1   
 24  11  34  1   
 25  12  15  ar  
 26  12  35  1   
 27  13  15  ar  
 28  13  36  1   
 29  14  16  am  
 30  15  17  1   
 31  16  18  2   
 32  16  19  am  
 33  19  20  1   
 34  19  21  1   
 35  20  22  1   
 36  20  37  1   
 37  20  38  1   
 38  21  23  1   
 39  21  39  1   
 40  21  40  1   
 41  22  24  1   
 42  22  41  1   
 43  22  42  1   
 44  23  24  1   
 45  23  43  1   
 46  23  44  1   
 47  24  45  1   
 48  24  46  1   
@<TRIPOS>SUBSTRUCTURE
  1 ****   6 GROUP 4 **** **** 0

# MOE 2024.06 (io_trps.svl 2023.06)
