@<TRIPOS>MOLECULE
N-(2-Hydroxy-quinolin-3-ylmethyl)-4-methoxy-N-(tetrahydro-furan-2-ylmethyl)-benz
53 56 1 0 0 
SMALL
USER_CHARGES


@<TRIPOS>ATOM
  1 O        1.3330    -0.2530    -2.4290 O.2   1 <1>  -0.5700 
  2 C        1.9100    -0.4890    -1.3830 C.2   1 <1>   0.5440 
  3 N        2.4170     0.5640    -0.6500 N.am  1 <1>  -0.6600 
  4 C        2.0560    -1.8640    -0.9550 C.ar  1 <1>   0.0860 
  5 C        2.0890     1.9720    -1.0080 C.3   1 <1>   0.2780 
  6 C        3.3160     0.3960     0.5400 C.3   1 <1>   0.1400 
  7 C        1.5070    -2.3220     0.2440 C.ar  1 <1>  -0.1500 
  8 C        2.7560    -2.7830    -1.7360 C.ar  1 <1>  -0.1500 
  9 C        0.8910     2.4300    -0.1960 C.2   1 <1>  -0.1240 
 10 C        4.6990    -0.1440     0.1460 C.3   1 <1>   0.2000 
 11 C        1.6700    -3.6300     0.6610 C.ar  1 <1>  -0.1500 
 12 C        2.9230    -4.0930    -1.3270 C.ar  1 <1>  -0.1500 
 13 C        1.1300     3.2530     0.9500 C.2   1 <1>   0.6160 
 14 C       -0.3740     2.0730    -0.5350 C.2   1 <1>  -0.1780 
 15 O        5.5040    -0.2110     1.2760 O.3   1 <1>  -0.5600 
 16 C        5.4790     0.7370    -0.8180 C.3   1 <1>  -0.1600 
 17 C        2.3880    -4.5270    -0.1250 C.ar  1 <1>   0.0820 
 18 O        2.2360     3.6220     1.3050 O.2   1 <1>  -0.5700 
 19 N        0.0560     3.6540     1.6850 N.am  1 <1>  -0.5470 
 20 C       -1.4950     2.5060     0.2440 C.ar  1 <1>   0.0280 
 21 C        6.8520    -0.1800     0.9210 C.3   1 <1>   0.1200 
 22 C        6.9190     0.3760    -0.5000 C.3   1 <1>  -0.1600 
 23 O        2.6010    -5.8190     0.2100 O.3   1 <1>  -0.3620 
 24 C       -1.2550     3.3090     1.3720 C.ar  1 <1>   0.1170 
 25 C       -2.8110     2.1610    -0.0670 C.ar  1 <1>  -0.1500 
 26 C        2.1090    -6.3660     1.4130 C.3   1 <1>   0.0400 
 27 C       -2.3240     3.7440     2.1510 C.ar  1 <1>  -0.1500 
 28 C       -3.8600     2.5980     0.7130 C.ar  1 <1>  -0.1500 
 29 C       -3.6170     3.3930     1.8260 C.ar  1 <1>  -0.1500 
 30 H        1.8520     2.0420    -2.0550 H     1 <1>   0.0800 
 31 H        2.9420     2.6060    -0.8350 H     1 <1>   0.0800 
 32 H        2.8630    -0.2760     1.2440 H     1 <1>   0.0800 
 33 H        3.4470     1.3440     1.0330 H     1 <1>   0.0800 
 34 H        0.9440    -1.6340     0.8510 H     1 <1>   0.1500 
 35 H        3.1680    -2.4570    -2.6750 H     1 <1>   0.1500 
 36 H        4.6180    -1.1460    -0.2390 H     1 <1>   0.0800 
 37 H        1.2340    -3.9340     1.5940 H     1 <1>   0.1500 
 38 H        3.4680    -4.7910    -1.9370 H     1 <1>   0.1500 
 39 H       -0.5710     1.4510    -1.3920 H     1 <1>   0.1500 
 40 H        5.2980     1.7730    -0.5900 H     1 <1>   0.0800 
 41 H        5.2140     0.5430    -1.8420 H     1 <1>   0.0800 
 42 H        0.2720     4.2370     2.4910 H     1 <1>   0.3700 
 43 H        7.2390    -1.1830     0.9720 H     1 <1>   0.0800 
 44 H        7.3680     0.4500     1.6240 H     1 <1>   0.0800 
 45 H        7.5720     1.2290    -0.5600 H     1 <1>   0.0800 
 46 H        7.2760    -0.3890    -1.1660 H     1 <1>   0.0800 
 47 H       -3.0010     1.5460    -0.9290 H     1 <1>   0.1500 
 48 H        2.4070    -7.3980     1.4560 H     1 <1>   0.0800 
 49 H        1.0360    -6.2950     1.4150 H     1 <1>   0.0800 
 50 H        2.5340    -5.8280     2.2410 H     1 <1>   0.0800 
 51 H       -2.1350     4.3590     3.0130 H     1 <1>   0.1500 
 52 H       -4.8720     2.3260     0.4630 H     1 <1>   0.1500 
 53 H       -4.4410     3.7300     2.4300 H     1 <1>   0.1500 
@<TRIPOS>BOND
  1   1   2  2   
  2   2   3  am  
  3   2   4  1   
  4   3   5  1   
  5   3   6  1   
  6   4   7  ar  
  7   4   8  ar  
  8   5   9  1   
  9   5  30  1   
 10   5  31  1   
 11   6  10  1   
 12   6  32  1   
 13   6  33  1   
 14   7  11  ar  
 15   7  34  1   
 16   8  12  ar  
 17   8  35  1   
 18   9  13  1   
 19   9  14  2   
 20  10  15  1   
 21  10  16  1   
 22  10  36  1   
 23  11  17  ar  
 24  11  37  1   
 25  12  17  ar  
 26  12  38  1   
 27  13  18  2   
 28  13  19  am  
 29  14  20  1   
 30  14  39  1   
 31  15  21  1   
 32  16  22  1   
 33  16  40  1   
 34  16  41  1   
 35  17  23  1   
 36  19  24  1   
 37  19  42  1   
 38  20  24  ar  
 39  20  25  ar  
 40  21  22  1   
 41  21  43  1   
 42  21  44  1   
 43  22  45  1   
 44  22  46  1   
 45  23  26  1   
 46  24  27  ar  
 47  25  28  ar  
 48  25  47  1   
 49  26  48  1   
 50  26  49  1   
 51  26  50  1   
 52  27  29  ar  
 53  27  51  1   
 54  28  29  ar  
 55  28  52  1   
 56  29  53  1   
@<TRIPOS>SUBSTRUCTURE
  1 ****   3 GROUP 4 **** **** 0

# MOE 2024.06 (io_trps.svl 2023.06)
