@<TRIPOS>MOLECULE
1,3-Dimethyl-7-(2-morpholin-4-yl-ethyl)-8-piperidin-1-ylmethyl-3,7-dihydro-purin
59 62 1 0 0 
SMALL
USER_CHARGES


@<TRIPOS>ATOM
  1 O        1.0610     0.8790     1.4110 O.2   1 <1>  -0.5700 
  2 C        2.1490     1.3050     1.0820 C.2   1 <1>   0.6900 
  3 N        2.2770     2.6200     0.6440 N.am  1 <1>  -0.4200 
  4 N        3.2620     0.4800     1.1430 N.am  1 <1>  -0.4360 
  5 C        3.5100     3.1390     0.2710 C.2   1 <1>   0.7030 
  6 C        1.0540     3.4830     0.6060 C.3   1 <1>   0.0600 
  7 C        4.4770     0.9960     0.7360 C.2   1 <1>   0.4260 
  8 C        3.1530    -0.9320     1.6150 C.3   1 <1>   0.0600 
  9 O        3.6190     4.3030    -0.0740 O.2   1 <1>  -0.5700 
 10 C        4.6510     2.2690     0.3070 C.2   1 <1>   0.2770 
 11 N        5.6760     0.3680     0.6800 N.pl3 1 <1>  -0.7000 
 12 N        6.0080     2.4030    -0.0150 N.pl3 1 <1>  -0.7640 
 13 C        6.5800     1.2260     0.2260 C.cat 1 <1>   0.6560 
 14 C        6.6240     3.6590    -0.5370 C.3   1 <1>   0.3540 
 15 C        8.0520     0.8200     0.0420 C.3   1 <1>   0.2540 
 16 C        6.9090     4.6490     0.6020 C.3   1 <1>   0.1100 
 17 N        8.2140    -0.6580     0.1040 N.3   1 <1>  -0.8100 
 18 N        7.7670     5.7520     0.1400 N.3   1 <1>  -0.8100 
 19 C        9.5640    -1.0370     0.5560 C.3   1 <1>   0.1100 
 20 C        7.9030    -1.2950    -1.1920 C.3   1 <1>   0.1100 
 21 C        7.0100     6.7480    -0.6570 C.3   1 <1>   0.1100 
 22 C        8.4000     6.4440     1.2850 C.3   1 <1>   0.1100 
 23 C        9.6300    -2.5520     0.7740 C.3   1 <1>  -0.1600 
 24 C        7.9040    -2.8180    -1.0340 C.3   1 <1>  -0.1600 
 25 C        7.9040     7.9340    -1.0670 C.3   1 <1>   0.1200 
 26 C        9.2550     7.6360     0.8160 C.3   1 <1>   0.1200 
 27 C        9.2510    -3.3180    -0.4990 C.3   1 <1>  -0.1600 
 28 O        8.4810     8.5230     0.0620 O.3   1 <1>  -0.5600 
 29 H        0.2240     2.9290     0.2030 H     1 <1>   0.0800 
 30 H        1.2070     4.3530    -0.0080 H     1 <1>   0.0800 
 31 H        0.8060     3.8000     1.6050 H     1 <1>   0.0800 
 32 H        2.2510    -1.0760     2.1870 H     1 <1>   0.0800 
 33 H        3.9890    -1.1810     2.2450 H     1 <1>   0.0800 
 34 H        3.1320    -1.5970     0.7690 H     1 <1>   0.0800 
 35 H        5.9360    -0.5980     0.9080 H     1 <1>   0.4500 
 36 H        5.9630     4.1130    -1.2560 H     1 <1>   0.0800 
 37 H        7.5510     3.4290    -1.0330 H     1 <1>   0.0800 
 38 H        8.6110     1.2770     0.8400 H     1 <1>   0.0800 
 39 H        8.4300     1.1960    -0.8920 H     1 <1>   0.0800 
 40 H        7.4230     4.1190     1.3850 H     1 <1>   0.0800 
 41 H        5.9870     5.0400     1.0000 H     1 <1>   0.0800 
 42 H        9.7920    -0.5460     1.4880 H     1 <1>   0.0800 
 43 H       10.2990    -0.7410    -0.1750 H     1 <1>   0.0800 
 44 H        8.6370    -1.0100    -1.9290 H     1 <1>   0.0800 
 45 H        6.9340    -0.9820    -1.5410 H     1 <1>   0.0800 
 46 H        6.1790     7.1270    -0.0850 H     1 <1>   0.0800 
 47 H        6.6210     6.2900    -1.5490 H     1 <1>   0.0800 
 48 H        9.0320     5.7560     1.8190 H     1 <1>   0.0800 
 49 H        7.6460     6.8060     1.9630 H     1 <1>   0.0800 
 50 H        8.9610    -2.8200     1.5730 H     1 <1>   0.0800 
 51 H       10.6260    -2.8270     1.0750 H     1 <1>   0.0800 
 52 H        7.7030    -3.2780    -1.9860 H     1 <1>   0.0800 
 53 H        7.1170    -3.1040    -0.3590 H     1 <1>   0.0800 
 54 H        7.3210     8.6860    -1.5670 H     1 <1>   0.0800 
 55 H        8.6890     7.6070    -1.7250 H     1 <1>   0.0800 
 56 H       10.0800     7.2990     0.2140 H     1 <1>   0.0800 
 57 H        9.6390     8.1760     1.6630 H     1 <1>   0.0800 
 58 H        9.1970    -4.3730    -0.2910 H     1 <1>   0.0800 
 59 H       10.0100    -3.1650    -1.2470 H     1 <1>   0.0800 
@<TRIPOS>BOND
  1   1   2  2   
  2   2   3  am  
  3   2   4  am  
  4   3   5  am  
  5   3   6  1   
  6   4   7  1   
  7   4   8  1   
  8   5   9  2   
  9   5  10  1   
 10   6  29  1   
 11   6  30  1   
 12   6  31  1   
 13   7  10  2   
 14   7  11  1   
 15   8  32  1   
 16   8  33  1   
 17   8  34  1   
 18  10  12  1   
 19  11  13  ar  
 20  11  35  1   
 21  12  13  ar  
 22  12  14  1   
 23  13  15  1   
 24  14  16  1   
 25  14  36  1   
 26  14  37  1   
 27  15  17  1   
 28  15  38  1   
 29  15  39  1   
 30  16  18  1   
 31  16  40  1   
 32  16  41  1   
 33  17  19  1   
 34  17  20  1   
 35  18  21  1   
 36  18  22  1   
 37  19  23  1   
 38  19  42  1   
 39  19  43  1   
 40  20  24  1   
 41  20  44  1   
 42  20  45  1   
 43  21  25  1   
 44  21  46  1   
 45  21  47  1   
 46  22  26  1   
 47  22  48  1   
 48  22  49  1   
 49  23  27  1   
 50  23  50  1   
 51  23  51  1   
 52  24  27  1   
 53  24  52  1   
 54  24  53  1   
 55  25  28  1   
 56  25  54  1   
 57  25  55  1   
 58  26  28  1   
 59  26  56  1   
 60  26  57  1   
 61  27  58  1   
 62  27  59  1   
@<TRIPOS>SUBSTRUCTURE
  1 ****  12 GROUP 4 **** **** 0

# MOE 2024.06 (io_trps.svl 2023.06)
