@<TRIPOS>MOLECULE
3-Isopropyl-6-(4-methoxy-benzyl)-[1,2,4]triazolo[3,4-b][1,3,4]thiadiazole
36 38 1 0 0 
SMALL
USER_CHARGES


@<TRIPOS>ATOM
  1 S       -1.7550     0.9010    -2.0170 S.3   1 <1>  -0.1970 
  2 C       -0.5910     2.2070    -1.9890 C.2   1 <1>   0.2420 
  3 C       -1.9760     1.1300    -0.2680 C.2   1 <1>   0.5300 
  4 N        0.1580     2.8010    -2.8480 N.2   1 <1>  -0.3380 
  5 N       -0.4880     2.6590    -0.7510 N.pl3 1 <1>   0.5050 
  6 N       -1.2640     2.0520     0.2440 N.2   1 <1>  -0.6520 
  7 C       -2.9660     0.2110     0.4190 C.3   1 <1>   0.0450 
  8 N        0.8170     3.7310    -2.1300 N.2   1 <1>  -0.3380 
  9 C        0.4240     3.6330    -0.8920 C.2   1 <1>   0.0070 
 10 C       -4.3960     0.5560     0.0290 C.ar  1 <1>  -0.1440 
 11 C        0.8890     4.4840     0.2850 C.3   1 <1>   0.1000 
 12 C       -5.0340     1.6340     0.6230 C.ar  1 <1>  -0.1500 
 13 C       -5.0700    -0.1950    -0.9210 C.ar  1 <1>  -0.1500 
 14 C       -0.0930     5.6370     0.5190 C.3   1 <1>  -0.2400 
 15 C        2.3050     5.0340     0.0660 C.3   1 <1>  -0.2400 
 16 C       -6.3330     1.9610     0.2740 C.ar  1 <1>  -0.1500 
 17 C       -6.3680     0.1300    -1.2720 C.ar  1 <1>  -0.1500 
 18 C       -7.0090     1.2060    -0.6800 C.ar  1 <1>   0.0830 
 19 O       -8.2810     1.4560    -1.0810 O.3   1 <1>  -0.3630 
 20 C       -9.0260     2.5200    -0.5340 C.3   1 <1>   0.0400 
 21 H       -2.8530     0.3100     1.4830 H     1 <1>   0.0800 
 22 H       -2.7410    -0.8070     0.1580 H     1 <1>   0.0800 
 23 H        0.9060     3.8640     1.1660 H     1 <1>   0.0800 
 24 H       -4.5230     2.2280     1.3610 H     1 <1>   0.1500 
 25 H       -4.5940    -1.0350    -1.3980 H     1 <1>   0.1500 
 26 H       -0.1420     6.2660    -0.3530 H     1 <1>   0.0800 
 27 H        0.2180     6.2310     1.3590 H     1 <1>   0.0800 
 28 H       -1.0780     5.2520     0.7190 H     1 <1>   0.0800 
 29 H        2.3270     5.6830    -0.7920 H     1 <1>   0.0800 
 30 H        2.9910     4.2230    -0.1040 H     1 <1>   0.0800 
 31 H        2.6320     5.5870     0.9280 H     1 <1>   0.0800 
 32 H       -6.8000     2.8010     0.7510 H     1 <1>   0.1500 
 33 H       -6.8950    -0.4490    -2.0090 H     1 <1>   0.1500 
 34 H       -9.9960     2.5220    -0.9980 H     1 <1>   0.0800 
 35 H       -8.5190     3.4450    -0.7430 H     1 <1>   0.0800 
 36 H       -9.1290     2.3660     0.5260 H     1 <1>   0.0800 
@<TRIPOS>BOND
  1   1   2  1   
  2   1   3  1   
  3   2   4  2   
  4   2   5  1   
  5   3   6  2   
  6   3   7  1   
  7   4   8  1   
  8   5   6  1   
  9   5   9  1   
 10   7  10  1   
 11   7  21  1   
 12   7  22  1   
 13   8   9  2   
 14   9  11  1   
 15  10  12  ar  
 16  10  13  ar  
 17  11  14  1   
 18  11  15  1   
 19  11  23  1   
 20  12  16  ar  
 21  12  24  1   
 22  13  17  ar  
 23  13  25  1   
 24  14  26  1   
 25  14  27  1   
 26  14  28  1   
 27  15  29  1   
 28  15  30  1   
 29  15  31  1   
 30  16  18  ar  
 31  16  32  1   
 32  17  18  ar  
 33  17  33  1   
 34  18  19  1   
 35  19  20  1   
 36  20  34  1   
 37  20  35  1   
 38  20  36  1   
@<TRIPOS>SUBSTRUCTURE
  1 ****   3 GROUP 4 **** **** 0

# MOE 2024.06 (io_trps.svl 2023.06)
