@<TRIPOS>MOLECULE
2-Piperidin-1-yl-propylamine
30 30 1 0 0 
SMALL
USER_CHARGES


@<TRIPOS>ATOM
  1 N       -0.0610     0.0320     0.1240 N.4   1 <1>  -0.9590 
  2 C        1.0040     1.0680    -0.1500 C.3   1 <1>   0.4230 
  3 C        0.2720    -1.3650    -0.3250 C.3   1 <1>   0.3430 
  4 C       -1.3900     0.4280    -0.4670 C.3   1 <1>   0.3430 
  5 C        2.4660     0.5820     0.1550 C.3   1 <1>   0.3430 
  6 C        0.6780     2.3160     0.6830 C.3   1 <1>  -0.2400 
  7 C       -0.7820    -2.3460     0.1920 C.3   1 <1>  -0.1600 
  8 C       -2.4890    -0.5050     0.0430 C.3   1 <1>  -0.1600 
  9 N        3.5590     1.6050    -0.0470 N.4   1 <1>  -0.8530 
 10 C       -2.1880    -1.9700    -0.2860 C.3   1 <1>  -0.1600 
 11 H       -0.2310    -0.0190     1.1400 H     1 <1>   0.4500 
 12 H        0.9560     1.3250    -1.1970 H     1 <1>   0.0800 
 13 H        1.2320    -1.6710     0.0540 H     1 <1>   0.0800 
 14 H        0.2980    -1.4100    -1.4030 H     1 <1>   0.0800 
 15 H       -1.3460     0.3730    -1.5440 H     1 <1>   0.0800 
 16 H       -1.6480     1.4370    -0.1930 H     1 <1>   0.0800 
 17 H        2.6790    -0.2670    -0.4740 H     1 <1>   0.0800 
 18 H        2.4990     0.2480     1.1800 H     1 <1>   0.0800 
 19 H        0.7000     2.0960     1.7370 H     1 <1>   0.0800 
 20 H       -0.2860     2.7220     0.4350 H     1 <1>   0.0800 
 21 H        1.3860     3.1010     0.4900 H     1 <1>   0.0800 
 22 H       -0.7550    -2.3760     1.2680 H     1 <1>   0.0800 
 23 H       -0.5450    -3.3360    -0.1600 H     1 <1>   0.0800 
 24 H       -3.4250    -0.2270    -0.4140 H     1 <1>   0.0800 
 25 H       -2.6050    -0.3810     1.1060 H     1 <1>   0.0800 
 26 H        3.6230     1.9490    -1.0150 H     1 <1>   0.4500 
 27 H        4.4820     1.2020     0.1740 H     1 <1>   0.4500 
 28 H        3.4560     2.4230     0.5700 H     1 <1>   0.4500 
 29 H       -2.9190    -2.6090     0.1830 H     1 <1>   0.0800 
 30 H       -2.2600    -2.1230    -1.3500 H     1 <1>   0.0800 
@<TRIPOS>BOND
  1   1   2  1   
  2   1   3  1   
  3   1   4  1   
  4   1  11  1   
  5   2   5  1   
  6   2   6  1   
  7   2  12  1   
  8   3   7  1   
  9   3  13  1   
 10   3  14  1   
 11   4   8  1   
 12   4  15  1   
 13   4  16  1   
 14   5   9  1   
 15   5  17  1   
 16   5  18  1   
 17   6  19  1   
 18   6  20  1   
 19   6  21  1   
 20   7  10  1   
 21   7  22  1   
 22   7  23  1   
 23   8  10  1   
 24   8  24  1   
 25   8  25  1   
 26   9  26  1   
 27   9  27  1   
 28   9  28  1   
 29  10  29  1   
 30  10  30  1   
@<TRIPOS>SUBSTRUCTURE
  1 ****   1 GROUP 4 **** **** 0

# MOE 2024.06 (io_trps.svl 2023.06)
