@<TRIPOS>MOLECULE
3-[3-(4-tert-Butyl-phenyl)-[1,2,4]oxadiazol-5-yl]-N-furan-2-ylmethyl-propionamid
49 51 1 0 0 
SMALL
USER_CHARGES


@<TRIPOS>ATOM
  1 O        0.4670    -0.7080     1.2900 O.2   1 <1>  -0.5700 
  2 C        0.7960    -1.6820     0.6650 C.2   1 <1>   0.5690 
  3 N        1.9000    -1.6380    -0.1090 N.am  1 <1>  -0.7300 
  4 C       -0.0300    -2.9530     0.7580 C.3   1 <1>  -0.0990 
  5 C        2.5530    -2.7100    -0.8850 C.3   1 <1>   0.3200 
  6 C       -1.3860    -2.7380     1.4490 C.3   1 <1>   0.0200 
  7 C        4.0570    -2.5350    -0.7940 C.2   1 <1>  -0.0400 
  8 C       -2.1800    -4.0280     1.4970 C.2   1 <1>   0.2980 
  9 O        4.6000    -1.4340    -1.2790 O.3   1 <1>  -0.2800 
 10 C        5.0080    -3.3430    -0.2760 C.2   1 <1>  -0.1500 
 11 O       -1.7720    -4.9880     2.2850 O.3   1 <1>  -0.0190 
 12 N       -3.2250    -4.2800     0.8260 N.2   1 <1>  -0.5650 
 13 C        5.9010    -1.5130    -1.0840 C.2   1 <1>  -0.0100 
 14 C        6.2220    -2.6700    -0.4670 C.2   1 <1>  -0.1500 
 15 N       -2.6340    -5.9360     2.0970 N.2   1 <1>  -0.4100 
 16 C       -3.4980    -5.5230     1.2380 C.2   1 <1>   0.4620 
 17 C       -4.6390    -6.2800     0.7500 C.ar  1 <1>   0.0540 
 18 C       -4.8830    -7.5840     1.1770 C.ar  1 <1>  -0.1500 
 19 C       -5.5440    -5.7450    -0.1660 C.ar  1 <1>  -0.1500 
 20 C       -5.9650    -8.3090     0.7150 C.ar  1 <1>  -0.1500 
 21 C       -6.6280    -6.4680    -0.6290 C.ar  1 <1>  -0.1500 
 22 C       -6.8630    -7.7700    -0.1980 C.ar  1 <1>  -0.1430 
 23 C       -8.0580    -8.6190    -0.6860 C.3   1 <1>   0.1430 
 24 C       -8.9550    -7.8790    -1.6920 C.3   1 <1>  -0.2400 
 25 C       -8.9330    -9.0100     0.5150 C.3   1 <1>  -0.2400 
 26 C       -7.5380    -9.8890    -1.3740 C.3   1 <1>  -0.2400 
 27 H        2.4270    -0.7600    -0.1050 H     1 <1>   0.3700 
 28 H        0.5360    -3.6840     1.3040 H     1 <1>   0.0800 
 29 H       -0.2050    -3.3260    -0.2350 H     1 <1>   0.0800 
 30 H        2.2490    -2.6410    -1.9150 H     1 <1>   0.0800 
 31 H        2.2770    -3.6760    -0.5010 H     1 <1>   0.0800 
 32 H       -1.9520    -1.9980     0.9120 H     1 <1>   0.0800 
 33 H       -1.2390    -2.3810     2.4530 H     1 <1>   0.0800 
 34 H        4.9010    -4.3040     0.1940 H     1 <1>   0.1500 
 35 H        6.5260    -0.7010    -1.4140 H     1 <1>   0.1500 
 36 H        7.1910    -3.0290    -0.1710 H     1 <1>   0.1500 
 37 H       -4.2120    -8.0400     1.8850 H     1 <1>   0.1500 
 38 H       -5.3980    -4.7410    -0.5230 H     1 <1>   0.1500 
 39 H       -6.1010    -9.3100     1.0810 H     1 <1>   0.1500 
 40 H       -7.2790    -5.9860    -1.3340 H     1 <1>   0.1500 
 41 H       -8.3940    -7.6050    -2.5680 H     1 <1>   0.0800 
 42 H       -9.3690    -6.9910    -1.2480 H     1 <1>   0.0800 
 43 H       -9.7720    -8.5060    -2.0040 H     1 <1>   0.0800 
 44 H       -9.2730    -8.1260     1.0250 H     1 <1>   0.0800 
 45 H       -8.3840    -9.6130     1.2150 H     1 <1>   0.0800 
 46 H       -9.7910    -9.5720     0.1930 H     1 <1>   0.0800 
 47 H       -6.8950    -9.6250    -2.1950 H     1 <1>   0.0800 
 48 H       -8.3540   -10.4770    -1.7540 H     1 <1>   0.0800 
 49 H       -6.9770   -10.4990    -0.6910 H     1 <1>   0.0800 
@<TRIPOS>BOND
  1   1   2  2   
  2   2   3  am  
  3   2   4  1   
  4   3   5  1   
  5   3  27  1   
  6   4   6  1   
  7   4  28  1   
  8   4  29  1   
  9   5   7  1   
 10   5  30  1   
 11   5  31  1   
 12   6   8  1   
 13   6  32  1   
 14   6  33  1   
 15   7   9  1   
 16   7  10  2   
 17   8  11  1   
 18   8  12  2   
 19   9  13  1   
 20  10  14  1   
 21  10  34  1   
 22  11  15  1   
 23  12  16  1   
 24  13  14  2   
 25  13  35  1   
 26  14  36  1   
 27  15  16  2   
 28  16  17  1   
 29  17  18  ar  
 30  17  19  ar  
 31  18  20  ar  
 32  18  37  1   
 33  19  21  ar  
 34  19  38  1   
 35  20  22  ar  
 36  20  39  1   
 37  21  22  ar  
 38  21  40  1   
 39  22  23  1   
 40  23  24  1   
 41  23  25  1   
 42  23  26  1   
 43  24  41  1   
 44  24  42  1   
 45  24  43  1   
 46  25  44  1   
 47  25  45  1   
 48  25  46  1   
 49  26  47  1   
 50  26  48  1   
 51  26  49  1   
@<TRIPOS>SUBSTRUCTURE
  1 ****  12 GROUP 4 **** **** 0

# MOE 2024.06 (io_trps.svl 2023.06)
