@<TRIPOS>MOLECULE
9-(4-Methoxy-phenyl)-5-morpholin-4-yl-1,2,3,4-tetrahydro-9H-7-thia-6,9,11-triaza
56 61 1 0 0 
SMALL
USER_CHARGES


@<TRIPOS>ATOM
  1 S       -0.5540    -1.2650    -0.3780 S.3   1 <1>  -0.0800 
  2 C       -1.6780     0.0650    -0.0810 C.ar  1 <1>   0.2970 
  3 C        0.8390    -0.2190    -0.0940 C.2   1 <1>  -0.0450 
  4 N       -2.9740    -0.1410    -0.1490 N.ar  1 <1>  -0.5670 
  5 C       -0.9900     1.2390     0.2080 C.ar  1 <1>   0.0000 
  6 C        2.1950    -0.6050    -0.1490 C.2   1 <1>   0.7150 
  7 C        0.4420     1.0430     0.2020 C.2   1 <1>   0.1250 
  8 C       -3.6980     0.9400     0.1020 C.ar  1 <1>   0.4100 
  9 C       -1.7730     2.3700     0.4560 C.ar  1 <1>  -0.1430 
 10 O        2.5570    -1.7450    -0.4130 O.2   1 <1>  -0.5700 
 11 N        3.1110     0.3950     0.1190 N.am  1 <1>  -0.2370 
 12 N        1.3920     2.0010     0.4730 N.2   1 <1>  -0.5750 
 13 N       -5.0650     0.7720     0.0120 N.pl3 1 <1>  -0.8380 
 14 C       -3.1470     2.1990     0.4190 C.ar  1 <1>  -0.1430 
 15 C       -1.1240     3.7180     0.7660 C.3   1 <1>  -0.0170 
 16 C        4.5010     0.1670     0.0890 C.ar  1 <1>   0.1170 
 17 C        2.6320     1.6550     0.4260 C.2   1 <1>   0.4500 
 18 C       -5.6860     1.0020    -1.3240 C.3   1 <1>   0.2090 
 19 C       -5.6950    -0.3610     0.7570 C.3   1 <1>   0.2090 
 20 C       -4.0940     3.3640     0.7160 C.3   1 <1>  -0.0160 
 21 C       -2.1070     4.8930     0.7160 C.3   1 <1>  -0.1600 
 22 C        5.2830     0.7180    -0.9210 C.ar  1 <1>  -0.1500 
 23 C        5.1160    -0.5970     1.0730 C.ar  1 <1>  -0.1500 
 24 C       -5.8750    -0.3180    -2.0940 C.3   1 <1>   0.1200 
 25 C       -5.9070    -1.5940    -0.1420 C.3   1 <1>   0.1200 
 26 C       -3.4080     4.5320     1.4310 C.3   1 <1>  -0.1600 
 27 C        6.6520     0.5190    -0.9430 C.ar  1 <1>  -0.1500 
 28 C        6.4840    -0.7970     1.0540 C.ar  1 <1>  -0.1500 
 29 O       -6.5810    -1.2500    -1.3220 O.3   1 <1>  -0.5600 
 30 C        7.2620    -0.2410     0.0510 C.ar  1 <1>   0.0830 
 31 O        8.5960    -0.4840     0.1080 O.3   1 <1>  -0.3620 
 32 C        9.4690    -0.0140    -0.8950 C.3   1 <1>   0.0400 
 33 H       -0.3370     3.9130     0.0610 H     1 <1>   0.0800 
 34 H       -0.6850     3.6630     1.7470 H     1 <1>   0.0800 
 35 H        3.3820     2.3960     0.6390 H     1 <1>   0.0600 
 36 H       -5.0640     1.6630    -1.9030 H     1 <1>   0.0800 
 37 H       -6.6420     1.4760    -1.1920 H     1 <1>   0.0800 
 38 H       -6.6450    -0.0400     1.1460 H     1 <1>   0.0800 
 39 H       -5.0720    -0.6340     1.5920 H     1 <1>   0.0800 
 40 H       -4.9100     3.0240     1.3290 H     1 <1>   0.0800 
 41 H       -4.5060     3.7100    -0.2150 H     1 <1>   0.0800 
 42 H       -2.3200     5.1330    -0.3110 H     1 <1>   0.0800 
 43 H       -1.6590     5.7560     1.1750 H     1 <1>   0.0800 
 44 H        4.8200     1.3030    -1.6960 H     1 <1>   0.1500 
 45 H        4.5250    -1.0410     1.8540 H     1 <1>   0.1500 
 46 H       -4.9180    -0.7380    -2.3520 H     1 <1>   0.0800 
 47 H       -6.4340    -0.1460    -2.9950 H     1 <1>   0.0800 
 48 H       -6.4980    -2.3300     0.3720 H     1 <1>   0.0800 
 49 H       -4.9590    -2.0330    -0.4020 H     1 <1>   0.0800 
 50 H       -3.1930     4.2510     2.4480 H     1 <1>   0.0800 
 51 H       -4.0680     5.3810     1.4500 H     1 <1>   0.0800 
 52 H        7.2260     0.9590    -1.7370 H     1 <1>   0.1500 
 53 H        6.9610    -1.3890     1.8150 H     1 <1>   0.1500 
 54 H       10.4630    -0.3430    -0.6530 H     1 <1>   0.0800 
 55 H        9.4340     1.0610    -0.9130 H     1 <1>   0.0800 
 56 H        9.1680    -0.4260    -1.8420 H     1 <1>   0.0800 
@<TRIPOS>BOND
  1   1   2  1   
  2   1   3  1   
  3   2   4  ar  
  4   2   5  ar  
  5   3   6  1   
  6   3   7  2   
  7   4   8  ar  
  8   5   7  1   
  9   5   9  ar  
 10   6  10  2   
 11   6  11  am  
 12   7  12  1   
 13   8  13  1   
 14   8  14  ar  
 15   9  14  ar  
 16   9  15  1   
 17  11  16  1   
 18  11  17  1   
 19  12  17  2   
 20  13  18  1   
 21  13  19  1   
 22  14  20  1   
 23  15  21  1   
 24  15  33  1   
 25  15  34  1   
 26  16  22  ar  
 27  16  23  ar  
 28  17  35  1   
 29  18  24  1   
 30  18  36  1   
 31  18  37  1   
 32  19  25  1   
 33  19  38  1   
 34  19  39  1   
 35  20  26  1   
 36  20  40  1   
 37  20  41  1   
 38  21  26  1   
 39  21  42  1   
 40  21  43  1   
 41  22  27  ar  
 42  22  44  1   
 43  23  28  ar  
 44  23  45  1   
 45  24  29  1   
 46  24  46  1   
 47  24  47  1   
 48  25  29  1   
 49  25  48  1   
 50  25  49  1   
 51  26  50  1   
 52  26  51  1   
 53  27  30  ar  
 54  27  52  1   
 55  28  30  ar  
 56  28  53  1   
 57  30  31  1   
 58  31  32  1   
 59  32  54  1   
 60  32  55  1   
 61  32  56  1   
@<TRIPOS>SUBSTRUCTURE
  1 ****   7 GROUP 4 **** **** 0

# MOE 2024.06 (io_trps.svl 2023.06)
