@<TRIPOS>MOLECULE
4-(2,4-Dimethyl-phenyl)-2-oxo-6-thiomorpholin-4-ylmethyl-1,2,3,4-tetrahydro-pyri
55 57 1 0 0 
SMALL
USER_CHARGES


@<TRIPOS>ATOM
  1 S       -0.8770     1.0400    -0.4490 S.3   1 <1>  -0.4600 
  2 C       -2.0690     2.3610    -0.1150 C.3   1 <1>   0.0700 
  3 C        0.6510     1.9530    -0.7880 C.3   1 <1>   0.0700 
  4 C       -1.4970     3.2870     0.9670 C.3   1 <1>   0.3430 
  5 C        0.9160     2.9270     0.3670 C.3   1 <1>   0.3430 
  6 N       -0.2010     3.9260     0.5490 N.4   1 <1>  -0.9590 
  7 C        0.1720     5.0120     1.5040 C.3   1 <1>   0.4810 
  8 C        1.4400     5.7210     1.0270 C.2   1 <1>  -0.0290 
  9 N        2.5860     5.4480     1.7610 N.am  1 <1>  -0.5390 
 10 C        1.5020     6.5510    -0.0550 C.2   1 <1>  -0.1240 
 11 C        3.8210     5.8990     1.4310 C.2   1 <1>   0.6900 
 12 C        0.4500     6.8970    -0.9610 C.2   1 <1>   0.7060 
 13 C        2.8280     7.2380    -0.4100 C.3   1 <1>   0.5020 
 14 O        4.7640     5.6100     2.1240 O.2   1 <1>  -0.5700 
 15 N        3.9600     6.6600     0.3360 N.am  1 <1>  -0.7300 
 16 O        0.6470     7.3590    -2.0630 O.2   1 <1>  -0.5700 
 17 O       -0.8130     6.6360    -0.5950 O.3   1 <1>  -0.4300 
 18 C        2.7690     8.7330    -0.0880 C.ar  1 <1>  -0.1430 
 19 C       -1.9240     7.1120    -1.3370 C.3   1 <1>   0.1200 
 20 C        3.0010     9.7170    -1.0490 C.ar  1 <1>  -0.1430 
 21 C        2.4700     9.1250     1.2130 C.ar  1 <1>  -0.1500 
 22 C       -2.1890     8.5650    -0.9460 C.3   1 <1>  -0.2400 
 23 C        2.9090    11.0550    -0.6940 C.ar  1 <1>  -0.1500 
 24 C        3.3580     9.3900    -2.4940 C.3   1 <1>  -0.0970 
 25 C        2.3850    10.4610     1.5550 C.ar  1 <1>  -0.1500 
 26 C        2.6000    11.4350     0.6000 C.ar  1 <1>  -0.1430 
 27 C        2.5080    12.9060     0.9630 C.3   1 <1>  -0.0970 
 28 H       -2.9760     1.8870     0.2200 H     1 <1>   0.0800 
 29 H       -2.2550     2.8820    -1.0370 H     1 <1>   0.0800 
 30 H        0.5320     2.4630    -1.7270 H     1 <1>   0.0800 
 31 H        1.4390     1.2250    -0.8710 H     1 <1>   0.0800 
 32 H       -1.3470     2.7150     1.8680 H     1 <1>   0.0800 
 33 H       -2.2250     4.0540     1.1770 H     1 <1>   0.0800 
 34 H        1.8400     3.4440     0.1630 H     1 <1>   0.0800 
 35 H        1.0490     2.3600     1.2740 H     1 <1>   0.0800 
 36 H       -0.3650     4.3900    -0.3560 H     1 <1>   0.4500 
 37 H        0.3330     4.6030     2.4870 H     1 <1>   0.0800 
 38 H       -0.6290     5.7310     1.5700 H     1 <1>   0.0800 
 39 H        2.6070     4.9240     2.6400 H     1 <1>   0.3700 
 40 H        3.0280     7.0810    -1.4550 H     1 <1>   0.0800 
 41 H        4.8420     7.1640     0.2490 H     1 <1>   0.3700 
 42 H       -2.7760     6.5020    -1.0890 H     1 <1>   0.0800 
 43 H       -1.7260     7.0210    -2.3930 H     1 <1>   0.0800 
 44 H        2.3060     8.3910     1.9800 H     1 <1>   0.1500 
 45 H       -2.3780     8.6460     0.1100 H     1 <1>   0.0800 
 46 H       -3.0520     8.9290    -1.4740 H     1 <1>   0.0800 
 47 H       -1.3510     9.1860    -1.2110 H     1 <1>   0.0800 
 48 H        3.0820    11.8180    -1.4320 H     1 <1>   0.1500 
 49 H        2.5330     8.9070    -2.9840 H     1 <1>   0.0800 
 50 H        4.2210     8.7490    -2.5320 H     1 <1>   0.0800 
 51 H        3.5900    10.2830    -3.0450 H     1 <1>   0.0800 
 52 H        2.1550    10.7390     2.5680 H     1 <1>   0.1500 
 53 H        3.4900    13.2910     1.1710 H     1 <1>   0.0800 
 54 H        1.8900    13.0450     1.8310 H     1 <1>   0.0800 
 55 H        2.0810    13.4650     0.1500 H     1 <1>   0.0800 
@<TRIPOS>BOND
  1   1   2  1   
  2   1   3  1   
  3   2   4  1   
  4   2  28  1   
  5   2  29  1   
  6   3   5  1   
  7   3  30  1   
  8   3  31  1   
  9   4   6  1   
 10   4  32  1   
 11   4  33  1   
 12   5   6  1   
 13   5  34  1   
 14   5  35  1   
 15   6   7  1   
 16   6  36  1   
 17   7   8  1   
 18   7  37  1   
 19   7  38  1   
 20   8   9  1   
 21   8  10  2   
 22   9  11  am  
 23   9  39  1   
 24  10  12  1   
 25  10  13  1   
 26  11  14  2   
 27  11  15  am  
 28  12  16  2   
 29  12  17  1   
 30  13  15  1   
 31  13  18  1   
 32  13  40  1   
 33  15  41  1   
 34  17  19  1   
 35  18  20  ar  
 36  18  21  ar  
 37  19  22  1   
 38  19  42  1   
 39  19  43  1   
 40  20  23  ar  
 41  20  24  1   
 42  21  25  ar  
 43  21  44  1   
 44  22  45  1   
 45  22  46  1   
 46  22  47  1   
 47  23  26  ar  
 48  23  48  1   
 49  24  49  1   
 50  24  50  1   
 51  24  51  1   
 52  25  26  ar  
 53  25  52  1   
 54  26  27  1   
 55  27  53  1   
 56  27  54  1   
 57  27  55  1   
@<TRIPOS>SUBSTRUCTURE
  1 ****  10 GROUP 4 **** **** 0

# MOE 2024.06 (io_trps.svl 2023.06)
