@<TRIPOS>MOLECULE
2,2-Dimethyl-N-[1-(3-p-tolyl-[1,2,4]oxadiazol-5-yl)-ethyl]-propionamide
42 43 1 0 0 
SMALL
USER_CHARGES


@<TRIPOS>ATOM
  1 O       -0.8540    -1.1990    -0.3050 O.2   1 <1>  -0.5700 
  2 C       -1.9690    -0.7520    -0.2010 C.2   1 <1>   0.5690 
  3 N       -2.9490    -1.4990    -0.7710 N.am  1 <1>  -0.7300 
  4 C       -2.1350     0.6250     0.5190 C.3   1 <1>   0.0610 
  5 C       -4.4230    -1.4160    -0.8660 C.3   1 <1>   0.4000 
  6 C       -1.1110     0.7420     1.6710 C.3   1 <1>  -0.2400 
  7 C       -3.5180     0.8940     1.1460 C.3   1 <1>  -0.2400 
  8 C       -1.8380     1.7550    -0.4840 C.3   1 <1>  -0.2400 
  9 C       -5.0360    -2.8140    -0.9580 C.2   1 <1>   0.2980 
 10 C       -4.7840    -0.5750    -2.0910 C.3   1 <1>  -0.2400 
 11 O       -4.6340    -3.6140    -1.9120 O.3   1 <1>  -0.0190 
 12 N       -5.9210    -3.2950    -0.1840 N.2   1 <1>  -0.5650 
 13 N       -5.3220    -4.6960    -1.7280 N.2   1 <1>  -0.4100 
 14 C       -6.0830    -4.5150    -0.7070 C.2   1 <1>   0.4620 
 15 C       -7.0150    -5.4880    -0.1600 C.ar  1 <1>   0.0540 
 16 C       -7.1770    -6.7450    -0.7450 C.ar  1 <1>  -0.1500 
 17 C       -7.7870    -5.2120     0.9700 C.ar  1 <1>  -0.1500 
 18 C       -8.0620    -7.6760    -0.2310 C.ar  1 <1>  -0.1500 
 19 C       -8.6740    -6.1390     1.4880 C.ar  1 <1>  -0.1500 
 20 C       -8.8180    -7.3790     0.8890 C.ar  1 <1>  -0.1440 
 21 C       -9.7890    -8.3980     1.4560 C.3   1 <1>  -0.0970 
 22 H       -2.5790    -2.3450    -1.2090 H     1 <1>   0.3700 
 23 H       -4.8280    -0.9660     0.0180 H     1 <1>   0.0800 
 24 H       -1.2700    -0.0440     2.3890 H     1 <1>   0.0800 
 25 H       -1.1920     1.6890     2.1730 H     1 <1>   0.0800 
 26 H       -0.1060     0.6510     1.2960 H     1 <1>   0.0800 
 27 H       -3.4900     1.7810     1.7540 H     1 <1>   0.0800 
 28 H       -4.2620     1.0590     0.3900 H     1 <1>   0.0800 
 29 H       -3.8110     0.0710     1.7740 H     1 <1>   0.0800 
 30 H       -0.8470     1.6380    -0.8870 H     1 <1>   0.0800 
 31 H       -1.9010     2.7180    -0.0090 H     1 <1>   0.0800 
 32 H       -2.5340     1.7300    -1.3020 H     1 <1>   0.0800 
 33 H       -4.3860    -1.0210    -2.9840 H     1 <1>   0.0800 
 34 H       -4.3990     0.4220    -1.9900 H     1 <1>   0.0800 
 35 H       -5.8540    -0.5170    -2.1860 H     1 <1>   0.0800 
 36 H       -6.6000    -7.0000    -1.6170 H     1 <1>   0.1500 
 37 H       -7.6930    -4.2560     1.4540 H     1 <1>   0.1500 
 38 H       -8.1590    -8.6360    -0.7090 H     1 <1>   0.1500 
 39 H       -9.2510    -5.8920     2.3610 H     1 <1>   0.1500 
 40 H       -9.2900    -9.0070     2.1880 H     1 <1>   0.0800 
 41 H      -10.1670    -9.0330     0.6750 H     1 <1>   0.0800 
 42 H      -10.6220    -7.9050     1.9230 H     1 <1>   0.0800 
@<TRIPOS>BOND
  1   1   2  2   
  2   2   3  am  
  3   2   4  1   
  4   3   5  1   
  5   3  22  1   
  6   4   6  1   
  7   4   7  1   
  8   4   8  1   
  9   5   9  1   
 10   5  10  1   
 11   5  23  1   
 12   6  24  1   
 13   6  25  1   
 14   6  26  1   
 15   7  27  1   
 16   7  28  1   
 17   7  29  1   
 18   8  30  1   
 19   8  31  1   
 20   8  32  1   
 21   9  11  1   
 22   9  12  2   
 23  10  33  1   
 24  10  34  1   
 25  10  35  1   
 26  11  13  1   
 27  12  14  1   
 28  13  14  2   
 29  14  15  1   
 30  15  16  ar  
 31  15  17  ar  
 32  16  18  ar  
 33  16  36  1   
 34  17  19  ar  
 35  17  37  1   
 36  18  20  ar  
 37  18  38  1   
 38  19  20  ar  
 39  19  39  1   
 40  20  21  1   
 41  21  40  1   
 42  21  41  1   
 43  21  42  1   
@<TRIPOS>SUBSTRUCTURE
  1 ****  12 GROUP 4 **** **** 0

# MOE 2024.06 (io_trps.svl 2023.06)
