@<TRIPOS>MOLECULE
1-Morpholin-4-yl-3-(3-phenyl-[1,2,4]oxadiazol-5-yl)-propan-1-one
38 40 1 0 0 
SMALL
USER_CHARGES


@<TRIPOS>ATOM
  1 O        0.1570    -0.3370    -1.0610 O.2   1 <1>  -0.5700 
  2 C        0.7230    -1.3300    -0.6720 C.2   1 <1>   0.5690 
  3 N        2.0420    -1.3050    -0.2980 N.am  1 <1>  -0.6600 
  4 C       -0.0640    -2.6300    -0.6120 C.3   1 <1>  -0.0990 
  5 C        2.8510    -0.0500    -0.3910 C.3   1 <1>   0.1400 
  6 C        2.8270    -2.4600     0.2360 C.3   1 <1>   0.1400 
  7 C       -1.4920    -2.5080    -1.1690 C.3   1 <1>   0.0200 
  8 C        3.6100     0.2100     0.9210 C.3   1 <1>   0.1200 
  9 C        3.5860    -2.0590     1.5130 C.3   1 <1>   0.1200 
 10 C       -2.2170    -3.8370    -1.1060 C.2   1 <1>   0.2980 
 11 O        4.3580    -0.9150     1.2900 O.3   1 <1>  -0.5600 
 12 O       -1.8380    -4.7970    -1.9080 O.3   1 <1>  -0.0190 
 13 N       -3.1760    -4.1230    -0.3280 N.2   1 <1>  -0.5650 
 14 N       -2.6250    -5.7830    -1.6120 N.2   1 <1>  -0.4100 
 15 C       -3.4210    -5.3890    -0.6810 C.2   1 <1>   0.4620 
 16 C       -4.4660    -6.1900    -0.0630 C.ar  1 <1>   0.0540 
 17 C       -4.6830    -7.5160    -0.4440 C.ar  1 <1>  -0.1500 
 18 C       -5.2950    -5.6720     0.9350 C.ar  1 <1>  -0.1500 
 19 C       -5.6740    -8.2860     0.1390 C.ar  1 <1>  -0.1500 
 20 C       -6.2870    -6.4360     1.5230 C.ar  1 <1>  -0.1500 
 21 C       -6.4790    -7.7470     1.1250 C.ar  1 <1>  -0.1500 
 22 H       -0.1190    -2.9490     0.4120 H     1 <1>   0.0800 
 23 H        0.4670    -3.3750    -1.1760 H     1 <1>   0.0800 
 24 H        2.2210     0.7960    -0.6040 H     1 <1>   0.0800 
 25 H        3.5580    -0.1450    -1.1960 H     1 <1>   0.0800 
 26 H        3.5390    -2.7750    -0.5080 H     1 <1>   0.0800 
 27 H        2.1900    -3.2950     0.4600 H     1 <1>   0.0800 
 28 H       -1.4640    -2.1730    -2.1900 H     1 <1>   0.0800 
 29 H       -2.0420    -1.7820    -0.5950 H     1 <1>   0.0800 
 30 H        2.9230     0.4460     1.7150 H     1 <1>   0.0800 
 31 H        4.2920     1.0320     0.7970 H     1 <1>   0.0800 
 32 H        4.2520    -2.8490     1.8130 H     1 <1>   0.0800 
 33 H        2.9000    -1.8610     2.3170 H     1 <1>   0.0800 
 34 H       -4.0660    -7.9520    -1.2100 H     1 <1>   0.1500 
 35 H       -5.1610    -4.6540     1.2570 H     1 <1>   0.1500 
 36 H       -5.8180    -9.3050    -0.1750 H     1 <1>   0.1500 
 37 H       -6.9110    -6.0110     2.2900 H     1 <1>   0.1500 
 38 H       -7.2500    -8.3430     1.5810 H     1 <1>   0.1500 
@<TRIPOS>BOND
  1   1   2  2   
  2   2   3  am  
  3   2   4  1   
  4   3   5  1   
  5   3   6  1   
  6   4   7  1   
  7   4  22  1   
  8   4  23  1   
  9   5   8  1   
 10   5  24  1   
 11   5  25  1   
 12   6   9  1   
 13   6  26  1   
 14   6  27  1   
 15   7  10  1   
 16   7  28  1   
 17   7  29  1   
 18   8  11  1   
 19   8  30  1   
 20   8  31  1   
 21   9  11  1   
 22   9  32  1   
 23   9  33  1   
 24  10  12  1   
 25  10  13  2   
 26  12  14  1   
 27  13  15  1   
 28  14  15  2   
 29  15  16  1   
 30  16  17  ar  
 31  16  18  ar  
 32  17  19  ar  
 33  17  34  1   
 34  18  20  ar  
 35  18  35  1   
 36  19  21  ar  
 37  19  36  1   
 38  20  21  ar  
 39  20  37  1   
 40  21  38  1   
@<TRIPOS>SUBSTRUCTURE
  1 ****  10 GROUP 4 **** **** 0

# MOE 2024.06 (io_trps.svl 2023.06)
