@<TRIPOS>MOLECULE
1-(3-Ethyl-5-hydroxy-5-trifluoromethyl-4,5-dihydro-pyrazol-1-yl)-2-hydroxy-2-phe
37 38 1 0 0 
SMALL
USER_CHARGES


@<TRIPOS>ATOM
  1 F       -0.2380    -1.2560    -0.1250 F     1 <1>  -0.3400 
  2 C       -0.7650    -0.0470     0.0290 C.3   1 <1>   1.0200 
  3 F       -1.1240     0.0330     1.3090 F     1 <1>  -0.3400 
  4 F        0.2510     0.8040    -0.1050 F     1 <1>  -0.3400 
  5 C       -1.9630     0.2860    -0.9570 C.3   1 <1>   0.5800 
  6 O       -1.6660     0.0810    -2.3100 O.3   1 <1>  -0.6800 
  7 N       -3.2170    -0.4830    -0.6850 N.am  1 <1>  -0.2980 
  8 C       -2.4380     1.7430    -0.8110 C.3   1 <1>  -0.0990 
  9 N       -4.2520     0.3620    -0.3290 N.2   1 <1>  -0.5120 
 10 C       -3.3140    -1.8470    -0.9130 C.2   1 <1>   0.5690 
 11 C       -3.8730     1.5610    -0.3930 C.2   1 <1>   0.3280 
 12 O       -2.4220    -2.4320    -1.4900 O.2   1 <1>  -0.5700 
 13 C       -4.6000    -2.5950    -0.4830 C.3   1 <1>   0.4050 
 14 C       -4.7020     2.8040    -0.0930 C.3   1 <1>  -0.0990 
 15 O       -5.0840    -2.1220     0.7420 O.3   1 <1>  -0.6800 
 16 C       -4.4390    -4.1130    -0.3730 C.ar  1 <1>  -0.1440 
 17 C       -6.1410     2.4940     0.3460 C.3   1 <1>  -0.2400 
 18 C       -5.0430    -4.9490    -1.3020 C.ar  1 <1>  -0.1500 
 19 C       -3.6860    -4.6760     0.6500 C.ar  1 <1>  -0.1500 
 20 C       -4.8970    -6.3230    -1.2120 C.ar  1 <1>  -0.1500 
 21 C       -3.5380    -6.0490     0.7410 C.ar  1 <1>  -0.1500 
 22 C       -4.1440    -6.8740    -0.1900 C.ar  1 <1>  -0.1500 
 23 H       -1.6430    -0.8950    -2.4550 H     1 <1>   0.4000 
 24 H       -2.3720     2.2840    -1.7370 H     1 <1>   0.0800 
 25 H       -1.9010     2.2720    -0.0450 H     1 <1>   0.0800 
 26 H       -5.3570    -2.3740    -1.2130 H     1 <1>   0.0800 
 27 H       -4.7310     3.4180    -0.9750 H     1 <1>   0.0800 
 28 H       -4.2150     3.3640     0.6860 H     1 <1>   0.0800 
 29 H       -5.0530    -1.1380     0.7060 H     1 <1>   0.4000 
 30 H       -6.6590     1.9520    -0.4270 H     1 <1>   0.0800 
 31 H       -6.6750     3.4070     0.5400 H     1 <1>   0.0800 
 32 H       -6.1410     1.8990     1.2420 H     1 <1>   0.0800 
 33 H       -5.6310    -4.5380    -2.1030 H     1 <1>   0.1500 
 34 H       -3.2150    -4.0420     1.3800 H     1 <1>   0.1500 
 35 H       -5.3680    -6.9630    -1.9360 H     1 <1>   0.1500 
 36 H       -2.9520    -6.4730     1.5370 H     1 <1>   0.1500 
 37 H       -4.0290    -7.9410    -0.1200 H     1 <1>   0.1500 
@<TRIPOS>BOND
  1   1   2  1   
  2   2   3  1   
  3   2   4  1   
  4   2   5  1   
  5   5   6  1   
  6   5   7  1   
  7   5   8  1   
  8   6  23  1   
  9   7   9  1   
 10   7  10  am  
 11   8  11  1   
 12   8  24  1   
 13   8  25  1   
 14   9  11  2   
 15  10  12  2   
 16  10  13  1   
 17  11  14  1   
 18  13  15  1   
 19  13  16  1   
 20  13  26  1   
 21  14  17  1   
 22  14  27  1   
 23  14  28  1   
 24  15  29  1   
 25  16  18  ar  
 26  16  19  ar  
 27  17  30  1   
 28  17  31  1   
 29  17  32  1   
 30  18  20  ar  
 31  18  33  1   
 32  19  21  ar  
 33  19  34  1   
 34  20  22  ar  
 35  20  35  1   
 36  21  22  ar  
 37  21  36  1   
 38  22  37  1   
@<TRIPOS>SUBSTRUCTURE
  1 ****  10 GROUP 4 **** **** 0

# MOE 2024.06 (io_trps.svl 2023.06)
