@<TRIPOS>MOLECULE
2-[1,2,4]Triazol-1-yl-propionic acid
16 16 1 0 0 
SMALL
USER_CHARGES


@<TRIPOS>ATOM
  1 O       -1.5230     0.3330     1.0330 O.co2 1 <1>  -0.9000 
  2 C       -1.7420     0.0030    -0.1400 C.2   1 <1>   0.9060 
  3 O       -1.4510     0.7380    -1.0890 O.co2 1 <1>  -0.9000 
  4 C       -2.3660    -1.3480    -0.4320 C.3   1 <1>   0.0700 
  5 N       -3.7810    -1.3460    -0.0040 N.pl3 1 <1>   0.3140 
  6 C       -1.6050    -2.5290     0.2100 C.3   1 <1>  -0.2400 
  7 N       -4.6800    -2.1740    -0.5400 N.2   1 <1>  -0.7070 
  8 C       -4.3950    -0.6300     0.9490 C.2   1 <1>   0.0360 
  9 C       -5.7530    -1.8870     0.1180 C.2   1 <1>   0.3660 
 10 N       -5.6400    -0.9400     1.0550 N.2   1 <1>  -0.5650 
 11 H       -2.3580    -1.4690    -1.4980 H     1 <1>   0.0800 
 12 H       -1.5990    -2.4240     1.2810 H     1 <1>   0.0800 
 13 H       -0.5870    -2.5280    -0.1360 H     1 <1>   0.0800 
 14 H       -2.0650    -3.4620    -0.0610 H     1 <1>   0.0800 
 15 H       -3.8810     0.1080     1.5420 H     1 <1>   0.1500 
 16 H       -6.6990    -2.3700    -0.0600 H     1 <1>   0.1500 
@<TRIPOS>BOND
  1   1   2  ar  
  2   2   3  ar  
  3   2   4  1   
  4   4   5  1   
  5   4   6  1   
  6   4  11  1   
  7   5   7  1   
  8   5   8  1   
  9   6  12  1   
 10   6  13  1   
 11   6  14  1   
 12   7   9  2   
 13   8  10  2   
 14   8  15  1   
 15   9  10  1   
 16   9  16  1   
@<TRIPOS>SUBSTRUCTURE
  1 ****   5 GROUP 4 **** **** 0

# MOE 2024.06 (io_trps.svl 2023.06)
