@<TRIPOS>MOLECULE
4-(3-Methoxy-phenyl)-6-(4-methyl-piperazin-1-ylmethyl)-2-oxo-1,2,3,4-tetrahydro-
54 56 1 0 0 
SMALL
USER_CHARGES


@<TRIPOS>ATOM
  1 O        0.2590     0.7670     0.5370 O.2   1 <1>  -0.5700 
  2 C        0.1730     1.9630     0.6880 C.2   1 <1>   0.6900 
  3 N       -0.7310     2.6770    -0.0210 N.am  1 <1>  -0.5390 
  4 N        0.9610     2.6150     1.5570 N.am  1 <1>  -0.7300 
  5 C       -0.9470     4.0350     0.1150 C.2   1 <1>  -0.0290 
  6 C        1.0260     4.0890     1.6530 C.3   1 <1>   0.5020 
  7 C       -0.1280     4.7750     0.9140 C.2   1 <1>  -0.1240 
  8 C       -2.1550     4.5580    -0.6740 C.3   1 <1>   0.2480 
  9 C        2.3750     4.5440     1.0980 C.ar  1 <1>  -0.1430 
 10 C       -0.1750     6.1780     1.1800 C.2   1 <1>   0.7060 
 11 N       -3.2920     3.6040    -0.6140 N.3   1 <1>  -0.8100 
 12 C        2.8070     4.1340    -0.1570 C.ar  1 <1>  -0.1500 
 13 C        3.1840     5.3880     1.8470 C.ar  1 <1>  -0.1500 
 14 O        0.2520     6.6720     2.2060 O.2   1 <1>  -0.5700 
 15 O       -0.7180     6.9860     0.2630 O.3   1 <1>  -0.4300 
 16 C       -3.8380     3.4850     0.7640 C.3   1 <1>   0.1100 
 17 C       -4.3680     3.9920    -1.5580 C.3   1 <1>   0.1100 
 18 C        4.0370     4.5510    -0.6560 C.ar  1 <1>   0.0830 
 19 C        4.4070     5.8090     1.3550 C.ar  1 <1>  -0.1500 
 20 C       -0.7340     8.3920     0.4300 C.3   1 <1>   0.0400 
 21 C       -5.0200     2.4880     0.8520 C.3   1 <1>   0.3430 
 22 C       -5.6000     3.0530    -1.4820 C.3   1 <1>   0.3430 
 23 O        4.5250     4.1820    -1.8660 O.3   1 <1>  -0.3630 
 24 C        4.8310     5.3910     0.1070 C.ar  1 <1>  -0.1500 
 25 N       -5.3840     1.9400    -0.4980 N.4   1 <1>  -0.9590 
 26 C        3.8430     3.2510    -2.6770 C.3   1 <1>   0.0400 
 27 C       -6.5090     0.9620    -0.4530 C.3   1 <1>   0.2630 
 28 H       -1.3500     2.1250    -0.6150 H     1 <1>   0.3700 
 29 H        1.7550     2.1030     1.9360 H     1 <1>   0.3700 
 30 H        0.9690     4.3410     2.6990 H     1 <1>   0.0800 
 31 H       -1.8500     4.6810    -1.7000 H     1 <1>   0.0800 
 32 H       -2.4790     5.5140    -0.3060 H     1 <1>   0.0800 
 33 H        2.1760     3.4880    -0.7380 H     1 <1>   0.1500 
 34 H        2.8670     5.7290     2.8190 H     1 <1>   0.1500 
 35 H       -4.1670     4.4500     1.1120 H     1 <1>   0.0800 
 36 H       -3.0650     3.1510     1.4360 H     1 <1>   0.0800 
 37 H       -3.9810     3.9730    -2.5630 H     1 <1>   0.0800 
 38 H       -4.6880     5.0010    -1.3570 H     1 <1>   0.0800 
 39 H        5.0280     6.4640     1.9420 H     1 <1>   0.1500 
 40 H       -1.2030     8.8350    -0.4300 H     1 <1>   0.0800 
 41 H        0.2800     8.7430     0.5180 H     1 <1>   0.0800 
 42 H       -1.2880     8.6330     1.3210 H     1 <1>   0.0800 
 43 H       -5.8690     2.9870     1.2900 H     1 <1>   0.0800 
 44 H       -4.7430     1.6790     1.5090 H     1 <1>   0.0800 
 45 H       -5.7880     2.6450    -2.4620 H     1 <1>   0.0800 
 46 H       -6.4640     3.6300    -1.1990 H     1 <1>   0.0800 
 47 H        5.7790     5.7120    -0.2830 H     1 <1>   0.1500 
 48 H       -4.5180     1.4790    -0.8220 H     1 <1>   0.4500 
 49 H        4.4320     3.0820    -3.5600 H     1 <1>   0.0800 
 50 H        2.8860     3.6600    -2.9490 H     1 <1>   0.0800 
 51 H        3.7280     2.3300    -2.1320 H     1 <1>   0.0800 
 52 H       -7.4110     1.4440    -0.1130 H     1 <1>   0.0800 
 53 H       -6.2740     0.1530     0.2200 H     1 <1>   0.0800 
 54 H       -6.6850     0.5500    -1.4340 H     1 <1>   0.0800 
@<TRIPOS>BOND
  1   1   2  2   
  2   2   3  am  
  3   2   4  am  
  4   3   5  1   
  5   3  28  1   
  6   4   6  1   
  7   4  29  1   
  8   5   7  2   
  9   5   8  1   
 10   6   7  1   
 11   6   9  1   
 12   6  30  1   
 13   7  10  1   
 14   8  11  1   
 15   8  31  1   
 16   8  32  1   
 17   9  12  ar  
 18   9  13  ar  
 19  10  14  2   
 20  10  15  1   
 21  11  16  1   
 22  11  17  1   
 23  12  18  ar  
 24  12  33  1   
 25  13  19  ar  
 26  13  34  1   
 27  15  20  1   
 28  16  21  1   
 29  16  35  1   
 30  16  36  1   
 31  17  22  1   
 32  17  37  1   
 33  17  38  1   
 34  18  23  1   
 35  18  24  ar  
 36  19  24  ar  
 37  19  39  1   
 38  20  40  1   
 39  20  41  1   
 40  20  42  1   
 41  21  25  1   
 42  21  43  1   
 43  21  44  1   
 44  22  25  1   
 45  22  45  1   
 46  22  46  1   
 47  23  26  1   
 48  24  47  1   
 49  25  27  1   
 50  25  48  1   
 51  26  49  1   
 52  26  50  1   
 53  26  51  1   
 54  27  52  1   
 55  27  53  1   
 56  27  54  1   
@<TRIPOS>SUBSTRUCTURE
  1 ****   5 GROUP 4 **** **** 0

# MOE 2024.06 (io_trps.svl 2023.06)
