@<TRIPOS>MOLECULE
N-[5-(4-Chloro-benzyl)-[1,3,4]thiadiazol-2-yl]-3-ethoxy-propionamide
37 38 1 0 0 
SMALL
USER_CHARGES


@<TRIPOS>ATOM
  1 CL      -0.3310    -1.5070    -2.8930 Cl    1 <1>  -0.1770 
  2 C       -0.5370    -2.6760    -1.6140 C.ar  1 <1>   0.1770 
  3 C        0.2450    -3.8150    -1.6040 C.ar  1 <1>  -0.1500 
  4 C       -1.4800    -2.4460    -0.6300 C.ar  1 <1>  -0.1500 
  5 C        0.0800    -4.7420    -0.5880 C.ar  1 <1>  -0.1500 
  6 C       -1.6410    -3.3760     0.3830 C.ar  1 <1>  -0.1500 
  7 C       -0.8630    -4.5260     0.4090 C.ar  1 <1>  -0.1430 
  8 C       -1.0540    -5.5400     1.5310 C.3   1 <1>   0.1640 
  9 C       -2.4450    -6.1430     1.4990 C.2   1 <1>   0.1980 
 10 S       -2.9230    -7.0420     0.0990 S.3   1 <1>  -0.0800 
 11 N       -3.3580    -6.0870     2.3810 N.2   1 <1>  -0.3380 
 12 C       -4.4550    -7.2900     0.8710 C.2   1 <1>   0.4420 
 13 N       -4.5070    -6.7400     2.0300 N.2   1 <1>  -0.3380 
 14 N       -5.3880    -8.0220     0.1670 N.am  1 <1>  -0.4940 
 15 C       -6.6600    -8.3690     0.5180 C.2   1 <1>   0.5690 
 16 O       -7.1780    -8.0520     1.5560 O.2   1 <1>  -0.5700 
 17 C       -7.4570    -9.2000    -0.4630 C.3   1 <1>  -0.0990 
 18 C       -8.0780   -10.4070     0.2330 C.3   1 <1>   0.1200 
 19 O       -8.6540   -11.2060    -0.7470 O.3   1 <1>  -0.5600 
 20 C       -9.3130   -12.3200    -0.2470 C.3   1 <1>   0.1200 
 21 C       -9.8730   -13.0930    -1.4340 C.3   1 <1>  -0.2400 
 22 H        0.9700    -3.9690    -2.3820 H     1 <1>   0.1500 
 23 H       -2.0770    -1.5520    -0.6590 H     1 <1>   0.1500 
 24 H        0.6900    -5.6290    -0.5840 H     1 <1>   0.1500 
 25 H       -2.3770    -3.2010     1.1510 H     1 <1>   0.1500 
 26 H       -0.9080    -5.0510     2.4770 H     1 <1>   0.0800 
 27 H       -0.3310    -6.3310     1.4550 H     1 <1>   0.0800 
 28 H       -5.0760    -8.3400    -0.7460 H     1 <1>   0.3700 
 29 H       -6.8230    -9.5420    -1.2600 H     1 <1>   0.0800 
 30 H       -8.2390    -8.5890    -0.8740 H     1 <1>   0.0800 
 31 H       -8.8380   -10.0920     0.9290 H     1 <1>   0.0800 
 32 H       -7.3250   -10.9810     0.7480 H     1 <1>   0.0800 
 33 H      -10.1070   -11.9930     0.4030 H     1 <1>   0.0800 
 34 H       -8.6100   -12.9240     0.3030 H     1 <1>   0.0800 
 35 H      -10.5630   -12.4760    -1.9810 H     1 <1>   0.0800 
 36 H      -10.3930   -13.9670    -1.0870 H     1 <1>   0.0800 
 37 H       -9.0740   -13.4020    -2.0830 H     1 <1>   0.0800 
@<TRIPOS>BOND
  1   1   2  1   
  2   2   3  ar  
  3   2   4  ar  
  4   3   5  ar  
  5   3  22  1   
  6   4   6  ar  
  7   4  23  1   
  8   5   7  ar  
  9   5  24  1   
 10   6   7  ar  
 11   6  25  1   
 12   7   8  1   
 13   8   9  1   
 14   8  26  1   
 15   8  27  1   
 16   9  10  1   
 17   9  11  2   
 18  10  12  1   
 19  11  13  1   
 20  12  13  2   
 21  12  14  1   
 22  14  15  am  
 23  14  28  1   
 24  15  16  2   
 25  15  17  1   
 26  17  18  1   
 27  17  29  1   
 28  17  30  1   
 29  18  19  1   
 30  18  31  1   
 31  18  32  1   
 32  19  20  1   
 33  20  21  1   
 34  20  33  1   
 35  20  34  1   
 36  21  35  1   
 37  21  36  1   
 38  21  37  1   
@<TRIPOS>SUBSTRUCTURE
  1 ****  12 GROUP 4 **** **** 0

# MOE 2024.06 (io_trps.svl 2023.06)
