@<TRIPOS>MOLECULE
(2,6-Dioxo-4-phenyl-piperidin-1-yl)-acetic acid
30 31 1 0 0 
SMALL
USER_CHARGES


@<TRIPOS>ATOM
  1 O        0.1920    -0.5830     0.3210 O.2   1 <1>  -0.5700 
  2 C       -0.5110    -1.5030    -0.0200 C.2   1 <1>   0.5690 
  3 N       -0.0420    -2.5700    -0.7530 N.am  1 <1>  -0.4200 
  4 C       -1.9810    -1.4370     0.3450 C.3   1 <1>  -0.0990 
  5 C       -0.8700    -3.4690    -1.3860 C.2   1 <1>   0.5690 
  6 C        1.3510    -3.0420    -0.4390 C.3   1 <1>   0.0340 
  7 C       -2.6280    -2.8240     0.2930 C.3   1 <1>   0.0630 
  8 O       -0.4770    -4.2450    -2.2230 O.2   1 <1>  -0.5700 
  9 C       -2.3520    -3.4710    -1.0680 C.3   1 <1>  -0.0990 
 10 C        1.3990    -3.9190     0.8100 C.2   1 <1>   0.9060 
 11 C       -4.1240    -2.7600     0.5940 C.ar  1 <1>  -0.1440 
 12 O        0.3530    -4.1620     1.4350 O.co2 1 <1>  -0.9000 
 13 O        2.4930    -4.3680     1.1680 O.co2 1 <1>  -0.9000 
 14 C       -4.9990    -2.0410    -0.2100 C.ar  1 <1>  -0.1500 
 15 C       -4.6260    -3.4350     1.6970 C.ar  1 <1>  -0.1500 
 16 C       -6.3510    -1.9990     0.0840 C.ar  1 <1>  -0.1500 
 17 C       -5.9770    -3.3940     1.9930 C.ar  1 <1>  -0.1500 
 18 C       -6.8410    -2.6750     1.1870 C.ar  1 <1>  -0.1500 
 19 H       -2.4660    -0.7610    -0.3320 H     1 <1>   0.0800 
 20 H       -2.0700    -1.0410     1.3410 H     1 <1>   0.0800 
 21 H        1.9990    -2.2020    -0.2780 H     1 <1>   0.0800 
 22 H        1.7410    -3.6140    -1.2590 H     1 <1>   0.0800 
 23 H       -2.1470    -3.4330     1.0430 H     1 <1>   0.0800 
 24 H       -2.7000    -4.4870    -1.0540 H     1 <1>   0.0800 
 25 H       -2.8660    -2.9480    -1.8520 H     1 <1>   0.0800 
 26 H       -4.6360    -1.5090    -1.0710 H     1 <1>   0.1500 
 27 H       -3.9630    -3.9980     2.3330 H     1 <1>   0.1500 
 28 H       -7.0210    -1.4390    -0.5440 H     1 <1>   0.1500 
 29 H       -6.3540    -3.9210     2.8520 H     1 <1>   0.1500 
 30 H       -7.8910    -2.6430     1.4160 H     1 <1>   0.1500 
@<TRIPOS>BOND
  1   1   2  2   
  2   2   3  am  
  3   2   4  1   
  4   3   5  am  
  5   3   6  1   
  6   4   7  1   
  7   4  19  1   
  8   4  20  1   
  9   5   8  2   
 10   5   9  1   
 11   6  10  1   
 12   6  21  1   
 13   6  22  1   
 14   7   9  1   
 15   7  11  1   
 16   7  23  1   
 17   9  24  1   
 18   9  25  1   
 19  10  12  ar  
 20  10  13  ar  
 21  11  14  ar  
 22  11  15  ar  
 23  14  16  ar  
 24  14  26  1   
 25  15  17  ar  
 26  15  27  1   
 27  16  18  ar  
 28  16  28  1   
 29  17  18  ar  
 30  17  29  1   
 31  18  30  1   
@<TRIPOS>SUBSTRUCTURE
  1 ****   7 GROUP 4 **** **** 0

# MOE 2024.06 (io_trps.svl 2023.06)
