@<TRIPOS>MOLECULE
2-(2,3-Dimethyl-phenoxy)-N-[2-(4-methanesulfonyl-piperazin-1-yl)-phenyl]-acetami
56 58 1 0 0 
SMALL
USER_CHARGES


@<TRIPOS>ATOM
  1 S        1.3670     0.5210     0.1890 S.o2  1 <1>   1.3330 
  2 O        2.0960     0.8490    -1.0160 O.2   1 <1>  -0.6500 
  3 O        2.0200     0.5620     1.4760 O.2   1 <1>  -0.6500 
  4 N       -0.0050     1.5100     0.2570 N.am  1 <1>  -0.8490 
  5 C        0.6580    -1.1010     0.0060 C.3   1 <1>  -0.1350 
  6 C        0.2550     2.7370     1.0470 C.3   1 <1>   0.1960 
  7 C       -0.5130     1.8670    -1.0880 C.3   1 <1>   0.1960 
  8 C       -0.9700     3.6730     1.1260 C.3   1 <1>   0.2090 
  9 C       -1.7730     2.7510    -1.0270 C.3   1 <1>   0.2090 
 10 N       -1.4890     3.9820    -0.2400 N.pl3 1 <1>  -0.8380 
 11 C       -2.3190     5.1080    -0.3950 C.ar  1 <1>   0.1000 
 12 C       -1.7440     6.3560    -0.6740 C.ar  1 <1>   0.1170 
 13 C       -3.6990     5.0120    -0.2800 C.ar  1 <1>  -0.1500 
 14 N       -0.3470     6.3810    -0.7680 N.am  1 <1>  -0.5470 
 15 C       -2.5530     7.4710    -0.8360 C.ar  1 <1>  -0.1500 
 16 C       -4.5010     6.1290    -0.4420 C.ar  1 <1>  -0.1500 
 17 C        0.6090     7.3430    -0.8800 C.2   1 <1>   0.5690 
 18 C       -3.9280     7.3580    -0.7210 C.ar  1 <1>  -0.1500 
 19 O        0.3740     8.5160    -1.0480 O.2   1 <1>  -0.5700 
 20 C        2.0560     6.8800    -0.7810 C.3   1 <1>   0.1810 
 21 O        2.1460     5.7380     0.0600 O.3   1 <1>  -0.3630 
 22 C        3.3250     5.0850     0.0680 C.ar  1 <1>   0.0820 
 23 C        4.3870     5.5060     0.8680 C.ar  1 <1>  -0.1430 
 24 C        3.4370     3.9590    -0.7310 C.ar  1 <1>  -0.1500 
 25 C        5.5840     4.7950     0.8220 C.ar  1 <1>  -0.1430 
 26 C        4.2360     6.7170     1.7880 C.3   1 <1>  -0.0970 
 27 C        4.6190     3.2480    -0.7550 C.ar  1 <1>  -0.1500 
 28 C        5.6880     3.6710     0.0130 C.ar  1 <1>  -0.1500 
 29 C        6.7980     5.2040     1.6440 C.3   1 <1>  -0.0970 
 30 H        0.0910    -1.1630    -0.9010 H     1 <1>   0.0800 
 31 H        0.0140    -1.3140     0.8360 H     1 <1>   0.0800 
 32 H        1.4370    -1.8370    -0.0230 H     1 <1>   0.0800 
 33 H        1.0790     3.2780     0.6160 H     1 <1>   0.0800 
 34 H        0.5370     2.4660     2.0500 H     1 <1>   0.0800 
 35 H       -0.7460     0.9710    -1.6350 H     1 <1>   0.0800 
 36 H        0.2440     2.4020    -1.6360 H     1 <1>   0.0800 
 37 H       -0.6920     4.5870     1.6220 H     1 <1>   0.0800 
 38 H       -1.7430     3.1990     1.7060 H     1 <1>   0.0800 
 39 H       -2.5760     2.2010    -0.5670 H     1 <1>   0.0800 
 40 H       -2.0720     3.0260    -2.0230 H     1 <1>   0.0800 
 41 H       -4.1450     4.0620    -0.0580 H     1 <1>   0.1500 
 42 H        0.0140     5.4340    -0.6120 H     1 <1>   0.3700 
 43 H       -2.1110     8.4270    -1.0520 H     1 <1>   0.1500 
 44 H       -5.5700     6.0430    -0.3510 H     1 <1>   0.1500 
 45 H       -4.5490     8.2280    -0.8490 H     1 <1>   0.1500 
 46 H        2.6640     7.6620    -0.3670 H     1 <1>   0.0800 
 47 H        2.4190     6.6170    -1.7580 H     1 <1>   0.0800 
 48 H        2.6050     3.6320    -1.3260 H     1 <1>   0.1500 
 49 H        4.6920     7.5790     1.3350 H     1 <1>   0.0800 
 50 H        4.7050     6.5320     2.7370 H     1 <1>   0.0800 
 51 H        3.2030     6.9340     1.9840 H     1 <1>   0.0800 
 52 H        4.7010     2.3660    -1.3660 H     1 <1>   0.1500 
 53 H        6.6040     3.1080    -0.0200 H     1 <1>   0.1500 
 54 H        6.6180     5.0040     2.6850 H     1 <1>   0.0800 
 55 H        7.0010     6.2520     1.5150 H     1 <1>   0.0800 
 56 H        7.6720     4.6570     1.3410 H     1 <1>   0.0800 
@<TRIPOS>BOND
  1   1   2  2   
  2   1   3  2   
  3   1   4  am  
  4   1   5  1   
  5   4   6  1   
  6   4   7  1   
  7   5  30  1   
  8   5  31  1   
  9   5  32  1   
 10   6   8  1   
 11   6  33  1   
 12   6  34  1   
 13   7   9  1   
 14   7  35  1   
 15   7  36  1   
 16   8  10  1   
 17   8  37  1   
 18   8  38  1   
 19   9  10  1   
 20   9  39  1   
 21   9  40  1   
 22  10  11  1   
 23  11  12  ar  
 24  11  13  ar  
 25  12  14  1   
 26  12  15  ar  
 27  13  16  ar  
 28  13  41  1   
 29  14  17  am  
 30  14  42  1   
 31  15  18  ar  
 32  15  43  1   
 33  16  18  ar  
 34  16  44  1   
 35  17  19  2   
 36  17  20  1   
 37  18  45  1   
 38  20  21  1   
 39  20  46  1   
 40  20  47  1   
 41  21  22  1   
 42  22  23  ar  
 43  22  24  ar  
 44  23  25  ar  
 45  23  26  1   
 46  24  27  ar  
 47  24  48  1   
 48  25  28  ar  
 49  25  29  1   
 50  26  49  1   
 51  26  50  1   
 52  26  51  1   
 53  27  28  ar  
 54  27  52  1   
 55  28  53  1   
 56  29  54  1   
 57  29  55  1   
 58  29  56  1   
@<TRIPOS>SUBSTRUCTURE
  1 ****  21 GROUP 4 **** **** 0

# MOE 2024.06 (io_trps.svl 2023.06)
