@<TRIPOS>MOLECULE
5-Oxo-1-p-tolyl-pyrrolidine-3-carboxylic acid (5-ethoxymethyl-[1,3,4]thiadiazol-
45 47 1 0 0 
SMALL
USER_CHARGES


@<TRIPOS>ATOM
  1 S       -0.3390     0.7810     0.7990 S.3   1 <1>  -0.0800 
  2 C       -0.7790    -0.5330    -0.2390 C.2   1 <1>   0.4420 
  3 C        0.6570     1.3690    -0.4900 C.2   1 <1>   0.1980 
  4 N       -0.1980    -0.4670    -1.3800 N.2   1 <1>  -0.3380 
  5 N       -1.6720    -1.4490     0.2780 N.am  1 <1>  -0.4940 
  6 N        0.6190     0.6210    -1.5170 N.2   1 <1>  -0.3380 
  7 C        1.4500     2.6460    -0.2740 C.3   1 <1>   0.3000 
  8 C       -2.1520    -2.5970    -0.2860 C.2   1 <1>   0.5690 
  9 O        0.6310     3.6390     0.2730 O.3   1 <1>  -0.5600 
 10 O       -1.7790    -3.0210    -1.3480 O.2   1 <1>  -0.5700 
 11 C       -3.1950    -3.3860     0.4950 C.3   1 <1>  -0.0190 
 12 C        1.2600     4.8630     0.4480 C.3   1 <1>   0.1200 
 13 C       -3.8520    -4.5150    -0.3160 C.3   1 <1>   0.1400 
 14 C       -4.3770    -2.5450     1.0000 C.3   1 <1>  -0.0990 
 15 C        0.2420     5.8160     1.0610 C.3   1 <1>  -0.2400 
 16 N       -5.2150    -4.6290     0.2430 N.am  1 <1>  -0.4770 
 17 C       -5.5200    -3.5220     0.9820 C.2   1 <1>   0.5690 
 18 C       -5.9980    -5.7800     0.0150 C.ar  1 <1>   0.1170 
 19 O       -6.5430    -3.2930     1.5760 O.2   1 <1>  -0.5700 
 20 C       -6.8620    -6.2690     0.9890 C.ar  1 <1>  -0.1500 
 21 C       -5.9200    -6.4690    -1.1920 C.ar  1 <1>  -0.1500 
 22 C       -7.6150    -7.4080     0.7710 C.ar  1 <1>  -0.1500 
 23 C       -6.6710    -7.6100    -1.4130 C.ar  1 <1>  -0.1500 
 24 C       -7.5220    -8.0890    -0.4320 C.ar  1 <1>  -0.1440 
 25 C       -8.3500    -9.3380    -0.6720 C.3   1 <1>  -0.0970 
 26 H       -2.0210    -1.2150     1.2020 H     1 <1>   0.3700 
 27 H        1.8340     2.9940    -1.2170 H     1 <1>   0.0800 
 28 H        2.2630     2.4590     0.4050 H     1 <1>   0.0800 
 29 H       -2.7060    -3.8420     1.3370 H     1 <1>   0.0800 
 30 H        1.5900     5.2280    -0.5100 H     1 <1>   0.0800 
 31 H        2.1030     4.7350     1.1070 H     1 <1>   0.0800 
 32 H       -3.3110    -5.4400    -0.2120 H     1 <1>   0.0800 
 33 H       -3.9270    -4.2530    -1.3580 H     1 <1>   0.0800 
 34 H       -4.6110    -1.7420     0.3240 H     1 <1>   0.0800 
 35 H       -4.2170    -2.1660     1.9920 H     1 <1>   0.0800 
 36 H       -0.6020     5.9270     0.4040 H     1 <1>   0.0800 
 37 H        0.6890     6.7810     1.2130 H     1 <1>   0.0800 
 38 H       -0.0920     5.4390     2.0110 H     1 <1>   0.0800 
 39 H       -6.9490    -5.7560     1.9290 H     1 <1>   0.1500 
 40 H       -5.2750    -6.1140    -1.9730 H     1 <1>   0.1500 
 41 H       -8.2760    -7.7610     1.5420 H     1 <1>   0.1500 
 42 H       -6.5920    -8.1230    -2.3560 H     1 <1>   0.1500 
 43 H       -9.3060    -9.0660    -1.0820 H     1 <1>   0.0800 
 44 H       -8.5050    -9.8680     0.2510 H     1 <1>   0.0800 
 45 H       -7.8500    -9.9950    -1.3600 H     1 <1>   0.0800 
@<TRIPOS>BOND
  1   1   2  1   
  2   1   3  1   
  3   2   4  2   
  4   2   5  1   
  5   3   6  2   
  6   3   7  1   
  7   4   6  1   
  8   5   8  am  
  9   5  26  1   
 10   7   9  1   
 11   7  27  1   
 12   7  28  1   
 13   8  10  2   
 14   8  11  1   
 15   9  12  1   
 16  11  13  1   
 17  11  14  1   
 18  11  29  1   
 19  12  15  1   
 20  12  30  1   
 21  12  31  1   
 22  13  16  1   
 23  13  32  1   
 24  13  33  1   
 25  14  17  1   
 26  14  34  1   
 27  14  35  1   
 28  15  36  1   
 29  15  37  1   
 30  15  38  1   
 31  16  17  am  
 32  16  18  1   
 33  17  19  2   
 34  18  20  ar  
 35  18  21  ar  
 36  20  22  ar  
 37  20  39  1   
 38  21  23  ar  
 39  21  40  1   
 40  22  24  ar  
 41  22  41  1   
 42  23  24  ar  
 43  23  42  1   
 44  24  25  1   
 45  25  43  1   
 46  25  44  1   
 47  25  45  1   
@<TRIPOS>SUBSTRUCTURE
  1 ****  11 GROUP 4 **** **** 0

# MOE 2024.06 (io_trps.svl 2023.06)
