@<TRIPOS>MOLECULE
1-(2-Cyano-ethyl)-3-(3,4-dimethyl-phenyl)-1H-pyrazole-4-carboxylic acid dimethyl
42 43 1 0 0 
SMALL
USER_CHARGES


@<TRIPOS>ATOM
  1 O        0.8440     0.1550    -2.1540 O.2   1 <1>  -0.5700 
  2 C        1.5050    -0.1690    -1.1860 C.2   1 <1>   0.7160 
  3 N        2.0700     0.8140    -0.3910 N.am  1 <1>  -0.6600 
  4 C        1.6970    -1.5630    -0.8880 C.2   1 <1>  -0.0860 
  5 C        2.7550     0.5320     0.9000 C.3   1 <1>   0.0600 
  6 C        1.9900     2.2580    -0.7490 C.3   1 <1>   0.0600 
  7 C        0.7100    -2.4730    -0.4700 C.2   1 <1>   0.2350 
  8 C        2.8320    -2.3100    -0.9510 C.2   1 <1>  -0.3020 
  9 N        1.2160    -3.6710    -0.3070 N.2   1 <1>  -0.7070 
 10 C       -0.6870    -2.1720    -0.2250 C.ar  1 <1>   0.0540 
 11 N        2.5140    -3.5620    -0.6070 N.pl3 1 <1>   0.3140 
 12 C       -1.0990    -1.0120     0.4280 C.ar  1 <1>  -0.1500 
 13 C       -1.6790    -3.0590    -0.6310 C.ar  1 <1>  -0.1500 
 14 C        3.4220    -4.7210    -0.5500 C.3   1 <1>   0.0960 
 15 C       -2.4360    -0.7320     0.6600 C.ar  1 <1>  -0.1430 
 16 C       -3.0170    -2.7960    -0.4050 C.ar  1 <1>  -0.1500 
 17 C        3.2400    -5.4840     0.7650 C.3   1 <1>   0.0400 
 18 C       -3.4070    -1.6330     0.2390 C.ar  1 <1>  -0.1430 
 19 C       -2.8080     0.5620     1.3700 C.3   1 <1>  -0.0970 
 20 C        4.2390    -6.5790     0.8490 C.1   1 <1>   0.3570 
 21 C       -4.8890    -1.3740     0.4670 C.3   1 <1>  -0.0970 
 22 N        5.0230    -7.4000     0.8860 N.1   1 <1>  -0.5570 
 23 H        2.5330    -0.4610     1.2500 H     1 <1>   0.0800 
 24 H        2.4260     1.2330     1.6480 H     1 <1>   0.0800 
 25 H        3.8190     0.6290     0.7720 H     1 <1>   0.0800 
 26 H        1.6300     2.3870    -1.7560 H     1 <1>   0.0800 
 27 H        2.9650     2.7070    -0.6780 H     1 <1>   0.0800 
 28 H        1.3170     2.7610    -0.0770 H     1 <1>   0.0800 
 29 H        3.8210    -1.9990    -1.2340 H     1 <1>   0.1500 
 30 H       -0.3530    -0.3170     0.7640 H     1 <1>   0.1500 
 31 H       -1.3880    -3.9650    -1.1300 H     1 <1>   0.1500 
 32 H        4.4340    -4.3690    -0.6410 H     1 <1>   0.0800 
 33 H        3.2000    -5.3620    -1.3840 H     1 <1>   0.0800 
 34 H       -3.7530    -3.5050    -0.7370 H     1 <1>   0.1500 
 35 H        2.2550    -5.9120     0.8150 H     1 <1>   0.0800 
 36 H        3.3800    -4.8240     1.6010 H     1 <1>   0.0800 
 37 H       -1.9320     1.1370     1.6090 H     1 <1>   0.0800 
 38 H       -3.3290     0.3430     2.2840 H     1 <1>   0.0800 
 39 H       -3.4400     1.1580     0.7370 H     1 <1>   0.0800 
 40 H       -5.1850    -0.4690    -0.0320 H     1 <1>   0.0800 
 41 H       -5.0880    -1.2780     1.5190 H     1 <1>   0.0800 
 42 H       -5.4850    -2.1820     0.0830 H     1 <1>   0.0800 
@<TRIPOS>BOND
  1   1   2  2   
  2   2   3  am  
  3   2   4  1   
  4   3   5  1   
  5   3   6  1   
  6   4   7  1   
  7   4   8  2   
  8   5  23  1   
  9   5  24  1   
 10   5  25  1   
 11   6  26  1   
 12   6  27  1   
 13   6  28  1   
 14   7   9  2   
 15   7  10  1   
 16   8  11  1   
 17   8  29  1   
 18   9  11  1   
 19  10  12  ar  
 20  10  13  ar  
 21  11  14  1   
 22  12  15  ar  
 23  12  30  1   
 24  13  16  ar  
 25  13  31  1   
 26  14  17  1   
 27  14  32  1   
 28  14  33  1   
 29  15  18  ar  
 30  15  19  1   
 31  16  18  ar  
 32  16  34  1   
 33  17  20  1   
 34  17  35  1   
 35  17  36  1   
 36  18  21  1   
 37  19  37  1   
 38  19  38  1   
 39  19  39  1   
 40  20  22  3   
 41  21  40  1   
 42  21  41  1   
 43  21  42  1   
@<TRIPOS>SUBSTRUCTURE
  1 ****   7 GROUP 4 **** **** 0

# MOE 2024.06 (io_trps.svl 2023.06)
