@<TRIPOS>MOLECULE
3-tert-Butyl-6-(3-methoxy-phenyl)-[1,2,4]triazolo[3,4-b][1,3,4]thiadiazole
36 38 1 0 0 
SMALL
USER_CHARGES


@<TRIPOS>ATOM
  1 S       -0.2740    -0.2580    -0.5300 S.3   1 <1>  -0.1970 
  2 C        0.5620     1.2630    -0.3430 C.2   1 <1>   0.2420 
  3 C       -1.8310     0.5980    -0.3250 C.2   1 <1>   0.5050 
  4 N        1.7860     1.6490    -0.3460 N.2   1 <1>  -0.3380 
  5 N       -0.3310     2.2160    -0.1560 N.pl3 1 <1>   0.5050 
  6 N       -1.6830     1.8620    -0.1420 N.2   1 <1>  -0.6520 
  7 C       -3.0630    -0.1660    -0.3780 C.ar  1 <1>   0.0860 
  8 N        1.7140     2.9770    -0.1440 N.2   1 <1>  -0.3380 
  9 C        0.4570     3.3030    -0.0330 C.2   1 <1>   0.0060 
 10 C       -4.2880     0.4850    -0.2180 C.ar  1 <1>  -0.1500 
 11 C       -3.1000    -1.5500    -0.5860 C.ar  1 <1>  -0.1500 
 12 C       -0.0930     4.7160     0.2060 C.3   1 <1>   0.1800 
 13 C       -5.4940    -0.2030    -0.2610 C.ar  1 <1>   0.0830 
 14 C       -4.2960    -2.2440    -0.6300 C.ar  1 <1>  -0.1500 
 15 C       -1.0070     5.1310    -0.9560 C.3   1 <1>  -0.2400 
 16 C        1.0530     5.7390     0.3030 C.3   1 <1>  -0.2400 
 17 C       -0.8840     4.7590     1.5220 C.3   1 <1>  -0.2400 
 18 O       -6.7070     0.3850    -0.1110 O.3   1 <1>  -0.3630 
 19 C       -5.4910    -1.5710    -0.4680 C.ar  1 <1>  -0.1500 
 20 C       -6.8350     1.7730     0.1060 C.3   1 <1>   0.0400 
 21 H       -4.2790     1.5470    -0.0570 H     1 <1>   0.1500 
 22 H       -2.1920    -2.1100    -0.7160 H     1 <1>   0.1500 
 23 H       -4.2990    -3.3080    -0.7910 H     1 <1>   0.1500 
 24 H       -0.4670     5.0800    -1.8860 H     1 <1>   0.0800 
 25 H       -1.3590     6.1380    -0.8200 H     1 <1>   0.0800 
 26 H       -1.8610     4.4820    -1.0240 H     1 <1>   0.0800 
 27 H        1.7120     5.4850     1.1140 H     1 <1>   0.0800 
 28 H        0.6720     6.7300     0.4700 H     1 <1>   0.0800 
 29 H        1.6270     5.7430    -0.6070 H     1 <1>   0.0800 
 30 H       -1.2330     5.7570     1.7210 H     1 <1>   0.0800 
 31 H       -1.7380     4.1070     1.4790 H     1 <1>   0.0800 
 32 H       -0.2590     4.4470     2.3400 H     1 <1>   0.0800 
 33 H       -6.4270    -2.1000    -0.5010 H     1 <1>   0.1500 
 34 H       -7.8820     2.0020     0.1940 H     1 <1>   0.0800 
 35 H       -6.4150     2.2980    -0.7330 H     1 <1>   0.0800 
 36 H       -6.3270     2.0330     1.0180 H     1 <1>   0.0800 
@<TRIPOS>BOND
  1   1   2  1   
  2   1   3  1   
  3   2   4  2   
  4   2   5  1   
  5   3   6  2   
  6   3   7  1   
  7   4   8  1   
  8   5   6  1   
  9   5   9  1   
 10   7  10  ar  
 11   7  11  ar  
 12   8   9  2   
 13   9  12  1   
 14  10  13  ar  
 15  10  21  1   
 16  11  14  ar  
 17  11  22  1   
 18  12  15  1   
 19  12  16  1   
 20  12  17  1   
 21  13  18  1   
 22  13  19  ar  
 23  14  19  ar  
 24  14  23  1   
 25  15  24  1   
 26  15  25  1   
 27  15  26  1   
 28  16  27  1   
 29  16  28  1   
 30  16  29  1   
 31  17  30  1   
 32  17  31  1   
 33  17  32  1   
 34  18  20  1   
 35  19  33  1   
 36  20  34  1   
 37  20  35  1   
 38  20  36  1   
@<TRIPOS>SUBSTRUCTURE
  1 ****   6 GROUP 4 **** **** 0

# MOE 2024.06 (io_trps.svl 2023.06)
