@<TRIPOS>MOLECULE
N-Cyclopentyl-3-(3-phenyl-[1,2,4]oxadiazol-5-yl)-propionamide
40 42 1 0 0 
SMALL
USER_CHARGES


@<TRIPOS>ATOM
  1 O        0.4740    -1.1210     2.0710 O.2   1 <1>  -0.5700 
  2 C        0.8190    -2.1280     1.5110 C.2   1 <1>   0.5690 
  3 N        2.0560    -2.2080     0.9730 N.am  1 <1>  -0.7300 
  4 C       -0.1640    -3.2740     1.4080 C.3   1 <1>  -0.0990 
  5 C        2.7080    -3.2970     0.2220 C.3   1 <1>   0.2200 
  6 C       -0.9010    -3.2310     0.0640 C.3   1 <1>   0.0200 
  7 C        4.0270    -3.6380     0.9030 C.3   1 <1>  -0.1600 
  8 C        3.1410    -2.7610    -1.1360 C.3   1 <1>  -0.1600 
  9 C       -1.7930    -4.4420    -0.1110 C.2   1 <1>   0.2980 
 10 C        5.0300    -2.5860     0.4190 C.3   1 <1>  -0.1600 
 11 C        4.4620    -2.0230    -0.8900 C.3   1 <1>  -0.1600 
 12 O       -1.2330    -5.6110    -0.2780 O.3   1 <1>  -0.0190 
 13 N       -3.0600    -4.4380    -0.1130 N.2   1 <1>  -0.5650 
 14 N       -2.2340    -6.4250    -0.3940 N.2   1 <1>  -0.4100 
 15 C       -3.3170    -5.7380    -0.2970 C.2   1 <1>   0.4620 
 16 C       -4.6690    -6.2680    -0.3720 C.ar  1 <1>   0.0540 
 17 C       -4.9020    -7.6310    -0.5730 C.ar  1 <1>  -0.1500 
 18 C       -5.7910    -5.4450    -0.2460 C.ar  1 <1>  -0.1500 
 19 C       -6.1840    -8.1450    -0.6460 C.ar  1 <1>  -0.1500 
 20 C       -7.0750    -5.9520    -0.3170 C.ar  1 <1>  -0.1500 
 21 C       -7.2750    -7.3060    -0.5180 C.ar  1 <1>  -0.1500 
 22 H        2.6440    -1.3820     1.1000 H     1 <1>   0.3700 
 23 H       -0.8790    -3.1880     2.2060 H     1 <1>   0.0800 
 24 H        0.3520    -4.2070     1.5340 H     1 <1>   0.0800 
 25 H        2.0650    -4.1560     0.1300 H     1 <1>   0.0800 
 26 H       -0.1960    -3.2020    -0.7480 H     1 <1>   0.0800 
 27 H       -1.5010    -2.3390     0.0150 H     1 <1>   0.0800 
 28 H        4.3470    -4.6070     0.5610 H     1 <1>   0.0800 
 29 H        3.9390    -3.6650     1.9750 H     1 <1>   0.0800 
 30 H        2.3930    -2.1310    -1.5860 H     1 <1>   0.0800 
 31 H        3.3270    -3.5950    -1.7890 H     1 <1>   0.0800 
 32 H        6.0030    -3.0220     0.2700 H     1 <1>   0.0800 
 33 H        5.1120    -1.7960     1.1460 H     1 <1>   0.0800 
 34 H        4.2770    -0.9680    -0.7800 H     1 <1>   0.0800 
 35 H        5.1430    -2.1710    -1.7110 H     1 <1>   0.0800 
 36 H       -4.0650    -8.2990    -0.6750 H     1 <1>   0.1500 
 37 H       -5.6550    -4.3890    -0.0900 H     1 <1>   0.1500 
 38 H       -6.3330    -9.2000    -0.8020 H     1 <1>   0.1500 
 39 H       -7.9210    -5.2940    -0.2170 H     1 <1>   0.1500 
 40 H       -8.2740    -7.7030    -0.5740 H     1 <1>   0.1500 
@<TRIPOS>BOND
  1   1   2  2   
  2   2   3  am  
  3   2   4  1   
  4   3   5  1   
  5   3  22  1   
  6   4   6  1   
  7   4  23  1   
  8   4  24  1   
  9   5   7  1   
 10   5   8  1   
 11   5  25  1   
 12   6   9  1   
 13   6  26  1   
 14   6  27  1   
 15   7  10  1   
 16   7  28  1   
 17   7  29  1   
 18   8  11  1   
 19   8  30  1   
 20   8  31  1   
 21   9  12  1   
 22   9  13  2   
 23  10  11  1   
 24  10  32  1   
 25  10  33  1   
 26  11  34  1   
 27  11  35  1   
 28  12  14  1   
 29  13  15  1   
 30  14  15  2   
 31  15  16  1   
 32  16  17  ar  
 33  16  18  ar  
 34  17  19  ar  
 35  17  36  1   
 36  18  20  ar  
 37  18  37  1   
 38  19  21  ar  
 39  19  38  1   
 40  20  21  ar  
 41  20  39  1   
 42  21  40  1   
@<TRIPOS>SUBSTRUCTURE
  1 ****   9 GROUP 4 **** **** 0

# MOE 2024.06 (io_trps.svl 2023.06)
