@<TRIPOS>MOLECULE
2-Piperidin-1-yl-1-[3-(toluene-4-sulfonyl)-imidazolidin-1-yl]-ethanone
50 52 1 0 0 
SMALL
USER_CHARGES


@<TRIPOS>ATOM
  1 S       -0.4410    -0.2720     0.5370 S.o2  1 <1>   1.4470 
  2 O        0.7420     0.1860    -0.1520 O.2   1 <1>  -0.6500 
  3 O       -0.3440    -0.7680     1.8930 O.2   1 <1>  -0.6500 
  4 N       -1.0520    -1.5540    -0.3760 N.am  1 <1>  -0.8490 
  5 C       -1.7740     0.9500     0.4060 C.ar  1 <1>  -0.0090 
  6 C       -2.0940    -2.2590     0.3090 C.3   1 <1>   0.4960 
  7 C       -0.0460    -2.5570    -0.7020 C.3   1 <1>   0.1960 
  8 C       -2.4260     1.4330     1.5350 C.ar  1 <1>  -0.1500 
  9 C       -2.1910     1.4180    -0.8340 C.ar  1 <1>  -0.1500 
 10 N       -2.1890    -3.5130    -0.4510 N.am  1 <1>  -0.6600 
 11 C       -0.8570    -3.8020    -1.0330 C.3   1 <1>   0.1400 
 12 C       -3.4630     2.3440     1.4290 C.ar  1 <1>  -0.1500 
 13 C       -3.2270     2.3290    -0.9470 C.ar  1 <1>  -0.1500 
 14 C       -3.3240    -4.1390    -0.8770 C.2   1 <1>   0.5690 
 15 C       -3.8690     2.7970     0.1860 C.ar  1 <1>  -0.1430 
 16 O       -3.2740    -5.0970    -1.6150 O.2   1 <1>  -0.5700 
 17 C       -4.7270    -3.6760    -0.4380 C.3   1 <1>   0.4040 
 18 C       -5.0010     3.8010     0.0670 C.3   1 <1>  -0.0970 
 19 N       -5.7910    -4.7330    -0.6280 N.4   1 <1>  -0.9590 
 20 C       -7.1730    -4.1770    -0.6190 C.3   1 <1>   0.3430 
 21 C       -5.6150    -5.8690     0.3240 C.3   1 <1>   0.3430 
 22 C       -8.1710    -5.2760    -0.9870 C.3   1 <1>  -0.1600 
 23 C       -6.5920    -6.9910    -0.0290 C.3   1 <1>  -0.1600 
 24 C       -8.0440    -6.4950    -0.0640 C.3   1 <1>  -0.1600 
 25 H       -3.0110    -1.6940     0.2850 H     1 <1>   0.0800 
 26 H       -1.8180    -2.4830     1.3280 H     1 <1>   0.0800 
 27 H        0.5880    -2.7520     0.1480 H     1 <1>   0.0800 
 28 H        0.5650    -2.2410    -1.5320 H     1 <1>   0.0800 
 29 H       -2.1180     1.0990     2.5120 H     1 <1>   0.1500 
 30 H       -1.6950     1.0660    -1.7240 H     1 <1>   0.1500 
 31 H       -0.4210    -4.6820    -0.5940 H     1 <1>   0.0800 
 32 H       -0.9350    -3.9290    -2.1000 H     1 <1>   0.0800 
 33 H       -3.9490     2.7040     2.3200 H     1 <1>   0.1500 
 34 H       -3.5270     2.6760    -1.9210 H     1 <1>   0.1500 
 35 H       -4.9770    -2.8110    -1.0280 H     1 <1>   0.0800 
 36 H       -4.6910    -3.3800     0.5950 H     1 <1>   0.0800 
 37 H       -5.9420     3.2870    -0.0130 H     1 <1>   0.0800 
 38 H       -4.8680     4.4180    -0.8040 H     1 <1>   0.0800 
 39 H       -5.0280     4.4410     0.9310 H     1 <1>   0.0800 
 40 H       -5.6030    -5.1360    -1.5620 H     1 <1>   0.4500 
 41 H       -7.2540    -3.3690    -1.3290 H     1 <1>   0.0800 
 42 H       -7.4070    -3.7950     0.3620 H     1 <1>   0.0800 
 43 H       -5.7990    -5.5360     1.3330 H     1 <1>   0.0800 
 44 H       -4.6060    -6.2480     0.2660 H     1 <1>   0.0800 
 45 H       -8.0130    -5.5730    -2.0100 H     1 <1>   0.0800 
 46 H       -9.1700    -4.8810    -0.9190 H     1 <1>   0.0800 
 47 H       -6.5010    -7.7780     0.6990 H     1 <1>   0.0800 
 48 H       -6.3230    -7.4070    -0.9850 H     1 <1>   0.0800 
 49 H       -8.6920    -7.2850    -0.4100 H     1 <1>   0.0800 
 50 H       -8.3570    -6.2280     0.9320 H     1 <1>   0.0800 
@<TRIPOS>BOND
  1   1   2  2   
  2   1   3  2   
  3   1   4  am  
  4   1   5  1   
  5   4   6  1   
  6   4   7  1   
  7   5   8  ar  
  8   5   9  ar  
  9   6  10  1   
 10   6  25  1   
 11   6  26  1   
 12   7  11  1   
 13   7  27  1   
 14   7  28  1   
 15   8  12  ar  
 16   8  29  1   
 17   9  13  ar  
 18   9  30  1   
 19  10  11  1   
 20  10  14  am  
 21  11  31  1   
 22  11  32  1   
 23  12  15  ar  
 24  12  33  1   
 25  13  15  ar  
 26  13  34  1   
 27  14  16  2   
 28  14  17  1   
 29  15  18  1   
 30  17  19  1   
 31  17  35  1   
 32  17  36  1   
 33  18  37  1   
 34  18  38  1   
 35  18  39  1   
 36  19  20  1   
 37  19  21  1   
 38  19  40  1   
 39  20  22  1   
 40  20  41  1   
 41  20  42  1   
 42  21  23  1   
 43  21  43  1   
 44  21  44  1   
 45  22  24  1   
 46  22  45  1   
 47  22  46  1   
 48  23  24  1   
 49  23  47  1   
 50  23  48  1   
 51  24  49  1   
 52  24  50  1   
@<TRIPOS>SUBSTRUCTURE
  1 ****   6 GROUP 4 **** **** 0

# MOE 2024.06 (io_trps.svl 2023.06)
