@<TRIPOS>MOLECULE
[5-(2-Chloro-phenyl)-isoxazol-3-yl]-piperidin-1-yl-methanone
35 37 1 0 0 
SMALL
USER_CHARGES


@<TRIPOS>ATOM
  1 CL       0.4910     0.0730    -0.3340 Cl    1 <1>  -0.1770 
  2 C       -0.2260     1.6470    -0.0830 C.ar  1 <1>   0.1770 
  3 C        0.5780     2.7690     0.1270 C.ar  1 <1>   0.0530 
  4 C       -1.6060     1.7300    -0.1210 C.ar  1 <1>  -0.1500 
  5 C        2.0180     2.7110     0.1810 C.2   1 <1>   0.0870 
  6 C       -0.0730     3.9930     0.2860 C.ar  1 <1>  -0.1500 
  7 C       -2.2250     2.9560     0.0450 C.ar  1 <1>  -0.1500 
  8 O        2.6260     1.8190     0.9440 O.3   1 <1>  -0.0190 
  9 C        2.9310     3.4770    -0.4370 C.2   1 <1>  -0.1500 
 10 C       -1.4530     4.0870     0.2470 C.ar  1 <1>  -0.1500 
 11 N        3.9160     2.0090     0.8190 N.2   1 <1>  -0.4100 
 12 C        4.1520     2.9900    -0.0050 C.2   1 <1>   0.2030 
 13 C        5.4390     3.5390    -0.4240 C.2   1 <1>   0.7160 
 14 O        5.4520     4.6370    -0.9590 O.2   1 <1>  -0.5700 
 15 N        6.6540     2.8900    -0.2610 N.am  1 <1>  -0.6600 
 16 C        6.7540     1.4380     0.0820 C.3   1 <1>   0.1400 
 17 C        7.9390     3.6270    -0.4680 C.3   1 <1>   0.1400 
 18 C        8.0800     0.8440    -0.4060 C.3   1 <1>  -0.1600 
 19 C        9.0310     3.0620     0.4450 C.3   1 <1>  -0.1600 
 20 C        9.3000     1.5690     0.1860 C.3   1 <1>  -0.1600 
 21 H       -2.1880     0.8400    -0.2820 H     1 <1>   0.1500 
 22 H        0.5130     4.8810     0.4480 H     1 <1>   0.1500 
 23 H       -3.2990     3.0300     0.0170 H     1 <1>   0.1500 
 24 H        2.7900     4.2950    -1.1200 H     1 <1>   0.1500 
 25 H       -1.9300     5.0440     0.3750 H     1 <1>   0.1500 
 26 H        5.9430     0.8980    -0.3760 H     1 <1>   0.0800 
 27 H        6.6770     1.3240     1.1510 H     1 <1>   0.0800 
 28 H        7.8010     4.6730    -0.2520 H     1 <1>   0.0800 
 29 H        8.2350     3.5330    -1.4990 H     1 <1>   0.0800 
 30 H        8.1040     0.9150    -1.4800 H     1 <1>   0.0800 
 31 H        8.1230    -0.2000    -0.1520 H     1 <1>   0.0800 
 32 H        8.7170     3.2000     1.4650 H     1 <1>   0.0800 
 33 H        9.9400     3.6210     0.3090 H     1 <1>   0.0800 
 34 H       10.1280     1.4620    -0.4940 H     1 <1>   0.0800 
 35 H        9.5810     1.1050     1.1160 H     1 <1>   0.0800 
@<TRIPOS>BOND
  1   1   2  1   
  2   2   3  ar  
  3   2   4  ar  
  4   3   5  1   
  5   3   6  ar  
  6   4   7  ar  
  7   4  21  1   
  8   5   8  1   
  9   5   9  2   
 10   6  10  ar  
 11   6  22  1   
 12   7  10  ar  
 13   7  23  1   
 14   8  11  1   
 15   9  12  1   
 16   9  24  1   
 17  10  25  1   
 18  11  12  2   
 19  12  13  1   
 20  13  14  2   
 21  13  15  am  
 22  15  16  1   
 23  15  17  1   
 24  16  18  1   
 25  16  26  1   
 26  16  27  1   
 27  17  19  1   
 28  17  28  1   
 29  17  29  1   
 30  18  20  1   
 31  18  30  1   
 32  18  31  1   
 33  19  20  1   
 34  19  32  1   
 35  19  33  1   
 36  20  34  1   
 37  20  35  1   
@<TRIPOS>SUBSTRUCTURE
  1 ****  12 GROUP 4 **** **** 0

# MOE 2024.06 (io_trps.svl 2023.06)
