@<TRIPOS>MOLECULE
3-(3-Chloro-phenyl)-1-(2-cyano-ethyl)-1H-pyrazole-4-carboxylic acid isopropyl es
38 39 1 0 0 
SMALL
USER_CHARGES


@<TRIPOS>ATOM
  1 CL      -1.7510    -0.6670    -1.6340 Cl    1 <1>  -0.1770 
  2 C       -1.5870    -1.9870    -0.5040 C.ar  1 <1>   0.1770 
  3 C       -0.6380    -2.9620    -0.7360 C.ar  1 <1>  -0.1500 
  4 C       -2.4140    -2.0340     0.6010 C.ar  1 <1>  -0.1500 
  5 C       -0.4870    -4.0230     0.1540 C.ar  1 <1>   0.0540 
  6 C       -2.2840    -3.0870     1.4910 C.ar  1 <1>  -0.1500 
  7 C        0.4950    -5.0640    -0.0620 C.2   1 <1>   0.2350 
  8 C       -1.3330    -4.0660     1.2620 C.ar  1 <1>  -0.1500 
  9 N        0.1530    -6.3230    -0.1610 N.2   1 <1>  -0.7070 
 10 C        1.8880    -4.9030    -0.1940 C.2   1 <1>  -0.0860 
 11 N        1.2880    -6.9940    -0.3790 N.pl3 1 <1>   0.3140 
 12 C        2.6530    -3.6870    -0.1060 C.2   1 <1>   0.8060 
 13 C        2.3400    -6.1710    -0.4030 C.2   1 <1>  -0.3020 
 14 C        1.3010    -8.4570    -0.5560 C.3   1 <1>   0.0960 
 15 O        2.1860    -2.6040     0.1810 O.2   1 <1>  -0.5700 
 16 O        3.9620    -3.7840    -0.3570 O.3   1 <1>  -0.4300 
 17 C        0.5900    -9.1440     0.6130 C.3   1 <1>   0.0400 
 18 C        4.8390    -2.6840    -0.2870 C.3   1 <1>   0.2000 
 19 C        0.6890   -10.6180     0.4650 C.1   1 <1>   0.3570 
 20 C        6.0270    -2.9960    -1.1920 C.3   1 <1>  -0.2400 
 21 C        5.2770    -2.5050     1.1670 C.3   1 <1>  -0.2400 
 22 N        0.7920   -11.7410     0.3290 N.1   1 <1>  -0.5570 
 23 H       -0.0120    -2.8940    -1.6060 H     1 <1>   0.1500 
 24 H       -3.1450    -1.2610     0.7580 H     1 <1>   0.1500 
 25 H       -2.9220    -3.1430     2.3570 H     1 <1>   0.1500 
 26 H       -1.2370    -4.8880     1.9500 H     1 <1>   0.1500 
 27 H        3.3510    -6.5010    -0.5600 H     1 <1>   0.1500 
 28 H        2.3210    -8.7880    -0.6190 H     1 <1>   0.0800 
 29 H        0.8020    -8.6880    -1.4800 H     1 <1>   0.0800 
 30 H       -0.4490    -8.8690     0.6310 H     1 <1>   0.0800 
 31 H        1.0450    -8.8590     1.5440 H     1 <1>   0.0800 
 32 H        4.3310    -1.8030    -0.6460 H     1 <1>   0.0800 
 33 H        6.5310    -3.8860    -0.8600 H     1 <1>   0.0800 
 34 H        6.7260    -2.1790    -1.1740 H     1 <1>   0.0800 
 35 H        5.6920    -3.1310    -2.2050 H     1 <1>   0.0800 
 36 H        5.7520    -3.3980     1.5320 H     1 <1>   0.0800 
 37 H        4.4290    -2.2710     1.7850 H     1 <1>   0.0800 
 38 H        5.9760    -1.6910     1.2390 H     1 <1>   0.0800 
@<TRIPOS>BOND
  1   1   2  1   
  2   2   3  ar  
  3   2   4  ar  
  4   3   5  ar  
  5   3  23  1   
  6   4   6  ar  
  7   4  24  1   
  8   5   7  1   
  9   5   8  ar  
 10   6   8  ar  
 11   6  25  1   
 12   7   9  2   
 13   7  10  1   
 14   8  26  1   
 15   9  11  1   
 16  10  12  1   
 17  10  13  2   
 18  11  13  1   
 19  11  14  1   
 20  12  15  2   
 21  12  16  1   
 22  13  27  1   
 23  14  17  1   
 24  14  28  1   
 25  14  29  1   
 26  16  18  1   
 27  17  19  1   
 28  17  30  1   
 29  17  31  1   
 30  18  20  1   
 31  18  21  1   
 32  18  32  1   
 33  19  22  3   
 34  20  33  1   
 35  20  34  1   
 36  20  35  1   
 37  21  36  1   
 38  21  37  1   
 39  21  38  1   
@<TRIPOS>SUBSTRUCTURE
  1 ****   7 GROUP 4 **** **** 0

# MOE 2024.06 (io_trps.svl 2023.06)
