@<TRIPOS>MOLECULE
N-Cyclopentyl-3-[3-(3,4,5-trimethoxy-phenyl)-[1,2,4]oxadiazol-5-yl]-propionamide
52 54 1 0 0 
SMALL
USER_CHARGES


@<TRIPOS>ATOM
  1 O       -0.0190    -0.9650     1.7320 O.2   1 <1>  -0.5700 
  2 C        0.3770    -2.0260     1.3270 C.2   1 <1>   0.5690 
  3 N        1.6260    -2.1280     0.8200 N.am  1 <1>  -0.7300 
  4 C       -0.5560    -3.2160     1.3780 C.3   1 <1>  -0.0990 
  5 C        2.3350    -3.2840     0.2410 C.3   1 <1>   0.2200 
  6 C       -1.2740    -3.3950     0.0350 C.3   1 <1>   0.0200 
  7 C        3.6550    -3.4670     0.9790 C.3   1 <1>  -0.1600 
  8 C        2.7700    -2.9290    -1.1750 C.3   1 <1>  -0.1600 
  9 C       -2.1180    -4.6520     0.0270 C.2   1 <1>   0.2980 
 10 C        4.6220    -2.4510     0.3610 C.3   1 <1>  -0.1600 
 11 C        4.0550    -2.1060    -1.0220 C.3   1 <1>  -0.1600 
 12 O       -1.5150    -5.8120     0.0400 O.3   1 <1>  -0.0190 
 13 N       -3.3840    -4.6960     0.0060 N.2   1 <1>  -0.5650 
 14 N       -2.4850    -6.6710     0.0290 N.2   1 <1>  -0.4100 
 15 C       -3.5930    -6.0170     0.0090 C.2   1 <1>   0.4620 
 16 C       -4.9240    -6.6030    -0.0090 C.ar  1 <1>   0.0540 
 17 C       -6.0720    -5.8110    -0.0190 C.ar  1 <1>  -0.1500 
 18 C       -5.1020    -7.9870    -0.0140 C.ar  1 <1>  -0.1500 
 19 C       -7.3410    -6.3590    -0.0330 C.ar  1 <1>   0.0820 
 20 C       -6.3660    -8.5660    -0.0380 C.ar  1 <1>   0.0820 
 21 O       -8.3750    -5.4740    -0.0290 O.3   1 <1>  -0.3630 
 22 C       -7.4970    -7.7480    -0.0600 C.ar  1 <1>   0.0820 
 23 O       -6.5500    -9.9200    -0.0450 O.3   1 <1>  -0.3630 
 24 C       -9.4500    -5.6860     0.8600 C.3   1 <1>   0.0400 
 25 O       -8.7340    -8.3090    -0.1150 O.3   1 <1>  -0.3630 
 26 C       -5.4770   -10.8140     0.1520 C.3   1 <1>   0.0400 
 27 C       -9.1560    -8.7110    -1.3980 C.3   1 <1>   0.0400 
 28 H        2.1770    -1.2680     0.8340 H     1 <1>   0.3700 
 29 H       -1.2860    -3.0480     2.1500 H     1 <1>   0.0800 
 30 H       -0.0050    -4.0980     1.6410 H     1 <1>   0.0800 
 31 H        1.7310    -4.1740     0.2650 H     1 <1>   0.0800 
 32 H       -0.5580    -3.4550    -0.7650 H     1 <1>   0.0800 
 33 H       -1.9050    -2.5430    -0.1480 H     1 <1>   0.0800 
 34 H        4.0210    -4.4600     0.7830 H     1 <1>   0.0800 
 35 H        3.5490    -3.3440     2.0430 H     1 <1>   0.0800 
 36 H        2.0050    -2.4030    -1.7190 H     1 <1>   0.0800 
 37 H        3.0020    -3.8390    -1.7000 H     1 <1>   0.0800 
 38 H        5.6150    -2.8620     0.2880 H     1 <1>   0.0800 
 39 H        4.6590    -1.5630     0.9690 H     1 <1>   0.0800 
 40 H        3.8240    -1.0550    -1.0660 H     1 <1>   0.0800 
 41 H        4.7560    -2.3400    -1.8050 H     1 <1>   0.0800 
 42 H       -5.9810    -4.7400    -0.0130 H     1 <1>   0.1500 
 43 H       -4.2240    -8.6030    -0.0040 H     1 <1>   0.1500 
 44 H       -9.9250    -4.7390     1.0440 H     1 <1>   0.0800 
 45 H       -9.0730    -6.0950     1.7810 H     1 <1>   0.0800 
 46 H      -10.1520    -6.3610     0.4060 H     1 <1>   0.0800 
 47 H       -4.9970   -10.5840     1.0870 H     1 <1>   0.0800 
 48 H       -4.7890   -10.7230    -0.6700 H     1 <1>   0.0800 
 49 H       -5.8770   -11.8110     0.1830 H     1 <1>   0.0800 
 50 H      -10.1500    -9.1110    -1.3150 H     1 <1>   0.0800 
 51 H       -9.1540    -7.8530    -2.0470 H     1 <1>   0.0800 
 52 H       -8.4840    -9.4650    -1.7670 H     1 <1>   0.0800 
@<TRIPOS>BOND
  1   1   2  2   
  2   2   3  am  
  3   2   4  1   
  4   3   5  1   
  5   3  28  1   
  6   4   6  1   
  7   4  29  1   
  8   4  30  1   
  9   5   7  1   
 10   5   8  1   
 11   5  31  1   
 12   6   9  1   
 13   6  32  1   
 14   6  33  1   
 15   7  10  1   
 16   7  34  1   
 17   7  35  1   
 18   8  11  1   
 19   8  36  1   
 20   8  37  1   
 21   9  12  1   
 22   9  13  2   
 23  10  11  1   
 24  10  38  1   
 25  10  39  1   
 26  11  40  1   
 27  11  41  1   
 28  12  14  1   
 29  13  15  1   
 30  14  15  2   
 31  15  16  1   
 32  16  17  ar  
 33  16  18  ar  
 34  17  19  ar  
 35  17  42  1   
 36  18  20  ar  
 37  18  43  1   
 38  19  21  1   
 39  19  22  ar  
 40  20  22  ar  
 41  20  23  1   
 42  21  24  1   
 43  22  25  1   
 44  23  26  1   
 45  24  44  1   
 46  24  45  1   
 47  24  46  1   
 48  25  27  1   
 49  26  47  1   
 50  26  48  1   
 51  26  49  1   
 52  27  50  1   
 53  27  51  1   
 54  27  52  1   
@<TRIPOS>SUBSTRUCTURE
  1 ****  13 GROUP 4 **** **** 0

# MOE 2024.06 (io_trps.svl 2023.06)
