@<TRIPOS>MOLECULE
1-(4-tert-Butyl-benzyl)-1H-imidazole
34 35 1 0 0 
SMALL
USER_CHARGES


@<TRIPOS>ATOM
  1 N       -1.3960    -0.6180    -0.4010 N.2   1 <1>  -0.5650 
  2 C       -0.7660    -1.5680    -1.0110 C.2   1 <1>   0.0370 
  3 C       -1.6590    -1.1390     0.8120 C.2   1 <1>   0.0770 
  4 N       -0.5980    -2.6860    -0.2680 N.pl3 1 <1>   0.0480 
  5 C       -1.1790    -2.3980     0.9120 C.2   1 <1>  -0.3020 
  6 C        0.0940    -3.9300    -0.6640 C.3   1 <1>   0.2390 
  7 C       -0.7730    -5.1550    -0.4050 C.ar  1 <1>  -0.1440 
  8 C       -2.0120    -5.2830    -1.0110 C.ar  1 <1>  -0.1500 
  9 C       -0.3350    -6.1630     0.4360 C.ar  1 <1>  -0.1500 
 10 C       -2.7940    -6.4000    -0.7780 C.ar  1 <1>  -0.1500 
 11 C       -1.1210    -7.2800     0.6660 C.ar  1 <1>  -0.1500 
 12 C       -2.3680    -7.4220     0.0630 C.ar  1 <1>  -0.1430 
 13 C       -3.2790    -8.6490     0.2900 C.3   1 <1>   0.1440 
 14 C       -4.6130    -8.1920     0.8990 C.3   1 <1>  -0.2400 
 15 C       -2.6680    -9.6910     1.2420 C.3   1 <1>  -0.2400 
 16 C       -3.5440    -9.3470    -1.0520 C.3   1 <1>  -0.2400 
 17 H       -0.4000    -1.4920    -2.0200 H     1 <1>   0.1500 
 18 H       -2.1890    -0.5730     1.5600 H     1 <1>   0.1500 
 19 H       -1.2240    -3.0900     1.7330 H     1 <1>   0.1500 
 20 H        1.0100    -3.9980    -0.1080 H     1 <1>   0.0800 
 21 H        0.3340    -3.8780    -1.7100 H     1 <1>   0.0800 
 22 H       -2.3800    -4.5110    -1.6650 H     1 <1>   0.1500 
 23 H        0.6220    -6.0910     0.9230 H     1 <1>   0.1500 
 24 H       -3.7490    -6.4610    -1.2650 H     1 <1>   0.1500 
 25 H       -0.7320    -8.0300     1.3280 H     1 <1>   0.1500 
 26 H       -4.4350    -7.6710     1.8220 H     1 <1>   0.0800 
 27 H       -5.2490    -9.0360     1.0980 H     1 <1>   0.0800 
 28 H       -5.1370    -7.5300     0.2350 H     1 <1>   0.0800 
 29 H       -2.4890    -9.2580     2.2100 H     1 <1>   0.0800 
 30 H       -1.7400   -10.0650     0.8470 H     1 <1>   0.0800 
 31 H       -3.3350   -10.5250     1.3690 H     1 <1>   0.0800 
 32 H       -2.6120    -9.6410    -1.5030 H     1 <1>   0.0800 
 33 H       -4.1480   -10.2250    -0.9120 H     1 <1>   0.0800 
 34 H       -4.0570    -8.6960    -1.7350 H     1 <1>   0.0800 
@<TRIPOS>BOND
  1   1   2  2   
  2   1   3  1   
  3   2   4  1   
  4   2  17  1   
  5   3   5  2   
  6   3  18  1   
  7   4   5  1   
  8   4   6  1   
  9   5  19  1   
 10   6   7  1   
 11   6  20  1   
 12   6  21  1   
 13   7   8  ar  
 14   7   9  ar  
 15   8  10  ar  
 16   8  22  1   
 17   9  11  ar  
 18   9  23  1   
 19  10  12  ar  
 20  10  24  1   
 21  11  12  ar  
 22  11  25  1   
 23  12  13  1   
 24  13  14  1   
 25  13  15  1   
 26  13  16  1   
 27  14  26  1   
 28  14  27  1   
 29  14  28  1   
 30  15  29  1   
 31  15  30  1   
 32  15  31  1   
 33  16  32  1   
 34  16  33  1   
 35  16  34  1   
@<TRIPOS>SUBSTRUCTURE
  1 ****   8 GROUP 4 **** **** 0

# MOE 2024.06 (io_trps.svl 2023.06)
