@<TRIPOS>MOLECULE
N-(5-o-Tolyl-[1,3,4]thiadiazol-2-yl)-isobutyramide
33 34 1 0 0 
SMALL
USER_CHARGES


@<TRIPOS>ATOM
  1 S        0.0720    -0.5250     0.2640 S.3   1 <1>  -0.0800 
  2 C       -1.0450     0.5300    -0.5330 C.2   1 <1>   0.4420 
  3 C        1.3640     0.3220    -0.5310 C.2   1 <1>   0.3250 
  4 N       -0.4490     1.3830    -1.2810 N.2   1 <1>  -0.3380 
  5 N       -2.4050     0.4360    -0.3590 N.am  1 <1>  -0.4940 
  6 N        0.9050     1.2640    -1.2800 N.2   1 <1>  -0.3380 
  7 C        2.7240    -0.0950    -0.2750 C.ar  1 <1>   0.0530 
  8 C       -3.1790    -0.4220     0.3710 C.2   1 <1>   0.5690 
  9 C        3.7800     0.8120    -0.0830 C.ar  1 <1>  -0.1440 
 10 C        3.0290    -1.4580    -0.2140 C.ar  1 <1>  -0.1500 
 11 O       -2.7300    -1.3230     1.0320 O.2   1 <1>  -0.5700 
 12 C       -4.6960    -0.2190     0.3370 C.3   1 <1>  -0.0190 
 13 C        5.0650     0.3530     0.1540 C.ar  1 <1>  -0.1500 
 14 C        3.5510     2.3190    -0.1180 C.3   1 <1>  -0.0970 
 15 C        4.3110    -1.9090     0.0260 C.ar  1 <1>  -0.1500 
 16 C       -5.2720    -0.3960    -1.0780 C.3   1 <1>  -0.2400 
 17 C       -5.1090     1.1470     0.9120 C.3   1 <1>  -0.2400 
 18 C        5.3350    -1.0020     0.2100 C.ar  1 <1>  -0.1500 
 19 H       -2.9190     1.1390    -0.8810 H     1 <1>   0.3700 
 20 H        2.2490    -2.1830    -0.3630 H     1 <1>   0.1500 
 21 H       -5.1290    -0.9810     0.9630 H     1 <1>   0.0800 
 22 H        5.8730     1.0490     0.2990 H     1 <1>   0.1500 
 23 H        2.7270     2.5870     0.5180 H     1 <1>   0.0800 
 24 H        3.3310     2.6330    -1.1230 H     1 <1>   0.0800 
 25 H        4.4210     2.8530     0.2200 H     1 <1>   0.0800 
 26 H        4.5150    -2.9660     0.0670 H     1 <1>   0.1500 
 27 H       -4.9080     0.3650    -1.7460 H     1 <1>   0.0800 
 28 H       -6.3460    -0.3410    -1.0510 H     1 <1>   0.0800 
 29 H       -4.9940    -1.3590    -1.4700 H     1 <1>   0.0800 
 30 H       -4.7400     1.9540     0.3050 H     1 <1>   0.0800 
 31 H       -4.7180     1.2590     1.9090 H     1 <1>   0.0800 
 32 H       -6.1820     1.2190     0.9620 H     1 <1>   0.0800 
 33 H        6.3380    -1.3460     0.3960 H     1 <1>   0.1500 
@<TRIPOS>BOND
  1   1   2  1   
  2   1   3  1   
  3   2   4  2   
  4   2   5  1   
  5   3   6  2   
  6   3   7  1   
  7   4   6  1   
  8   5   8  am  
  9   5  19  1   
 10   7   9  ar  
 11   7  10  ar  
 12   8  11  2   
 13   8  12  1   
 14   9  13  ar  
 15   9  14  1   
 16  10  15  ar  
 17  10  20  1   
 18  12  16  1   
 19  12  17  1   
 20  12  21  1   
 21  13  18  ar  
 22  13  22  1   
 23  14  23  1   
 24  14  24  1   
 25  14  25  1   
 26  15  18  ar  
 27  15  26  1   
 28  16  27  1   
 29  16  28  1   
 30  16  29  1   
 31  17  30  1   
 32  17  31  1   
 33  17  32  1   
 34  18  33  1   
@<TRIPOS>SUBSTRUCTURE
  1 ****   1 GROUP 4 **** **** 0

# MOE 2024.06 (io_trps.svl 2023.06)
