@<TRIPOS>MOLECULE
1-[1-(2-Fluoro-phenyl)-ethyl]-1H-[1,2,3]triazole-4-carboxylic acid (2-morpholin-
48 50 1 0 0 
SMALL
USER_CHARGES


@<TRIPOS>ATOM
  1 F        0.1810    -1.5200    -3.0800 F     1 <1>  -0.1900 
  2 C        0.3030    -1.0500    -1.8670 C.ar  1 <1>   0.1900 
  3 C       -0.0440    -1.8480    -0.7860 C.ar  1 <1>  -0.1440 
  4 C        0.7770     0.2400    -1.7210 C.ar  1 <1>  -0.1500 
  5 C        0.0990    -1.3050     0.4860 C.ar  1 <1>  -0.1500 
  6 C       -0.5680    -3.2700    -0.9850 C.3   1 <1>   0.3190 
  7 C        0.9130     0.7610    -0.4460 C.ar  1 <1>  -0.1500 
  8 C        0.5740    -0.0130     0.6520 C.ar  1 <1>  -0.1500 
  9 N       -1.9110    -3.4090    -0.3460 N.pl3 1 <1>   0.3140 
 10 C        0.4450    -4.3030    -0.4650 C.3   1 <1>  -0.2400 
 11 N       -2.1320    -3.9540     0.8600 N.2   1 <1>  -0.4180 
 12 C       -3.0720    -3.0000    -0.8510 C.2   1 <1>  -0.3020 
 13 N       -3.3880    -3.8980     1.1120 N.2   1 <1>  -0.2270 
 14 C       -4.0140    -3.3090     0.0710 C.2   1 <1>   0.1410 
 15 C       -5.4450    -3.0870     0.0530 C.2   1 <1>   0.7160 
 16 O       -5.9980    -2.5030    -0.8630 O.2   1 <1>  -0.5700 
 17 N       -6.2250    -3.5000     1.0990 N.am  1 <1>  -0.7300 
 18 C       -7.7070    -3.6890     1.1060 C.3   1 <1>   0.1400 
 19 C       -8.4690    -2.3750     1.3820 C.3   1 <1>   0.3430 
 20 N       -8.2130    -1.3600     0.3190 N.4   1 <1>  -0.9590 
 21 C       -8.2890     0.0530     0.8150 C.3   1 <1>   0.3430 
 22 C       -9.0610    -1.5540    -0.9050 C.3   1 <1>   0.3430 
 23 C       -8.0400     1.0590    -0.3260 C.3   1 <1>   0.1200 
 24 C       -8.7670    -0.4700    -1.9590 C.3   1 <1>   0.1200 
 25 O       -8.9040     0.8030    -1.3950 O.3   1 <1>  -0.5600 
 26 H        1.0350     0.8220    -2.5880 H     1 <1>   0.1500 
 27 H       -0.1600    -1.8850     1.3580 H     1 <1>   0.1500 
 28 H       -0.7110    -3.4590    -2.0330 H     1 <1>   0.0800 
 29 H        1.2810     1.7630    -0.3070 H     1 <1>   0.1500 
 30 H        0.6800     0.3920     1.6450 H     1 <1>   0.1500 
 31 H        0.6270    -4.1660     0.5860 H     1 <1>   0.0800 
 32 H        1.3770    -4.1910    -0.9880 H     1 <1>   0.0800 
 33 H        0.0770    -5.3000    -0.6320 H     1 <1>   0.0800 
 34 H       -3.1790    -2.5200    -1.8060 H     1 <1>   0.1500 
 35 H       -5.7080    -4.0010     1.8350 H     1 <1>   0.3700 
 36 H       -7.9570    -4.4040     1.8710 H     1 <1>   0.0800 
 37 H       -8.0200    -4.1020     0.1620 H     1 <1>   0.0800 
 38 H       -8.1430    -1.9940     2.3360 H     1 <1>   0.0800 
 39 H       -9.5270    -2.5740     1.4500 H     1 <1>   0.0800 
 40 H       -7.2390    -1.5290    -0.0090 H     1 <1>   0.4500 
 41 H       -7.5590     0.2110     1.5920 H     1 <1>   0.0800 
 42 H       -9.2660     0.2430     1.2290 H     1 <1>   0.0800 
 43 H      -10.1050    -1.5010    -0.6430 H     1 <1>   0.0800 
 44 H       -8.8690    -2.5220    -1.3360 H     1 <1>   0.0800 
 45 H       -7.0240     1.0010    -0.6780 H     1 <1>   0.0800 
 46 H       -8.2290     2.0620     0.0150 H     1 <1>   0.0800 
 47 H       -9.4640    -0.5450    -2.7750 H     1 <1>   0.0800 
 48 H       -7.7680    -0.5740    -2.3500 H     1 <1>   0.0800 
@<TRIPOS>BOND
  1   1   2  1   
  2   2   3  ar  
  3   2   4  ar  
  4   3   5  ar  
  5   3   6  1   
  6   4   7  ar  
  7   4  26  1   
  8   5   8  ar  
  9   5  27  1   
 10   6   9  1   
 11   6  10  1   
 12   6  28  1   
 13   7   8  ar  
 14   7  29  1   
 15   8  30  1   
 16   9  11  1   
 17   9  12  1   
 18  10  31  1   
 19  10  32  1   
 20  10  33  1   
 21  11  13  2   
 22  12  14  2   
 23  12  34  1   
 24  13  14  1   
 25  14  15  1   
 26  15  16  2   
 27  15  17  am  
 28  17  18  1   
 29  17  35  1   
 30  18  19  1   
 31  18  36  1   
 32  18  37  1   
 33  19  20  1   
 34  19  38  1   
 35  19  39  1   
 36  20  21  1   
 37  20  22  1   
 38  20  40  1   
 39  21  23  1   
 40  21  41  1   
 41  21  42  1   
 42  22  24  1   
 43  22  43  1   
 44  22  44  1   
 45  23  25  1   
 46  23  45  1   
 47  23  46  1   
 48  24  25  1   
 49  24  47  1   
 50  24  48  1   
@<TRIPOS>SUBSTRUCTURE
  1 ****  12 GROUP 4 **** **** 0

# MOE 2024.06 (io_trps.svl 2023.06)
