@<TRIPOS>MOLECULE
[4-Chloro-3-(morpholine-4-sulfonyl)-phenyl]-piperidin-1-yl-methanone
45 47 1 0 0 
SMALL
USER_CHARGES


@<TRIPOS>ATOM
  1 CL       0.2520     0.5250     1.7560 Cl    1 <1>  -0.1770 
  2 C        1.5290    -0.2480     0.8540 C.ar  1 <1>   0.1770 
  3 C        1.5500    -1.6180     0.6180 C.ar  1 <1>  -0.0090 
  4 C        2.5200     0.5860     0.3670 C.ar  1 <1>  -0.1500 
  5 S        0.2730    -2.7580     1.2150 S.o2  1 <1>   1.4470 
  6 C        2.6010    -2.1110    -0.1480 C.ar  1 <1>  -0.1500 
  7 C        3.5550     0.0620    -0.3810 C.ar  1 <1>  -0.1500 
  8 O        0.8670    -4.0740     1.2970 O.2   1 <1>  -0.6500 
  9 O       -0.4390    -2.2650     2.3720 O.2   1 <1>  -0.6500 
 10 N       -0.8310    -2.8130    -0.0710 N.am  1 <1>  -0.8490 
 11 C        3.6160    -1.3020    -0.6540 C.ar  1 <1>   0.0860 
 12 C       -1.7100    -1.6320    -0.1320 C.3   1 <1>   0.1960 
 13 C       -1.6600    -4.0290    -0.0170 C.3   1 <1>   0.1960 
 14 C        4.6870    -1.8680    -1.4500 C.2   1 <1>   0.5440 
 15 C       -2.7030    -1.7390    -1.3030 C.3   1 <1>   0.1200 
 16 C       -2.6600    -4.0760    -1.1870 C.3   1 <1>   0.1200 
 17 O        4.4030    -2.4060    -2.5020 O.2   1 <1>  -0.5700 
 18 N        6.0050    -1.8120    -1.0460 N.am  1 <1>  -0.6600 
 19 O       -3.4480    -2.9190    -1.2090 O.3   1 <1>  -0.5600 
 20 C        7.1130    -2.2850    -1.9250 C.3   1 <1>   0.1400 
 21 C        6.4410    -1.4350     0.3280 C.3   1 <1>   0.1400 
 22 C        7.8120    -3.4840    -1.2760 C.3   1 <1>  -0.1600 
 23 C        7.1370    -2.6260     0.9960 C.3   1 <1>  -0.1600 
 24 C        8.2980    -3.1570     0.1430 C.3   1 <1>  -0.1600 
 25 H        2.4730     1.6420     0.5720 H     1 <1>   0.1500 
 26 H        2.6410    -3.1650    -0.3710 H     1 <1>   0.1500 
 27 H        4.3250     0.7070    -0.7690 H     1 <1>   0.1500 
 28 H       -1.1170    -0.7450    -0.2680 H     1 <1>   0.0800 
 29 H       -2.2640    -1.5280     0.7870 H     1 <1>   0.0800 
 30 H       -2.2000    -4.0670     0.9140 H     1 <1>   0.0800 
 31 H       -1.0300    -4.9010    -0.0720 H     1 <1>   0.0800 
 32 H       -2.1810    -1.7340    -2.2440 H     1 <1>   0.0800 
 33 H       -3.3930    -0.9140    -1.2830 H     1 <1>   0.0800 
 34 H       -3.3170    -4.9200    -1.0810 H     1 <1>   0.0800 
 35 H       -2.1380    -4.1560    -2.1240 H     1 <1>   0.0800 
 36 H        7.8160    -1.4820    -2.0630 H     1 <1>   0.0800 
 37 H        6.7400    -2.5670    -2.8950 H     1 <1>   0.0800 
 38 H        5.6050    -1.1330     0.9330 H     1 <1>   0.0800 
 39 H        7.1240    -0.6050     0.2620 H     1 <1>   0.0800 
 40 H        8.6470    -3.7810    -1.8860 H     1 <1>   0.0800 
 41 H        7.1210    -4.3090    -1.2450 H     1 <1>   0.0800 
 42 H        6.4130    -3.4090     1.1480 H     1 <1>   0.0800 
 43 H        7.5050    -2.3290     1.9610 H     1 <1>   0.0800 
 44 H        9.0740    -2.4120     0.0910 H     1 <1>   0.0800 
 45 H        8.7120    -4.0400     0.5980 H     1 <1>   0.0800 
@<TRIPOS>BOND
  1   1   2  1   
  2   2   3  ar  
  3   2   4  ar  
  4   3   5  1   
  5   3   6  ar  
  6   4   7  ar  
  7   4  25  1   
  8   5   8  2   
  9   5   9  2   
 10   5  10  am  
 11   6  11  ar  
 12   6  26  1   
 13   7  11  ar  
 14   7  27  1   
 15  10  12  1   
 16  10  13  1   
 17  11  14  1   
 18  12  15  1   
 19  12  28  1   
 20  12  29  1   
 21  13  16  1   
 22  13  30  1   
 23  13  31  1   
 24  14  17  2   
 25  14  18  am  
 26  15  19  1   
 27  15  32  1   
 28  15  33  1   
 29  16  19  1   
 30  16  34  1   
 31  16  35  1   
 32  18  20  1   
 33  18  21  1   
 34  20  22  1   
 35  20  36  1   
 36  20  37  1   
 37  21  23  1   
 38  21  38  1   
 39  21  39  1   
 40  22  24  1   
 41  22  40  1   
 42  22  41  1   
 43  23  24  1   
 44  23  42  1   
 45  23  43  1   
 46  24  44  1   
 47  24  45  1   
@<TRIPOS>SUBSTRUCTURE
  1 ****   6 GROUP 4 **** **** 0

# MOE 2024.06 (io_trps.svl 2023.06)
