@<TRIPOS>MOLECULE
2-Oxo-1-oxa-spiro[4.4]nonane-4-carboxylic acid (2,6-dichloro-phenyl)-amide
36 38 1 0 0 
SMALL
USER_CHARGES


@<TRIPOS>ATOM
  1 CL       0.5750     2.7200     2.4750 Cl    1 <1>  -0.1770 
  2 C        0.1510     2.7400     0.7770 C.ar  1 <1>   0.1770 
  3 C       -1.1290     2.3560     0.3830 C.ar  1 <1>   0.1170 
  4 C        1.1160     3.1390    -0.1320 C.ar  1 <1>  -0.1500 
  5 N       -2.0840     1.9580     1.3440 N.am  1 <1>  -0.5470 
  6 C       -1.4000     2.4030    -0.9850 C.ar  1 <1>   0.1770 
  7 C        0.8160     3.1670    -1.4840 C.ar  1 <1>  -0.1500 
  8 C       -2.5920     0.7320     1.6390 C.2   1 <1>   0.5690 
  9 CL      -2.9830     1.9630    -1.5860 Cl    1 <1>  -0.1770 
 10 C       -0.4500     2.7980    -1.9100 C.ar  1 <1>  -0.1500 
 11 O       -3.2600     0.6100     2.6330 O.2   1 <1>  -0.5700 
 12 C       -2.2750    -0.4940     0.7850 C.3   1 <1>  -0.0190 
 13 C       -3.5330    -1.2760     0.3420 C.3   1 <1>   0.2800 
 14 C       -1.4800    -1.5210     1.5970 C.3   1 <1>  -0.0990 
 15 O       -3.6270    -2.3580     1.2360 O.3   1 <1>  -0.4300 
 16 C       -4.8880    -0.5640     0.3140 C.3   1 <1>  -0.1600 
 17 C       -3.4250    -1.8690    -1.0650 C.3   1 <1>  -0.1600 
 18 C       -2.5250    -2.5480     1.9290 C.2   1 <1>   0.6590 
 19 C       -5.7850    -1.4010    -0.6060 C.3   1 <1>  -0.1600 
 20 C       -4.8490    -2.2850    -1.4400 C.3   1 <1>  -0.1600 
 21 O       -2.3660    -3.4510     2.7020 O.2   1 <1>  -0.5700 
 22 H        2.0930     3.4250     0.2180 H     1 <1>   0.1500 
 23 H       -2.2870     2.6350     2.0840 H     1 <1>   0.3700 
 24 H        1.5610     3.4770    -2.1990 H     1 <1>   0.1500 
 25 H       -0.7000     2.8200    -2.9560 H     1 <1>   0.1500 
 26 H       -1.7080    -0.1930    -0.0740 H     1 <1>   0.0800 
 27 H       -1.0530    -1.1120     2.4950 H     1 <1>   0.0800 
 28 H       -0.7170    -1.9850     1.0010 H     1 <1>   0.0800 
 29 H       -4.7760     0.4140    -0.1160 H     1 <1>   0.0800 
 30 H       -5.3080    -0.4620     1.3000 H     1 <1>   0.0800 
 31 H       -2.7340    -2.6930    -1.1140 H     1 <1>   0.0800 
 32 H       -3.1050    -1.1040    -1.7510 H     1 <1>   0.0800 
 33 H       -6.3870    -0.7660    -1.2330 H     1 <1>   0.0800 
 34 H       -6.4350    -2.0240    -0.0140 H     1 <1>   0.0800 
 35 H       -5.0040    -3.3170    -1.1700 H     1 <1>   0.0800 
 36 H       -5.0280    -2.1710    -2.4960 H     1 <1>   0.0800 
@<TRIPOS>BOND
  1   1   2  1   
  2   2   3  ar  
  3   2   4  ar  
  4   3   5  1   
  5   3   6  ar  
  6   4   7  ar  
  7   4  22  1   
  8   5   8  am  
  9   5  23  1   
 10   6   9  1   
 11   6  10  ar  
 12   7  10  ar  
 13   7  24  1   
 14   8  11  2   
 15   8  12  1   
 16  10  25  1   
 17  12  13  1   
 18  12  14  1   
 19  12  26  1   
 20  13  15  1   
 21  13  16  1   
 22  13  17  1   
 23  14  18  1   
 24  14  27  1   
 25  14  28  1   
 26  15  18  1   
 27  16  19  1   
 28  16  29  1   
 29  16  30  1   
 30  17  20  1   
 31  17  31  1   
 32  17  32  1   
 33  18  21  2   
 34  19  20  1   
 35  19  33  1   
 36  19  34  1   
 37  20  35  1   
 38  20  36  1   
@<TRIPOS>SUBSTRUCTURE
  1 ****  12 GROUP 4 **** **** 0

# MOE 2024.06 (io_trps.svl 2023.06)
