@<TRIPOS>MOLECULE
N-(2-Hydroxy-ethyl)-2-[2-methyl-4-(piperidine-1-sulfonyl)-phenoxy]-acetamide
48 49 1 0 0 
SMALL
USER_CHARGES


@<TRIPOS>ATOM
  1 S       -0.4140     0.2610    -1.8190 S.o2  1 <1>   1.4470 
  2 O       -0.4380    -1.0110    -2.5110 O.2   1 <1>  -0.6500 
  3 O       -1.1080     1.3930    -2.3930 O.2   1 <1>  -0.6500 
  4 N       -1.0660    -0.0060    -0.2760 N.am  1 <1>  -0.8490 
  5 C        1.2980     0.7380    -1.4680 C.ar  1 <1>  -0.0090 
  6 C       -0.5360    -1.2270     0.3410 C.3   1 <1>   0.1960 
  7 C       -2.5310    -0.0330    -0.3160 C.3   1 <1>   0.1960 
  8 C        1.5880     1.6910    -0.5000 C.ar  1 <1>  -0.1500 
  9 C        2.3610     0.1700    -2.1600 C.ar  1 <1>  -0.1500 
 10 C       -1.0250    -1.3450     1.7870 C.3   1 <1>  -0.1600 
 11 C       -3.1020    -0.1210     1.1030 C.3   1 <1>  -0.1600 
 12 C        2.8890     2.0700    -0.2160 C.ar  1 <1>  -0.1430 
 13 C        3.6670     0.5350    -1.8930 C.ar  1 <1>  -0.1500 
 14 C       -2.5560    -1.3390     1.8570 C.3   1 <1>  -0.1600 
 15 C        3.9400     1.4890    -0.9180 C.ar  1 <1>   0.0820 
 16 C        3.1500     3.1190     0.8560 C.3   1 <1>  -0.0970 
 17 O        5.1970     1.8920    -0.6120 O.3   1 <1>  -0.3630 
 18 C        6.3330     1.4040    -1.3170 C.3   1 <1>   0.1810 
 19 C        7.6100     2.0580    -0.8070 C.2   1 <1>   0.5690 
 20 O        8.6730     1.6560    -1.2140 O.2   1 <1>  -0.5700 
 21 N        7.5260     3.0710     0.0950 N.am  1 <1>  -0.7300 
 22 C        8.6780     3.8040     0.6690 C.3   1 <1>   0.1400 
 23 C        9.1440     3.1230     1.9570 C.3   1 <1>   0.1200 
 24 O       10.2320     3.8120     2.4750 O.3   1 <1>  -0.6800 
 25 H        0.5410    -1.1980     0.3390 H     1 <1>   0.0800 
 26 H       -0.8510    -2.0910    -0.2220 H     1 <1>   0.0800 
 27 H       -2.8650    -0.8730    -0.9050 H     1 <1>   0.0800 
 28 H       -2.9010     0.8680    -0.7780 H     1 <1>   0.0800 
 29 H        0.7670     2.1390     0.0370 H     1 <1>   0.1500 
 30 H        2.1600    -0.5690    -2.9180 H     1 <1>   0.1500 
 31 H       -0.6300    -0.5210     2.3550 H     1 <1>   0.0800 
 32 H       -0.6460    -2.2540     2.2190 H     1 <1>   0.0800 
 33 H       -4.1750    -0.1770     1.0530 H     1 <1>   0.0800 
 34 H       -2.8440     0.7790     1.6330 H     1 <1>   0.0800 
 35 H        4.4510     0.0630    -2.4560 H     1 <1>   0.1500 
 36 H       -2.8790    -1.3140     2.8830 H     1 <1>   0.0800 
 37 H       -2.9380    -2.2400     1.4060 H     1 <1>   0.0800 
 38 H        2.2330     3.4450     1.3130 H     1 <1>   0.0800 
 39 H        3.6370     3.9720     0.4200 H     1 <1>   0.0800 
 40 H        3.7850     2.7080     1.6210 H     1 <1>   0.0800 
 41 H        6.2120     1.6310    -2.3600 H     1 <1>   0.0800 
 42 H        6.3950     0.3420    -1.1710 H     1 <1>   0.0800 
 43 H        6.5920     3.3320     0.4250 H     1 <1>   0.3700 
 44 H        8.3860     4.8190     0.8760 H     1 <1>   0.0800 
 45 H        9.4830     3.8100    -0.0470 H     1 <1>   0.0800 
 46 H        9.4470     2.1070     1.7660 H     1 <1>   0.0800 
 47 H        8.3630     3.1390     2.6960 H     1 <1>   0.0800 
 48 H       11.0190     3.6850     1.9090 H     1 <1>   0.4000 
@<TRIPOS>BOND
  1   1   2  2   
  2   1   3  2   
  3   1   4  am  
  4   1   5  1   
  5   4   6  1   
  6   4   7  1   
  7   5   8  ar  
  8   5   9  ar  
  9   6  10  1   
 10   6  25  1   
 11   6  26  1   
 12   7  11  1   
 13   7  27  1   
 14   7  28  1   
 15   8  12  ar  
 16   8  29  1   
 17   9  13  ar  
 18   9  30  1   
 19  10  14  1   
 20  10  31  1   
 21  10  32  1   
 22  11  14  1   
 23  11  33  1   
 24  11  34  1   
 25  12  15  ar  
 26  12  16  1   
 27  13  15  ar  
 28  13  35  1   
 29  14  36  1   
 30  14  37  1   
 31  15  17  1   
 32  16  38  1   
 33  16  39  1   
 34  16  40  1   
 35  17  18  1   
 36  18  19  1   
 37  18  41  1   
 38  18  42  1   
 39  19  20  2   
 40  19  21  am  
 41  21  22  1   
 42  21  43  1   
 43  22  23  1   
 44  22  44  1   
 45  22  45  1   
 46  23  24  1   
 47  23  46  1   
 48  23  47  1   
 49  24  48  1   
@<TRIPOS>SUBSTRUCTURE
  1 ****  12 GROUP 4 **** **** 0

# MOE 2024.06 (io_trps.svl 2023.06)
