@<TRIPOS>MOLECULE
{[5-(2,3-Dihydro-benzo[1,4]dioxin-6-yl)-2-methyl-furan-3-carbonyl]-amino}-acetic
44 46 1 0 0 
SMALL
USER_CHARGES


@<TRIPOS>ATOM
  1 O        0.0390    -0.0780    -0.5430 O.2   1 <1>  -0.5700 
  2 C        0.6420    -0.9990    -0.0300 C.2   1 <1>   0.7160 
  3 N        1.8540    -0.7450     0.5280 N.am  1 <1>  -0.7300 
  4 C        0.0900    -2.3330     0.0060 C.2   1 <1>  -0.0860 
  5 C        2.6460     0.5110     0.3550 C.3   1 <1>   0.2010 
  6 C        0.6830    -3.5570     0.1030 C.2   1 <1>  -0.0400 
  7 C       -1.2830    -2.6280    -0.0560 C.2   1 <1>  -0.1500 
  8 C        4.1530     0.2570     0.3080 C.2   1 <1>   0.6590 
  9 O       -0.2170    -4.5060     0.1230 O.3   1 <1>  -0.2800 
 10 C        2.1370    -3.9870     0.1670 C.3   1 <1>  -0.0600 
 11 C       -1.4260    -3.9750     0.0240 C.2   1 <1>   0.0870 
 12 O        4.6240    -0.8270     0.5610 O.2   1 <1>  -0.5700 
 13 O        4.9090     1.2970    -0.0190 O.3   1 <1>  -0.4300 
 14 C       -2.6010    -4.8190     0.0140 C.ar  1 <1>   0.0530 
 15 C        6.3110     1.1910    -0.0990 C.3   1 <1>   0.1200 
 16 C       -3.8800    -4.2730    -0.1000 C.ar  1 <1>  -0.1500 
 17 C       -2.5000    -6.2090     0.1190 C.ar  1 <1>  -0.1500 
 18 C        6.8670     2.5550    -0.4970 C.3   1 <1>  -0.2400 
 19 C       -5.0050    -5.0750    -0.1070 C.ar  1 <1>   0.0830 
 20 C       -3.6190    -7.0230     0.1060 C.ar  1 <1>  -0.1500 
 21 O       -6.2270    -4.4900    -0.2020 O.3   1 <1>  -0.3620 
 22 C       -4.8770    -6.4610    -0.0140 C.ar  1 <1>   0.0830 
 23 C       -7.3470    -5.2940     0.1200 C.3   1 <1>   0.1200 
 24 O       -5.9620    -7.2730    -0.0440 O.3   1 <1>  -0.3630 
 25 C       -7.1810    -6.6990    -0.4750 C.3   1 <1>   0.1200 
 26 H        2.3770    -1.5200     0.9440 H     1 <1>   0.3700 
 27 H        2.4360     1.1740     1.1740 H     1 <1>   0.0800 
 28 H        2.3520     0.9990    -0.5570 H     1 <1>   0.0800 
 29 H       -2.0510    -1.8810    -0.1510 H     1 <1>   0.1500 
 30 H        2.8030    -3.1720    -0.0440 H     1 <1>   0.0800 
 31 H        2.3110    -4.7590    -0.5610 H     1 <1>   0.0800 
 32 H        2.3570    -4.3810     1.1430 H     1 <1>   0.0800 
 33 H        6.5570     0.4430    -0.8350 H     1 <1>   0.0800 
 34 H        6.6870     0.8870     0.8640 H     1 <1>   0.0800 
 35 H       -4.0080    -3.2100    -0.1800 H     1 <1>   0.1500 
 36 H       -1.5270    -6.6580     0.2110 H     1 <1>   0.1500 
 37 H        6.4760     2.8490    -1.4550 H     1 <1>   0.0800 
 38 H        7.9380     2.5030    -0.5660 H     1 <1>   0.0800 
 39 H        6.6070     3.2920     0.2410 H     1 <1>   0.0800 
 40 H       -3.5230    -8.0900     0.1850 H     1 <1>   0.1500 
 41 H       -8.2240    -4.8130    -0.2730 H     1 <1>   0.0800 
 42 H       -7.4230    -5.3480     1.1910 H     1 <1>   0.0800 
 43 H       -7.1660    -6.6510    -1.5490 H     1 <1>   0.0800 
 44 H       -7.9810    -7.3450    -0.1610 H     1 <1>   0.0800 
@<TRIPOS>BOND
  1   1   2  2   
  2   2   3  am  
  3   2   4  1   
  4   3   5  1   
  5   3  26  1   
  6   4   6  2   
  7   4   7  1   
  8   5   8  1   
  9   5  27  1   
 10   5  28  1   
 11   6   9  1   
 12   6  10  1   
 13   7  11  2   
 14   7  29  1   
 15   8  12  2   
 16   8  13  1   
 17   9  11  1   
 18  10  30  1   
 19  10  31  1   
 20  10  32  1   
 21  11  14  1   
 22  13  15  1   
 23  14  16  ar  
 24  14  17  ar  
 25  15  18  1   
 26  15  33  1   
 27  15  34  1   
 28  16  19  ar  
 29  16  35  1   
 30  17  20  ar  
 31  17  36  1   
 32  18  37  1   
 33  18  38  1   
 34  18  39  1   
 35  19  21  1   
 36  19  22  ar  
 37  20  22  ar  
 38  20  40  1   
 39  21  23  1   
 40  22  24  1   
 41  23  25  1   
 42  23  41  1   
 43  23  42  1   
 44  24  25  1   
 45  25  43  1   
 46  25  44  1   
@<TRIPOS>SUBSTRUCTURE
  1 ****   7 GROUP 4 **** **** 0

# MOE 2024.06 (io_trps.svl 2023.06)
